0
                    3D
 Structure written by MMmdl.
162170  0  0  1  0            999 V2000
  -30.7185  -14.4867   20.5873 C   0  0  0  0  0  0
  -30.4241  -12.3266   19.4190 C   0  0  0  0  0  0
  -29.4877  -12.4972   18.2051 C   0  0  0  0  0  0
  -28.0115  -12.3598   18.6262 C   0  0  0  0  0  0
  -27.6594  -13.2103   19.8766 C   0  0  2  0  0  0
  -28.7074  -13.0069   20.9943 C   0  0  0  0  0  0
  -25.2514  -13.8099   20.5587 C   0  0  0  0  0  0
  -24.1789  -13.0384   20.9134 C   0  0  0  0  0  0
  -24.6380  -11.6873   20.8734 C   0  0  0  0  0  0
  -23.9052  -10.4268   21.0403 C   0  0  0  0  0  0
  -24.3604   -9.4194   21.9185 C   0  0  0  0  0  0
  -23.6282   -8.2224   22.0759 C   0  0  0  0  0  0
  -22.4267   -8.0250   21.3538 C   0  0  0  0  0  0
  -21.9896   -9.0230   20.4642 C   0  0  0  0  0  0
  -22.7226  -10.2112   20.3048 C   0  0  0  0  0  0
  -21.6843   -6.0714   22.5274 C   0  0  0  0  0  0
  -21.4009   -6.5626   23.8207 C   0  0  0  0  0  0
  -21.3657   -5.6788   24.9174 C   0  0  0  0  0  0
  -21.6053   -4.3051   24.7235 C   0  0  0  0  0  0
  -21.8817   -3.8132   23.4357 C   0  0  0  0  0  0
  -21.9197   -4.6944   22.3405 C   0  0  0  0  0  0
  -22.7828  -13.5196   21.1825 C   0  0  0  0  0  0
  -22.1661   -4.2124   21.0986 F   0  0  0  0  0  0
  -21.5638   -3.4538   25.7752 F   0  0  0  0  0  0
  -30.0334  -13.3185   20.4340 N   0  0  0  0  0  0
  -26.3018  -12.9320   20.3421 N   0  0  0  0  0  0
  -25.9329  -11.6481   20.5851 N   0  0  0  0  0  0
  -22.0494  -12.8183   22.0401 N   0  0  0  0  0  0
  -25.4111  -15.1769   20.3850 N   0  0  0  0  0  0
  -31.8425  -14.6652   20.1120 O   0  0  0  0  0  0
  -21.6624   -6.8850   21.4233 O   0  0  0  0  0  0
  -22.3515  -14.5526   20.6724 O   0  0  0  0  0  0
  -24.6146  -31.8686   23.2109 C   0  0  0  0  0  0
  -25.9041  -32.4814   23.8403 C   0  0  1  0  0  0
  -27.2345  -27.4212   20.0998 C   0  0  0  0  0  0
  -25.5902  -33.8614   24.2318 N   0  0  0  0  0  0
  -23.4045  -30.4904   21.5525 C   0  0  2  0  0  0
  -24.8491  -28.9582   20.1160 C   0  0  0  0  0  0
  -22.7411  -29.4639   22.4996 C   0  0  0  0  0  0
  -18.0278  -28.1368   22.8461 C   0  0  0  0  0  0
  -24.1484  -36.7313   23.2631 C   0  0  0  0  0  0
  -25.9333  -30.8298   21.3658 C   0  0  0  0  0  0
  -26.0108  -29.4638   20.7114 C   0  0  0  0  0  0
  -27.2070  -28.7058   20.6946 C   0  0  0  0  0  0
  -26.0453  -26.9313   19.5063 C   0  0  0  0  0  0
  -24.8605  -27.6911   19.5102 C   0  0  0  0  0  0
  -23.6134  -29.8280   20.1655 C   0  0  0  0  0  0
  -25.4102  -36.3100   24.0327 C   0  0  1  0  0  0
  -20.5864  -28.3652   23.1314 C   0  0  2  0  0  0
  -20.6776  -26.9385   22.5414 C   0  0  0  0  0  0
  -19.5750  -26.6371   21.5203 C   0  0  0  0  0  0
  -18.1923  -26.7911   22.1605 C   0  0  0  0  0  0
  -19.1530  -28.8823   23.2886 C   0  0  0  0  0  0
  -18.9456  -30.1429   23.8876 C   0  0  0  0  0  0
  -17.6466  -30.6564   24.0555 C   0  0  0  0  0  0
  -25.9031  -34.9461   23.5115 C   0  0  0  0  0  0
  -16.5352  -29.9072   23.6322 C   0  0  0  0  0  0
  -16.7275  -28.6508   23.0309 C   0  0  0  0  0  0
  -26.4478  -31.6593   25.0722 C   0  0  0  0  0  0
  -25.3739  -31.3711   26.1472 C   0  0  0  0  0  0
  -27.0332  -30.3037   24.6111 C   0  0  0  0  0  0
  -27.6045  -32.4330   25.7478 C   0  0  0  0  0  0
  -27.5570  -37.1803   24.8449 C   0  0  0  0  0  0
  -21.4142  -29.3024   22.3716 N   0  0  0  0  0  0
  -26.4277  -37.3787   23.9402 N   0  0  0  0  0  0
  -24.6692  -31.0770   22.1023 N   0  0  0  0  0  0
  -23.4168  -28.8172   23.3037 O   0  0  0  0  0  0
  -28.4038  -26.6745   20.1110 O   0  0  0  0  0  0
  -26.5595  -34.8909   22.4681 O   0  0  0  0  0  0
  -23.5326  -32.1450   23.7502 O   0  0  0  0  0  0
  -27.7614  -20.1982   20.8037 C   0  0  0  0  0  0
  -30.0191  -19.3298   20.9463 C   0  0  0  0  0  0
  -27.2371  -18.9201   21.0963 C   0  0  0  0  0  0
  -29.5274  -18.0229   21.2209 C   0  0  0  0  0  0
  -29.1535  -20.4399   20.7562 C   0  0  0  0  0  0
  -28.1254  -17.8408   21.3409 C   0  0  0  0  0  0
  -24.8089  -19.6318   21.0271 C   0  0  0  0  0  0
  -25.7754  -18.7041   21.1471 C   0  0  0  0  0  0
  -27.3149  -16.4653   23.0529 C   0  0  0  0  0  0
  -30.5322  -16.8663   21.4380 C   0  0  0  0  0  0
  -29.3128  -24.0987   19.9342 C   0  0  0  0  0  0
  -28.2487  -25.2459   19.9976 C   0  0  0  0  0  0
  -28.9800  -22.8928   20.8545 C   0  0  0  0  0  0
  -30.0503  -15.4921   21.1859 N   0  0  0  0  0  0
  -27.6228  -16.6077   21.6728 O   0  0  0  0  0  0
  -29.6999  -21.6916   20.4877 O   0  0  0  0  0  0
  -31.4641  -12.4330   19.1075 H   0  0  0  0  0  0
  -30.3421  -11.3197   19.8303 H   0  0  0  0  0  0
  -29.7250  -11.7552   17.4411 H   0  0  0  0  0  0
  -29.6505  -13.4726   17.7457 H   0  0  0  0  0  0
  -27.8271  -11.3052   18.8337 H   0  0  0  0  0  0
  -27.3564  -12.6227   17.7950 H   0  0  0  0  0  0
  -27.6970  -14.2563   19.5709 H   0  0  0  0  0  0
  -28.6915  -11.9733   21.3423 H   0  0  0  0  0  0
  -28.4676  -13.6127   21.8687 H   0  0  0  0  0  0
  -25.2747   -9.5666   22.4763 H   0  0  0  0  0  0
  -23.9990   -7.4610   22.7476 H   0  0  0  0  0  0
  -21.0828   -8.8741   19.8941 H   0  0  0  0  0  0
  -22.3683  -10.9647   19.6147 H   0  0  0  0  0  0
  -21.1982   -7.6131   23.9699 H   0  0  0  0  0  0
  -21.1489   -6.0522   25.9079 H   0  0  0  0  0  0
  -22.0600   -2.7592   23.2872 H   0  0  0  0  0  0
  -22.4119  -11.9820   22.4736 H   0  0  0  0  0  0
  -21.1112  -13.1203   22.2636 H   0  0  0  0  0  0
  -24.6385  -15.8235   20.4880 H   0  0  0  0  0  0
  -26.3031  -15.6392   20.2520 H   0  0  0  0  0  0
  -26.7083  -32.5533   23.1145 H   0  0  0  0  0  0
  -25.0047  -33.9795   25.0454 H   0  0  0  0  0  0
  -22.6924  -31.3065   21.4155 H   0  0  0  0  0  0
  -23.3732  -35.9656   23.3305 H   0  0  0  0  0  0
  -24.3580  -36.8947   22.2044 H   0  0  0  0  0  0
  -23.7258  -37.6521   23.6665 H   0  0  0  0  0  0
  -26.0454  -31.5954   20.5985 H   0  0  0  0  0  0
  -26.8174  -30.8865   21.9865 H   0  0  0  0  0  0
  -28.1064  -29.0928   21.1544 H   0  0  0  0  0  0
  -26.0179  -25.9624   19.0279 H   0  0  0  0  0  0
  -23.9659  -27.2978   19.0470 H   0  0  0  0  0  0
  -23.7245  -30.6059   19.4090 H   0  0  0  0  0  0
  -22.7361  -29.2533   19.8620 H   0  0  0  0  0  0
  -25.1286  -36.1957   25.0825 H   0  0  0  0  0  0
  -20.9940  -28.3216   24.1443 H   0  0  0  0  0  0
  -20.5691  -26.2248   23.3602 H   0  0  0  0  0  0
  -21.6660  -26.7445   22.1207 H   0  0  0  0  0  0
  -19.6919  -25.6283   21.1234 H   0  0  0  0  0  0
  -19.6702  -27.3174   20.6720 H   0  0  0  0  0  0
  -17.4209  -26.6627   21.4001 H   0  0  0  0  0  0
  -18.0345  -26.0040   22.8987 H   0  0  0  0  0  0
  -19.7930  -30.7235   24.2241 H   0  0  0  0  0  0
  -17.5027  -31.6245   24.5155 H   0  0  0  0  0  0
  -15.5358  -30.2970   23.7663 H   0  0  0  0  0  0
  -15.8666  -28.0849   22.6987 H   0  0  0  0  0  0
  -24.5901  -30.7071   25.7822 H   0  0  0  0  0  0
  -24.8927  -32.2872   26.4891 H   0  0  0  0  0  0
  -25.8071  -30.8893   27.0242 H   0  0  0  0  0  0
  -26.2892  -29.6771   24.1172 H   0  0  0  0  0  0
  -27.4129  -29.7299   25.4576 H   0  0  0  0  0  0
  -27.8706  -30.4378   23.9261 H   0  0  0  0  0  0
  -27.2665  -33.3636   26.2053 H   0  0  0  0  0  0
  -28.3845  -32.6903   25.0301 H   0  0  0  0  0  0
  -28.0718  -31.8463   26.5397 H   0  0  0  0  0  0
  -28.2579  -38.0109   24.7546 H   0  0  0  0  0  0
  -28.1104  -36.2652   24.6248 H   0  0  0  0  0  0
  -27.2315  -37.1434   25.8862 H   0  0  0  0  0  0
  -20.9291  -29.8790   21.6977 H   0  0  0  0  0  0
  -26.0163  -38.2855   24.1441 H   0  0  0  0  0  0
  -27.0628  -20.9862   20.5901 H   0  0  0  0  0  0
  -31.0874  -19.4865   20.8915 H   0  0  0  0  0  0
  -23.7704  -19.3355   21.0729 H   0  0  0  0  0  0
  -25.0075  -20.6836   20.8868 H   0  0  0  0  0  0
  -25.4498  -17.6859   21.2918 H   0  0  0  0  0  0
  -26.8981  -15.4722   23.2223 H   0  0  0  0  0  0
  -26.5788  -17.1954   23.3905 H   0  0  0  0  0  0
  -28.2093  -16.5649   23.6683 H   0  0  0  0  0  0
  -30.8499  -16.9055   22.4804 H   0  0  0  0  0  0
  -31.4277  -17.0671   20.8493 H   0  0  0  0  0  0
  -30.3116  -24.4755   20.1642 H   0  0  0  0  0  0
  -29.3721  -23.7148   18.9127 H   0  0  0  0  0  0
  -28.6750  -25.5950   19.0547 H   0  0  0  0  0  0
  -28.5156  -25.3869   21.0472 H   0  0  0  0  0  0
  -27.9002  -22.7843   20.8537 H   0  0  0  0  0  0
  -29.2446  -23.1405   21.8833 H   0  0  0  0  0  0
  -29.1009  -15.3049   21.4708 H   0  0  0  0  0  0
  1 25  1  0  0  0
  1 30  2  0  0  0
  1 84  1  0  0  0
  2  3  1  0  0  0
  2 25  1  0  0  0
  2 87  1  0  0  0
  2 88  1  0  0  0
  3  4  1  0  0  0
  3 89  1  0  0  0
  3 90  1  0  0  0
  4  5  1  0  0  0
  4 91  1  0  0  0
  4 92  1  0  0  0
  5  6  1  0  0  0
  5 26  1  0  0  0
  5 93  1  0  0  0
  6 25  1  0  0  0
  6 94  1  0  0  0
  6 95  1  0  0  0
  7  8  2  0  0  0
  7 26  1  0  0  0
  7 29  1  0  0  0
  8  9  1  0  0  0
  8 22  1  0  0  0
  9 10  1  0  0  0
  9 27  2  0  0  0
 10 11  2  0  0  0
 10 15  1  0  0  0
 11 12  1  0  0  0
 11 96  1  0  0  0
 12 13  2  0  0  0
 12 97  1  0  0  0
 13 14  1  0  0  0
 13 31  1  0  0  0
 14 15  2  0  0  0
 14 98  1  0  0  0
 15 99  1  0  0  0
 16 17  2  0  0  0
 16 21  1  0  0  0
 16 31  1  0  0  0
 17 18  1  0  0  0
 17100  1  0  0  0
 18 19  2  0  0  0
 18101  1  0  0  0
 19 20  1  0  0  0
 19 24  1  0  0  0
 20 21  2  0  0  0
 20102  1  0  0  0
 21 23  1  0  0  0
 22 28  1  0  0  0
 22 32  2  0  0  0
 26 27  1  0  0  0
 28103  1  0  0  0
 28104  1  0  0  0
 29105  1  0  0  0
 29106  1  0  0  0
 33 34  1  0  0  0
 33 66  1  0  0  0
 33 70  2  0  0  0
 34 36  1  0  0  0
 34 59  1  0  0  0
 34107  1  0  0  0
 35 44  2  0  0  0
 35 45  1  0  0  0
 35 68  1  0  0  0
 36 56  1  0  0  0
 36108  1  0  0  0
 37 39  1  0  0  0
 37 47  1  0  0  0
 37 66  1  0  0  0
 37109  1  0  0  0
 38 43  2  0  0  0
 38 46  1  0  0  0
 38 47  1  0  0  0
 39 64  1  0  0  0
 39 67  2  0  0  0
 40 52  1  0  0  0
 40 53  2  0  0  0
 40 58  1  0  0  0
 41110  1  0  0  0
 41111  1  0  0  0
 41112  1  0  0  0
 41 48  1  0  0  0
 42 43  1  0  0  0
 42 66  1  0  0  0
 42113  1  0  0  0
 42114  1  0  0  0
 43 44  1  0  0  0
 44115  1  0  0  0
 45 46  2  0  0  0
 45116  1  0  0  0
 46117  1  0  0  0
 47118  1  0  0  0
 47119  1  0  0  0
 48 56  1  0  0  0
 48 65  1  0  0  0
 48120  1  0  0  0
 49 50  1  0  0  0
 49 53  1  0  0  0
 49 64  1  0  0  0
 49121  1  0  0  0
 50 51  1  0  0  0
 50122  1  0  0  0
 50123  1  0  0  0
 51 52  1  0  0  0
 51124  1  0  0  0
 51125  1  0  0  0
 52126  1  0  0  0
 52127  1  0  0  0
 53 54  1  0  0  0
 54 55  2  0  0  0
 54128  1  0  0  0
 55 57  1  0  0  0
 55129  1  0  0  0
 56 69  2  0  0  0
 57 58  2  0  0  0
 57130  1  0  0  0
 58131  1  0  0  0
 59 60  1  0  0  0
 59 61  1  0  0  0
 59 62  1  0  0  0
 60132  1  0  0  0
 60133  1  0  0  0
 60134  1  0  0  0
 61135  1  0  0  0
 61136  1  0  0  0
 61137  1  0  0  0
 62138  1  0  0  0
 62139  1  0  0  0
 62140  1  0  0  0
 63 65  1  0  0  0
 63141  1  0  0  0
 63142  1  0  0  0
 63143  1  0  0  0
 64144  1  0  0  0
 65145  1  0  0  0
 68 82  1  0  0  0
 71 73  2  0  0  0
 71 75  1  0  0  0
 71146  1  0  0  0
 72 74  1  0  0  0
 72 75  2  0  0  0
 72147  1  0  0  0
 73 76  1  0  0  0
 73 78  1  0  0  0
 74 76  2  0  0  0
 74 80  1  0  0  0
 75 86  1  0  0  0
 76 85  1  0  0  0
 77 78  2  0  0  0
 77148  1  0  0  0
 77149  1  0  0  0
 78150  1  0  0  0
 79 85  1  0  0  0
 79151  1  0  0  0
 79152  1  0  0  0
 79153  1  0  0  0
 80 84  1  0  0  0
 80154  1  0  0  0
 80155  1  0  0  0
 81 82  1  0  0  0
 81 83  1  0  0  0
 81156  1  0  0  0
 81157  1  0  0  0
 82158  1  0  0  0
 82159  1  0  0  0
 83 86  1  0  0  0
 83160  1  0  0  0
 83161  1  0  0  0
 84162  1  0  0  0
M  ISO  4   1 100  68 101  82 101  84 100
M  END
> <chiral flag>
0

> <version>
0

> <s_m_source_file>
/data/baiqing/PycharmProjects/Reinvent-master-3.2/result/LINK_invent/BTK/process_docking_weight1_custom_product_contain_oxygen_bond_distance_aromatic_linkinvent_7_9_3/rearranged_h_0108.sdf

> <i_m_source_file_index>
1

> <r_mmod_Potential_Energy-OPLS-2005>
163.162872314453

> <r_mmod_Stretch_Energy-OPLS-2005>
45.8432235717773

> <r_mmod_Bend_Energy-OPLS-2005>
323.109832763672

> <r_mmod_Torsional_Energy-OPLS-2005>
242.589859008789

> <r_mmod_Improper_Torsional_Energy-OPLS-2005>
2.80937957763672

> <r_mmod_Van_der_Waal_Energy-OPLS-2005>
165.923202514648

> <r_mmod_Electrostatic_Energy-OPLS-2005>
-431.884063720703

> <r_mmod_Solvation_Energy-OPLS-2005>
-200.069915771484

> <b_mmod_Minimization_Converged-OPLS-2005>
0

> <r_mmod_RMS_Derivative-OPLS-2005>
2.68461346626282

$$$$
1
                    3D
 Structure written by MMmdl.
157165  0  0  1  0            999 V2000
  -30.7106  -14.4788   20.5503 C   0  0  0  0  0  0
  -30.4189  -12.3065   19.4265 C   0  0  0  0  0  0
  -29.4938  -12.4932   18.2063 C   0  0  0  0  0  0
  -28.0125  -12.3670   18.6166 C   0  0  0  0  0  0
  -27.6572  -13.2092   19.8719 C   0  0  2  0  0  0
  -28.7035  -13.0125   20.9926 C   0  0  0  0  0  0
  -25.2572  -13.8166   20.5677 C   0  0  0  0  0  0
  -24.1831  -13.0438   20.9183 C   0  0  0  0  0  0
  -24.6384  -11.6903   20.8732 C   0  0  0  0  0  0
  -23.9044  -10.4293   21.0392 C   0  0  0  0  0  0
  -24.3601   -9.4218   21.9170 C   0  0  0  0  0  0
  -23.6284   -8.2252   22.0741 C   0  0  0  0  0  0
  -22.4266   -8.0277   21.3539 C   0  0  0  0  0  0
  -21.9895   -9.0246   20.4640 C   0  0  0  0  0  0
  -22.7214  -10.2128   20.3046 C   0  0  0  0  0  0
  -21.6859   -6.0727   22.5280 C   0  0  0  0  0  0
  -21.4021   -6.5632   23.8211 C   0  0  0  0  0  0
  -21.3665   -5.6788   24.9175 C   0  0  0  0  0  0
  -21.6049   -4.3051   24.7236 C   0  0  0  0  0  0
  -21.8820   -3.8139   23.4359 C   0  0  0  0  0  0
  -21.9196   -4.6955   22.3411 C   0  0  0  0  0  0
  -22.7856  -13.5230   21.1857 C   0  0  0  0  0  0
  -22.1660   -4.2138   21.0988 F   0  0  0  0  0  0
  -21.5633   -3.4534   25.7749 F   0  0  0  0  0  0
  -30.0290  -13.3087   20.4281 N   0  0  0  0  0  0
  -26.3006  -12.9332   20.3365 N   0  0  0  0  0  0
  -25.9314  -11.6493   20.5774 N   0  0  0  0  0  0
  -22.0508  -12.8206   22.0414 N   0  0  0  0  0  0
  -25.4294  -15.1883   20.4063 N   0  0  0  0  0  0
  -31.8721  -14.6179   20.1624 O   0  0  0  0  0  0
  -21.6647   -6.8863   21.4235 O   0  0  0  0  0  0
  -22.3534  -14.5536   20.6702 O   0  0  0  0  0  0
  -24.6156  -31.8698   23.2133 C   0  0  0  0  0  0
  -25.9045  -32.4838   23.8413 C   0  0  1  0  0  0
  -27.2192  -27.4167   20.0859 C   0  0  0  0  0  0
  -25.5894  -33.8638   24.2337 N   0  0  0  0  0  0
  -23.4016  -30.4996   21.5558 C   0  0  2  0  0  0
  -24.8431  -28.9740   20.1132 C   0  0  0  0  0  0
  -22.7410  -29.4676   22.4990 C   0  0  0  0  0  0
  -18.0273  -28.1381   22.8488 C   0  0  0  0  0  0
  -24.1485  -36.7322   23.2636 C   0  0  0  0  0  0
  -25.9359  -30.8288   21.3715 C   0  0  0  0  0  0
  -26.0086  -29.4650   20.7141 C   0  0  0  0  0  0
  -27.1977  -28.6937   20.7016 C   0  0  0  0  0  0
  -26.0278  -26.9615   19.4639 C   0  0  0  0  0  0
  -24.8491  -27.7216   19.4860 C   0  0  0  0  0  0
  -23.6080  -29.8431   20.1674 C   0  0  0  0  0  0
  -25.4110  -36.3125   24.0334 C   0  0  1  0  0  0
  -20.5867  -28.3667   23.1309 C   0  0  2  0  0  0
  -20.6771  -26.9403   22.5413 C   0  0  0  0  0  0
  -19.5748  -26.6385   21.5212 C   0  0  0  0  0  0
  -18.1924  -26.7924   22.1622 C   0  0  0  0  0  0
  -19.1523  -28.8838   23.2898 C   0  0  0  0  0  0
  -18.9453  -30.1447   23.8904 C   0  0  0  0  0  0
  -17.6456  -30.6586   24.0567 C   0  0  0  0  0  0
  -25.9037  -34.9487   23.5135 C   0  0  0  0  0  0
  -16.5347  -29.9089   23.6329 C   0  0  0  0  0  0
  -16.7263  -28.6508   23.0343 C   0  0  0  0  0  0
  -26.4460  -31.6614   25.0741 C   0  0  0  0  0  0
  -25.3711  -31.3724   26.1476 C   0  0  0  0  0  0
  -27.0283  -30.3051   24.6123 C   0  0  0  0  0  0
  -27.6040  -32.4322   25.7504 C   0  0  0  0  0  0
  -27.5585  -37.1820   24.8461 C   0  0  0  0  0  0
  -21.4139  -29.3037   22.3716 N   0  0  0  0  0  0
  -26.4298  -37.3808   23.9404 N   0  0  0  0  0  0
  -24.6696  -31.0798   22.1045 N   0  0  0  0  0  0
  -23.4189  -28.8200   23.3014 O   0  0  0  0  0  0
  -28.3733  -26.6421   20.1180 O   0  0  0  0  0  0
  -26.5607  -34.8931   22.4702 O   0  0  0  0  0  0
  -23.5346  -32.1449   23.7528 O   0  0  0  0  0  0
  -29.5634  -18.8181   17.7557 C   0  0  0  0  0  0
  -29.5416  -20.1436   18.2120 C   0  0  0  0  0  0
  -30.0416  -19.3601   20.4532 C   0  0  0  0  0  0
  -29.8203  -17.7448   18.6319 C   0  0  0  0  0  0
  -30.0730  -18.0037   20.0126 C   0  0  0  0  0  0
  -29.7590  -20.4395   19.5753 C   0  0  0  0  0  0
  -29.0794  -22.8488   19.5442 C   0  0  0  0  0  0
  -29.8399  -16.3618   18.0073 C   0  0  0  0  0  0
  -30.4657  -16.9324   21.0624 C   0  0  0  0  0  0
  -29.3581  -24.2720   20.0920 C   0  0  0  0  0  0
  -28.2183  -25.2605   19.7269 C   0  0  0  0  0  0
  -29.7607  -21.7953   20.0553 N   0  0  0  0  0  0
  -29.9788  -15.5451   20.9293 N   0  0  0  0  0  0
  -28.2176  -22.7097   18.6715 O   0  0  0  0  0  0
  -31.4651  -12.3962   19.1278 H   0  0  0  0  0  0
  -30.3114  -11.3029   19.8413 H   0  0  0  0  0  0
  -29.7298  -11.7562   17.4385 H   0  0  0  0  0  0
  -29.6717  -13.4691   17.7533 H   0  0  0  0  0  0
  -27.8099  -11.3125   18.8079 H   0  0  0  0  0  0
  -27.3681  -12.6512   17.7836 H   0  0  0  0  0  0
  -27.6885  -14.2538   19.5678 H   0  0  0  0  0  0
  -28.6828  -11.9847   21.3583 H   0  0  0  0  0  0
  -28.4759  -13.6383   21.8570 H   0  0  0  0  0  0
  -25.2745   -9.5709   22.4743 H   0  0  0  0  0  0
  -24.0009   -7.4645   22.7446 H   0  0  0  0  0  0
  -21.0837   -8.8744   19.8940 H   0  0  0  0  0  0
  -22.3657  -10.9656   19.6152 H   0  0  0  0  0  0
  -21.2004   -7.6139   23.9713 H   0  0  0  0  0  0
  -21.1485   -6.0519   25.9076 H   0  0  0  0  0  0
  -22.0591   -2.7599   23.2869 H   0  0  0  0  0  0
  -22.4122  -11.9849   22.4777 H   0  0  0  0  0  0
  -21.1127  -13.1217   22.2629 H   0  0  0  0  0  0
  -24.6612  -15.8444   20.5012 H   0  0  0  0  0  0
  -26.2812  -15.6249   20.0772 H   0  0  0  0  0  0
  -26.7111  -32.5535   23.1170 H   0  0  0  0  0  0
  -25.0022  -33.9809   25.0464 H   0  0  0  0  0  0
  -22.6887  -31.3169   21.4245 H   0  0  0  0  0  0
  -23.3748  -35.9653   23.3309 H   0  0  0  0  0  0
  -24.3574  -36.8930   22.2047 H   0  0  0  0  0  0
  -23.7232  -37.6527   23.6644 H   0  0  0  0  0  0
  -26.0539  -31.5952   20.6041 H   0  0  0  0  0  0
  -26.8225  -30.8770   21.9923 H   0  0  0  0  0  0
  -28.0931  -29.0684   21.1782 H   0  0  0  0  0  0
  -25.9668  -26.0152   18.9476 H   0  0  0  0  0  0
  -23.9553  -27.3421   19.0102 H   0  0  0  0  0  0
  -23.7160  -30.6231   19.4127 H   0  0  0  0  0  0
  -22.7288  -29.2688   19.8696 H   0  0  0  0  0  0
  -25.1291  -36.1998   25.0827 H   0  0  0  0  0  0
  -20.9963  -28.3238   24.1429 H   0  0  0  0  0  0
  -20.5685  -26.2274   23.3603 H   0  0  0  0  0  0
  -21.6642  -26.7453   22.1199 H   0  0  0  0  0  0
  -19.6914  -25.6300   21.1233 H   0  0  0  0  0  0
  -19.6691  -27.3205   20.6749 H   0  0  0  0  0  0
  -17.4197  -26.6665   21.4023 H   0  0  0  0  0  0
  -18.0329  -26.0068   22.9020 H   0  0  0  0  0  0
  -19.7932  -30.7263   24.2269 H   0  0  0  0  0  0
  -17.5014  -31.6269   24.5165 H   0  0  0  0  0  0
  -15.5348  -30.2996   23.7655 H   0  0  0  0  0  0
  -15.8661  -28.0839   22.7047 H   0  0  0  0  0  0
  -24.5885  -30.7077   25.7799 H   0  0  0  0  0  0
  -24.8897  -32.2882   26.4915 H   0  0  0  0  0  0
  -25.8042  -30.8887   27.0239 H   0  0  0  0  0  0
  -26.2835  -29.6836   24.1136 H   0  0  0  0  0  0
  -27.3999  -29.7266   25.4592 H   0  0  0  0  0  0
  -27.8696  -30.4365   23.9314 H   0  0  0  0  0  0
  -27.2667  -33.3615   26.2107 H   0  0  0  0  0  0
  -28.3839  -32.6890   25.0323 H   0  0  0  0  0  0
  -28.0711  -31.8420   26.5399 H   0  0  0  0  0  0
  -28.2609  -38.0113   24.7519 H   0  0  0  0  0  0
  -28.1076  -36.2648   24.6279 H   0  0  0  0  0  0
  -27.2299  -37.1461   25.8863 H   0  0  0  0  0  0
  -20.9294  -29.8758   21.6941 H   0  0  0  0  0  0
  -26.0191  -38.2886   24.1408 H   0  0  0  0  0  0
  -29.3903  -18.6361   16.7035 H   0  0  0  0  0  0
  -29.3659  -20.9244   17.4865 H   0  0  0  0  0  0
  -30.2474  -19.5750   21.4933 H   0  0  0  0  0  0
  -30.8240  -15.9062   18.1031 H   0  0  0  0  0  0
  -29.6104  -16.3987   16.9417 H   0  0  0  0  0  0
  -29.0865  -15.7216   18.4606 H   0  0  0  0  0  0
  -30.1091  -17.2748   22.0343 H   0  0  0  0  0  0
  -31.5536  -16.9402   21.1461 H   0  0  0  0  0  0
  -30.3002  -24.6231   19.6730 H   0  0  0  0  0  0
  -29.4817  -24.2305   21.1741 H   0  0  0  0  0  0
  -27.3204  -24.8524   20.1949 H   0  0  0  0  0  0
  -28.0652  -25.2489   18.6457 H   0  0  0  0  0  0
  -30.3314  -21.9855   20.8685 H   0  0  0  0  0  0
  -29.0183  -15.3736   21.1833 H   0  0  0  0  0  0
  1 25  1  0  0  0
  1 30  2  0  0  0
  1 83  1  0  0  0
  2  3  1  0  0  0
  2 25  1  0  0  0
  2 85  1  0  0  0
  2 86  1  0  0  0
  3  4  1  0  0  0
  3 87  1  0  0  0
  3 88  1  0  0  0
  4  5  1  0  0  0
  4 89  1  0  0  0
  4 90  1  0  0  0
  5  6  1  0  0  0
  5 26  1  0  0  0
  5 91  1  0  0  0
  6 25  1  0  0  0
  6 92  1  0  0  0
  6 93  1  0  0  0
  7  8  2  0  0  0
  7 26  1  0  0  0
  7 29  1  0  0  0
  8  9  1  0  0  0
  8 22  1  0  0  0
  9 10  1  0  0  0
  9 27  2  0  0  0
 10 11  2  0  0  0
 10 15  1  0  0  0
 11 12  1  0  0  0
 11 94  1  0  0  0
 12 13  2  0  0  0
 12 95  1  0  0  0
 13 14  1  0  0  0
 13 31  1  0  0  0
 14 15  2  0  0  0
 14 96  1  0  0  0
 15 97  1  0  0  0
 16 17  2  0  0  0
 16 21  1  0  0  0
 16 31  1  0  0  0
 17 18  1  0  0  0
 17 98  1  0  0  0
 18 19  2  0  0  0
 18 99  1  0  0  0
 19 20  1  0  0  0
 19 24  1  0  0  0
 20 21  2  0  0  0
 20100  1  0  0  0
 21 23  1  0  0  0
 22 28  1  0  0  0
 22 32  2  0  0  0
 26 27  1  0  0  0
 28101  1  0  0  0
 28102  1  0  0  0
 29103  1  0  0  0
 29104  1  0  0  0
 33 34  1  0  0  0
 33 66  1  0  0  0
 33 70  2  0  0  0
 34 36  1  0  0  0
 34 59  1  0  0  0
 34105  1  0  0  0
 35 44  2  0  0  0
 35 45  1  0  0  0
 35 68  1  0  0  0
 36 56  1  0  0  0
 36106  1  0  0  0
 37 39  1  0  0  0
 37 47  1  0  0  0
 37 66  1  0  0  0
 37107  1  0  0  0
 38 43  2  0  0  0
 38 46  1  0  0  0
 38 47  1  0  0  0
 39 64  1  0  0  0
 39 67  2  0  0  0
 40 52  1  0  0  0
 40 53  2  0  0  0
 40 58  1  0  0  0
 41108  1  0  0  0
 41109  1  0  0  0
 41110  1  0  0  0
 41 48  1  0  0  0
 42 43  1  0  0  0
 42 66  1  0  0  0
 42111  1  0  0  0
 42112  1  0  0  0
 43 44  1  0  0  0
 44113  1  0  0  0
 45 46  2  0  0  0
 45114  1  0  0  0
 46115  1  0  0  0
 47116  1  0  0  0
 47117  1  0  0  0
 48 56  1  0  0  0
 48 65  1  0  0  0
 48118  1  0  0  0
 49 50  1  0  0  0
 49 53  1  0  0  0
 49 64  1  0  0  0
 49119  1  0  0  0
 50 51  1  0  0  0
 50120  1  0  0  0
 50121  1  0  0  0
 51 52  1  0  0  0
 51122  1  0  0  0
 51123  1  0  0  0
 52124  1  0  0  0
 52125  1  0  0  0
 53 54  1  0  0  0
 54 55  2  0  0  0
 54126  1  0  0  0
 55 57  1  0  0  0
 55127  1  0  0  0
 56 69  2  0  0  0
 57 58  2  0  0  0
 57128  1  0  0  0
 58129  1  0  0  0
 59 60  1  0  0  0
 59 61  1  0  0  0
 59 62  1  0  0  0
 60130  1  0  0  0
 60131  1  0  0  0
 60132  1  0  0  0
 61133  1  0  0  0
 61134  1  0  0  0
 61135  1  0  0  0
 62136  1  0  0  0
 62137  1  0  0  0
 62138  1  0  0  0
 63 65  1  0  0  0
 63139  1  0  0  0
 63140  1  0  0  0
 63141  1  0  0  0
 64142  1  0  0  0
 65143  1  0  0  0
 68 81  1  0  0  0
 71 72  2  0  0  0
 71 74  1  0  0  0
 71144  1  0  0  0
 72 76  1  0  0  0
 72145  1  0  0  0
 73 75  1  0  0  0
 73 76  2  0  0  0
 73146  1  0  0  0
 74 75  2  0  0  0
 74 78  1  0  0  0
 75 79  1  0  0  0
 76 82  1  0  0  0
 77 80  1  0  0  0
 77 82  1  0  0  0
 77 84  2  0  0  0
 78147  1  0  0  0
 78148  1  0  0  0
 78149  1  0  0  0
 79 83  1  0  0  0
 79150  1  0  0  0
 79151  1  0  0  0
 80 81  1  0  0  0
 80152  1  0  0  0
 80153  1  0  0  0
 81154  1  0  0  0
 81155  1  0  0  0
 82156  1  0  0  0
 83157  1  0  0  0
M  ISO  4   1 100  68 101  81 101  83 100
M  END
> <chiral flag>
0

> <version>
0

> <s_m_source_file>
/data/baiqing/PycharmProjects/Reinvent-master-3.2/result/LINK_invent/BTK/process_docking_weight1_custom_product_contain_oxygen_bond_distance_aromatic_linkinvent_7_9_3/rearranged_h_0108.sdf

> <i_m_source_file_index>
2

> <r_mmod_Potential_Energy-OPLS-2005>
-132.834167480469

> <r_mmod_Stretch_Energy-OPLS-2005>
44.0474128723145

> <r_mmod_Bend_Energy-OPLS-2005>
109.670722961426

> <r_mmod_Torsional_Energy-OPLS-2005>
204.055511474609

> <r_mmod_Improper_Torsional_Energy-OPLS-2005>
4.73676109313965

> <r_mmod_Van_der_Waal_Energy-OPLS-2005>
173.237762451172

> <r_mmod_Electrostatic_Energy-OPLS-2005>
-455.222351074219

> <r_mmod_Solvation_Energy-OPLS-2005>
-231.624938964844

> <b_mmod_Minimization_Converged-OPLS-2005>
0

> <r_mmod_RMS_Derivative-OPLS-2005>
1.17994427680969

$$$$
2
                    3D
 Structure written by MMmdl.
160168  0  0  1  0            999 V2000
  -30.6771  -14.5100   20.5443 C   0  0  0  0  0  0
  -30.4310  -12.3186   19.4402 C   0  0  0  0  0  0
  -29.5032  -12.5003   18.2189 C   0  0  0  0  0  0
  -28.0216  -12.3672   18.6232 C   0  0  0  0  0  0
  -27.6633  -13.2068   19.8784 C   0  0  2  0  0  0
  -28.7036  -13.0007   21.0044 C   0  0  0  0  0  0
  -25.2610  -13.8176   20.5691 C   0  0  0  0  0  0
  -24.1841  -13.0454   20.9148 C   0  0  0  0  0  0
  -24.6401  -11.6913   20.8734 C   0  0  0  0  0  0
  -23.9064  -10.4297   21.0408 C   0  0  0  0  0  0
  -24.3605   -9.4208   21.9188 C   0  0  0  0  0  0
  -23.6271   -8.2249   22.0757 C   0  0  0  0  0  0
  -22.4256   -8.0298   21.3545 C   0  0  0  0  0  0
  -21.9894   -9.0279   20.4652 C   0  0  0  0  0  0
  -22.7236  -10.2151   20.3060 C   0  0  0  0  0  0
  -21.6849   -6.0743   22.5264 C   0  0  0  0  0  0
  -21.4024   -6.5641   23.8207 C   0  0  0  0  0  0
  -21.3654   -5.6782   24.9160 C   0  0  0  0  0  0
  -21.6033   -4.3046   24.7209 C   0  0  0  0  0  0
  -21.8823   -3.8151   23.4328 C   0  0  0  0  0  0
  -21.9196   -4.6974   22.3392 C   0  0  0  0  0  0
  -22.7871  -13.5267   21.1806 C   0  0  0  0  0  0
  -22.1659   -4.2167   21.0965 F   0  0  0  0  0  0
  -21.5620   -3.4530   25.7720 F   0  0  0  0  0  0
  -30.0370  -13.3094   20.4585 N   0  0  0  0  0  0
  -26.3033  -12.9325   20.3377 N   0  0  0  0  0  0
  -25.9323  -11.6492   20.5775 N   0  0  0  0  0  0
  -22.0486  -12.8296   22.0363 N   0  0  0  0  0  0
  -25.4400  -15.1894   20.4163 N   0  0  0  0  0  0
  -31.7958  -14.7046   20.0567 O   0  0  0  0  0  0
  -21.6631   -6.8891   21.4229 O   0  0  0  0  0  0
  -22.3568  -14.5583   20.6664 O   0  0  0  0  0  0
  -24.6161  -31.8666   23.2103 C   0  0  0  0  0  0
  -25.9051  -32.4817   23.8400 C   0  0  1  0  0  0
  -27.2297  -27.4092   20.1170 C   0  0  0  0  0  0
  -25.5903  -33.8617   24.2337 N   0  0  0  0  0  0
  -23.4055  -30.4905   21.5496 C   0  0  2  0  0  0
  -24.8554  -28.9577   20.1124 C   0  0  0  0  0  0
  -22.7417  -29.4648   22.4978 C   0  0  0  0  0  0
  -18.0267  -28.1377   22.8495 C   0  0  0  0  0  0
  -24.1478  -36.7298   23.2639 C   0  0  0  0  0  0
  -25.9366  -30.8279   21.3673 C   0  0  0  0  0  0
  -26.0165  -29.4609   20.7139 C   0  0  0  0  0  0
  -27.2088  -28.6947   20.7120 C   0  0  0  0  0  0
  -26.0568  -26.9361   19.4900 C   0  0  0  0  0  0
  -24.8725  -27.6964   19.4928 C   0  0  0  0  0  0
  -23.6163  -29.8244   20.1638 C   0  0  0  0  0  0
  -25.4100  -36.3106   24.0343 C   0  0  1  0  0  0
  -20.5859  -28.3660   23.1316 C   0  0  2  0  0  0
  -20.6756  -26.9393   22.5424 C   0  0  0  0  0  0
  -19.5738  -26.6382   21.5213 C   0  0  0  0  0  0
  -18.1909  -26.7928   22.1616 C   0  0  0  0  0  0
  -19.1519  -28.8833   23.2899 C   0  0  0  0  0  0
  -18.9452  -30.1439   23.8908 C   0  0  0  0  0  0
  -17.6459  -30.6589   24.0557 C   0  0  0  0  0  0
  -25.9029  -34.9472   23.5134 C   0  0  0  0  0  0
  -16.5344  -29.9090   23.6333 C   0  0  0  0  0  0
  -16.7258  -28.6502   23.0365 C   0  0  0  0  0  0
  -26.4493  -31.6596   25.0723 C   0  0  0  0  0  0
  -25.3769  -31.3699   26.1478 C   0  0  0  0  0  0
  -27.0325  -30.3038   24.6098 C   0  0  0  0  0  0
  -27.6063  -32.4322   25.7489 C   0  0  0  0  0  0
  -27.5577  -37.1800   24.8468 C   0  0  0  0  0  0
  -21.4144  -29.3034   22.3724 N   0  0  0  0  0  0
  -26.4284  -37.3794   23.9420 N   0  0  0  0  0  0
  -24.6705  -31.0759   22.1006 N   0  0  0  0  0  0
  -23.4181  -28.8172   23.3010 O   0  0  0  0  0  0
  -28.3593  -26.6101   20.1506 O   0  0  0  0  0  0
  -26.5577  -34.8929   22.4689 O   0  0  0  0  0  0
  -23.5347  -32.1411   23.7490 O   0  0  0  0  0  0
  -29.1996  -16.6879   19.0539 C   0  0  0  0  0  0
  -29.5584  -17.9967   21.0685 C   0  0  0  0  0  0
  -28.6445  -17.8140   18.4176 C   0  0  0  0  0  0
  -28.5247  -19.0437   19.1124 C   0  0  0  0  0  0
  -29.6210  -16.7441   20.3979 C   0  0  0  0  0  0
  -29.0578  -19.1675   20.4272 C   0  0  0  0  0  0
  -28.1259  -17.6505   16.9965 C   0  0  0  0  0  0
  -27.7357  -20.1786   18.4678 C   0  0  0  0  0  0
  -29.0819  -24.1737   20.3673 C   0  0  0  0  0  0
  -28.6878  -22.8019   21.0022 C   0  0  0  0  0  0
  -28.1728  -25.3466   20.8388 C   0  0  0  0  0  0
  -29.5493  -21.5659   20.6046 C   0  0  0  0  0  0
  -29.9687  -15.5287   21.0838 N   0  0  0  0  0  0
  -28.9963  -20.3501   21.1576 O   0  0  0  0  0  0
  -31.4764  -12.4178   19.1427 H   0  0  0  0  0  0
  -30.3401  -11.3107   19.8454 H   0  0  0  0  0  0
  -29.7454  -11.7679   17.4475 H   0  0  0  0  0  0
  -29.6718  -13.4793   17.7689 H   0  0  0  0  0  0
  -27.8224  -11.3121   18.8127 H   0  0  0  0  0  0
  -27.3804  -12.6499   17.7870 H   0  0  0  0  0  0
  -27.7037  -14.2525   19.5767 H   0  0  0  0  0  0
  -28.6787  -11.9664   21.3512 H   0  0  0  0  0  0
  -28.4600  -13.6068   21.8769 H   0  0  0  0  0  0
  -25.2753   -9.5681   22.4767 H   0  0  0  0  0  0
  -23.9970   -7.4638   22.7481 H   0  0  0  0  0  0
  -21.0829   -8.8832   19.8952 H   0  0  0  0  0  0
  -22.3715  -10.9705   19.6183 H   0  0  0  0  0  0
  -21.2034   -7.6148   23.9720 H   0  0  0  0  0  0
  -21.1464   -6.0503   25.9065 H   0  0  0  0  0  0
  -22.0615   -2.7621   23.2815 H   0  0  0  0  0  0
  -22.4053  -11.9939   22.4745 H   0  0  0  0  0  0
  -21.1141  -13.1420   22.2599 H   0  0  0  0  0  0
  -24.6865  -15.8568   20.5375 H   0  0  0  0  0  0
  -26.3124  -15.6228   20.1417 H   0  0  0  0  0  0
  -26.7117  -32.5536   23.1157 H   0  0  0  0  0  0
  -25.0102  -33.9784   25.0516 H   0  0  0  0  0  0
  -22.6915  -31.3052   21.4111 H   0  0  0  0  0  0
  -23.3753  -35.9619   23.3310 H   0  0  0  0  0  0
  -24.3571  -36.8899   22.2051 H   0  0  0  0  0  0
  -23.7219  -37.6500   23.6649 H   0  0  0  0  0  0
  -26.0504  -31.5958   20.6007 H   0  0  0  0  0  0
  -26.8230  -30.8815   21.9877 H   0  0  0  0  0  0
  -28.0999  -29.0719   21.1935 H   0  0  0  0  0  0
  -26.0533  -25.9679   19.0090 H   0  0  0  0  0  0
  -23.9830  -27.3054   19.0173 H   0  0  0  0  0  0
  -23.7200  -30.5990   19.4029 H   0  0  0  0  0  0
  -22.7408  -29.2423   19.8706 H   0  0  0  0  0  0
  -25.1277  -36.1967   25.0835 H   0  0  0  0  0  0
  -20.9945  -28.3240   24.1438 H   0  0  0  0  0  0
  -20.5657  -26.2266   23.3611 H   0  0  0  0  0  0
  -21.6630  -26.7438   22.1223 H   0  0  0  0  0  0
  -19.6896  -25.6291   21.1243 H   0  0  0  0  0  0
  -19.6688  -27.3189   20.6738 H   0  0  0  0  0  0
  -17.4183  -26.6684   21.4008 H   0  0  0  0  0  0
  -18.0296  -26.0067   22.9009 H   0  0  0  0  0  0
  -19.7929  -30.7245   24.2291 H   0  0  0  0  0  0
  -17.5020  -31.6277   24.5140 H   0  0  0  0  0  0
  -15.5347  -30.2997   23.7663 H   0  0  0  0  0  0
  -15.8653  -28.0821   22.7101 H   0  0  0  0  0  0
  -24.5942  -30.7037   25.7836 H   0  0  0  0  0  0
  -24.8964  -32.2849   26.4946 H   0  0  0  0  0  0
  -25.8142  -30.8871   27.0223 H   0  0  0  0  0  0
  -26.2862  -29.6782   24.1186 H   0  0  0  0  0  0
  -27.4133  -29.7289   25.4548 H   0  0  0  0  0  0
  -27.8682  -30.4353   23.9220 H   0  0  0  0  0  0
  -27.2678  -33.3618   26.2078 H   0  0  0  0  0  0
  -28.3874  -32.6885   25.0320 H   0  0  0  0  0  0
  -28.0729  -31.8439   26.5398 H   0  0  0  0  0  0
  -28.2602  -38.0091   24.7523 H   0  0  0  0  0  0
  -28.1067  -36.2626   24.6285 H   0  0  0  0  0  0
  -27.2296  -37.1440   25.8870 H   0  0  0  0  0  0
  -20.9289  -29.8763   21.6964 H   0  0  0  0  0  0
  -26.0174  -38.2869   24.1443 H   0  0  0  0  0  0
  -29.2335  -15.7534   18.5123 H   0  0  0  0  0  0
  -29.8824  -18.0651   22.0969 H   0  0  0  0  0  0
  -28.4955  -16.7321   16.5395 H   0  0  0  0  0  0
  -28.4401  -18.4809   16.3642 H   0  0  0  0  0  0
  -27.0370  -17.6043   16.9927 H   0  0  0  0  0  0
  -26.8762  -19.7985   17.9157 H   0  0  0  0  0  0
  -28.3564  -20.7480   17.7766 H   0  0  0  0  0  0
  -27.3257  -20.8542   19.2152 H   0  0  0  0  0  0
  -29.0257  -24.0913   19.2817 H   0  0  0  0  0  0
  -30.1210  -24.4063   20.6044 H   0  0  0  0  0  0
  -27.6492  -22.5985   20.7415 H   0  0  0  0  0  0
  -28.7027  -22.8967   22.0886 H   0  0  0  0  0  0
  -28.3565  -25.5228   21.8991 H   0  0  0  0  0  0
  -27.1396  -25.0044   20.7834 H   0  0  0  0  0  0
  -30.5541  -21.6840   21.0119 H   0  0  0  0  0  0
  -29.6791  -21.5226   19.5255 H   0  0  0  0  0  0
  -29.2667  -15.2220   21.7407 H   0  0  0  0  0  0
  1 25  1  0  0  0
  1 30  2  0  0  0
  1 83  1  0  0  0
  2  3  1  0  0  0
  2 25  1  0  0  0
  2 85  1  0  0  0
  2 86  1  0  0  0
  3  4  1  0  0  0
  3 87  1  0  0  0
  3 88  1  0  0  0
  4  5  1  0  0  0
  4 89  1  0  0  0
  4 90  1  0  0  0
  5  6  1  0  0  0
  5 26  1  0  0  0
  5 91  1  0  0  0
  6 25  1  0  0  0
  6 92  1  0  0  0
  6 93  1  0  0  0
  7  8  2  0  0  0
  7 26  1  0  0  0
  7 29  1  0  0  0
  8  9  1  0  0  0
  8 22  1  0  0  0
  9 10  1  0  0  0
  9 27  2  0  0  0
 10 11  2  0  0  0
 10 15  1  0  0  0
 11 12  1  0  0  0
 11 94  1  0  0  0
 12 13  2  0  0  0
 12 95  1  0  0  0
 13 14  1  0  0  0
 13 31  1  0  0  0
 14 15  2  0  0  0
 14 96  1  0  0  0
 15 97  1  0  0  0
 16 17  2  0  0  0
 16 21  1  0  0  0
 16 31  1  0  0  0
 17 18  1  0  0  0
 17 98  1  0  0  0
 18 19  2  0  0  0
 18 99  1  0  0  0
 19 20  1  0  0  0
 19 24  1  0  0  0
 20 21  2  0  0  0
 20100  1  0  0  0
 21 23  1  0  0  0
 22 28  1  0  0  0
 22 32  2  0  0  0
 26 27  1  0  0  0
 28101  1  0  0  0
 28102  1  0  0  0
 29103  1  0  0  0
 29104  1  0  0  0
 33 34  1  0  0  0
 33 66  1  0  0  0
 33 70  2  0  0  0
 34 36  1  0  0  0
 34 59  1  0  0  0
 34105  1  0  0  0
 35 44  2  0  0  0
 35 45  1  0  0  0
 35 68  1  0  0  0
 36 56  1  0  0  0
 36106  1  0  0  0
 37 39  1  0  0  0
 37 47  1  0  0  0
 37 66  1  0  0  0
 37107  1  0  0  0
 38 43  2  0  0  0
 38 46  1  0  0  0
 38 47  1  0  0  0
 39 64  1  0  0  0
 39 67  2  0  0  0
 40 52  1  0  0  0
 40 53  2  0  0  0
 40 58  1  0  0  0
 41108  1  0  0  0
 41109  1  0  0  0
 41110  1  0  0  0
 41 48  1  0  0  0
 42 43  1  0  0  0
 42 66  1  0  0  0
 42111  1  0  0  0
 42112  1  0  0  0
 43 44  1  0  0  0
 44113  1  0  0  0
 45 46  2  0  0  0
 45114  1  0  0  0
 46115  1  0  0  0
 47116  1  0  0  0
 47117  1  0  0  0
 48 56  1  0  0  0
 48 65  1  0  0  0
 48118  1  0  0  0
 49 50  1  0  0  0
 49 53  1  0  0  0
 49 64  1  0  0  0
 49119  1  0  0  0
 50 51  1  0  0  0
 50120  1  0  0  0
 50121  1  0  0  0
 51 52  1  0  0  0
 51122  1  0  0  0
 51123  1  0  0  0
 52124  1  0  0  0
 52125  1  0  0  0
 53 54  1  0  0  0
 54 55  2  0  0  0
 54126  1  0  0  0
 55 57  1  0  0  0
 55127  1  0  0  0
 56 69  2  0  0  0
 57 58  2  0  0  0
 57128  1  0  0  0
 58129  1  0  0  0
 59 60  1  0  0  0
 59 61  1  0  0  0
 59 62  1  0  0  0
 60130  1  0  0  0
 60131  1  0  0  0
 60132  1  0  0  0
 61133  1  0  0  0
 61134  1  0  0  0
 61135  1  0  0  0
 62136  1  0  0  0
 62137  1  0  0  0
 62138  1  0  0  0
 63 65  1  0  0  0
 63139  1  0  0  0
 63140  1  0  0  0
 63141  1  0  0  0
 64142  1  0  0  0
 65143  1  0  0  0
 68 81  1  0  0  0
 71 73  2  0  0  0
 71 75  1  0  0  0
 71144  1  0  0  0
 72 75  2  0  0  0
 72 76  1  0  0  0
 72145  1  0  0  0
 73 74  1  0  0  0
 73 77  1  0  0  0
 74 76  2  0  0  0
 74 78  1  0  0  0
 75 83  1  0  0  0
 76 84  1  0  0  0
 77146  1  0  0  0
 77147  1  0  0  0
 77148  1  0  0  0
 78149  1  0  0  0
 78150  1  0  0  0
 78151  1  0  0  0
 79 80  1  0  0  0
 79 81  1  0  0  0
 79152  1  0  0  0
 79153  1  0  0  0
 80 82  1  0  0  0
 80154  1  0  0  0
 80155  1  0  0  0
 81156  1  0  0  0
 81157  1  0  0  0
 82 84  1  0  0  0
 82158  1  0  0  0
 82159  1  0  0  0
 83160  1  0  0  0
M  ISO  4   1 100  68 101  81 101  83 100
M  END
> <chiral flag>
0

> <version>
0

> <s_m_source_file>
/data/baiqing/PycharmProjects/Reinvent-master-3.2/result/LINK_invent/BTK/process_docking_weight1_custom_product_contain_oxygen_bond_distance_aromatic_linkinvent_7_9_3/rearranged_h_0108.sdf

> <i_m_source_file_index>
3

> <r_mmod_Potential_Energy-OPLS-2005>
27.3113040924072

> <r_mmod_Stretch_Energy-OPLS-2005>
46.736083984375

> <r_mmod_Bend_Energy-OPLS-2005>
102.745620727539

> <r_mmod_Torsional_Energy-OPLS-2005>
291.428924560547

> <r_mmod_Improper_Torsional_Energy-OPLS-2005>
6.7493200302124

> <r_mmod_Van_der_Waal_Energy-OPLS-2005>
148.898803710938

> <r_mmod_Electrostatic_Energy-OPLS-2005>
-380.725555419922

> <r_mmod_Solvation_Energy-OPLS-2005>
-207.0576171875

> <b_mmod_Minimization_Converged-OPLS-2005>
0

> <r_mmod_RMS_Derivative-OPLS-2005>
2.32770442962646

$$$$
3
                    3D
 Structure written by MMmdl.
164173  0  0  1  0            999 V2000
  -30.5441  -14.9233   20.4732 C   0  0  0  0  0  0
  -30.4399  -12.5792   19.5032 C   0  0  0  0  0  0
  -29.5286  -12.5412   18.2557 C   0  0  0  0  0  0
  -28.0589  -12.3227   18.6664 C   0  0  0  0  0  0
  -27.6322  -13.2392   19.8421 C   0  0  2  0  0  0
  -28.6666  -13.2296   20.9819 C   0  0  0  0  0  0
  -25.2424  -13.8111   20.5572 C   0  0  0  0  0  0
  -24.1769  -13.0381   20.9179 C   0  0  0  0  0  0
  -24.6396  -11.6863   20.8778 C   0  0  0  0  0  0
  -23.9075  -10.4260   21.0451 C   0  0  0  0  0  0
  -24.3623   -9.4165   21.9210 C   0  0  0  0  0  0
  -23.6302   -8.2199   22.0747 C   0  0  0  0  0  0
  -22.4278   -8.0259   21.3535 C   0  0  0  0  0  0
  -21.9924   -9.0238   20.4637 C   0  0  0  0  0  0
  -22.7261  -10.2116   20.3083 C   0  0  0  0  0  0
  -21.6855   -6.0732   22.5274 C   0  0  0  0  0  0
  -21.4021   -6.5635   23.8204 C   0  0  0  0  0  0
  -21.3669   -5.6782   24.9158 C   0  0  0  0  0  0
  -21.6066   -4.3048   24.7207 C   0  0  0  0  0  0
  -21.8834   -3.8136   23.4330 C   0  0  0  0  0  0
  -21.9194   -4.6963   22.3387 C   0  0  0  0  0  0
  -22.7809  -13.5185   21.1880 C   0  0  0  0  0  0
  -22.1669   -4.2158   21.0962 F   0  0  0  0  0  0
  -21.5632   -3.4527   25.7710 F   0  0  0  0  0  0
  -29.9510  -13.6598   20.4102 N   0  0  0  0  0  0
  -26.2887  -12.9366   20.3222 N   0  0  0  0  0  0
  -25.9332  -11.6504   20.5748 N   0  0  0  0  0  0
  -22.0489  -12.8197   22.0459 N   0  0  0  0  0  0
  -25.4006  -15.1822   20.3772 N   0  0  0  0  0  0
  -31.6974  -15.0219   20.0336 O   0  0  0  0  0  0
  -21.6649   -6.8867   21.4220 O   0  0  0  0  0  0
  -22.3497  -14.5504   20.6727 O   0  0  0  0  0  0
  -24.6421  -31.8433   23.1893 C   0  0  0  0  0  0
  -25.9192  -32.4682   23.8284 C   0  0  1  0  0  0
  -27.2221  -27.1474   20.1526 C   0  0  0  0  0  0
  -25.5978  -33.8480   24.2219 N   0  0  0  0  0  0
  -23.4455  -30.4630   21.5326 C   0  0  2  0  0  0
  -24.8962  -28.8847   20.1169 C   0  0  0  0  0  0
  -22.7580  -29.4532   22.4862 C   0  0  0  0  0  0
  -18.0319  -28.1371   22.8477 C   0  0  0  0  0  0
  -24.1482  -36.7226   23.2646 C   0  0  0  0  0  0
  -26.0013  -30.7236   21.3833 C   0  0  0  0  0  0
  -26.0754  -29.3343   20.7264 C   0  0  0  0  0  0
  -27.2416  -28.4827   20.7182 C   0  0  0  0  0  0
  -26.0160  -26.7859   19.5186 C   0  0  0  0  0  0
  -24.8779  -27.6237   19.4987 C   0  0  0  0  0  0
  -23.6736  -29.7898   20.1529 C   0  0  0  0  0  0
  -25.4112  -36.3006   24.0325 C   0  0  1  0  0  0
  -20.5928  -28.3709   23.1257 C   0  0  2  0  0  0
  -20.6810  -26.9405   22.5422 C   0  0  0  0  0  0
  -19.5784  -26.6364   21.5225 C   0  0  0  0  0  0
  -18.1955  -26.7920   22.1613 C   0  0  0  0  0  0
  -19.1570  -28.8856   23.2863 C   0  0  0  0  0  0
  -18.9489  -30.1454   23.8888 C   0  0  0  0  0  0
  -17.6482  -30.6577   24.0548 C   0  0  0  0  0  0
  -25.9070  -34.9388   23.5073 C   0  0  0  0  0  0
  -16.5371  -29.9065   23.6319 C   0  0  0  0  0  0
  -16.7299  -28.6478   23.0342 C   0  0  0  0  0  0
  -26.4544  -31.6534   25.0707 C   0  0  0  0  0  0
  -25.3762  -31.3692   26.1440 C   0  0  0  0  0  0
  -27.0446  -30.2953   24.6262 C   0  0  0  0  0  0
  -27.6101  -32.4284   25.7476 C   0  0  0  0  0  0
  -27.5555  -37.1756   24.8470 C   0  0  0  0  0  0
  -21.4274  -29.3056   22.3630 N   0  0  0  0  0  0
  -26.4268  -37.3732   23.9421 N   0  0  0  0  0  0
  -24.7166  -31.0303   22.0911 N   0  0  0  0  0  0
  -23.4232  -28.8074   23.2999 O   0  0  0  0  0  0
  -28.3023  -26.2007   20.1457 O   0  0  0  0  0  0
  -26.5629  -34.8865   22.4628 O   0  0  0  0  0  0
  -23.5548  -32.1291   23.7132 O   0  0  0  0  0  0
  -30.3742  -19.7625   19.7354 C   0  0  0  0  0  0
  -30.5111  -18.3240   19.8822 C   0  0  0  0  0  0
  -28.3534  -19.7370   20.9301 C   0  0  0  0  0  0
  -28.4788  -18.2899   21.1006 C   0  0  0  0  0  0
  -29.3190  -20.5760   20.2952 C   0  0  0  0  0  0
  -29.6048  -17.4984   20.6194 C   0  0  0  0  0  0
  -30.6276  -22.5675   20.7527 C   0  0  0  0  0  0
  -31.0342  -23.7763   19.9228 C   0  0  0  0  0  0
  -29.8974  -23.8637   18.9065 C   0  0  0  0  0  0
  -28.7122  -23.3435   19.7163 C   0  0  2  0  0  0
  -26.0094  -18.2648   21.9446 C   0  0  0  0  0  0
  -29.9994  -15.9644   22.5297 C   0  0  0  0  0  0
  -27.3877  -17.5814   21.9039 C   0  0  0  0  0  0
  -28.1512  -24.7042   20.5415 C   0  0  0  0  0  0
  -29.3993  -22.1140   20.4332 N   0  0  0  0  0  0
  -29.8800  -16.0434   21.0631 N   0  0  0  0  0  0
  -31.3871  -22.0713   21.5920 O   0  0  0  0  0  0
  -31.4784  -12.7301   19.2039 H   0  0  0  0  0  0
  -30.4182  -11.6155   20.0157 H   0  0  0  0  0  0
  -29.8515  -11.7505   17.5753 H   0  0  0  0  0  0
  -29.6219  -13.4797   17.7068 H   0  0  0  0  0  0
  -27.9598  -11.2767   18.9619 H   0  0  0  0  0  0
  -27.3970  -12.4658   17.8123 H   0  0  0  0  0  0
  -27.6093  -14.2531   19.4424 H   0  0  0  0  0  0
  -28.7534  -12.2376   21.4262 H   0  0  0  0  0  0
  -28.3298  -13.8884   21.7770 H   0  0  0  0  0  0
  -25.2776   -9.5679   22.4753 H   0  0  0  0  0  0
  -24.0057   -7.4600   22.7466 H   0  0  0  0  0  0
  -21.0857   -8.8779   19.8921 H   0  0  0  0  0  0
  -22.3754  -10.9666   19.6191 H   0  0  0  0  0  0
  -21.2015   -7.6140   23.9713 H   0  0  0  0  0  0
  -21.1491   -6.0499   25.9073 H   0  0  0  0  0  0
  -22.0608   -2.7604   23.2813 H   0  0  0  0  0  0
  -22.4090  -11.9860   22.4882 H   0  0  0  0  0  0
  -21.1095  -13.1218   22.2594 H   0  0  0  0  0  0
  -24.6423  -15.8429   20.5008 H   0  0  0  0  0  0
  -26.2550  -15.6170   20.0544 H   0  0  0  0  0  0
  -26.7268  -32.5309   23.1020 H   0  0  0  0  0  0
  -25.0197  -33.9587   25.0423 H   0  0  0  0  0  0
  -22.7486  -31.2906   21.3776 H   0  0  0  0  0  0
  -23.3751  -35.9546   23.3292 H   0  0  0  0  0  0
  -24.3602  -36.8852   22.2068 H   0  0  0  0  0  0
  -23.7195  -37.6397   23.6696 H   0  0  0  0  0  0
  -26.1599  -31.4812   20.6138 H   0  0  0  0  0  0
  -26.8685  -30.7711   22.0299 H   0  0  0  0  0  0
  -28.1503  -28.8283   21.1912 H   0  0  0  0  0  0
  -25.9425  -25.8189   19.0427 H   0  0  0  0  0  0
  -23.9735  -27.2779   19.0171 H   0  0  0  0  0  0
  -23.8193  -30.5639   19.3987 H   0  0  0  0  0  0
  -22.7873  -29.2363   19.8354 H   0  0  0  0  0  0
  -25.1280  -36.1864   25.0815 H   0  0  0  0  0  0
  -21.0022  -28.3281   24.1376 H   0  0  0  0  0  0
  -20.5734  -26.2289   23.3618 H   0  0  0  0  0  0
  -21.6662  -26.7422   22.1184 H   0  0  0  0  0  0
  -19.6944  -25.6281   21.1230 H   0  0  0  0  0  0
  -19.6725  -27.3184   20.6760 H   0  0  0  0  0  0
  -17.4228  -26.6683   21.3994 H   0  0  0  0  0  0
  -18.0338  -26.0062   22.9010 H   0  0  0  0  0  0
  -19.7959  -30.7282   24.2234 H   0  0  0  0  0  0
  -17.5021  -31.6253   24.5157 H   0  0  0  0  0  0
  -15.5362  -30.2953   23.7656 H   0  0  0  0  0  0
  -15.8696  -28.0790   22.7066 H   0  0  0  0  0  0
  -24.5987  -30.6986   25.7770 H   0  0  0  0  0  0
  -24.8917  -32.2857   26.4822 H   0  0  0  0  0  0
  -25.8084  -30.8915   27.0251 H   0  0  0  0  0  0
  -26.3070  -29.6640   24.1313 H   0  0  0  0  0  0
  -27.4165  -29.7282   25.4808 H   0  0  0  0  0  0
  -27.8912  -30.4219   23.9509 H   0  0  0  0  0  0
  -27.2746  -33.3647   26.1951 H   0  0  0  0  0  0
  -28.3957  -32.6732   25.0305 H   0  0  0  0  0  0
  -28.0733  -31.8479   26.5468 H   0  0  0  0  0  0
  -28.2555  -38.0071   24.7531 H   0  0  0  0  0  0
  -28.1060  -36.2599   24.6281 H   0  0  0  0  0  0
  -27.2291  -37.1364   25.8876 H   0  0  0  0  0  0
  -20.9494  -29.8766   21.6798 H   0  0  0  0  0  0
  -26.0134  -38.2779   24.1479 H   0  0  0  0  0  0
  -31.1844  -20.2645   19.2271 H   0  0  0  0  0  0
  -31.4055  -17.8692   19.4773 H   0  0  0  0  0  0
  -27.5185  -20.2524   21.3762 H   0  0  0  0  0  0
  -32.0064  -23.6307   19.4469 H   0  0  0  0  0  0
  -31.0707  -24.6592   20.5594 H   0  0  0  0  0  0
  -30.0924  -23.1935   18.0653 H   0  0  0  0  0  0
  -29.7531  -24.8650   18.4953 H   0  0  0  0  0  0
  -27.9292  -22.9978   19.0398 H   0  0  0  0  0  0
  -26.0309  -19.1769   22.5419 H   0  0  0  0  0  0
  -25.2728  -17.6072   22.4112 H   0  0  0  0  0  0
  -25.6461  -18.5053   20.9451 H   0  0  0  0  0  0
  -30.0324  -16.9556   22.9831 H   0  0  0  0  0  0
  -30.9204  -15.4702   22.8524 H   0  0  0  0  0  0
  -29.1626  -15.4398   22.9870 H   0  0  0  0  0  0
  -27.7350  -17.4683   22.9289 H   0  0  0  0  0  0
  -27.2726  -16.5749   21.5079 H   0  0  0  0  0  0
  -28.6398  -24.6625   21.5154 H   0  0  0  0  0  0
  -27.1029  -24.5235   20.7718 H   0  0  0  0  0  0
  1 25  1  0  0  0
  1 30  2  0  0  0
  1 86  1  0  0  0
  2  3  1  0  0  0
  2 25  1  0  0  0
  2 88  1  0  0  0
  2 89  1  0  0  0
  3  4  1  0  0  0
  3 90  1  0  0  0
  3 91  1  0  0  0
  4  5  1  0  0  0
  4 92  1  0  0  0
  4 93  1  0  0  0
  5  6  1  0  0  0
  5 26  1  0  0  0
  5 94  1  0  0  0
  6 25  1  0  0  0
  6 95  1  0  0  0
  6 96  1  0  0  0
  7  8  2  0  0  0
  7 26  1  0  0  0
  7 29  1  0  0  0
  8  9  1  0  0  0
  8 22  1  0  0  0
  9 10  1  0  0  0
  9 27  2  0  0  0
 10 11  2  0  0  0
 10 15  1  0  0  0
 11 12  1  0  0  0
 11 97  1  0  0  0
 12 13  2  0  0  0
 12 98  1  0  0  0
 13 14  1  0  0  0
 13 31  1  0  0  0
 14 15  2  0  0  0
 14 99  1  0  0  0
 15100  1  0  0  0
 16 17  2  0  0  0
 16 21  1  0  0  0
 16 31  1  0  0  0
 17 18  1  0  0  0
 17101  1  0  0  0
 18 19  2  0  0  0
 18102  1  0  0  0
 19 20  1  0  0  0
 19 24  1  0  0  0
 20 21  2  0  0  0
 20103  1  0  0  0
 21 23  1  0  0  0
 22 28  1  0  0  0
 22 32  2  0  0  0
 26 27  1  0  0  0
 28104  1  0  0  0
 28105  1  0  0  0
 29106  1  0  0  0
 29107  1  0  0  0
 33 34  1  0  0  0
 33 66  1  0  0  0
 33 70  2  0  0  0
 34 36  1  0  0  0
 34 59  1  0  0  0
 34108  1  0  0  0
 35 44  2  0  0  0
 35 45  1  0  0  0
 35 68  1  0  0  0
 36 56  1  0  0  0
 36109  1  0  0  0
 37 39  1  0  0  0
 37 47  1  0  0  0
 37 66  1  0  0  0
 37110  1  0  0  0
 38 43  2  0  0  0
 38 46  1  0  0  0
 38 47  1  0  0  0
 39 64  1  0  0  0
 39 67  2  0  0  0
 40 52  1  0  0  0
 40 53  2  0  0  0
 40 58  1  0  0  0
 41111  1  0  0  0
 41112  1  0  0  0
 41113  1  0  0  0
 41 48  1  0  0  0
 42 43  1  0  0  0
 42 66  1  0  0  0
 42114  1  0  0  0
 42115  1  0  0  0
 43 44  1  0  0  0
 44116  1  0  0  0
 45 46  2  0  0  0
 45117  1  0  0  0
 46118  1  0  0  0
 47119  1  0  0  0
 47120  1  0  0  0
 48 56  1  0  0  0
 48 65  1  0  0  0
 48121  1  0  0  0
 49 50  1  0  0  0
 49 53  1  0  0  0
 49 64  1  0  0  0
 49122  1  0  0  0
 50 51  1  0  0  0
 50123  1  0  0  0
 50124  1  0  0  0
 51 52  1  0  0  0
 51125  1  0  0  0
 51126  1  0  0  0
 52127  1  0  0  0
 52128  1  0  0  0
 53 54  1  0  0  0
 54 55  2  0  0  0
 54129  1  0  0  0
 55 57  1  0  0  0
 55130  1  0  0  0
 56 69  2  0  0  0
 57 58  2  0  0  0
 57131  1  0  0  0
 58132  1  0  0  0
 59 60  1  0  0  0
 59 61  1  0  0  0
 59 62  1  0  0  0
 60133  1  0  0  0
 60134  1  0  0  0
 60135  1  0  0  0
 61136  1  0  0  0
 61137  1  0  0  0
 61138  1  0  0  0
 62139  1  0  0  0
 62140  1  0  0  0
 62141  1  0  0  0
 63 65  1  0  0  0
 63142  1  0  0  0
 63143  1  0  0  0
 63144  1  0  0  0
 64145  1  0  0  0
 65146  1  0  0  0
 68 84  1  0  0  0
 71 72  2  0  0  0
 71 75  1  0  0  0
 71147  1  0  0  0
 72 76  1  0  0  0
 72148  1  0  0  0
 73 74  1  0  0  0
 73 75  2  0  0  0
 73149  1  0  0  0
 74 76  2  0  0  0
 74 83  1  0  0  0
 75 85  1  0  0  0
 76 86  1  0  0  0
 77 78  1  0  0  0
 77 85  1  0  0  0
 77 87  2  0  0  0
 78 79  1  0  0  0
 78150  1  0  0  0
 78151  1  0  0  0
 79 80  1  0  0  0
 79152  1  0  0  0
 79153  1  0  0  0
 80 84  1  0  0  0
 80 85  1  0  0  0
 80154  1  0  0  0
 81 83  1  0  0  0
 81155  1  0  0  0
 81156  1  0  0  0
 81157  1  0  0  0
 82 86  1  0  0  0
 82158  1  0  0  0
 82159  1  0  0  0
 82160  1  0  0  0
 83161  1  0  0  0
 83162  1  0  0  0
 84163  1  0  0  0
 84164  1  0  0  0
M  ISO  4   1 100  68 101  84 101  86 100
M  END
> <chiral flag>
0

> <version>
0

> <s_m_source_file>
/data/baiqing/PycharmProjects/Reinvent-master-3.2/result/LINK_invent/BTK/process_docking_weight1_custom_product_contain_oxygen_bond_distance_aromatic_linkinvent_7_9_3/rearranged_h_0108.sdf

> <i_m_source_file_index>
4

> <r_mmod_Potential_Energy-OPLS-2005>
819.967224121094

> <r_mmod_Stretch_Energy-OPLS-2005>
248.984008789062

> <r_mmod_Bend_Energy-OPLS-2005>
319.61962890625

> <r_mmod_Torsional_Energy-OPLS-2005>
425.445617675781

> <r_mmod_Improper_Torsional_Energy-OPLS-2005>
8.77392959594727

> <r_mmod_Van_der_Waal_Energy-OPLS-2005>
140.787368774414

> <r_mmod_Electrostatic_Energy-OPLS-2005>
-293.753356933594

> <r_mmod_Solvation_Energy-OPLS-2005>
-200.782989501953

> <b_mmod_Minimization_Converged-OPLS-2005>
0

> <r_mmod_RMS_Derivative-OPLS-2005>
4.10488986968994

$$$$
4
                    3D
 Structure written by MMmdl.
168177  0  0  1  0            999 V2000
  -30.6161  -14.6483   20.5042 C   0  0  0  0  0  0
  -30.4422  -12.3988   19.4541 C   0  0  0  0  0  0
  -29.5123  -12.5122   18.2251 C   0  0  0  0  0  0
  -28.0339  -12.3498   18.6339 C   0  0  0  0  0  0
  -27.6547  -13.2159   19.8643 C   0  0  2  0  0  0
  -28.6988  -13.0695   20.9942 C   0  0  0  0  0  0
  -25.2571  -13.8165   20.5685 C   0  0  0  0  0  0
  -24.1831  -13.0435   20.9183 C   0  0  0  0  0  0
  -24.6397  -11.6905   20.8728 C   0  0  0  0  0  0
  -23.9065  -10.4291   21.0397 C   0  0  0  0  0  0
  -24.3616   -9.4208   21.9177 C   0  0  0  0  0  0
  -23.6293   -8.2243   22.0749 C   0  0  0  0  0  0
  -22.4273   -8.0281   21.3542 C   0  0  0  0  0  0
  -21.9907   -9.0255   20.4646 C   0  0  0  0  0  0
  -22.7236  -10.2133   20.3050 C   0  0  0  0  0  0
  -21.6855   -6.0736   22.5281 C   0  0  0  0  0  0
  -21.4014   -6.5637   23.8214 C   0  0  0  0  0  0
  -21.3659   -5.6789   24.9175 C   0  0  0  0  0  0
  -21.6046   -4.3053   24.7224 C   0  0  0  0  0  0
  -21.8820   -3.8145   23.4345 C   0  0  0  0  0  0
  -21.9194   -4.6964   22.3403 C   0  0  0  0  0  0
  -22.7855  -13.5234   21.1852 C   0  0  0  0  0  0
  -22.1663   -4.2151   21.0980 F   0  0  0  0  0  0
  -21.5628   -3.4536   25.7737 F   0  0  0  0  0  0
  -30.0148  -13.4177   20.4338 N   0  0  0  0  0  0
  -26.2997  -12.9344   20.3313 N   0  0  0  0  0  0
  -25.9325  -11.6500   20.5736 N   0  0  0  0  0  0
  -22.0489  -12.8235   22.0410 N   0  0  0  0  0  0
  -25.4291  -15.1890   20.4126 N   0  0  0  0  0  0
  -31.7735  -14.8207   20.1081 O   0  0  0  0  0  0
  -21.6638   -6.8879   21.4242 O   0  0  0  0  0  0
  -22.3548  -14.5546   20.6705 O   0  0  0  0  0  0
  -24.6272  -31.8598   23.2032 C   0  0  0  0  0  0
  -25.9120  -32.4777   23.8356 C   0  0  1  0  0  0
  -27.2206  -27.3116   20.1184 C   0  0  0  0  0  0
  -25.5931  -33.8574   24.2283 N   0  0  0  0  0  0
  -23.4209  -30.4844   21.5462 C   0  0  2  0  0  0
  -24.8674  -28.9419   20.1113 C   0  0  0  0  0  0
  -22.7481  -29.4625   22.4939 C   0  0  0  0  0  0
  -18.0289  -28.1382   22.8487 C   0  0  0  0  0  0
  -24.1489  -36.7295   23.2638 C   0  0  0  0  0  0
  -25.9634  -30.7883   21.3766 C   0  0  0  0  0  0
  -26.0373  -29.4153   20.7193 C   0  0  0  0  0  0
  -27.2184  -28.6119   20.7139 C   0  0  0  0  0  0
  -26.0328  -26.9053   19.4681 C   0  0  0  0  0  0
  -24.8682  -27.6929   19.4752 C   0  0  0  0  0  0
  -23.6355  -29.8216   20.1609 C   0  0  0  0  0  0
  -25.4112  -36.3081   24.0329 C   0  0  1  0  0  0
  -20.5890  -28.3687   23.1284 C   0  0  2  0  0  0
  -20.6777  -26.9409   22.5410 C   0  0  0  0  0  0
  -19.5750  -26.6383   21.5214 C   0  0  0  0  0  0
  -18.1930  -26.7926   22.1624 C   0  0  0  0  0  0
  -19.1540  -28.8851   23.2881 C   0  0  0  0  0  0
  -18.9458  -30.1455   23.8895 C   0  0  0  0  0  0
  -17.6457  -30.6582   24.0562 C   0  0  0  0  0  0
  -25.9049  -34.9449   23.5106 C   0  0  0  0  0  0
  -16.5351  -29.9077   23.6330 C   0  0  0  0  0  0
  -16.7276  -28.6497   23.0348 C   0  0  0  0  0  0
  -26.4502  -31.6580   25.0724 C   0  0  0  0  0  0
  -25.3742  -31.3712   26.1455 C   0  0  0  0  0  0
  -27.0338  -30.3000   24.6177 C   0  0  0  0  0  0
  -27.6065  -32.4312   25.7489 C   0  0  0  0  0  0
  -27.5583  -37.1796   24.8461 C   0  0  0  0  0  0
  -21.4194  -29.3041   22.3677 N   0  0  0  0  0  0
  -26.4289  -37.3775   23.9413 N   0  0  0  0  0  0
  -24.6892  -31.0606   22.0988 N   0  0  0  0  0  0
  -23.4205  -28.8161   23.3017 O   0  0  0  0  0  0
  -28.3276  -26.4456   20.1510 O   0  0  0  0  0  0
  -26.5613  -34.8920   22.4668 O   0  0  0  0  0  0
  -23.5434  -32.1396   23.7357 O   0  0  0  0  0  0
  -29.4296  -19.2069   19.4086 C   0  0  0  0  0  0
  -30.2965  -17.9881   21.7628 C   0  0  0  0  0  0
  -29.4698  -17.7795   19.5091 C   0  0  0  0  0  0
  -30.2648  -19.4139   21.6572 C   0  0  0  0  0  0
  -29.8159  -20.0680   20.4710 C   0  0  0  0  0  0
  -29.9193  -17.1321   20.6959 C   0  0  0  0  0  0
  -29.1561  -23.9028   20.1661 C   0  0  0  0  0  0
  -28.9944  -22.5495   20.4637 C   0  0  0  0  0  0
  -31.4246  -22.3273   18.4572 C   0  0  0  0  0  0
  -30.4234  -24.4690   19.5160 C   0  0  0  0  0  0
  -30.8906  -23.7396   18.2379 C   0  0  0  0  0  0
  -31.3341  -21.7459   19.8637 C   0  0  0  0  0  0
  -29.0139  -16.9493   18.3219 C   0  0  0  0  0  0
  -30.7470  -20.2361   22.8400 C   0  0  0  0  0  0
  -27.7028  -22.0275   21.0831 C   0  0  0  0  0  0
  -28.0650  -25.0100   20.4585 C   0  0  0  0  0  0
  -29.9506  -21.4921   20.2711 N   0  0  0  0  0  0
  -29.8119  -15.6867   20.8950 N   0  0  0  0  0  0
  -31.9019  -21.6784   17.5228 O   0  0  0  0  0  0
  -31.4835  -12.5287   19.1537 H   0  0  0  0  0  0
  -30.3810  -11.4023   19.8941 H   0  0  0  0  0  0
  -29.7787  -11.7599   17.4813 H   0  0  0  0  0  0
  -29.6557  -13.4811   17.7435 H   0  0  0  0  0  0
  -27.8669  -11.2961   18.8599 H   0  0  0  0  0  0
  -27.3825  -12.5864   17.7917 H   0  0  0  0  0  0
  -27.6726  -14.2512   19.5263 H   0  0  0  0  0  0
  -28.7117  -12.0466   21.3732 H   0  0  0  0  0  0
  -28.4403  -13.6968   21.8484 H   0  0  0  0  0  0
  -25.2757   -9.5691   22.4755 H   0  0  0  0  0  0
  -24.0008   -7.4635   22.7464 H   0  0  0  0  0  0
  -21.0838   -8.8778   19.8953 H   0  0  0  0  0  0
  -22.3694  -10.9675   19.6162 H   0  0  0  0  0  0
  -21.2008   -7.6146   23.9721 H   0  0  0  0  0  0
  -21.1480   -6.0514   25.9079 H   0  0  0  0  0  0
  -22.0600   -2.7609   23.2840 H   0  0  0  0  0  0
  -22.4090  -11.9895   22.4808 H   0  0  0  0  0  0
  -21.1110  -13.1276   22.2608 H   0  0  0  0  0  0
  -24.6621  -15.8419   20.5291 H   0  0  0  0  0  0
  -26.2811  -15.6344   20.0977 H   0  0  0  0  0  0
  -26.7187  -32.5446   23.1102 H   0  0  0  0  0  0
  -25.0083  -33.9710   25.0431 H   0  0  0  0  0  0
  -22.7155  -31.3059   21.4043 H   0  0  0  0  0  0
  -23.3750  -35.9630   23.3289 H   0  0  0  0  0  0
  -24.3587  -36.8926   22.2056 H   0  0  0  0  0  0
  -23.7246  -37.6496   23.6664 H   0  0  0  0  0  0
  -26.0965  -31.5521   20.6091 H   0  0  0  0  0  0
  -26.8434  -30.8361   22.0061 H   0  0  0  0  0  0
  -28.1154  -28.9699   21.1998 H   0  0  0  0  0  0
  -25.9790  -25.9702   18.9327 H   0  0  0  0  0  0
  -23.9778  -27.3323   18.9789 H   0  0  0  0  0  0
  -23.7527  -30.5985   19.4046 H   0  0  0  0  0  0
  -22.7558  -29.2503   19.8592 H   0  0  0  0  0  0
  -25.1290  -36.1928   25.0823 H   0  0  0  0  0  0
  -20.9983  -28.3258   24.1405 H   0  0  0  0  0  0
  -20.5679  -26.2294   23.3608 H   0  0  0  0  0  0
  -21.6644  -26.7437   22.1204 H   0  0  0  0  0  0
  -19.6909  -25.6292   21.1243 H   0  0  0  0  0  0
  -19.6686  -27.3195   20.6744 H   0  0  0  0  0  0
  -17.4201  -26.6677   21.4025 H   0  0  0  0  0  0
  -18.0328  -26.0068   22.9019 H   0  0  0  0  0  0
  -19.7931  -30.7276   24.2263 H   0  0  0  0  0  0
  -17.5005  -31.6262   24.5160 H   0  0  0  0  0  0
  -15.5346  -30.2973   23.7654 H   0  0  0  0  0  0
  -15.8678  -28.0815   22.7057 H   0  0  0  0  0  0
  -24.5929  -30.7042   25.7791 H   0  0  0  0  0  0
  -24.8916  -32.2870   26.4878 H   0  0  0  0  0  0
  -25.8080  -30.8901   27.0230 H   0  0  0  0  0  0
  -26.2901  -29.6751   24.1218 H   0  0  0  0  0  0
  -27.4045  -29.7258   25.4679 H   0  0  0  0  0  0
  -27.8773  -30.4274   23.9390 H   0  0  0  0  0  0
  -27.2682  -33.3615   26.2061 H   0  0  0  0  0  0
  -28.3877  -32.6863   25.0316 H   0  0  0  0  0  0
  -28.0733  -31.8440   26.5408 H   0  0  0  0  0  0
  -28.2588  -38.0106   24.7524 H   0  0  0  0  0  0
  -28.1088  -36.2636   24.6255 H   0  0  0  0  0  0
  -27.2306  -37.1416   25.8865 H   0  0  0  0  0  0
  -20.9369  -29.8765   21.6889 H   0  0  0  0  0  0
  -26.0169  -38.2848   24.1416 H   0  0  0  0  0  0
  -29.1120  -19.6582   18.4793 H   0  0  0  0  0  0
  -30.6184  -17.5411   22.6930 H   0  0  0  0  0  0
  -31.2162  -24.5129   20.2635 H   0  0  0  0  0  0
  -30.2669  -25.5059   19.2271 H   0  0  0  0  0  0
  -30.0700  -23.6869   17.5227 H   0  0  0  0  0  0
  -31.6815  -24.3195   17.7621 H   0  0  0  0  0  0
  -31.8066  -22.4243   20.5730 H   0  0  0  0  0  0
  -31.9389  -20.8375   19.8871 H   0  0  0  0  0  0
  -28.8047  -17.5723   17.4521 H   0  0  0  0  0  0
  -28.1058  -16.3996   18.5673 H   0  0  0  0  0  0
  -29.7846  -16.2329   18.0370 H   0  0  0  0  0  0
  -30.7489  -19.6503   23.7595 H   0  0  0  0  0  0
  -30.1057  -21.1025   23.0022 H   0  0  0  0  0  0
  -31.7623  -20.5899   22.6613 H   0  0  0  0  0  0
  -26.9393  -22.7904   21.2195 H   0  0  0  0  0  0
  -27.8986  -21.5954   22.0646 H   0  0  0  0  0  0
  -27.2640  -21.2511   20.4551 H   0  0  0  0  0  0
  -27.8311  -24.9597   21.5227 H   0  0  0  0  0  0
  -27.1784  -24.6502   19.9448 H   0  0  0  0  0  0
  -28.9137  -15.3786   21.2352 H   0  0  0  0  0  0
  1 25  1  0  0  0
  1 30  2  0  0  0
  1 88  1  0  0  0
  2  3  1  0  0  0
  2 25  1  0  0  0
  2 90  1  0  0  0
  2 91  1  0  0  0
  3  4  1  0  0  0
  3 92  1  0  0  0
  3 93  1  0  0  0
  4  5  1  0  0  0
  4 94  1  0  0  0
  4 95  1  0  0  0
  5  6  1  0  0  0
  5 26  1  0  0  0
  5 96  1  0  0  0
  6 25  1  0  0  0
  6 97  1  0  0  0
  6 98  1  0  0  0
  7  8  2  0  0  0
  7 26  1  0  0  0
  7 29  1  0  0  0
  8  9  1  0  0  0
  8 22  1  0  0  0
  9 10  1  0  0  0
  9 27  2  0  0  0
 10 11  2  0  0  0
 10 15  1  0  0  0
 11 12  1  0  0  0
 11 99  1  0  0  0
 12 13  2  0  0  0
 12100  1  0  0  0
 13 14  1  0  0  0
 13 31  1  0  0  0
 14 15  2  0  0  0
 14101  1  0  0  0
 15102  1  0  0  0
 16 17  2  0  0  0
 16 21  1  0  0  0
 16 31  1  0  0  0
 17 18  1  0  0  0
 17103  1  0  0  0
 18 19  2  0  0  0
 18104  1  0  0  0
 19 20  1  0  0  0
 19 24  1  0  0  0
 20 21  2  0  0  0
 20105  1  0  0  0
 21 23  1  0  0  0
 22 28  1  0  0  0
 22 32  2  0  0  0
 26 27  1  0  0  0
 28106  1  0  0  0
 28107  1  0  0  0
 29108  1  0  0  0
 29109  1  0  0  0
 33 34  1  0  0  0
 33 66  1  0  0  0
 33 70  2  0  0  0
 34 36  1  0  0  0
 34 59  1  0  0  0
 34110  1  0  0  0
 35 44  2  0  0  0
 35 45  1  0  0  0
 35 68  1  0  0  0
 36 56  1  0  0  0
 36111  1  0  0  0
 37 39  1  0  0  0
 37 47  1  0  0  0
 37 66  1  0  0  0
 37112  1  0  0  0
 38 43  2  0  0  0
 38 46  1  0  0  0
 38 47  1  0  0  0
 39 64  1  0  0  0
 39 67  2  0  0  0
 40 52  1  0  0  0
 40 53  2  0  0  0
 40 58  1  0  0  0
 41113  1  0  0  0
 41114  1  0  0  0
 41115  1  0  0  0
 41 48  1  0  0  0
 42 43  1  0  0  0
 42 66  1  0  0  0
 42116  1  0  0  0
 42117  1  0  0  0
 43 44  1  0  0  0
 44118  1  0  0  0
 45 46  2  0  0  0
 45119  1  0  0  0
 46120  1  0  0  0
 47121  1  0  0  0
 47122  1  0  0  0
 48 56  1  0  0  0
 48 65  1  0  0  0
 48123  1  0  0  0
 49 50  1  0  0  0
 49 53  1  0  0  0
 49 64  1  0  0  0
 49124  1  0  0  0
 50 51  1  0  0  0
 50125  1  0  0  0
 50126  1  0  0  0
 51 52  1  0  0  0
 51127  1  0  0  0
 51128  1  0  0  0
 52129  1  0  0  0
 52130  1  0  0  0
 53 54  1  0  0  0
 54 55  2  0  0  0
 54131  1  0  0  0
 55 57  1  0  0  0
 55132  1  0  0  0
 56 69  2  0  0  0
 57 58  2  0  0  0
 57133  1  0  0  0
 58134  1  0  0  0
 59 60  1  0  0  0
 59 61  1  0  0  0
 59 62  1  0  0  0
 60135  1  0  0  0
 60136  1  0  0  0
 60137  1  0  0  0
 61138  1  0  0  0
 61139  1  0  0  0
 61140  1  0  0  0
 62141  1  0  0  0
 62142  1  0  0  0
 62143  1  0  0  0
 63 65  1  0  0  0
 63144  1  0  0  0
 63145  1  0  0  0
 63146  1  0  0  0
 64147  1  0  0  0
 65148  1  0  0  0
 68 86  1  0  0  0
 71 73  2  0  0  0
 71 75  1  0  0  0
 71149  1  0  0  0
 72 74  1  0  0  0
 72 76  2  0  0  0
 72150  1  0  0  0
 73 76  1  0  0  0
 73 83  1  0  0  0
 74 75  2  0  0  0
 74 84  1  0  0  0
 75 87  1  0  0  0
 76 88  1  0  0  0
 77 78  2  0  0  0
 77 80  1  0  0  0
 77 86  1  0  0  0
 78 85  1  0  0  0
 78 87  1  0  0  0
 79 81  1  0  0  0
 79 82  1  0  0  0
 79 89  2  0  0  0
 80 81  1  0  0  0
 80151  1  0  0  0
 80152  1  0  0  0
 81153  1  0  0  0
 81154  1  0  0  0
 82 87  1  0  0  0
 82155  1  0  0  0
 82156  1  0  0  0
 83157  1  0  0  0
 83158  1  0  0  0
 83159  1  0  0  0
 84160  1  0  0  0
 84161  1  0  0  0
 84162  1  0  0  0
 85163  1  0  0  0
 85164  1  0  0  0
 85165  1  0  0  0
 86166  1  0  0  0
 86167  1  0  0  0
 88168  1  0  0  0
M  ISO  4   1 100  68 101  86 101  88 100
M  END
> <chiral flag>
0

> <version>
0

> <s_m_source_file>
/data/baiqing/PycharmProjects/Reinvent-master-3.2/result/LINK_invent/BTK/process_docking_weight1_custom_product_contain_oxygen_bond_distance_aromatic_linkinvent_7_9_3/rearranged_h_0108.sdf

> <i_m_source_file_index>
5

> <r_mmod_Potential_Energy-OPLS-2005>
127.93270111084

> <r_mmod_Stretch_Energy-OPLS-2005>
90.2338333129883

> <r_mmod_Bend_Energy-OPLS-2005>
136.184646606445

> <r_mmod_Torsional_Energy-OPLS-2005>
310.741271972656

> <r_mmod_Improper_Torsional_Energy-OPLS-2005>
5.7729024887085

> <r_mmod_Van_der_Waal_Energy-OPLS-2005>
152.246063232422

> <r_mmod_Electrostatic_Energy-OPLS-2005>
-402.245758056641

> <r_mmod_Solvation_Energy-OPLS-2005>
-216.726226806641

> <b_mmod_Minimization_Converged-OPLS-2005>
0

> <r_mmod_RMS_Derivative-OPLS-2005>
0.685949802398682

$$$$
6
                    3D
 Structure written by MMmdl.
162171  0  0  1  0            999 V2000
  -30.6749  -14.4980   20.5803 C   0  0  0  0  0  0
  -30.4346  -12.3247   19.4219 C   0  0  0  0  0  0
  -29.4991  -12.5085   18.2074 C   0  0  0  0  0  0
  -28.0205  -12.3633   18.6197 C   0  0  0  0  0  0
  -27.6632  -13.2023   19.8754 C   0  0  2  0  0  0
  -28.7053  -12.9749   20.9939 C   0  0  0  0  0  0
  -25.2612  -13.8152   20.5677 C   0  0  0  0  0  0
  -24.1851  -13.0438   20.9169 C   0  0  0  0  0  0
  -24.6393  -11.6897   20.8734 C   0  0  0  0  0  0
  -23.9055  -10.4288   21.0399 C   0  0  0  0  0  0
  -24.3605   -9.4203   21.9174 C   0  0  0  0  0  0
  -23.6276   -8.2245   22.0754 C   0  0  0  0  0  0
  -22.4261   -8.0281   21.3548 C   0  0  0  0  0  0
  -21.9889   -9.0256   20.4655 C   0  0  0  0  0  0
  -22.7220  -10.2131   20.3055 C   0  0  0  0  0  0
  -21.6851   -6.0724   22.5271 C   0  0  0  0  0  0
  -21.4019   -6.5630   23.8203 C   0  0  0  0  0  0
  -21.3657   -5.6785   24.9165 C   0  0  0  0  0  0
  -21.6043   -4.3049   24.7220 C   0  0  0  0  0  0
  -21.8821   -3.8136   23.4344 C   0  0  0  0  0  0
  -21.9192   -4.6950   22.3396 C   0  0  0  0  0  0
  -22.7874  -13.5245   21.1815 C   0  0  0  0  0  0
  -22.1660   -4.2134   21.0972 F   0  0  0  0  0  0
  -21.5623   -3.4534   25.7736 F   0  0  0  0  0  0
  -30.0345  -13.3027   20.4464 N   0  0  0  0  0  0
  -26.3033  -12.9303   20.3354 N   0  0  0  0  0  0
  -25.9319  -11.6472   20.5762 N   0  0  0  0  0  0
  -22.0509  -12.8267   22.0385 N   0  0  0  0  0  0
  -25.4378  -15.1868   20.4088 N   0  0  0  0  0  0
  -31.8026  -14.7007   20.1175 O   0  0  0  0  0  0
  -21.6639   -6.8867   21.4234 O   0  0  0  0  0  0
  -22.3567  -14.5537   20.6635 O   0  0  0  0  0  0
  -24.6183  -31.8679   23.2113 C   0  0  0  0  0  0
  -25.9068  -32.4824   23.8407 C   0  0  1  0  0  0
  -27.2237  -27.4044   20.0905 C   0  0  0  0  0  0
  -25.5921  -33.8622   24.2342 N   0  0  0  0  0  0
  -23.4061  -30.4950   21.5532 C   0  0  2  0  0  0
  -24.8479  -28.9653   20.1143 C   0  0  0  0  0  0
  -22.7429  -29.4659   22.4980 C   0  0  0  0  0  0
  -18.0282  -28.1375   22.8489 C   0  0  0  0  0  0
  -24.1486  -36.7313   23.2633 C   0  0  0  0  0  0
  -25.9405  -30.8243   21.3697 C   0  0  0  0  0  0
  -26.0139  -29.4582   20.7133 C   0  0  0  0  0  0
  -27.2030  -28.6858   20.6996 C   0  0  0  0  0  0
  -26.0291  -26.9415   19.4836 C   0  0  0  0  0  0
  -24.8518  -27.7066   19.4982 C   0  0  0  0  0  0
  -23.6144  -29.8368   20.1653 C   0  0  0  0  0  0
  -25.4104  -36.3111   24.0337 C   0  0  1  0  0  0
  -20.5875  -28.3665   23.1305 C   0  0  2  0  0  0
  -20.6776  -26.9401   22.5406 C   0  0  0  0  0  0
  -19.5750  -26.6383   21.5208 C   0  0  0  0  0  0
  -18.1931  -26.7920   22.1626 C   0  0  0  0  0  0
  -19.1532  -28.8836   23.2895 C   0  0  0  0  0  0
  -18.9458  -30.1442   23.8909 C   0  0  0  0  0  0
  -17.6459  -30.6579   24.0566 C   0  0  0  0  0  0
  -25.9031  -34.9476   23.5132 C   0  0  0  0  0  0
  -16.5352  -29.9083   23.6323 C   0  0  0  0  0  0
  -16.7269  -28.6499   23.0343 C   0  0  0  0  0  0
  -26.4483  -31.6600   25.0737 C   0  0  0  0  0  0
  -25.3751  -31.3739   26.1497 C   0  0  0  0  0  0
  -27.0290  -30.3029   24.6124 C   0  0  0  0  0  0
  -27.6076  -32.4304   25.7483 C   0  0  0  0  0  0
  -27.5578  -37.1813   24.8464 C   0  0  0  0  0  0
  -21.4154  -29.3038   22.3713 N   0  0  0  0  0  0
  -26.4296  -37.3789   23.9401 N   0  0  0  0  0  0
  -24.6736  -31.0760   22.1030 N   0  0  0  0  0  0
  -23.4190  -28.8191   23.3020 O   0  0  0  0  0  0
  -28.3838  -26.6374   20.1134 O   0  0  0  0  0  0
  -26.5580  -34.8923   22.4686 O   0  0  0  0  0  0
  -23.5367  -32.1446   23.7489 O   0  0  0  0  0  0
  -31.4197  -18.9593   21.2600 C   0  0  0  0  0  0
  -31.3366  -17.5566   21.1037 C   0  0  0  0  0  0
  -28.9338  -17.6901   21.4100 C   0  0  0  0  0  0
  -30.2686  -19.7425   21.5099 C   0  0  0  0  0  0
  -30.0879  -16.8979   21.1946 C   0  0  0  0  0  0
  -29.0070  -19.1048   21.5606 C   0  0  0  0  0  0
  -29.5805  -23.4915   21.1179 C   0  0  0  0  0  0
  -29.6523  -23.2871   18.7541 C   0  0  0  0  0  0
  -30.2498  -22.0437   19.4315 C   0  0  0  0  0  0
  -29.5278  -24.3608   19.8520 C   0  0  1  0  0  0
  -26.6254  -19.3000   21.8445 C   0  0  0  0  0  0
  -30.4187  -21.2391   21.8496 C   0  0  0  0  0  0
  -28.2691  -25.2608   19.6812 C   0  0  0  0  0  0
  -29.9890  -22.2339   20.8479 N   0  0  0  0  0  0
  -29.9175  -15.4722   21.1349 N   0  0  0  0  0  0
  -29.3257  -23.9351   22.2412 O   0  0  0  0  0  0
  -27.9094  -19.9084   21.7902 O   0  0  0  0  0  0
  -31.4764  -12.4423   19.1180 H   0  0  0  0  0  0
  -30.3534  -11.3122   19.8202 H   0  0  0  0  0  0
  -29.7427  -11.7807   17.4322 H   0  0  0  0  0  0
  -29.6619  -13.4925   17.7635 H   0  0  0  0  0  0
  -27.8349  -11.3073   18.8183 H   0  0  0  0  0  0
  -27.3688  -12.6327   17.7880 H   0  0  0  0  0  0
  -27.7086  -14.2501   19.5790 H   0  0  0  0  0  0
  -28.6923  -11.9322   21.3148 H   0  0  0  0  0  0
  -28.4589  -13.5511   21.8868 H   0  0  0  0  0  0
  -25.2757   -9.5663   22.4746 H   0  0  0  0  0  0
  -23.9974   -7.4639   22.7481 H   0  0  0  0  0  0
  -21.0810   -8.8782   19.8975 H   0  0  0  0  0  0
  -22.3681  -10.9669   19.6164 H   0  0  0  0  0  0
  -21.2028   -7.6143   23.9700 H   0  0  0  0  0  0
  -21.1472   -6.0519   25.9065 H   0  0  0  0  0  0
  -22.0607   -2.7595   23.2856 H   0  0  0  0  0  0
  -22.4115  -11.9937   22.4794 H   0  0  0  0  0  0
  -21.1132  -13.1319   22.2578 H   0  0  0  0  0  0
  -24.6699  -15.8427   20.5061 H   0  0  0  0  0  0
  -26.2801  -15.6136   20.0460 H   0  0  0  0  0  0
  -26.7138  -32.5528   23.1166 H   0  0  0  0  0  0
  -25.0100  -33.9782   25.0508 H   0  0  0  0  0  0
  -22.6961  -31.3138   21.4183 H   0  0  0  0  0  0
  -23.3732  -35.9664   23.3327 H   0  0  0  0  0  0
  -24.3574  -36.8892   22.2041 H   0  0  0  0  0  0
  -23.7260  -37.6539   23.6619 H   0  0  0  0  0  0
  -26.0580  -31.5906   20.6022 H   0  0  0  0  0  0
  -26.8277  -30.8749   21.9893 H   0  0  0  0  0  0
  -28.1011  -29.0614   21.1698 H   0  0  0  0  0  0
  -25.9652  -25.9844   18.9889 H   0  0  0  0  0  0
  -23.9552  -27.3225   19.0310 H   0  0  0  0  0  0
  -23.7284  -30.6172   19.4117 H   0  0  0  0  0  0
  -22.7353  -29.2642   19.8634 H   0  0  0  0  0  0
  -25.1278  -36.1986   25.0830 H   0  0  0  0  0  0
  -20.9969  -28.3233   24.1425 H   0  0  0  0  0  0
  -20.5687  -26.2268   23.3589 H   0  0  0  0  0  0
  -21.6646  -26.7448   22.1194 H   0  0  0  0  0  0
  -19.6913  -25.6301   21.1219 H   0  0  0  0  0  0
  -19.6683  -27.3206   20.6748 H   0  0  0  0  0  0
  -17.4195  -26.6657   21.4037 H   0  0  0  0  0  0
  -18.0343  -26.0063   22.9023 H   0  0  0  0  0  0
  -19.7932  -30.7257   24.2283 H   0  0  0  0  0  0
  -17.5010  -31.6259   24.5171 H   0  0  0  0  0  0
  -15.5350  -30.2987   23.7635 H   0  0  0  0  0  0
  -15.8670  -28.0822   22.7049 H   0  0  0  0  0  0
  -24.5878  -30.7136   25.7847 H   0  0  0  0  0  0
  -24.9006  -32.2919   26.4976 H   0  0  0  0  0  0
  -25.8096  -30.8870   27.0236 H   0  0  0  0  0  0
  -26.2831  -29.6803   24.1169 H   0  0  0  0  0  0
  -27.4040  -29.7253   25.4582 H   0  0  0  0  0  0
  -27.8682  -30.4329   23.9288 H   0  0  0  0  0  0
  -27.2723  -33.3600   26.2092 H   0  0  0  0  0  0
  -28.3865  -32.6866   25.0290 H   0  0  0  0  0  0
  -28.0763  -31.8407   26.5370 H   0  0  0  0  0  0
  -28.2622  -38.0084   24.7474 H   0  0  0  0  0  0
  -28.1048  -36.2617   24.6328 H   0  0  0  0  0  0
  -27.2292  -37.1517   25.8868 H   0  0  0  0  0  0
  -20.9310  -29.8769   21.6948 H   0  0  0  0  0  0
  -26.0189  -38.2872   24.1389 H   0  0  0  0  0  0
  -32.3916  -19.4309   21.2283 H   0  0  0  0  0  0
  -32.2504  -17.0001   20.9534 H   0  0  0  0  0  0
  -27.9824  -17.1839   21.4784 H   0  0  0  0  0  0
  -28.6676  -23.0363   18.3554 H   0  0  0  0  0  0
  -30.2624  -23.6257   17.9165 H   0  0  0  0  0  0
  -31.3274  -21.9881   19.2683 H   0  0  0  0  0  0
  -29.7998  -21.1230   19.0576 H   0  0  0  0  0  0
  -30.4243  -24.9815   19.8382 H   0  0  0  0  0  0
  -25.8668  -20.0703   21.9817 H   0  0  0  0  0  0
  -26.5490  -18.6093   22.6849 H   0  0  0  0  0  0
  -26.3895  -18.7718   20.9198 H   0  0  0  0  0  0
  -31.4640  -21.4448   22.0821 H   0  0  0  0  0  0
  -29.8787  -21.4136   22.7821 H   0  0  0  0  0  0
  -27.4343  -24.7802   20.1957 H   0  0  0  0  0  0
  -28.0184  -25.2778   18.6194 H   0  0  0  0  0  0
  -29.0144  -15.1363   21.4320 H   0  0  0  0  0  0
  1 25  1  0  0  0
  1 30  2  0  0  0
  1 85  1  0  0  0
  2  3  1  0  0  0
  2 25  1  0  0  0
  2 88  1  0  0  0
  2 89  1  0  0  0
  3  4  1  0  0  0
  3 90  1  0  0  0
  3 91  1  0  0  0
  4  5  1  0  0  0
  4 92  1  0  0  0
  4 93  1  0  0  0
  5  6  1  0  0  0
  5 26  1  0  0  0
  5 94  1  0  0  0
  6 25  1  0  0  0
  6 95  1  0  0  0
  6 96  1  0  0  0
  7  8  2  0  0  0
  7 26  1  0  0  0
  7 29  1  0  0  0
  8  9  1  0  0  0
  8 22  1  0  0  0
  9 10  1  0  0  0
  9 27  2  0  0  0
 10 11  2  0  0  0
 10 15  1  0  0  0
 11 12  1  0  0  0
 11 97  1  0  0  0
 12 13  2  0  0  0
 12 98  1  0  0  0
 13 14  1  0  0  0
 13 31  1  0  0  0
 14 15  2  0  0  0
 14 99  1  0  0  0
 15100  1  0  0  0
 16 17  2  0  0  0
 16 21  1  0  0  0
 16 31  1  0  0  0
 17 18  1  0  0  0
 17101  1  0  0  0
 18 19  2  0  0  0
 18102  1  0  0  0
 19 20  1  0  0  0
 19 24  1  0  0  0
 20 21  2  0  0  0
 20103  1  0  0  0
 21 23  1  0  0  0
 22 28  1  0  0  0
 22 32  2  0  0  0
 26 27  1  0  0  0
 28104  1  0  0  0
 28105  1  0  0  0
 29106  1  0  0  0
 29107  1  0  0  0
 33 34  1  0  0  0
 33 66  1  0  0  0
 33 70  2  0  0  0
 34 36  1  0  0  0
 34 59  1  0  0  0
 34108  1  0  0  0
 35 44  2  0  0  0
 35 45  1  0  0  0
 35 68  1  0  0  0
 36 56  1  0  0  0
 36109  1  0  0  0
 37 39  1  0  0  0
 37 47  1  0  0  0
 37 66  1  0  0  0
 37110  1  0  0  0
 38 43  2  0  0  0
 38 46  1  0  0  0
 38 47  1  0  0  0
 39 64  1  0  0  0
 39 67  2  0  0  0
 40 52  1  0  0  0
 40 53  2  0  0  0
 40 58  1  0  0  0
 41111  1  0  0  0
 41112  1  0  0  0
 41113  1  0  0  0
 41 48  1  0  0  0
 42 43  1  0  0  0
 42 66  1  0  0  0
 42114  1  0  0  0
 42115  1  0  0  0
 43 44  1  0  0  0
 44116  1  0  0  0
 45 46  2  0  0  0
 45117  1  0  0  0
 46118  1  0  0  0
 47119  1  0  0  0
 47120  1  0  0  0
 48 56  1  0  0  0
 48 65  1  0  0  0
 48121  1  0  0  0
 49 50  1  0  0  0
 49 53  1  0  0  0
 49 64  1  0  0  0
 49122  1  0  0  0
 50 51  1  0  0  0
 50123  1  0  0  0
 50124  1  0  0  0
 51 52  1  0  0  0
 51125  1  0  0  0
 51126  1  0  0  0
 52127  1  0  0  0
 52128  1  0  0  0
 53 54  1  0  0  0
 54 55  2  0  0  0
 54129  1  0  0  0
 55 57  1  0  0  0
 55130  1  0  0  0
 56 69  2  0  0  0
 57 58  2  0  0  0
 57131  1  0  0  0
 58132  1  0  0  0
 59 60  1  0  0  0
 59 61  1  0  0  0
 59 62  1  0  0  0
 60133  1  0  0  0
 60134  1  0  0  0
 60135  1  0  0  0
 61136  1  0  0  0
 61137  1  0  0  0
 61138  1  0  0  0
 62139  1  0  0  0
 62140  1  0  0  0
 62141  1  0  0  0
 63 65  1  0  0  0
 63142  1  0  0  0
 63143  1  0  0  0
 63144  1  0  0  0
 64145  1  0  0  0
 65146  1  0  0  0
 68 83  1  0  0  0
 71 72  2  0  0  0
 71 74  1  0  0  0
 71147  1  0  0  0
 72 75  1  0  0  0
 72148  1  0  0  0
 73 75  2  0  0  0
 73 76  1  0  0  0
 73149  1  0  0  0
 74 76  2  0  0  0
 74 82  1  0  0  0
 75 85  1  0  0  0
 76 87  1  0  0  0
 77 80  1  0  0  0
 77 84  1  0  0  0
 77 86  2  0  0  0
 78 79  1  0  0  0
 78 80  1  0  0  0
 78150  1  0  0  0
 78151  1  0  0  0
 79 84  1  0  0  0
 79152  1  0  0  0
 79153  1  0  0  0
 80 83  1  0  0  0
 80154  1  0  0  0
 81 87  1  0  0  0
 81155  1  0  0  0
 81156  1  0  0  0
 81157  1  0  0  0
 82 84  1  0  0  0
 82158  1  0  0  0
 82159  1  0  0  0
 83160  1  0  0  0
 83161  1  0  0  0
 85162  1  0  0  0
M  ISO  4   1 100  68 101  83 101  85 100
M  END
> <chiral flag>
0

> <version>
0

> <s_m_source_file>
/data/baiqing/PycharmProjects/Reinvent-master-3.2/result/LINK_invent/BTK/process_docking_weight1_custom_product_contain_oxygen_bond_distance_aromatic_linkinvent_7_9_3/rearranged_h_0108.sdf

> <i_m_source_file_index>
6

> <r_mmod_Potential_Energy-OPLS-2005>
1.96323001384735

> <r_mmod_Stretch_Energy-OPLS-2005>
44.1813774108887

> <r_mmod_Bend_Energy-OPLS-2005>
140.888092041016

> <r_mmod_Torsional_Energy-OPLS-2005>
236.546279907227

> <r_mmod_Improper_Torsional_Energy-OPLS-2005>
4.62202310562134

> <r_mmod_Van_der_Waal_Energy-OPLS-2005>
157.262237548828

> <r_mmod_Electrostatic_Energy-OPLS-2005>
-360.673706054688

> <r_mmod_Solvation_Energy-OPLS-2005>
-237.769424438477

> <b_mmod_Minimization_Converged-OPLS-2005>
0

> <r_mmod_RMS_Derivative-OPLS-2005>
1.19455850124359

$$$$
7
                    3D
 Structure written by MMmdl.
163172  0  0  1  0            999 V2000
  -30.6527  -14.6343   20.5634 C   0  0  0  0  0  0
  -30.4411  -12.4073   19.4617 C   0  0  0  0  0  0
  -29.5102  -12.5165   18.2325 C   0  0  0  0  0  0
  -28.0349  -12.3374   18.6418 C   0  0  0  0  0  0
  -27.6549  -13.2109   19.8648 C   0  0  2  0  0  0
  -28.6914  -13.0391   20.9926 C   0  0  0  0  0  0
  -25.2553  -13.8146   20.5654 C   0  0  0  0  0  0
  -24.1822  -13.0427   20.9194 C   0  0  0  0  0  0
  -24.6390  -11.6904   20.8762 C   0  0  0  0  0  0
  -23.9070  -10.4281   21.0417 C   0  0  0  0  0  0
  -24.3612   -9.4185   21.9193 C   0  0  0  0  0  0
  -23.6277   -8.2231   22.0764 C   0  0  0  0  0  0
  -22.4265   -8.0277   21.3552 C   0  0  0  0  0  0
  -21.9906   -9.0254   20.4658 C   0  0  0  0  0  0
  -22.7246  -10.2123   20.3065 C   0  0  0  0  0  0
  -21.6842   -6.0740   22.5280 C   0  0  0  0  0  0
  -21.4015   -6.5643   23.8215 C   0  0  0  0  0  0
  -21.3656   -5.6794   24.9174 C   0  0  0  0  0  0
  -21.6042   -4.3057   24.7223 C   0  0  0  0  0  0
  -21.8820   -3.8152   23.4345 C   0  0  0  0  0  0
  -21.9190   -4.6970   22.3402 C   0  0  0  0  0  0
  -22.7834  -13.5212   21.1844 C   0  0  0  0  0  0
  -22.1659   -4.2158   21.0981 F   0  0  0  0  0  0
  -21.5622   -3.4540   25.7735 F   0  0  0  0  0  0
  -30.0150  -13.4150   20.4607 N   0  0  0  0  0  0
  -26.2985  -12.9321   20.3299 N   0  0  0  0  0  0
  -25.9309  -11.6485   20.5745 N   0  0  0  0  0  0
  -22.0492  -12.8237   22.0420 N   0  0  0  0  0  0
  -25.4254  -15.1848   20.3959 N   0  0  0  0  0  0
  -31.7403  -14.8270   20.0094 O   0  0  0  0  0  0
  -21.6633   -6.8876   21.4243 O   0  0  0  0  0  0
  -22.3528  -14.5538   20.6697 O   0  0  0  0  0  0
  -24.6231  -31.8591   23.2011 C   0  0  0  0  0  0
  -25.9078  -32.4774   23.8338 C   0  0  1  0  0  0
  -27.2383  -27.3320   20.1029 C   0  0  0  0  0  0
  -25.5905  -33.8577   24.2262 N   0  0  0  0  0  0
  -23.4175  -30.4787   21.5429 C   0  0  2  0  0  0
  -24.8650  -28.9292   20.1112 C   0  0  0  0  0  0
  -22.7452  -29.4615   22.4948 C   0  0  0  0  0  0
  -18.0281  -28.1365   22.8479 C   0  0  0  0  0  0
  -24.1499  -36.7296   23.2639 C   0  0  0  0  0  0
  -25.9542  -30.7921   21.3697 C   0  0  0  0  0  0
  -26.0299  -29.4184   20.7130 C   0  0  0  0  0  0
  -27.2140  -28.6285   20.7023 C   0  0  0  0  0  0
  -26.0447  -26.8810   19.4981 C   0  0  0  0  0  0
  -24.8727  -27.6650   19.4998 C   0  0  0  0  0  0
  -23.6313  -29.8060   20.1605 C   0  0  0  0  0  0
  -25.4119  -36.3074   24.0322 C   0  0  1  0  0  0
  -20.5875  -28.3685   23.1305 C   0  0  2  0  0  0
  -20.6777  -26.9410   22.5437 C   0  0  0  0  0  0
  -19.5763  -26.6368   21.5234 C   0  0  0  0  0  0
  -18.1942  -26.7896   22.1642 C   0  0  0  0  0  0
  -19.1524  -28.8843   23.2886 C   0  0  0  0  0  0
  -18.9432  -30.1447   23.8903 C   0  0  0  0  0  0
  -17.6423  -30.6565   24.0554 C   0  0  0  0  0  0
  -25.9048  -34.9445   23.5092 C   0  0  0  0  0  0
  -16.5321  -29.9052   23.6320 C   0  0  0  0  0  0
  -16.7258  -28.6471   23.0338 C   0  0  0  0  0  0
  -26.4478  -31.6581   25.0700 C   0  0  0  0  0  0
  -25.3737  -31.3707   26.1446 C   0  0  0  0  0  0
  -27.0329  -30.3012   24.6144 C   0  0  0  0  0  0
  -27.6035  -32.4325   25.7473 C   0  0  0  0  0  0
  -27.5584  -37.1803   24.8464 C   0  0  0  0  0  0
  -21.4165  -29.3035   22.3695 N   0  0  0  0  0  0
  -26.4300  -37.3765   23.9398 N   0  0  0  0  0  0
  -24.6836  -31.0603   22.0953 N   0  0  0  0  0  0
  -23.4168  -28.8170   23.3045 O   0  0  0  0  0  0
  -28.3942  -26.5414   20.1604 O   0  0  0  0  0  0
  -26.5621  -34.8916   22.4664 O   0  0  0  0  0  0
  -23.5392  -32.1367   23.7346 O   0  0  0  0  0  0
  -28.4635  -17.6382   20.6199 C   0  0  0  0  0  0
  -28.1001  -19.0064   20.4685 C   0  0  0  0  0  0
  -30.3879  -19.6483   20.7682 C   0  0  0  0  0  0
  -29.7901  -17.2163   20.9044 C   0  0  0  0  0  0
  -30.7602  -18.2703   20.9316 C   0  0  0  0  0  0
  -29.0412  -20.0609   20.5898 C   0  0  0  0  0  0
  -28.3533  -23.8801   20.3858 C   0  0  0  0  0  0
  -28.8070  -22.6193   20.0145 C   0  0  0  0  0  0
  -27.6022  -23.9805   21.6602 C   0  0  0  0  0  0
  -30.0097  -15.7818   21.4288 C   0  0  0  0  0  0
  -26.9819  -22.6950   22.1952 C   0  0  0  0  0  0
  -27.9686  -21.5245   22.0998 C   0  0  0  0  0  0
  -32.2170  -17.9633   21.2383 C   0  0  0  0  0  0
  -29.5394  -22.4231   18.6939 C   0  0  0  0  0  0
  -28.5139  -25.2027   19.5379 C   0  0  0  0  0  0
  -29.6728  -15.5722   22.6329 N   0  0  0  0  0  0
  -28.5945  -21.4209   20.7752 N   0  0  0  0  0  0
  -27.4537  -25.0173   22.3143 O   0  0  0  0  0  0
  -31.4801  -12.5396   19.1548 H   0  0  0  0  0  0
  -30.3961  -11.4065   19.8939 H   0  0  0  0  0  0
  -29.7824  -11.7676   17.4877 H   0  0  0  0  0  0
  -29.6450  -13.4903   17.7581 H   0  0  0  0  0  0
  -27.8895  -11.2834   18.8860 H   0  0  0  0  0  0
  -27.3753  -12.5493   17.7995 H   0  0  0  0  0  0
  -27.6845  -14.2496   19.5359 H   0  0  0  0  0  0
  -28.7112  -12.0032   21.3340 H   0  0  0  0  0  0
  -28.3861  -13.6064   21.8657 H   0  0  0  0  0  0
  -25.2754   -9.5657   22.4768 H   0  0  0  0  0  0
  -23.9989   -7.4620   22.7480 H   0  0  0  0  0  0
  -21.0844   -8.8773   19.8950 H   0  0  0  0  0  0
  -22.3715  -10.9666   19.6169 H   0  0  0  0  0  0
  -21.2015   -7.6151   23.9723 H   0  0  0  0  0  0
  -21.1472   -6.0526   25.9083 H   0  0  0  0  0  0
  -22.0604   -2.7618   23.2844 H   0  0  0  0  0  0
  -22.4096  -11.9875   22.4771 H   0  0  0  0  0  0
  -21.1114  -13.1275   22.2656 H   0  0  0  0  0  0
  -24.6544  -15.8385   20.4806 H   0  0  0  0  0  0
  -26.2568  -15.5989   19.9970 H   0  0  0  0  0  0
  -26.7137  -32.5443   23.1083 H   0  0  0  0  0  0
  -25.0052  -33.9722   25.0404 H   0  0  0  0  0  0
  -22.7101  -31.2973   21.3966 H   0  0  0  0  0  0
  -23.3753  -35.9641   23.3296 H   0  0  0  0  0  0
  -24.3587  -36.8923   22.2058 H   0  0  0  0  0  0
  -23.7276  -37.6504   23.6664 H   0  0  0  0  0  0
  -26.0836  -31.5578   20.6028 H   0  0  0  0  0  0
  -26.8354  -30.8414   21.9986 H   0  0  0  0  0  0
  -28.1095  -28.9995   21.1797 H   0  0  0  0  0  0
  -25.9855  -25.9081   19.0362 H   0  0  0  0  0  0
  -23.9746  -27.2771   19.0391 H   0  0  0  0  0  0
  -23.7473  -30.5789   19.4007 H   0  0  0  0  0  0
  -22.7529  -29.2312   19.8611 H   0  0  0  0  0  0
  -25.1309  -36.1916   25.0816 H   0  0  0  0  0  0
  -20.9964  -28.3264   24.1422 H   0  0  0  0  0  0
  -20.5682  -26.2295   23.3637 H   0  0  0  0  0  0
  -21.6657  -26.7433   22.1250 H   0  0  0  0  0  0
  -19.6953  -25.6284   21.1263 H   0  0  0  0  0  0
  -19.6703  -27.3186   20.6772 H   0  0  0  0  0  0
  -17.4216  -26.6612   21.4044 H   0  0  0  0  0  0
  -18.0361  -26.0036   22.9046 H   0  0  0  0  0  0
  -19.7904  -30.7280   24.2276 H   0  0  0  0  0  0
  -17.4958  -31.6252   24.5138 H   0  0  0  0  0  0
  -15.5316  -30.2943   23.7635 H   0  0  0  0  0  0
  -15.8663  -28.0792   22.7031 H   0  0  0  0  0  0
  -24.5894  -30.7072   25.7783 H   0  0  0  0  0  0
  -24.8955  -32.2873   26.4901 H   0  0  0  0  0  0
  -25.8080  -30.8866   27.0204 H   0  0  0  0  0  0
  -26.2885  -29.6742   24.1221 H   0  0  0  0  0  0
  -27.4093  -29.7275   25.4622 H   0  0  0  0  0  0
  -27.8718  -30.4298   23.9304 H   0  0  0  0  0  0
  -27.2618  -33.3601   26.2076 H   0  0  0  0  0  0
  -28.3825  -32.6932   25.0297 H   0  0  0  0  0  0
  -28.0727  -31.8453   26.5376 H   0  0  0  0  0  0
  -28.2598  -38.0102   24.7497 H   0  0  0  0  0  0
  -28.1081  -36.2631   24.6301 H   0  0  0  0  0  0
  -27.2295  -37.1463   25.8866 H   0  0  0  0  0  0
  -20.9333  -29.8730   21.6900 H   0  0  0  0  0  0
  -26.0174  -38.2839   24.1394 H   0  0  0  0  0  0
  -27.6715  -16.9050   20.6177 H   0  0  0  0  0  0
  -27.0541  -19.2499   20.3373 H   0  0  0  0  0  0
  -31.1446  -20.4122   20.8785 H   0  0  0  0  0  0
  -26.0895  -22.4807   21.6065 H   0  0  0  0  0  0
  -26.6583  -22.8347   23.2258 H   0  0  0  0  0  0
  -27.4330  -20.6141   22.3708 H   0  0  0  0  0  0
  -28.7527  -21.6465   22.8479 H   0  0  0  0  0  0
  -32.3118  -17.3545   22.1383 H   0  0  0  0  0  0
  -32.7919  -18.8751   21.4048 H   0  0  0  0  0  0
  -32.6787  -17.4270   20.4091 H   0  0  0  0  0  0
  -28.8948  -22.7113   17.8624 H   0  0  0  0  0  0
  -30.4372  -23.0421   18.6575 H   0  0  0  0  0  0
  -29.8522  -21.3960   18.5162 H   0  0  0  0  0  0
  -27.9179  -25.1253   18.6305 H   0  0  0  0  0  0
  -29.5397  -25.1799   19.1713 H   0  0  0  0  0  0
  -29.2965  -16.4186   23.0446 H   0  0  0  0  0  0
  1 25  1  0  0  0
  1 30  2  0  0  0
  1 80  1  0  0  0
  2  3  1  0  0  0
  2 25  1  0  0  0
  2 89  1  0  0  0
  2 90  1  0  0  0
  3  4  1  0  0  0
  3 91  1  0  0  0
  3 92  1  0  0  0
  4  5  1  0  0  0
  4 93  1  0  0  0
  4 94  1  0  0  0
  5  6  1  0  0  0
  5 26  1  0  0  0
  5 95  1  0  0  0
  6 25  1  0  0  0
  6 96  1  0  0  0
  6 97  1  0  0  0
  7  8  2  0  0  0
  7 26  1  0  0  0
  7 29  1  0  0  0
  8  9  1  0  0  0
  8 22  1  0  0  0
  9 10  1  0  0  0
  9 27  2  0  0  0
 10 11  2  0  0  0
 10 15  1  0  0  0
 11 12  1  0  0  0
 11 98  1  0  0  0
 12 13  2  0  0  0
 12 99  1  0  0  0
 13 14  1  0  0  0
 13 31  1  0  0  0
 14 15  2  0  0  0
 14100  1  0  0  0
 15101  1  0  0  0
 16 17  2  0  0  0
 16 21  1  0  0  0
 16 31  1  0  0  0
 17 18  1  0  0  0
 17102  1  0  0  0
 18 19  2  0  0  0
 18103  1  0  0  0
 19 20  1  0  0  0
 19 24  1  0  0  0
 20 21  2  0  0  0
 20104  1  0  0  0
 21 23  1  0  0  0
 22 28  1  0  0  0
 22 32  2  0  0  0
 26 27  1  0  0  0
 28105  1  0  0  0
 28106  1  0  0  0
 29107  1  0  0  0
 29108  1  0  0  0
 33 34  1  0  0  0
 33 66  1  0  0  0
 33 70  2  0  0  0
 34 36  1  0  0  0
 34 59  1  0  0  0
 34109  1  0  0  0
 35 44  2  0  0  0
 35 45  1  0  0  0
 35 68  1  0  0  0
 36 56  1  0  0  0
 36110  1  0  0  0
 37 39  1  0  0  0
 37 47  1  0  0  0
 37 66  1  0  0  0
 37111  1  0  0  0
 38 43  2  0  0  0
 38 46  1  0  0  0
 38 47  1  0  0  0
 39 64  1  0  0  0
 39 67  2  0  0  0
 40 52  1  0  0  0
 40 53  2  0  0  0
 40 58  1  0  0  0
 41112  1  0  0  0
 41113  1  0  0  0
 41114  1  0  0  0
 41 48  1  0  0  0
 42 43  1  0  0  0
 42 66  1  0  0  0
 42115  1  0  0  0
 42116  1  0  0  0
 43 44  1  0  0  0
 44117  1  0  0  0
 45 46  2  0  0  0
 45118  1  0  0  0
 46119  1  0  0  0
 47120  1  0  0  0
 47121  1  0  0  0
 48 56  1  0  0  0
 48 65  1  0  0  0
 48122  1  0  0  0
 49 50  1  0  0  0
 49 53  1  0  0  0
 49 64  1  0  0  0
 49123  1  0  0  0
 50 51  1  0  0  0
 50124  1  0  0  0
 50125  1  0  0  0
 51 52  1  0  0  0
 51126  1  0  0  0
 51127  1  0  0  0
 52128  1  0  0  0
 52129  1  0  0  0
 53 54  1  0  0  0
 54 55  2  0  0  0
 54130  1  0  0  0
 55 57  1  0  0  0
 55131  1  0  0  0
 56 69  2  0  0  0
 57 58  2  0  0  0
 57132  1  0  0  0
 58133  1  0  0  0
 59 60  1  0  0  0
 59 61  1  0  0  0
 59 62  1  0  0  0
 60134  1  0  0  0
 60135  1  0  0  0
 60136  1  0  0  0
 61137  1  0  0  0
 61138  1  0  0  0
 61139  1  0  0  0
 62140  1  0  0  0
 62141  1  0  0  0
 62142  1  0  0  0
 63 65  1  0  0  0
 63143  1  0  0  0
 63144  1  0  0  0
 63145  1  0  0  0
 64146  1  0  0  0
 65147  1  0  0  0
 68 85  1  0  0  0
 71 72  2  0  0  0
 71 74  1  0  0  0
 71148  1  0  0  0
 72 76  1  0  0  0
 72149  1  0  0  0
 73 75  1  0  0  0
 73 76  2  0  0  0
 73150  1  0  0  0
 74 75  2  0  0  0
 74 80  1  0  0  0
 75 83  1  0  0  0
 76 87  1  0  0  0
 77 78  2  0  0  0
 77 79  1  0  0  0
 77 85  1  0  0  0
 78 84  1  0  0  0
 78 87  1  0  0  0
 79 81  1  0  0  0
 79 88  2  0  0  0
 80 86  2  0  0  0
 81 82  1  0  0  0
 81151  1  0  0  0
 81152  1  0  0  0
 82 87  1  0  0  0
 82153  1  0  0  0
 82154  1  0  0  0
 83155  1  0  0  0
 83156  1  0  0  0
 83157  1  0  0  0
 84158  1  0  0  0
 84159  1  0  0  0
 84160  1  0  0  0
 85161  1  0  0  0
 85162  1  0  0  0
 86163  1  0  0  0
M  ISO  4   1 100  68 101  80 100  85 101
M  END
> <chiral flag>
0

> <version>
0

> <s_m_source_file>
/data/baiqing/PycharmProjects/Reinvent-master-3.2/result/LINK_invent/BTK/process_docking_weight1_custom_product_contain_oxygen_bond_distance_aromatic_linkinvent_7_9_3/rearranged_h_0108.sdf

> <i_m_source_file_index>
7

> <r_mmod_Potential_Energy-OPLS-2005>
294.240386962891

> <r_mmod_Stretch_Energy-OPLS-2005>
94.8882751464844

> <r_mmod_Bend_Energy-OPLS-2005>
162.972366333008

> <r_mmod_Torsional_Energy-OPLS-2005>
233.858535766602

> <r_mmod_Improper_Torsional_Energy-OPLS-2005>
6.7254319190979

> <r_mmod_Van_der_Waal_Energy-OPLS-2005>
156.509384155273

> <r_mmod_Electrostatic_Energy-OPLS-2005>
-190.524703979492

> <r_mmod_Solvation_Energy-OPLS-2005>
-212.1767578125

> <b_mmod_Minimization_Converged-OPLS-2005>
0

> <r_mmod_RMS_Derivative-OPLS-2005>
2.60388731956482

$$$$
8
                    3D
 Structure written by MMmdl.
162171  0  0  1  0            999 V2000
  -30.5484  -14.9501   20.3614 C   0  0  0  0  0  0
  -30.4513  -12.5740   19.4852 C   0  0  0  0  0  0
  -29.5260  -12.4462   18.2531 C   0  0  0  0  0  0
  -28.0463  -12.2973   18.6710 C   0  0  0  0  0  0
  -27.6254  -13.2349   19.8371 C   0  0  2  0  0  0
  -28.6836  -13.2800   20.9555 C   0  0  0  0  0  0
  -25.2475  -13.8166   20.5755 C   0  0  0  0  0  0
  -24.1765  -13.0415   20.9234 C   0  0  0  0  0  0
  -24.6370  -11.6897   20.8787 C   0  0  0  0  0  0
  -23.9054  -10.4277   21.0427 C   0  0  0  0  0  0
  -24.3610   -9.4193   21.9200 C   0  0  0  0  0  0
  -23.6287   -8.2228   22.0759 C   0  0  0  0  0  0
  -22.4270   -8.0269   21.3547 C   0  0  0  0  0  0
  -21.9907   -9.0242   20.4647 C   0  0  0  0  0  0
  -22.7232  -10.2124   20.3067 C   0  0  0  0  0  0
  -21.6847   -6.0730   22.5278 C   0  0  0  0  0  0
  -21.4008   -6.5634   23.8211 C   0  0  0  0  0  0
  -21.3663   -5.6788   24.9173 C   0  0  0  0  0  0
  -21.6051   -4.3052   24.7223 C   0  0  0  0  0  0
  -21.8818   -3.8142   23.4342 C   0  0  0  0  0  0
  -21.9191   -4.6959   22.3400 C   0  0  0  0  0  0
  -22.7790  -13.5208   21.1871 C   0  0  0  0  0  0
  -22.1662   -4.2148   21.0977 F   0  0  0  0  0  0
  -21.5638   -3.4537   25.7736 F   0  0  0  0  0  0
  -29.9439  -13.6931   20.3234 N   0  0  0  0  0  0
  -26.2891  -12.9363   20.3344 N   0  0  0  0  0  0
  -25.9308  -11.6512   20.5831 N   0  0  0  0  0  0
  -22.0429  -12.8208   22.0428 N   0  0  0  0  0  0
  -25.4162  -15.1885   20.4176 N   0  0  0  0  0  0
  -31.7818  -14.9767   20.2752 O   0  0  0  0  0  0
  -21.6634   -6.8868   21.4239 O   0  0  0  0  0  0
  -22.3478  -14.5509   20.6704 O   0  0  0  0  0  0
  -24.6411  -31.8468   23.1895 C   0  0  0  0  0  0
  -25.9192  -32.4712   23.8278 C   0  0  1  0  0  0
  -27.2189  -27.1604   20.1509 C   0  0  0  0  0  0
  -25.5948  -33.8517   24.2200 N   0  0  0  0  0  0
  -23.4430  -30.4661   21.5362 C   0  0  2  0  0  0
  -24.8919  -28.8961   20.1132 C   0  0  0  0  0  0
  -22.7554  -29.4558   22.4883 C   0  0  0  0  0  0
  -18.0301  -28.1395   22.8478 C   0  0  0  0  0  0
  -24.1490  -36.7264   23.2640 C   0  0  0  0  0  0
  -25.9966  -30.7303   21.3817 C   0  0  0  0  0  0
  -26.0692  -29.3424   20.7264 C   0  0  0  0  0  0
  -27.2354  -28.4916   20.7254 C   0  0  0  0  0  0
  -26.0143  -26.8093   19.5016 C   0  0  0  0  0  0
  -24.8761  -27.6423   19.4855 C   0  0  0  0  0  0
  -23.6671  -29.7952   20.1556 C   0  0  0  0  0  0
  -25.4123  -36.3045   24.0315 C   0  0  1  0  0  0
  -20.5912  -28.3716   23.1251 C   0  0  2  0  0  0
  -20.6787  -26.9424   22.5410 C   0  0  0  0  0  0
  -19.5759  -26.6382   21.5219 C   0  0  0  0  0  0
  -18.1941  -26.7933   22.1628 C   0  0  0  0  0  0
  -19.1557  -28.8874   23.2855 C   0  0  0  0  0  0
  -18.9474  -30.1473   23.8876 C   0  0  0  0  0  0
  -17.6469  -30.6591   24.0561 C   0  0  0  0  0  0
  -25.9075  -34.9420   23.5068 C   0  0  0  0  0  0
  -16.5361  -29.9086   23.6333 C   0  0  0  0  0  0
  -16.7286  -28.6506   23.0351 C   0  0  0  0  0  0
  -26.4517  -31.6562   25.0703 C   0  0  0  0  0  0
  -25.3707  -31.3738   26.1399 C   0  0  0  0  0  0
  -27.0362  -30.2961   24.6245 C   0  0  0  0  0  0
  -27.6054  -32.4310   25.7494 C   0  0  0  0  0  0
  -27.5578  -37.1791   24.8466 C   0  0  0  0  0  0
  -21.4249  -29.3044   22.3627 N   0  0  0  0  0  0
  -26.4290  -37.3757   23.9409 N   0  0  0  0  0  0
  -24.7134  -31.0347   22.0917 N   0  0  0  0  0  0
  -23.4208  -28.8106   23.3025 O   0  0  0  0  0  0
  -28.2889  -26.2008   20.1963 O   0  0  0  0  0  0
  -26.5661  -34.8914   22.4648 O   0  0  0  0  0  0
  -23.5536  -32.1330   23.7133 O   0  0  0  0  0  0
  -30.1110  -20.0647   19.7945 C   0  0  0  0  0  0
  -30.3709  -18.6416   19.6280 C   0  0  0  0  0  0
  -28.5488  -19.5254   21.4673 C   0  0  0  0  0  0
  -28.8085  -18.0980   21.3250 C   0  0  0  0  0  0
  -29.1768  -20.6014   20.7373 C   0  0  0  0  0  0
  -29.7441  -17.5700   20.3703 C   0  0  0  0  0  0
  -29.1632  -22.4175   22.3735 C   0  0  0  0  0  0
  -26.8611  -17.3797   22.7542 C   0  0  0  0  0  0
  -28.0269  -17.1399   22.1292 C   0  0  0  0  0  0
  -29.9478  -23.7120   22.5306 C   0  0  0  0  0  0
  -30.3421  -24.0302   21.0958 C   0  0  0  0  0  0
  -29.1684  -23.4468   20.3110 C   0  0  2  0  0  0
  -29.5934  -16.0314   18.4725 C   0  0  0  0  0  0
  -28.0200  -24.6763   20.3169 C   0  0  0  0  0  0
  -28.9412  -22.0892   21.0771 N   0  0  0  0  0  0
  -29.8082  -16.0978   19.9295 N   0  0  0  0  0  0
  -28.8077  -21.7791   23.3687 O   0  0  0  0  0  0
  -31.4776  -12.7476   19.1572 H   0  0  0  0  0  0
  -30.4719  -11.6446   20.0564 H   0  0  0  0  0  0
  -29.8246  -11.5813   17.6597 H   0  0  0  0  0  0
  -29.6565  -13.2990   17.5912 H   0  0  0  0  0  0
  -27.9104  -11.2602   18.9789 H   0  0  0  0  0  0
  -27.3926  -12.4436   17.8108 H   0  0  0  0  0  0
  -27.5594  -14.2333   19.4162 H   0  0  0  0  0  0
  -28.7830  -12.3092   21.4430 H   0  0  0  0  0  0
  -28.3927  -13.9873   21.7312 H   0  0  0  0  0  0
  -25.2751   -9.5676   22.4780 H   0  0  0  0  0  0
  -24.0001   -7.4618   22.7476 H   0  0  0  0  0  0
  -21.0841   -8.8754   19.8946 H   0  0  0  0  0  0
  -22.3689  -10.9667   19.6179 H   0  0  0  0  0  0
  -21.1994   -7.6141   23.9715 H   0  0  0  0  0  0
  -21.1493   -6.0517   25.9079 H   0  0  0  0  0  0
  -22.0596   -2.7604   23.2842 H   0  0  0  0  0  0
  -22.4035  -11.9871   22.4827 H   0  0  0  0  0  0
  -21.1047  -13.1241   22.2623 H   0  0  0  0  0  0
  -24.6619  -15.8479   20.5690 H   0  0  0  0  0  0
  -26.2934  -15.6389   20.1886 H   0  0  0  0  0  0
  -26.7258  -32.5329   23.1011 H   0  0  0  0  0  0
  -25.0060  -33.9634   25.0322 H   0  0  0  0  0  0
  -22.7440  -31.2910   21.3838 H   0  0  0  0  0  0
  -23.3758  -35.9589   23.3292 H   0  0  0  0  0  0
  -24.3575  -36.8905   22.2057 H   0  0  0  0  0  0
  -23.7237  -37.6455   23.6682 H   0  0  0  0  0  0
  -26.1431  -31.4839   20.6066 H   0  0  0  0  0  0
  -26.8706  -30.7855   22.0188 H   0  0  0  0  0  0
  -28.1356  -28.8322   21.2176 H   0  0  0  0  0  0
  -25.9190  -25.8579   19.0026 H   0  0  0  0  0  0
  -23.9776  -27.2967   18.9928 H   0  0  0  0  0  0
  -23.8003  -30.5692   19.3990 H   0  0  0  0  0  0
  -22.7822  -29.2352   19.8477 H   0  0  0  0  0  0
  -25.1310  -36.1878   25.0807 H   0  0  0  0  0  0
  -21.0000  -28.3302   24.1374 H   0  0  0  0  0  0
  -20.5691  -26.2327   23.3625 H   0  0  0  0  0  0
  -21.6653  -26.7438   22.1203 H   0  0  0  0  0  0
  -19.6923  -25.6288   21.1262 H   0  0  0  0  0  0
  -19.6699  -27.3181   20.6741 H   0  0  0  0  0  0
  -17.4211  -26.6677   21.4030 H   0  0  0  0  0  0
  -18.0338  -26.0083   22.9033 H   0  0  0  0  0  0
  -19.7949  -30.7298   24.2234 H   0  0  0  0  0  0
  -17.5022  -31.6269   24.5166 H   0  0  0  0  0  0
  -15.5361  -30.2982   23.7668 H   0  0  0  0  0  0
  -15.8687  -28.0823   22.7070 H   0  0  0  0  0  0
  -24.5903  -30.7071   25.7717 H   0  0  0  0  0  0
  -24.8876  -32.2913   26.4771 H   0  0  0  0  0  0
  -25.7997  -30.8949   27.0210 H   0  0  0  0  0  0
  -26.2957  -29.6705   24.1249 H   0  0  0  0  0  0
  -27.3981  -29.7239   25.4798 H   0  0  0  0  0  0
  -27.8867  -30.4199   23.9538 H   0  0  0  0  0  0
  -27.2659  -33.3629   26.2025 H   0  0  0  0  0  0
  -28.3898  -32.6834   25.0347 H   0  0  0  0  0  0
  -28.0680  -31.8457   26.5450 H   0  0  0  0  0  0
  -28.2589  -38.0093   24.7514 H   0  0  0  0  0  0
  -28.1081  -36.2624   24.6293 H   0  0  0  0  0  0
  -27.2295  -37.1437   25.8868 H   0  0  0  0  0  0
  -20.9459  -29.8755   21.6805 H   0  0  0  0  0  0
  -26.0158  -38.2826   24.1412 H   0  0  0  0  0  0
  -30.6691  -20.7572   19.1794 H   0  0  0  0  0  0
  -31.0702  -18.3654   18.8518 H   0  0  0  0  0  0
  -27.8245  -19.8190   22.2103 H   0  0  0  0  0  0
  -26.3817  -16.6030   23.3331 H   0  0  0  0  0  0
  -26.3551  -18.3320   22.7050 H   0  0  0  0  0  0
  -28.4535  -16.1561   22.2426 H   0  0  0  0  0  0
  -30.8160  -23.5824   23.1765 H   0  0  0  0  0  0
  -29.3045  -24.4823   22.9574 H   0  0  0  0  0  0
  -31.2695  -23.5179   20.8335 H   0  0  0  0  0  0
  -30.4971  -25.0959   20.9252 H   0  0  0  0  0  0
  -29.4778  -23.2460   19.2854 H   0  0  0  0  0  0
  -29.1109  -16.9273   18.0800 H   0  0  0  0  0  0
  -28.9363  -15.2213   18.1801 H   0  0  0  0  0  0
  -30.5352  -15.9114   17.9336 H   0  0  0  0  0  0
  -27.4502  -24.5754   21.2411 H   0  0  0  0  0  0
  -27.3180  -24.3922   19.5363 H   0  0  0  0  0  0
  1 25  1  0  0  0
  1 30  2  0  0  0
  1 86  1  0  0  0
  2  3  1  0  0  0
  2 25  1  0  0  0
  2 88  1  0  0  0
  2 89  1  0  0  0
  3  4  1  0  0  0
  3 90  1  0  0  0
  3 91  1  0  0  0
  4  5  1  0  0  0
  4 92  1  0  0  0
  4 93  1  0  0  0
  5  6  1  0  0  0
  5 26  1  0  0  0
  5 94  1  0  0  0
  6 25  1  0  0  0
  6 95  1  0  0  0
  6 96  1  0  0  0
  7  8  2  0  0  0
  7 26  1  0  0  0
  7 29  1  0  0  0
  8  9  1  0  0  0
  8 22  1  0  0  0
  9 10  1  0  0  0
  9 27  2  0  0  0
 10 11  2  0  0  0
 10 15  1  0  0  0
 11 12  1  0  0  0
 11 97  1  0  0  0
 12 13  2  0  0  0
 12 98  1  0  0  0
 13 14  1  0  0  0
 13 31  1  0  0  0
 14 15  2  0  0  0
 14 99  1  0  0  0
 15100  1  0  0  0
 16 17  2  0  0  0
 16 21  1  0  0  0
 16 31  1  0  0  0
 17 18  1  0  0  0
 17101  1  0  0  0
 18 19  2  0  0  0
 18102  1  0  0  0
 19 20  1  0  0  0
 19 24  1  0  0  0
 20 21  2  0  0  0
 20103  1  0  0  0
 21 23  1  0  0  0
 22 28  1  0  0  0
 22 32  2  0  0  0
 26 27  1  0  0  0
 28104  1  0  0  0
 28105  1  0  0  0
 29106  1  0  0  0
 29107  1  0  0  0
 33 34  1  0  0  0
 33 66  1  0  0  0
 33 70  2  0  0  0
 34 36  1  0  0  0
 34 59  1  0  0  0
 34108  1  0  0  0
 35 44  2  0  0  0
 35 45  1  0  0  0
 35 68  1  0  0  0
 36 56  1  0  0  0
 36109  1  0  0  0
 37 39  1  0  0  0
 37 47  1  0  0  0
 37 66  1  0  0  0
 37110  1  0  0  0
 38 43  2  0  0  0
 38 46  1  0  0  0
 38 47  1  0  0  0
 39 64  1  0  0  0
 39 67  2  0  0  0
 40 52  1  0  0  0
 40 53  2  0  0  0
 40 58  1  0  0  0
 41111  1  0  0  0
 41112  1  0  0  0
 41113  1  0  0  0
 41 48  1  0  0  0
 42 43  1  0  0  0
 42 66  1  0  0  0
 42114  1  0  0  0
 42115  1  0  0  0
 43 44  1  0  0  0
 44116  1  0  0  0
 45 46  2  0  0  0
 45117  1  0  0  0
 46118  1  0  0  0
 47119  1  0  0  0
 47120  1  0  0  0
 48 56  1  0  0  0
 48 65  1  0  0  0
 48121  1  0  0  0
 49 50  1  0  0  0
 49 53  1  0  0  0
 49 64  1  0  0  0
 49122  1  0  0  0
 50 51  1  0  0  0
 50123  1  0  0  0
 50124  1  0  0  0
 51 52  1  0  0  0
 51125  1  0  0  0
 51126  1  0  0  0
 52127  1  0  0  0
 52128  1  0  0  0
 53 54  1  0  0  0
 54 55  2  0  0  0
 54129  1  0  0  0
 55 57  1  0  0  0
 55130  1  0  0  0
 56 69  2  0  0  0
 57 58  2  0  0  0
 57131  1  0  0  0
 58132  1  0  0  0
 59 60  1  0  0  0
 59 61  1  0  0  0
 59 62  1  0  0  0
 60133  1  0  0  0
 60134  1  0  0  0
 60135  1  0  0  0
 61136  1  0  0  0
 61137  1  0  0  0
 61138  1  0  0  0
 62139  1  0  0  0
 62140  1  0  0  0
 62141  1  0  0  0
 63 65  1  0  0  0
 63142  1  0  0  0
 63143  1  0  0  0
 63144  1  0  0  0
 64145  1  0  0  0
 65146  1  0  0  0
 68 84  1  0  0  0
 71 72  2  0  0  0
 71 75  1  0  0  0
 71147  1  0  0  0
 72 76  1  0  0  0
 72148  1  0  0  0
 73 74  1  0  0  0
 73 75  2  0  0  0
 73149  1  0  0  0
 74 76  2  0  0  0
 74 79  1  0  0  0
 75 85  1  0  0  0
 76 86  1  0  0  0
 77 80  1  0  0  0
 77 85  1  0  0  0
 77 87  2  0  0  0
 78 79  2  0  0  0
 78150  1  0  0  0
 78151  1  0  0  0
 79152  1  0  0  0
 80 81  1  0  0  0
 80153  1  0  0  0
 80154  1  0  0  0
 81 82  1  0  0  0
 81155  1  0  0  0
 81156  1  0  0  0
 82 84  1  0  0  0
 82 85  1  0  0  0
 82157  1  0  0  0
 83 86  1  0  0  0
 83158  1  0  0  0
 83159  1  0  0  0
 83160  1  0  0  0
 84161  1  0  0  0
 84162  1  0  0  0
M  ISO  4   1 100  68 101  84 101  86 100
M  END
> <chiral flag>
0

> <version>
0

> <s_m_source_file>
/data/baiqing/PycharmProjects/Reinvent-master-3.2/result/LINK_invent/BTK/process_docking_weight1_custom_product_contain_oxygen_bond_distance_aromatic_linkinvent_7_9_3/rearranged_h_0108.sdf

> <i_m_source_file_index>
8

> <r_mmod_Potential_Energy-OPLS-2005>
809.284851074219

> <r_mmod_Stretch_Energy-OPLS-2005>
238.545532226562

> <r_mmod_Bend_Energy-OPLS-2005>
301.377258300781

> <r_mmod_Torsional_Energy-OPLS-2005>
415.662902832031

> <r_mmod_Improper_Torsional_Energy-OPLS-2005>
26.9226856231689

> <r_mmod_Van_der_Waal_Energy-OPLS-2005>
142.222305297852

> <r_mmod_Electrostatic_Energy-OPLS-2005>
-298.947967529297

> <r_mmod_Solvation_Energy-OPLS-2005>
-203.350494384766

> <b_mmod_Minimization_Converged-OPLS-2005>
0

> <r_mmod_RMS_Derivative-OPLS-2005>
0.676724314689636

$$$$
9
                    3D
 Structure written by MMmdl.
156164  0  0  1  0            999 V2000
  -30.7141  -14.5416   20.4890 C   0  0  0  0  0  0
  -30.4100  -12.3261   19.4574 C   0  0  0  0  0  0
  -29.5012  -12.4866   18.2231 C   0  0  0  0  0  0
  -28.0183  -12.3631   18.6243 C   0  0  0  0  0  0
  -27.6519  -13.2278   19.8624 C   0  0  2  0  0  0
  -28.6958  -13.0935   20.9952 C   0  0  0  0  0  0
  -25.2539  -13.8211   20.5692 C   0  0  0  0  0  0
  -24.1826  -13.0456   20.9211 C   0  0  0  0  0  0
  -24.6409  -11.6935   20.8754 C   0  0  0  0  0  0
  -23.9088  -10.4313   21.0411 C   0  0  0  0  0  0
  -24.3630   -9.4225   21.9183 C   0  0  0  0  0  0
  -23.6304   -8.2257   22.0753 C   0  0  0  0  0  0
  -22.4287   -8.0282   21.3542 C   0  0  0  0  0  0
  -21.9925   -9.0266   20.4655 C   0  0  0  0  0  0
  -22.7259  -10.2149   20.3067 C   0  0  0  0  0  0
  -21.6855   -6.0743   22.5281 C   0  0  0  0  0  0
  -21.4024   -6.5647   23.8217 C   0  0  0  0  0  0
  -21.3657   -5.6797   24.9169 C   0  0  0  0  0  0
  -21.6046   -4.3059   24.7217 C   0  0  0  0  0  0
  -21.8819   -3.8152   23.4335 C   0  0  0  0  0  0
  -21.9202   -4.6973   22.3396 C   0  0  0  0  0  0
  -22.7845  -13.5240   21.1840 C   0  0  0  0  0  0
  -22.1665   -4.2171   21.0966 F   0  0  0  0  0  0
  -21.5626   -3.4526   25.7719 F   0  0  0  0  0  0
  -30.0193  -13.3694   20.4241 N   0  0  0  0  0  0
  -26.2989  -12.9423   20.3335 N   0  0  0  0  0  0
  -25.9348  -11.6556   20.5774 N   0  0  0  0  0  0
  -22.0481  -12.8253   22.0409 N   0  0  0  0  0  0
  -25.4202  -15.1928   20.4080 N   0  0  0  0  0  0
  -31.8884  -14.6086   20.1232 O   0  0  0  0  0  0
  -21.6639   -6.8884   21.4243 O   0  0  0  0  0  0
  -22.3533  -14.5523   20.6650 O   0  0  0  0  0  0
  -24.6202  -31.8653   23.2100 C   0  0  0  0  0  0
  -25.9076  -32.4809   23.8400 C   0  0  1  0  0  0
  -27.2187  -27.3709   20.1111 C   0  0  0  0  0  0
  -25.5920  -33.8613   24.2323 N   0  0  0  0  0  0
  -23.4117  -30.4938   21.5473 C   0  0  2  0  0  0
  -24.8575  -28.9641   20.1076 C   0  0  0  0  0  0
  -22.7445  -29.4653   22.4913 C   0  0  0  0  0  0
  -18.0281  -28.1390   22.8469 C   0  0  0  0  0  0
  -24.1489  -36.7309   23.2641 C   0  0  0  0  0  0
  -25.9482  -30.8140   21.3747 C   0  0  0  0  0  0
  -26.0220  -29.4453   20.7184 C   0  0  0  0  0  0
  -27.2036  -28.6561   20.7192 C   0  0  0  0  0  0
  -26.0378  -26.9445   19.4561 C   0  0  0  0  0  0
  -24.8651  -27.7168   19.4692 C   0  0  0  0  0  0
  -23.6261  -29.8394   20.1579 C   0  0  0  0  0  0
  -25.4112  -36.3099   24.0326 C   0  0  1  0  0  0
  -20.5885  -28.3687   23.1282 C   0  0  2  0  0  0
  -20.6775  -26.9414   22.5408 C   0  0  0  0  0  0
  -19.5753  -26.6389   21.5205 C   0  0  0  0  0  0
  -18.1931  -26.7927   22.1618 C   0  0  0  0  0  0
  -19.1536  -28.8847   23.2877 C   0  0  0  0  0  0
  -18.9464  -30.1448   23.8898 C   0  0  0  0  0  0
  -17.6468  -30.6590   24.0568 C   0  0  0  0  0  0
  -25.9034  -34.9463   23.5106 C   0  0  0  0  0  0
  -16.5359  -29.9093   23.6336 C   0  0  0  0  0  0
  -16.7271  -28.6519   23.0336 C   0  0  0  0  0  0
  -26.4502  -31.6602   25.0734 C   0  0  0  0  0  0
  -25.3787  -31.3719   26.1499 C   0  0  0  0  0  0
  -27.0344  -30.3040   24.6143 C   0  0  0  0  0  0
  -27.6065  -32.4342   25.7507 C   0  0  0  0  0  0
  -27.5571  -37.1816   24.8465 C   0  0  0  0  0  0
  -21.4157  -29.3050   22.3672 N   0  0  0  0  0  0
  -26.4289  -37.3788   23.9402 N   0  0  0  0  0  0
  -24.6784  -31.0730   22.1015 N   0  0  0  0  0  0
  -23.4198  -28.8164   23.2952 O   0  0  0  0  0  0
  -28.3469  -26.5531   20.1885 O   0  0  0  0  0  0
  -26.5592  -34.8915   22.4664 O   0  0  0  0  0  0
  -23.5378  -32.1409   23.7475 O   0  0  0  0  0  0
  -28.5984  -18.5931   20.9182 C   0  0  0  0  0  0
  -28.1593  -19.8842   21.3116 C   0  0  0  0  0  0
  -30.8614  -19.4324   20.8403 C   0  0  0  0  0  0
  -29.9671  -18.3429   20.6870 C   0  0  0  0  0  0
  -30.4327  -20.7227   21.2509 C   0  0  0  0  0  0
  -29.0529  -20.9720   21.4886 C   0  0  0  0  0  0
  -28.5931  -23.3833   21.7371 C   0  0  0  0  0  0
  -31.4915  -21.7918   21.4749 C   0  0  0  0  0  0
  -30.5088  -16.9893   20.1640 C   0  0  0  0  0  0
  -29.1683  -24.0943   20.5009 C   0  0  0  0  0  0
  -28.1828  -25.1353   19.8681 C   0  0  0  0  0  0
  -28.5356  -22.1431   22.0951 N   0  0  0  0  0  0
  -30.0128  -15.6869   20.6949 N   0  0  0  0  0  0
  -31.4594  -12.3893   19.1637 H   0  0  0  0  0  0
  -30.2864  -11.3377   19.9011 H   0  0  0  0  0  0
  -29.7472  -11.7351   17.4718 H   0  0  0  0  0  0
  -29.6809  -13.4571   17.7571 H   0  0  0  0  0  0
  -27.8196  -11.3109   18.8286 H   0  0  0  0  0  0
  -27.3805  -12.6339   17.7820 H   0  0  0  0  0  0
  -27.6688  -14.2637   19.5233 H   0  0  0  0  0  0
  -28.6767  -12.0895   21.4212 H   0  0  0  0  0  0
  -28.4678  -13.7781   21.8143 H   0  0  0  0  0  0
  -25.2780   -9.5698   22.4743 H   0  0  0  0  0  0
  -24.0026   -7.4652   22.7467 H   0  0  0  0  0  0
  -21.0857   -8.8798   19.8962 H   0  0  0  0  0  0
  -22.3717  -10.9688   19.6177 H   0  0  0  0  0  0
  -21.2016   -7.6160   23.9729 H   0  0  0  0  0  0
  -21.1480   -6.0514   25.9079 H   0  0  0  0  0  0
  -22.0599   -2.7614   23.2824 H   0  0  0  0  0  0
  -22.4077  -11.9953   22.4876 H   0  0  0  0  0  0
  -21.1086  -13.1287   22.2543 H   0  0  0  0  0  0
  -24.6471  -15.8406   20.5155 H   0  0  0  0  0  0
  -26.2587  -15.6363   20.0554 H   0  0  0  0  0  0
  -26.7134  -32.5518   23.1154 H   0  0  0  0  0  0
  -25.0127  -33.9787   25.0503 H   0  0  0  0  0  0
  -22.7030  -31.3134   21.4106 H   0  0  0  0  0  0
  -23.3734  -35.9660   23.3323 H   0  0  0  0  0  0
  -24.3583  -36.8906   22.2053 H   0  0  0  0  0  0
  -23.7261  -37.6525   23.6648 H   0  0  0  0  0  0
  -26.0716  -31.5807   20.6079 H   0  0  0  0  0  0
  -26.8331  -30.8630   21.9969 H   0  0  0  0  0  0
  -28.0949  -29.0187   21.2133 H   0  0  0  0  0  0
  -25.9857  -26.0069   18.9243 H   0  0  0  0  0  0
  -23.9755  -27.3491   18.9774 H   0  0  0  0  0  0
  -23.7500  -30.6232   19.4094 H   0  0  0  0  0  0
  -22.7482  -29.2716   19.8462 H   0  0  0  0  0  0
  -25.1291  -36.1954   25.0817 H   0  0  0  0  0  0
  -20.9984  -28.3256   24.1399 H   0  0  0  0  0  0
  -20.5690  -26.2281   23.3592 H   0  0  0  0  0  0
  -21.6638  -26.7449   22.1193 H   0  0  0  0  0  0
  -19.6917  -25.6299   21.1226 H   0  0  0  0  0  0
  -19.6701  -27.3205   20.6736 H   0  0  0  0  0  0
  -17.4200  -26.6661   21.4028 H   0  0  0  0  0  0
  -18.0346  -26.0076   22.9023 H   0  0  0  0  0  0
  -19.7950  -30.7260   24.2268 H   0  0  0  0  0  0
  -17.5039  -31.6275   24.5169 H   0  0  0  0  0  0
  -15.5370  -30.3014   23.7658 H   0  0  0  0  0  0
  -15.8662  -28.0867   22.7028 H   0  0  0  0  0  0
  -24.5936  -30.7078   25.7860 H   0  0  0  0  0  0
  -24.9023  -32.2885   26.4992 H   0  0  0  0  0  0
  -25.8173  -30.8871   27.0230 H   0  0  0  0  0  0
  -26.2892  -29.6793   24.1200 H   0  0  0  0  0  0
  -27.4099  -29.7287   25.4617 H   0  0  0  0  0  0
  -27.8736  -30.4344   23.9303 H   0  0  0  0  0  0
  -27.2648  -33.3617   26.2121 H   0  0  0  0  0  0
  -28.3865  -32.6955   25.0339 H   0  0  0  0  0  0
  -28.0742  -31.8452   26.5410 H   0  0  0  0  0  0
  -28.2601  -38.0104   24.7486 H   0  0  0  0  0  0
  -28.1048  -36.2629   24.6314 H   0  0  0  0  0  0
  -27.2282  -37.1486   25.8869 H   0  0  0  0  0  0
  -20.9298  -29.8808   21.6935 H   0  0  0  0  0  0
  -26.0163  -38.2851   24.1431 H   0  0  0  0  0  0
  -27.8760  -17.7994   20.7882 H   0  0  0  0  0  0
  -27.1067  -20.0245   21.5149 H   0  0  0  0  0  0
  -31.9136  -19.2732   20.6471 H   0  0  0  0  0  0
  -28.1413  -24.1156   22.4113 H   0  0  0  0  0  0
  -32.4860  -21.3533   21.5552 H   0  0  0  0  0  0
  -31.3111  -22.3455   22.3970 H   0  0  0  0  0  0
  -31.5080  -22.4940   20.6426 H   0  0  0  0  0  0
  -31.5947  -17.0284   20.2632 H   0  0  0  0  0  0
  -30.3219  -16.9799   19.0882 H   0  0  0  0  0  0
  -29.4122  -23.3362   19.7572 H   0  0  0  0  0  0
  -30.1068  -24.5791   20.7693 H   0  0  0  0  0  0
  -27.1823  -24.7818   20.1183 H   0  0  0  0  0  0
  -28.2645  -25.0571   18.7833 H   0  0  0  0  0  0
  -29.0432  -15.6137   20.9589 H   0  0  0  0  0  0
  1 25  1  0  0  0
  1 30  2  0  0  0
  1 83  1  0  0  0
  2  3  1  0  0  0
  2 25  1  0  0  0
  2 84  1  0  0  0
  2 85  1  0  0  0
  3  4  1  0  0  0
  3 86  1  0  0  0
  3 87  1  0  0  0
  4  5  1  0  0  0
  4 88  1  0  0  0
  4 89  1  0  0  0
  5  6  1  0  0  0
  5 26  1  0  0  0
  5 90  1  0  0  0
  6 25  1  0  0  0
  6 91  1  0  0  0
  6 92  1  0  0  0
  7  8  2  0  0  0
  7 26  1  0  0  0
  7 29  1  0  0  0
  8  9  1  0  0  0
  8 22  1  0  0  0
  9 10  1  0  0  0
  9 27  2  0  0  0
 10 11  2  0  0  0
 10 15  1  0  0  0
 11 12  1  0  0  0
 11 93  1  0  0  0
 12 13  2  0  0  0
 12 94  1  0  0  0
 13 14  1  0  0  0
 13 31  1  0  0  0
 14 15  2  0  0  0
 14 95  1  0  0  0
 15 96  1  0  0  0
 16 17  2  0  0  0
 16 21  1  0  0  0
 16 31  1  0  0  0
 17 18  1  0  0  0
 17 97  1  0  0  0
 18 19  2  0  0  0
 18 98  1  0  0  0
 19 20  1  0  0  0
 19 24  1  0  0  0
 20 21  2  0  0  0
 20 99  1  0  0  0
 21 23  1  0  0  0
 22 28  1  0  0  0
 22 32  2  0  0  0
 26 27  1  0  0  0
 28100  1  0  0  0
 28101  1  0  0  0
 29102  1  0  0  0
 29103  1  0  0  0
 33 34  1  0  0  0
 33 66  1  0  0  0
 33 70  2  0  0  0
 34 36  1  0  0  0
 34 59  1  0  0  0
 34104  1  0  0  0
 35 44  2  0  0  0
 35 45  1  0  0  0
 35 68  1  0  0  0
 36 56  1  0  0  0
 36105  1  0  0  0
 37 39  1  0  0  0
 37 47  1  0  0  0
 37 66  1  0  0  0
 37106  1  0  0  0
 38 43  2  0  0  0
 38 46  1  0  0  0
 38 47  1  0  0  0
 39 64  1  0  0  0
 39 67  2  0  0  0
 40 52  1  0  0  0
 40 53  2  0  0  0
 40 58  1  0  0  0
 41107  1  0  0  0
 41108  1  0  0  0
 41109  1  0  0  0
 41 48  1  0  0  0
 42 43  1  0  0  0
 42 66  1  0  0  0
 42110  1  0  0  0
 42111  1  0  0  0
 43 44  1  0  0  0
 44112  1  0  0  0
 45 46  2  0  0  0
 45113  1  0  0  0
 46114  1  0  0  0
 47115  1  0  0  0
 47116  1  0  0  0
 48 56  1  0  0  0
 48 65  1  0  0  0
 48117  1  0  0  0
 49 50  1  0  0  0
 49 53  1  0  0  0
 49 64  1  0  0  0
 49118  1  0  0  0
 50 51  1  0  0  0
 50119  1  0  0  0
 50120  1  0  0  0
 51 52  1  0  0  0
 51121  1  0  0  0
 51122  1  0  0  0
 52123  1  0  0  0
 52124  1  0  0  0
 53 54  1  0  0  0
 54 55  2  0  0  0
 54125  1  0  0  0
 55 57  1  0  0  0
 55126  1  0  0  0
 56 69  2  0  0  0
 57 58  2  0  0  0
 57127  1  0  0  0
 58128  1  0  0  0
 59 60  1  0  0  0
 59 61  1  0  0  0
 59 62  1  0  0  0
 60129  1  0  0  0
 60130  1  0  0  0
 60131  1  0  0  0
 61132  1  0  0  0
 61133  1  0  0  0
 61134  1  0  0  0
 62135  1  0  0  0
 62136  1  0  0  0
 62137  1  0  0  0
 63 65  1  0  0  0
 63138  1  0  0  0
 63139  1  0  0  0
 63140  1  0  0  0
 64141  1  0  0  0
 65142  1  0  0  0
 68 81  1  0  0  0
 71 72  2  0  0  0
 71 74  1  0  0  0
 71143  1  0  0  0
 72 76  1  0  0  0
 72144  1  0  0  0
 73 74  2  0  0  0
 73 75  1  0  0  0
 73145  1  0  0  0
 74 79  1  0  0  0
 75 76  2  0  0  0
 75 78  1  0  0  0
 76 82  1  0  0  0
 77 80  1  0  0  0
 77 82  2  0  0  0
 77146  1  0  0  0
 78147  1  0  0  0
 78148  1  0  0  0
 78149  1  0  0  0
 79 83  1  0  0  0
 79150  1  0  0  0
 79151  1  0  0  0
 80 81  1  0  0  0
 80152  1  0  0  0
 80153  1  0  0  0
 81154  1  0  0  0
 81155  1  0  0  0
 83156  1  0  0  0
M  ISO  4   1 100  68 101  81 101  83 100
M  END
> <chiral flag>
0

> <version>
0

> <s_m_source_file>
/data/baiqing/PycharmProjects/Reinvent-master-3.2/result/LINK_invent/BTK/process_docking_weight1_custom_product_contain_oxygen_bond_distance_aromatic_linkinvent_7_9_3/rearranged_h_0108.sdf

> <i_m_source_file_index>
9

> <r_mmod_Potential_Energy-OPLS-2005>
-35.5352478027344

> <r_mmod_Stretch_Energy-OPLS-2005>
52.9394874572754

> <r_mmod_Bend_Energy-OPLS-2005>
151.814224243164

> <r_mmod_Torsional_Energy-OPLS-2005>
229.243377685547

> <r_mmod_Improper_Torsional_Energy-OPLS-2005>
9.08500480651855

> <r_mmod_Van_der_Waal_Energy-OPLS-2005>
158.213272094727

> <r_mmod_Electrostatic_Energy-OPLS-2005>
-452.518768310547

> <r_mmod_Solvation_Energy-OPLS-2005>
-217.082336425781

> <b_mmod_Minimization_Converged-OPLS-2005>
0

> <r_mmod_RMS_Derivative-OPLS-2005>
2.36590433120728

$$$$
10
                    3D
 Structure written by MMmdl.
166175  0  0  1  0            999 V2000
  -30.7151  -14.4253   20.6097 C   0  0  0  0  0  0
  -30.4186  -12.2963   19.4064 C   0  0  0  0  0  0
  -29.4885  -12.5212   18.1965 C   0  0  0  0  0  0
  -28.0092  -12.3872   18.6059 C   0  0  0  0  0  0
  -27.6634  -13.2049   19.8799 C   0  0  2  0  0  0
  -28.7026  -12.9543   20.9950 C   0  0  0  0  0  0
  -25.2598  -13.8168   20.5657 C   0  0  0  0  0  0
  -24.1839  -13.0441   20.9153 C   0  0  0  0  0  0
  -24.6401  -11.6911   20.8727 C   0  0  0  0  0  0
  -23.9064  -10.4292   21.0405 C   0  0  0  0  0  0
  -24.3618   -9.4209   21.9189 C   0  0  0  0  0  0
  -23.6292   -8.2242   22.0764 C   0  0  0  0  0  0
  -22.4279   -8.0285   21.3542 C   0  0  0  0  0  0
  -21.9917   -9.0249   20.4632 C   0  0  0  0  0  0
  -22.7246  -10.2127   20.3040 C   0  0  0  0  0  0
  -21.6847   -6.0745   22.5276 C   0  0  0  0  0  0
  -21.3994   -6.5635   23.8210 C   0  0  0  0  0  0
  -21.3633   -5.6786   24.9168 C   0  0  0  0  0  0
  -21.6041   -4.3059   24.7219 C   0  0  0  0  0  0
  -21.8829   -3.8157   23.4339 C   0  0  0  0  0  0
  -21.9199   -4.6979   22.3398 C   0  0  0  0  0  0
  -22.7866  -13.5237   21.1820 C   0  0  0  0  0  0
  -22.1672   -4.2166   21.0979 F   0  0  0  0  0  0
  -21.5626   -3.4548   25.7735 F   0  0  0  0  0  0
  -30.0351  -13.2604   20.4481 N   0  0  0  0  0  0
  -26.3031  -12.9326   20.3370 N   0  0  0  0  0  0
  -25.9322  -11.6484   20.5747 N   0  0  0  0  0  0
  -22.0495  -12.8214   22.0361 N   0  0  0  0  0  0
  -25.4334  -15.1880   20.4072 N   0  0  0  0  0  0
  -31.8179  -14.6395   20.0991 O   0  0  0  0  0  0
  -21.6625   -6.8890   21.4245 O   0  0  0  0  0  0
  -22.3556  -14.5557   20.6696 O   0  0  0  0  0  0
  -24.6143  -31.8675   23.2100 C   0  0  0  0  0  0
  -25.9064  -32.4797   23.8377 C   0  0  1  0  0  0
  -27.2404  -27.4490   20.0640 C   0  0  0  0  0  0
  -25.5946  -33.8597   24.2325 N   0  0  0  0  0  0
  -23.3990  -30.4902   21.5521 C   0  0  2  0  0  0
  -24.8421  -28.9541   20.1184 C   0  0  0  0  0  0
  -22.7384  -29.4656   22.5019 C   0  0  0  0  0  0
  -18.0253  -28.1380   22.8492 C   0  0  0  0  0  0
  -24.1443  -36.7227   23.2611 C   0  0  0  0  0  0
  -25.9258  -30.8329   21.3636 C   0  0  0  0  0  0
  -26.0011  -29.4674   20.7107 C   0  0  0  0  0  0
  -27.1984  -28.7184   20.6846 C   0  0  0  0  0  0
  -26.0526  -26.9369   19.4907 C   0  0  0  0  0  0
  -24.8613  -27.6868   19.5120 C   0  0  0  0  0  0
  -23.6044  -29.8199   20.1675 C   0  0  0  0  0  0
  -25.4055  -36.3058   24.0336 C   0  0  1  0  0  0
  -20.5843  -28.3644   23.1321 C   0  0  2  0  0  0
  -20.6742  -26.9379   22.5422 C   0  0  0  0  0  0
  -19.5720  -26.6384   21.5211 C   0  0  0  0  0  0
  -18.1889  -26.7940   22.1595 C   0  0  0  0  0  0
  -19.1509  -28.8834   23.2902 C   0  0  0  0  0  0
  -18.9453  -30.1444   23.8914 C   0  0  0  0  0  0
  -17.6458  -30.6578   24.0588 C   0  0  0  0  0  0
  -25.9047  -34.9457   23.5125 C   0  0  0  0  0  0
  -16.5341  -29.9084   23.6358 C   0  0  0  0  0  0
  -16.7247  -28.6504   23.0367 C   0  0  0  0  0  0
  -26.4494  -31.6560   25.0696 C   0  0  0  0  0  0
  -25.3792  -31.3668   26.1473 C   0  0  0  0  0  0
  -27.0290  -30.2980   24.6083 C   0  0  0  0  0  0
  -27.6082  -32.4259   25.7460 C   0  0  0  0  0  0
  -27.5617  -37.1641   24.8381 C   0  0  0  0  0  0
  -21.4121  -29.3008   22.3737 N   0  0  0  0  0  0
  -26.4163  -37.3836   23.9587 N   0  0  0  0  0  0
  -24.6641  -31.0780   22.1001 N   0  0  0  0  0  0
  -23.4149  -28.8222   23.3086 O   0  0  0  0  0  0
  -28.4483  -26.7811   20.0395 O   0  0  0  0  0  0
  -26.5619  -34.8927   22.4692 O   0  0  0  0  0  0
  -23.5349  -32.1440   23.7512 O   0  0  0  0  0  0
  -28.1666  -18.6154   23.8291 C   0  0  0  0  0  0
  -27.6985  -19.6555   23.0042 C   0  0  0  0  0  0
  -29.0532  -18.7949   21.1769 C   0  0  0  0  0  0
  -29.0928  -17.6607   23.3460 C   0  0  0  0  0  0
  -28.1428  -19.7564   21.6711 C   0  0  0  0  0  0
  -29.5357  -17.7453   21.9958 C   0  0  0  0  0  0
  -28.4589  -24.3183   20.1158 C   0  0  0  0  0  0
  -28.4301  -23.0516   19.6826 C   0  0  0  0  0  0
  -29.5842  -16.6112   24.2826 C   0  0  0  0  0  0
  -28.5050  -24.3838   21.6194 C   0  0  0  0  0  0
  -28.2802  -22.9162   22.0378 C   0  0  0  0  0  0
  -28.5495  -22.4647   18.2841 C   0  0  0  0  0  0
  -30.5490  -16.7649   21.3965 C   0  0  0  0  0  0
  -27.6293  -20.8753   20.7642 C   0  0  0  0  0  0
  -28.6049  -25.5802   19.2726 C   0  0  0  0  0  0
  -30.0607  -15.3911   21.2748 N   0  0  0  0  0  0
  -28.4890  -22.0875   20.8195 N   0  3  1  0  0  0
  -29.1627  -16.4581   25.4335 O   0  0  0  0  0  0
  -31.4631  -12.3990   19.1066 H   0  0  0  0  0  0
  -30.3170  -11.2772   19.7809 H   0  0  0  0  0  0
  -29.7214  -11.8116   17.4018 H   0  0  0  0  0  0
  -29.6618  -13.5142   17.7780 H   0  0  0  0  0  0
  -27.8038  -11.3301   18.7741 H   0  0  0  0  0  0
  -27.3649  -12.6939   17.7804 H   0  0  0  0  0  0
  -27.7168  -14.2588   19.6053 H   0  0  0  0  0  0
  -28.6716  -11.9091   21.3085 H   0  0  0  0  0  0
  -28.4637  -13.5289   21.8912 H   0  0  0  0  0  0
  -25.2768   -9.5685   22.4755 H   0  0  0  0  0  0
  -24.0000   -7.4647   22.7494 H   0  0  0  0  0  0
  -21.0853   -8.8761   19.8930 H   0  0  0  0  0  0
  -22.3724  -10.9660   19.6134 H   0  0  0  0  0  0
  -21.1955   -7.6140   23.9718 H   0  0  0  0  0  0
  -21.1430   -6.0511   25.9067 H   0  0  0  0  0  0
  -22.0627   -2.7621   23.2838 H   0  0  0  0  0  0
  -22.4115  -11.9862   22.4714 H   0  0  0  0  0  0
  -21.1110  -13.1230   22.2556 H   0  0  0  0  0  0
  -24.6677  -15.8453   20.5059 H   0  0  0  0  0  0
  -26.2924  -15.6266   20.1007 H   0  0  0  0  0  0
  -26.7142  -32.5520   23.1147 H   0  0  0  0  0  0
  -25.0167  -33.9751   25.0523 H   0  0  0  0  0  0
  -22.6869  -31.3066   21.4118 H   0  0  0  0  0  0
  -23.3880  -35.9360   23.2892 H   0  0  0  0  0  0
  -24.3634  -36.9254   22.2112 H   0  0  0  0  0  0
  -23.6913  -37.6177   23.6885 H   0  0  0  0  0  0
  -26.0414  -31.6027   20.5993 H   0  0  0  0  0  0
  -26.8111  -30.8828   21.9849 H   0  0  0  0  0  0
  -28.0989  -29.1211   21.1270 H   0  0  0  0  0  0
  -26.0193  -25.9656   19.0204 H   0  0  0  0  0  0
  -23.9668  -27.2843   19.0580 H   0  0  0  0  0  0
  -23.7043  -30.5928   19.4045 H   0  0  0  0  0  0
  -22.7291  -29.2358   19.8760 H   0  0  0  0  0  0
  -25.1179  -36.1819   25.0800 H   0  0  0  0  0  0
  -20.9914  -28.3214   24.1444 H   0  0  0  0  0  0
  -20.5620  -26.2261   23.3616 H   0  0  0  0  0  0
  -21.6624  -26.7408   22.1226 H   0  0  0  0  0  0
  -19.6879  -25.6293   21.1232 H   0  0  0  0  0  0
  -19.6676  -27.3221   20.6757 H   0  0  0  0  0  0
  -17.4172  -26.6745   21.3973 H   0  0  0  0  0  0
  -18.0231  -26.0036   22.8934 H   0  0  0  0  0  0
  -19.7927  -30.7268   24.2265 H   0  0  0  0  0  0
  -17.5003  -31.6254   24.5198 H   0  0  0  0  0  0
  -15.5344  -30.2995   23.7674 H   0  0  0  0  0  0
  -15.8640  -28.0833   22.7085 H   0  0  0  0  0  0
  -24.5926  -30.7058   25.7821 H   0  0  0  0  0  0
  -24.9057  -32.2830   26.4998 H   0  0  0  0  0  0
  -25.8180  -30.8768   27.0177 H   0  0  0  0  0  0
  -26.2789  -29.6727   24.1225 H   0  0  0  0  0  0
  -27.4117  -29.7234   25.4532 H   0  0  0  0  0  0
  -27.8610  -30.4239   23.9155 H   0  0  0  0  0  0
  -27.2730  -33.3585   26.2007 H   0  0  0  0  0  0
  -28.3923  -32.6765   25.0305 H   0  0  0  0  0  0
  -28.0697  -31.8382   26.5410 H   0  0  0  0  0  0
  -28.2239  -38.0296   24.8093 H   0  0  0  0  0  0
  -28.1489  -36.2956   24.5359 H   0  0  0  0  0  0
  -27.2487  -37.0237   25.8740 H   0  0  0  0  0  0
  -20.9295  -29.8684   21.6912 H   0  0  0  0  0  0
  -25.9995  -38.2768   24.2085 H   0  0  0  0  0  0
  -27.8112  -18.5616   24.8496 H   0  0  0  0  0  0
  -26.9947  -20.3741   23.4047 H   0  0  0  0  0  0
  -29.3902  -18.8677   20.1517 H   0  0  0  0  0  0
  -30.3684  -15.9683   23.8849 H   0  0  0  0  0  0
  -27.7421  -25.0479   22.0269 H   0  0  0  0  0  0
  -29.4859  -24.7422   21.9323 H   0  0  0  0  0  0
  -27.2540  -22.8167   22.3958 H   0  0  0  0  0  0
  -28.9373  -22.6091   22.8517 H   0  0  0  0  0  0
  -28.8458  -23.2288   17.5647 H   0  0  0  0  0  0
  -27.5968  -22.0475   17.9545 H   0  0  0  0  0  0
  -29.3014  -21.6753   18.2552 H   0  0  0  0  0  0
  -31.4610  -16.7785   21.9948 H   0  0  0  0  0  0
  -30.8469  -17.1170   20.4071 H   0  0  0  0  0  0
  -26.5985  -21.1271   21.0164 H   0  0  0  0  0  0
  -27.5970  -20.4768   19.7518 H   0  0  0  0  0  0
  -27.9995  -25.5370   18.3671 H   0  0  0  0  0  0
  -29.6340  -25.5935   18.9132 H   0  0  0  0  0  0
  -29.1373  -15.1788   21.6193 H   0  0  0  0  0  0
  -29.4345  -21.7394   20.8725 H   0  0  0  0  0  0
  1 25  1  0  0  0
  1 30  2  0  0  0
  1 86  1  0  0  0
  2  3  1  0  0  0
  2 25  1  0  0  0
  2 89  1  0  0  0
  2 90  1  0  0  0
  3  4  1  0  0  0
  3 91  1  0  0  0
  3 92  1  0  0  0
  4  5  1  0  0  0
  4 93  1  0  0  0
  4 94  1  0  0  0
  5  6  1  0  0  0
  5 26  1  0  0  0
  5 95  1  0  0  0
  6 25  1  0  0  0
  6 96  1  0  0  0
  6 97  1  0  0  0
  7  8  2  0  0  0
  7 26  1  0  0  0
  7 29  1  0  0  0
  8  9  1  0  0  0
  8 22  1  0  0  0
  9 10  1  0  0  0
  9 27  2  0  0  0
 10 11  2  0  0  0
 10 15  1  0  0  0
 11 12  1  0  0  0
 11 98  1  0  0  0
 12 13  2  0  0  0
 12 99  1  0  0  0
 13 14  1  0  0  0
 13 31  1  0  0  0
 14 15  2  0  0  0
 14100  1  0  0  0
 15101  1  0  0  0
 16 17  2  0  0  0
 16 21  1  0  0  0
 16 31  1  0  0  0
 17 18  1  0  0  0
 17102  1  0  0  0
 18 19  2  0  0  0
 18103  1  0  0  0
 19 20  1  0  0  0
 19 24  1  0  0  0
 20 21  2  0  0  0
 20104  1  0  0  0
 21 23  1  0  0  0
 22 28  1  0  0  0
 22 32  2  0  0  0
 26 27  1  0  0  0
 28105  1  0  0  0
 28106  1  0  0  0
 29107  1  0  0  0
 29108  1  0  0  0
 33 34  1  0  0  0
 33 66  1  0  0  0
 33 70  2  0  0  0
 34 36  1  0  0  0
 34 59  1  0  0  0
 34109  1  0  0  0
 35 44  2  0  0  0
 35 45  1  0  0  0
 35 68  1  0  0  0
 36 56  1  0  0  0
 36110  1  0  0  0
 37 39  1  0  0  0
 37 47  1  0  0  0
 37 66  1  0  0  0
 37111  1  0  0  0
 38 43  2  0  0  0
 38 46  1  0  0  0
 38 47  1  0  0  0
 39 64  1  0  0  0
 39 67  2  0  0  0
 40 52  1  0  0  0
 40 53  2  0  0  0
 40 58  1  0  0  0
 41112  1  0  0  0
 41113  1  0  0  0
 41114  1  0  0  0
 41 48  1  0  0  0
 42 43  1  0  0  0
 42 66  1  0  0  0
 42115  1  0  0  0
 42116  1  0  0  0
 43 44  1  0  0  0
 44117  1  0  0  0
 45 46  2  0  0  0
 45118  1  0  0  0
 46119  1  0  0  0
 47120  1  0  0  0
 47121  1  0  0  0
 48 56  1  0  0  0
 48 65  1  0  0  0
 48122  1  0  0  0
 49 50  1  0  0  0
 49 53  1  0  0  0
 49 64  1  0  0  0
 49123  1  0  0  0
 50 51  1  0  0  0
 50124  1  0  0  0
 50125  1  0  0  0
 51 52  1  0  0  0
 51126  1  0  0  0
 51127  1  0  0  0
 52128  1  0  0  0
 52129  1  0  0  0
 53 54  1  0  0  0
 54 55  2  0  0  0
 54130  1  0  0  0
 55 57  1  0  0  0
 55131  1  0  0  0
 56 69  2  0  0  0
 57 58  2  0  0  0
 57132  1  0  0  0
 58133  1  0  0  0
 59 60  1  0  0  0
 59 61  1  0  0  0
 59 62  1  0  0  0
 60134  1  0  0  0
 60135  1  0  0  0
 60136  1  0  0  0
 61137  1  0  0  0
 61138  1  0  0  0
 61139  1  0  0  0
 62140  1  0  0  0
 62141  1  0  0  0
 62142  1  0  0  0
 63 65  1  0  0  0
 63143  1  0  0  0
 63144  1  0  0  0
 63145  1  0  0  0
 64146  1  0  0  0
 65147  1  0  0  0
 68 85  1  0  0  0
 71 72  2  0  0  0
 71 74  1  0  0  0
 71148  1  0  0  0
 72 75  1  0  0  0
 72149  1  0  0  0
 73 75  2  0  0  0
 73 76  1  0  0  0
 73150  1  0  0  0
 74 76  2  0  0  0
 74 79  1  0  0  0
 75 84  1  0  0  0
 76 83  1  0  0  0
 77 78  2  0  0  0
 77 80  1  0  0  0
 77 85  1  0  0  0
 78 82  1  0  0  0
 78 87  1  0  0  0
 79 88  2  0  0  0
 79151  1  0  0  0
 80 81  1  0  0  0
 80152  1  0  0  0
 80153  1  0  0  0
 81 87  1  0  0  0
 81154  1  0  0  0
 81155  1  0  0  0
 82156  1  0  0  0
 82157  1  0  0  0
 82158  1  0  0  0
 83 86  1  0  0  0
 83159  1  0  0  0
 83160  1  0  0  0
 84161  1  0  0  0
 84162  1  0  0  0
 84 87  1  0  0  0
 85163  1  0  0  0
 85164  1  0  0  0
 86165  1  0  0  0
 87166  1  0  0  0
M  CHG  1  87   1
M  ISO  4   1 100  68 101  85 101  86 100
M  END
> <chiral flag>
0

> <version>
0

> <s_m_source_file>
/data/baiqing/PycharmProjects/Reinvent-master-3.2/result/LINK_invent/BTK/process_docking_weight1_custom_product_contain_oxygen_bond_distance_aromatic_linkinvent_7_9_3/rearranged_h_0108.sdf

> <i_m_source_file_index>
10

> <r_mmod_Potential_Energy-OPLS-2005>
-192.790557861328

> <r_mmod_Stretch_Energy-OPLS-2005>
36.6283645629883

> <r_mmod_Bend_Energy-OPLS-2005>
150.726303100586

> <r_mmod_Torsional_Energy-OPLS-2005>
204.133651733398

> <r_mmod_Improper_Torsional_Energy-OPLS-2005>
3.12071990966797

> <r_mmod_Van_der_Waal_Energy-OPLS-2005>
151.289260864258

> <r_mmod_Electrostatic_Energy-OPLS-2005>
-297.869903564453

> <r_mmod_Solvation_Energy-OPLS-2005>
-450.819427490234

> <b_mmod_Minimization_Converged-OPLS-2005>
0

> <r_mmod_RMS_Derivative-OPLS-2005>
2.38364171981812

$$$$
11
                    3D
 Structure written by MMmdl.
161169  0  0  1  0            999 V2000
  -29.8520  -15.5836   20.2680 C   0  0  0  0  0  0
  -30.3602  -13.0552   19.5601 C   0  0  0  0  0  0
  -29.5229  -12.6250   18.3223 C   0  0  0  0  0  0
  -28.0865  -12.2539   18.7377 C   0  0  0  0  0  0
  -27.5411  -13.2464   19.7906 C   0  0  2  0  0  0
  -28.5048  -13.4815   20.9518 C   0  0  0  0  0  0
  -25.2108  -13.8104   20.5605 C   0  0  0  0  0  0
  -24.1521  -13.0360   20.9310 C   0  0  0  0  0  0
  -24.6158  -11.6848   20.8814 C   0  0  0  0  0  0
  -23.8924  -10.4229   21.0467 C   0  0  0  0  0  0
  -24.3533   -9.4153   21.9219 C   0  0  0  0  0  0
  -23.6240   -8.2174   22.0762 C   0  0  0  0  0  0
  -22.4225   -8.0216   21.3548 C   0  0  0  0  0  0
  -21.9837   -9.0172   20.4647 C   0  0  0  0  0  0
  -22.7130  -10.2069   20.3078 C   0  0  0  0  0  0
  -21.6828   -6.0698   22.5282 C   0  0  0  0  0  0
  -21.3996   -6.5613   23.8209 C   0  0  0  0  0  0
  -21.3656   -5.6777   24.9177 C   0  0  0  0  0  0
  -21.6046   -4.3039   24.7237 C   0  0  0  0  0  0
  -21.8817   -3.8120   23.4360 C   0  0  0  0  0  0
  -21.9183   -4.6930   22.3411 C   0  0  0  0  0  0
  -22.7591  -13.5173   21.1984 C   0  0  0  0  0  0
  -22.1656   -4.2110   21.0992 F   0  0  0  0  0  0
  -21.5637   -3.4532   25.7759 F   0  0  0  0  0  0
  -29.6194  -14.1583   20.3184 N   0  0  0  0  0  0
  -26.2317  -12.9254   20.2847 N   0  0  0  0  0  0
  -25.9010  -11.6425   20.5582 N   0  0  0  0  0  0
  -22.0266  -12.8167   22.0550 N   0  0  0  0  0  0
  -25.3828  -15.1813   20.3922 N   0  0  0  0  0  0
  -31.0818  -15.7264   20.0484 O   0  0  0  0  0  0
  -21.6605   -6.8819   21.4239 O   0  0  0  0  0  0
  -22.3305  -14.5476   20.6801 O   0  0  0  0  0  0
  -24.5716  -31.7360   22.9661 C   0  0  0  0  0  0
  -25.8634  -32.3927   23.6429 C   0  0  1  0  0  0
  -27.9304  -27.9596   20.0820 C   0  0  0  0  0  0
  -25.5227  -33.7814   24.0487 N   0  0  0  0  0  0
  -23.9939  -29.3517   22.4952 C   0  0  2  0  0  0
  -25.5761  -27.7834   20.0265 C   0  0  0  0  0  0
  -22.6759  -29.1704   23.1082 C   0  0  0  0  0  0
  -17.9561  -28.1572   22.8197 C   0  0  0  0  0  0
  -24.1459  -36.7041   23.2703 C   0  0  0  0  0  0
  -25.4310  -30.7974   20.4711 C   0  0  0  0  0  0
  -26.0320  -29.3007   19.6025 C   0  0  0  0  0  0
  -27.4457  -29.1947   19.6293 C   0  0  0  0  0  0
  -27.3251  -26.8742   19.3739 C   0  0  0  0  0  0
  -25.9816  -26.8985   19.1179 C   0  0  0  0  0  0
  -24.5090  -27.5844   21.7564 C   0  0  0  0  0  0
  -25.4198  -36.2644   24.0115 C   0  0  1  0  0  0
  -20.4664  -28.3554   23.1226 C   0  0  2  0  0  0
  -20.5825  -26.9369   22.5294 C   0  0  0  0  0  0
  -19.5012  -26.6388   21.5034 C   0  0  0  0  0  0
  -18.1247  -26.7995   22.1512 C   0  0  0  0  0  0
  -19.0745  -28.9170   23.2320 C   0  0  0  0  0  0
  -18.8957  -30.1713   23.8488 C   0  0  0  0  0  0
  -17.6016  -30.6789   24.0453 C   0  0  0  0  0  0
  -25.9131  -34.9110   23.4422 C   0  0  0  0  0  0
  -16.4856  -29.9289   23.6347 C   0  0  0  0  0  0
  -16.6614  -28.6711   23.0291 C   0  0  0  0  0  0
  -26.4209  -31.6788   24.9779 C   0  0  0  0  0  0
  -25.3320  -31.4285   26.0515 C   0  0  0  0  0  0
  -27.0890  -30.3218   24.7126 C   0  0  0  0  0  0
  -27.5438  -32.5240   25.6471 C   0  0  0  0  0  0
  -27.5551  -37.1572   24.8449 C   0  0  0  0  0  0
  -21.4674  -29.2629   22.5445 N   0  0  0  0  0  0
  -26.4267  -37.3503   23.9384 N   0  0  0  0  0  0
  -24.5531  -30.7847   21.9113 N   0  0  0  0  0  0
  -22.8476  -28.6435   24.1834 O   0  0  0  0  0  0
  -27.5190  -27.9962   21.4051 O   0  0  0  0  0  0
  -26.6309  -34.8984   22.4424 O   0  0  0  0  0  0
  -23.5176  -32.0175   23.5593 O   0  0  0  0  0  0
  -25.1569  -20.4470   21.8498 C   0  0  0  0  0  0
  -24.8374  -21.7421   21.3177 C   0  0  0  0  0  0
  -26.6304  -21.2703   19.8077 C   0  0  0  0  0  0
  -26.1970  -19.5403   21.4416 C   0  0  0  0  0  0
  -27.0599  -19.7897   20.3397 C   0  0  0  0  0  0
  -25.5117  -22.3711   20.2385 C   0  0  0  0  0  0
  -25.4210  -17.5596   22.7789 C   0  0  0  0  0  0
  -26.3848  -18.2870   22.1923 C   0  0  0  0  0  0
  -23.8960  -25.1034   20.1784 C   0  0  0  0  0  0
  -28.3298  -18.4383   19.9450 C   0  0  0  0  0  0
  -23.2881  -26.9038   19.6609 C   0  0  0  0  0  0
  -23.7027  -28.9340   20.1928 C   0  0  0  0  0  0
  -26.2665  -28.9890   21.8581 C   0  0  0  0  0  0
  -24.9389  -23.9684   19.8012 N   0  0  0  0  0  0
  -28.7608  -16.7239   20.3107 N   0  0  0  0  0  0
  -23.1743  -24.7040   21.0935 O   0  0  0  0  0  0
  -31.3450  -13.3915   19.2342 H   0  0  0  0  0  0
  -30.5554  -12.1965   20.2043 H   0  0  0  0  0  0
  -29.9961  -11.7922   17.7979 H   0  0  0  0  0  0
  -29.4878  -13.4543   17.6147 H   0  0  0  0  0  0
  -28.1083  -11.2497   19.1652 H   0  0  0  0  0  0
  -27.4311  -12.2016   17.8679 H   0  0  0  0  0  0
  -27.4276  -14.1823   19.2399 H   0  0  0  0  0  0
  -28.7778  -12.5513   21.4544 H   0  0  0  0  0  0
  -28.0627  -14.1352   21.7070 H   0  0  0  0  0  0
  -25.2679   -9.5648   22.4788 H   0  0  0  0  0  0
  -23.9955   -7.4563   22.7475 H   0  0  0  0  0  0
  -21.0766   -8.8659   19.8955 H   0  0  0  0  0  0
  -22.3572  -10.9602   19.6182 H   0  0  0  0  0  0
  -21.1982   -7.6119   23.9698 H   0  0  0  0  0  0
  -21.1488   -6.0515   25.9078 H   0  0  0  0  0  0
  -22.0606   -2.7580   23.2873 H   0  0  0  0  0  0
  -22.3891  -11.9838   22.4937 H   0  0  0  0  0  0
  -21.0895  -13.1181   22.2785 H   0  0  0  0  0  0
  -24.6100  -15.8258   20.5138 H   0  0  0  0  0  0
  -26.1473  -15.5877   19.8734 H   0  0  0  0  0  0
  -26.6581  -32.4075   22.8960 H   0  0  0  0  0  0
  -24.8716  -33.8660   24.8163 H   0  0  0  0  0  0
  -24.5753  -29.4156   23.4194 H   0  0  0  0  0  0
  -23.3785  -35.9292   23.3149 H   0  0  0  0  0  0
  -24.3422  -36.9063   22.2167 H   0  0  0  0  0  0
  -23.7161  -37.6053   23.7084 H   0  0  0  0  0  0
  -24.8067  -31.3377   19.7584 H   0  0  0  0  0  0
  -26.2698  -31.4827   20.6004 H   0  0  0  0  0  0
  -28.0119  -30.0876   19.8572 H   0  0  0  0  0  0
  -27.9301  -26.0520   19.0180 H   0  0  0  0  0  0
  -25.5731  -26.0114   18.6920 H   0  0  0  0  0  0
  -23.6313  -26.9707   21.8889 H   0  0  0  0  0  0
  -25.1018  -26.9844   22.4543 H   0  0  0  0  0  0
  -25.1498  -36.1159   25.0590 H   0  0  0  0  0  0
  -20.6299  -28.2169   24.1956 H   0  0  0  0  0  0
  -20.4883  -26.2145   23.3397 H   0  0  0  0  0  0
  -21.5568  -26.7485   22.0983 H   0  0  0  0  0  0
  -19.6177  -25.6314   21.1041 H   0  0  0  0  0  0
  -19.6018  -27.3218   20.6588 H   0  0  0  0  0  0
  -17.3475  -26.6553   21.3978 H   0  0  0  0  0  0
  -17.9702  -26.0275   22.9084 H   0  0  0  0  0  0
  -19.7525  -30.7416   24.1849 H   0  0  0  0  0  0
  -17.4602  -31.6403   24.5174 H   0  0  0  0  0  0
  -15.4880  -30.3206   23.7864 H   0  0  0  0  0  0
  -15.7918  -28.1079   22.7221 H   0  0  0  0  0  0
  -24.5602  -30.7443   25.6961 H   0  0  0  0  0  0
  -24.8349  -32.3540   26.3452 H   0  0  0  0  0  0
  -25.7521  -30.9874   26.9561 H   0  0  0  0  0  0
  -26.3556  -29.5288   24.6423 H   0  0  0  0  0  0
  -27.7038  -30.0155   25.5608 H   0  0  0  0  0  0
  -27.7616  -30.3406   23.8575 H   0  0  0  0  0  0
  -27.1819  -33.4866   26.0107 H   0  0  0  0  0  0
  -28.3524  -32.7295   24.9431 H   0  0  0  0  0  0
  -27.9836  -32.0235   26.5120 H   0  0  0  0  0  0
  -28.2491  -37.9948   24.7595 H   0  0  0  0  0  0
  -28.1112  -36.2467   24.6168 H   0  0  0  0  0  0
  -27.2235  -37.1052   25.8838 H   0  0  0  0  0  0
  -21.3344  -29.6525   21.6208 H   0  0  0  0  0  0
  -26.0020  -38.2488   24.1509 H   0  0  0  0  0  0
  -24.5526  -20.1369   22.6906 H   0  0  0  0  0  0
  -24.0212  -22.2749   21.7849 H   0  0  0  0  0  0
  -27.2393  -21.6017   18.9797 H   0  0  0  0  0  0
  -25.6700  -16.6641   23.3330 H   0  0  0  0  0  0
  -24.3760  -17.8229   22.7141 H   0  0  0  0  0  0
  -27.4044  -17.9451   22.3088 H   0  0  0  0  0  0
  -29.2811  -18.9572   20.0537 H   0  0  0  0  0  0
  -28.1985  -18.3687   18.8649 H   0  0  0  0  0  0
  -22.2139  -26.8276   19.8277 H   0  0  0  0  0  0
  -23.3400  -26.8829   18.5727 H   0  0  0  0  0  0
  -22.7971  -29.4520   20.4983 H   0  0  0  0  0  0
  -23.7359  -29.4214   19.2108 H   0  0  0  0  0  0
  -26.8002  -29.9207   22.0597 H   0  0  0  0  0  0
  -26.2782  -28.5909   22.8717 H   0  0  0  0  0  0
  -25.4845  -24.3064   19.0200 H   0  0  0  0  0  0
  -27.9004  -16.2637   20.5683 H   0  0  0  0  0  0
  1 25  1  0  0  0
  1 30  2  0  0  0
  1 85  1  0  0  0
  2  3  1  0  0  0
  2 25  1  0  0  0
  2 87  1  0  0  0
  2 88  1  0  0  0
  3  4  1  0  0  0
  3 89  1  0  0  0
  3 90  1  0  0  0
  4  5  1  0  0  0
  4 91  1  0  0  0
  4 92  1  0  0  0
  5  6  1  0  0  0
  5 26  1  0  0  0
  5 93  1  0  0  0
  6 25  1  0  0  0
  6 94  1  0  0  0
  6 95  1  0  0  0
  7  8  2  0  0  0
  7 26  1  0  0  0
  7 29  1  0  0  0
  8  9  1  0  0  0
  8 22  1  0  0  0
  9 10  1  0  0  0
  9 27  2  0  0  0
 10 11  2  0  0  0
 10 15  1  0  0  0
 11 12  1  0  0  0
 11 96  1  0  0  0
 12 13  2  0  0  0
 12 97  1  0  0  0
 13 14  1  0  0  0
 13 31  1  0  0  0
 14 15  2  0  0  0
 14 98  1  0  0  0
 15 99  1  0  0  0
 16 17  2  0  0  0
 16 21  1  0  0  0
 16 31  1  0  0  0
 17 18  1  0  0  0
 17100  1  0  0  0
 18 19  2  0  0  0
 18101  1  0  0  0
 19 20  1  0  0  0
 19 24  1  0  0  0
 20 21  2  0  0  0
 20102  1  0  0  0
 21 23  1  0  0  0
 22 28  1  0  0  0
 22 32  2  0  0  0
 26 27  1  0  0  0
 28103  1  0  0  0
 28104  1  0  0  0
 29105  1  0  0  0
 29106  1  0  0  0
 33 34  1  0  0  0
 33 66  1  0  0  0
 33 70  2  0  0  0
 34 36  1  0  0  0
 34 59  1  0  0  0
 34107  1  0  0  0
 35 44  2  0  0  0
 35 45  1  0  0  0
 35 68  1  0  0  0
 36 56  1  0  0  0
 36108  1  0  0  0
 37 39  1  0  0  0
 37 47  1  0  0  0
 37 66  1  0  0  0
 37109  1  0  0  0
 38 43  2  0  0  0
 38 46  1  0  0  0
 38 47  1  0  0  0
 39 64  1  0  0  0
 39 67  2  0  0  0
 40 52  1  0  0  0
 40 53  2  0  0  0
 40 58  1  0  0  0
 41110  1  0  0  0
 41111  1  0  0  0
 41112  1  0  0  0
 41 48  1  0  0  0
 42 43  1  0  0  0
 42 66  1  0  0  0
 42113  1  0  0  0
 42114  1  0  0  0
 43 44  1  0  0  0
 44115  1  0  0  0
 45 46  2  0  0  0
 45116  1  0  0  0
 46117  1  0  0  0
 47118  1  0  0  0
 47119  1  0  0  0
 48 56  1  0  0  0
 48 65  1  0  0  0
 48120  1  0  0  0
 49 50  1  0  0  0
 49 53  1  0  0  0
 49 64  1  0  0  0
 49121  1  0  0  0
 50 51  1  0  0  0
 50122  1  0  0  0
 50123  1  0  0  0
 51 52  1  0  0  0
 51124  1  0  0  0
 51125  1  0  0  0
 52126  1  0  0  0
 52127  1  0  0  0
 53 54  1  0  0  0
 54 55  2  0  0  0
 54128  1  0  0  0
 55 57  1  0  0  0
 55129  1  0  0  0
 56 69  2  0  0  0
 57 58  2  0  0  0
 57130  1  0  0  0
 58131  1  0  0  0
 59 60  1  0  0  0
 59 61  1  0  0  0
 59 62  1  0  0  0
 60132  1  0  0  0
 60133  1  0  0  0
 60134  1  0  0  0
 61135  1  0  0  0
 61136  1  0  0  0
 61137  1  0  0  0
 62138  1  0  0  0
 62139  1  0  0  0
 62140  1  0  0  0
 63 65  1  0  0  0
 63141  1  0  0  0
 63142  1  0  0  0
 63143  1  0  0  0
 64144  1  0  0  0
 65145  1  0  0  0
 68 83  1  0  0  0
 71 72  2  0  0  0
 71 74  1  0  0  0
 71146  1  0  0  0
 72 76  1  0  0  0
 72147  1  0  0  0
 73 75  1  0  0  0
 73 76  2  0  0  0
 73148  1  0  0  0
 74 75  2  0  0  0
 74 78  1  0  0  0
 75 80  1  0  0  0
 76 84  1  0  0  0
 77 78  2  0  0  0
 77149  1  0  0  0
 77150  1  0  0  0
 78151  1  0  0  0
 79 81  1  0  0  0
 79 84  1  0  0  0
 79 86  2  0  0  0
 80 85  1  0  0  0
 80152  1  0  0  0
 80153  1  0  0  0
 81 82  1  0  0  0
 81154  1  0  0  0
 81155  1  0  0  0
 82 83  1  0  0  0
 82156  1  0  0  0
 82157  1  0  0  0
 83158  1  0  0  0
 83159  1  0  0  0
 84160  1  0  0  0
 85161  1  0  0  0
M  ISO  4   1 100  68 101  83 101  85 100
M  END
> <chiral flag>
0

> <version>
0

> <s_m_source_file>
/data/baiqing/PycharmProjects/Reinvent-master-3.2/result/LINK_invent/BTK/process_docking_weight1_custom_product_contain_oxygen_bond_distance_aromatic_linkinvent_7_9_3/rearranged_h_0108.sdf

> <i_m_source_file_index>
11

> <r_mmod_Potential_Energy-OPLS-2005>
12174.154296875

> <r_mmod_Stretch_Energy-OPLS-2005>
5504.88916015625

> <r_mmod_Bend_Energy-OPLS-2005>
1063.14562988281

> <r_mmod_Torsional_Energy-OPLS-2005>
678.82080078125

> <r_mmod_Improper_Torsional_Energy-OPLS-2005>
66.3019943237305

> <r_mmod_Van_der_Waal_Energy-OPLS-2005>
2204.16772460938

> <r_mmod_Electrostatic_Energy-OPLS-2005>
-463.876403808594

> <r_mmod_Solvation_Energy-OPLS-2005>
-232.004318237305

> <b_mmod_Minimization_Converged-OPLS-2005>
0

> <r_mmod_RMS_Derivative-OPLS-2005>
5.42895889282227

$$$$
12
                    3D
 Structure written by MMmdl.
175184  0  0  1  0            999 V2000
  -30.7070  -14.4878   20.6170 C   0  0  0  0  0  0
  -30.4229  -12.3333   19.4262 C   0  0  0  0  0  0
  -29.4955  -12.5254   18.2092 C   0  0  0  0  0  0
  -28.0182  -12.3711   18.6222 C   0  0  0  0  0  0
  -27.6585  -13.2111   19.8763 C   0  0  2  0  0  0
  -28.6981  -13.0003   20.9970 C   0  0  0  0  0  0
  -25.2575  -13.8164   20.5695 C   0  0  0  0  0  0
  -24.1847  -13.0437   20.9201 C   0  0  0  0  0  0
  -24.6424  -11.6911   20.8763 C   0  0  0  0  0  0
  -23.9105  -10.4305   21.0425 C   0  0  0  0  0  0
  -24.3657   -9.4207   21.9195 C   0  0  0  0  0  0
  -23.6330   -8.2244   22.0744 C   0  0  0  0  0  0
  -22.4308   -8.0290   21.3541 C   0  0  0  0  0  0
  -21.9970   -9.0269   20.4633 C   0  0  0  0  0  0
  -22.7293  -10.2149   20.3059 C   0  0  0  0  0  0
  -21.6846   -6.0769   22.5294 C   0  0  0  0  0  0
  -21.4009   -6.5667   23.8226 C   0  0  0  0  0  0
  -21.3660   -5.6803   24.9184 C   0  0  0  0  0  0
  -21.6035   -4.3066   24.7222 C   0  0  0  0  0  0
  -21.8810   -3.8174   23.4340 C   0  0  0  0  0  0
  -21.9194   -4.7005   22.3397 C   0  0  0  0  0  0
  -22.7858  -13.5207   21.1882 C   0  0  0  0  0  0
  -22.1660   -4.2199   21.0972 F   0  0  0  0  0  0
  -21.5650   -3.4536   25.7736 F   0  0  0  0  0  0
  -30.0255  -13.3206   20.4447 N   0  0  0  0  0  0
  -26.3023  -12.9351   20.3391 N   0  0  0  0  0  0
  -25.9356  -11.6504   20.5807 N   0  0  0  0  0  0
  -22.0504  -12.8158   22.0406 N   0  0  0  0  0  0
  -25.4263  -15.1893   20.4054 N   0  0  0  0  0  0
  -31.8193  -14.6825   20.1198 O   0  0  0  0  0  0
  -21.6637   -6.8921   21.4248 O   0  0  0  0  0  0
  -22.3529  -14.5517   20.6750 O   0  0  0  0  0  0
  -24.6160  -31.8658   23.2050 C   0  0  0  0  0  0
  -25.9046  -32.4824   23.8349 C   0  0  1  0  0  0
  -27.2580  -27.4392   20.1237 C   0  0  0  0  0  0
  -25.5873  -33.8623   24.2296 N   0  0  0  0  0  0
  -23.4026  -30.4841   21.5459 C   0  0  2  0  0  0
  -24.8567  -28.9404   20.1257 C   0  0  0  0  0  0
  -22.7392  -29.4655   22.5001 C   0  0  0  0  0  0
  -18.0259  -28.1409   22.8501 C   0  0  0  0  0  0
  -24.1468  -36.7327   23.2646 C   0  0  0  0  0  0
  -25.9254  -30.8401   21.3455 C   0  0  0  0  0  0
  -26.0142  -29.4687   20.7079 C   0  0  0  0  0  0
  -27.2190  -28.7292   20.6972 C   0  0  0  0  0  0
  -26.0829  -26.9201   19.5340 C   0  0  0  0  0  0
  -24.8839  -27.6620   19.5374 C   0  0  0  0  0  0
  -23.6157  -29.8055   20.1652 C   0  0  0  0  0  0
  -25.4098  -36.3127   24.0346 C   0  0  1  0  0  0
  -20.5848  -28.3704   23.1321 C   0  0  2  0  0  0
  -20.6745  -26.9438   22.5425 C   0  0  0  0  0  0
  -19.5723  -26.6417   21.5224 C   0  0  0  0  0  0
  -18.1897  -26.7952   22.1627 C   0  0  0  0  0  0
  -19.1508  -28.8874   23.2896 C   0  0  0  0  0  0
  -18.9441  -30.1475   23.8919 C   0  0  0  0  0  0
  -17.6454  -30.6620   24.0592 C   0  0  0  0  0  0
  -25.9035  -34.9502   23.5136 C   0  0  0  0  0  0
  -16.5347  -29.9131   23.6342 C   0  0  0  0  0  0
  -16.7257  -28.6546   23.0359 C   0  0  0  0  0  0
  -26.4479  -31.6589   25.0672 C   0  0  0  0  0  0
  -25.3761  -31.3639   26.1415 C   0  0  0  0  0  0
  -27.0371  -30.3076   24.6011 C   0  0  0  0  0  0
  -27.6045  -32.4316   25.7441 C   0  0  0  0  0  0
  -27.5570  -37.1801   24.8461 C   0  0  0  0  0  0
  -21.4124  -29.3048   22.3722 N   0  0  0  0  0  0
  -26.4267  -37.3818   23.9432 N   0  0  0  0  0  0
  -24.6675  -31.0729   22.0958 N   0  0  0  0  0  0
  -23.4135  -28.8238   23.3102 O   0  0  0  0  0  0
  -28.4361  -26.7189   20.1132 O   0  0  0  0  0  0
  -26.5605  -34.8974   22.4704 O   0  0  0  0  0  0
  -23.5343  -32.1437   23.7435 O   0  0  0  0  0  0
  -31.7168  -18.7821   21.0478 C   0  0  0  0  0  0
  -29.2491  -19.9870   20.5904 C   0  0  0  0  0  0
  -31.6782  -20.1357   20.6351 C   0  0  0  0  0  0
  -30.5454  -18.0244   21.2778 C   0  0  0  0  0  0
  -30.4219  -20.7611   20.4204 C   0  0  0  0  0  0
  -29.2864  -18.6366   21.0410 C   0  0  0  0  0  0
  -29.2034  -24.3004   20.0537 C   0  0  0  0  0  0
  -29.6003  -23.1422   20.6690 C   0  0  0  0  0  0
  -29.5590  -24.4939   18.6247 C   0  0  0  0  0  0
  -30.7183  -23.6559   18.1026 C   0  0  0  0  0  0
  -30.5334  -22.2046   18.5577 C   0  0  0  0  0  0
  -29.2936  -22.9015   22.1481 C   0  0  0  0  0  0
  -34.7090  -22.5102   21.4179 C   0  0  0  0  0  0
  -26.8892  -18.5816   21.2355 C   0  0  0  0  0  0
  -33.0076  -20.8725   20.4548 C   0  0  0  0  0  0
  -30.7041  -16.6351   21.9357 C   0  0  0  0  0  0
  -28.4028  -25.4239   20.7520 C   0  0  0  0  0  0
  -33.2657  -21.9877   21.4836 C   0  0  0  0  0  0
  -30.3075  -22.1107   20.0023 N   0  0  0  0  0  0
  -30.0793  -15.4458   21.3254 N   0  0  0  0  0  0
  -28.9674  -25.2423   17.8409 O   0  0  0  0  0  0
  -28.1449  -17.9048   21.2962 O   0  0  0  0  0  0
  -31.4676  -12.4383   19.1281 H   0  0  0  0  0  0
  -30.3297  -11.3236   19.8308 H   0  0  0  0  0  0
  -29.7364  -11.8003   17.4319 H   0  0  0  0  0  0
  -29.6592  -13.5148   17.7775 H   0  0  0  0  0  0
  -27.8380  -11.3149   18.8262 H   0  0  0  0  0  0
  -27.3657  -12.6372   17.7902 H   0  0  0  0  0  0
  -27.7028  -14.2593   19.5801 H   0  0  0  0  0  0
  -28.6847  -11.9642   21.3384 H   0  0  0  0  0  0
  -28.4446  -13.5968   21.8739 H   0  0  0  0  0  0
  -25.2811   -9.5668   22.4760 H   0  0  0  0  0  0
  -24.0036   -7.4628   22.7450 H   0  0  0  0  0  0
  -21.0919   -8.8812   19.8920 H   0  0  0  0  0  0
  -22.3789  -10.9709   19.6166 H   0  0  0  0  0  0
  -21.1969   -7.6173   23.9756 H   0  0  0  0  0  0
  -21.1503   -6.0529   25.9091 H   0  0  0  0  0  0
  -22.0589   -2.7645   23.2831 H   0  0  0  0  0  0
  -22.4140  -11.9821   22.4783 H   0  0  0  0  0  0
  -21.1107  -13.1152   22.2620 H   0  0  0  0  0  0
  -24.6540  -15.8415   20.4844 H   0  0  0  0  0  0
  -26.2789  -15.6256   20.0792 H   0  0  0  0  0  0
  -26.7110  -32.5557   23.1103 H   0  0  0  0  0  0
  -24.9976  -33.9761   25.0411 H   0  0  0  0  0  0
  -22.6946  -31.3026   21.3968 H   0  0  0  0  0  0
  -23.3756  -35.9634   23.3312 H   0  0  0  0  0  0
  -24.3555  -36.8982   22.2057 H   0  0  0  0  0  0
  -23.7206  -37.6516   23.6699 H   0  0  0  0  0  0
  -26.0018  -31.5912   20.5597 H   0  0  0  0  0  0
  -26.8254  -30.9241   21.9419 H   0  0  0  0  0  0
  -28.1142  -29.1476   21.1362 H   0  0  0  0  0  0
  -26.0948  -25.9438   19.0711 H   0  0  0  0  0  0
  -23.9923  -27.2365   19.0978 H   0  0  0  0  0  0
  -23.7308  -30.5753   19.4023 H   0  0  0  0  0  0
  -22.7416  -29.2248   19.8651 H   0  0  0  0  0  0
  -25.1276  -36.1979   25.0832 H   0  0  0  0  0  0
  -20.9882  -28.3287   24.1472 H   0  0  0  0  0  0
  -20.5664  -26.2316   23.3613 H   0  0  0  0  0  0
  -21.6622  -26.7505   22.1207 H   0  0  0  0  0  0
  -19.6899  -25.6337   21.1238 H   0  0  0  0  0  0
  -19.6656  -27.3250   20.6769 H   0  0  0  0  0  0
  -17.4137  -26.6726   21.4031 H   0  0  0  0  0  0
  -18.0309  -26.0110   22.9034 H   0  0  0  0  0  0
  -19.7923  -30.7281   24.2290 H   0  0  0  0  0  0
  -17.5020  -31.6304   24.5202 H   0  0  0  0  0  0
  -15.5363  -30.3049   23.7657 H   0  0  0  0  0  0
  -15.8644  -28.0893   22.7047 H   0  0  0  0  0  0
  -24.5929  -30.7015   25.7704 H   0  0  0  0  0  0
  -24.8956  -32.2779   26.4901 H   0  0  0  0  0  0
  -25.8123  -30.8735   27.0135 H   0  0  0  0  0  0
  -26.2924  -29.6742   24.1172 H   0  0  0  0  0  0
  -27.4338  -29.7377   25.4425 H   0  0  0  0  0  0
  -27.8643  -30.4493   23.9066 H   0  0  0  0  0  0
  -27.2668  -33.3622   26.2017 H   0  0  0  0  0  0
  -28.3828  -32.6858   25.0240 H   0  0  0  0  0  0
  -28.0742  -31.8437   26.5337 H   0  0  0  0  0  0
  -28.2548  -38.0125   24.7568 H   0  0  0  0  0  0
  -28.1101  -36.2663   24.6230 H   0  0  0  0  0  0
  -27.2289  -37.1381   25.8856 H   0  0  0  0  0  0
  -20.9300  -29.8761   21.6925 H   0  0  0  0  0  0
  -26.0166  -38.2896   24.1502 H   0  0  0  0  0  0
  -32.6779  -18.3227   21.2304 H   0  0  0  0  0  0
  -28.3126  -20.4786   20.3806 H   0  0  0  0  0  0
  -31.6447  -24.0686   18.5020 H   0  0  0  0  0  0
  -30.7761  -23.7153   17.0162 H   0  0  0  0  0  0
  -31.3874  -21.6110   18.2352 H   0  0  0  0  0  0
  -29.6639  -21.7815   18.0531 H   0  0  0  0  0  0
  -28.2252  -23.0170   22.3390 H   0  0  0  0  0  0
  -29.8234  -23.6291   22.7649 H   0  0  0  0  0  0
  -29.5735  -21.9171   22.5232 H   0  0  0  0  0  0
  -34.8929  -23.2663   22.1829 H   0  0  0  0  0  0
  -34.9205  -22.9635   20.4484 H   0  0  0  0  0  0
  -35.4303  -21.7066   21.5716 H   0  0  0  0  0  0
  -26.0898  -17.9016   21.5256 H   0  0  0  0  0  0
  -26.6614  -18.9365   20.2289 H   0  0  0  0  0  0
  -26.8545  -19.4274   21.9238 H   0  0  0  0  0  0
  -33.0836  -21.2808   19.4500 H   0  0  0  0  0  0
  -33.8165  -20.1444   20.5216 H   0  0  0  0  0  0
  -30.2928  -16.7190   22.9435 H   0  0  0  0  0  0
  -31.7653  -16.4350   22.0928 H   0  0  0  0  0  0
  -28.8069  -25.5713   21.7555 H   0  0  0  0  0  0
  -27.3846  -25.0628   20.8942 H   0  0  0  0  0  0
  -32.5773  -22.8177   21.3236 H   0  0  0  0  0  0
  -33.0701  -21.6129   22.4893 H   0  0  0  0  0  0
  -29.1540  -15.2202   21.6556 H   0  0  0  0  0  0
  1 25  1  0  0  0
  1 30  2  0  0  0
  1 90  1  0  0  0
  2  3  1  0  0  0
  2 25  1  0  0  0
  2 93  1  0  0  0
  2 94  1  0  0  0
  3  4  1  0  0  0
  3 95  1  0  0  0
  3 96  1  0  0  0
  4  5  1  0  0  0
  4 97  1  0  0  0
  4 98  1  0  0  0
  5  6  1  0  0  0
  5 26  1  0  0  0
  5 99  1  0  0  0
  6 25  1  0  0  0
  6100  1  0  0  0
  6101  1  0  0  0
  7  8  2  0  0  0
  7 26  1  0  0  0
  7 29  1  0  0  0
  8  9  1  0  0  0
  8 22  1  0  0  0
  9 10  1  0  0  0
  9 27  2  0  0  0
 10 11  2  0  0  0
 10 15  1  0  0  0
 11 12  1  0  0  0
 11102  1  0  0  0
 12 13  2  0  0  0
 12103  1  0  0  0
 13 14  1  0  0  0
 13 31  1  0  0  0
 14 15  2  0  0  0
 14104  1  0  0  0
 15105  1  0  0  0
 16 17  2  0  0  0
 16 21  1  0  0  0
 16 31  1  0  0  0
 17 18  1  0  0  0
 17106  1  0  0  0
 18 19  2  0  0  0
 18107  1  0  0  0
 19 20  1  0  0  0
 19 24  1  0  0  0
 20 21  2  0  0  0
 20108  1  0  0  0
 21 23  1  0  0  0
 22 28  1  0  0  0
 22 32  2  0  0  0
 26 27  1  0  0  0
 28109  1  0  0  0
 28110  1  0  0  0
 29111  1  0  0  0
 29112  1  0  0  0
 33 34  1  0  0  0
 33 66  1  0  0  0
 33 70  2  0  0  0
 34 36  1  0  0  0
 34 59  1  0  0  0
 34113  1  0  0  0
 35 44  2  0  0  0
 35 45  1  0  0  0
 35 68  1  0  0  0
 36 56  1  0  0  0
 36114  1  0  0  0
 37 39  1  0  0  0
 37 47  1  0  0  0
 37 66  1  0  0  0
 37115  1  0  0  0
 38 43  2  0  0  0
 38 46  1  0  0  0
 38 47  1  0  0  0
 39 64  1  0  0  0
 39 67  2  0  0  0
 40 52  1  0  0  0
 40 53  2  0  0  0
 40 58  1  0  0  0
 41116  1  0  0  0
 41117  1  0  0  0
 41118  1  0  0  0
 41 48  1  0  0  0
 42 43  1  0  0  0
 42 66  1  0  0  0
 42119  1  0  0  0
 42120  1  0  0  0
 43 44  1  0  0  0
 44121  1  0  0  0
 45 46  2  0  0  0
 45122  1  0  0  0
 46123  1  0  0  0
 47124  1  0  0  0
 47125  1  0  0  0
 48 56  1  0  0  0
 48 65  1  0  0  0
 48126  1  0  0  0
 49 50  1  0  0  0
 49 53  1  0  0  0
 49 64  1  0  0  0
 49127  1  0  0  0
 50 51  1  0  0  0
 50128  1  0  0  0
 50129  1  0  0  0
 51 52  1  0  0  0
 51130  1  0  0  0
 51131  1  0  0  0
 52132  1  0  0  0
 52133  1  0  0  0
 53 54  1  0  0  0
 54 55  2  0  0  0
 54134  1  0  0  0
 55 57  1  0  0  0
 55135  1  0  0  0
 56 69  2  0  0  0
 57 58  2  0  0  0
 57136  1  0  0  0
 58137  1  0  0  0
 59 60  1  0  0  0
 59 61  1  0  0  0
 59 62  1  0  0  0
 60138  1  0  0  0
 60139  1  0  0  0
 60140  1  0  0  0
 61141  1  0  0  0
 61142  1  0  0  0
 61143  1  0  0  0
 62144  1  0  0  0
 62145  1  0  0  0
 62146  1  0  0  0
 63 65  1  0  0  0
 63147  1  0  0  0
 63148  1  0  0  0
 63149  1  0  0  0
 64150  1  0  0  0
 65151  1  0  0  0
 68 87  1  0  0  0
 71 73  2  0  0  0
 71 74  1  0  0  0
 71152  1  0  0  0
 72 75  2  0  0  0
 72 76  1  0  0  0
 72153  1  0  0  0
 73 75  1  0  0  0
 73 85  1  0  0  0
 74 76  2  0  0  0
 74 86  1  0  0  0
 75 89  1  0  0  0
 76 92  1  0  0  0
 77 78  2  0  0  0
 77 79  1  0  0  0
 77 87  1  0  0  0
 78 82  1  0  0  0
 78 89  1  0  0  0
 79 80  1  0  0  0
 79 91  2  0  0  0
 80 81  1  0  0  0
 80154  1  0  0  0
 80155  1  0  0  0
 81 89  1  0  0  0
 81156  1  0  0  0
 81157  1  0  0  0
 82158  1  0  0  0
 82159  1  0  0  0
 82160  1  0  0  0
 83 88  1  0  0  0
 83161  1  0  0  0
 83162  1  0  0  0
 83163  1  0  0  0
 84 92  1  0  0  0
 84164  1  0  0  0
 84165  1  0  0  0
 84166  1  0  0  0
 85 88  1  0  0  0
 85167  1  0  0  0
 85168  1  0  0  0
 86 90  1  0  0  0
 86169  1  0  0  0
 86170  1  0  0  0
 87171  1  0  0  0
 87172  1  0  0  0
 88173  1  0  0  0
 88174  1  0  0  0
 90175  1  0  0  0
M  ISO  4   1 100  68 101  87 101  90 100
M  END
> <chiral flag>
0

> <version>
0

> <s_m_source_file>
/data/baiqing/PycharmProjects/Reinvent-master-3.2/result/LINK_invent/BTK/process_docking_weight1_custom_product_contain_oxygen_bond_distance_aromatic_linkinvent_7_9_3/rearranged_h_0108.sdf

> <i_m_source_file_index>
12

> <r_mmod_Potential_Energy-OPLS-2005>
-22.4972076416016

> <r_mmod_Stretch_Energy-OPLS-2005>
49.9518585205078

> <r_mmod_Bend_Energy-OPLS-2005>
115.10147857666

> <r_mmod_Torsional_Energy-OPLS-2005>
229.749649047852

> <r_mmod_Improper_Torsional_Energy-OPLS-2005>
4.82083702087402

> <r_mmod_Van_der_Waal_Energy-OPLS-2005>
169.041687011719

> <r_mmod_Electrostatic_Energy-OPLS-2005>
-387.276947021484

> <r_mmod_Solvation_Energy-OPLS-2005>
-217.035003662109

> <b_mmod_Minimization_Converged-OPLS-2005>
0

> <r_mmod_RMS_Derivative-OPLS-2005>
3.8150680065155

$$$$
13
                    3D
 Structure written by MMmdl.
169178  0  0  1  0            999 V2000
  -30.6908  -14.4934   20.4324 C   0  0  0  0  0  0
  -30.4035  -12.2879   19.4129 C   0  0  0  0  0  0
  -29.4800  -12.4704   18.1892 C   0  0  0  0  0  0
  -27.9970  -12.3598   18.6035 C   0  0  0  0  0  0
  -27.6415  -13.2097   19.8544 C   0  0  2  0  0  0
  -28.6981  -13.0530   20.9751 C   0  0  0  0  0  0
  -25.2446  -13.8086   20.5783 C   0  0  0  0  0  0
  -24.1725  -13.0331   20.9220 C   0  0  0  0  0  0
  -24.6339  -11.6843   20.8735 C   0  0  0  0  0  0
  -23.9039  -10.4234   21.0404 C   0  0  0  0  0  0
  -24.3618   -9.4162   21.9170 C   0  0  0  0  0  0
  -23.6289   -8.2204   22.0751 C   0  0  0  0  0  0
  -22.4262   -8.0247   21.3563 C   0  0  0  0  0  0
  -21.9914   -9.0215   20.4643 C   0  0  0  0  0  0
  -22.7230  -10.2095   20.3036 C   0  0  0  0  0  0
  -21.6816   -6.0703   22.5311 C   0  0  0  0  0  0
  -21.3973   -6.5606   23.8245 C   0  0  0  0  0  0
  -21.3661   -5.6769   24.9209 C   0  0  0  0  0  0
  -21.6052   -4.3032   24.7250 C   0  0  0  0  0  0
  -21.8814   -3.8117   23.4371 C   0  0  0  0  0  0
  -21.9170   -4.6933   22.3424 C   0  0  0  0  0  0
  -22.7754  -13.5150   21.1883 C   0  0  0  0  0  0
  -22.1652   -4.2135   21.0991 F   0  0  0  0  0  0
  -21.5680   -3.4508   25.7751 F   0  0  0  0  0  0
  -30.0197  -13.3136   20.3918 N   0  0  0  0  0  0
  -26.2904  -12.9307   20.3318 N   0  0  0  0  0  0
  -25.9265  -11.6463   20.5752 N   0  0  0  0  0  0
  -22.0364  -12.8170   22.0444 N   0  0  0  0  0  0
  -25.3974  -15.1790   20.4405 N   0  0  0  0  0  0
  -31.9086  -14.5607   20.2426 O   0  0  0  0  0  0
  -21.6613   -6.8855   21.4271 O   0  0  0  0  0  0
  -22.3446  -14.5459   20.6735 O   0  0  0  0  0  0
  -24.6147  -31.8695   23.2131 C   0  0  0  0  0  0
  -25.9030  -32.4849   23.8446 C   0  0  1  0  0  0
  -27.2409  -27.4569   20.1010 C   0  0  0  0  0  0
  -25.5883  -33.8645   24.2375 N   0  0  0  0  0  0
  -23.4054  -30.4907   21.5548 C   0  0  2  0  0  0
  -24.8548  -28.9575   20.1192 C   0  0  0  0  0  0
  -22.7424  -29.4652   22.5025 C   0  0  0  0  0  0
  -18.0271  -28.1396   22.8515 C   0  0  0  0  0  0
  -24.1475  -36.7316   23.2652 C   0  0  0  0  0  0
  -25.9302  -30.8453   21.3599 C   0  0  0  0  0  0
  -26.0118  -29.4781   20.7120 C   0  0  0  0  0  0
  -27.2136  -28.7361   20.6940 C   0  0  0  0  0  0
  -26.0680  -26.9366   19.5129 C   0  0  0  0  0  0
  -24.8755  -27.6855   19.5160 C   0  0  0  0  0  0
  -23.6144  -29.8212   20.1693 C   0  0  0  0  0  0
  -25.4104  -36.3144   24.0354 C   0  0  1  0  0  0
  -20.5865  -28.3678   23.1344 C   0  0  2  0  0  0
  -20.6768  -26.9425   22.5432 C   0  0  0  0  0  0
  -19.5736  -26.6414   21.5233 C   0  0  0  0  0  0
  -18.1911  -26.7947   22.1643 C   0  0  0  0  0  0
  -19.1526  -28.8853   23.2936 C   0  0  0  0  0  0
  -18.9437  -30.1461   23.8945 C   0  0  0  0  0  0
  -17.6440  -30.6601   24.0585 C   0  0  0  0  0  0
  -25.9026  -34.9493   23.5162 C   0  0  0  0  0  0
  -16.5334  -29.9106   23.6333 C   0  0  0  0  0  0
  -16.7260  -28.6511   23.0380 C   0  0  0  0  0  0
  -26.4473  -31.6620   25.0756 C   0  0  0  0  0  0
  -25.3725  -31.3615   26.1473 C   0  0  0  0  0  0
  -27.0369  -30.3119   24.6078 C   0  0  0  0  0  0
  -27.6074  -32.4330   25.7485 C   0  0  0  0  0  0
  -27.5576  -37.1817   24.8478 C   0  0  0  0  0  0
  -21.4155  -29.3040   22.3742 N   0  0  0  0  0  0
  -26.4302  -37.3826   23.9409 N   0  0  0  0  0  0
  -24.6700  -31.0785   22.1044 N   0  0  0  0  0  0
  -23.4187  -28.8198   23.3073 O   0  0  0  0  0  0
  -28.4034  -26.7295   20.0590 O   0  0  0  0  0  0
  -26.5596  -34.8941   22.4725 O   0  0  0  0  0  0
  -23.5325  -32.1437   23.7514 O   0  0  0  0  0  0
  -28.5169  -19.9345   19.5116 C   0  0  0  0  0  0
  -30.2691  -19.9836   21.1891 C   0  0  0  0  0  0
  -28.3148  -18.5488   19.7316 C   0  0  0  0  0  0
  -29.1429  -17.8662   20.6724 C   0  0  0  0  0  0
  -29.4806  -20.6626   20.2410 C   0  0  0  0  0  0
  -30.1032  -18.6032   21.4008 C   0  0  0  0  0  0
  -29.2357  -24.4064   20.3733 C   0  0  0  0  0  0
  -28.8781  -23.0951   20.5011 C   0  0  0  0  0  0
  -30.4846  -24.7361   19.6410 C   0  0  0  0  0  0
  -26.8605  -18.2107   17.7137 C   0  0  0  0  0  0
  -27.2982  -17.8412   18.9287 C   0  0  0  0  0  0
  -31.0124  -23.6627   18.6961 C   0  0  0  0  0  0
  -30.9865  -22.3044   19.4085 C   0  0  0  0  0  0
  -27.6031  -22.6922   21.2416 C   0  0  0  0  0  0
  -30.3076  -16.1493   18.7082 C   0  0  0  0  0  0
  -29.0852  -16.3430   20.8958 C   0  0  0  0  0  0
  -28.4385  -25.5937   20.9344 C   0  0  0  0  0  0
  -29.6726  -22.0412   20.0054 N   0  0  0  0  0  0
  -29.9338  -15.5320   19.9933 N   0  0  0  0  0  0
  -31.1134  -25.7920   19.7648 O   0  0  0  0  0  0
  -30.8920  -17.9747   22.3069 F   0  0  0  0  0  0
  -31.4531  -12.3594   19.1170 H   0  0  0  0  0  0
  -30.2696  -11.2939   19.8370 H   0  0  0  0  0  0
  -29.7049  -11.7249   17.4233 H   0  0  0  0  0  0
  -29.6591  -13.4401   17.7254 H   0  0  0  0  0  0
  -27.7829  -11.3066   18.7892 H   0  0  0  0  0  0
  -27.3618  -12.6555   17.7670 H   0  0  0  0  0  0
  -27.6462  -14.2399   19.5074 H   0  0  0  0  0  0
  -28.6751  -12.0446   21.3892 H   0  0  0  0  0  0
  -28.4860  -13.7314   21.8030 H   0  0  0  0  0  0
  -25.2764   -9.5677   22.4731 H   0  0  0  0  0  0
  -23.9992   -7.4600   22.7464 H   0  0  0  0  0  0
  -21.0858   -8.8726   19.8949 H   0  0  0  0  0  0
  -22.3670  -10.9639   19.6141 H   0  0  0  0  0  0
  -21.1935   -7.6110   23.9757 H   0  0  0  0  0  0
  -21.1514   -6.0494   25.9129 H   0  0  0  0  0  0
  -22.0598   -2.7575   23.2883 H   0  0  0  0  0  0
  -22.3940  -11.9840   22.4894 H   0  0  0  0  0  0
  -21.0966  -13.1223   22.2564 H   0  0  0  0  0  0
  -24.6224  -15.8205   20.5729 H   0  0  0  0  0  0
  -26.2529  -15.6397   20.1756 H   0  0  0  0  0  0
  -26.7102  -32.5584   23.1225 H   0  0  0  0  0  0
  -25.0021  -33.9825   25.0510 H   0  0  0  0  0  0
  -22.6969  -31.3102   21.4175 H   0  0  0  0  0  0
  -23.3775  -35.9610   23.3331 H   0  0  0  0  0  0
  -24.3551  -36.8929   22.2063 H   0  0  0  0  0  0
  -23.7181  -37.6500   23.6658 H   0  0  0  0  0  0
  -26.0284  -31.6096   20.5875 H   0  0  0  0  0  0
  -26.8227  -30.9094   21.9714 H   0  0  0  0  0  0
  -28.1148  -29.1414   21.1356 H   0  0  0  0  0  0
  -26.0836  -25.9579   19.0527 H   0  0  0  0  0  0
  -23.9853  -27.2829   19.0546 H   0  0  0  0  0  0
  -23.7233  -30.6007   19.4141 H   0  0  0  0  0  0
  -22.7415  -29.2390   19.8690 H   0  0  0  0  0  0
  -25.1271  -36.2042   25.0847 H   0  0  0  0  0  0
  -20.9942  -28.3236   24.1473 H   0  0  0  0  0  0
  -20.5733  -26.2263   23.3605 H   0  0  0  0  0  0
  -21.6623  -26.7507   22.1186 H   0  0  0  0  0  0
  -19.6896  -25.6335   21.1244 H   0  0  0  0  0  0
  -19.6668  -27.3244   20.6779 H   0  0  0  0  0  0
  -17.4189  -26.6752   21.4034 H   0  0  0  0  0  0
  -18.0276  -26.0069   22.9016 H   0  0  0  0  0  0
  -19.7897  -30.7267   24.2360 H   0  0  0  0  0  0
  -17.4982  -31.6288   24.5179 H   0  0  0  0  0  0
  -15.5337  -30.3026   23.7618 H   0  0  0  0  0  0
  -15.8660  -28.0834   22.7093 H   0  0  0  0  0  0
  -24.5938  -30.6968   25.7717 H   0  0  0  0  0  0
  -24.8860  -32.2706   26.5002 H   0  0  0  0  0  0
  -25.8051  -30.8690   27.0190 H   0  0  0  0  0  0
  -26.2914  -29.6799   24.1247 H   0  0  0  0  0  0
  -27.4360  -29.7424   25.4481 H   0  0  0  0  0  0
  -27.8621  -30.4582   23.9110 H   0  0  0  0  0  0
  -27.2776  -33.3668   26.2059 H   0  0  0  0  0  0
  -28.3842  -32.6822   25.0238 H   0  0  0  0  0  0
  -28.0790  -31.8450   26.5377 H   0  0  0  0  0  0
  -28.2616  -38.0110   24.7560 H   0  0  0  0  0  0
  -28.1068  -36.2635   24.6292 H   0  0  0  0  0  0
  -27.2284  -37.1449   25.8889 H   0  0  0  0  0  0
  -20.9329  -29.8716   21.6917 H   0  0  0  0  0  0
  -26.0212  -38.2912   24.1423 H   0  0  0  0  0  0
  -27.9101  -20.4628   18.7887 H   0  0  0  0  0  0
  -31.0020  -20.5205   21.7713 H   0  0  0  0  0  0
  -26.0905  -17.6434   17.2104 H   0  0  0  0  0  0
  -27.2551  -19.0717   17.1932 H   0  0  0  0  0  0
  -26.8485  -16.9681   19.3652 H   0  0  0  0  0  0
  -32.0119  -23.9116   18.3387 H   0  0  0  0  0  0
  -30.3571  -23.6355   17.8248 H   0  0  0  0  0  0
  -31.7387  -22.2997   20.1988 H   0  0  0  0  0  0
  -31.2661  -21.5185   18.7040 H   0  0  0  0  0  0
  -26.7298  -23.0647   20.7022 H   0  0  0  0  0  0
  -27.5981  -23.1284   22.2417 H   0  0  0  0  0  0
  -27.4639  -21.6208   21.3754 H   0  0  0  0  0  0
  -30.8515  -15.4660   18.0504 H   0  0  0  0  0  0
  -30.9503  -17.0160   18.8579 H   0  0  0  0  0  0
  -29.4239  -16.4588   18.1545 H   0  0  0  0  0  0
  -28.0555  -15.9971   20.8565 H   0  0  0  0  0  0
  -29.3823  -16.1494   21.9276 H   0  0  0  0  0  0
  -28.9126  -25.9060   21.8649 H   0  0  0  0  0  0
  -27.4308  -25.2826   21.2067 H   0  0  0  0  0  0
  1 25  1  0  0  0
  1 30  2  0  0  0
  1 89  1  0  0  0
  2  3  1  0  0  0
  2 25  1  0  0  0
  2 92  1  0  0  0
  2 93  1  0  0  0
  3  4  1  0  0  0
  3 94  1  0  0  0
  3 95  1  0  0  0
  4  5  1  0  0  0
  4 96  1  0  0  0
  4 97  1  0  0  0
  5  6  1  0  0  0
  5 26  1  0  0  0
  5 98  1  0  0  0
  6 25  1  0  0  0
  6 99  1  0  0  0
  6100  1  0  0  0
  7  8  2  0  0  0
  7 26  1  0  0  0
  7 29  1  0  0  0
  8  9  1  0  0  0
  8 22  1  0  0  0
  9 10  1  0  0  0
  9 27  2  0  0  0
 10 11  2  0  0  0
 10 15  1  0  0  0
 11 12  1  0  0  0
 11101  1  0  0  0
 12 13  2  0  0  0
 12102  1  0  0  0
 13 14  1  0  0  0
 13 31  1  0  0  0
 14 15  2  0  0  0
 14103  1  0  0  0
 15104  1  0  0  0
 16 17  2  0  0  0
 16 21  1  0  0  0
 16 31  1  0  0  0
 17 18  1  0  0  0
 17105  1  0  0  0
 18 19  2  0  0  0
 18106  1  0  0  0
 19 20  1  0  0  0
 19 24  1  0  0  0
 20 21  2  0  0  0
 20107  1  0  0  0
 21 23  1  0  0  0
 22 28  1  0  0  0
 22 32  2  0  0  0
 26 27  1  0  0  0
 28108  1  0  0  0
 28109  1  0  0  0
 29110  1  0  0  0
 29111  1  0  0  0
 33 34  1  0  0  0
 33 66  1  0  0  0
 33 70  2  0  0  0
 34 36  1  0  0  0
 34 59  1  0  0  0
 34112  1  0  0  0
 35 44  2  0  0  0
 35 45  1  0  0  0
 35 68  1  0  0  0
 36 56  1  0  0  0
 36113  1  0  0  0
 37 39  1  0  0  0
 37 47  1  0  0  0
 37 66  1  0  0  0
 37114  1  0  0  0
 38 43  2  0  0  0
 38 46  1  0  0  0
 38 47  1  0  0  0
 39 64  1  0  0  0
 39 67  2  0  0  0
 40 52  1  0  0  0
 40 53  2  0  0  0
 40 58  1  0  0  0
 41115  1  0  0  0
 41116  1  0  0  0
 41117  1  0  0  0
 41 48  1  0  0  0
 42 43  1  0  0  0
 42 66  1  0  0  0
 42118  1  0  0  0
 42119  1  0  0  0
 43 44  1  0  0  0
 44120  1  0  0  0
 45 46  2  0  0  0
 45121  1  0  0  0
 46122  1  0  0  0
 47123  1  0  0  0
 47124  1  0  0  0
 48 56  1  0  0  0
 48 65  1  0  0  0
 48125  1  0  0  0
 49 50  1  0  0  0
 49 53  1  0  0  0
 49 64  1  0  0  0
 49126  1  0  0  0
 50 51  1  0  0  0
 50127  1  0  0  0
 50128  1  0  0  0
 51 52  1  0  0  0
 51129  1  0  0  0
 51130  1  0  0  0
 52131  1  0  0  0
 52132  1  0  0  0
 53 54  1  0  0  0
 54 55  2  0  0  0
 54133  1  0  0  0
 55 57  1  0  0  0
 55134  1  0  0  0
 56 69  2  0  0  0
 57 58  2  0  0  0
 57135  1  0  0  0
 58136  1  0  0  0
 59 60  1  0  0  0
 59 61  1  0  0  0
 59 62  1  0  0  0
 60137  1  0  0  0
 60138  1  0  0  0
 60139  1  0  0  0
 61140  1  0  0  0
 61141  1  0  0  0
 61142  1  0  0  0
 62143  1  0  0  0
 62144  1  0  0  0
 62145  1  0  0  0
 63 65  1  0  0  0
 63146  1  0  0  0
 63147  1  0  0  0
 63148  1  0  0  0
 64149  1  0  0  0
 65150  1  0  0  0
 68 87  1  0  0  0
 71 73  2  0  0  0
 71 75  1  0  0  0
 71151  1  0  0  0
 72 75  2  0  0  0
 72 76  1  0  0  0
 72152  1  0  0  0
 73 74  1  0  0  0
 73 81  1  0  0  0
 74 76  2  0  0  0
 74 86  1  0  0  0
 75 88  1  0  0  0
 76 91  1  0  0  0
 77 78  2  0  0  0
 77 79  1  0  0  0
 77 87  1  0  0  0
 78 84  1  0  0  0
 78 88  1  0  0  0
 79 82  1  0  0  0
 79 90  2  0  0  0
 80 81  2  0  0  0
 80153  1  0  0  0
 80154  1  0  0  0
 81155  1  0  0  0
 82 83  1  0  0  0
 82156  1  0  0  0
 82157  1  0  0  0
 83 88  1  0  0  0
 83158  1  0  0  0
 83159  1  0  0  0
 84160  1  0  0  0
 84161  1  0  0  0
 84162  1  0  0  0
 85 89  1  0  0  0
 85163  1  0  0  0
 85164  1  0  0  0
 85165  1  0  0  0
 86 89  1  0  0  0
 86166  1  0  0  0
 86167  1  0  0  0
 87168  1  0  0  0
 87169  1  0  0  0
M  ISO  4   1 100  68 101  87 101  89 100
M  END
> <chiral flag>
0

> <version>
0

> <s_m_source_file>
/data/baiqing/PycharmProjects/Reinvent-master-3.2/result/LINK_invent/BTK/process_docking_weight1_custom_product_contain_oxygen_bond_distance_aromatic_linkinvent_7_9_3/rearranged_h_0108.sdf

> <i_m_source_file_index>
13

> <r_mmod_Potential_Energy-OPLS-2005>
199.503890991211

> <r_mmod_Stretch_Energy-OPLS-2005>
43.8191680908203

> <r_mmod_Bend_Energy-OPLS-2005>
95.8680419921875

> <r_mmod_Torsional_Energy-OPLS-2005>
326.285034179688

> <r_mmod_Improper_Torsional_Energy-OPLS-2005>
27.1805839538574

> <r_mmod_Van_der_Waal_Energy-OPLS-2005>
176.407760620117

> <r_mmod_Electrostatic_Energy-OPLS-2005>
-289.303161621094

> <r_mmod_Solvation_Energy-OPLS-2005>
-205.008483886719

> <b_mmod_Minimization_Converged-OPLS-2005>
0

> <r_mmod_RMS_Derivative-OPLS-2005>
3.89904832839966

$$$$
14
                    3D
 Structure written by MMmdl.
164173  0  0  1  0            999 V2000
  -30.7383  -14.4459   20.6450 C   0  0  0  0  0  0
  -30.4183  -12.3267   19.4079 C   0  0  0  0  0  0
  -29.4846  -12.5225   18.1982 C   0  0  0  0  0  0
  -28.0083  -12.3794   18.6133 C   0  0  0  0  0  0
  -27.6593  -13.2131   19.8731 C   0  0  2  0  0  0
  -28.6998  -12.9902   20.9912 C   0  0  0  0  0  0
  -25.2550  -13.8171   20.5686 C   0  0  0  0  0  0
  -24.1831  -13.0432   20.9198 C   0  0  0  0  0  0
  -24.6401  -11.6906   20.8751 C   0  0  0  0  0  0
  -23.9077  -10.4292   21.0412 C   0  0  0  0  0  0
  -24.3623   -9.4206   21.9198 C   0  0  0  0  0  0
  -23.6305   -8.2240   22.0761 C   0  0  0  0  0  0
  -22.4296   -8.0285   21.3541 C   0  0  0  0  0  0
  -21.9945   -9.0249   20.4628 C   0  0  0  0  0  0
  -22.7261  -10.2130   20.3048 C   0  0  0  0  0  0
  -21.6855   -6.0755   22.5282 C   0  0  0  0  0  0
  -21.3999   -6.5648   23.8220 C   0  0  0  0  0  0
  -21.3654   -5.6791   24.9182 C   0  0  0  0  0  0
  -21.6049   -4.3056   24.7223 C   0  0  0  0  0  0
  -21.8817   -3.8158   23.4336 C   0  0  0  0  0  0
  -21.9191   -4.6982   22.3395 C   0  0  0  0  0  0
  -22.7848  -13.5220   21.1846 C   0  0  0  0  0  0
  -22.1667   -4.2169   21.0968 F   0  0  0  0  0  0
  -21.5629   -3.4535   25.7725 F   0  0  0  0  0  0
  -30.0334  -13.2988   20.4447 N   0  0  0  0  0  0
  -26.3007  -12.9375   20.3349 N   0  0  0  0  0  0
  -25.9328  -11.6520   20.5758 N   0  0  0  0  0  0
  -22.0484  -12.8221   22.0394 N   0  0  0  0  0  0
  -25.4226  -15.1888   20.4058 N   0  0  0  0  0  0
  -31.8176  -14.6707   20.0907 O   0  0  0  0  0  0
  -21.6646   -6.8900   21.4245 O   0  0  0  0  0  0
  -22.3528  -14.5530   20.6689 O   0  0  0  0  0  0
  -24.6159  -31.8703   23.2160 C   0  0  0  0  0  0
  -25.9035  -32.4836   23.8435 C   0  0  1  0  0  0
  -27.2032  -27.3999   20.0905 C   0  0  0  0  0  0
  -25.5872  -33.8638   24.2316 N   0  0  0  0  0  0
  -23.4032  -30.5032   21.5593 C   0  0  2  0  0  0
  -24.8421  -28.9841   20.1083 C   0  0  0  0  0  0
  -22.7424  -29.4683   22.4999 C   0  0  0  0  0  0
  -18.0259  -28.1410   22.8532 C   0  0  0  0  0  0
  -24.1489  -36.7328   23.2657 C   0  0  0  0  0  0
  -25.9426  -30.8217   21.3817 C   0  0  0  0  0  0
  -26.0131  -29.4644   20.7097 C   0  0  0  0  0  0
  -27.1999  -28.6828   20.6979 C   0  0  0  0  0  0
  -26.0084  -26.9696   19.4536 C   0  0  0  0  0  0
  -24.8380  -27.7370   19.4772 C   0  0  0  0  0  0
  -23.6105  -29.8568   20.1686 C   0  0  0  0  0  0
  -25.4110  -36.3121   24.0350 C   0  0  1  0  0  0
  -20.5848  -28.3689   23.1340 C   0  0  2  0  0  0
  -20.6732  -26.9427   22.5424 C   0  0  0  0  0  0
  -19.5690  -26.6403   21.5241 C   0  0  0  0  0  0
  -18.1879  -26.7956   22.1652 C   0  0  0  0  0  0
  -19.1515  -28.8871   23.2924 C   0  0  0  0  0  0
  -18.9442  -30.1489   23.8918 C   0  0  0  0  0  0
  -17.6447  -30.6631   24.0586 C   0  0  0  0  0  0
  -25.9048  -34.9494   23.5133 C   0  0  0  0  0  0
  -16.5333  -29.9134   23.6369 C   0  0  0  0  0  0
  -16.7245  -28.6547   23.0388 C   0  0  0  0  0  0
  -26.4452  -31.6659   25.0808 C   0  0  0  0  0  0
  -25.3690  -31.3684   26.1521 C   0  0  0  0  0  0
  -27.0379  -30.3125   24.6250 C   0  0  0  0  0  0
  -27.5979  -32.4452   25.7575 C   0  0  0  0  0  0
  -27.5607  -37.1791   24.8452 C   0  0  0  0  0  0
  -21.4138  -29.3072   22.3764 N   0  0  0  0  0  0
  -26.4262  -37.3852   23.9489 N   0  0  0  0  0  0
  -24.6729  -31.0780   22.1088 N   0  0  0  0  0  0
  -23.4206  -28.8153   23.2983 O   0  0  0  0  0  0
  -28.3172  -26.5654   20.1568 O   0  0  0  0  0  0
  -26.5648  -34.8934   22.4720 O   0  0  0  0  0  0
  -23.5339  -32.1463   23.7536 O   0  0  0  0  0  0
  -29.0863  -19.7951   21.1986 C   0  0  0  0  0  0
  -31.4488  -20.2038   21.4168 C   0  0  0  0  0  0
  -29.2799  -18.4127   21.4567 C   0  0  0  0  0  0
  -30.5865  -17.9116   21.7097 C   0  0  0  0  0  0
  -30.1547  -20.7300   21.1972 C   0  0  0  0  0  0
  -31.6608  -18.8354   21.6768 C   0  0  0  0  0  0
  -28.8132  -22.9092   20.9994 C   0  0  0  0  0  0
  -29.0303  -24.1041   20.4108 C   0  0  0  0  0  0
  -26.4257  -22.3177   20.7713 C   0  0  0  0  0  0
  -27.5242  -22.4871   21.5256 C   0  0  0  0  0  0
  -30.4556  -24.2520   19.9634 C   0  0  0  0  0  0
  -31.0657  -22.8943   20.3670 C   0  0  0  0  0  0
  -28.0566  -17.5095   21.4842 C   0  0  0  0  0  0
  -30.8948  -16.4583   22.1374 C   0  0  0  0  0  0
  -27.9783  -25.1583   20.0610 C   0  0  0  0  0  0
  -29.9681  -22.1278   20.9751 N   0  0  0  0  0  0
  -30.1910  -15.3346   21.4940 N   0  0  0  0  0  0
  -32.9246  -18.4175   21.9316 F   0  0  0  0  0  0
  -31.4590  -12.4391   19.0975 H   0  0  0  0  0  0
  -30.3308  -11.3118   19.8003 H   0  0  0  0  0  0
  -29.7201  -11.8019   17.4136 H   0  0  0  0  0  0
  -29.6510  -13.5094   17.7629 H   0  0  0  0  0  0
  -27.8160  -11.3228   18.8019 H   0  0  0  0  0  0
  -27.3567  -12.6645   17.7860 H   0  0  0  0  0  0
  -27.7047  -14.2625   19.5816 H   0  0  0  0  0  0
  -28.6799  -11.9532   21.3284 H   0  0  0  0  0  0
  -28.4435  -13.5828   21.8693 H   0  0  0  0  0  0
  -25.2766   -9.5690   22.4766 H   0  0  0  0  0  0
  -24.0006   -7.4652   22.7493 H   0  0  0  0  0  0
  -21.0883   -8.8766   19.8921 H   0  0  0  0  0  0
  -22.3735  -10.9672   19.6141 H   0  0  0  0  0  0
  -21.1996   -7.6168   23.9725 H   0  0  0  0  0  0
  -21.1471   -6.0524   25.9078 H   0  0  0  0  0  0
  -22.0606   -2.7618   23.2826 H   0  0  0  0  0  0
  -22.4091  -11.9870   22.4762 H   0  0  0  0  0  0
  -21.1104  -13.1241   22.2609 H   0  0  0  0  0  0
  -24.6462  -15.8340   20.5030 H   0  0  0  0  0  0
  -26.2599  -15.6257   20.0447 H   0  0  0  0  0  0
  -26.7094  -32.5530   23.1177 H   0  0  0  0  0  0
  -24.9913  -33.9810   25.0377 H   0  0  0  0  0  0
  -22.6910  -31.3219   21.4308 H   0  0  0  0  0  0
  -23.3823  -35.9588   23.3173 H   0  0  0  0  0  0
  -24.3595  -36.9138   22.2108 H   0  0  0  0  0  0
  -23.7133  -37.6418   23.6798 H   0  0  0  0  0  0
  -26.0749  -31.5979   20.6280 H   0  0  0  0  0  0
  -26.8203  -30.8524   22.0152 H   0  0  0  0  0  0
  -28.0962  -29.0433   21.1814 H   0  0  0  0  0  0
  -25.9270  -26.0263   18.9343 H   0  0  0  0  0  0
  -23.9413  -27.3661   19.0008 H   0  0  0  0  0  0
  -23.7273  -30.6430   19.4229 H   0  0  0  0  0  0
  -22.7284  -29.2925   19.8601 H   0  0  0  0  0  0
  -25.1258  -36.1950   25.0838 H   0  0  0  0  0  0
  -20.9920  -28.3255   24.1464 H   0  0  0  0  0  0
  -20.5686  -26.2294   23.3608 H   0  0  0  0  0  0
  -21.6592  -26.7506   22.1191 H   0  0  0  0  0  0
  -19.6832  -25.6311   21.1278 H   0  0  0  0  0  0
  -19.6611  -27.3215   20.6774 H   0  0  0  0  0  0
  -17.4136  -26.6766   21.4052 H   0  0  0  0  0  0
  -18.0224  -26.0100   22.9042 H   0  0  0  0  0  0
  -19.7915  -30.7321   24.2271 H   0  0  0  0  0  0
  -17.5003  -31.6300   24.5207 H   0  0  0  0  0  0
  -15.5325  -30.3039   23.7721 H   0  0  0  0  0  0
  -15.8625  -28.0889   22.7099 H   0  0  0  0  0  0
  -24.5840  -30.7092   25.7781 H   0  0  0  0  0  0
  -24.8895  -32.2800   26.5086 H   0  0  0  0  0  0
  -25.8023  -30.8715   27.0214 H   0  0  0  0  0  0
  -26.2979  -29.6788   24.1347 H   0  0  0  0  0  0
  -27.4191  -29.7454   25.4754 H   0  0  0  0  0  0
  -27.8770  -30.4487   23.9434 H   0  0  0  0  0  0
  -27.2551  -33.3770   26.2095 H   0  0  0  0  0  0
  -28.3784  -32.7024   25.0399 H   0  0  0  0  0  0
  -28.0642  -31.8637   26.5533 H   0  0  0  0  0  0
  -28.2461  -38.0254   24.7788 H   0  0  0  0  0  0
  -28.1281  -36.2812   24.5941 H   0  0  0  0  0  0
  -27.2369  -37.1018   25.8849 H   0  0  0  0  0  0
  -20.9269  -29.8916   21.7109 H   0  0  0  0  0  0
  -26.0133  -38.2884   24.1688 H   0  0  0  0  0  0
  -28.0801  -20.1247   21.0021 H   0  0  0  0  0  0
  -32.3129  -20.8489   21.4238 H   0  0  0  0  0  0
  -25.4902  -22.0104   21.2187 H   0  0  0  0  0  0
  -26.4409  -22.4789   19.7024 H   0  0  0  0  0  0
  -27.4384  -22.3120   22.5902 H   0  0  0  0  0  0
  -30.9304  -25.0843   20.4833 H   0  0  0  0  0  0
  -30.5091  -24.4272   18.8887 H   0  0  0  0  0  0
  -31.8792  -23.0418   21.0789 H   0  0  0  0  0  0
  -31.4700  -22.3847   19.4895 H   0  0  0  0  0  0
  -27.1292  -18.0840   21.4560 H   0  0  0  0  0  0
  -28.0370  -16.9047   22.3915 H   0  0  0  0  0  0
  -28.0576  -16.8460   20.6181 H   0  0  0  0  0  0
  -30.6782  -16.3943   23.2036 H   0  0  0  0  0  0
  -31.9685  -16.2831   22.0666 H   0  0  0  0  0  0
  -27.1039  -24.9611   20.6838 H   0  0  0  0  0  0
  -27.7156  -24.9354   19.0255 H   0  0  0  0  0  0
  -29.2914  -15.0856   21.8762 H   0  0  0  0  0  0
  1 25  1  0  0  0
  1 30  2  0  0  0
  1 87  1  0  0  0
  2  3  1  0  0  0
  2 25  1  0  0  0
  2 89  1  0  0  0
  2 90  1  0  0  0
  3  4  1  0  0  0
  3 91  1  0  0  0
  3 92  1  0  0  0
  4  5  1  0  0  0
  4 93  1  0  0  0
  4 94  1  0  0  0
  5  6  1  0  0  0
  5 26  1  0  0  0
  5 95  1  0  0  0
  6 25  1  0  0  0
  6 96  1  0  0  0
  6 97  1  0  0  0
  7  8  2  0  0  0
  7 26  1  0  0  0
  7 29  1  0  0  0
  8  9  1  0  0  0
  8 22  1  0  0  0
  9 10  1  0  0  0
  9 27  2  0  0  0
 10 11  2  0  0  0
 10 15  1  0  0  0
 11 12  1  0  0  0
 11 98  1  0  0  0
 12 13  2  0  0  0
 12 99  1  0  0  0
 13 14  1  0  0  0
 13 31  1  0  0  0
 14 15  2  0  0  0
 14100  1  0  0  0
 15101  1  0  0  0
 16 17  2  0  0  0
 16 21  1  0  0  0
 16 31  1  0  0  0
 17 18  1  0  0  0
 17102  1  0  0  0
 18 19  2  0  0  0
 18103  1  0  0  0
 19 20  1  0  0  0
 19 24  1  0  0  0
 20 21  2  0  0  0
 20104  1  0  0  0
 21 23  1  0  0  0
 22 28  1  0  0  0
 22 32  2  0  0  0
 26 27  1  0  0  0
 28105  1  0  0  0
 28106  1  0  0  0
 29107  1  0  0  0
 29108  1  0  0  0
 33 34  1  0  0  0
 33 66  1  0  0  0
 33 70  2  0  0  0
 34 36  1  0  0  0
 34 59  1  0  0  0
 34109  1  0  0  0
 35 44  2  0  0  0
 35 45  1  0  0  0
 35 68  1  0  0  0
 36 56  1  0  0  0
 36110  1  0  0  0
 37 39  1  0  0  0
 37 47  1  0  0  0
 37 66  1  0  0  0
 37111  1  0  0  0
 38 43  2  0  0  0
 38 46  1  0  0  0
 38 47  1  0  0  0
 39 64  1  0  0  0
 39 67  2  0  0  0
 40 52  1  0  0  0
 40 53  2  0  0  0
 40 58  1  0  0  0
 41112  1  0  0  0
 41113  1  0  0  0
 41114  1  0  0  0
 41 48  1  0  0  0
 42 43  1  0  0  0
 42 66  1  0  0  0
 42115  1  0  0  0
 42116  1  0  0  0
 43 44  1  0  0  0
 44117  1  0  0  0
 45 46  2  0  0  0
 45118  1  0  0  0
 46119  1  0  0  0
 47120  1  0  0  0
 47121  1  0  0  0
 48 56  1  0  0  0
 48 65  1  0  0  0
 48122  1  0  0  0
 49 50  1  0  0  0
 49 53  1  0  0  0
 49 64  1  0  0  0
 49123  1  0  0  0
 50 51  1  0  0  0
 50124  1  0  0  0
 50125  1  0  0  0
 51 52  1  0  0  0
 51126  1  0  0  0
 51127  1  0  0  0
 52128  1  0  0  0
 52129  1  0  0  0
 53 54  1  0  0  0
 54 55  2  0  0  0
 54130  1  0  0  0
 55 57  1  0  0  0
 55131  1  0  0  0
 56 69  2  0  0  0
 57 58  2  0  0  0
 57132  1  0  0  0
 58133  1  0  0  0
 59 60  1  0  0  0
 59 61  1  0  0  0
 59 62  1  0  0  0
 60134  1  0  0  0
 60135  1  0  0  0
 60136  1  0  0  0
 61137  1  0  0  0
 61138  1  0  0  0
 61139  1  0  0  0
 62140  1  0  0  0
 62141  1  0  0  0
 62142  1  0  0  0
 63 65  1  0  0  0
 63143  1  0  0  0
 63144  1  0  0  0
 63145  1  0  0  0
 64146  1  0  0  0
 65147  1  0  0  0
 68 85  1  0  0  0
 71 73  2  0  0  0
 71 75  1  0  0  0
 71148  1  0  0  0
 72 75  2  0  0  0
 72 76  1  0  0  0
 72149  1  0  0  0
 73 74  1  0  0  0
 73 83  1  0  0  0
 74 76  2  0  0  0
 74 84  1  0  0  0
 75 86  1  0  0  0
 76 88  1  0  0  0
 77 78  2  0  0  0
 77 80  1  0  0  0
 77 86  1  0  0  0
 78 81  1  0  0  0
 78 85  1  0  0  0
 79 80  2  0  0  0
 79150  1  0  0  0
 79151  1  0  0  0
 80152  1  0  0  0
 81 82  1  0  0  0
 81153  1  0  0  0
 81154  1  0  0  0
 82 86  1  0  0  0
 82155  1  0  0  0
 82156  1  0  0  0
 83157  1  0  0  0
 83158  1  0  0  0
 83159  1  0  0  0
 84 87  1  0  0  0
 84160  1  0  0  0
 84161  1  0  0  0
 85162  1  0  0  0
 85163  1  0  0  0
 87164  1  0  0  0
M  ISO  4   1 100  68 101  85 101  87 100
M  END
> <chiral flag>
0

> <version>
0

> <s_m_source_file>
/data/baiqing/PycharmProjects/Reinvent-master-3.2/result/LINK_invent/BTK/process_docking_weight1_custom_product_contain_oxygen_bond_distance_aromatic_linkinvent_7_9_3/rearranged_h_0108.sdf

> <i_m_source_file_index>
14

> <r_mmod_Potential_Energy-OPLS-2005>
19.8912601470947

> <r_mmod_Stretch_Energy-OPLS-2005>
45.6474723815918

> <r_mmod_Bend_Energy-OPLS-2005>
170.355270385742

> <r_mmod_Torsional_Energy-OPLS-2005>
213.17707824707

> <r_mmod_Improper_Torsional_Energy-OPLS-2005>
3.43096566200256

> <r_mmod_Van_der_Waal_Energy-OPLS-2005>
170.61457824707

> <r_mmod_Electrostatic_Energy-OPLS-2005>
-393.013397216797

> <r_mmod_Solvation_Energy-OPLS-2005>
-209.383728027344

> <b_mmod_Minimization_Converged-OPLS-2005>
0

> <r_mmod_RMS_Derivative-OPLS-2005>
2.90166211128235

$$$$
15
                    3D
 Structure written by MMmdl.
165174  0  0  1  0            999 V2000
  -30.5922  -14.6214   20.5431 C   0  0  0  0  0  0
  -30.4317  -12.3815   19.4606 C   0  0  0  0  0  0
  -29.5073  -12.5311   18.2320 C   0  0  0  0  0  0
  -28.0295  -12.3605   18.6370 C   0  0  0  0  0  0
  -27.6558  -13.2095   19.8820 C   0  0  2  0  0  0
  -28.6925  -13.0202   21.0119 C   0  0  0  0  0  0
  -25.2581  -13.8161   20.5733 C   0  0  0  0  0  0
  -24.1818  -13.0421   20.9174 C   0  0  0  0  0  0
  -24.6370  -11.6895   20.8718 C   0  0  0  0  0  0
  -23.9014  -10.4284   21.0394 C   0  0  0  0  0  0
  -24.3584   -9.4209   21.9160 C   0  0  0  0  0  0
  -23.6278   -8.2245   22.0744 C   0  0  0  0  0  0
  -22.4251   -8.0259   21.3537 C   0  0  0  0  0  0
  -21.9873   -9.0214   20.4626 C   0  0  0  0  0  0
  -22.7199  -10.2107   20.3035 C   0  0  0  0  0  0
  -21.6852   -6.0717   22.5277 C   0  0  0  0  0  0
  -21.4018   -6.5627   23.8205 C   0  0  0  0  0  0
  -21.3671   -5.6784   24.9164 C   0  0  0  0  0  0
  -21.6039   -4.3050   24.7225 C   0  0  0  0  0  0
  -21.8822   -3.8130   23.4342 C   0  0  0  0  0  0
  -21.9198   -4.6945   22.3402 C   0  0  0  0  0  0
  -22.7849  -13.5222   21.1829 C   0  0  0  0  0  0
  -22.1670   -4.2131   21.0981 F   0  0  0  0  0  0
  -21.5626   -3.4535   25.7741 F   0  0  0  0  0  0
  -30.0119  -13.3798   20.4674 N   0  0  0  0  0  0
  -26.2994  -12.9332   20.3407 N   0  0  0  0  0  0
  -25.9295  -11.6489   20.5766 N   0  0  0  0  0  0
  -22.0528  -12.8187   22.0405 N   0  0  0  0  0  0
  -25.4311  -15.1886   20.4258 N   0  0  0  0  0  0
  -31.7140  -14.8331   20.0664 O   0  0  0  0  0  0
  -21.6628   -6.8856   21.4238 O   0  0  0  0  0  0
  -22.3534  -14.5540   20.6713 O   0  0  0  0  0  0
  -24.6273  -31.8623   23.2036 C   0  0  0  0  0  0
  -25.9110  -32.4802   23.8361 C   0  0  1  0  0  0
  -27.2126  -27.3058   20.1235 C   0  0  0  0  0  0
  -25.5939  -33.8601   24.2290 N   0  0  0  0  0  0
  -23.4217  -30.4868   21.5488 C   0  0  2  0  0  0
  -24.8653  -28.9460   20.1131 C   0  0  0  0  0  0
  -22.7499  -29.4629   22.4951 C   0  0  0  0  0  0
  -18.0293  -28.1384   22.8498 C   0  0  0  0  0  0
  -24.1493  -36.7281   23.2637 C   0  0  0  0  0  0
  -25.9665  -30.7886   21.3796 C   0  0  0  0  0  0
  -26.0396  -29.4190   20.7139 C   0  0  0  0  0  0
  -27.2177  -28.6122   20.7062 C   0  0  0  0  0  0
  -26.0171  -26.8985   19.4846 C   0  0  0  0  0  0
  -24.8563  -27.6908   19.4915 C   0  0  0  0  0  0
  -23.6365  -29.8285   20.1627 C   0  0  0  0  0  0
  -25.4126  -36.3094   24.0327 C   0  0  1  0  0  0
  -20.5902  -28.3691   23.1277 C   0  0  2  0  0  0
  -20.6787  -26.9411   22.5408 C   0  0  0  0  0  0
  -19.5755  -26.6372   21.5228 C   0  0  0  0  0  0
  -18.1928  -26.7926   22.1634 C   0  0  0  0  0  0
  -19.1546  -28.8852   23.2881 C   0  0  0  0  0  0
  -18.9473  -30.1463   23.8888 C   0  0  0  0  0  0
  -17.6474  -30.6589   24.0564 C   0  0  0  0  0  0
  -25.9072  -34.9465   23.5110 C   0  0  0  0  0  0
  -16.5362  -29.9091   23.6333 C   0  0  0  0  0  0
  -16.7285  -28.6507   23.0359 C   0  0  0  0  0  0
  -26.4479  -31.6617   25.0739 C   0  0  0  0  0  0
  -25.3693  -31.3777   26.1460 C   0  0  0  0  0  0
  -27.0348  -30.3036   24.6221 C   0  0  0  0  0  0
  -27.6018  -32.4380   25.7526 C   0  0  0  0  0  0
  -27.5598  -37.1792   24.8459 C   0  0  0  0  0  0
  -21.4213  -29.3048   22.3681 N   0  0  0  0  0  0
  -26.4307  -37.3793   23.9414 N   0  0  0  0  0  0
  -24.6909  -31.0631   22.1001 N   0  0  0  0  0  0
  -23.4218  -28.8169   23.3024 O   0  0  0  0  0  0
  -28.3033  -26.4180   20.2080 O   0  0  0  0  0  0
  -26.5647  -34.8924   22.4684 O   0  0  0  0  0  0
  -23.5430  -32.1445   23.7329 O   0  0  0  0  0  0
  -30.0018  -17.6960   19.6706 C   0  0  0  0  0  0
  -29.2804  -19.3228   21.8216 C   0  0  0  0  0  0
  -29.8196  -19.1033   19.4804 C   0  0  0  0  0  0
  -29.4999  -19.9667   20.5761 C   0  0  0  0  0  0
  -29.7865  -17.0609   20.9203 C   0  0  0  0  0  0
  -29.3654  -17.8998   21.9925 C   0  0  0  0  0  0
  -28.4894  -22.3383   20.7193 C   0  0  0  0  0  0
  -30.3217  -23.6449   19.9725 C   0  0  0  0  0  0
  -30.7267  -22.1791   20.2436 C   0  0  0  0  0  0
  -28.9767  -23.8360   20.6793 C   0  0  1  0  0  0
  -28.4476  -19.7334   17.4728 C   0  0  0  0  0  0
  -28.6269  -18.0552   24.2910 C   0  0  0  0  0  0
  -29.8630  -19.6275   18.0520 C   0  0  0  0  0  0
  -28.0156  -24.9598   20.0713 C   0  0  0  0  0  0
  -29.4894  -21.4366   20.4693 N   0  0  0  0  0  0
  -29.8290  -15.6081   21.1081 N   0  0  0  0  0  0
  -27.3171  -22.0376   20.9620 O   0  0  0  0  0  0
  -29.0516  -17.2670   23.1794 O   0  0  0  0  0  0
  -31.4759  -12.5019   19.1711 H   0  0  0  0  0  0
  -30.3509  -11.3744   19.8755 H   0  0  0  0  0  0
  -29.7734  -11.8083   17.4604 H   0  0  0  0  0  0
  -29.6505  -13.5180   17.7912 H   0  0  0  0  0  0
  -27.8605  -11.3022   18.8440 H   0  0  0  0  0  0
  -27.3767  -12.6086   17.7994 H   0  0  0  0  0  0
  -27.6860  -14.2527   19.5701 H   0  0  0  0  0  0
  -28.7012  -11.9842   21.3559 H   0  0  0  0  0  0
  -28.4343  -13.6135   21.8894 H   0  0  0  0  0  0
  -25.2743   -9.5705   22.4700 H   0  0  0  0  0  0
  -23.9984   -7.4647   22.7471 H   0  0  0  0  0  0
  -21.0812   -8.8726   19.8915 H   0  0  0  0  0  0
  -22.3653  -10.9626   19.6130 H   0  0  0  0  0  0
  -21.2011   -7.6131   23.9691 H   0  0  0  0  0  0
  -21.1496   -6.0527   25.9066 H   0  0  0  0  0  0
  -22.0586   -2.7587   23.2859 H   0  0  0  0  0  0
  -22.4227  -11.9843   22.4723 H   0  0  0  0  0  0
  -21.1130  -13.1163   22.2646 H   0  0  0  0  0  0
  -24.6705  -15.8456   20.5561 H   0  0  0  0  0  0
  -26.2974  -15.6324   20.1479 H   0  0  0  0  0  0
  -26.7190  -32.5456   23.1119 H   0  0  0  0  0  0
  -25.0097  -33.9765   25.0441 H   0  0  0  0  0  0
  -22.7153  -31.3078   21.4082 H   0  0  0  0  0  0
  -23.3782  -35.9585   23.3285 H   0  0  0  0  0  0
  -24.3585  -36.8928   22.2057 H   0  0  0  0  0  0
  -23.7210  -37.6455   23.6680 H   0  0  0  0  0  0
  -26.1110  -31.5562   20.6178 H   0  0  0  0  0  0
  -26.8426  -30.8261   22.0165 H   0  0  0  0  0  0
  -28.1167  -28.9703   21.1876 H   0  0  0  0  0  0
  -25.9371  -25.9392   18.9938 H   0  0  0  0  0  0
  -23.9538  -27.3174   19.0265 H   0  0  0  0  0  0
  -23.7631  -30.6109   19.4134 H   0  0  0  0  0  0
  -22.7525  -29.2666   19.8534 H   0  0  0  0  0  0
  -25.1299  -36.1961   25.0817 H   0  0  0  0  0  0
  -20.9994  -28.3263   24.1402 H   0  0  0  0  0  0
  -20.5722  -26.2298   23.3617 H   0  0  0  0  0  0
  -21.6649  -26.7447   22.1188 H   0  0  0  0  0  0
  -19.6919  -25.6281   21.1265 H   0  0  0  0  0  0
  -19.6682  -27.3181   20.6758 H   0  0  0  0  0  0
  -17.4203  -26.6697   21.4020 H   0  0  0  0  0  0
  -18.0297  -26.0057   22.9014 H   0  0  0  0  0  0
  -19.7945  -30.7289   24.2242 H   0  0  0  0  0  0
  -17.5023  -31.6268   24.5170 H   0  0  0  0  0  0
  -15.5366  -30.3002   23.7642 H   0  0  0  0  0  0
  -15.8680  -28.0832   22.7074 H   0  0  0  0  0  0
  -24.5836  -30.7176   25.7768 H   0  0  0  0  0  0
  -24.8924  -32.2968   26.4872 H   0  0  0  0  0  0
  -25.7980  -30.8937   27.0244 H   0  0  0  0  0  0
  -26.2952  -29.6794   24.1193 H   0  0  0  0  0  0
  -27.3992  -29.7281   25.4738 H   0  0  0  0  0  0
  -27.8834  -30.4326   23.9502 H   0  0  0  0  0  0
  -27.2587  -33.3662   26.2102 H   0  0  0  0  0  0
  -28.3817  -32.6988   25.0365 H   0  0  0  0  0  0
  -28.0702  -31.8529   26.5452 H   0  0  0  0  0  0
  -28.2576  -38.0127   24.7574 H   0  0  0  0  0  0
  -28.1141  -36.2661   24.6220 H   0  0  0  0  0  0
  -27.2316  -37.1356   25.8858 H   0  0  0  0  0  0
  -20.9403  -29.8791   21.6906 H   0  0  0  0  0  0
  -26.0189  -38.2862   24.1441 H   0  0  0  0  0  0
  -30.2529  -17.0808   18.8162 H   0  0  0  0  0  0
  -29.0491  -19.9602   22.6610 H   0  0  0  0  0  0
  -30.2000  -23.7990   18.8989 H   0  0  0  0  0  0
  -31.0807  -24.3420   20.3283 H   0  0  0  0  0  0
  -31.3227  -22.1082   21.1546 H   0  0  0  0  0  0
  -31.3358  -21.7770   19.4381 H   0  0  0  0  0  0
  -29.1629  -24.0962   21.7215 H   0  0  0  0  0  0
  -28.4641  -20.0842   16.4404 H   0  0  0  0  0  0
  -27.8386  -20.4303   18.0512 H   0  0  0  0  0  0
  -27.9423  -18.7663   17.4862 H   0  0  0  0  0  0
  -28.2070  -17.4002   25.0534 H   0  0  0  0  0  0
  -27.8453  -18.7750   24.0390 H   0  0  0  0  0  0
  -29.4685  -18.5857   24.7396 H   0  0  0  0  0  0
  -30.4672  -18.9626   17.4317 H   0  0  0  0  0  0
  -30.3443  -20.5984   17.9871 H   0  0  0  0  0  0
  -27.0509  -24.7732   20.5452 H   0  0  0  0  0  0
  -27.8775  -24.7470   19.0103 H   0  0  0  0  0  0
  -29.0857  -15.2518   21.6894 H   0  0  0  0  0  0
  1 25  1  0  0  0
  1 30  2  0  0  0
  1 86  1  0  0  0
  2  3  1  0  0  0
  2 25  1  0  0  0
  2 89  1  0  0  0
  2 90  1  0  0  0
  3  4  1  0  0  0
  3 91  1  0  0  0
  3 92  1  0  0  0
  4  5  1  0  0  0
  4 93  1  0  0  0
  4 94  1  0  0  0
  5  6  1  0  0  0
  5 26  1  0  0  0
  5 95  1  0  0  0
  6 25  1  0  0  0
  6 96  1  0  0  0
  6 97  1  0  0  0
  7  8  2  0  0  0
  7 26  1  0  0  0
  7 29  1  0  0  0
  8  9  1  0  0  0
  8 22  1  0  0  0
  9 10  1  0  0  0
  9 27  2  0  0  0
 10 11  2  0  0  0
 10 15  1  0  0  0
 11 12  1  0  0  0
 11 98  1  0  0  0
 12 13  2  0  0  0
 12 99  1  0  0  0
 13 14  1  0  0  0
 13 31  1  0  0  0
 14 15  2  0  0  0
 14100  1  0  0  0
 15101  1  0  0  0
 16 17  2  0  0  0
 16 21  1  0  0  0
 16 31  1  0  0  0
 17 18  1  0  0  0
 17102  1  0  0  0
 18 19  2  0  0  0
 18103  1  0  0  0
 19 20  1  0  0  0
 19 24  1  0  0  0
 20 21  2  0  0  0
 20104  1  0  0  0
 21 23  1  0  0  0
 22 28  1  0  0  0
 22 32  2  0  0  0
 26 27  1  0  0  0
 28105  1  0  0  0
 28106  1  0  0  0
 29107  1  0  0  0
 29108  1  0  0  0
 33 34  1  0  0  0
 33 66  1  0  0  0
 33 70  2  0  0  0
 34 36  1  0  0  0
 34 59  1  0  0  0
 34109  1  0  0  0
 35 44  2  0  0  0
 35 45  1  0  0  0
 35 68  1  0  0  0
 36 56  1  0  0  0
 36110  1  0  0  0
 37 39  1  0  0  0
 37 47  1  0  0  0
 37 66  1  0  0  0
 37111  1  0  0  0
 38 43  2  0  0  0
 38 46  1  0  0  0
 38 47  1  0  0  0
 39 64  1  0  0  0
 39 67  2  0  0  0
 40 52  1  0  0  0
 40 53  2  0  0  0
 40 58  1  0  0  0
 41112  1  0  0  0
 41113  1  0  0  0
 41114  1  0  0  0
 41 48  1  0  0  0
 42 43  1  0  0  0
 42 66  1  0  0  0
 42115  1  0  0  0
 42116  1  0  0  0
 43 44  1  0  0  0
 44117  1  0  0  0
 45 46  2  0  0  0
 45118  1  0  0  0
 46119  1  0  0  0
 47120  1  0  0  0
 47121  1  0  0  0
 48 56  1  0  0  0
 48 65  1  0  0  0
 48122  1  0  0  0
 49 50  1  0  0  0
 49 53  1  0  0  0
 49 64  1  0  0  0
 49123  1  0  0  0
 50 51  1  0  0  0
 50124  1  0  0  0
 50125  1  0  0  0
 51 52  1  0  0  0
 51126  1  0  0  0
 51127  1  0  0  0
 52128  1  0  0  0
 52129  1  0  0  0
 53 54  1  0  0  0
 54 55  2  0  0  0
 54130  1  0  0  0
 55 57  1  0  0  0
 55131  1  0  0  0
 56 69  2  0  0  0
 57 58  2  0  0  0
 57132  1  0  0  0
 58133  1  0  0  0
 59 60  1  0  0  0
 59 61  1  0  0  0
 59 62  1  0  0  0
 60134  1  0  0  0
 60135  1  0  0  0
 60136  1  0  0  0
 61137  1  0  0  0
 61138  1  0  0  0
 61139  1  0  0  0
 62140  1  0  0  0
 62141  1  0  0  0
 62142  1  0  0  0
 63 65  1  0  0  0
 63143  1  0  0  0
 63144  1  0  0  0
 63145  1  0  0  0
 64146  1  0  0  0
 65147  1  0  0  0
 68 84  1  0  0  0
 71 73  2  0  0  0
 71 75  1  0  0  0
 71148  1  0  0  0
 72 74  2  0  0  0
 72 76  1  0  0  0
 72149  1  0  0  0
 73 74  1  0  0  0
 73 83  1  0  0  0
 74 85  1  0  0  0
 75 76  2  0  0  0
 75 86  1  0  0  0
 76 88  1  0  0  0
 77 80  1  0  0  0
 77 85  1  0  0  0
 77 87  2  0  0  0
 78 79  1  0  0  0
 78 80  1  0  0  0
 78150  1  0  0  0
 78151  1  0  0  0
 79 85  1  0  0  0
 79152  1  0  0  0
 79153  1  0  0  0
 80 84  1  0  0  0
 80154  1  0  0  0
 81 83  1  0  0  0
 81155  1  0  0  0
 81156  1  0  0  0
 81157  1  0  0  0
 82 88  1  0  0  0
 82158  1  0  0  0
 82159  1  0  0  0
 82160  1  0  0  0
 83161  1  0  0  0
 83162  1  0  0  0
 84163  1  0  0  0
 84164  1  0  0  0
 86165  1  0  0  0
M  ISO  4   1 100  68 101  84 101  86 100
M  END
> <chiral flag>
0

> <version>
0

> <s_m_source_file>
/data/baiqing/PycharmProjects/Reinvent-master-3.2/result/LINK_invent/BTK/process_docking_weight1_custom_product_contain_oxygen_bond_distance_aromatic_linkinvent_7_9_3/rearranged_h_0108.sdf

> <i_m_source_file_index>
15

> <r_mmod_Potential_Energy-OPLS-2005>
150.996109008789

> <r_mmod_Stretch_Energy-OPLS-2005>
85.6893997192383

> <r_mmod_Bend_Energy-OPLS-2005>
174.437561035156

> <r_mmod_Torsional_Energy-OPLS-2005>
304.234741210938

> <r_mmod_Improper_Torsional_Energy-OPLS-2005>
3.93874764442444

> <r_mmod_Van_der_Waal_Energy-OPLS-2005>
144.751174926758

> <r_mmod_Electrostatic_Energy-OPLS-2005>
-395.381866455078

> <r_mmod_Solvation_Energy-OPLS-2005>
-218.882629394531

> <b_mmod_Minimization_Converged-OPLS-2005>
0

> <r_mmod_RMS_Derivative-OPLS-2005>
3.49361610412598

$$$$
16
                    3D
 Structure written by MMmdl.
160168  0  0  1  0            999 V2000
  -30.6198  -14.6292   20.5192 C   0  0  0  0  0  0
  -30.4443  -12.3910   19.4487 C   0  0  0  0  0  0
  -29.5118  -12.5148   18.2226 C   0  0  0  0  0  0
  -28.0326  -12.3531   18.6305 C   0  0  0  0  0  0
  -27.6567  -13.2138   19.8659 C   0  0  2  0  0  0
  -28.7008  -13.0505   20.9939 C   0  0  0  0  0  0
  -25.2575  -13.8162   20.5670 C   0  0  0  0  0  0
  -24.1842  -13.0437   20.9196 C   0  0  0  0  0  0
  -24.6403  -11.6907   20.8743 C   0  0  0  0  0  0
  -23.9068  -10.4295   21.0411 C   0  0  0  0  0  0
  -24.3617   -9.4208   21.9188 C   0  0  0  0  0  0
  -23.6289   -8.2245   22.0757 C   0  0  0  0  0  0
  -22.4271   -8.0287   21.3547 C   0  0  0  0  0  0
  -21.9908   -9.0262   20.4651 C   0  0  0  0  0  0
  -22.7241  -10.2139   20.3060 C   0  0  0  0  0  0
  -21.6854   -6.0736   22.5279 C   0  0  0  0  0  0
  -21.4016   -6.5637   23.8213 C   0  0  0  0  0  0
  -21.3658   -5.6789   24.9173 C   0  0  0  0  0  0
  -21.6044   -4.3053   24.7224 C   0  0  0  0  0  0
  -21.8818   -3.8147   23.4345 C   0  0  0  0  0  0
  -21.9193   -4.6963   22.3401 C   0  0  0  0  0  0
  -22.7865  -13.5241   21.1848 C   0  0  0  0  0  0
  -22.1662   -4.2150   21.0979 F   0  0  0  0  0  0
  -21.5626   -3.4535   25.7737 F   0  0  0  0  0  0
  -30.0194  -13.4001   20.4378 N   0  0  0  0  0  0
  -26.3004  -12.9338   20.3311 N   0  0  0  0  0  0
  -25.9328  -11.6498   20.5746 N   0  0  0  0  0  0
  -22.0489  -12.8247   22.0399 N   0  0  0  0  0  0
  -25.4276  -15.1877   20.4025 N   0  0  0  0  0  0
  -31.7752  -14.8112   20.1229 O   0  0  0  0  0  0
  -21.6638   -6.8882   21.4243 O   0  0  0  0  0  0
  -22.3565  -14.5551   20.6690 O   0  0  0  0  0  0
  -24.6253  -31.8616   23.2045 C   0  0  0  0  0  0
  -25.9107  -32.4791   23.8367 C   0  0  1  0  0  0
  -27.2248  -27.3314   20.1142 C   0  0  0  0  0  0
  -25.5927  -33.8589   24.2292 N   0  0  0  0  0  0
  -23.4178  -30.4864   21.5481 C   0  0  2  0  0  0
  -24.8634  -28.9464   20.1119 C   0  0  0  0  0  0
  -22.7472  -29.4632   22.4954 C   0  0  0  0  0  0
  -18.0288  -28.1389   22.8488 C   0  0  0  0  0  0
  -24.1486  -36.7293   23.2638 C   0  0  0  0  0  0
  -25.9586  -30.7968   21.3738 C   0  0  0  0  0  0
  -26.0332  -29.4262   20.7141 C   0  0  0  0  0  0
  -27.2171  -28.6311   20.7052 C   0  0  0  0  0  0
  -26.0284  -26.9044   19.4884 C   0  0  0  0  0  0
  -24.8627  -27.6897   19.4908 C   0  0  0  0  0  0
  -23.6309  -29.8244   20.1623 C   0  0  0  0  0  0
  -25.4111  -36.3089   24.0329 C   0  0  1  0  0  0
  -20.5887  -28.3686   23.1292 C   0  0  2  0  0  0
  -20.6780  -26.9413   22.5412 C   0  0  0  0  0  0
  -19.5753  -26.6386   21.5217 C   0  0  0  0  0  0
  -18.1933  -26.7933   22.1626 C   0  0  0  0  0  0
  -19.1539  -28.8856   23.2884 C   0  0  0  0  0  0
  -18.9463  -30.1460   23.8895 C   0  0  0  0  0  0
  -17.6462  -30.6590   24.0564 C   0  0  0  0  0  0
  -25.9048  -34.9458   23.5109 C   0  0  0  0  0  0
  -16.5353  -29.9084   23.6333 C   0  0  0  0  0  0
  -16.7276  -28.6504   23.0349 C   0  0  0  0  0  0
  -26.4493  -31.6597   25.0731 C   0  0  0  0  0  0
  -25.3732  -31.3733   26.1462 C   0  0  0  0  0  0
  -27.0336  -30.3025   24.6174 C   0  0  0  0  0  0
  -27.6051  -32.4334   25.7504 C   0  0  0  0  0  0
  -27.5578  -37.1804   24.8465 C   0  0  0  0  0  0
  -21.4190  -29.3038   22.3690 N   0  0  0  0  0  0
  -26.4291  -37.3781   23.9407 N   0  0  0  0  0  0
  -24.6862  -31.0640   22.0992 N   0  0  0  0  0  0
  -23.4204  -28.8167   23.3027 O   0  0  0  0  0  0
  -28.3444  -26.4848   20.1668 O   0  0  0  0  0  0
  -26.5611  -34.8922   22.4673 O   0  0  0  0  0  0
  -23.5420  -32.1406   23.7381 O   0  0  0  0  0  0
  -31.0011  -17.8865   20.5683 C   0  0  0  0  0  0
  -28.6370  -17.8296   20.9417 C   0  0  0  0  0  0
  -30.9391  -19.3139   20.5136 C   0  0  0  0  0  0
  -28.5468  -19.2553   20.8721 C   0  0  0  0  0  0
  -29.8441  -17.1033   20.7903 C   0  0  0  0  0  0
  -29.7233  -20.0525   20.6569 C   0  0  0  0  0  0
  -32.2342  -20.0786   20.3014 C   0  0  0  0  0  0
  -27.1462  -19.8272   21.0783 C   0  0  0  0  0  0
  -29.2332  -23.9806   20.4091 C   0  0  0  0  0  0
  -28.0974  -25.0308   20.0620 C   0  0  0  0  0  0
  -28.7928  -22.4505   20.4181 C   0  0  0  0  0  0
  -29.7943  -15.6478   20.9118 N   0  0  0  0  0  0
  -26.9078  -20.1804   22.4858 N   0  3  0  0  0  0
  -29.8561  -21.4664   20.6251 O   0  0  0  0  0  0
  -31.4849  -12.5242   19.1468 H   0  0  0  0  0  0
  -30.3834  -11.3913   19.8811 H   0  0  0  0  0  0
  -29.7755  -11.7687   17.4715 H   0  0  0  0  0  0
  -29.6567  -13.4870   17.7486 H   0  0  0  0  0  0
  -27.8632  -11.2985   18.8498 H   0  0  0  0  0  0
  -27.3824  -12.5969   17.7897 H   0  0  0  0  0  0
  -27.6793  -14.2523   19.5357 H   0  0  0  0  0  0
  -28.7106  -12.0221   21.3578 H   0  0  0  0  0  0
  -28.4435  -13.6646   21.8585 H   0  0  0  0  0  0
  -25.2762   -9.5678   22.4762 H   0  0  0  0  0  0
  -23.9996   -7.4634   22.7472 H   0  0  0  0  0  0
  -21.0840   -8.8786   19.8956 H   0  0  0  0  0  0
  -22.3706  -10.9678   19.6168 H   0  0  0  0  0  0
  -21.2013   -7.6146   23.9717 H   0  0  0  0  0  0
  -21.1477   -6.0519   25.9074 H   0  0  0  0  0  0
  -22.0598   -2.7610   23.2846 H   0  0  0  0  0  0
  -22.4083  -11.9908   22.4805 H   0  0  0  0  0  0
  -21.1105  -13.1285   22.2580 H   0  0  0  0  0  0
  -24.6420  -15.8258   20.4661 H   0  0  0  0  0  0
  -26.2443  -15.6052   19.9771 H   0  0  0  0  0  0
  -26.7174  -32.5464   23.1117 H   0  0  0  0  0  0
  -25.0084  -33.9741   25.0443 H   0  0  0  0  0  0
  -22.7108  -31.3068   21.4081 H   0  0  0  0  0  0
  -23.3751  -35.9622   23.3306 H   0  0  0  0  0  0
  -24.3576  -36.8907   22.2051 H   0  0  0  0  0  0
  -23.7236  -37.6496   23.6655 H   0  0  0  0  0  0
  -26.0894  -31.5624   20.6079 H   0  0  0  0  0  0
  -26.8390  -30.8438   22.0031 H   0  0  0  0  0  0
  -28.1138  -28.9958   21.1866 H   0  0  0  0  0  0
  -25.9579  -25.9464   18.9969 H   0  0  0  0  0  0
  -23.9660  -27.3152   19.0166 H   0  0  0  0  0  0
  -23.7491  -30.6026   19.4075 H   0  0  0  0  0  0
  -22.7507  -29.2541   19.8599 H   0  0  0  0  0  0
  -25.1291  -36.1944   25.0821 H   0  0  0  0  0  0
  -20.9977  -28.3257   24.1414 H   0  0  0  0  0  0
  -20.5699  -26.2290   23.3605 H   0  0  0  0  0  0
  -21.6648  -26.7454   22.1196 H   0  0  0  0  0  0
  -19.6914  -25.6298   21.1246 H   0  0  0  0  0  0
  -19.6694  -27.3198   20.6749 H   0  0  0  0  0  0
  -17.4204  -26.6683   21.4028 H   0  0  0  0  0  0
  -18.0329  -26.0077   22.9024 H   0  0  0  0  0  0
  -19.7938  -30.7283   24.2257 H   0  0  0  0  0  0
  -17.5014  -31.6270   24.5163 H   0  0  0  0  0  0
  -15.5354  -30.2982   23.7663 H   0  0  0  0  0  0
  -15.8676  -28.0826   22.7058 H   0  0  0  0  0  0
  -24.5896  -30.7094   25.7793 H   0  0  0  0  0  0
  -24.8938  -32.2902   26.4902 H   0  0  0  0  0  0
  -25.8061  -30.8899   27.0230 H   0  0  0  0  0  0
  -26.2908  -29.6784   24.1191 H   0  0  0  0  0  0
  -27.4038  -29.7272   25.4671 H   0  0  0  0  0  0
  -27.8775  -30.4323   23.9393 H   0  0  0  0  0  0
  -27.2655  -33.3630   26.2085 H   0  0  0  0  0  0
  -28.3859  -32.6905   25.0334 H   0  0  0  0  0  0
  -28.0721  -31.8461   26.5421 H   0  0  0  0  0  0
  -28.2598  -38.0098   24.7510 H   0  0  0  0  0  0
  -28.1073  -36.2631   24.6295 H   0  0  0  0  0  0
  -27.2298  -37.1455   25.8869 H   0  0  0  0  0  0
  -20.9366  -29.8756   21.6896 H   0  0  0  0  0  0
  -26.0176  -38.2857   24.1410 H   0  0  0  0  0  0
  -31.9577  -17.3958   20.4572 H   0  0  0  0  0  0
  -27.7328  -17.2661   21.1257 H   0  0  0  0  0  0
  -33.0862  -19.4107   20.1722 H   0  0  0  0  0  0
  -32.4380  -20.7220   21.1579 H   0  0  0  0  0  0
  -32.1638  -20.7070   19.4130 H   0  0  0  0  0  0
  -26.4060  -19.0776   20.7953 H   0  0  0  0  0  0
  -26.9395  -20.6577   20.4093 H   0  0  0  0  0  0
  -29.6459  -24.2248   21.3881 H   0  0  0  0  0  0
  -30.0517  -24.1086   19.7009 H   0  0  0  0  0  0
  -27.2451  -24.7932   20.7012 H   0  0  0  0  0  0
  -27.7882  -24.8156   19.0389 H   0  0  0  0  0  0
  -28.2979  -22.2243   19.4730 H   0  0  0  0  0  0
  -28.0576  -22.3547   21.2134 H   0  0  0  0  0  0
  -28.8994  -15.2923   21.2112 H   0  0  0  0  0  0
  -26.9883  -19.3643   23.0644 H   0  0  0  0  0  0
  -25.9800  -20.5505   22.5919 H   0  0  0  0  0  0
  -27.5677  -20.8639   22.8066 H   0  0  0  0  0  0
  1 25  1  0  0  0
  1 30  2  0  0  0
  1 82  1  0  0  0
  2  3  1  0  0  0
  2 25  1  0  0  0
  2 85  1  0  0  0
  2 86  1  0  0  0
  3  4  1  0  0  0
  3 87  1  0  0  0
  3 88  1  0  0  0
  4  5  1  0  0  0
  4 89  1  0  0  0
  4 90  1  0  0  0
  5  6  1  0  0  0
  5 26  1  0  0  0
  5 91  1  0  0  0
  6 25  1  0  0  0
  6 92  1  0  0  0
  6 93  1  0  0  0
  7  8  2  0  0  0
  7 26  1  0  0  0
  7 29  1  0  0  0
  8  9  1  0  0  0
  8 22  1  0  0  0
  9 10  1  0  0  0
  9 27  2  0  0  0
 10 11  2  0  0  0
 10 15  1  0  0  0
 11 12  1  0  0  0
 11 94  1  0  0  0
 12 13  2  0  0  0
 12 95  1  0  0  0
 13 14  1  0  0  0
 13 31  1  0  0  0
 14 15  2  0  0  0
 14 96  1  0  0  0
 15 97  1  0  0  0
 16 17  2  0  0  0
 16 21  1  0  0  0
 16 31  1  0  0  0
 17 18  1  0  0  0
 17 98  1  0  0  0
 18 19  2  0  0  0
 18 99  1  0  0  0
 19 20  1  0  0  0
 19 24  1  0  0  0
 20 21  2  0  0  0
 20100  1  0  0  0
 21 23  1  0  0  0
 22 28  1  0  0  0
 22 32  2  0  0  0
 26 27  1  0  0  0
 28101  1  0  0  0
 28102  1  0  0  0
 29103  1  0  0  0
 29104  1  0  0  0
 33 34  1  0  0  0
 33 66  1  0  0  0
 33 70  2  0  0  0
 34 36  1  0  0  0
 34 59  1  0  0  0
 34105  1  0  0  0
 35 44  2  0  0  0
 35 45  1  0  0  0
 35 68  1  0  0  0
 36 56  1  0  0  0
 36106  1  0  0  0
 37 39  1  0  0  0
 37 47  1  0  0  0
 37 66  1  0  0  0
 37107  1  0  0  0
 38 43  2  0  0  0
 38 46  1  0  0  0
 38 47  1  0  0  0
 39 64  1  0  0  0
 39 67  2  0  0  0
 40 52  1  0  0  0
 40 53  2  0  0  0
 40 58  1  0  0  0
 41108  1  0  0  0
 41109  1  0  0  0
 41110  1  0  0  0
 41 48  1  0  0  0
 42 43  1  0  0  0
 42 66  1  0  0  0
 42111  1  0  0  0
 42112  1  0  0  0
 43 44  1  0  0  0
 44113  1  0  0  0
 45 46  2  0  0  0
 45114  1  0  0  0
 46115  1  0  0  0
 47116  1  0  0  0
 47117  1  0  0  0
 48 56  1  0  0  0
 48 65  1  0  0  0
 48118  1  0  0  0
 49 50  1  0  0  0
 49 53  1  0  0  0
 49 64  1  0  0  0
 49119  1  0  0  0
 50 51  1  0  0  0
 50120  1  0  0  0
 50121  1  0  0  0
 51 52  1  0  0  0
 51122  1  0  0  0
 51123  1  0  0  0
 52124  1  0  0  0
 52125  1  0  0  0
 53 54  1  0  0  0
 54 55  2  0  0  0
 54126  1  0  0  0
 55 57  1  0  0  0
 55127  1  0  0  0
 56 69  2  0  0  0
 57 58  2  0  0  0
 57128  1  0  0  0
 58129  1  0  0  0
 59 60  1  0  0  0
 59 61  1  0  0  0
 59 62  1  0  0  0
 60130  1  0  0  0
 60131  1  0  0  0
 60132  1  0  0  0
 61133  1  0  0  0
 61134  1  0  0  0
 61135  1  0  0  0
 62136  1  0  0  0
 62137  1  0  0  0
 62138  1  0  0  0
 63 65  1  0  0  0
 63139  1  0  0  0
 63140  1  0  0  0
 63141  1  0  0  0
 64142  1  0  0  0
 65143  1  0  0  0
 68 80  1  0  0  0
 71 73  2  0  0  0
 71 75  1  0  0  0
 71144  1  0  0  0
 72 74  1  0  0  0
 72 75  2  0  0  0
 72145  1  0  0  0
 73 76  1  0  0  0
 73 77  1  0  0  0
 74 76  2  0  0  0
 74 78  1  0  0  0
 75 82  1  0  0  0
 76 84  1  0  0  0
 77146  1  0  0  0
 77147  1  0  0  0
 77148  1  0  0  0
 78 83  1  0  0  0
 78149  1  0  0  0
 78150  1  0  0  0
 79 80  1  0  0  0
 79 81  1  0  0  0
 79151  1  0  0  0
 79152  1  0  0  0
 80153  1  0  0  0
 80154  1  0  0  0
 81 84  1  0  0  0
 81155  1  0  0  0
 81156  1  0  0  0
 82157  1  0  0  0
 83158  1  0  0  0
 83159  1  0  0  0
 83160  1  0  0  0
M  CHG  1  83   1
M  ISO  4   1 100  68 101  80 101  82 100
M  END
> <chiral flag>
0

> <version>
0

> <s_m_source_file>
/data/baiqing/PycharmProjects/Reinvent-master-3.2/result/LINK_invent/BTK/process_docking_weight1_custom_product_contain_oxygen_bond_distance_aromatic_linkinvent_7_9_3/rearranged_h_0108.sdf

> <i_m_source_file_index>
16

> <r_mmod_Potential_Energy-OPLS-2005>
-244.506210327148

> <r_mmod_Stretch_Energy-OPLS-2005>
78.2343978881836

> <r_mmod_Bend_Energy-OPLS-2005>
166.766387939453

> <r_mmod_Torsional_Energy-OPLS-2005>
204.269775390625

> <r_mmod_Improper_Torsional_Energy-OPLS-2005>
4.81066942214966

> <r_mmod_Van_der_Waal_Energy-OPLS-2005>
149.115509033203

> <r_mmod_Electrostatic_Energy-OPLS-2005>
-366.969329833984

> <r_mmod_Solvation_Energy-OPLS-2005>
-525.297119140625

> <b_mmod_Minimization_Converged-OPLS-2005>
0

> <r_mmod_RMS_Derivative-OPLS-2005>
0.651413023471832

$$$$
17
                    3D
 Structure written by MMmdl.
160168  0  0  1  0            999 V2000
  -30.6954  -14.4594   20.6025 C   0  0  0  0  0  0
  -30.4312  -12.3103   19.4072 C   0  0  0  0  0  0
  -29.4903  -12.5033   18.1984 C   0  0  0  0  0  0
  -28.0104  -12.3793   18.6118 C   0  0  0  0  0  0
  -27.6674  -13.2010   19.8842 C   0  0  2  0  0  0
  -28.7104  -12.9437   20.9947 C   0  0  0  0  0  0
  -25.2628  -13.8155   20.5692 C   0  0  0  0  0  0
  -24.1859  -13.0436   20.9169 C   0  0  0  0  0  0
  -24.6390  -11.6898   20.8723 C   0  0  0  0  0  0
  -23.9034  -10.4290   21.0401 C   0  0  0  0  0  0
  -24.3596   -9.4213   21.9185 C   0  0  0  0  0  0
  -23.6273   -8.2247   22.0755 C   0  0  0  0  0  0
  -22.4261   -8.0269   21.3535 C   0  0  0  0  0  0
  -21.9886   -9.0241   20.4638 C   0  0  0  0  0  0
  -22.7205  -10.2128   20.3050 C   0  0  0  0  0  0
  -21.6849   -6.0717   22.5271 C   0  0  0  0  0  0
  -21.4016   -6.5624   23.8200 C   0  0  0  0  0  0
  -21.3665   -5.6781   24.9164 C   0  0  0  0  0  0
  -21.6048   -4.3048   24.7230 C   0  0  0  0  0  0
  -21.8818   -3.8130   23.4353 C   0  0  0  0  0  0
  -21.9191   -4.6939   22.3403 C   0  0  0  0  0  0
  -22.7878  -13.5234   21.1826 C   0  0  0  0  0  0
  -22.1653   -4.2124   21.0977 F   0  0  0  0  0  0
  -21.5644   -3.4531   25.7747 F   0  0  0  0  0  0
  -30.0433  -13.2715   20.4538 N   0  0  0  0  0  0
  -26.3056  -12.9301   20.3402 N   0  0  0  0  0  0
  -25.9320  -11.6463   20.5760 N   0  0  0  0  0  0
  -22.0525  -12.8231   22.0383 N   0  0  0  0  0  0
  -25.4399  -15.1880   20.4168 N   0  0  0  0  0  0
  -31.7767  -14.6835   20.0534 O   0  0  0  0  0  0
  -21.6635   -6.8860   21.4231 O   0  0  0  0  0  0
  -22.3554  -14.5532   20.6666 O   0  0  0  0  0  0
  -24.6154  -31.8649   23.2085 C   0  0  0  0  0  0
  -25.9042  -32.4805   23.8375 C   0  0  1  0  0  0
  -27.2427  -27.4349   20.1202 C   0  0  0  0  0  0
  -25.5878  -33.8603   24.2299 N   0  0  0  0  0  0
  -23.4060  -30.4901   21.5431 C   0  0  2  0  0  0
  -24.8584  -28.9504   20.1139 C   0  0  0  0  0  0
  -22.7404  -29.4678   22.4942 C   0  0  0  0  0  0
  -18.0272  -28.1417   22.8504 C   0  0  0  0  0  0
  -24.1450  -36.7279   23.2650 C   0  0  0  0  0  0
  -25.9305  -30.8325   21.3606 C   0  0  0  0  0  0
  -26.0118  -29.4622   20.7211 C   0  0  0  0  0  0
  -27.2072  -28.7109   20.7304 C   0  0  0  0  0  0
  -26.0792  -26.9355   19.5028 C   0  0  0  0  0  0
  -24.8855  -27.6840   19.4997 C   0  0  0  0  0  0
  -23.6194  -29.8162   20.1587 C   0  0  0  0  0  0
  -25.4081  -36.3095   24.0341 C   0  0  1  0  0  0
  -20.5871  -28.3688   23.1297 C   0  0  2  0  0  0
  -20.6764  -26.9415   22.5422 C   0  0  0  0  0  0
  -19.5728  -26.6404   21.5232 C   0  0  0  0  0  0
  -18.1906  -26.7966   22.1639 C   0  0  0  0  0  0
  -19.1529  -28.8867   23.2911 C   0  0  0  0  0  0
  -18.9484  -30.1491   23.8910 C   0  0  0  0  0  0
  -17.6491  -30.6633   24.0595 C   0  0  0  0  0  0
  -25.9025  -34.9473   23.5117 C   0  0  0  0  0  0
  -16.5376  -29.9148   23.6354 C   0  0  0  0  0  0
  -16.7272  -28.6561   23.0359 C   0  0  0  0  0  0
  -26.4471  -31.6606   25.0721 C   0  0  0  0  0  0
  -25.3735  -31.3730   26.1463 C   0  0  0  0  0  0
  -27.0310  -30.3052   24.6094 C   0  0  0  0  0  0
  -27.6025  -32.4337   25.7508 C   0  0  0  0  0  0
  -27.5541  -37.1787   24.8486 C   0  0  0  0  0  0
  -21.4137  -29.3038   22.3667 N   0  0  0  0  0  0
  -26.4255  -37.3802   23.9432 N   0  0  0  0  0  0
  -24.6684  -31.0773   22.0962 N   0  0  0  0  0  0
  -23.4162  -28.8222   23.3007 O   0  0  0  0  0  0
  -28.3936  -26.6832   20.0799 O   0  0  0  0  0  0
  -26.5605  -34.8958   22.4701 O   0  0  0  0  0  0
  -23.5352  -32.1366   23.7494 O   0  0  0  0  0  0
  -31.0143  -19.0063   20.8770 C   0  0  0  0  0  0
  -28.7961  -17.4531   21.5158 C   0  0  0  0  0  0
  -29.7857  -19.6749   21.1162 C   0  0  0  0  0  0
  -28.6573  -18.8647   21.4558 C   0  0  0  0  0  0
  -30.0228  -16.8005   21.2557 C   0  0  0  0  0  0
  -31.1504  -17.6068   20.9683 C   0  0  0  0  0  0
  -29.7755  -21.1929   20.9689 C   0  0  0  0  0  0
  -27.2798  -19.4355   21.7661 C   0  0  0  0  0  0
  -29.9929  -26.2885   21.7978 C   0  0  0  0  0  0
  -28.5993  -24.3345   20.8195 C   0  0  0  0  0  0
  -28.9787  -23.3550   21.9714 C   0  0  0  0  0  0
  -28.6371  -25.8446   21.2203 C   0  0  2  0  0  0
  -30.0346  -15.3682   21.3503 N   0  0  0  0  0  0
  -28.8864  -21.9149   21.6718 N   0  0  0  0  0  0
  -30.6489  -21.7449   20.2944 O   0  0  0  0  0  0
  -32.3850  -17.0766   20.8090 F   0  0  0  0  0  0
  -31.4710  -12.4314   19.0962 H   0  0  0  0  0  0
  -30.3504  -11.2926   19.7928 H   0  0  0  0  0  0
  -29.7187  -11.7682   17.4247 H   0  0  0  0  0  0
  -29.6614  -13.4813   17.7466 H   0  0  0  0  0  0
  -27.8038  -11.3222   18.7809 H   0  0  0  0  0  0
  -27.3615  -12.6847   17.7893 H   0  0  0  0  0  0
  -27.7197  -14.2550   19.6133 H   0  0  0  0  0  0
  -28.6886  -11.8893   21.2799 H   0  0  0  0  0  0
  -28.4666  -13.4901   21.9061 H   0  0  0  0  0  0
  -25.2764   -9.5696   22.4729 H   0  0  0  0  0  0
  -23.9986   -7.4647   22.7482 H   0  0  0  0  0  0
  -21.0816   -8.8753   19.8953 H   0  0  0  0  0  0
  -22.3672  -10.9651   19.6144 H   0  0  0  0  0  0
  -21.2002   -7.6130   23.9687 H   0  0  0  0  0  0
  -21.1494   -6.0522   25.9061 H   0  0  0  0  0  0
  -22.0599   -2.7590   23.2866 H   0  0  0  0  0  0
  -22.4120  -11.9892   22.4795 H   0  0  0  0  0  0
  -21.1147  -13.1284   22.2553 H   0  0  0  0  0  0
  -24.6896  -15.8551   20.5563 H   0  0  0  0  0  0
  -26.2941  -15.6233   20.0940 H   0  0  0  0  0  0
  -26.7115  -32.5522   23.1147 H   0  0  0  0  0  0
  -25.0037  -33.9755   25.0448 H   0  0  0  0  0  0
  -22.6981  -31.3090   21.3988 H   0  0  0  0  0  0
  -23.3729  -35.9603   23.3364 H   0  0  0  0  0  0
  -24.3526  -36.8841   22.2057 H   0  0  0  0  0  0
  -23.7206  -37.6497   23.6634 H   0  0  0  0  0  0
  -26.0362  -31.5888   20.5826 H   0  0  0  0  0  0
  -26.8224  -30.8982   21.9702 H   0  0  0  0  0  0
  -28.0973  -29.1064   21.2011 H   0  0  0  0  0  0
  -26.1025  -25.9635   19.0282 H   0  0  0  0  0  0
  -24.0022  -27.2856   19.0178 H   0  0  0  0  0  0
  -23.7311  -30.5850   19.3949 H   0  0  0  0  0  0
  -22.7452  -29.2323   19.8631 H   0  0  0  0  0  0
  -25.1275  -36.1931   25.0836 H   0  0  0  0  0  0
  -21.0007  -28.3278   24.1399 H   0  0  0  0  0  0
  -20.5662  -26.2301   23.3619 H   0  0  0  0  0  0
  -21.6632  -26.7450   22.1208 H   0  0  0  0  0  0
  -19.6883  -25.6316   21.1241 H   0  0  0  0  0  0
  -19.6672  -27.3253   20.6796 H   0  0  0  0  0  0
  -17.4176  -26.6737   21.4043 H   0  0  0  0  0  0
  -18.0284  -26.0122   22.9041 H   0  0  0  0  0  0
  -19.7981  -30.7311   24.2236 H   0  0  0  0  0  0
  -17.5084  -31.6307   24.5205 H   0  0  0  0  0  0
  -15.5396  -30.3082   23.7698 H   0  0  0  0  0  0
  -15.8662  -28.0938   22.7032 H   0  0  0  0  0  0
  -24.5907  -30.7067   25.7816 H   0  0  0  0  0  0
  -24.8935  -32.2906   26.4871 H   0  0  0  0  0  0
  -25.8084  -30.8930   27.0241 H   0  0  0  0  0  0
  -26.2826  -29.6796   24.1203 H   0  0  0  0  0  0
  -27.4147  -29.7311   25.4543 H   0  0  0  0  0  0
  -27.8640  -30.4402   23.9189 H   0  0  0  0  0  0
  -27.2597  -33.3634   26.2073 H   0  0  0  0  0  0
  -28.3853  -32.6889   25.0352 H   0  0  0  0  0  0
  -28.0663  -31.8464   26.5441 H   0  0  0  0  0  0
  -28.2616  -38.0030   24.7511 H   0  0  0  0  0  0
  -28.0969  -36.2575   24.6332 H   0  0  0  0  0  0
  -27.2255  -37.1484   25.8889 H   0  0  0  0  0  0
  -20.9290  -29.8694   21.6835 H   0  0  0  0  0  0
  -26.0124  -38.2866   24.1488 H   0  0  0  0  0  0
  -31.8962  -19.5774   20.6244 H   0  0  0  0  0  0
  -27.9358  -16.8511   21.7745 H   0  0  0  0  0  0
  -26.9322  -20.0945   20.9693 H   0  0  0  0  0  0
  -27.2877  -19.9862   22.7086 H   0  0  0  0  0  0
  -26.5325  -18.6471   21.8711 H   0  0  0  0  0  0
  -30.2409  -25.7410   22.7080 H   0  0  0  0  0  0
  -29.9811  -27.3465   22.0574 H   0  0  0  0  0  0
  -30.8009  -26.1380   21.0818 H   0  0  0  0  0  0
  -27.5941  -24.0964   20.4685 H   0  0  0  0  0  0
  -29.2616  -24.1672   19.9697 H   0  0  0  0  0  0
  -28.3355  -23.5525   22.8296 H   0  0  0  0  0  0
  -29.9979  -23.5520   22.3052 H   0  0  0  0  0  0
  -27.8802  -26.0139   21.9892 H   0  0  0  0  0  0
  -29.2180  -14.9746   21.7877 H   0  0  0  0  0  0
  -28.2046  -21.3831   22.1971 H   0  0  0  0  0  0
  1 25  1  0  0  0
  1 30  2  0  0  0
  1 83  1  0  0  0
  2  3  1  0  0  0
  2 25  1  0  0  0
  2 87  1  0  0  0
  2 88  1  0  0  0
  3  4  1  0  0  0
  3 89  1  0  0  0
  3 90  1  0  0  0
  4  5  1  0  0  0
  4 91  1  0  0  0
  4 92  1  0  0  0
  5  6  1  0  0  0
  5 26  1  0  0  0
  5 93  1  0  0  0
  6 25  1  0  0  0
  6 94  1  0  0  0
  6 95  1  0  0  0
  7  8  2  0  0  0
  7 26  1  0  0  0
  7 29  1  0  0  0
  8  9  1  0  0  0
  8 22  1  0  0  0
  9 10  1  0  0  0
  9 27  2  0  0  0
 10 11  2  0  0  0
 10 15  1  0  0  0
 11 12  1  0  0  0
 11 96  1  0  0  0
 12 13  2  0  0  0
 12 97  1  0  0  0
 13 14  1  0  0  0
 13 31  1  0  0  0
 14 15  2  0  0  0
 14 98  1  0  0  0
 15 99  1  0  0  0
 16 17  2  0  0  0
 16 21  1  0  0  0
 16 31  1  0  0  0
 17 18  1  0  0  0
 17100  1  0  0  0
 18 19  2  0  0  0
 18101  1  0  0  0
 19 20  1  0  0  0
 19 24  1  0  0  0
 20 21  2  0  0  0
 20102  1  0  0  0
 21 23  1  0  0  0
 22 28  1  0  0  0
 22 32  2  0  0  0
 26 27  1  0  0  0
 28103  1  0  0  0
 28104  1  0  0  0
 29105  1  0  0  0
 29106  1  0  0  0
 33 34  1  0  0  0
 33 66  1  0  0  0
 33 70  2  0  0  0
 34 36  1  0  0  0
 34 59  1  0  0  0
 34107  1  0  0  0
 35 44  2  0  0  0
 35 45  1  0  0  0
 35 68  1  0  0  0
 36 56  1  0  0  0
 36108  1  0  0  0
 37 39  1  0  0  0
 37 47  1  0  0  0
 37 66  1  0  0  0
 37109  1  0  0  0
 38 43  2  0  0  0
 38 46  1  0  0  0
 38 47  1  0  0  0
 39 64  1  0  0  0
 39 67  2  0  0  0
 40 52  1  0  0  0
 40 53  2  0  0  0
 40 58  1  0  0  0
 41110  1  0  0  0
 41111  1  0  0  0
 41112  1  0  0  0
 41 48  1  0  0  0
 42 43  1  0  0  0
 42 66  1  0  0  0
 42113  1  0  0  0
 42114  1  0  0  0
 43 44  1  0  0  0
 44115  1  0  0  0
 45 46  2  0  0  0
 45116  1  0  0  0
 46117  1  0  0  0
 47118  1  0  0  0
 47119  1  0  0  0
 48 56  1  0  0  0
 48 65  1  0  0  0
 48120  1  0  0  0
 49 50  1  0  0  0
 49 53  1  0  0  0
 49 64  1  0  0  0
 49121  1  0  0  0
 50 51  1  0  0  0
 50122  1  0  0  0
 50123  1  0  0  0
 51 52  1  0  0  0
 51124  1  0  0  0
 51125  1  0  0  0
 52126  1  0  0  0
 52127  1  0  0  0
 53 54  1  0  0  0
 54 55  2  0  0  0
 54128  1  0  0  0
 55 57  1  0  0  0
 55129  1  0  0  0
 56 69  2  0  0  0
 57 58  2  0  0  0
 57130  1  0  0  0
 58131  1  0  0  0
 59 60  1  0  0  0
 59 61  1  0  0  0
 59 62  1  0  0  0
 60132  1  0  0  0
 60133  1  0  0  0
 60134  1  0  0  0
 61135  1  0  0  0
 61136  1  0  0  0
 61137  1  0  0  0
 62138  1  0  0  0
 62139  1  0  0  0
 62140  1  0  0  0
 63 65  1  0  0  0
 63141  1  0  0  0
 63142  1  0  0  0
 63143  1  0  0  0
 64144  1  0  0  0
 65145  1  0  0  0
 68 82  1  0  0  0
 71 73  2  0  0  0
 71 76  1  0  0  0
 71146  1  0  0  0
 72 74  2  0  0  0
 72 75  1  0  0  0
 72147  1  0  0  0
 73 74  1  0  0  0
 73 77  1  0  0  0
 74 78  1  0  0  0
 75 76  2  0  0  0
 75 83  1  0  0  0
 76 86  1  0  0  0
 77 84  1  0  0  0
 77 85  2  0  0  0
 78148  1  0  0  0
 78149  1  0  0  0
 78150  1  0  0  0
 79151  1  0  0  0
 79152  1  0  0  0
 79153  1  0  0  0
 79 82  1  0  0  0
 80 81  1  0  0  0
 80 82  1  0  0  0
 80154  1  0  0  0
 80155  1  0  0  0
 81 84  1  0  0  0
 81156  1  0  0  0
 81157  1  0  0  0
 82158  1  0  0  0
 83159  1  0  0  0
 84160  1  0  0  0
M  ISO  4   1 100  68 101  82 101  83 100
M  END
> <chiral flag>
0

> <version>
0

> <s_m_source_file>
/data/baiqing/PycharmProjects/Reinvent-master-3.2/result/LINK_invent/BTK/process_docking_weight1_custom_product_contain_oxygen_bond_distance_aromatic_linkinvent_7_9_3/rearranged_h_0108.sdf

> <i_m_source_file_index>
17

> <r_mmod_Potential_Energy-OPLS-2005>
-94.1540374755859

> <r_mmod_Stretch_Energy-OPLS-2005>
42.9911041259766

> <r_mmod_Bend_Energy-OPLS-2005>
111.643035888672

> <r_mmod_Torsional_Energy-OPLS-2005>
250.208023071289

> <r_mmod_Improper_Torsional_Energy-OPLS-2005>
4.97375679016113

> <r_mmod_Van_der_Waal_Energy-OPLS-2005>
155.623306274414

> <r_mmod_Electrostatic_Energy-OPLS-2005>
-432.3974609375

> <r_mmod_Solvation_Energy-OPLS-2005>
-237.684280395508

> <b_mmod_Minimization_Converged-OPLS-2005>
0

> <r_mmod_RMS_Derivative-OPLS-2005>
3.31848502159119

$$$$
18
                    3D
 Structure written by MMmdl.
149157  0  0  1  0            999 V2000
  -30.4671  -15.0056   20.4346 C   0  0  0  0  0  0
  -30.4348  -12.6175   19.5333 C   0  0  0  0  0  0
  -29.5194  -12.5310   18.2883 C   0  0  0  0  0  0
  -28.0571  -12.3026   18.7050 C   0  0  0  0  0  0
  -27.6263  -13.2413   19.8589 C   0  0  2  0  0  0
  -28.6562  -13.2604   21.0058 C   0  0  0  0  0  0
  -25.2418  -13.8196   20.5742 C   0  0  0  0  0  0
  -24.1734  -13.0450   20.9203 C   0  0  0  0  0  0
  -24.6324  -11.6915   20.8746 C   0  0  0  0  0  0
  -23.9014  -10.4282   21.0392 C   0  0  0  0  0  0
  -24.3576   -9.4200   21.9169 C   0  0  0  0  0  0
  -23.6257   -8.2240   22.0758 C   0  0  0  0  0  0
  -22.4249   -8.0252   21.3545 C   0  0  0  0  0  0
  -21.9869   -9.0221   20.4650 C   0  0  0  0  0  0
  -22.7181  -10.2109   20.3048 C   0  0  0  0  0  0
  -21.6858   -6.0684   22.5252 C   0  0  0  0  0  0
  -21.4021   -6.5599   23.8174 C   0  0  0  0  0  0
  -21.3662   -5.6781   24.9140 C   0  0  0  0  0  0
  -21.6043   -4.3041   24.7235 C   0  0  0  0  0  0
  -21.8824   -3.8098   23.4366 C   0  0  0  0  0  0
  -21.9193   -4.6899   22.3394 C   0  0  0  0  0  0
  -22.7752  -13.5204   21.1841 C   0  0  0  0  0  0
  -22.1661   -4.2073   21.0990 F   0  0  0  0  0  0
  -21.5626   -3.4549   25.7766 F   0  0  0  0  0  0
  -29.9283  -13.7091   20.4289 N   0  0  0  0  0  0
  -26.2838  -12.9420   20.3320 N   0  0  0  0  0  0
  -25.9258  -11.6563   20.5791 N   0  0  0  0  0  0
  -22.0443  -12.8213   22.0429 N   0  0  0  0  0  0
  -25.4132  -15.1939   20.4152 N   0  0  0  0  0  0
  -31.6201  -15.1108   19.9904 O   0  0  0  0  0  0
  -21.6652   -6.8837   21.4218 O   0  0  0  0  0  0
  -22.3420  -14.5508   20.6655 O   0  0  0  0  0  0
  -24.6478  -31.8352   23.1871 C   0  0  0  0  0  0
  -25.9240  -32.4608   23.8271 C   0  0  1  0  0  0
  -27.1471  -27.0511   20.1460 C   0  0  0  0  0  0
  -25.5975  -33.8441   24.2177 N   0  0  0  0  0  0
  -23.4489  -30.4668   21.5328 C   0  0  2  0  0  0
  -24.8828  -28.8961   20.0916 C   0  0  0  0  0  0
  -22.7578  -29.4520   22.4785 C   0  0  0  0  0  0
  -18.0324  -28.1372   22.8476 C   0  0  0  0  0  0
  -24.1515  -36.7254   23.2647 C   0  0  0  0  0  0
  -26.0117  -30.6802   21.4017 C   0  0  0  0  0  0
  -26.0651  -29.2928   20.7276 C   0  0  0  0  0  0
  -27.1972  -28.3859   20.7370 C   0  0  0  0  0  0
  -25.9488  -26.7824   19.4517 C   0  0  0  0  0  0
  -24.8500  -27.6663   19.4246 C   0  0  0  0  0  0
  -23.6727  -29.8159   20.1440 C   0  0  0  0  0  0
  -25.4122  -36.2983   24.0300 C   0  0  1  0  0  0
  -20.5930  -28.3676   23.1210 C   0  0  2  0  0  0
  -20.6787  -26.9365   22.5385 C   0  0  0  0  0  0
  -19.5777  -26.6352   21.5216 C   0  0  0  0  0  0
  -18.1954  -26.7929   22.1610 C   0  0  0  0  0  0
  -19.1575  -28.8843   23.2849 C   0  0  0  0  0  0
  -18.9480  -30.1433   23.8880 C   0  0  0  0  0  0
  -17.6483  -30.6574   24.0537 C   0  0  0  0  0  0
  -25.9052  -34.9346   23.5032 C   0  0  0  0  0  0
  -16.5360  -29.9049   23.6335 C   0  0  0  0  0  0
  -16.7299  -28.6452   23.0354 C   0  0  0  0  0  0
  -26.4571  -31.6509   25.0741 C   0  0  0  0  0  0
  -25.3767  -31.3700   26.1446 C   0  0  0  0  0  0
  -27.0417  -30.2848   24.6432 C   0  0  0  0  0  0
  -27.6084  -32.4330   25.7496 C   0  0  0  0  0  0
  -27.5582  -37.1755   24.8444 C   0  0  0  0  0  0
  -21.4258  -29.3020   22.3545 N   0  0  0  0  0  0
  -26.4285  -37.3674   23.9394 N   0  0  0  0  0  0
  -24.7218  -31.0155   22.0947 N   0  0  0  0  0  0
  -23.4191  -28.8012   23.2914 O   0  0  0  0  0  0
  -28.1531  -26.0092   20.2645 O   0  0  0  0  0  0
  -26.5660  -34.8846   22.4622 O   0  0  0  0  0  0
  -23.5583  -32.1305   23.7038 O   0  0  0  0  0  0
  -29.5548  -19.1485   20.7501 C   0  0  0  0  0  0
  -28.7095  -20.2834   20.1732 C   0  0  0  0  0  0
  -29.2685  -17.7668   20.4558 C   0  0  0  0  0  0
  -27.7020  -19.6568   19.4436 C   0  0  0  0  0  0
  -29.6876  -16.3543   21.0942 C   0  0  0  0  0  0
  -26.5660  -20.2730   18.6582 C   0  0  0  0  0  0
  -28.1000  -24.5063   19.7415 C   0  0  0  0  0  0
  -28.0293  -22.9481   20.4864 C   0  0  0  0  0  0
  -29.4374  -16.2553   22.3337 N   0  0  0  0  0  0
  -28.9614  -21.7194   20.2012 O   0  0  0  0  0  0
  -27.8494  -17.8646   19.4228 S   0  0  0  0  0  0
  -31.4629  -12.7920   19.2178 H   0  0  0  0  0  0
  -30.4570  -11.6626   20.0638 H   0  0  0  0  0  0
  -29.8484  -11.7280   17.6288 H   0  0  0  0  0  0
  -29.5960  -13.4530   17.7139 H   0  0  0  0  0  0
  -27.9672  -11.2642   19.0305 H   0  0  0  0  0  0
  -27.3902  -12.4114   17.8505 H   0  0  0  0  0  0
  -27.5987  -14.2453   19.4343 H   0  0  0  0  0  0
  -28.7570  -12.2760   21.4650 H   0  0  0  0  0  0
  -28.3274  -13.9265   21.8041 H   0  0  0  0  0  0
  -25.2705   -9.5692   22.4766 H   0  0  0  0  0  0
  -23.9936   -7.4657   22.7507 H   0  0  0  0  0  0
  -21.0783   -8.8703   19.9014 H   0  0  0  0  0  0
  -22.3558  -10.9633   19.6171 H   0  0  0  0  0  0
  -21.2032   -7.6122   23.9637 H   0  0  0  0  0  0
  -21.1482   -6.0540   25.9045 H   0  0  0  0  0  0
  -22.0616   -2.7563   23.2898 H   0  0  0  0  0  0
  -22.4088  -11.9854   22.4781 H   0  0  0  0  0  0
  -21.1091  -13.1232   22.2756 H   0  0  0  0  0  0
  -24.6489  -15.8517   20.5292 H   0  0  0  0  0  0
  -26.2657  -15.6314   20.0921 H   0  0  0  0  0  0
  -26.7283  -32.5157   23.0966 H   0  0  0  0  0  0
  -25.0042  -33.9539   25.0279 H   0  0  0  0  0  0
  -22.7607  -31.2956   21.3907 H   0  0  0  0  0  0
  -23.3719  -35.9636   23.3268 H   0  0  0  0  0  0
  -24.3613  -36.8937   22.2072 H   0  0  0  0  0  0
  -23.7340  -37.6460   23.6726 H   0  0  0  0  0  0
  -26.1819  -31.4336   20.6295 H   0  0  0  0  0  0
  -26.8794  -30.7178   22.0501 H   0  0  0  0  0  0
  -28.0961  -28.6675   21.2696 H   0  0  0  0  0  0
  -25.7916  -25.8440   18.9483 H   0  0  0  0  0  0
  -23.9489  -27.3790   18.9003 H   0  0  0  0  0  0
  -23.8066  -30.6029   19.4009 H   0  0  0  0  0  0
  -22.7801  -29.2725   19.8263 H   0  0  0  0  0  0
  -25.1287  -36.1808   25.0783 H   0  0  0  0  0  0
  -21.0060  -28.3320   24.1307 H   0  0  0  0  0  0
  -20.5707  -26.2286   23.3592 H   0  0  0  0  0  0
  -21.6647  -26.7383   22.1172 H   0  0  0  0  0  0
  -19.6914  -25.6257   21.1237 H   0  0  0  0  0  0
  -19.6734  -27.3151   20.6735 H   0  0  0  0  0  0
  -17.4216  -26.6682   21.4002 H   0  0  0  0  0  0
  -18.0337  -26.0049   22.8983 H   0  0  0  0  0  0
  -19.7930  -30.7271   24.2260 H   0  0  0  0  0  0
  -17.4995  -31.6277   24.5108 H   0  0  0  0  0  0
  -15.5340  -30.2921   23.7688 H   0  0  0  0  0  0
  -15.8697  -28.0774   22.7072 H   0  0  0  0  0  0
  -24.5993  -30.6977   25.7811 H   0  0  0  0  0  0
  -24.8890  -32.2854   26.4803 H   0  0  0  0  0  0
  -25.8079  -30.8964   27.0275 H   0  0  0  0  0  0
  -26.3039  -29.6529   24.1480 H   0  0  0  0  0  0
  -27.3944  -29.7216   25.5080 H   0  0  0  0  0  0
  -27.9001  -30.3923   23.9802 H   0  0  0  0  0  0
  -27.2670  -33.3672   26.1967 H   0  0  0  0  0  0
  -28.3948  -32.6853   25.0375 H   0  0  0  0  0  0
  -28.0719  -31.8563   26.5509 H   0  0  0  0  0  0
  -28.2521  -38.0125   24.7487 H   0  0  0  0  0  0
  -28.1171  -36.2626   24.6269 H   0  0  0  0  0  0
  -27.2297  -37.1399   25.8852 H   0  0  0  0  0  0
  -20.9440  -29.8776   21.6772 H   0  0  0  0  0  0
  -26.0139  -38.2721   24.1422 H   0  0  0  0  0  0
  -30.3727  -19.3982   21.4136 H   0  0  0  0  0  0
  -26.8518  -21.2252   18.2108 H   0  0  0  0  0  0
  -25.6866  -20.4449   19.2846 H   0  0  0  0  0  0
  -26.2276  -19.6211   17.8452 H   0  0  0  0  0  0
  -27.3865  -24.4663   18.9154 H   0  0  0  0  0  0
  -29.0527  -24.4512   19.2143 H   0  0  0  0  0  0
  -26.9994  -22.5908   20.4086 H   0  0  0  0  0  0
  -28.1547  -23.1335   21.5572 H   0  0  0  0  0  0
  -29.0012  -17.0902   22.7097 H   0  0  0  0  0  0
  1 25  1  0  0  0
  1 30  2  0  0  0
  1 75  1  0  0  0
  2  3  1  0  0  0
  2 25  1  0  0  0
  2 82  1  0  0  0
  2 83  1  0  0  0
  3  4  1  0  0  0
  3 84  1  0  0  0
  3 85  1  0  0  0
  4  5  1  0  0  0
  4 86  1  0  0  0
  4 87  1  0  0  0
  5  6  1  0  0  0
  5 26  1  0  0  0
  5 88  1  0  0  0
  6 25  1  0  0  0
  6 89  1  0  0  0
  6 90  1  0  0  0
  7  8  2  0  0  0
  7 26  1  0  0  0
  7 29  1  0  0  0
  8  9  1  0  0  0
  8 22  1  0  0  0
  9 10  1  0  0  0
  9 27  2  0  0  0
 10 11  2  0  0  0
 10 15  1  0  0  0
 11 12  1  0  0  0
 11 91  1  0  0  0
 12 13  2  0  0  0
 12 92  1  0  0  0
 13 14  1  0  0  0
 13 31  1  0  0  0
 14 15  2  0  0  0
 14 93  1  0  0  0
 15 94  1  0  0  0
 16 17  2  0  0  0
 16 21  1  0  0  0
 16 31  1  0  0  0
 17 18  1  0  0  0
 17 95  1  0  0  0
 18 19  2  0  0  0
 18 96  1  0  0  0
 19 20  1  0  0  0
 19 24  1  0  0  0
 20 21  2  0  0  0
 20 97  1  0  0  0
 21 23  1  0  0  0
 22 28  1  0  0  0
 22 32  2  0  0  0
 26 27  1  0  0  0
 28 98  1  0  0  0
 28 99  1  0  0  0
 29100  1  0  0  0
 29101  1  0  0  0
 33 34  1  0  0  0
 33 66  1  0  0  0
 33 70  2  0  0  0
 34 36  1  0  0  0
 34 59  1  0  0  0
 34102  1  0  0  0
 35 44  2  0  0  0
 35 45  1  0  0  0
 35 68  1  0  0  0
 36 56  1  0  0  0
 36103  1  0  0  0
 37 39  1  0  0  0
 37 47  1  0  0  0
 37 66  1  0  0  0
 37104  1  0  0  0
 38 43  2  0  0  0
 38 46  1  0  0  0
 38 47  1  0  0  0
 39 64  1  0  0  0
 39 67  2  0  0  0
 40 52  1  0  0  0
 40 53  2  0  0  0
 40 58  1  0  0  0
 41105  1  0  0  0
 41106  1  0  0  0
 41107  1  0  0  0
 41 48  1  0  0  0
 42 43  1  0  0  0
 42 66  1  0  0  0
 42108  1  0  0  0
 42109  1  0  0  0
 43 44  1  0  0  0
 44110  1  0  0  0
 45 46  2  0  0  0
 45111  1  0  0  0
 46112  1  0  0  0
 47113  1  0  0  0
 47114  1  0  0  0
 48 56  1  0  0  0
 48 65  1  0  0  0
 48115  1  0  0  0
 49 50  1  0  0  0
 49 53  1  0  0  0
 49 64  1  0  0  0
 49116  1  0  0  0
 50 51  1  0  0  0
 50117  1  0  0  0
 50118  1  0  0  0
 51 52  1  0  0  0
 51119  1  0  0  0
 51120  1  0  0  0
 52121  1  0  0  0
 52122  1  0  0  0
 53 54  1  0  0  0
 54 55  2  0  0  0
 54123  1  0  0  0
 55 57  1  0  0  0
 55124  1  0  0  0
 56 69  2  0  0  0
 57 58  2  0  0  0
 57125  1  0  0  0
 58126  1  0  0  0
 59 60  1  0  0  0
 59 61  1  0  0  0
 59 62  1  0  0  0
 60127  1  0  0  0
 60128  1  0  0  0
 60129  1  0  0  0
 61130  1  0  0  0
 61131  1  0  0  0
 61132  1  0  0  0
 62133  1  0  0  0
 62134  1  0  0  0
 62135  1  0  0  0
 63 65  1  0  0  0
 63136  1  0  0  0
 63137  1  0  0  0
 63138  1  0  0  0
 64139  1  0  0  0
 65140  1  0  0  0
 68 77  1  0  0  0
 71 72  1  0  0  0
 71 73  2  0  0  0
 71141  1  0  0  0
 72 74  2  0  0  0
 72 80  1  0  0  0
 73 75  1  0  0  0
 73 81  1  0  0  0
 74 76  1  0  0  0
 74 81  1  0  0  0
 75 79  2  0  0  0
 76142  1  0  0  0
 76143  1  0  0  0
 76144  1  0  0  0
 77 78  1  0  0  0
 77145  1  0  0  0
 77146  1  0  0  0
 78 80  1  0  0  0
 78147  1  0  0  0
 78148  1  0  0  0
 79149  1  0  0  0
M  ISO  4   1 100  68 101  75 100  77 101
M  END
> <chiral flag>
0

> <version>
0

> <s_m_source_file>
/data/baiqing/PycharmProjects/Reinvent-master-3.2/result/LINK_invent/BTK/process_docking_weight1_custom_product_contain_oxygen_bond_distance_aromatic_linkinvent_7_9_3/rearranged_h_0108.sdf

> <i_m_source_file_index>
18

> <r_mmod_Potential_Energy-OPLS-2005>
852.769348144531

> <r_mmod_Stretch_Energy-OPLS-2005>
338.338928222656

> <r_mmod_Bend_Energy-OPLS-2005>
357.745574951172

> <r_mmod_Torsional_Energy-OPLS-2005>
239.589477539062

> <r_mmod_Improper_Torsional_Energy-OPLS-2005>
5.65894794464111

> <r_mmod_Van_der_Waal_Energy-OPLS-2005>
104.625030517578

> <r_mmod_Electrostatic_Energy-OPLS-2005>
-250.867065429688

> <r_mmod_Solvation_Energy-OPLS-2005>
-205.319732666016

> <b_mmod_Minimization_Converged-OPLS-2005>
0

> <r_mmod_RMS_Derivative-OPLS-2005>
7.59869241714478

$$$$
19
                    3D
 Structure written by MMmdl.
156164  0  0  1  0            999 V2000
  -30.4085  -15.2844   20.4227 C   0  0  0  0  0  0
  -30.4444  -12.8275   19.5310 C   0  0  0  0  0  0
  -29.5393  -12.6087   18.2880 C   0  0  0  0  0  0
  -28.0841  -12.3207   18.6997 C   0  0  0  0  0  0
  -27.6145  -13.2693   19.8280 C   0  0  2  0  0  0
  -28.6468  -13.3723   20.9647 C   0  0  0  0  0  0
  -25.2392  -13.8211   20.5763 C   0  0  0  0  0  0
  -24.1724  -13.0414   20.9227 C   0  0  0  0  0  0
  -24.6376  -11.6910   20.8721 C   0  0  0  0  0  0
  -23.9071  -10.4285   21.0386 C   0  0  0  0  0  0
  -24.3622   -9.4209   21.9171 C   0  0  0  0  0  0
  -23.6292   -8.2244   22.0750 C   0  0  0  0  0  0
  -22.4273   -8.0280   21.3542 C   0  0  0  0  0  0
  -21.9909   -9.0247   20.4643 C   0  0  0  0  0  0
  -22.7239  -10.2123   20.3044 C   0  0  0  0  0  0
  -21.6850   -6.0737   22.5284 C   0  0  0  0  0  0
  -21.4011   -6.5641   23.8218 C   0  0  0  0  0  0
  -21.3661   -5.6793   24.9177 C   0  0  0  0  0  0
  -21.6046   -4.3056   24.7227 C   0  0  0  0  0  0
  -21.8814   -3.8151   23.4346 C   0  0  0  0  0  0
  -21.9189   -4.6966   22.3405 C   0  0  0  0  0  0
  -22.7753  -13.5181   21.1894 C   0  0  0  0  0  0
  -22.1660   -4.2155   21.0980 F   0  0  0  0  0  0
  -21.5629   -3.4541   25.7739 F   0  0  0  0  0  0
  -29.8793  -13.9485   20.3790 N   0  0  0  0  0  0
  -26.2807  -12.9475   20.3199 N   0  0  0  0  0  0
  -25.9312  -11.6584   20.5668 N   0  0  0  0  0  0
  -22.0413  -12.8171   22.0457 N   0  0  0  0  0  0
  -25.4072  -15.1943   20.4341 N   0  0  0  0  0  0
  -31.5935  -15.3232   20.0536 O   0  0  0  0  0  0
  -21.6635   -6.8879   21.4245 O   0  0  0  0  0  0
  -22.3432  -14.5489   20.6750 O   0  0  0  0  0  0
  -24.6631  -31.8226   23.1693 C   0  0  0  0  0  0
  -25.9317  -32.4583   23.8148 C   0  0  1  0  0  0
  -27.2215  -26.9177   20.1831 C   0  0  0  0  0  0
  -25.5982  -33.8391   24.2061 N   0  0  0  0  0  0
  -23.4774  -30.4346   21.5188 C   0  0  2  0  0  0
  -24.9314  -28.8169   20.1127 C   0  0  0  0  0  0
  -22.7656  -29.4448   22.4778 C   0  0  0  0  0  0
  -18.0324  -28.1415   22.8480 C   0  0  0  0  0  0
  -24.1490  -36.7195   23.2647 C   0  0  0  0  0  0
  -26.0467  -30.6229   21.4045 C   0  0  0  0  0  0
  -26.1128  -29.2106   20.7523 C   0  0  0  0  0  0
  -27.2480  -28.2806   20.7676 C   0  0  0  0  0  0
  -26.0138  -26.6845   19.4840 C   0  0  0  0  0  0
  -24.9068  -27.5740   19.4596 C   0  0  0  0  0  0
  -23.7182  -29.7473   20.1456 C   0  0  0  0  0  0
  -25.4135  -36.2966   24.0298 C   0  0  1  0  0  0
  -20.5950  -28.3762   23.1195 C   0  0  2  0  0  0
  -20.6804  -26.9445   22.5408 C   0  0  0  0  0  0
  -19.5776  -26.6388   21.5220 C   0  0  0  0  0  0
  -18.1959  -26.7953   22.1629 C   0  0  0  0  0  0
  -19.1587  -28.8912   23.2822 C   0  0  0  0  0  0
  -18.9498  -30.1501   23.8860 C   0  0  0  0  0  0
  -17.6492  -30.6606   24.0568 C   0  0  0  0  0  0
  -25.9102  -34.9346   23.5007 C   0  0  0  0  0  0
  -16.5383  -29.9102   23.6349 C   0  0  0  0  0  0
  -16.7305  -28.6519   23.0376 C   0  0  0  0  0  0
  -26.4560  -31.6535   25.0683 C   0  0  0  0  0  0
  -25.3680  -31.3796   26.1342 C   0  0  0  0  0  0
  -27.0463  -30.2902   24.6433 C   0  0  0  0  0  0
  -27.6046  -32.4347   25.7487 C   0  0  0  0  0  0
  -27.5572  -37.1761   24.8466 C   0  0  0  0  0  0
  -21.4328  -29.3044   22.3531 N   0  0  0  0  0  0
  -26.4276  -37.3711   23.9412 N   0  0  0  0  0  0
  -24.7499  -30.9877   22.0843 N   0  0  0  0  0  0
  -23.4194  -28.8032   23.3033 O   0  0  0  0  0  0
  -28.2376  -25.8193   20.2525 O   0  0  0  0  0  0
  -26.5712  -34.8884   22.4600 O   0  0  0  0  0  0
  -23.5703  -32.1210   23.6786 O   0  0  0  0  0  0
  -28.3399  -20.3481   19.6783 C   0  0  0  0  0  0
  -30.3146  -19.1833   21.1532 C   0  0  0  0  0  0
  -29.0736  -21.4112   20.3702 C   0  0  0  0  0  0
  -28.5700  -18.8631   19.7073 C   0  0  0  0  0  0
  -29.5990  -18.1240   20.4533 C   0  0  0  0  0  0
  -30.0987  -20.6688   21.1170 C   0  0  0  0  0  0
  -28.0477  -17.0962   22.5914 C   0  0  0  0  0  0
  -28.9201  -23.1256   20.4201 C   0  0  0  0  0  0
  -29.0325  -16.3443   22.0608 C   0  0  0  0  0  0
  -28.0619  -24.2922   20.1275 C   0  0  0  0  0  0
  -27.5934  -18.0095   18.9203 C   0  0  0  0  0  0
  -31.9118  -20.9487   22.7003 C   0  0  0  0  0  0
  -29.6532  -16.5257   20.8073 N   0  0  0  0  0  0
  -30.9030  -21.5064   21.8657 O   0  0  0  0  0  0
  -31.4591  -13.0483   19.1989 H   0  0  0  0  0  0
  -30.5336  -11.9064   20.1093 H   0  0  0  0  0  0
  -29.9255  -11.7963   17.6708 H   0  0  0  0  0  0
  -29.5663  -13.5045   17.6654 H   0  0  0  0  0  0
  -28.0340  -11.2876   19.0456 H   0  0  0  0  0  0
  -27.4196  -12.3891   17.8374 H   0  0  0  0  0  0
  -27.5453  -14.2552   19.3668 H   0  0  0  0  0  0
  -28.8288  -12.3945   21.4129 H   0  0  0  0  0  0
  -28.2365  -13.9748   21.7680 H   0  0  0  0  0  0
  -25.2760   -9.5693   22.4749 H   0  0  0  0  0  0
  -24.0005   -7.4638   22.7470 H   0  0  0  0  0  0
  -21.0842   -8.8756   19.8952 H   0  0  0  0  0  0
  -22.3682  -10.9659   19.6158 H   0  0  0  0  0  0
  -21.1996   -7.6149   23.9720 H   0  0  0  0  0  0
  -21.1493   -6.0524   25.9080 H   0  0  0  0  0  0
  -22.0589   -2.7614   23.2841 H   0  0  0  0  0  0
  -22.4037  -11.9836   22.4851 H   0  0  0  0  0  0
  -21.1030  -13.1192   22.2676 H   0  0  0  0  0  0
  -24.6516  -15.8523   20.5876 H   0  0  0  0  0  0
  -26.2869  -15.6400   20.2114 H   0  0  0  0  0  0
  -26.7378  -32.5127   23.0846 H   0  0  0  0  0  0
  -25.0089  -33.9448   25.0191 H   0  0  0  0  0  0
  -22.7918  -31.2667   21.3466 H   0  0  0  0  0  0
  -23.3769  -35.9509   23.3282 H   0  0  0  0  0  0
  -24.3562  -36.8865   22.2065 H   0  0  0  0  0  0
  -23.7218  -37.6365   23.6717 H   0  0  0  0  0  0
  -26.2322  -31.3614   20.6232 H   0  0  0  0  0  0
  -26.9048  -30.6797   22.0624 H   0  0  0  0  0  0
  -28.1409  -28.5798   21.2987 H   0  0  0  0  0  0
  -25.8886  -25.7426   18.9716 H   0  0  0  0  0  0
  -24.0117  -27.2706   18.9347 H   0  0  0  0  0  0
  -23.8772  -30.5145   19.3867 H   0  0  0  0  0  0
  -22.8266  -29.2034   19.8292 H   0  0  0  0  0  0
  -25.1331  -36.1758   25.0789 H   0  0  0  0  0  0
  -21.0052  -28.3381   24.1317 H   0  0  0  0  0  0
  -20.5701  -26.2378   23.3646 H   0  0  0  0  0  0
  -21.6666  -26.7429   22.1213 H   0  0  0  0  0  0
  -19.6932  -25.6289   21.1284 H   0  0  0  0  0  0
  -19.6721  -27.3170   20.6728 H   0  0  0  0  0  0
  -17.4234  -26.6710   21.4025 H   0  0  0  0  0  0
  -18.0347  -26.0092   22.9021 H   0  0  0  0  0  0
  -19.7970  -30.7326   24.2219 H   0  0  0  0  0  0
  -17.5045  -31.6288   24.5170 H   0  0  0  0  0  0
  -15.5385  -30.2996   23.7688 H   0  0  0  0  0  0
  -15.8704  -28.0812   22.7137 H   0  0  0  0  0  0
  -24.5880  -30.7116   25.7664 H   0  0  0  0  0  0
  -24.8845  -32.3004   26.4621 H   0  0  0  0  0  0
  -25.7922  -30.9068   27.0210 H   0  0  0  0  0  0
  -26.3140  -29.6569   24.1420 H   0  0  0  0  0  0
  -27.3964  -29.7274   25.5092 H   0  0  0  0  0  0
  -27.9089  -30.4064   23.9869 H   0  0  0  0  0  0
  -27.2612  -33.3695   26.1922 H   0  0  0  0  0  0
  -28.3944  -32.6830   25.0386 H   0  0  0  0  0  0
  -28.0619  -31.8562   26.5524 H   0  0  0  0  0  0
  -28.2580  -38.0068   24.7539 H   0  0  0  0  0  0
  -28.1080  -36.2602   24.6275 H   0  0  0  0  0  0
  -27.2286  -37.1383   25.8866 H   0  0  0  0  0  0
  -20.9589  -29.8701   21.6631 H   0  0  0  0  0  0
  -26.0123  -38.2764   24.1437 H   0  0  0  0  0  0
  -27.5149  -20.6929   19.0709 H   0  0  0  0  0  0
  -31.0707  -18.7913   21.8144 H   0  0  0  0  0  0
  -27.6644  -16.8730   23.5766 H   0  0  0  0  0  0
  -27.5989  -17.9340   22.0790 H   0  0  0  0  0  0
  -29.8499  -23.5071   20.8157 H   0  0  0  0  0  0
  -29.4375  -15.5279   22.6466 H   0  0  0  0  0  0
  -27.0828  -24.0838   19.7232 H   0  0  0  0  0  0
  -26.9348  -18.6127   18.2956 H   0  0  0  0  0  0
  -26.9729  -17.4256   19.5989 H   0  0  0  0  0  0
  -28.1310  -17.3184   18.2710 H   0  0  0  0  0  0
  -32.6488  -20.3843   22.1269 H   0  0  0  0  0  0
  -31.4827  -20.3056   23.4700 H   0  0  0  0  0  0
  -32.4440  -21.7532   23.2075 H   0  0  0  0  0  0
  1 25  1  0  0  0
  1 30  2  0  0  0
  1 83  1  0  0  0
  2  3  1  0  0  0
  2 25  1  0  0  0
  2 85  1  0  0  0
  2 86  1  0  0  0
  3  4  1  0  0  0
  3 87  1  0  0  0
  3 88  1  0  0  0
  4  5  1  0  0  0
  4 89  1  0  0  0
  4 90  1  0  0  0
  5  6  1  0  0  0
  5 26  1  0  0  0
  5 91  1  0  0  0
  6 25  1  0  0  0
  6 92  1  0  0  0
  6 93  1  0  0  0
  7  8  2  0  0  0
  7 26  1  0  0  0
  7 29  1  0  0  0
  8  9  1  0  0  0
  8 22  1  0  0  0
  9 10  1  0  0  0
  9 27  2  0  0  0
 10 11  2  0  0  0
 10 15  1  0  0  0
 11 12  1  0  0  0
 11 94  1  0  0  0
 12 13  2  0  0  0
 12 95  1  0  0  0
 13 14  1  0  0  0
 13 31  1  0  0  0
 14 15  2  0  0  0
 14 96  1  0  0  0
 15 97  1  0  0  0
 16 17  2  0  0  0
 16 21  1  0  0  0
 16 31  1  0  0  0
 17 18  1  0  0  0
 17 98  1  0  0  0
 18 19  2  0  0  0
 18 99  1  0  0  0
 19 20  1  0  0  0
 19 24  1  0  0  0
 20 21  2  0  0  0
 20100  1  0  0  0
 21 23  1  0  0  0
 22 28  1  0  0  0
 22 32  2  0  0  0
 26 27  1  0  0  0
 28101  1  0  0  0
 28102  1  0  0  0
 29103  1  0  0  0
 29104  1  0  0  0
 33 34  1  0  0  0
 33 66  1  0  0  0
 33 70  2  0  0  0
 34 36  1  0  0  0
 34 59  1  0  0  0
 34105  1  0  0  0
 35 44  2  0  0  0
 35 45  1  0  0  0
 35 68  1  0  0  0
 36 56  1  0  0  0
 36106  1  0  0  0
 37 39  1  0  0  0
 37 47  1  0  0  0
 37 66  1  0  0  0
 37107  1  0  0  0
 38 43  2  0  0  0
 38 46  1  0  0  0
 38 47  1  0  0  0
 39 64  1  0  0  0
 39 67  2  0  0  0
 40 52  1  0  0  0
 40 53  2  0  0  0
 40 58  1  0  0  0
 41108  1  0  0  0
 41109  1  0  0  0
 41110  1  0  0  0
 41 48  1  0  0  0
 42 43  1  0  0  0
 42 66  1  0  0  0
 42111  1  0  0  0
 42112  1  0  0  0
 43 44  1  0  0  0
 44113  1  0  0  0
 45 46  2  0  0  0
 45114  1  0  0  0
 46115  1  0  0  0
 47116  1  0  0  0
 47117  1  0  0  0
 48 56  1  0  0  0
 48 65  1  0  0  0
 48118  1  0  0  0
 49 50  1  0  0  0
 49 53  1  0  0  0
 49 64  1  0  0  0
 49119  1  0  0  0
 50 51  1  0  0  0
 50120  1  0  0  0
 50121  1  0  0  0
 51 52  1  0  0  0
 51122  1  0  0  0
 51123  1  0  0  0
 52124  1  0  0  0
 52125  1  0  0  0
 53 54  1  0  0  0
 54 55  2  0  0  0
 54126  1  0  0  0
 55 57  1  0  0  0
 55127  1  0  0  0
 56 69  2  0  0  0
 57 58  2  0  0  0
 57128  1  0  0  0
 58129  1  0  0  0
 59 60  1  0  0  0
 59 61  1  0  0  0
 59 62  1  0  0  0
 60130  1  0  0  0
 60131  1  0  0  0
 60132  1  0  0  0
 61133  1  0  0  0
 61134  1  0  0  0
 61135  1  0  0  0
 62136  1  0  0  0
 62137  1  0  0  0
 62138  1  0  0  0
 63 65  1  0  0  0
 63139  1  0  0  0
 63140  1  0  0  0
 63141  1  0  0  0
 64142  1  0  0  0
 65143  1  0  0  0
 68 80  1  0  0  0
 71 73  2  0  0  0
 71 74  1  0  0  0
 71144  1  0  0  0
 72 75  1  0  0  0
 72 76  2  0  0  0
 72145  1  0  0  0
 73 76  1  0  0  0
 73 78  1  0  0  0
 74 75  2  0  0  0
 74 81  1  0  0  0
 75 83  1  0  0  0
 76 84  1  0  0  0
 77 79  2  0  0  0
 77146  1  0  0  0
 77147  1  0  0  0
 78 80  2  0  0  0
 78148  1  0  0  0
 79 83  1  0  0  0
 79149  1  0  0  0
 80150  1  0  0  0
 81151  1  0  0  0
 81152  1  0  0  0
 81153  1  0  0  0
 82 84  1  0  0  0
 82154  1  0  0  0
 82155  1  0  0  0
 82156  1  0  0  0
M  ISO  4   1 100  68 101  80 101  83 100
M  END
> <chiral flag>
0

> <version>
0

> <s_m_source_file>
/data/baiqing/PycharmProjects/Reinvent-master-3.2/result/LINK_invent/BTK/process_docking_weight1_custom_product_contain_oxygen_bond_distance_aromatic_linkinvent_7_9_3/rearranged_h_0108.sdf

> <i_m_source_file_index>
19

> <r_mmod_Potential_Energy-OPLS-2005>
1419.25085449219

> <r_mmod_Stretch_Energy-OPLS-2005>
535.391418457031

> <r_mmod_Bend_Energy-OPLS-2005>
430.922332763672

> <r_mmod_Torsional_Energy-OPLS-2005>
320.976867675781

> <r_mmod_Improper_Torsional_Energy-OPLS-2005>
7.12167119979858

> <r_mmod_Van_der_Waal_Energy-OPLS-2005>
149.42041015625

> <r_mmod_Electrostatic_Energy-OPLS-2005>
-292.389770507812

> <r_mmod_Solvation_Energy-OPLS-2005>
-197.014999389648

> <b_mmod_Minimization_Converged-OPLS-2005>
0

> <r_mmod_RMS_Derivative-OPLS-2005>
1.50895440578461

$$$$
20
                    3D
 Structure written by MMmdl.
160168  0  0  1  0            999 V2000
  -29.9901  -15.7346   20.7567 C   0  0  0  0  0  0
  -30.3812  -13.2224   19.7081 C   0  0  0  0  0  0
  -29.5783  -12.7632   18.4400 C   0  0  0  0  0  0
  -28.1502  -12.3320   18.8057 C   0  0  0  0  0  0
  -27.5746  -13.2990   19.8625 C   0  0  2  0  0  0
  -28.5071  -13.5550   21.0650 C   0  0  0  0  0  0
  -25.2148  -13.8247   20.5707 C   0  0  0  0  0  0
  -24.1560  -13.0385   20.9229 C   0  0  0  0  0  0
  -24.6267  -11.6903   20.8709 C   0  0  0  0  0  0
  -23.9012  -10.4260   21.0381 C   0  0  0  0  0  0
  -24.3589   -9.4204   21.9175 C   0  0  0  0  0  0
  -23.6273   -8.2236   22.0757 C   0  0  0  0  0  0
  -22.4269   -8.0258   21.3542 C   0  0  0  0  0  0
  -21.9876   -9.0211   20.4644 C   0  0  0  0  0  0
  -22.7185  -10.2095   20.3038 C   0  0  0  0  0  0
  -21.6846   -6.0716   22.5284 C   0  0  0  0  0  0
  -21.4015   -6.5631   23.8212 C   0  0  0  0  0  0
  -21.3666   -5.6786   24.9180 C   0  0  0  0  0  0
  -21.6044   -4.3045   24.7231 C   0  0  0  0  0  0
  -21.8817   -3.8133   23.4358 C   0  0  0  0  0  0
  -21.9191   -4.6943   22.3414 C   0  0  0  0  0  0
  -22.7608  -13.5153   21.1887 C   0  0  0  0  0  0
  -22.1656   -4.2135   21.0980 F   0  0  0  0  0  0
  -21.5629   -3.4536   25.7742 F   0  0  0  0  0  0
  -29.6497  -14.3111   20.5509 N   0  0  0  0  0  0
  -26.2494  -12.9502   20.3132 N   0  0  0  0  0  0
  -25.9190  -11.6602   20.5634 N   0  0  0  0  0  0
  -22.0286  -12.8151   22.0488 N   0  0  0  0  0  0
  -25.3770  -15.1997   20.4227 N   0  0  0  0  0  0
  -31.1909  -15.8157   20.3930 O   0  0  0  0  0  0
  -21.6641   -6.8860   21.4247 O   0  0  0  0  0  0
  -22.3313  -14.5480   20.6744 O   0  0  0  0  0  0
  -25.3393  -31.3993   23.1467 C   0  0  0  0  0  0
  -26.3673  -32.3398   23.8308 C   0  0  1  0  0  0
  -25.7313  -29.5231   19.3197 C   0  0  0  0  0  0
  -25.8180  -33.7261   24.1506 N   0  0  0  0  0  0
  -24.3057  -28.6386   21.6349 C   0  0  2  0  0  0
  -26.0593  -27.6223   20.6220 C   0  0  0  0  0  0
  -22.7078  -28.1313   21.9425 C   0  0  0  0  0  0
  -17.9209  -28.1852   22.7679 C   0  0  0  0  0  0
  -24.1566  -36.6445   23.2597 C   0  0  0  0  0  0
  -26.7955  -29.9122   21.9103 C   0  0  0  0  0  0
  -26.8246  -28.8460   20.8558 C   0  0  0  0  0  0
  -27.0646  -29.4780   19.7011 C   0  0  0  0  0  0
  -25.4100  -28.2843   18.6674 C   0  0  0  0  0  0
  -25.9221  -27.1846   19.3066 C   0  0  0  0  0  0
  -24.6978  -27.5168   21.0182 C   0  0  0  0  0  0
  -25.4271  -36.2116   24.0131 C   0  0  1  0  0  0
  -20.4757  -28.1805   22.9475 C   0  0  2  0  0  0
  -20.2561  -26.6757   22.6033 C   0  0  0  0  0  0
  -19.2968  -26.5165   21.4665 C   0  0  0  0  0  0
  -17.9428  -26.8450   22.0541 C   0  0  0  0  0  0
  -19.1135  -28.8626   23.1488 C   0  0  0  0  0  0
  -18.9922  -30.1063   23.8139 C   0  0  0  0  0  0
  -17.7166  -30.6697   24.0612 C   0  0  0  0  0  0
  -25.9826  -34.8654   23.4556 C   0  0  0  0  0  0
  -16.5519  -29.9824   23.6756 C   0  0  0  0  0  0
  -16.6568  -28.7379   23.0405 C   0  0  0  0  0  0
  -26.6929  -31.6707   25.2130 C   0  0  0  0  0  0
  -25.5083  -31.3822   26.1999 C   0  0  0  0  0  0
  -27.4326  -30.3434   25.0126 C   0  0  0  0  0  0
  -27.6952  -32.5854   25.9331 C   0  0  0  0  0  0
  -27.5522  -37.1544   24.8511 C   0  0  0  0  0  0
  -21.4853  -28.7653   22.0066 N   0  0  0  0  0  0
  -26.4099  -37.3256   23.9565 N   0  0  0  0  0  0
  -25.5072  -30.0375   22.3893 N   0  0  0  0  0  0
  -22.8003  -27.2912   22.7867 O   0  0  0  0  0  0
  -24.8802  -30.4295   20.1953 O   0  0  0  0  0  0
  -26.6286  -34.8814   22.4101 O   0  0  0  0  0  0
  -24.2523  -31.9722   23.4921 O   0  0  0  0  0  0
  -27.3250  -19.9091   23.4763 C   0  0  0  0  0  0
  -26.2965  -22.1849   24.1395 C   0  0  0  0  0  0
  -27.8442  -20.2504   22.2104 C   0  0  0  0  0  0
  -27.4521  -21.8611   22.0695 C   0  0  0  0  0  0
  -26.6384  -22.9704   23.0030 C   0  0  0  0  0  0
  -26.6204  -20.7978   24.3580 C   0  0  0  0  0  0
  -25.1777  -25.7996   23.7476 C   0  0  0  0  0  0
  -27.9473  -22.4597   20.7788 C   0  0  0  0  0  0
  -28.8101  -18.8188   21.3119 C   0  0  0  0  0  0
  -24.9075  -27.7561   23.9973 C   0  0  0  0  0  0
  -23.6287  -29.5214   23.7152 C   0  0  0  0  0  0
  -23.4159  -30.7068   21.5497 C   0  0  0  0  0  0
  -26.1956  -24.7176   23.1054 N   0  0  0  0  0  0
  -29.0693  -16.9792   21.2133 N   0  0  0  0  0  0
  -24.2282  -25.2126   24.2734 O   0  0  0  0  0  0
  -26.2348  -20.2612   25.5426 F   0  0  0  0  0  0
  -31.3541  -13.5912   19.3838 H   0  0  0  0  0  0
  -30.6203  -12.3624   20.3348 H   0  0  0  0  0  0
  -30.1019  -11.9564   17.9264 H   0  0  0  0  0  0
  -29.5311  -13.5964   17.7372 H   0  0  0  0  0  0
  -28.1843  -11.3181   19.2103 H   0  0  0  0  0  0
  -27.5174  -12.2901   17.9182 H   0  0  0  0  0  0
  -27.4721  -14.2444   19.3278 H   0  0  0  0  0  0
  -28.7978  -12.6289   21.5626 H   0  0  0  0  0  0
  -28.0036  -14.1581   21.8229 H   0  0  0  0  0  0
  -25.2728   -9.5712   22.4759 H   0  0  0  0  0  0
  -23.9986   -7.4643   22.7486 H   0  0  0  0  0  0
  -21.0803   -8.8706   19.8957 H   0  0  0  0  0  0
  -22.3616  -10.9626   19.6153 H   0  0  0  0  0  0
  -21.2005   -7.6137   23.9717 H   0  0  0  0  0  0
  -21.1497   -6.0516   25.9085 H   0  0  0  0  0  0
  -22.0591   -2.7598   23.2854 H   0  0  0  0  0  0
  -22.3907  -11.9845   22.4902 H   0  0  0  0  0  0
  -21.0915  -13.1203   22.2686 H   0  0  0  0  0  0
  -24.5883  -15.8286   20.5121 H   0  0  0  0  0  0
  -26.1988  -15.6464   20.0371 H   0  0  0  0  0  0
  -27.2731  -32.4377   23.2308 H   0  0  0  0  0  0
  -25.2039  -33.7656   24.9486 H   0  0  0  0  0  0
  -23.8204  -28.7817   20.6680 H   0  0  0  0  0  0
  -23.4003  -35.8555   23.2830 H   0  0  0  0  0  0
  -24.3661  -36.8715   22.2137 H   0  0  0  0  0  0
  -23.7186  -37.5307   23.7192 H   0  0  0  0  0  0
  -27.1864  -30.8812   21.5871 H   0  0  0  0  0  0
  -27.4799  -29.5062   22.6377 H   0  0  0  0  0  0
  -27.5369  -30.4510   19.6582 H   0  0  0  0  0  0
  -24.4622  -28.1495   18.1646 H   0  0  0  0  0  0
  -25.4892  -26.2399   19.0265 H   0  0  0  0  0  0
  -23.9768  -27.0264   20.3099 H   0  0  0  0  0  0
  -24.7605  -26.6472   21.6162 H   0  0  0  0  0  0
  -25.1530  -36.0575   25.0572 H   0  0  0  0  0  0
  -20.8827  -28.1971   23.9621 H   0  0  0  0  0  0
  -19.8379  -26.2098   23.4958 H   0  0  0  0  0  0
  -21.0780  -26.0136   22.3618 H   0  0  0  0  0  0
  -19.3006  -25.4941   21.0823 H   0  0  0  0  0  0
  -19.5456  -27.1760   20.6324 H   0  0  0  0  0  0
  -17.1928  -26.8372   21.2607 H   0  0  0  0  0  0
  -17.6405  -26.0747   22.7639 H   0  0  0  0  0  0
  -19.8829  -30.6197   24.1393 H   0  0  0  0  0  0
  -17.6330  -31.6193   24.5766 H   0  0  0  0  0  0
  -15.5782  -30.4048   23.8832 H   0  0  0  0  0  0
  -15.7498  -28.2162   22.7549 H   0  0  0  0  0  0
  -25.2186  -30.3301   26.1998 H   0  0  0  0  0  0
  -24.6227  -31.9850   26.0072 H   0  0  0  0  0  0
  -25.7929  -31.5917   27.2336 H   0  0  0  0  0  0
  -26.8413  -29.5308   24.6361 H   0  0  0  0  0  0
  -27.7701  -29.9911   25.9852 H   0  0  0  0  0  0
  -28.3604  -30.4616   24.4502 H   0  0  0  0  0  0
  -27.2118  -33.4747   26.3316 H   0  0  0  0  0  0
  -28.4873  -32.9115   25.2569 H   0  0  0  0  0  0
  -28.1720  -32.1113   26.7904 H   0  0  0  0  0  0
  -28.2263  -38.0117   24.7770 H   0  0  0  0  0  0
  -28.1377  -36.2677   24.6040 H   0  0  0  0  0  0
  -27.2378  -37.0676   25.8938 H   0  0  0  0  0  0
  -21.3400  -29.6769   21.6024 H   0  0  0  0  0  0
  -25.9610  -38.2073   24.1756 H   0  0  0  0  0  0
  -27.4896  -18.8934   23.8129 H   0  0  0  0  0  0
  -25.7910  -22.6823   24.9524 H   0  0  0  0  0  0
  -28.7578  -21.8775   20.3369 H   0  0  0  0  0  0
  -28.3088  -23.4774   20.9381 H   0  0  0  0  0  0
  -27.1270  -22.4882   20.0604 H   0  0  0  0  0  0
  -29.8400  -19.1863   21.3521 H   0  0  0  0  0  0
  -28.5277  -19.0246   20.2781 H   0  0  0  0  0  0
  -25.9085  -28.0100   23.6575 H   0  0  0  0  0  0
  -24.9965  -27.8054   25.0791 H   0  0  0  0  0  0
  -23.8519  -30.0974   24.6034 H   0  0  0  0  0  0
  -22.6422  -29.3615   24.1369 H   0  0  0  0  0  0
  -23.1870  -31.7837   21.5635 H   0  0  0  0  0  0
  -22.5053  -30.5086   20.9662 H   0  0  0  0  0  0
  -26.8929  -25.2572   22.6026 H   0  0  0  0  0  0
  -28.1955  -16.5634   21.4958 H   0  0  0  0  0  0
  1 25  1  0  0  0
  1 30  2  0  0  0
  1 84  1  0  0  0
  2  3  1  0  0  0
  2 25  1  0  0  0
  2 87  1  0  0  0
  2 88  1  0  0  0
  3  4  1  0  0  0
  3 89  1  0  0  0
  3 90  1  0  0  0
  4  5  1  0  0  0
  4 91  1  0  0  0
  4 92  1  0  0  0
  5  6  1  0  0  0
  5 26  1  0  0  0
  5 93  1  0  0  0
  6 25  1  0  0  0
  6 94  1  0  0  0
  6 95  1  0  0  0
  7  8  2  0  0  0
  7 26  1  0  0  0
  7 29  1  0  0  0
  8  9  1  0  0  0
  8 22  1  0  0  0
  9 10  1  0  0  0
  9 27  2  0  0  0
 10 11  2  0  0  0
 10 15  1  0  0  0
 11 12  1  0  0  0
 11 96  1  0  0  0
 12 13  2  0  0  0
 12 97  1  0  0  0
 13 14  1  0  0  0
 13 31  1  0  0  0
 14 15  2  0  0  0
 14 98  1  0  0  0
 15 99  1  0  0  0
 16 17  2  0  0  0
 16 21  1  0  0  0
 16 31  1  0  0  0
 17 18  1  0  0  0
 17100  1  0  0  0
 18 19  2  0  0  0
 18101  1  0  0  0
 19 20  1  0  0  0
 19 24  1  0  0  0
 20 21  2  0  0  0
 20102  1  0  0  0
 21 23  1  0  0  0
 22 28  1  0  0  0
 22 32  2  0  0  0
 26 27  1  0  0  0
 28103  1  0  0  0
 28104  1  0  0  0
 29105  1  0  0  0
 29106  1  0  0  0
 33 34  1  0  0  0
 33 66  1  0  0  0
 33 70  2  0  0  0
 34 36  1  0  0  0
 34 59  1  0  0  0
 34107  1  0  0  0
 35 44  2  0  0  0
 35 45  1  0  0  0
 35 68  1  0  0  0
 36 56  1  0  0  0
 36108  1  0  0  0
 37 39  1  0  0  0
 37 47  1  0  0  0
 37 66  1  0  0  0
 37109  1  0  0  0
 38 43  2  0  0  0
 38 46  1  0  0  0
 38 47  1  0  0  0
 39 64  1  0  0  0
 39 67  2  0  0  0
 40 52  1  0  0  0
 40 53  2  0  0  0
 40 58  1  0  0  0
 41110  1  0  0  0
 41111  1  0  0  0
 41112  1  0  0  0
 41 48  1  0  0  0
 42 43  1  0  0  0
 42 66  1  0  0  0
 42113  1  0  0  0
 42114  1  0  0  0
 43 44  1  0  0  0
 44115  1  0  0  0
 45 46  2  0  0  0
 45116  1  0  0  0
 46117  1  0  0  0
 47118  1  0  0  0
 47119  1  0  0  0
 48 56  1  0  0  0
 48 65  1  0  0  0
 48120  1  0  0  0
 49 50  1  0  0  0
 49 53  1  0  0  0
 49 64  1  0  0  0
 49121  1  0  0  0
 50 51  1  0  0  0
 50122  1  0  0  0
 50123  1  0  0  0
 51 52  1  0  0  0
 51124  1  0  0  0
 51125  1  0  0  0
 52126  1  0  0  0
 52127  1  0  0  0
 53 54  1  0  0  0
 54 55  2  0  0  0
 54128  1  0  0  0
 55 57  1  0  0  0
 55129  1  0  0  0
 56 69  2  0  0  0
 57 58  2  0  0  0
 57130  1  0  0  0
 58131  1  0  0  0
 59 60  1  0  0  0
 59 61  1  0  0  0
 59 62  1  0  0  0
 60132  1  0  0  0
 60133  1  0  0  0
 60134  1  0  0  0
 61135  1  0  0  0
 61136  1  0  0  0
 61137  1  0  0  0
 62138  1  0  0  0
 62139  1  0  0  0
 62140  1  0  0  0
 63 65  1  0  0  0
 63141  1  0  0  0
 63142  1  0  0  0
 63143  1  0  0  0
 64144  1  0  0  0
 65145  1  0  0  0
 68 82  1  0  0  0
 71 73  2  0  0  0
 71 76  1  0  0  0
 71146  1  0  0  0
 72 75  1  0  0  0
 72 76  2  0  0  0
 72147  1  0  0  0
 73 74  1  0  0  0
 73 79  1  0  0  0
 74 75  2  0  0  0
 74 78  1  0  0  0
 75 83  1  0  0  0
 76 86  1  0  0  0
 77 80  1  0  0  0
 77 83  1  0  0  0
 77 85  2  0  0  0
 78148  1  0  0  0
 78149  1  0  0  0
 78150  1  0  0  0
 79 84  1  0  0  0
 79151  1  0  0  0
 79152  1  0  0  0
 80 81  1  0  0  0
 80153  1  0  0  0
 80154  1  0  0  0
 81 82  1  0  0  0
 81155  1  0  0  0
 81156  1  0  0  0
 82157  1  0  0  0
 82158  1  0  0  0
 83159  1  0  0  0
 84160  1  0  0  0
M  ISO  4   1 100  68 101  82 101  84 100
M  END
> <chiral flag>
0

> <version>
0

> <s_m_source_file>
/data/baiqing/PycharmProjects/Reinvent-master-3.2/result/LINK_invent/BTK/process_docking_weight1_custom_product_contain_oxygen_bond_distance_aromatic_linkinvent_7_9_3/rearranged_h_0108.sdf

> <i_m_source_file_index>
20

> <r_mmod_Potential_Energy-OPLS-2005>
15340.748046875

> <r_mmod_Stretch_Energy-OPLS-2005>
4432.984375

> <r_mmod_Bend_Energy-OPLS-2005>
1662.41955566406

> <r_mmod_Torsional_Energy-OPLS-2005>
605.669738769531

> <r_mmod_Improper_Torsional_Energy-OPLS-2005>
96.5190277099609

> <r_mmod_Van_der_Waal_Energy-OPLS-2005>
1770.87854003906

> <r_mmod_Electrostatic_Energy-OPLS-2005>
-454.180328369141

> <r_mmod_Solvation_Energy-OPLS-2005>
-229.139541625977

> <b_mmod_Minimization_Converged-OPLS-2005>
0

> <r_mmod_RMS_Derivative-OPLS-2005>
16.1637744903564

$$$$
21
                    3D
 Structure written by MMmdl.
158166  0  0  1  0            999 V2000
  -30.6679  -14.6180   20.5777 C   0  0  0  0  0  0
  -30.4313  -12.4023   19.4588 C   0  0  0  0  0  0
  -29.5089  -12.5313   18.2272 C   0  0  0  0  0  0
  -28.0309  -12.3595   18.6283 C   0  0  0  0  0  0
  -27.6546  -13.2154   19.8652 C   0  0  2  0  0  0
  -28.6896  -13.0424   20.9955 C   0  0  0  0  0  0
  -25.2569  -13.8172   20.5684 C   0  0  0  0  0  0
  -24.1826  -13.0440   20.9179 C   0  0  0  0  0  0
  -24.6387  -11.6908   20.8724 C   0  0  0  0  0  0
  -23.9052  -10.4294   21.0395 C   0  0  0  0  0  0
  -24.3607   -9.4212   21.9177 C   0  0  0  0  0  0
  -23.6282   -8.2250   22.0762 C   0  0  0  0  0  0
  -22.4265   -8.0285   21.3549 C   0  0  0  0  0  0
  -21.9892   -9.0257   20.4652 C   0  0  0  0  0  0
  -22.7222  -10.2133   20.3048 C   0  0  0  0  0  0
  -21.6854   -6.0729   22.5280 C   0  0  0  0  0  0
  -21.4019   -6.5636   23.8211 C   0  0  0  0  0  0
  -21.3657   -5.6791   24.9175 C   0  0  0  0  0  0
  -21.6048   -4.3054   24.7224 C   0  0  0  0  0  0
  -21.8819   -3.8141   23.4346 C   0  0  0  0  0  0
  -21.9196   -4.6957   22.3401 C   0  0  0  0  0  0
  -22.7856  -13.5251   21.1849 C   0  0  0  0  0  0
  -22.1667   -4.2144   21.0976 F   0  0  0  0  0  0
  -21.5628   -3.4536   25.7734 F   0  0  0  0  0  0
  -30.0143  -13.4090   20.4620 N   0  0  0  0  0  0
  -26.2986  -12.9346   20.3292 N   0  0  0  0  0  0
  -25.9313  -11.6500   20.5723 N   0  0  0  0  0  0
  -22.0494  -12.8249   22.0403 N   0  0  0  0  0  0
  -25.4301  -15.1897   20.4152 N   0  0  0  0  0  0
  -31.7491  -14.8065   20.0093 O   0  0  0  0  0  0
  -21.6638   -6.8874   21.4242 O   0  0  0  0  0  0
  -22.3542  -14.5558   20.6705 O   0  0  0  0  0  0
  -24.6251  -31.8603   23.2018 C   0  0  0  0  0  0
  -25.9103  -32.4781   23.8351 C   0  0  1  0  0  0
  -27.2263  -27.3317   20.1192 C   0  0  0  0  0  0
  -25.5923  -33.8583   24.2282 N   0  0  0  0  0  0
  -23.4181  -30.4823   21.5442 C   0  0  2  0  0  0
  -24.8659  -28.9358   20.1118 C   0  0  0  0  0  0
  -22.7469  -29.4625   22.4945 C   0  0  0  0  0  0
  -18.0298  -28.1379   22.8480 C   0  0  0  0  0  0
  -24.1489  -36.7298   23.2637 C   0  0  0  0  0  0
  -25.9574  -30.7950   21.3699 C   0  0  0  0  0  0
  -26.0335  -29.4214   20.7162 C   0  0  0  0  0  0
  -27.2192  -28.6310   20.7094 C   0  0  0  0  0  0
  -26.0429  -26.8968   19.4857 C   0  0  0  0  0  0
  -24.8715  -27.6780   19.4872 C   0  0  0  0  0  0
  -23.6325  -29.8141   20.1599 C   0  0  0  0  0  0
  -25.4109  -36.3088   24.0330 C   0  0  1  0  0  0
  -20.5889  -28.3683   23.1295 C   0  0  2  0  0  0
  -20.6786  -26.9416   22.5404 C   0  0  0  0  0  0
  -19.5770  -26.6399   21.5200 C   0  0  0  0  0  0
  -18.1940  -26.7929   22.1603 C   0  0  0  0  0  0
  -19.1543  -28.8846   23.2889 C   0  0  0  0  0  0
  -18.9459  -30.1442   23.8905 C   0  0  0  0  0  0
  -17.6459  -30.6571   24.0563 C   0  0  0  0  0  0
  -25.9043  -34.9455   23.5104 C   0  0  0  0  0  0
  -16.5357  -29.9069   23.6324 C   0  0  0  0  0  0
  -16.7281  -28.6493   23.0337 C   0  0  0  0  0  0
  -26.4495  -31.6584   25.0711 C   0  0  0  0  0  0
  -25.3733  -31.3718   26.1438 C   0  0  0  0  0  0
  -27.0333  -30.3012   24.6142 C   0  0  0  0  0  0
  -27.6060  -32.4311   25.7483 C   0  0  0  0  0  0
  -27.5579  -37.1801   24.8465 C   0  0  0  0  0  0
  -21.4182  -29.3052   22.3702 N   0  0  0  0  0  0
  -26.4294  -37.3776   23.9405 N   0  0  0  0  0  0
  -24.6854  -31.0622   22.0961 N   0  0  0  0  0  0
  -23.4200  -28.8154   23.3011 O   0  0  0  0  0  0
  -28.3450  -26.4920   20.1301 O   0  0  0  0  0  0
  -26.5617  -34.8923   22.4673 O   0  0  0  0  0  0
  -23.5416  -32.1412   23.7347 O   0  0  0  0  0  0
  -30.4105  -17.7328   19.8241 C   0  0  0  0  0  0
  -28.9557  -19.5510   21.3492 C   0  0  0  0  0  0
  -29.8360  -17.2099   21.0158 C   0  0  0  0  0  0
  -29.0614  -18.1840   21.7501 C   0  0  0  0  0  0
  -30.2661  -19.0867   19.3934 C   0  0  0  0  0  0
  -29.5621  -20.0562   20.1748 C   0  0  0  0  0  0
  -30.0781  -15.7429   21.5057 C   0  0  0  0  0  0
  -30.1829  -20.2589   17.3076 C   0  0  0  0  0  0
  -28.9585  -23.9238   19.9103 C   0  0  0  0  0  0
  -28.1522  -25.1027   20.6036 C   0  0  0  0  0  0
  -28.8011  -22.4542   20.5108 C   0  0  0  0  0  0
  -29.8661  -15.4471   22.7216 N   0  0  0  0  0  0
  -28.3523  -17.8650   22.9147 N   0  0  0  0  0  0
  -30.8758  -19.3883   18.1961 O   0  0  0  0  0  0
  -29.5191  -21.4120   19.7768 O   0  0  0  0  0  0
  -31.4751  -12.5181   19.1624 H   0  0  0  0  0  0
  -30.3608  -11.3998   19.8836 H   0  0  0  0  0  0
  -29.7808  -11.7921   17.4726 H   0  0  0  0  0  0
  -29.6534  -13.5091   17.7645 H   0  0  0  0  0  0
  -27.8664  -11.3037   18.8466 H   0  0  0  0  0  0
  -27.3806  -12.6016   17.7866 H   0  0  0  0  0  0
  -27.6852  -14.2576   19.5470 H   0  0  0  0  0  0
  -28.7033  -12.0088   21.3440 H   0  0  0  0  0  0
  -28.3854  -13.6253   21.8607 H   0  0  0  0  0  0
  -25.2757   -9.5692   22.4747 H   0  0  0  0  0  0
  -23.9995   -7.4645   22.7486 H   0  0  0  0  0  0
  -21.0820   -8.8769   19.8962 H   0  0  0  0  0  0
  -22.3679  -10.9670   19.6153 H   0  0  0  0  0  0
  -21.2015   -7.6149   23.9708 H   0  0  0  0  0  0
  -21.1479   -6.0527   25.9076 H   0  0  0  0  0  0
  -22.0595   -2.7603   23.2853 H   0  0  0  0  0  0
  -22.4100  -11.9900   22.4776 H   0  0  0  0  0  0
  -21.1117  -13.1287   22.2612 H   0  0  0  0  0  0
  -24.6684  -15.8487   20.5342 H   0  0  0  0  0  0
  -26.2889  -15.6303   20.1117 H   0  0  0  0  0  0
  -26.7171  -32.5460   23.1102 H   0  0  0  0  0  0
  -25.0073  -33.9723   25.0432 H   0  0  0  0  0  0
  -22.7111  -31.3020   21.3999 H   0  0  0  0  0  0
  -23.3743  -35.9639   23.3303 H   0  0  0  0  0  0
  -24.3585  -36.8913   22.2052 H   0  0  0  0  0  0
  -23.7254  -37.6504   23.6658 H   0  0  0  0  0  0
  -26.0830  -31.5561   20.5985 H   0  0  0  0  0  0
  -26.8392  -30.8487   21.9963 H   0  0  0  0  0  0
  -28.1180  -28.9983   21.1849 H   0  0  0  0  0  0
  -26.0172  -25.9375   18.9886 H   0  0  0  0  0  0
  -23.9797  -27.3033   19.0030 H   0  0  0  0  0  0
  -23.7501  -30.5892   19.4021 H   0  0  0  0  0  0
  -22.7534  -29.2415   19.8599 H   0  0  0  0  0  0
  -25.1288  -36.1940   25.0824 H   0  0  0  0  0  0
  -20.9988  -28.3243   24.1409 H   0  0  0  0  0  0
  -20.5690  -26.2283   23.3589 H   0  0  0  0  0  0
  -21.6653  -26.7457   22.1190 H   0  0  0  0  0  0
  -19.6934  -25.6324   21.1192 H   0  0  0  0  0  0
  -19.6716  -27.3245   20.6761 H   0  0  0  0  0  0
  -17.4218  -26.6698   21.3992 H   0  0  0  0  0  0
  -18.0345  -26.0061   22.8991 H   0  0  0  0  0  0
  -19.7933  -30.7263   24.2277 H   0  0  0  0  0  0
  -17.5013  -31.6250   24.5172 H   0  0  0  0  0  0
  -15.5355  -30.2969   23.7643 H   0  0  0  0  0  0
  -15.8682  -28.0816   22.7034 H   0  0  0  0  0  0
  -24.5910  -30.7062   25.7771 H   0  0  0  0  0  0
  -24.8916  -32.2879   26.4864 H   0  0  0  0  0  0
  -25.8061  -30.8901   27.0213 H   0  0  0  0  0  0
  -26.2898  -29.6758   24.1179 H   0  0  0  0  0  0
  -27.4060  -29.7270   25.4635 H   0  0  0  0  0  0
  -27.8758  -30.4304   23.9343 H   0  0  0  0  0  0
  -27.2673  -33.3606   26.2070 H   0  0  0  0  0  0
  -28.3867  -32.6869   25.0309 H   0  0  0  0  0  0
  -28.0725  -31.8422   26.5389 H   0  0  0  0  0  0
  -28.2596  -38.0098   24.7497 H   0  0  0  0  0  0
  -28.1075  -36.2624   24.6305 H   0  0  0  0  0  0
  -27.2297  -37.1472   25.8871 H   0  0  0  0  0  0
  -20.9348  -29.8809   21.6948 H   0  0  0  0  0  0
  -26.0175  -38.2854   24.1393 H   0  0  0  0  0  0
  -30.9973  -17.0806   19.1962 H   0  0  0  0  0  0
  -28.3883  -20.2309   21.9675 H   0  0  0  0  0  0
  -30.4766  -21.2974   17.4626 H   0  0  0  0  0  0
  -29.0983  -20.1761   17.3990 H   0  0  0  0  0  0
  -30.4395  -20.0001   16.2802 H   0  0  0  0  0  0
  -30.0169  -24.1832   19.9204 H   0  0  0  0  0  0
  -28.6738  -23.8957   18.8590 H   0  0  0  0  0  0
  -28.4291  -25.1092   21.6579 H   0  0  0  0  0  0
  -27.0994  -24.8226   20.6033 H   0  0  0  0  0  0
  -27.7428  -22.1913   20.5335 H   0  0  0  0  0  0
  -29.1466  -22.4574   21.5446 H   0  0  0  0  0  0
  -29.5365  -16.2836   23.2002 H   0  0  0  0  0  0
  -27.7179  -18.5726   23.2710 H   0  0  0  0  0  0
  -27.9239  -16.9452   22.9567 H   0  0  0  0  0  0
  1 25  1  0  0  0
  1 30  2  0  0  0
  1 77  1  0  0  0
  2  3  1  0  0  0
  2 25  1  0  0  0
  2 86  1  0  0  0
  2 87  1  0  0  0
  3  4  1  0  0  0
  3 88  1  0  0  0
  3 89  1  0  0  0
  4  5  1  0  0  0
  4 90  1  0  0  0
  4 91  1  0  0  0
  5  6  1  0  0  0
  5 26  1  0  0  0
  5 92  1  0  0  0
  6 25  1  0  0  0
  6 93  1  0  0  0
  6 94  1  0  0  0
  7  8  2  0  0  0
  7 26  1  0  0  0
  7 29  1  0  0  0
  8  9  1  0  0  0
  8 22  1  0  0  0
  9 10  1  0  0  0
  9 27  2  0  0  0
 10 11  2  0  0  0
 10 15  1  0  0  0
 11 12  1  0  0  0
 11 95  1  0  0  0
 12 13  2  0  0  0
 12 96  1  0  0  0
 13 14  1  0  0  0
 13 31  1  0  0  0
 14 15  2  0  0  0
 14 97  1  0  0  0
 15 98  1  0  0  0
 16 17  2  0  0  0
 16 21  1  0  0  0
 16 31  1  0  0  0
 17 18  1  0  0  0
 17 99  1  0  0  0
 18 19  2  0  0  0
 18100  1  0  0  0
 19 20  1  0  0  0
 19 24  1  0  0  0
 20 21  2  0  0  0
 20101  1  0  0  0
 21 23  1  0  0  0
 22 28  1  0  0  0
 22 32  2  0  0  0
 26 27  1  0  0  0
 28102  1  0  0  0
 28103  1  0  0  0
 29104  1  0  0  0
 29105  1  0  0  0
 33 34  1  0  0  0
 33 66  1  0  0  0
 33 70  2  0  0  0
 34 36  1  0  0  0
 34 59  1  0  0  0
 34106  1  0  0  0
 35 44  2  0  0  0
 35 45  1  0  0  0
 35 68  1  0  0  0
 36 56  1  0  0  0
 36107  1  0  0  0
 37 39  1  0  0  0
 37 47  1  0  0  0
 37 66  1  0  0  0
 37108  1  0  0  0
 38 43  2  0  0  0
 38 46  1  0  0  0
 38 47  1  0  0  0
 39 64  1  0  0  0
 39 67  2  0  0  0
 40 52  1  0  0  0
 40 53  2  0  0  0
 40 58  1  0  0  0
 41109  1  0  0  0
 41110  1  0  0  0
 41111  1  0  0  0
 41 48  1  0  0  0
 42 43  1  0  0  0
 42 66  1  0  0  0
 42112  1  0  0  0
 42113  1  0  0  0
 43 44  1  0  0  0
 44114  1  0  0  0
 45 46  2  0  0  0
 45115  1  0  0  0
 46116  1  0  0  0
 47117  1  0  0  0
 47118  1  0  0  0
 48 56  1  0  0  0
 48 65  1  0  0  0
 48119  1  0  0  0
 49 50  1  0  0  0
 49 53  1  0  0  0
 49 64  1  0  0  0
 49120  1  0  0  0
 50 51  1  0  0  0
 50121  1  0  0  0
 50122  1  0  0  0
 51 52  1  0  0  0
 51123  1  0  0  0
 51124  1  0  0  0
 52125  1  0  0  0
 52126  1  0  0  0
 53 54  1  0  0  0
 54 55  2  0  0  0
 54127  1  0  0  0
 55 57  1  0  0  0
 55128  1  0  0  0
 56 69  2  0  0  0
 57 58  2  0  0  0
 57129  1  0  0  0
 58130  1  0  0  0
 59 60  1  0  0  0
 59 61  1  0  0  0
 59 62  1  0  0  0
 60131  1  0  0  0
 60132  1  0  0  0
 60133  1  0  0  0
 61134  1  0  0  0
 61135  1  0  0  0
 61136  1  0  0  0
 62137  1  0  0  0
 62138  1  0  0  0
 62139  1  0  0  0
 63 65  1  0  0  0
 63140  1  0  0  0
 63141  1  0  0  0
 63142  1  0  0  0
 64143  1  0  0  0
 65144  1  0  0  0
 68 80  1  0  0  0
 71 73  2  0  0  0
 71 75  1  0  0  0
 71145  1  0  0  0
 72 74  2  0  0  0
 72 76  1  0  0  0
 72146  1  0  0  0
 73 74  1  0  0  0
 73 77  1  0  0  0
 74 83  1  0  0  0
 75 76  2  0  0  0
 75 84  1  0  0  0
 76 85  1  0  0  0
 77 82  2  0  0  0
 78 84  1  0  0  0
 78147  1  0  0  0
 78148  1  0  0  0
 78149  1  0  0  0
 79 80  1  0  0  0
 79 81  1  0  0  0
 79150  1  0  0  0
 79151  1  0  0  0
 80152  1  0  0  0
 80153  1  0  0  0
 81 85  1  0  0  0
 81154  1  0  0  0
 81155  1  0  0  0
 82156  1  0  0  0
 83157  1  0  0  0
 83158  1  0  0  0
M  ISO  4   1 100  68 101  77 100  80 101
M  END
> <chiral flag>
0

> <version>
0

> <s_m_source_file>
/data/baiqing/PycharmProjects/Reinvent-master-3.2/result/LINK_invent/BTK/process_docking_weight1_custom_product_contain_oxygen_bond_distance_aromatic_linkinvent_7_9_3/rearranged_h_0108.sdf

> <i_m_source_file_index>
21

> <r_mmod_Potential_Energy-OPLS-2005>
276.766479492188

> <r_mmod_Stretch_Energy-OPLS-2005>
94.3682632446289

> <r_mmod_Bend_Energy-OPLS-2005>
161.502349853516

> <r_mmod_Torsional_Energy-OPLS-2005>
232.429840087891

> <r_mmod_Improper_Torsional_Energy-OPLS-2005>
6.9382472038269

> <r_mmod_Van_der_Waal_Energy-OPLS-2005>
163.131912231445

> <r_mmod_Electrostatic_Energy-OPLS-2005>
-211.016342163086

> <r_mmod_Solvation_Energy-OPLS-2005>
-211.04621887207

> <b_mmod_Minimization_Converged-OPLS-2005>
0

> <r_mmod_RMS_Derivative-OPLS-2005>
1.15936076641083

$$$$
22
                    3D
 Structure written by MMmdl.
152160  0  0  1  0            999 V2000
  -30.6373  -14.7840   20.3815 C   0  0  0  0  0  0
  -30.4387  -12.4558   19.4699 C   0  0  0  0  0  0
  -29.4951  -12.3759   18.2472 C   0  0  0  0  0  0
  -28.0219  -12.2700   18.6774 C   0  0  0  0  0  0
  -27.6379  -13.2308   19.8346 C   0  0  2  0  0  0
  -28.6951  -13.2416   20.9579 C   0  0  0  0  0  0
  -25.2574  -13.8258   20.5782 C   0  0  0  0  0  0
  -24.1845  -13.0495   20.9230 C   0  0  0  0  0  0
  -24.6418  -11.6978   20.8778 C   0  0  0  0  0  0
  -23.9078  -10.4351   21.0405 C   0  0  0  0  0  0
  -24.3623   -9.4266   21.9175 C   0  0  0  0  0  0
  -23.6315   -8.2281   22.0737 C   0  0  0  0  0  0
  -22.4296   -8.0300   21.3514 C   0  0  0  0  0  0
  -21.9925   -9.0292   20.4634 C   0  0  0  0  0  0
  -22.7249  -10.2181   20.3063 C   0  0  0  0  0  0
  -21.6888   -6.0737   22.5259 C   0  0  0  0  0  0
  -21.4051   -6.5652   23.8200 C   0  0  0  0  0  0
  -21.3667   -5.6786   24.9150 C   0  0  0  0  0  0
  -21.6047   -4.3054   24.7201 C   0  0  0  0  0  0
  -21.8837   -3.8149   23.4329 C   0  0  0  0  0  0
  -21.9211   -4.6960   22.3384 C   0  0  0  0  0  0
  -22.7858  -13.5259   21.1860 C   0  0  0  0  0  0
  -22.1677   -4.2151   21.0953 F   0  0  0  0  0  0
  -21.5612   -3.4532   25.7707 F   0  0  0  0  0  0
  -29.9804  -13.5703   20.3315 N   0  0  0  0  0  0
  -26.2972  -12.9461   20.3336 N   0  0  0  0  0  0
  -25.9354  -11.6614   20.5878 N   0  0  0  0  0  0
  -22.0499  -12.8229   22.0411 N   0  0  0  0  0  0
  -25.4337  -15.1981   20.4283 N   0  0  0  0  0  0
  -31.8705  -14.7937   20.2956 O   0  0  0  0  0  0
  -21.6687   -6.8876   21.4213 O   0  0  0  0  0  0
  -22.3512  -14.5536   20.6684 O   0  0  0  0  0  0
  -24.6271  -31.8545   23.1979 C   0  0  0  0  0  0
  -25.9128  -32.4744   23.8290 C   0  0  1  0  0  0
  -27.2166  -27.2761   20.1608 C   0  0  0  0  0  0
  -25.5951  -33.8552   24.2236 N   0  0  0  0  0  0
  -23.4217  -30.4782   21.5353 C   0  0  2  0  0  0
  -24.8747  -28.9282   20.1050 C   0  0  0  0  0  0
  -22.7472  -29.4590   22.4860 C   0  0  0  0  0  0
  -18.0283  -28.1380   22.8492 C   0  0  0  0  0  0
  -24.1507  -36.7289   23.2633 C   0  0  0  0  0  0
  -25.9622  -30.7835   21.3657 C   0  0  0  0  0  0
  -26.0415  -29.4027   20.7193 C   0  0  0  0  0  0
  -27.2193  -28.5913   20.7320 C   0  0  0  0  0  0
  -26.0334  -26.8633   19.5136 C   0  0  0  0  0  0
  -24.8775  -27.6685   19.4842 C   0  0  0  0  0  0
  -23.6414  -29.8101   20.1499 C   0  0  0  0  0  0
  -25.4128  -36.3052   24.0317 C   0  0  1  0  0  0
  -20.5891  -28.3684   23.1274 C   0  0  2  0  0  0
  -20.6782  -26.9405   22.5410 C   0  0  0  0  0  0
  -19.5764  -26.6381   21.5215 C   0  0  0  0  0  0
  -18.1931  -26.7929   22.1612 C   0  0  0  0  0  0
  -19.1535  -28.8846   23.2889 C   0  0  0  0  0  0
  -18.9473  -30.1454   23.8917 C   0  0  0  0  0  0
  -17.6469  -30.6596   24.0564 C   0  0  0  0  0  0
  -25.9055  -34.9430   23.5065 C   0  0  0  0  0  0
  -16.5362  -29.9105   23.6322 C   0  0  0  0  0  0
  -16.7265  -28.6500   23.0367 C   0  0  0  0  0  0
  -26.4547  -31.6560   25.0653 C   0  0  0  0  0  0
  -25.3813  -31.3707   26.1395 C   0  0  0  0  0  0
  -27.0373  -30.2980   24.6073 C   0  0  0  0  0  0
  -27.6070  -32.4304   25.7448 C   0  0  0  0  0  0
  -27.5584  -37.1795   24.8463 C   0  0  0  0  0  0
  -21.4176  -29.3053   22.3672 N   0  0  0  0  0  0
  -26.4287  -37.3765   23.9416 N   0  0  0  0  0  0
  -24.6890  -31.0568   22.0912 N   0  0  0  0  0  0
  -23.4187  -28.8106   23.2932 O   0  0  0  0  0  0
  -28.3014  -26.3809   20.2039 O   0  0  0  0  0  0
  -26.5599  -34.8905   22.4615 O   0  0  0  0  0  0
  -23.5433  -32.1335   23.7328 O   0  0  0  0  0  0
  -29.4271  -18.4109   19.6303 C   0  0  0  0  0  0
  -29.7710  -19.1174   21.6193 C   0  0  0  0  0  0
  -29.8048  -17.2864   20.3893 C   0  0  0  0  0  0
  -28.7142  -23.7453   20.0998 C   0  0  0  0  0  0
  -29.9142  -15.8480   18.3818 C   0  0  0  0  0  0
  -28.7361  -22.2872   20.7827 C   0  0  0  0  0  0
  -28.0615  -25.0231   20.8066 C   0  0  0  0  0  0
  -29.1768  -21.0182   19.8802 C   0  0  0  0  0  0
  -30.0071  -17.7814   21.6857 N   0  0  0  0  0  0
  -29.4133  -19.5977   20.4070 N   0  0  0  0  0  0
  -29.9566  -15.8927   19.8592 N   0  0  0  0  0  0
  -29.2164  -23.8829   18.9793 O   0  0  0  0  0  0
  -31.4681  -12.5900   19.1297 H   0  0  0  0  0  0
  -30.4260  -11.5220   20.0348 H   0  0  0  0  0  0
  -29.7524  -11.5008   17.6491 H   0  0  0  0  0  0
  -29.6215  -13.2191   17.5765 H   0  0  0  0  0  0
  -27.8629  -11.2386   18.9931 H   0  0  0  0  0  0
  -27.3636  -12.4208   17.8211 H   0  0  0  0  0  0
  -27.6145  -14.2296   19.3995 H   0  0  0  0  0  0
  -28.7431  -12.2812   21.4734 H   0  0  0  0  0  0
  -28.4410  -13.9906   21.7089 H   0  0  0  0  0  0
  -25.2764   -9.5767   22.4750 H   0  0  0  0  0  0
  -24.0046   -7.4696   22.7471 H   0  0  0  0  0  0
  -21.0847   -8.8832   19.8948 H   0  0  0  0  0  0
  -22.3705  -10.9721   19.6187 H   0  0  0  0  0  0
  -21.2085   -7.6160   23.9693 H   0  0  0  0  0  0
  -21.1458   -6.0516   25.9044 H   0  0  0  0  0  0
  -22.0614   -2.7610   23.2822 H   0  0  0  0  0  0
  -22.4116  -11.9885   22.4795 H   0  0  0  0  0  0
  -21.1117  -13.1247   22.2601 H   0  0  0  0  0  0
  -24.6890  -15.8659   20.5926 H   0  0  0  0  0  0
  -26.3115  -15.6359   20.1778 H   0  0  0  0  0  0
  -26.7166  -32.5420   23.1008 H   0  0  0  0  0  0
  -25.0205  -33.9693   25.0449 H   0  0  0  0  0  0
  -22.7158  -31.3001   21.3906 H   0  0  0  0  0  0
  -23.3754  -35.9638   23.3274 H   0  0  0  0  0  0
  -24.3604  -36.8930   22.2053 H   0  0  0  0  0  0
  -23.7284  -37.6495   23.6666 H   0  0  0  0  0  0
  -26.0829  -31.5427   20.5912 H   0  0  0  0  0  0
  -26.8474  -30.8455   21.9869 H   0  0  0  0  0  0
  -28.1093  -28.9569   21.2254 H   0  0  0  0  0  0
  -25.9962  -25.8915   19.0415 H   0  0  0  0  0  0
  -23.9866  -27.3047   18.9904 H   0  0  0  0  0  0
  -23.7590  -30.5850   19.3912 H   0  0  0  0  0  0
  -22.7638  -29.2364   19.8432 H   0  0  0  0  0  0
  -25.1317  -36.1876   25.0807 H   0  0  0  0  0  0
  -20.9988  -28.3260   24.1392 H   0  0  0  0  0  0
  -20.5704  -26.2276   23.3612 H   0  0  0  0  0  0
  -21.6644  -26.7453   22.1202 H   0  0  0  0  0  0
  -19.6928  -25.6292   21.1255 H   0  0  0  0  0  0
  -19.6720  -27.3187   20.6753 H   0  0  0  0  0  0
  -17.4216  -26.6691   21.3999 H   0  0  0  0  0  0
  -18.0317  -26.0072   22.9005 H   0  0  0  0  0  0
  -19.7953  -30.7261   24.2290 H   0  0  0  0  0  0
  -17.5036  -31.6278   24.5168 H   0  0  0  0  0  0
  -15.5364  -30.3025   23.7655 H   0  0  0  0  0  0
  -15.8653  -28.0836   22.7096 H   0  0  0  0  0  0
  -24.5964  -30.7074   25.7751 H   0  0  0  0  0  0
  -24.9064  -32.2890   26.4847 H   0  0  0  0  0  0
  -25.8189  -30.8873   27.0139 H   0  0  0  0  0  0
  -26.2897  -29.6710   24.1189 H   0  0  0  0  0  0
  -27.4189  -29.7253   25.4538 H   0  0  0  0  0  0
  -27.8721  -30.4271   23.9181 H   0  0  0  0  0  0
  -27.2634  -33.3596   26.2014 H   0  0  0  0  0  0
  -28.3917  -32.6881   25.0321 H   0  0  0  0  0  0
  -28.0690  -31.8435   26.5406 H   0  0  0  0  0  0
  -28.2580  -38.0110   24.7505 H   0  0  0  0  0  0
  -28.1092  -36.2632   24.6281 H   0  0  0  0  0  0
  -27.2284  -37.1427   25.8859 H   0  0  0  0  0  0
  -20.9322  -29.8803   21.6932 H   0  0  0  0  0  0
  -26.0146  -38.2817   24.1461 H   0  0  0  0  0  0
  -29.1923  -18.4890   18.5783 H   0  0  0  0  0  0
  -29.8865  -19.7702   22.4741 H   0  0  0  0  0  0
  -30.3221  -16.7454   17.9225 H   0  0  0  0  0  0
  -28.8934  -15.7210   18.0251 H   0  0  0  0  0  0
  -30.5311  -15.0612   17.9485 H   0  0  0  0  0  0
  -27.7405  -22.1005   21.1882 H   0  0  0  0  0  0
  -29.3954  -22.3517   21.6480 H   0  0  0  0  0  0
  -28.4372  -25.0546   21.8304 H   0  0  0  0  0  0
  -26.9924  -24.8348   20.8932 H   0  0  0  0  0  0
  -30.0909  -21.2923   19.3506 H   0  0  0  0  0  0
  -28.4204  -20.9279   19.0997 H   0  0  0  0  0  0
  1 25  1  0  0  0
  1 30  2  0  0  0
  1 81  1  0  0  0
  2  3  1  0  0  0
  2 25  1  0  0  0
  2 83  1  0  0  0
  2 84  1  0  0  0
  3  4  1  0  0  0
  3 85  1  0  0  0
  3 86  1  0  0  0
  4  5  1  0  0  0
  4 87  1  0  0  0
  4 88  1  0  0  0
  5  6  1  0  0  0
  5 26  1  0  0  0
  5 89  1  0  0  0
  6 25  1  0  0  0
  6 90  1  0  0  0
  6 91  1  0  0  0
  7  8  2  0  0  0
  7 26  1  0  0  0
  7 29  1  0  0  0
  8  9  1  0  0  0
  8 22  1  0  0  0
  9 10  1  0  0  0
  9 27  2  0  0  0
 10 11  2  0  0  0
 10 15  1  0  0  0
 11 12  1  0  0  0
 11 92  1  0  0  0
 12 13  2  0  0  0
 12 93  1  0  0  0
 13 14  1  0  0  0
 13 31  1  0  0  0
 14 15  2  0  0  0
 14 94  1  0  0  0
 15 95  1  0  0  0
 16 17  2  0  0  0
 16 21  1  0  0  0
 16 31  1  0  0  0
 17 18  1  0  0  0
 17 96  1  0  0  0
 18 19  2  0  0  0
 18 97  1  0  0  0
 19 20  1  0  0  0
 19 24  1  0  0  0
 20 21  2  0  0  0
 20 98  1  0  0  0
 21 23  1  0  0  0
 22 28  1  0  0  0
 22 32  2  0  0  0
 26 27  1  0  0  0
 28 99  1  0  0  0
 28100  1  0  0  0
 29101  1  0  0  0
 29102  1  0  0  0
 33 34  1  0  0  0
 33 66  1  0  0  0
 33 70  2  0  0  0
 34 36  1  0  0  0
 34 59  1  0  0  0
 34103  1  0  0  0
 35 44  2  0  0  0
 35 45  1  0  0  0
 35 68  1  0  0  0
 36 56  1  0  0  0
 36104  1  0  0  0
 37 39  1  0  0  0
 37 47  1  0  0  0
 37 66  1  0  0  0
 37105  1  0  0  0
 38 43  2  0  0  0
 38 46  1  0  0  0
 38 47  1  0  0  0
 39 64  1  0  0  0
 39 67  2  0  0  0
 40 52  1  0  0  0
 40 53  2  0  0  0
 40 58  1  0  0  0
 41106  1  0  0  0
 41107  1  0  0  0
 41108  1  0  0  0
 41 48  1  0  0  0
 42 43  1  0  0  0
 42 66  1  0  0  0
 42109  1  0  0  0
 42110  1  0  0  0
 43 44  1  0  0  0
 44111  1  0  0  0
 45 46  2  0  0  0
 45112  1  0  0  0
 46113  1  0  0  0
 47114  1  0  0  0
 47115  1  0  0  0
 48 56  1  0  0  0
 48 65  1  0  0  0
 48116  1  0  0  0
 49 50  1  0  0  0
 49 53  1  0  0  0
 49 64  1  0  0  0
 49117  1  0  0  0
 50 51  1  0  0  0
 50118  1  0  0  0
 50119  1  0  0  0
 51 52  1  0  0  0
 51120  1  0  0  0
 51121  1  0  0  0
 52122  1  0  0  0
 52123  1  0  0  0
 53 54  1  0  0  0
 54 55  2  0  0  0
 54124  1  0  0  0
 55 57  1  0  0  0
 55125  1  0  0  0
 56 69  2  0  0  0
 57 58  2  0  0  0
 57126  1  0  0  0
 58127  1  0  0  0
 59 60  1  0  0  0
 59 61  1  0  0  0
 59 62  1  0  0  0
 60128  1  0  0  0
 60129  1  0  0  0
 60130  1  0  0  0
 61131  1  0  0  0
 61132  1  0  0  0
 61133  1  0  0  0
 62134  1  0  0  0
 62135  1  0  0  0
 62136  1  0  0  0
 63 65  1  0  0  0
 63137  1  0  0  0
 63138  1  0  0  0
 63139  1  0  0  0
 64140  1  0  0  0
 65141  1  0  0  0
 68 77  1  0  0  0
 71 73  2  0  0  0
 71 80  1  0  0  0
 71142  1  0  0  0
 72 79  2  0  0  0
 72 80  1  0  0  0
 72143  1  0  0  0
 73 79  1  0  0  0
 73 81  1  0  0  0
 74 76  1  0  0  0
 74 77  1  0  0  0
 74 82  2  0  0  0
 75 81  1  0  0  0
 75144  1  0  0  0
 75145  1  0  0  0
 75146  1  0  0  0
 76 78  1  0  0  0
 76147  1  0  0  0
 76148  1  0  0  0
 77149  1  0  0  0
 77150  1  0  0  0
 78 80  1  0  0  0
 78151  1  0  0  0
 78152  1  0  0  0
M  ISO  4   1 100  68 101  77 101  81 100
M  END
> <chiral flag>
0

> <version>
0

> <s_m_source_file>
/data/baiqing/PycharmProjects/Reinvent-master-3.2/result/LINK_invent/BTK/process_docking_weight1_custom_product_contain_oxygen_bond_distance_aromatic_linkinvent_7_9_3/rearranged_h_0108.sdf

> <i_m_source_file_index>
22

> <r_mmod_Potential_Energy-OPLS-2005>
366.486328125

> <r_mmod_Stretch_Energy-OPLS-2005>
123.015029907227

> <r_mmod_Bend_Energy-OPLS-2005>
191.101776123047

> <r_mmod_Torsional_Energy-OPLS-2005>
311.592620849609

> <r_mmod_Improper_Torsional_Energy-OPLS-2005>
27.0143508911133

> <r_mmod_Van_der_Waal_Energy-OPLS-2005>
122.050956726074

> <r_mmod_Electrostatic_Energy-OPLS-2005>
-279.371337890625

> <r_mmod_Solvation_Energy-OPLS-2005>
-235.233489990234

> <b_mmod_Minimization_Converged-OPLS-2005>
0

> <r_mmod_RMS_Derivative-OPLS-2005>
3.53483700752258

$$$$
23
                    3D
 Structure written by MMmdl.
164172  0  0  1  0            999 V2000
  -30.6878  -14.4271   20.6460 C   0  0  0  0  0  0
  -30.4240  -12.3081   19.3961 C   0  0  0  0  0  0
  -29.4897  -12.5243   18.1893 C   0  0  0  0  0  0
  -28.0083  -12.3890   18.5998 C   0  0  0  0  0  0
  -27.6619  -13.1984   19.8780 C   0  0  2  0  0  0
  -28.6965  -12.9211   20.9858 C   0  0  0  0  0  0
  -25.2600  -13.8140   20.5668 C   0  0  0  0  0  0
  -24.1842  -13.0434   20.9148 C   0  0  0  0  0  0
  -24.6360  -11.6894   20.8708 C   0  0  0  0  0  0
  -23.9030  -10.4290   21.0391 C   0  0  0  0  0  0
  -24.3598   -9.4217   21.9177 C   0  0  0  0  0  0
  -23.6289   -8.2241   22.0753 C   0  0  0  0  0  0
  -22.4269   -8.0271   21.3539 C   0  0  0  0  0  0
  -21.9888   -9.0236   20.4634 C   0  0  0  0  0  0
  -22.7198  -10.2125   20.3043 C   0  0  0  0  0  0
  -21.6852   -6.0726   22.5279 C   0  0  0  0  0  0
  -21.4009   -6.5630   23.8209 C   0  0  0  0  0  0
  -21.3671   -5.6790   24.9174 C   0  0  0  0  0  0
  -21.6048   -4.3048   24.7224 C   0  0  0  0  0  0
  -21.8823   -3.8137   23.4344 C   0  0  0  0  0  0
  -21.9197   -4.6957   22.3401 C   0  0  0  0  0  0
  -22.7873  -13.5238   21.1843 C   0  0  0  0  0  0
  -22.1678   -4.2139   21.0983 F   0  0  0  0  0  0
  -21.5638   -3.4539   25.7743 F   0  0  0  0  0  0
  -30.0263  -13.2577   20.4455 N   0  0  0  0  0  0
  -26.3012  -12.9290   20.3346 N   0  0  0  0  0  0
  -25.9283  -11.6454   20.5721 N   0  0  0  0  0  0
  -22.0523  -12.8223   22.0392 N   0  0  0  0  0  0
  -25.4379  -15.1856   20.4113 N   0  0  0  0  0  0
  -31.7859  -14.6782   20.1394 O   0  0  0  0  0  0
  -21.6636   -6.8868   21.4238 O   0  0  0  0  0  0
  -22.3559  -14.5569   20.6733 O   0  0  0  0  0  0
  -24.6125  -31.8664   23.2064 C   0  0  0  0  0  0
  -25.9024  -32.4805   23.8357 C   0  0  1  0  0  0
  -27.2338  -27.4252   20.1176 C   0  0  0  0  0  0
  -25.5887  -33.8608   24.2293 N   0  0  0  0  0  0
  -23.4024  -30.4862   21.5474 C   0  0  2  0  0  0
  -24.8495  -28.9465   20.1166 C   0  0  0  0  0  0
  -22.7405  -29.4634   22.4993 C   0  0  0  0  0  0
  -18.0275  -28.1373   22.8498 C   0  0  0  0  0  0
  -24.1488  -36.7320   23.2632 C   0  0  0  0  0  0
  -25.9290  -30.8300   21.3599 C   0  0  0  0  0  0
  -26.0077  -29.4618   20.7131 C   0  0  0  0  0  0
  -27.2036  -28.7106   20.7051 C   0  0  0  0  0  0
  -26.0649  -26.9225   19.5117 C   0  0  0  0  0  0
  -24.8733  -27.6759   19.5131 C   0  0  0  0  0  0
  -23.6100  -29.8120   20.1641 C   0  0  0  0  0  0
  -25.4119  -36.3121   24.0328 C   0  0  1  0  0  0
  -20.5866  -28.3641   23.1330 C   0  0  2  0  0  0
  -20.6775  -26.9381   22.5428 C   0  0  0  0  0  0
  -19.5749  -26.6373   21.5224 C   0  0  0  0  0  0
  -18.1922  -26.7928   22.1622 C   0  0  0  0  0  0
  -19.1524  -28.8834   23.2903 C   0  0  0  0  0  0
  -18.9456  -30.1452   23.8898 C   0  0  0  0  0  0
  -17.6455  -30.6583   24.0568 C   0  0  0  0  0  0
  -25.9043  -34.9472   23.5107 C   0  0  0  0  0  0
  -16.5349  -29.9086   23.6335 C   0  0  0  0  0  0
  -16.7267  -28.6515   23.0340 C   0  0  0  0  0  0
  -26.4459  -31.6578   25.0686 C   0  0  0  0  0  0
  -25.3726  -31.3712   26.1440 C   0  0  0  0  0  0
  -27.0267  -30.3005   24.6049 C   0  0  0  0  0  0
  -27.6017  -32.4300   25.7468 C   0  0  0  0  0  0
  -27.5584  -37.1817   24.8458 C   0  0  0  0  0  0
  -21.4136  -29.2994   22.3728 N   0  0  0  0  0  0
  -26.4306  -37.3799   23.9395 N   0  0  0  0  0  0
  -24.6658  -31.0768   22.0959 N   0  0  0  0  0  0
  -23.4183  -28.8190   23.3037 O   0  0  0  0  0  0
  -28.4007  -26.6894   20.1131 O   0  0  0  0  0  0
  -26.5621  -34.8922   22.4676 O   0  0  0  0  0  0
  -23.5323  -32.1415   23.7466 O   0  0  0  0  0  0
  -29.4731  -20.2545   22.0178 C   0  0  0  0  0  0
  -29.2950  -18.0200   20.3288 C   0  0  0  0  0  0
  -29.9903  -19.0075   22.4392 C   0  0  0  0  0  0
  -29.9201  -17.8709   21.5889 C   0  0  0  0  0  0
  -28.8847  -20.4130   20.7432 C   0  0  0  0  0  0
  -28.7880  -19.2723   19.9104 C   0  0  0  0  0  0
  -30.6183  -18.9200   23.8215 C   0  0  0  0  0  0
  -30.0076  -25.6618   21.4622 C   0  0  0  0  0  0
  -27.6391  -25.6536   22.2611 C   0  0  0  0  0  0
  -30.5694  -16.5392   22.0094 C   0  0  0  0  0  0
  -28.3051  -24.2098   20.2320 C   0  0  0  0  0  0
  -28.6449  -22.9055   21.0195 C   0  0  0  0  0  0
  -28.5409  -25.5517   21.0056 C   0  0  0  0  0  0
  -28.4026  -21.6583   20.2784 N   0  0  0  0  0  0
  -30.0312  -15.3153   21.4107 N   0  0  0  0  0  0
  -28.2206  -19.3841   18.6843 F   0  0  0  0  0  0
  -31.4654  -12.4362   19.0959 H   0  0  0  0  0  0
  -30.3445  -11.2846   19.7655 H   0  0  0  0  0  0
  -29.7232  -11.8110   17.3973 H   0  0  0  0  0  0
  -29.6645  -13.5154   17.7693 H   0  0  0  0  0  0
  -27.7973  -11.3314   18.7620 H   0  0  0  0  0  0
  -27.3643  -12.7025   17.7784 H   0  0  0  0  0  0
  -27.7222  -14.2547   19.6182 H   0  0  0  0  0  0
  -28.6695  -11.8650   21.2580 H   0  0  0  0  0  0
  -28.4474  -13.4558   21.9031 H   0  0  0  0  0  0
  -25.2747   -9.5706   22.4739 H   0  0  0  0  0  0
  -24.0015   -7.4627   22.7458 H   0  0  0  0  0  0
  -21.0836   -8.8724   19.8921 H   0  0  0  0  0  0
  -22.3644  -10.9666   19.6149 H   0  0  0  0  0  0
  -21.1979   -7.6137   23.9706 H   0  0  0  0  0  0
  -21.1509   -6.0521   25.9079 H   0  0  0  0  0  0
  -22.0590   -2.7600   23.2843 H   0  0  0  0  0  0
  -22.4154  -11.9878   22.4776 H   0  0  0  0  0  0
  -21.1131  -13.1231   22.2606 H   0  0  0  0  0  0
  -24.6786  -15.8490   20.5196 H   0  0  0  0  0  0
  -26.2977  -15.6186   20.1004 H   0  0  0  0  0  0
  -26.7095  -32.5531   23.1117 H   0  0  0  0  0  0
  -25.0040  -33.9777   25.0437 H   0  0  0  0  0  0
  -22.6889  -31.3008   21.4051 H   0  0  0  0  0  0
  -23.3751  -35.9649   23.3317 H   0  0  0  0  0  0
  -24.3570  -36.8925   22.2042 H   0  0  0  0  0  0
  -23.7243  -37.6522   23.6653 H   0  0  0  0  0  0
  -26.0421  -31.5925   20.5875 H   0  0  0  0  0  0
  -26.8160  -30.8855   21.9797 H   0  0  0  0  0  0
  -28.0999  -29.1025   21.1663 H   0  0  0  0  0  0
  -26.0715  -25.9496   19.0430 H   0  0  0  0  0  0
  -23.9815  -27.2701   19.0559 H   0  0  0  0  0  0
  -23.7178  -30.5823   19.4004 H   0  0  0  0  0  0
  -22.7336  -29.2304   19.8723 H   0  0  0  0  0  0
  -25.1298  -36.1978   25.0827 H   0  0  0  0  0  0
  -20.9960  -28.3221   24.1446 H   0  0  0  0  0  0
  -20.5690  -26.2246   23.3614 H   0  0  0  0  0  0
  -21.6648  -26.7440   22.1200 H   0  0  0  0  0  0
  -19.6920  -25.6286   21.1241 H   0  0  0  0  0  0
  -19.6709  -27.3198   20.6773 H   0  0  0  0  0  0
  -17.4202  -26.6680   21.4015 H   0  0  0  0  0  0
  -18.0314  -26.0074   22.9016 H   0  0  0  0  0  0
  -19.7933  -30.7281   24.2238 H   0  0  0  0  0  0
  -17.5012  -31.6258   24.5167 H   0  0  0  0  0  0
  -15.5350  -30.2983   23.7668 H   0  0  0  0  0  0
  -15.8671  -28.0847   22.7030 H   0  0  0  0  0  0
  -24.5852  -30.7119   25.7778 H   0  0  0  0  0  0
  -24.8991  -32.2892   26.4916 H   0  0  0  0  0  0
  -25.8076  -30.8837   27.0169 H   0  0  0  0  0  0
  -26.2796  -29.6794   24.1094 H   0  0  0  0  0  0
  -27.4013  -29.7216   25.4497 H   0  0  0  0  0  0
  -27.8644  -30.4300   23.9196 H   0  0  0  0  0  0
  -27.2586  -33.3553   26.2097 H   0  0  0  0  0  0
  -28.3807  -32.6927   25.0312 H   0  0  0  0  0  0
  -28.0696  -31.8405   26.5354 H   0  0  0  0  0  0
  -28.2607  -38.0108   24.7511 H   0  0  0  0  0  0
  -28.1082  -36.2642   24.6298 H   0  0  0  0  0  0
  -27.2303  -37.1486   25.8859 H   0  0  0  0  0  0
  -20.9299  -29.8695   21.6925 H   0  0  0  0  0  0
  -26.0201  -38.2868   24.1415 H   0  0  0  0  0  0
  -29.5453  -21.0974   22.6888 H   0  0  0  0  0  0
  -29.2184  -17.1778   19.6574 H   0  0  0  0  0  0
  -30.7759  -19.9086   24.2536 H   0  0  0  0  0  0
  -31.5878  -18.4216   23.7920 H   0  0  0  0  0  0
  -29.9659  -18.3658   24.4966 H   0  0  0  0  0  0
  -30.2010  -26.6298   21.9262 H   0  0  0  0  0  0
  -30.6991  -25.5567   20.6258 H   0  0  0  0  0  0
  -30.2675  -24.9034   22.2008 H   0  0  0  0  0  0
  -27.7733  -26.6075   22.7709 H   0  0  0  0  0  0
  -27.8791  -24.8756   22.9850 H   0  0  0  0  0  0
  -26.5805  -25.5504   22.0215 H   0  0  0  0  0  0
  -30.4570  -16.4063   23.0859 H   0  0  0  0  0  0
  -31.6430  -16.6155   21.8299 H   0  0  0  0  0  0
  -27.2667  -24.1674   19.9031 H   0  0  0  0  0  0
  -28.9035  -24.2324   19.3202 H   0  0  0  0  0  0
  -28.0652  -22.8677   21.9424 H   0  0  0  0  0  0
  -29.6963  -22.9275   21.3063 H   0  0  0  0  0  0
  -28.0433  -21.6989   19.3268 H   0  0  0  0  0  0
  -29.1248  -15.0200   21.7402 H   0  0  0  0  0  0
  1 25  1  0  0  0
  1 30  2  0  0  0
  1 85  1  0  0  0
  2  3  1  0  0  0
  2 25  1  0  0  0
  2 87  1  0  0  0
  2 88  1  0  0  0
  3  4  1  0  0  0
  3 89  1  0  0  0
  3 90  1  0  0  0
  4  5  1  0  0  0
  4 91  1  0  0  0
  4 92  1  0  0  0
  5  6  1  0  0  0
  5 26  1  0  0  0
  5 93  1  0  0  0
  6 25  1  0  0  0
  6 94  1  0  0  0
  6 95  1  0  0  0
  7  8  2  0  0  0
  7 26  1  0  0  0
  7 29  1  0  0  0
  8  9  1  0  0  0
  8 22  1  0  0  0
  9 10  1  0  0  0
  9 27  2  0  0  0
 10 11  2  0  0  0
 10 15  1  0  0  0
 11 12  1  0  0  0
 11 96  1  0  0  0
 12 13  2  0  0  0
 12 97  1  0  0  0
 13 14  1  0  0  0
 13 31  1  0  0  0
 14 15  2  0  0  0
 14 98  1  0  0  0
 15 99  1  0  0  0
 16 17  2  0  0  0
 16 21  1  0  0  0
 16 31  1  0  0  0
 17 18  1  0  0  0
 17100  1  0  0  0
 18 19  2  0  0  0
 18101  1  0  0  0
 19 20  1  0  0  0
 19 24  1  0  0  0
 20 21  2  0  0  0
 20102  1  0  0  0
 21 23  1  0  0  0
 22 28  1  0  0  0
 22 32  2  0  0  0
 26 27  1  0  0  0
 28103  1  0  0  0
 28104  1  0  0  0
 29105  1  0  0  0
 29106  1  0  0  0
 33 34  1  0  0  0
 33 66  1  0  0  0
 33 70  2  0  0  0
 34 36  1  0  0  0
 34 59  1  0  0  0
 34107  1  0  0  0
 35 44  2  0  0  0
 35 45  1  0  0  0
 35 68  1  0  0  0
 36 56  1  0  0  0
 36108  1  0  0  0
 37 39  1  0  0  0
 37 47  1  0  0  0
 37 66  1  0  0  0
 37109  1  0  0  0
 38 43  2  0  0  0
 38 46  1  0  0  0
 38 47  1  0  0  0
 39 64  1  0  0  0
 39 67  2  0  0  0
 40 52  1  0  0  0
 40 53  2  0  0  0
 40 58  1  0  0  0
 41110  1  0  0  0
 41111  1  0  0  0
 41112  1  0  0  0
 41 48  1  0  0  0
 42 43  1  0  0  0
 42 66  1  0  0  0
 42113  1  0  0  0
 42114  1  0  0  0
 43 44  1  0  0  0
 44115  1  0  0  0
 45 46  2  0  0  0
 45116  1  0  0  0
 46117  1  0  0  0
 47118  1  0  0  0
 47119  1  0  0  0
 48 56  1  0  0  0
 48 65  1  0  0  0
 48120  1  0  0  0
 49 50  1  0  0  0
 49 53  1  0  0  0
 49 64  1  0  0  0
 49121  1  0  0  0
 50 51  1  0  0  0
 50122  1  0  0  0
 50123  1  0  0  0
 51 52  1  0  0  0
 51124  1  0  0  0
 51125  1  0  0  0
 52126  1  0  0  0
 52127  1  0  0  0
 53 54  1  0  0  0
 54 55  2  0  0  0
 54128  1  0  0  0
 55 57  1  0  0  0
 55129  1  0  0  0
 56 69  2  0  0  0
 57 58  2  0  0  0
 57130  1  0  0  0
 58131  1  0  0  0
 59 60  1  0  0  0
 59 61  1  0  0  0
 59 62  1  0  0  0
 60132  1  0  0  0
 60133  1  0  0  0
 60134  1  0  0  0
 61135  1  0  0  0
 61136  1  0  0  0
 61137  1  0  0  0
 62138  1  0  0  0
 62139  1  0  0  0
 62140  1  0  0  0
 63 65  1  0  0  0
 63141  1  0  0  0
 63142  1  0  0  0
 63143  1  0  0  0
 64144  1  0  0  0
 65145  1  0  0  0
 68 83  1  0  0  0
 71 73  2  0  0  0
 71 75  1  0  0  0
 71146  1  0  0  0
 72 74  2  0  0  0
 72 76  1  0  0  0
 72147  1  0  0  0
 73 74  1  0  0  0
 73 77  1  0  0  0
 74 80  1  0  0  0
 75 76  2  0  0  0
 75 84  1  0  0  0
 76 86  1  0  0  0
 77148  1  0  0  0
 77149  1  0  0  0
 77150  1  0  0  0
 78151  1  0  0  0
 78152  1  0  0  0
 78153  1  0  0  0
 78 83  1  0  0  0
 79 83  1  0  0  0
 79154  1  0  0  0
 79155  1  0  0  0
 79156  1  0  0  0
 80 85  1  0  0  0
 80157  1  0  0  0
 80158  1  0  0  0
 81 82  1  0  0  0
 81 83  1  0  0  0
 81159  1  0  0  0
 81160  1  0  0  0
 82 84  1  0  0  0
 82161  1  0  0  0
 82162  1  0  0  0
 84163  1  0  0  0
 85164  1  0  0  0
M  ISO  4   1 100  68 101  83 101  85 100
M  END
> <chiral flag>
0

> <version>
0

> <s_m_source_file>
/data/baiqing/PycharmProjects/Reinvent-master-3.2/result/LINK_invent/BTK/process_docking_weight1_custom_product_contain_oxygen_bond_distance_aromatic_linkinvent_7_9_3/rearranged_h_0108.sdf

> <i_m_source_file_index>
23

> <r_mmod_Potential_Energy-OPLS-2005>
-64.1833648681641

> <r_mmod_Stretch_Energy-OPLS-2005>
41.6508483886719

> <r_mmod_Bend_Energy-OPLS-2005>
113.298477172852

> <r_mmod_Torsional_Energy-OPLS-2005>
209.296020507812

> <r_mmod_Improper_Torsional_Energy-OPLS-2005>
2.66342210769653

> <r_mmod_Van_der_Waal_Energy-OPLS-2005>
155.149948120117

> <r_mmod_Electrostatic_Energy-OPLS-2005>
-392.770965576172

> <r_mmod_Solvation_Energy-OPLS-2005>
-204.442413330078

> <b_mmod_Minimization_Converged-OPLS-2005>
0

> <r_mmod_RMS_Derivative-OPLS-2005>
2.7519359588623

$$$$
24
                    3D
 Structure written by MMmdl.
167176  0  0  1  0            999 V2000
  -30.7595  -14.4046   20.6006 C   0  0  0  0  0  0
  -30.4119  -12.2763   19.4131 C   0  0  0  0  0  0
  -29.4898  -12.5026   18.2017 C   0  0  0  0  0  0
  -28.0115  -12.3702   18.6135 C   0  0  0  0  0  0
  -27.6628  -13.2056   19.8761 C   0  0  2  0  0  0
  -28.7084  -12.9868   20.9941 C   0  0  0  0  0  0
  -25.2601  -13.8169   20.5705 C   0  0  0  0  0  0
  -24.1842  -13.0460   20.9163 C   0  0  0  0  0  0
  -24.6395  -11.6921   20.8722 C   0  0  0  0  0  0
  -23.9057  -10.4310   21.0387 C   0  0  0  0  0  0
  -24.3620   -9.4224   21.9165 C   0  0  0  0  0  0
  -23.6304   -8.2255   22.0743 C   0  0  0  0  0  0
  -22.4284   -8.0284   21.3542 C   0  0  0  0  0  0
  -21.9910   -9.0245   20.4636 C   0  0  0  0  0  0
  -22.7224  -10.2134   20.3037 C   0  0  0  0  0  0
  -21.6851   -6.0731   22.5280 C   0  0  0  0  0  0
  -21.4018   -6.5637   23.8210 C   0  0  0  0  0  0
  -21.3665   -5.6796   24.9174 C   0  0  0  0  0  0
  -21.6043   -4.3058   24.7227 C   0  0  0  0  0  0
  -21.8818   -3.8145   23.4349 C   0  0  0  0  0  0
  -21.9198   -4.6960   22.3405 C   0  0  0  0  0  0
  -22.7861  -13.5252   21.1828 C   0  0  0  0  0  0
  -22.1655   -4.2153   21.0976 F   0  0  0  0  0  0
  -21.5638   -3.4534   25.7735 F   0  0  0  0  0  0
  -30.0436  -13.2610   20.4400 N   0  0  0  0  0  0
  -26.3048  -12.9334   20.3411 N   0  0  0  0  0  0
  -25.9330  -11.6493   20.5765 N   0  0  0  0  0  0
  -22.0509  -12.8270   22.0394 N   0  0  0  0  0  0
  -25.4354  -15.1892   20.4132 N   0  0  0  0  0  0
  -31.8847  -14.5669   20.1120 O   0  0  0  0  0  0
  -21.6647   -6.8884   21.4245 O   0  0  0  0  0  0
  -22.3548  -14.5537   20.6631 O   0  0  0  0  0  0
  -24.6188  -31.8702   23.2094 C   0  0  0  0  0  0
  -25.9107  -32.4799   23.8404 C   0  0  1  0  0  0
  -27.2291  -27.4441   20.0895 C   0  0  0  0  0  0
  -25.6003  -33.8594   24.2352 N   0  0  0  0  0  0
  -23.4002  -30.4973   21.5471 C   0  0  2  0  0  0
  -24.8466  -28.9710   20.1001 C   0  0  0  0  0  0
  -22.7427  -29.4726   22.4972 C   0  0  0  0  0  0
  -18.0296  -28.1403   22.8496 C   0  0  0  0  0  0
  -24.1480  -36.7282   23.2622 C   0  0  0  0  0  0
  -25.9279  -30.8402   21.3569 C   0  0  0  0  0  0
  -26.0057  -29.4762   20.7030 C   0  0  0  0  0  0
  -27.2002  -28.7220   20.6899 C   0  0  0  0  0  0
  -26.0585  -26.9641   19.4570 C   0  0  0  0  0  0
  -24.8724  -27.7204   19.4611 C   0  0  0  0  0  0
  -23.6066  -29.8340   20.1578 C   0  0  0  0  0  0
  -25.4087  -36.3082   24.0338 C   0  0  1  0  0  0
  -20.5890  -28.3684   23.1313 C   0  0  2  0  0  0
  -20.6768  -26.9412   22.5386 C   0  0  0  0  0  0
  -19.5726  -26.6385   21.5202 C   0  0  0  0  0  0
  -18.1925  -26.7954   22.1638 C   0  0  0  0  0  0
  -19.1552  -28.8858   23.2919 C   0  0  0  0  0  0
  -18.9464  -30.1485   23.8898 C   0  0  0  0  0  0
  -17.6452  -30.6594   24.0574 C   0  0  0  0  0  0
  -25.9017  -34.9461   23.5104 C   0  0  0  0  0  0
  -16.5354  -29.9085   23.6307 C   0  0  0  0  0  0
  -16.7290  -28.6520   23.0306 C   0  0  0  0  0  0
  -26.4512  -31.6550   25.0723 C   0  0  0  0  0  0
  -25.3770  -31.3667   26.1444 C   0  0  0  0  0  0
  -27.0296  -30.3014   24.6011 C   0  0  0  0  0  0
  -27.6096  -32.4245   25.7504 C   0  0  0  0  0  0
  -27.5546  -37.1775   24.8470 C   0  0  0  0  0  0
  -21.4149  -29.3106   22.3751 N   0  0  0  0  0  0
  -26.4250  -37.3782   23.9424 N   0  0  0  0  0  0
  -24.6672  -31.0814   22.0974 N   0  0  0  0  0  0
  -23.4217  -28.8315   23.3031 O   0  0  0  0  0  0
  -28.3937  -26.7036   20.1341 O   0  0  0  0  0  0
  -26.5462  -34.8918   22.4602 O   0  0  0  0  0  0
  -23.5399  -32.1462   23.7506 O   0  0  0  0  0  0
  -27.9265  -19.1183   22.4599 C   0  0  0  0  0  0
  -28.3881  -20.1017   20.2942 C   0  0  0  0  0  0
  -28.4279  -17.8750   22.0186 C   0  0  0  0  0  0
  -29.0251  -17.7690   20.7310 C   0  0  0  0  0  0
  -28.9748  -18.8946   19.8646 C   0  0  0  0  0  0
  -27.9326  -20.2481   21.6222 C   0  0  0  0  0  0
  -27.8413  -22.7167   22.0867 C   0  0  0  0  0  0
  -28.2590  -16.6713   22.9361 C   0  0  0  0  0  0
  -29.7060  -16.4874   20.2190 C   0  0  0  0  0  0
  -29.5751  -16.1044   23.4854 C   0  0  0  0  0  0
  -30.6731  -15.9860   22.4213 C   0  0  0  0  0  0
  -29.5344  -18.8395   18.4477 C   0  0  0  0  0  0
  -29.0846  -23.1021   21.2537 C   0  0  0  0  0  0
  -29.2948  -24.6252   21.0680 C   0  0  0  0  0  0
  -28.2411  -25.2796   20.1549 C   0  0  0  0  0  0
  -30.1179  -15.4426   21.1742 N   0  0  0  0  0  0
  -27.3761  -21.4533   22.1295 N   0  0  0  0  0  0
  -27.2836  -23.5815   22.7646 O   0  0  0  0  0  0
  -31.4537  -12.3616   19.1014 H   0  0  0  0  0  0
  -30.2984  -11.2651   19.8069 H   0  0  0  0  0  0
  -29.7303  -11.7946   17.4078 H   0  0  0  0  0  0
  -29.6647  -13.4983   17.7925 H   0  0  0  0  0  0
  -27.8125  -11.3138   18.7994 H   0  0  0  0  0  0
  -27.3630  -12.6596   17.7864 H   0  0  0  0  0  0
  -27.7033  -14.2528   19.5826 H   0  0  0  0  0  0
  -28.6740  -11.9566   21.3474 H   0  0  0  0  0  0
  -28.4855  -13.6033   21.8651 H   0  0  0  0  0  0
  -25.2767   -9.5714   22.4744 H   0  0  0  0  0  0
  -24.0021   -7.4656   22.7469 H   0  0  0  0  0  0
  -21.0826   -8.8720   19.8966 H   0  0  0  0  0  0
  -22.3631  -10.9653   19.6145 H   0  0  0  0  0  0
  -21.1997   -7.6141   23.9717 H   0  0  0  0  0  0
  -21.1495   -6.0519   25.9081 H   0  0  0  0  0  0
  -22.0600   -2.7607   23.2832 H   0  0  0  0  0  0
  -22.4108  -11.9920   22.4782 H   0  0  0  0  0  0
  -21.1121  -13.1275   22.2578 H   0  0  0  0  0  0
  -24.6774  -15.8502   20.5384 H   0  0  0  0  0  0
  -26.3083  -15.6332   20.1605 H   0  0  0  0  0  0
  -26.7177  -32.5452   23.1170 H   0  0  0  0  0  0
  -25.0344  -33.9753   25.0629 H   0  0  0  0  0  0
  -22.6915  -31.3170   21.4079 H   0  0  0  0  0  0
  -23.3748  -35.9613   23.3309 H   0  0  0  0  0  0
  -24.3601  -36.8837   22.2029 H   0  0  0  0  0  0
  -23.7217  -37.6487   23.6618 H   0  0  0  0  0  0
  -26.0172  -31.6044   20.5846 H   0  0  0  0  0  0
  -26.8255  -30.9093   21.9587 H   0  0  0  0  0  0
  -28.0948  -29.1089   21.1545 H   0  0  0  0  0  0
  -26.0425  -26.0136   18.9428 H   0  0  0  0  0  0
  -23.9951  -27.3421   18.9552 H   0  0  0  0  0  0
  -23.7151  -30.6142   19.4013 H   0  0  0  0  0  0
  -22.7291  -29.2567   19.8581 H   0  0  0  0  0  0
  -25.1272  -36.1900   25.0831 H   0  0  0  0  0  0
  -21.0007  -28.3197   24.1434 H   0  0  0  0  0  0
  -20.5630  -26.2325   23.3594 H   0  0  0  0  0  0
  -21.6636  -26.7393   22.1210 H   0  0  0  0  0  0
  -19.6857  -25.6285   21.1249 H   0  0  0  0  0  0
  -19.6645  -27.3200   20.6732 H   0  0  0  0  0  0
  -17.4178  -26.6756   21.4060 H   0  0  0  0  0  0
  -18.0317  -26.0089   22.9025 H   0  0  0  0  0  0
  -19.7934  -30.7333   24.2255 H   0  0  0  0  0  0
  -17.4980  -31.6250   24.5218 H   0  0  0  0  0  0
  -15.5361  -30.2966   23.7595 H   0  0  0  0  0  0
  -15.8726  -28.0831   22.6962 H   0  0  0  0  0  0
  -24.6007  -30.6951   25.7781 H   0  0  0  0  0  0
  -24.8881  -32.2820   26.4784 H   0  0  0  0  0  0
  -25.8108  -30.8890   27.0234 H   0  0  0  0  0  0
  -26.2772  -29.6839   24.1061 H   0  0  0  0  0  0
  -27.4144  -29.7195   25.4392 H   0  0  0  0  0  0
  -27.8609  -30.4414   23.9090 H   0  0  0  0  0  0
  -27.2730  -33.3580   26.2036 H   0  0  0  0  0  0
  -28.3931  -32.6707   25.0336 H   0  0  0  0  0  0
  -28.0719  -31.8338   26.5425 H   0  0  0  0  0  0
  -28.2570  -38.0056   24.7489 H   0  0  0  0  0  0
  -28.1033  -36.2596   24.6320 H   0  0  0  0  0  0
  -27.2270  -37.1387   25.8868 H   0  0  0  0  0  0
  -20.9325  -29.8815   21.6950 H   0  0  0  0  0  0
  -26.0143  -38.2868   24.1428 H   0  0  0  0  0  0
  -27.5104  -19.2020   23.4550 H   0  0  0  0  0  0
  -28.2868  -20.9052   19.5811 H   0  0  0  0  0  0
  -27.7231  -15.9028   22.3764 H   0  0  0  0  0  0
  -27.6088  -16.9270   23.7722 H   0  0  0  0  0  0
  -30.6192  -16.7953   19.7073 H   0  0  0  0  0  0
  -29.0647  -16.0525   19.4524 H   0  0  0  0  0  0
  -29.3727  -15.1302   23.9339 H   0  0  0  0  0  0
  -29.9380  -16.7410   24.2945 H   0  0  0  0  0  0
  -31.4823  -15.3660   22.8154 H   0  0  0  0  0  0
  -31.1285  -16.9612   22.2360 H   0  0  0  0  0  0
  -28.9618  -18.1384   17.8352 H   0  0  0  0  0  0
  -30.5855  -18.5446   18.4502 H   0  0  0  0  0  0
  -29.4921  -19.8168   17.9646 H   0  0  0  0  0  0
  -29.0281  -22.6752   20.2596 H   0  0  0  0  0  0
  -29.9623  -22.6660   21.7299 H   0  0  0  0  0  0
  -30.2822  -24.7967   20.6402 H   0  0  0  0  0  0
  -29.3052  -25.1140   22.0434 H   0  0  0  0  0  0
  -27.2539  -24.9897   20.5177 H   0  0  0  0  0  0
  -28.3397  -24.8929   19.1386 H   0  0  0  0  0  0
  -26.6180  -21.3260   22.7847 H   0  0  0  0  0  0
  1 25  1  0  0  0
  1 30  2  0  0  0
  1 86  1  0  0  0
  2  3  1  0  0  0
  2 25  1  0  0  0
  2 89  1  0  0  0
  2 90  1  0  0  0
  3  4  1  0  0  0
  3 91  1  0  0  0
  3 92  1  0  0  0
  4  5  1  0  0  0
  4 93  1  0  0  0
  4 94  1  0  0  0
  5  6  1  0  0  0
  5 26  1  0  0  0
  5 95  1  0  0  0
  6 25  1  0  0  0
  6 96  1  0  0  0
  6 97  1  0  0  0
  7  8  2  0  0  0
  7 26  1  0  0  0
  7 29  1  0  0  0
  8  9  1  0  0  0
  8 22  1  0  0  0
  9 10  1  0  0  0
  9 27  2  0  0  0
 10 11  2  0  0  0
 10 15  1  0  0  0
 11 12  1  0  0  0
 11 98  1  0  0  0
 12 13  2  0  0  0
 12 99  1  0  0  0
 13 14  1  0  0  0
 13 31  1  0  0  0
 14 15  2  0  0  0
 14100  1  0  0  0
 15101  1  0  0  0
 16 17  2  0  0  0
 16 21  1  0  0  0
 16 31  1  0  0  0
 17 18  1  0  0  0
 17102  1  0  0  0
 18 19  2  0  0  0
 18103  1  0  0  0
 19 20  1  0  0  0
 19 24  1  0  0  0
 20 21  2  0  0  0
 20104  1  0  0  0
 21 23  1  0  0  0
 22 28  1  0  0  0
 22 32  2  0  0  0
 26 27  1  0  0  0
 28105  1  0  0  0
 28106  1  0  0  0
 29107  1  0  0  0
 29108  1  0  0  0
 33 34  1  0  0  0
 33 66  1  0  0  0
 33 70  2  0  0  0
 34 36  1  0  0  0
 34 59  1  0  0  0
 34109  1  0  0  0
 35 44  2  0  0  0
 35 45  1  0  0  0
 35 68  1  0  0  0
 36 56  1  0  0  0
 36110  1  0  0  0
 37 39  1  0  0  0
 37 47  1  0  0  0
 37 66  1  0  0  0
 37111  1  0  0  0
 38 43  2  0  0  0
 38 46  1  0  0  0
 38 47  1  0  0  0
 39 64  1  0  0  0
 39 67  2  0  0  0
 40 52  1  0  0  0
 40 53  2  0  0  0
 40 58  1  0  0  0
 41112  1  0  0  0
 41113  1  0  0  0
 41114  1  0  0  0
 41 48  1  0  0  0
 42 43  1  0  0  0
 42 66  1  0  0  0
 42115  1  0  0  0
 42116  1  0  0  0
 43 44  1  0  0  0
 44117  1  0  0  0
 45 46  2  0  0  0
 45118  1  0  0  0
 46119  1  0  0  0
 47120  1  0  0  0
 47121  1  0  0  0
 48 56  1  0  0  0
 48 65  1  0  0  0
 48122  1  0  0  0
 49 50  1  0  0  0
 49 53  1  0  0  0
 49 64  1  0  0  0
 49123  1  0  0  0
 50 51  1  0  0  0
 50124  1  0  0  0
 50125  1  0  0  0
 51 52  1  0  0  0
 51126  1  0  0  0
 51127  1  0  0  0
 52128  1  0  0  0
 52129  1  0  0  0
 53 54  1  0  0  0
 54 55  2  0  0  0
 54130  1  0  0  0
 55 57  1  0  0  0
 55131  1  0  0  0
 56 69  2  0  0  0
 57 58  2  0  0  0
 57132  1  0  0  0
 58133  1  0  0  0
 59 60  1  0  0  0
 59 61  1  0  0  0
 59 62  1  0  0  0
 60134  1  0  0  0
 60135  1  0  0  0
 60136  1  0  0  0
 61137  1  0  0  0
 61138  1  0  0  0
 61139  1  0  0  0
 62140  1  0  0  0
 62141  1  0  0  0
 62142  1  0  0  0
 63 65  1  0  0  0
 63143  1  0  0  0
 63144  1  0  0  0
 63145  1  0  0  0
 64146  1  0  0  0
 65147  1  0  0  0
 68 85  1  0  0  0
 71 73  2  0  0  0
 71 76  1  0  0  0
 71148  1  0  0  0
 72 75  1  0  0  0
 72 76  2  0  0  0
 72149  1  0  0  0
 73 74  1  0  0  0
 73 78  1  0  0  0
 74 75  2  0  0  0
 74 79  1  0  0  0
 75 82  1  0  0  0
 76 87  1  0  0  0
 77 83  1  0  0  0
 77 87  1  0  0  0
 77 88  2  0  0  0
 78 80  1  0  0  0
 78150  1  0  0  0
 78151  1  0  0  0
 79 86  1  0  0  0
 79152  1  0  0  0
 79153  1  0  0  0
 80 81  1  0  0  0
 80154  1  0  0  0
 80155  1  0  0  0
 81 86  1  0  0  0
 81156  1  0  0  0
 81157  1  0  0  0
 82158  1  0  0  0
 82159  1  0  0  0
 82160  1  0  0  0
 83 84  1  0  0  0
 83161  1  0  0  0
 83162  1  0  0  0
 84 85  1  0  0  0
 84163  1  0  0  0
 84164  1  0  0  0
 85165  1  0  0  0
 85166  1  0  0  0
 87167  1  0  0  0
M  ISO  4   1 100  68 101  85 101  86 100
M  END
> <chiral flag>
0

> <version>
0

> <s_m_source_file>
/data/baiqing/PycharmProjects/Reinvent-master-3.2/result/LINK_invent/BTK/process_docking_weight1_custom_product_contain_oxygen_bond_distance_aromatic_linkinvent_7_9_3/rearranged_h_0108.sdf

> <i_m_source_file_index>
24

> <r_mmod_Potential_Energy-OPLS-2005>
66.5920867919922

> <r_mmod_Stretch_Energy-OPLS-2005>
38.5455741882324

> <r_mmod_Bend_Energy-OPLS-2005>
119.688781738281

> <r_mmod_Torsional_Energy-OPLS-2005>
313.308959960938

> <r_mmod_Improper_Torsional_Energy-OPLS-2005>
8.43981075286865

> <r_mmod_Van_der_Waal_Energy-OPLS-2005>
170.922668457031

> <r_mmod_Electrostatic_Energy-OPLS-2005>
-389.133666992188

> <r_mmod_Solvation_Energy-OPLS-2005>
-208.254364013672

> <b_mmod_Minimization_Converged-OPLS-2005>
0

> <r_mmod_RMS_Derivative-OPLS-2005>
4.55734252929688

$$$$
25
                    3D
 Structure written by MMmdl.
161170  0  0  1  0            999 V2000
  -30.6647  -14.6338   20.4618 C   0  0  0  0  0  0
  -30.4244  -12.3743   19.4641 C   0  0  0  0  0  0
  -29.5056  -12.4828   18.2276 C   0  0  0  0  0  0
  -28.0286  -12.3244   18.6384 C   0  0  0  0  0  0
  -27.6480  -13.2145   19.8516 C   0  0  2  0  0  0
  -28.6939  -13.1050   20.9823 C   0  0  0  0  0  0
  -25.2551  -13.8124   20.5660 C   0  0  0  0  0  0
  -24.1824  -13.0389   20.9206 C   0  0  0  0  0  0
  -24.6406  -11.6875   20.8759 C   0  0  0  0  0  0
  -23.9075  -10.4256   21.0416 C   0  0  0  0  0  0
  -24.3619   -9.4165   21.9186 C   0  0  0  0  0  0
  -23.6295   -8.2196   22.0742 C   0  0  0  0  0  0
  -22.4264   -8.0255   21.3543 C   0  0  0  0  0  0
  -21.9913   -9.0223   20.4633 C   0  0  0  0  0  0
  -22.7246  -10.2108   20.3065 C   0  0  0  0  0  0
  -21.6822   -6.0736   22.5280 C   0  0  0  0  0  0
  -21.3986   -6.5632   23.8217 C   0  0  0  0  0  0
  -21.3677   -5.6787   24.9180 C   0  0  0  0  0  0
  -21.6060   -4.3050   24.7219 C   0  0  0  0  0  0
  -21.8810   -3.8147   23.4330 C   0  0  0  0  0  0
  -21.9183   -4.6971   22.3396 C   0  0  0  0  0  0
  -22.7858  -13.5202   21.1864 C   0  0  0  0  0  0
  -22.1645   -4.2157   21.0970 F   0  0  0  0  0  0
  -21.5662   -3.4532   25.7732 F   0  0  0  0  0  0
  -30.0094  -13.4265   20.4167 N   0  0  0  0  0  0
  -26.2971  -12.9313   20.3286 N   0  0  0  0  0  0
  -25.9327  -11.6472   20.5758 N   0  0  0  0  0  0
  -22.0509  -12.8195   22.0430 N   0  0  0  0  0  0
  -25.4249  -15.1828   20.4071 N   0  0  0  0  0  0
  -31.8573  -14.6937   20.1543 O   0  0  0  0  0  0
  -21.6611   -6.8864   21.4238 O   0  0  0  0  0  0
  -22.3546  -14.5503   20.6715 O   0  0  0  0  0  0
  -24.6260  -31.8572   23.1981 C   0  0  0  0  0  0
  -25.9116  -32.4746   23.8313 C   0  0  1  0  0  0
  -27.2327  -27.3097   20.1032 C   0  0  0  0  0  0
  -25.5935  -33.8539   24.2256 N   0  0  0  0  0  0
  -23.4193  -30.4769   21.5399 C   0  0  2  0  0  0
  -24.8709  -28.9332   20.0976 C   0  0  0  0  0  0
  -22.7497  -29.4562   22.4922 C   0  0  0  0  0  0
  -18.0338  -28.1339   22.8516 C   0  0  0  0  0  0
  -24.1474  -36.7300   23.2644 C   0  0  0  0  0  0
  -25.9608  -30.7697   21.3817 C   0  0  0  0  0  0
  -26.0310  -29.3965   20.7281 C   0  0  0  0  0  0
  -27.2044  -28.5873   20.7416 C   0  0  0  0  0  0
  -26.0660  -26.9227   19.4073 C   0  0  0  0  0  0
  -24.8921  -27.7004   19.4275 C   0  0  0  0  0  0
  -23.6354  -29.8099   20.1519 C   0  0  0  0  0  0
  -25.4100  -36.3065   24.0327 C   0  0  1  0  0  0
  -20.5932  -28.3653   23.1463 C   0  0  2  0  0  0
  -20.6821  -26.9349   22.5602 C   0  0  0  0  0  0
  -19.5895  -26.6507   21.5229 C   0  0  0  0  0  0
  -18.2024  -26.7923   22.1579 C   0  0  0  0  0  0
  -19.1557  -28.8796   23.3007 C   0  0  0  0  0  0
  -18.9448  -30.1412   23.8967 C   0  0  0  0  0  0
  -17.6443  -30.6575   24.0459 C   0  0  0  0  0  0
  -25.9050  -34.9438   23.5100 C   0  0  0  0  0  0
  -16.5369  -29.9079   23.6133 C   0  0  0  0  0  0
  -16.7323  -28.6451   23.0248 C   0  0  0  0  0  0
  -26.4497  -31.6578   25.0712 C   0  0  0  0  0  0
  -25.3718  -31.3732   26.1444 C   0  0  0  0  0  0
  -27.0373  -30.3006   24.6191 C   0  0  0  0  0  0
  -27.6051  -32.4318   25.7502 C   0  0  0  0  0  0
  -27.5566  -37.1802   24.8469 C   0  0  0  0  0  0
  -21.4179  -29.3106   22.3887 N   0  0  0  0  0  0
  -26.4271  -37.3765   23.9423 N   0  0  0  0  0  0
  -24.6869  -31.0561   22.0947 N   0  0  0  0  0  0
  -23.4275  -28.7998   23.2844 O   0  0  0  0  0  0
  -28.3603  -26.4752   20.1883 O   0  0  0  0  0  0
  -26.5605  -34.8929   22.4664 O   0  0  0  0  0  0
  -23.5436  -32.1370   23.7321 O   0  0  0  0  0  0
  -30.4675  -19.7047   20.2768 C   0  0  0  0  0  0
  -29.8522  -20.9944   20.1864 C   0  0  0  0  0  0
  -28.3390  -18.6908   20.6563 C   0  0  0  0  0  0
  -29.7265  -18.5071   20.4871 C   0  0  0  0  0  0
  -27.7050  -19.9641   20.5774 C   0  0  0  0  0  0
  -28.4455  -21.1756   20.2820 C   0  0  0  0  0  0
  -26.5916  -22.5556   19.4173 C   0  0  0  0  0  0
  -25.0630  -20.2966   21.2788 C   0  0  0  0  0  0
  -30.3844  -17.1341   20.4815 C   0  0  0  0  0  0
  -26.2575  -19.8624   20.8318 C   0  0  0  0  0  0
  -29.8500  -15.8749   20.6359 C   0  0  0  0  0  0
  -25.6763  -23.5023   20.1763 C   0  0  0  0  0  0
  -26.6155  -24.0793   21.2401 C   0  0  0  0  0  0
  -28.0193  -23.8303   20.6682 C   0  0  2  0  0  0
  -28.3915  -25.0679   19.7029 C   0  0  0  0  0  0
  -27.8068  -22.4897   19.9953 N   0  0  0  0  0  0
  -26.2345  -21.9617   18.3957 O   0  0  0  0  0  0
  -31.4691  -12.4631   19.1651 H   0  0  0  0  0  0
  -30.3297  -11.3892   19.9251 H   0  0  0  0  0  0
  -29.7719  -11.7223   17.4931 H   0  0  0  0  0  0
  -29.6561  -13.4456   17.7388 H   0  0  0  0  0  0
  -27.8732  -11.2755   18.8889 H   0  0  0  0  0  0
  -27.3731  -12.5353   17.7926 H   0  0  0  0  0  0
  -27.6554  -14.2406   19.4868 H   0  0  0  0  0  0
  -28.7037  -12.0926   21.3915 H   0  0  0  0  0  0
  -28.4448  -13.7600   21.8179 H   0  0  0  0  0  0
  -25.2768   -9.5615   22.4757 H   0  0  0  0  0  0
  -24.0008   -7.4565   22.7438 H   0  0  0  0  0  0
  -21.0857   -8.8734   19.8915 H   0  0  0  0  0  0
  -22.3711  -10.9650   19.6174 H   0  0  0  0  0  0
  -21.1934   -7.6130   23.9717 H   0  0  0  0  0  0
  -21.1537   -6.0514   25.9091 H   0  0  0  0  0  0
  -22.0582   -2.7604   23.2819 H   0  0  0  0  0  0
  -22.4162  -11.9904   22.4868 H   0  0  0  0  0  0
  -21.1118  -13.1193   22.2603 H   0  0  0  0  0  0
  -24.6543  -15.8347   20.5124 H   0  0  0  0  0  0
  -26.2736  -15.6174   20.0678 H   0  0  0  0  0  0
  -26.7166  -32.5402   23.1035 H   0  0  0  0  0  0
  -25.0091  -33.9654   25.0412 H   0  0  0  0  0  0
  -22.7083  -31.2934   21.3982 H   0  0  0  0  0  0
  -23.3733  -35.9639   23.3310 H   0  0  0  0  0  0
  -24.3569  -36.8932   22.2060 H   0  0  0  0  0  0
  -23.7243  -37.6504   23.6664 H   0  0  0  0  0  0
  -26.0960  -31.5185   20.6033 H   0  0  0  0  0  0
  -26.8433  -30.8222   22.0079 H   0  0  0  0  0  0
  -28.0876  -28.9306   21.2657 H   0  0  0  0  0  0
  -26.0478  -26.0202   18.8239 H   0  0  0  0  0  0
  -24.0145  -27.3610   18.8939 H   0  0  0  0  0  0
  -23.7479  -30.5849   19.3926 H   0  0  0  0  0  0
  -22.7585  -29.2319   19.8557 H   0  0  0  0  0  0
  -25.1274  -36.1905   25.0809 H   0  0  0  0  0  0
  -21.0019  -28.3174   24.1610 H   0  0  0  0  0  0
  -21.6733  -26.7333   22.1566 H   0  0  0  0  0  0
  -20.5528  -26.2228   23.3784 H   0  0  0  0  0  0
  -19.7134  -25.6539   21.1004 H   0  0  0  0  0  0
  -19.6930  -27.3523   20.6952 H   0  0  0  0  0  0
  -17.4339  -26.6747   21.3928 H   0  0  0  0  0  0
  -18.0470  -26.0003   22.8935 H   0  0  0  0  0  0
  -19.7883  -30.7214   24.2451 H   0  0  0  0  0  0
  -17.4947  -31.6272   24.5026 H   0  0  0  0  0  0
  -15.5370  -30.3008   23.7270 H   0  0  0  0  0  0
  -15.8763  -28.0763   22.6893 H   0  0  0  0  0  0
  -24.5870  -30.7112   25.7777 H   0  0  0  0  0  0
  -24.8943  -32.2897   26.4883 H   0  0  0  0  0  0
  -25.8045  -30.8883   27.0208 H   0  0  0  0  0  0
  -26.2967  -29.6749   24.1193 H   0  0  0  0  0  0
  -27.4060  -29.7270   25.4717 H   0  0  0  0  0  0
  -27.8825  -30.4339   23.9447 H   0  0  0  0  0  0
  -27.2650  -33.3615   26.2083 H   0  0  0  0  0  0
  -28.3867  -32.6890   25.0337 H   0  0  0  0  0  0
  -28.0698  -31.8431   26.5420 H   0  0  0  0  0  0
  -28.2579  -38.0097   24.7499 H   0  0  0  0  0  0
  -28.1059  -36.2635   24.6296 H   0  0  0  0  0  0
  -27.2295  -37.1460   25.8872 H   0  0  0  0  0  0
  -20.9275  -29.9211   21.7511 H   0  0  0  0  0  0
  -26.0160  -38.2840   24.1429 H   0  0  0  0  0  0
  -31.5412  -19.6381   20.1467 H   0  0  0  0  0  0
  -30.4791  -21.8528   19.9871 H   0  0  0  0  0  0
  -27.7232  -17.8229   20.8456 H   0  0  0  0  0  0
  -24.8892  -21.1454   21.9347 H   0  0  0  0  0  0
  -24.1777  -19.7661   20.9605 H   0  0  0  0  0  0
  -31.4488  -17.1777   20.2939 H   0  0  0  0  0  0
  -26.5877  -20.5276   21.6164 H   0  0  0  0  0  0
  -28.7974  -15.7883   20.8473 H   0  0  0  0  0  0
  -24.8256  -22.9919   20.6234 H   0  0  0  0  0  0
  -25.2777  -24.2384   19.4895 H   0  0  0  0  0  0
  -26.5013  -23.5266   22.1731 H   0  0  0  0  0  0
  -26.4059  -25.1208   21.4735 H   0  0  0  0  0  0
  -28.7518  -23.7413   21.4717 H   0  0  0  0  0  0
  -27.8698  -24.9969   18.7505 H   0  0  0  0  0  0
  -29.4322  -24.9031   19.4156 H   0  0  0  0  0  0
  1 25  1  0  0  0
  1 30  2  0  0  0
  1 81  1  0  0  0
  2  3  1  0  0  0
  2 25  1  0  0  0
  2 88  1  0  0  0
  2 89  1  0  0  0
  3  4  1  0  0  0
  3 90  1  0  0  0
  3 91  1  0  0  0
  4  5  1  0  0  0
  4 92  1  0  0  0
  4 93  1  0  0  0
  5  6  1  0  0  0
  5 26  1  0  0  0
  5 94  1  0  0  0
  6 25  1  0  0  0
  6 95  1  0  0  0
  6 96  1  0  0  0
  7  8  2  0  0  0
  7 26  1  0  0  0
  7 29  1  0  0  0
  8  9  1  0  0  0
  8 22  1  0  0  0
  9 10  1  0  0  0
  9 27  2  0  0  0
 10 11  2  0  0  0
 10 15  1  0  0  0
 11 12  1  0  0  0
 11 97  1  0  0  0
 12 13  2  0  0  0
 12 98  1  0  0  0
 13 14  1  0  0  0
 13 31  1  0  0  0
 14 15  2  0  0  0
 14 99  1  0  0  0
 15100  1  0  0  0
 16 17  2  0  0  0
 16 21  1  0  0  0
 16 31  1  0  0  0
 17 18  1  0  0  0
 17101  1  0  0  0
 18 19  2  0  0  0
 18102  1  0  0  0
 19 20  1  0  0  0
 19 24  1  0  0  0
 20 21  2  0  0  0
 20103  1  0  0  0
 21 23  1  0  0  0
 22 28  1  0  0  0
 22 32  2  0  0  0
 26 27  1  0  0  0
 28104  1  0  0  0
 28105  1  0  0  0
 29106  1  0  0  0
 29107  1  0  0  0
 33 34  1  0  0  0
 33 66  1  0  0  0
 33 70  2  0  0  0
 34 36  1  0  0  0
 34 59  1  0  0  0
 34108  1  0  0  0
 35 44  2  0  0  0
 35 45  1  0  0  0
 35 68  1  0  0  0
 36 56  1  0  0  0
 36109  1  0  0  0
 37 39  1  0  0  0
 37 47  1  0  0  0
 37 66  1  0  0  0
 37110  1  0  0  0
 38 43  2  0  0  0
 38 46  1  0  0  0
 38 47  1  0  0  0
 39 64  1  0  0  0
 39 67  2  0  0  0
 40 52  1  0  0  0
 40 53  2  0  0  0
 40 58  1  0  0  0
 41111  1  0  0  0
 41112  1  0  0  0
 41113  1  0  0  0
 41 48  1  0  0  0
 42 43  1  0  0  0
 42 66  1  0  0  0
 42114  1  0  0  0
 42115  1  0  0  0
 43 44  1  0  0  0
 44116  1  0  0  0
 45 46  2  0  0  0
 45117  1  0  0  0
 46118  1  0  0  0
 47119  1  0  0  0
 47120  1  0  0  0
 48 56  1  0  0  0
 48 65  1  0  0  0
 48121  1  0  0  0
 49 50  1  0  0  0
 49 53  1  0  0  0
 49 64  1  0  0  0
 49122  1  0  0  0
 50 51  1  0  0  0
 50123  1  0  0  0
 50124  1  0  0  0
 51 52  1  0  0  0
 51125  1  0  0  0
 51126  1  0  0  0
 52127  1  0  0  0
 52128  1  0  0  0
 53 54  1  0  0  0
 54 55  2  0  0  0
 54129  1  0  0  0
 55 57  1  0  0  0
 55130  1  0  0  0
 56 69  2  0  0  0
 57 58  2  0  0  0
 57131  1  0  0  0
 58132  1  0  0  0
 59 60  1  0  0  0
 59 61  1  0  0  0
 59 62  1  0  0  0
 60133  1  0  0  0
 60134  1  0  0  0
 60135  1  0  0  0
 61136  1  0  0  0
 61137  1  0  0  0
 61138  1  0  0  0
 62139  1  0  0  0
 62140  1  0  0  0
 62141  1  0  0  0
 63 65  1  0  0  0
 63142  1  0  0  0
 63143  1  0  0  0
 63144  1  0  0  0
 64145  1  0  0  0
 65146  1  0  0  0
 68 85  1  0  0  0
 71 72  2  0  0  0
 71 74  1  0  0  0
 71147  1  0  0  0
 72 76  1  0  0  0
 72148  1  0  0  0
 73 74  2  0  0  0
 73 75  1  0  0  0
 73149  1  0  0  0
 74 79  1  0  0  0
 75 76  2  0  0  0
 75 80  1  0  0  0
 76 86  1  0  0  0
 77 82  1  0  0  0
 77 86  1  0  0  0
 77 87  2  0  0  0
 78 80  2  0  0  0
 78150  1  0  0  0
 78151  1  0  0  0
 79 81  2  0  0  0
 79152  1  0  0  0
 80153  1  0  0  0
 81154  1  0  0  0
 82 83  1  0  0  0
 82155  1  0  0  0
 82156  1  0  0  0
 83 84  1  0  0  0
 83157  1  0  0  0
 83158  1  0  0  0
 84 85  1  0  0  0
 84 86  1  0  0  0
 84159  1  0  0  0
 85160  1  0  0  0
 85161  1  0  0  0
M  ISO  4   1 100  68 101  81 100  85 101
M  END
> <chiral flag>
0

> <version>
0

> <s_m_source_file>
/data/baiqing/PycharmProjects/Reinvent-master-3.2/result/LINK_invent/BTK/process_docking_weight1_custom_product_contain_oxygen_bond_distance_aromatic_linkinvent_7_9_3/rearranged_h_0108.sdf

> <i_m_source_file_index>
25

> <r_mmod_Potential_Energy-OPLS-2005>
505.159210205078

> <r_mmod_Stretch_Energy-OPLS-2005>
95.5827789306641

> <r_mmod_Bend_Energy-OPLS-2005>
428.806427001953

> <r_mmod_Torsional_Energy-OPLS-2005>
302.269287109375

> <r_mmod_Improper_Torsional_Energy-OPLS-2005>
12.0985326766968

> <r_mmod_Van_der_Waal_Energy-OPLS-2005>
157.046096801758

> <r_mmod_Electrostatic_Energy-OPLS-2005>
-336.474578857422

> <r_mmod_Solvation_Energy-OPLS-2005>
-208.269271850586

> <b_mmod_Minimization_Converged-OPLS-2005>
0

> <r_mmod_RMS_Derivative-OPLS-2005>
4.57058906555176

$$$$
26
                    3D
 Structure written by MMmdl.
167176  0  0  1  0            999 V2000
  -30.6882  -14.5339   20.5534 C   0  0  0  0  0  0
  -30.4232  -12.3449   19.4250 C   0  0  0  0  0  0
  -29.4941  -12.5027   18.2047 C   0  0  0  0  0  0
  -28.0167  -12.3571   18.6203 C   0  0  0  0  0  0
  -27.6541  -13.2134   19.8633 C   0  0  2  0  0  0
  -28.6989  -13.0359   20.9862 C   0  0  0  0  0  0
  -25.2566  -13.8172   20.5679 C   0  0  0  0  0  0
  -24.1830  -13.0440   20.9181 C   0  0  0  0  0  0
  -24.6390  -11.6907   20.8726 C   0  0  0  0  0  0
  -23.9056  -10.4290   21.0396 C   0  0  0  0  0  0
  -24.3611   -9.4210   21.9174 C   0  0  0  0  0  0
  -23.6291   -8.2243   22.0747 C   0  0  0  0  0  0
  -22.4271   -8.0279   21.3542 C   0  0  0  0  0  0
  -21.9901   -9.0250   20.4642 C   0  0  0  0  0  0
  -22.7224  -10.2132   20.3049 C   0  0  0  0  0  0
  -21.6856   -6.0733   22.5277 C   0  0  0  0  0  0
  -21.4017   -6.5639   23.8209 C   0  0  0  0  0  0
  -21.3659   -5.6791   24.9173 C   0  0  0  0  0  0
  -21.6040   -4.3053   24.7224 C   0  0  0  0  0  0
  -21.8822   -3.8142   23.4345 C   0  0  0  0  0  0
  -21.9195   -4.6960   22.3401 C   0  0  0  0  0  0
  -22.7855  -13.5237   21.1848 C   0  0  0  0  0  0
  -22.1664   -4.2146   21.0979 F   0  0  0  0  0  0
  -21.5626   -3.4538   25.7737 F   0  0  0  0  0  0
  -30.0183  -13.3538   20.4191 N   0  0  0  0  0  0
  -26.2990  -12.9347   20.3315 N   0  0  0  0  0  0
  -25.9317  -11.6503   20.5747 N   0  0  0  0  0  0
  -22.0499  -12.8225   22.0405 N   0  0  0  0  0  0
  -25.4289  -15.1894   20.4109 N   0  0  0  0  0  0
  -31.8393  -14.6853   20.1367 O   0  0  0  0  0  0
  -21.6640   -6.8876   21.4237 O   0  0  0  0  0  0
  -22.3540  -14.5543   20.6697 O   0  0  0  0  0  0
  -24.6193  -31.8650   23.2067 C   0  0  0  0  0  0
  -25.9069  -32.4808   23.8375 C   0  0  1  0  0  0
  -27.2311  -27.3915   20.0915 C   0  0  0  0  0  0
  -25.5905  -33.8608   24.2317 N   0  0  0  0  0  0
  -23.4098  -30.4890   21.5481 C   0  0  2  0  0  0
  -24.8567  -28.9521   20.1103 C   0  0  0  0  0  0
  -22.7444  -29.4646   22.4967 C   0  0  0  0  0  0
  -18.0282  -28.1387   22.8503 C   0  0  0  0  0  0
  -24.1482  -36.7297   23.2639 C   0  0  0  0  0  0
  -25.9445  -30.8159   21.3685 C   0  0  0  0  0  0
  -26.0211  -29.4481   20.7119 C   0  0  0  0  0  0
  -27.2106  -28.6736   20.7037 C   0  0  0  0  0  0
  -26.0424  -26.9191   19.4923 C   0  0  0  0  0  0
  -24.8646  -27.6886   19.4973 C   0  0  0  0  0  0
  -23.6206  -29.8235   20.1624 C   0  0  0  0  0  0
  -25.4108  -36.3109   24.0344 C   0  0  1  0  0  0
  -20.5878  -28.3683   23.1310 C   0  0  2  0  0  0
  -20.6772  -26.9411   22.5420 C   0  0  0  0  0  0
  -19.5739  -26.6392   21.5225 C   0  0  0  0  0  0
  -18.1921  -26.7932   22.1635 C   0  0  0  0  0  0
  -19.1535  -28.8851   23.2907 C   0  0  0  0  0  0
  -18.9461  -30.1453   23.8926 C   0  0  0  0  0  0
  -17.6459  -30.6586   24.0578 C   0  0  0  0  0  0
  -25.9037  -34.9471   23.5129 C   0  0  0  0  0  0
  -16.5356  -29.9085   23.6330 C   0  0  0  0  0  0
  -16.7268  -28.6500   23.0361 C   0  0  0  0  0  0
  -26.4492  -31.6595   25.0710 C   0  0  0  0  0  0
  -25.3742  -31.3724   26.1453 C   0  0  0  0  0  0
  -27.0311  -30.3019   24.6108 C   0  0  0  0  0  0
  -27.6053  -32.4316   25.7482 C   0  0  0  0  0  0
  -27.5584  -37.1811   24.8473 C   0  0  0  0  0  0
  -21.4162  -29.3042   22.3709 N   0  0  0  0  0  0
  -26.4299  -37.3787   23.9411 N   0  0  0  0  0  0
  -24.6764  -31.0715   22.0993 N   0  0  0  0  0  0
  -23.4199  -28.8191   23.3027 O   0  0  0  0  0  0
  -28.3519  -26.5747   20.1383 O   0  0  0  0  0  0
  -26.5596  -34.8927   22.4689 O   0  0  0  0  0  0
  -23.5374  -32.1417   23.7429 O   0  0  0  0  0  0
  -31.1742  -18.9121   20.1817 C   0  0  0  0  0  0
  -30.9232  -20.2203   19.7090 C   0  0  0  0  0  0
  -28.9255  -18.8039   21.0573 C   0  0  0  0  0  0
  -30.1883  -18.1862   20.8823 C   0  0  0  0  0  0
  -29.6788  -20.8670   19.9139 C   0  0  0  0  0  0
  -28.6561  -20.1247   20.5715 C   0  0  0  0  0  0
  -28.8963  -24.4673   18.9619 C   0  0  0  0  0  0
  -28.6526  -25.8063   19.0309 C   0  0  0  0  0  0
  -29.2888  -23.8012   17.6626 C   0  0  0  0  0  0
  -28.8924  -23.3669   20.0357 C   0  0  0  0  0  0
  -30.0185  -22.5218   18.0755 C   0  0  0  0  0  0
  -23.7538  -19.8253   20.5241 C   0  0  0  0  0  0
  -30.5623  -16.8467   21.5638 C   0  0  0  0  0  0
  -25.0441  -20.6456   20.4058 C   0  0  0  0  0  0
  -26.2856  -19.8792   20.8766 C   0  0  0  0  0  0
  -29.4754  -22.1756   19.3810 N   0  0  0  0  0  0
  -29.9895  -15.5748   21.0667 N   0  0  0  0  0  0
  -27.4171  -20.7198   20.6867 O   0  0  0  0  0  0
  -31.4659  -12.4508   19.1204 H   0  0  0  0  0  0
  -30.3369  -11.3428   19.8477 H   0  0  0  0  0  0
  -29.7416  -11.7622   17.4430 H   0  0  0  0  0  0
  -29.6521  -13.4791   17.7440 H   0  0  0  0  0  0
  -27.8367  -11.3027   18.8327 H   0  0  0  0  0  0
  -27.3639  -12.6127   17.7848 H   0  0  0  0  0  0
  -27.6843  -14.2548   19.5425 H   0  0  0  0  0  0
  -28.6928  -12.0095   21.3560 H   0  0  0  0  0  0
  -28.4563  -13.6607   21.8467 H   0  0  0  0  0  0
  -25.2761   -9.5690   22.4742 H   0  0  0  0  0  0
  -24.0006   -7.4637   22.7464 H   0  0  0  0  0  0
  -21.0833   -8.8761   19.8949 H   0  0  0  0  0  0
  -22.3678  -10.9668   19.6157 H   0  0  0  0  0  0
  -21.2013   -7.6147   23.9713 H   0  0  0  0  0  0
  -21.1476   -6.0521   25.9077 H   0  0  0  0  0  0
  -22.0601   -2.7602   23.2849 H   0  0  0  0  0  0
  -22.4118  -11.9888   22.4793 H   0  0  0  0  0  0
  -21.1115  -13.1246   22.2608 H   0  0  0  0  0  0
  -24.6598  -15.8420   20.5151 H   0  0  0  0  0  0
  -26.2765  -15.6256   20.0718 H   0  0  0  0  0  0
  -26.7140  -32.5517   23.1132 H   0  0  0  0  0  0
  -25.0079  -33.9753   25.0481 H   0  0  0  0  0  0
  -22.6996  -31.3072   21.4087 H   0  0  0  0  0  0
  -23.3739  -35.9640   23.3341 H   0  0  0  0  0  0
  -24.3562  -36.8856   22.2041 H   0  0  0  0  0  0
  -23.7235  -37.6519   23.6616 H   0  0  0  0  0  0
  -26.0636  -31.5827   20.6022 H   0  0  0  0  0  0
  -26.8303  -30.8677   21.9904 H   0  0  0  0  0  0
  -28.1064  -29.0448   21.1812 H   0  0  0  0  0  0
  -26.0146  -25.9388   19.0377 H   0  0  0  0  0  0
  -23.9680  -27.2994   19.0343 H   0  0  0  0  0  0
  -23.7310  -30.5995   19.4040 H   0  0  0  0  0  0
  -22.7435  -29.2463   19.8634 H   0  0  0  0  0  0
  -25.1278  -36.1985   25.0837 H   0  0  0  0  0  0
  -20.9976  -28.3256   24.1429 H   0  0  0  0  0  0
  -20.5691  -26.2282   23.3608 H   0  0  0  0  0  0
  -21.6637  -26.7447   22.1208 H   0  0  0  0  0  0
  -19.6894  -25.6305   21.1241 H   0  0  0  0  0  0
  -19.6671  -27.3220   20.6771 H   0  0  0  0  0  0
  -17.4188  -26.6697   21.4039 H   0  0  0  0  0  0
  -18.0314  -26.0076   22.9028 H   0  0  0  0  0  0
  -19.7936  -30.7277   24.2295 H   0  0  0  0  0  0
  -17.5010  -31.6270   24.5163 H   0  0  0  0  0  0
  -15.5355  -30.3003   23.7625 H   0  0  0  0  0  0
  -15.8667  -28.0822   22.7068 H   0  0  0  0  0  0
  -24.5903  -30.7086   25.7796 H   0  0  0  0  0  0
  -24.8966  -32.2901   26.4897 H   0  0  0  0  0  0
  -25.8089  -30.8890   27.0207 H   0  0  0  0  0  0
  -26.2860  -29.6795   24.1141 H   0  0  0  0  0  0
  -27.4042  -29.7245   25.4576 H   0  0  0  0  0  0
  -27.8724  -30.4317   23.9289 H   0  0  0  0  0  0
  -27.2652  -33.3593   26.2098 H   0  0  0  0  0  0
  -28.3854  -32.6910   25.0310 H   0  0  0  0  0  0
  -28.0742  -31.8420   26.5369 H   0  0  0  0  0  0
  -28.2633  -38.0080   24.7493 H   0  0  0  0  0  0
  -28.1051  -36.2609   24.6341 H   0  0  0  0  0  0
  -27.2296  -37.1512   25.8878 H   0  0  0  0  0  0
  -20.9317  -29.8758   21.6925 H   0  0  0  0  0  0
  -26.0197  -38.2877   24.1386 H   0  0  0  0  0  0
  -32.1557  -18.4827   20.0348 H   0  0  0  0  0  0
  -31.7235  -20.7340   19.1968 H   0  0  0  0  0  0
  -28.1718  -18.2564   21.6045 H   0  0  0  0  0  0
  -28.7083  -26.4268   18.1463 H   0  0  0  0  0  0
  -29.8957  -24.4438   17.0235 H   0  0  0  0  0  0
  -28.3765  -23.5500   17.1196 H   0  0  0  0  0  0
  -27.8710  -23.1745   20.3655 H   0  0  0  0  0  0
  -29.4828  -23.6750   20.8996 H   0  0  0  0  0  0
  -31.0890  -22.7149   18.1677 H   0  0  0  0  0  0
  -29.8786  -21.7228   17.3450 H   0  0  0  0  0  0
  -22.9021  -20.3849   20.1361 H   0  0  0  0  0  0
  -23.5400  -19.5725   21.5629 H   0  0  0  0  0  0
  -23.8223  -18.8951   19.9588 H   0  0  0  0  0  0
  -30.2635  -16.9316   22.6094 H   0  0  0  0  0  0
  -31.6509  -16.7710   21.6022 H   0  0  0  0  0  0
  -24.9439  -21.5686   20.9778 H   0  0  0  0  0  0
  -25.1826  -20.9418   19.3651 H   0  0  0  0  0  0
  -26.3725  -18.9593   20.2951 H   0  0  0  0  0  0
  -26.1968  -19.6091   21.9300 H   0  0  0  0  0  0
  -29.0273  -15.3904   21.3046 H   0  0  0  0  0  0
  1 25  1  0  0  0
  1 30  2  0  0  0
  1 87  1  0  0  0
  2  3  1  0  0  0
  2 25  1  0  0  0
  2 89  1  0  0  0
  2 90  1  0  0  0
  3  4  1  0  0  0
  3 91  1  0  0  0
  3 92  1  0  0  0
  4  5  1  0  0  0
  4 93  1  0  0  0
  4 94  1  0  0  0
  5  6  1  0  0  0
  5 26  1  0  0  0
  5 95  1  0  0  0
  6 25  1  0  0  0
  6 96  1  0  0  0
  6 97  1  0  0  0
  7  8  2  0  0  0
  7 26  1  0  0  0
  7 29  1  0  0  0
  8  9  1  0  0  0
  8 22  1  0  0  0
  9 10  1  0  0  0
  9 27  2  0  0  0
 10 11  2  0  0  0
 10 15  1  0  0  0
 11 12  1  0  0  0
 11 98  1  0  0  0
 12 13  2  0  0  0
 12 99  1  0  0  0
 13 14  1  0  0  0
 13 31  1  0  0  0
 14 15  2  0  0  0
 14100  1  0  0  0
 15101  1  0  0  0
 16 17  2  0  0  0
 16 21  1  0  0  0
 16 31  1  0  0  0
 17 18  1  0  0  0
 17102  1  0  0  0
 18 19  2  0  0  0
 18103  1  0  0  0
 19 20  1  0  0  0
 19 24  1  0  0  0
 20 21  2  0  0  0
 20104  1  0  0  0
 21 23  1  0  0  0
 22 28  1  0  0  0
 22 32  2  0  0  0
 26 27  1  0  0  0
 28105  1  0  0  0
 28106  1  0  0  0
 29107  1  0  0  0
 29108  1  0  0  0
 33 34  1  0  0  0
 33 66  1  0  0  0
 33 70  2  0  0  0
 34 36  1  0  0  0
 34 59  1  0  0  0
 34109  1  0  0  0
 35 44  2  0  0  0
 35 45  1  0  0  0
 35 68  1  0  0  0
 36 56  1  0  0  0
 36110  1  0  0  0
 37 39  1  0  0  0
 37 47  1  0  0  0
 37 66  1  0  0  0
 37111  1  0  0  0
 38 43  2  0  0  0
 38 46  1  0  0  0
 38 47  1  0  0  0
 39 64  1  0  0  0
 39 67  2  0  0  0
 40 52  1  0  0  0
 40 53  2  0  0  0
 40 58  1  0  0  0
 41112  1  0  0  0
 41113  1  0  0  0
 41114  1  0  0  0
 41 48  1  0  0  0
 42 43  1  0  0  0
 42 66  1  0  0  0
 42115  1  0  0  0
 42116  1  0  0  0
 43 44  1  0  0  0
 44117  1  0  0  0
 45 46  2  0  0  0
 45118  1  0  0  0
 46119  1  0  0  0
 47120  1  0  0  0
 47121  1  0  0  0
 48 56  1  0  0  0
 48 65  1  0  0  0
 48122  1  0  0  0
 49 50  1  0  0  0
 49 53  1  0  0  0
 49 64  1  0  0  0
 49123  1  0  0  0
 50 51  1  0  0  0
 50124  1  0  0  0
 50125  1  0  0  0
 51 52  1  0  0  0
 51126  1  0  0  0
 51127  1  0  0  0
 52128  1  0  0  0
 52129  1  0  0  0
 53 54  1  0  0  0
 54 55  2  0  0  0
 54130  1  0  0  0
 55 57  1  0  0  0
 55131  1  0  0  0
 56 69  2  0  0  0
 57 58  2  0  0  0
 57132  1  0  0  0
 58133  1  0  0  0
 59 60  1  0  0  0
 59 61  1  0  0  0
 59 62  1  0  0  0
 60134  1  0  0  0
 60135  1  0  0  0
 60136  1  0  0  0
 61137  1  0  0  0
 61138  1  0  0  0
 61139  1  0  0  0
 62140  1  0  0  0
 62141  1  0  0  0
 62142  1  0  0  0
 63 65  1  0  0  0
 63143  1  0  0  0
 63144  1  0  0  0
 63145  1  0  0  0
 64146  1  0  0  0
 65147  1  0  0  0
 68 78  1  0  0  0
 71 72  2  0  0  0
 71 74  1  0  0  0
 71148  1  0  0  0
 72 75  1  0  0  0
 72149  1  0  0  0
 73 74  2  0  0  0
 73 76  1  0  0  0
 73150  1  0  0  0
 74 83  1  0  0  0
 75 76  2  0  0  0
 75 86  1  0  0  0
 76 88  1  0  0  0
 77 78  2  0  0  0
 77 79  1  0  0  0
 77 80  1  0  0  0
 78151  1  0  0  0
 79 81  1  0  0  0
 79152  1  0  0  0
 79153  1  0  0  0
 80 86  1  0  0  0
 80154  1  0  0  0
 80155  1  0  0  0
 81 86  1  0  0  0
 81156  1  0  0  0
 81157  1  0  0  0
 82 84  1  0  0  0
 82158  1  0  0  0
 82159  1  0  0  0
 82160  1  0  0  0
 83 87  1  0  0  0
 83161  1  0  0  0
 83162  1  0  0  0
 84 85  1  0  0  0
 84163  1  0  0  0
 84164  1  0  0  0
 85 88  1  0  0  0
 85165  1  0  0  0
 85166  1  0  0  0
 87167  1  0  0  0
M  ISO  4   1 100  68 101  78 101  87 100
M  END
> <chiral flag>
0

> <version>
0

> <s_m_source_file>
/data/baiqing/PycharmProjects/Reinvent-master-3.2/result/LINK_invent/BTK/process_docking_weight1_custom_product_contain_oxygen_bond_distance_aromatic_linkinvent_7_9_3/rearranged_h_0108.sdf

> <i_m_source_file_index>
26

> <r_mmod_Potential_Energy-OPLS-2005>
10.293683052063

> <r_mmod_Stretch_Energy-OPLS-2005>
48.7181701660156

> <r_mmod_Bend_Energy-OPLS-2005>
170.598327636719

> <r_mmod_Torsional_Energy-OPLS-2005>
241.87336730957

> <r_mmod_Improper_Torsional_Energy-OPLS-2005>
4.09569025039673

> <r_mmod_Van_der_Waal_Energy-OPLS-2005>
144.717834472656

> <r_mmod_Electrostatic_Energy-OPLS-2005>
-395.935485839844

> <r_mmod_Solvation_Energy-OPLS-2005>
-228.025100708008

> <b_mmod_Minimization_Converged-OPLS-2005>
0

> <r_mmod_RMS_Derivative-OPLS-2005>
1.24109208583832

$$$$
27
                    3D
 Structure written by MMmdl.
166175  0  0  1  0            999 V2000
  -30.5506  -14.7991   20.4457 C   0  0  0  0  0  0
  -30.4332  -12.4830   19.4870 C   0  0  0  0  0  0
  -29.5144  -12.5236   18.2426 C   0  0  0  0  0  0
  -28.0365  -12.3274   18.6477 C   0  0  0  0  0  0
  -27.6298  -13.2227   19.8475 C   0  0  2  0  0  0
  -28.6724  -13.1164   20.9788 C   0  0  0  0  0  0
  -25.2438  -13.8194   20.5831 C   0  0  0  0  0  0
  -24.1683  -13.0415   20.9260 C   0  0  0  0  0  0
  -24.6287  -11.6903   20.8728 C   0  0  0  0  0  0
  -23.8956  -10.4291   21.0385 C   0  0  0  0  0  0
  -24.3529   -9.4222   21.9168 C   0  0  0  0  0  0
  -23.6255   -8.2240   22.0730 C   0  0  0  0  0  0
  -22.4232   -8.0270   21.3538 C   0  0  0  0  0  0
  -21.9834   -9.0222   20.4621 C   0  0  0  0  0  0
  -22.7144  -10.2126   20.3018 C   0  0  0  0  0  0
  -21.6849   -6.0704   22.5304 C   0  0  0  0  0  0
  -21.4015   -6.5605   23.8242 C   0  0  0  0  0  0
  -21.3663   -5.6762   24.9204 C   0  0  0  0  0  0
  -21.6053   -4.3031   24.7254 C   0  0  0  0  0  0
  -21.8802   -3.8119   23.4370 C   0  0  0  0  0  0
  -21.9174   -4.6934   22.3415 C   0  0  0  0  0  0
  -22.7704  -13.5225   21.1967 C   0  0  0  0  0  0
  -22.1638   -4.2111   21.0999 F   0  0  0  0  0  0
  -21.5618   -3.4510   25.7756 F   0  0  0  0  0  0
  -29.9650  -13.5396   20.4214 N   0  0  0  0  0  0
  -26.2821  -12.9374   20.3299 N   0  0  0  0  0  0
  -25.9189  -11.6511   20.5658 N   0  0  0  0  0  0
  -22.0272  -12.8222   22.0505 N   0  0  0  0  0  0
  -25.4216  -15.1911   20.4474 N   0  0  0  0  0  0
  -31.7278  -14.8928   20.0758 O   0  0  0  0  0  0
  -21.6622   -6.8859   21.4271 O   0  0  0  0  0  0
  -22.3414  -14.5550   20.6858 O   0  0  0  0  0  0
  -24.6357  -31.8611   23.2028 C   0  0  0  0  0  0
  -25.9174  -32.4809   23.8392 C   0  0  1  0  0  0
  -27.2122  -27.2685   20.1236 C   0  0  0  0  0  0
  -25.5982  -33.8611   24.2312 N   0  0  0  0  0  0
  -23.4296  -30.4876   21.5447 C   0  0  2  0  0  0
  -24.8711  -28.9351   20.1129 C   0  0  0  0  0  0
  -22.7538  -29.4634   22.4912 C   0  0  0  0  0  0
  -18.0307  -28.1390   22.8502 C   0  0  0  0  0  0
  -24.1459  -36.7297   23.2642 C   0  0  0  0  0  0
  -25.9742  -30.7810   21.3726 C   0  0  0  0  0  0
  -26.0436  -29.4001   20.7193 C   0  0  0  0  0  0
  -27.2126  -28.5772   20.7171 C   0  0  0  0  0  0
  -26.0137  -26.8711   19.4887 C   0  0  0  0  0  0
  -24.8587  -27.6772   19.4950 C   0  0  0  0  0  0
  -23.6499  -29.8291   20.1579 C   0  0  0  0  0  0
  -25.4072  -36.3107   24.0350 C   0  0  1  0  0  0
  -20.5928  -28.3687   23.1291 C   0  0  2  0  0  0
  -20.6786  -26.9394   22.5416 C   0  0  0  0  0  0
  -19.5745  -26.6377   21.5244 C   0  0  0  0  0  0
  -18.1931  -26.7936   22.1642 C   0  0  0  0  0  0
  -19.1564  -28.8854   23.2904 C   0  0  0  0  0  0
  -18.9477  -30.1456   23.8908 C   0  0  0  0  0  0
  -17.6470  -30.6587   24.0579 C   0  0  0  0  0  0
  -25.9019  -34.9487   23.5108 C   0  0  0  0  0  0
  -16.5370  -29.9080   23.6343 C   0  0  0  0  0  0
  -16.7289  -28.6499   23.0377 C   0  0  0  0  0  0
  -26.4495  -31.6672   25.0820 C   0  0  0  0  0  0
  -25.3687  -31.3876   26.1545 C   0  0  0  0  0  0
  -27.0363  -30.3108   24.6297 C   0  0  0  0  0  0
  -27.6042  -32.4433   25.7600 C   0  0  0  0  0  0
  -27.5548  -37.1812   24.8461 C   0  0  0  0  0  0
  -21.4241  -29.3071   22.3687 N   0  0  0  0  0  0
  -26.4245  -37.3820   23.9429 N   0  0  0  0  0  0
  -24.7004  -31.0590   22.0982 N   0  0  0  0  0  0
  -23.4263  -28.8149   23.2968 O   0  0  0  0  0  0
  -28.3338  -26.4097   20.1788 O   0  0  0  0  0  0
  -26.5570  -34.8964   22.4655 O   0  0  0  0  0  0
  -23.5498  -32.1411   23.7331 O   0  0  0  0  0  0
  -29.3858  -18.8148   20.4097 C   0  0  0  0  0  0
  -31.5876  -17.8689   20.8200 C   0  0  0  0  0  0
  -31.3032  -20.2942   20.5569 C   0  0  0  0  0  0
  -30.2105  -17.6148   20.6229 C   0  0  0  0  0  0
  -29.9122  -20.1737   20.3653 C   0  0  0  0  0  0
  -32.1225  -19.1733   20.7898 C   0  0  0  0  0  0
  -29.6628  -16.1483   20.7523 C   0  0  0  0  0  0
  -26.9809  -23.3917   23.2490 C   0  0  0  0  0  0
  -28.1861  -22.5679   23.6681 C   0  0  0  0  0  0
  -27.4151  -24.4362   22.2108 C   0  0  0  0  0  0
  -28.7561  -21.7815   22.4723 C   0  0  0  0  0  0
  -28.5003  -23.9574   21.1960 C   0  0  2  0  0  0
  -29.1384  -21.5430   20.0303 C   0  0  0  0  0  0
  -28.2842  -24.9185   19.9252 C   0  0  0  0  0  0
  -28.4455  -16.0951   21.1031 N   0  0  0  0  0  0
  -33.4814  -19.3671   21.0222 N   0  0  0  0  0  0
  -28.4879  -22.3930   21.1305 N   0  3  1  0  0  0
  -31.4741  -12.6115   19.1896 H   0  0  0  0  0  0
  -30.3867  -11.5005   19.9624 H   0  0  0  0  0  0
  -29.8194  -11.7640   17.5203 H   0  0  0  0  0  0
  -29.6313  -13.4837   17.7375 H   0  0  0  0  0  0
  -27.9104  -11.2780   18.9128 H   0  0  0  0  0  0
  -27.3793  -12.5072   17.7963 H   0  0  0  0  0  0
  -27.6206  -14.2421   19.4634 H   0  0  0  0  0  0
  -28.7244  -12.0856   21.3274 H   0  0  0  0  0  0
  -28.3888  -13.7012   21.8512 H   0  0  0  0  0  0
  -25.2655   -9.5770   22.4767 H   0  0  0  0  0  0
  -23.9973   -7.4646   22.7433 H   0  0  0  0  0  0
  -21.0765   -8.8759   19.8936 H   0  0  0  0  0  0
  -22.3597  -10.9657   19.6131 H   0  0  0  0  0  0
  -21.2025   -7.6124   23.9755 H   0  0  0  0  0  0
  -21.1489   -6.0474   25.9108 H   0  0  0  0  0  0
  -22.0561   -2.7564   23.2885 H   0  0  0  0  0  0
  -22.3795  -11.9931   22.5046 H   0  0  0  0  0  0
  -21.0870  -13.1276   22.2601 H   0  0  0  0  0  0
  -24.6883  -15.8623   20.6569 H   0  0  0  0  0  0
  -26.3521  -15.6035   20.4282 H   0  0  0  0  0  0
  -26.7292  -32.5459   23.1197 H   0  0  0  0  0  0
  -25.0309  -33.9760   25.0583 H   0  0  0  0  0  0
  -22.7276  -31.3124   21.4030 H   0  0  0  0  0  0
  -23.3747  -35.9612   23.3284 H   0  0  0  0  0  0
  -24.3554  -36.8925   22.2060 H   0  0  0  0  0  0
  -23.7194  -37.6488   23.6665 H   0  0  0  0  0  0
  -26.1030  -31.5371   20.5970 H   0  0  0  0  0  0
  -26.8578  -30.8464   21.9968 H   0  0  0  0  0  0
  -28.1073  -28.9264   21.2148 H   0  0  0  0  0  0
  -25.9211  -25.9296   18.9777 H   0  0  0  0  0  0
  -23.9551  -27.3245   19.0193 H   0  0  0  0  0  0
  -23.7884  -30.6144   19.4124 H   0  0  0  0  0  0
  -22.7671  -29.2744   19.8392 H   0  0  0  0  0  0
  -25.1250  -36.1964   25.0852 H   0  0  0  0  0  0
  -21.0034  -28.3224   24.1414 H   0  0  0  0  0  0
  -20.5713  -26.2268   23.3610 H   0  0  0  0  0  0
  -21.6629  -26.7414   22.1180 H   0  0  0  0  0  0
  -19.6866  -25.6298   21.1266 H   0  0  0  0  0  0
  -19.6681  -27.3208   20.6803 H   0  0  0  0  0  0
  -17.4209  -26.6794   21.4037 H   0  0  0  0  0  0
  -18.0222  -26.0067   22.9003 H   0  0  0  0  0  0
  -19.7946  -30.7278   24.2284 H   0  0  0  0  0  0
  -17.5020  -31.6268   24.5166 H   0  0  0  0  0  0
  -15.5364  -30.2979   23.7634 H   0  0  0  0  0  0
  -15.8714  -28.0808   22.7082 H   0  0  0  0  0  0
  -24.5835  -30.7240   25.7889 H   0  0  0  0  0  0
  -24.8897  -32.3074   26.4930 H   0  0  0  0  0  0
  -25.7975  -30.9098   27.0364 H   0  0  0  0  0  0
  -26.2993  -29.6889   24.1212 H   0  0  0  0  0  0
  -27.3969  -29.7366   25.4835 H   0  0  0  0  0  0
  -27.8872  -30.4446   23.9624 H   0  0  0  0  0  0
  -27.2652  -33.3746   26.2151 H   0  0  0  0  0  0
  -28.3863  -32.6983   25.0444 H   0  0  0  0  0  0
  -28.0702  -31.8593   26.5545 H   0  0  0  0  0  0
  -28.2577  -38.0101   24.7513 H   0  0  0  0  0  0
  -28.1039  -36.2644   24.6256 H   0  0  0  0  0  0
  -27.2289  -37.1417   25.8875 H   0  0  0  0  0  0
  -20.9393  -29.8863   21.6981 H   0  0  0  0  0  0
  -26.0120  -38.2899   24.1454 H   0  0  0  0  0  0
  -28.3191  -18.7013   20.2650 H   0  0  0  0  0  0
  -32.2596  -17.0526   21.0339 H   0  0  0  0  0  0
  -31.7536  -21.2768   20.5228 H   0  0  0  0  0  0
  -26.5215  -23.8742   24.1111 H   0  0  0  0  0  0
  -26.2189  -22.7320   22.8293 H   0  0  0  0  0  0
  -27.9065  -21.8871   24.4729 H   0  0  0  0  0  0
  -28.9485  -23.2242   24.0865 H   0  0  0  0  0  0
  -27.7935  -25.3240   22.7217 H   0  0  0  0  0  0
  -26.5074  -24.7606   21.6982 H   0  0  0  0  0  0
  -28.3137  -20.7839   22.4915 H   0  0  0  0  0  0
  -29.8290  -21.6577   22.6200 H   0  0  0  0  0  0
  -29.4772  -24.2204   21.6092 H   0  0  0  0  0  0
  -28.3750  -21.3303   19.2808 H   0  0  0  0  0  0
  -29.8523  -22.1842   19.5104 H   0  0  0  0  0  0
  -27.3776  -24.5930   19.4239 H   0  0  0  0  0  0
  -29.0679  -24.7107   19.1966 H   0  0  0  0  0  0
  -28.0955  -17.0281   21.2800 H   0  0  0  0  0  0
  -33.9411  -20.2412   20.7775 H   0  0  0  0  0  0
  -34.1085  -18.5744   21.1178 H   0  0  0  0  0  0
  -27.5095  -22.1913   20.9837 H   0  0  0  0  0  0
  1 25  1  0  0  0
  1 30  2  0  0  0
  1 77  1  0  0  0
  2  3  1  0  0  0
  2 25  1  0  0  0
  2 88  1  0  0  0
  2 89  1  0  0  0
  3  4  1  0  0  0
  3 90  1  0  0  0
  3 91  1  0  0  0
  4  5  1  0  0  0
  4 92  1  0  0  0
  4 93  1  0  0  0
  5  6  1  0  0  0
  5 26  1  0  0  0
  5 94  1  0  0  0
  6 25  1  0  0  0
  6 95  1  0  0  0
  6 96  1  0  0  0
  7  8  2  0  0  0
  7 26  1  0  0  0
  7 29  1  0  0  0
  8  9  1  0  0  0
  8 22  1  0  0  0
  9 10  1  0  0  0
  9 27  2  0  0  0
 10 11  2  0  0  0
 10 15  1  0  0  0
 11 12  1  0  0  0
 11 97  1  0  0  0
 12 13  2  0  0  0
 12 98  1  0  0  0
 13 14  1  0  0  0
 13 31  1  0  0  0
 14 15  2  0  0  0
 14 99  1  0  0  0
 15100  1  0  0  0
 16 17  2  0  0  0
 16 21  1  0  0  0
 16 31  1  0  0  0
 17 18  1  0  0  0
 17101  1  0  0  0
 18 19  2  0  0  0
 18102  1  0  0  0
 19 20  1  0  0  0
 19 24  1  0  0  0
 20 21  2  0  0  0
 20103  1  0  0  0
 21 23  1  0  0  0
 22 28  1  0  0  0
 22 32  2  0  0  0
 26 27  1  0  0  0
 28104  1  0  0  0
 28105  1  0  0  0
 29106  1  0  0  0
 29107  1  0  0  0
 33 34  1  0  0  0
 33 66  1  0  0  0
 33 70  2  0  0  0
 34 36  1  0  0  0
 34 59  1  0  0  0
 34108  1  0  0  0
 35 44  2  0  0  0
 35 45  1  0  0  0
 35 68  1  0  0  0
 36 56  1  0  0  0
 36109  1  0  0  0
 37 39  1  0  0  0
 37 47  1  0  0  0
 37 66  1  0  0  0
 37110  1  0  0  0
 38 43  2  0  0  0
 38 46  1  0  0  0
 38 47  1  0  0  0
 39 64  1  0  0  0
 39 67  2  0  0  0
 40 52  1  0  0  0
 40 53  2  0  0  0
 40 58  1  0  0  0
 41111  1  0  0  0
 41112  1  0  0  0
 41113  1  0  0  0
 41 48  1  0  0  0
 42 43  1  0  0  0
 42 66  1  0  0  0
 42114  1  0  0  0
 42115  1  0  0  0
 43 44  1  0  0  0
 44116  1  0  0  0
 45 46  2  0  0  0
 45117  1  0  0  0
 46118  1  0  0  0
 47119  1  0  0  0
 47120  1  0  0  0
 48 56  1  0  0  0
 48 65  1  0  0  0
 48121  1  0  0  0
 49 50  1  0  0  0
 49 53  1  0  0  0
 49 64  1  0  0  0
 49122  1  0  0  0
 50 51  1  0  0  0
 50123  1  0  0  0
 50124  1  0  0  0
 51 52  1  0  0  0
 51125  1  0  0  0
 51126  1  0  0  0
 52127  1  0  0  0
 52128  1  0  0  0
 53 54  1  0  0  0
 54 55  2  0  0  0
 54129  1  0  0  0
 55 57  1  0  0  0
 55130  1  0  0  0
 56 69  2  0  0  0
 57 58  2  0  0  0
 57131  1  0  0  0
 58132  1  0  0  0
 59 60  1  0  0  0
 59 61  1  0  0  0
 59 62  1  0  0  0
 60133  1  0  0  0
 60134  1  0  0  0
 60135  1  0  0  0
 61136  1  0  0  0
 61137  1  0  0  0
 61138  1  0  0  0
 62139  1  0  0  0
 62140  1  0  0  0
 62141  1  0  0  0
 63 65  1  0  0  0
 63142  1  0  0  0
 63143  1  0  0  0
 63144  1  0  0  0
 64145  1  0  0  0
 65146  1  0  0  0
 68 84  1  0  0  0
 71 74  2  0  0  0
 71 75  1  0  0  0
 71147  1  0  0  0
 72 74  1  0  0  0
 72 76  2  0  0  0
 72148  1  0  0  0
 73 75  2  0  0  0
 73 76  1  0  0  0
 73149  1  0  0  0
 74 77  1  0  0  0
 75 83  1  0  0  0
 76 86  1  0  0  0
 77 85  2  0  0  0
 78 79  1  0  0  0
 78 80  1  0  0  0
 78150  1  0  0  0
 78151  1  0  0  0
 79 81  1  0  0  0
 79152  1  0  0  0
 79153  1  0  0  0
 80 82  1  0  0  0
 80154  1  0  0  0
 80155  1  0  0  0
 81 87  1  0  0  0
 81156  1  0  0  0
 81157  1  0  0  0
 82 84  1  0  0  0
 82 87  1  0  0  0
 82158  1  0  0  0
 83159  1  0  0  0
 83160  1  0  0  0
 83 87  1  0  0  0
 84161  1  0  0  0
 84162  1  0  0  0
 85163  1  0  0  0
 86164  1  0  0  0
 86165  1  0  0  0
 87166  1  0  0  0
M  CHG  1  87   1
M  ISO  4   1 100  68 101  77 100  84 101
M  END
> <chiral flag>
0

> <version>
0

> <s_m_source_file>
/data/baiqing/PycharmProjects/Reinvent-master-3.2/result/LINK_invent/BTK/process_docking_weight1_custom_product_contain_oxygen_bond_distance_aromatic_linkinvent_7_9_3/rearranged_h_0108.sdf

> <i_m_source_file_index>
27

> <r_mmod_Potential_Energy-OPLS-2005>
328.291656494141

> <r_mmod_Stretch_Energy-OPLS-2005>
162.913803100586

> <r_mmod_Bend_Energy-OPLS-2005>
234.819763183594

> <r_mmod_Torsional_Energy-OPLS-2005>
241.337585449219

> <r_mmod_Improper_Torsional_Energy-OPLS-2005>
6.36822414398193

> <r_mmod_Van_der_Waal_Energy-OPLS-2005>
159.788299560547

> <r_mmod_Electrostatic_Energy-OPLS-2005>
-141.897201538086

> <r_mmod_Solvation_Energy-OPLS-2005>
-427.521667480469

> <b_mmod_Minimization_Converged-OPLS-2005>
0

> <r_mmod_RMS_Derivative-OPLS-2005>
5.23973846435547

$$$$
28
                    3D
 Structure written by MMmdl.
165174  0  0  1  0            999 V2000
  -30.7268  -14.4682   20.6274 C   0  0  0  0  0  0
  -30.4185  -12.3259   19.4211 C   0  0  0  0  0  0
  -29.4926  -12.5300   18.2052 C   0  0  0  0  0  0
  -28.0145  -12.3869   18.6141 C   0  0  0  0  0  0
  -27.6615  -13.2158   19.8774 C   0  0  2  0  0  0
  -28.7012  -12.9950   20.9991 C   0  0  0  0  0  0
  -25.2572  -13.8173   20.5671 C   0  0  0  0  0  0
  -24.1834  -13.0440   20.9157 C   0  0  0  0  0  0
  -24.6410  -11.6913   20.8724 C   0  0  0  0  0  0
  -23.9086  -10.4284   21.0402 C   0  0  0  0  0  0
  -24.3630   -9.4195   21.9185 C   0  0  0  0  0  0
  -23.6293   -8.2240   22.0765 C   0  0  0  0  0  0
  -22.4275   -8.0281   21.3553 C   0  0  0  0  0  0
  -21.9917   -9.0256   20.4654 C   0  0  0  0  0  0
  -22.7260  -10.2128   20.3052 C   0  0  0  0  0  0
  -21.6853   -6.0732   22.5276 C   0  0  0  0  0  0
  -21.4016   -6.5640   23.8208 C   0  0  0  0  0  0
  -21.3658   -5.6797   24.9171 C   0  0  0  0  0  0
  -21.6042   -4.3058   24.7224 C   0  0  0  0  0  0
  -21.8820   -3.8146   23.4347 C   0  0  0  0  0  0
  -21.9191   -4.6959   22.3400 C   0  0  0  0  0  0
  -22.7852  -13.5226   21.1810 C   0  0  0  0  0  0
  -22.1661   -4.2147   21.0979 F   0  0  0  0  0  0
  -21.5625   -3.4542   25.7738 F   0  0  0  0  0  0
  -30.0364  -13.3012   20.4573 N   0  0  0  0  0  0
  -26.3023  -12.9365   20.3371 N   0  0  0  0  0  0
  -25.9341  -11.6516   20.5761 N   0  0  0  0  0  0
  -22.0502  -12.8221   22.0376 N   0  0  0  0  0  0
  -25.4262  -15.1897   20.4098 N   0  0  0  0  0  0
  -31.7803  -14.7048   20.0276 O   0  0  0  0  0  0
  -21.6641   -6.8879   21.4241 O   0  0  0  0  0  0
  -22.3533  -14.5527   20.6657 O   0  0  0  0  0  0
  -24.6143  -31.8669   23.2078 C   0  0  0  0  0  0
  -25.9031  -32.4827   23.8386 C   0  0  1  0  0  0
  -27.2306  -27.4183   20.1019 C   0  0  0  0  0  0
  -25.5899  -33.8627   24.2323 N   0  0  0  0  0  0
  -23.4040  -30.4905   21.5457 C   0  0  2  0  0  0
  -24.8542  -28.9564   20.1083 C   0  0  0  0  0  0
  -22.7412  -29.4658   22.4945 C   0  0  0  0  0  0
  -18.0280  -28.1375   22.8478 C   0  0  0  0  0  0
  -24.1486  -36.7312   23.2648 C   0  0  0  0  0  0
  -25.9341  -30.8296   21.3616 C   0  0  0  0  0  0
  -26.0142  -29.4617   20.7098 C   0  0  0  0  0  0
  -27.2098  -28.7010   20.7017 C   0  0  0  0  0  0
  -26.0562  -26.9340   19.4880 C   0  0  0  0  0  0
  -24.8714  -27.6937   19.4910 C   0  0  0  0  0  0
  -23.6138  -29.8218   20.1597 C   0  0  0  0  0  0
  -25.4109  -36.3115   24.0341 C   0  0  1  0  0  0
  -20.5874  -28.3664   23.1303 C   0  0  2  0  0  0
  -20.6768  -26.9395   22.5411 C   0  0  0  0  0  0
  -19.5755  -26.6372   21.5208 C   0  0  0  0  0  0
  -18.1930  -26.7915   22.1610 C   0  0  0  0  0  0
  -19.1529  -28.8834   23.2890 C   0  0  0  0  0  0
  -18.9463  -30.1438   23.8910 C   0  0  0  0  0  0
  -17.6469  -30.6581   24.0562 C   0  0  0  0  0  0
  -25.9036  -34.9483   23.5122 C   0  0  0  0  0  0
  -16.5358  -29.9083   23.6328 C   0  0  0  0  0  0
  -16.7270  -28.6502   23.0347 C   0  0  0  0  0  0
  -26.4458  -31.6616   25.0721 C   0  0  0  0  0  0
  -25.3734  -31.3700   26.1476 C   0  0  0  0  0  0
  -27.0294  -30.3072   24.6091 C   0  0  0  0  0  0
  -27.6039  -32.4326   25.7484 C   0  0  0  0  0  0
  -27.5578  -37.1814   24.8470 C   0  0  0  0  0  0
  -21.4131  -29.3038   22.3709 N   0  0  0  0  0  0
  -26.4292  -37.3804   23.9414 N   0  0  0  0  0  0
  -24.6687  -31.0770   22.0968 N   0  0  0  0  0  0
  -23.4184  -28.8183   23.2974 O   0  0  0  0  0  0
  -28.3627  -26.6279   20.0996 O   0  0  0  0  0  0
  -26.5595  -34.8934   22.4681 O   0  0  0  0  0  0
  -23.5328  -32.1420   23.7470 O   0  0  0  0  0  0
  -29.4116  -19.5125   23.5373 C   0  0  0  0  0  0
  -29.5079  -18.2319   22.9612 C   0  0  0  0  0  0
  -29.3619  -20.6621   22.7292 C   0  0  0  0  0  0
  -29.5540  -19.2542   20.7628 C   0  0  0  0  0  0
  -29.6165  -18.0715   21.5595 C   0  0  0  0  0  0
  -29.3950  -20.5599   21.3217 C   0  0  0  0  0  0
  -29.0033  -24.1890   20.5467 C   0  0  0  0  0  0
  -28.5946  -22.9224   20.8685 C   0  0  0  0  0  0
  -30.2240  -24.3252   19.7245 C   0  0  0  0  0  0
  -30.5653  -23.1352   18.8301 C   0  0  0  0  0  0
  -30.4249  -21.7914   19.5690 C   0  0  0  0  0  0
  -27.2890  -22.6936   21.6260 C   0  0  0  0  0  0
  -30.4456  -15.2650   22.8597 C   0  0  0  0  0  0
  -29.6775  -16.6950   20.8296 C   0  0  0  0  0  0
  -28.2996  -25.4962   21.0014 C   0  0  0  0  0  0
  -29.3062  -21.7411   20.5230 N   0  0  0  0  0  0
  -30.1585  -15.4063   21.4304 N   0  0  0  0  0  0
  -30.9548  -25.3207   19.7148 O   0  0  0  0  0  0
  -31.4643  -12.4190   19.1220 H   0  0  0  0  0  0
  -30.3148  -11.3123   19.8116 H   0  0  0  0  0  0
  -29.7348  -11.8117   17.4207 H   0  0  0  0  0  0
  -29.6603  -13.5193   17.7761 H   0  0  0  0  0  0
  -27.8197  -11.3296   18.7968 H   0  0  0  0  0  0
  -27.3667  -12.6761   17.7852 H   0  0  0  0  0  0
  -27.7046  -14.2667   19.5889 H   0  0  0  0  0  0
  -28.6753  -11.9602   21.3438 H   0  0  0  0  0  0
  -28.4452  -13.5976   21.8707 H   0  0  0  0  0  0
  -25.2779   -9.5665   22.4759 H   0  0  0  0  0  0
  -23.9991   -7.4638   22.7497 H   0  0  0  0  0  0
  -21.0844   -8.8786   19.8964 H   0  0  0  0  0  0
  -22.3732  -10.9665   19.6153 H   0  0  0  0  0  0
  -21.2018   -7.6151   23.9710 H   0  0  0  0  0  0
  -21.1477   -6.0529   25.9076 H   0  0  0  0  0  0
  -22.0601   -2.7608   23.2848 H   0  0  0  0  0  0
  -22.4128  -11.9884   22.4765 H   0  0  0  0  0  0
  -21.1121  -13.1241   22.2583 H   0  0  0  0  0  0
  -24.6617  -15.8458   20.5289 H   0  0  0  0  0  0
  -26.2840  -15.6325   20.1063 H   0  0  0  0  0  0
  -26.7104  -32.5548   23.1149 H   0  0  0  0  0  0
  -25.0104  -33.9789   25.0506 H   0  0  0  0  0  0
  -22.6934  -31.3077   21.4039 H   0  0  0  0  0  0
  -23.3756  -35.9645   23.3330 H   0  0  0  0  0  0
  -24.3579  -36.8902   22.2061 H   0  0  0  0  0  0
  -23.7223  -37.6516   23.6643 H   0  0  0  0  0  0
  -26.0459  -31.5936   20.5900 H   0  0  0  0  0  0
  -26.8206  -30.8844   21.9811 H   0  0  0  0  0  0
  -28.1048  -29.0836   21.1716 H   0  0  0  0  0  0
  -26.0598  -25.9647   19.0099 H   0  0  0  0  0  0
  -23.9811  -27.3036   19.0184 H   0  0  0  0  0  0
  -23.7120  -30.5949   19.3967 H   0  0  0  0  0  0
  -22.7385  -29.2367   19.8697 H   0  0  0  0  0  0
  -25.1277  -36.1998   25.0835 H   0  0  0  0  0  0
  -20.9977  -28.3236   24.1412 H   0  0  0  0  0  0
  -20.5668  -26.2266   23.3593 H   0  0  0  0  0  0
  -21.6635  -26.7423   22.1207 H   0  0  0  0  0  0
  -19.6914  -25.6284   21.1235 H   0  0  0  0  0  0
  -19.6707  -27.3185   20.6748 H   0  0  0  0  0  0
  -17.4195  -26.6673   21.4020 H   0  0  0  0  0  0
  -18.0333  -26.0050   22.9000 H   0  0  0  0  0  0
  -19.7947  -30.7236   24.2282 H   0  0  0  0  0  0
  -17.5040  -31.6274   24.5143 H   0  0  0  0  0  0
  -15.5366  -30.3002   23.7648 H   0  0  0  0  0  0
  -15.8670  -28.0838   22.7056 H   0  0  0  0  0  0
  -24.5934  -30.7009   25.7821 H   0  0  0  0  0  0
  -24.8888  -32.2832   26.4943 H   0  0  0  0  0  0
  -25.8103  -30.8873   27.0231 H   0  0  0  0  0  0
  -26.2832  -29.6849   24.1137 H   0  0  0  0  0  0
  -27.4065  -29.7299   25.4546 H   0  0  0  0  0  0
  -27.8661  -30.4411   23.9234 H   0  0  0  0  0  0
  -27.2686  -33.3644   26.2058 H   0  0  0  0  0  0
  -28.3857  -32.6864   25.0311 H   0  0  0  0  0  0
  -28.0699  -31.8447   26.5402 H   0  0  0  0  0  0
  -28.2601  -38.0112   24.7507 H   0  0  0  0  0  0
  -28.1048  -36.2625   24.6288 H   0  0  0  0  0  0
  -27.2279  -37.1468   25.8872 H   0  0  0  0  0  0
  -20.9280  -29.8788   21.6963 H   0  0  0  0  0  0
  -26.0185  -38.2882   24.1424 H   0  0  0  0  0  0
  -29.3529  -19.6149   24.6117 H   0  0  0  0  0  0
  -29.4690  -17.4012   23.6423 H   0  0  0  0  0  0
  -29.2823  -21.6286   23.2067 H   0  0  0  0  0  0
  -29.5824  -19.1445   19.6888 H   0  0  0  0  0  0
  -31.5697  -23.2432   18.4201 H   0  0  0  0  0  0
  -29.8755  -23.1566   17.9866 H   0  0  0  0  0  0
  -31.3554  -21.5773   20.0983 H   0  0  0  0  0  0
  -30.3076  -21.0076   18.8203 H   0  0  0  0  0  0
  -26.4642  -23.1905   21.1154 H   0  0  0  0  0  0
  -27.3532  -23.0968   22.6371 H   0  0  0  0  0  0
  -27.0046  -21.6442   21.6952 H   0  0  0  0  0  0
  -29.5217  -15.2877   23.4361 H   0  0  0  0  0  0
  -31.1314  -16.0396   23.2028 H   0  0  0  0  0  0
  -30.9218  -14.3100   23.0949 H   0  0  0  0  0  0
  -30.2365  -16.8682   19.9072 H   0  0  0  0  0  0
  -28.6567  -16.4982   20.5012 H   0  0  0  0  0  0
  -28.7828  -25.8068   21.9279 H   0  0  0  0  0  0
  -27.2663  -25.2839   21.2778 H   0  0  0  0  0  0
  1 25  1  0  0  0
  1 30  2  0  0  0
  1 87  1  0  0  0
  2  3  1  0  0  0
  2 25  1  0  0  0
  2 89  1  0  0  0
  2 90  1  0  0  0
  3  4  1  0  0  0
  3 91  1  0  0  0
  3 92  1  0  0  0
  4  5  1  0  0  0
  4 93  1  0  0  0
  4 94  1  0  0  0
  5  6  1  0  0  0
  5 26  1  0  0  0
  5 95  1  0  0  0
  6 25  1  0  0  0
  6 96  1  0  0  0
  6 97  1  0  0  0
  7  8  2  0  0  0
  7 26  1  0  0  0
  7 29  1  0  0  0
  8  9  1  0  0  0
  8 22  1  0  0  0
  9 10  1  0  0  0
  9 27  2  0  0  0
 10 11  2  0  0  0
 10 15  1  0  0  0
 11 12  1  0  0  0
 11 98  1  0  0  0
 12 13  2  0  0  0
 12 99  1  0  0  0
 13 14  1  0  0  0
 13 31  1  0  0  0
 14 15  2  0  0  0
 14100  1  0  0  0
 15101  1  0  0  0
 16 17  2  0  0  0
 16 21  1  0  0  0
 16 31  1  0  0  0
 17 18  1  0  0  0
 17102  1  0  0  0
 18 19  2  0  0  0
 18103  1  0  0  0
 19 20  1  0  0  0
 19 24  1  0  0  0
 20 21  2  0  0  0
 20104  1  0  0  0
 21 23  1  0  0  0
 22 28  1  0  0  0
 22 32  2  0  0  0
 26 27  1  0  0  0
 28105  1  0  0  0
 28106  1  0  0  0
 29107  1  0  0  0
 29108  1  0  0  0
 33 34  1  0  0  0
 33 66  1  0  0  0
 33 70  2  0  0  0
 34 36  1  0  0  0
 34 59  1  0  0  0
 34109  1  0  0  0
 35 44  2  0  0  0
 35 45  1  0  0  0
 35 68  1  0  0  0
 36 56  1  0  0  0
 36110  1  0  0  0
 37 39  1  0  0  0
 37 47  1  0  0  0
 37 66  1  0  0  0
 37111  1  0  0  0
 38 43  2  0  0  0
 38 46  1  0  0  0
 38 47  1  0  0  0
 39 64  1  0  0  0
 39 67  2  0  0  0
 40 52  1  0  0  0
 40 53  2  0  0  0
 40 58  1  0  0  0
 41112  1  0  0  0
 41113  1  0  0  0
 41114  1  0  0  0
 41 48  1  0  0  0
 42 43  1  0  0  0
 42 66  1  0  0  0
 42115  1  0  0  0
 42116  1  0  0  0
 43 44  1  0  0  0
 44117  1  0  0  0
 45 46  2  0  0  0
 45118  1  0  0  0
 46119  1  0  0  0
 47120  1  0  0  0
 47121  1  0  0  0
 48 56  1  0  0  0
 48 65  1  0  0  0
 48122  1  0  0  0
 49 50  1  0  0  0
 49 53  1  0  0  0
 49 64  1  0  0  0
 49123  1  0  0  0
 50 51  1  0  0  0
 50124  1  0  0  0
 50125  1  0  0  0
 51 52  1  0  0  0
 51126  1  0  0  0
 51127  1  0  0  0
 52128  1  0  0  0
 52129  1  0  0  0
 53 54  1  0  0  0
 54 55  2  0  0  0
 54130  1  0  0  0
 55 57  1  0  0  0
 55131  1  0  0  0
 56 69  2  0  0  0
 57 58  2  0  0  0
 57132  1  0  0  0
 58133  1  0  0  0
 59 60  1  0  0  0
 59 61  1  0  0  0
 59 62  1  0  0  0
 60134  1  0  0  0
 60135  1  0  0  0
 60136  1  0  0  0
 61137  1  0  0  0
 61138  1  0  0  0
 61139  1  0  0  0
 62140  1  0  0  0
 62141  1  0  0  0
 62142  1  0  0  0
 63 65  1  0  0  0
 63143  1  0  0  0
 63144  1  0  0  0
 63145  1  0  0  0
 64146  1  0  0  0
 65147  1  0  0  0
 68 85  1  0  0  0
 71 72  2  0  0  0
 71 73  1  0  0  0
 71148  1  0  0  0
 72 75  1  0  0  0
 72149  1  0  0  0
 73 76  2  0  0  0
 73150  1  0  0  0
 74 75  2  0  0  0
 74 76  1  0  0  0
 74151  1  0  0  0
 75 84  1  0  0  0
 76 86  1  0  0  0
 77 78  2  0  0  0
 77 79  1  0  0  0
 77 85  1  0  0  0
 78 82  1  0  0  0
 78 86  1  0  0  0
 79 80  1  0  0  0
 79 88  2  0  0  0
 80 81  1  0  0  0
 80152  1  0  0  0
 80153  1  0  0  0
 81 86  1  0  0  0
 81154  1  0  0  0
 81155  1  0  0  0
 82156  1  0  0  0
 82157  1  0  0  0
 82158  1  0  0  0
 83 87  1  0  0  0
 83159  1  0  0  0
 83160  1  0  0  0
 83161  1  0  0  0
 84 87  1  0  0  0
 84162  1  0  0  0
 84163  1  0  0  0
 85164  1  0  0  0
 85165  1  0  0  0
M  ISO  4   1 100  68 101  85 101  87 100
M  END
> <chiral flag>
0

> <version>
0

> <s_m_source_file>
/data/baiqing/PycharmProjects/Reinvent-master-3.2/result/LINK_invent/BTK/process_docking_weight1_custom_product_contain_oxygen_bond_distance_aromatic_linkinvent_7_9_3/rearranged_h_0108.sdf

> <i_m_source_file_index>
28

> <r_mmod_Potential_Energy-OPLS-2005>
165.38671875

> <r_mmod_Stretch_Energy-OPLS-2005>
57.9904441833496

> <r_mmod_Bend_Energy-OPLS-2005>
122.909278869629

> <r_mmod_Torsional_Energy-OPLS-2005>
297.618804931641

> <r_mmod_Improper_Torsional_Energy-OPLS-2005>
4.74395132064819

> <r_mmod_Van_der_Waal_Energy-OPLS-2005>
178.372299194336

> <r_mmod_Electrostatic_Energy-OPLS-2005>
-299.190032958984

> <r_mmod_Solvation_Energy-OPLS-2005>
-210.206527709961

> <b_mmod_Minimization_Converged-OPLS-2005>
0

> <r_mmod_RMS_Derivative-OPLS-2005>
1.98130190372467

$$$$
29
                    3D
 Structure written by MMmdl.
164172  0  0  1  0            999 V2000
  -30.7283  -14.5259   20.3917 C   0  0  0  0  0  0
  -30.4026  -12.3002   19.4281 C   0  0  0  0  0  0
  -29.4651  -12.4043   18.2074 C   0  0  0  0  0  0
  -27.9954  -12.2973   18.6431 C   0  0  0  0  0  0
  -27.6422  -13.2139   19.8459 C   0  0  2  0  0  0
  -28.7018  -13.1278   20.9661 C   0  0  0  0  0  0
  -25.2526  -13.8166   20.5759 C   0  0  0  0  0  0
  -24.1789  -13.0427   20.9210 C   0  0  0  0  0  0
  -24.6359  -11.6906   20.8773 C   0  0  0  0  0  0
  -23.9038  -10.4291   21.0417 C   0  0  0  0  0  0
  -24.3599   -9.4208   21.9192 C   0  0  0  0  0  0
  -23.6281   -8.2239   22.0757 C   0  0  0  0  0  0
  -22.4265   -8.0275   21.3545 C   0  0  0  0  0  0
  -21.9897   -9.0245   20.4645 C   0  0  0  0  0  0
  -22.7217  -10.2130   20.3057 C   0  0  0  0  0  0
  -21.6851   -6.0726   22.5277 C   0  0  0  0  0  0
  -21.4012   -6.5631   23.8210 C   0  0  0  0  0  0
  -21.3659   -5.6787   24.9173 C   0  0  0  0  0  0
  -21.6044   -4.3052   24.7223 C   0  0  0  0  0  0
  -21.8823   -3.8140   23.4347 C   0  0  0  0  0  0
  -21.9195   -4.6953   22.3402 C   0  0  0  0  0  0
  -22.7818  -13.5228   21.1865 C   0  0  0  0  0  0
  -22.1673   -4.2141   21.0981 F   0  0  0  0  0  0
  -21.5625   -3.4536   25.7738 F   0  0  0  0  0  0
  -30.0147  -13.3687   20.3577 N   0  0  0  0  0  0
  -26.2953  -12.9364   20.3380 N   0  0  0  0  0  0
  -25.9293  -11.6522   20.5855 N   0  0  0  0  0  0
  -22.0458  -12.8215   22.0414 N   0  0  0  0  0  0
  -25.4215  -15.1879   20.4258 N   0  0  0  0  0  0
  -31.9580  -14.5258   20.3310 O   0  0  0  0  0  0
  -21.6638   -6.8869   21.4237 O   0  0  0  0  0  0
  -22.3518  -14.5548   20.6727 O   0  0  0  0  0  0
  -24.6151  -31.8671   23.2097 C   0  0  0  0  0  0
  -25.9047  -32.4818   23.8393 C   0  0  1  0  0  0
  -27.2274  -27.4318   20.1040 C   0  0  0  0  0  0
  -25.5907  -33.8615   24.2326 N   0  0  0  0  0  0
  -23.4037  -30.4905   21.5494 C   0  0  2  0  0  0
  -24.8507  -28.9572   20.1114 C   0  0  0  0  0  0
  -22.7413  -29.4656   22.4978 C   0  0  0  0  0  0
  -18.0276  -28.1380   22.8493 C   0  0  0  0  0  0
  -24.1487  -36.7303   23.2642 C   0  0  0  0  0  0
  -25.9327  -30.8329   21.3634 C   0  0  0  0  0  0
  -26.0107  -29.4687   20.7082 C   0  0  0  0  0  0
  -27.2064  -28.7140   20.6986 C   0  0  0  0  0  0
  -26.0567  -26.9344   19.4976 C   0  0  0  0  0  0
  -24.8688  -27.6903   19.5010 C   0  0  0  0  0  0
  -23.6123  -29.8233   20.1633 C   0  0  0  0  0  0
  -25.4112  -36.3104   24.0338 C   0  0  1  0  0  0
  -20.5866  -28.3671   23.1312 C   0  0  2  0  0  0
  -20.6762  -26.9405   22.5420 C   0  0  0  0  0  0
  -19.5745  -26.6385   21.5214 C   0  0  0  0  0  0
  -18.1919  -26.7933   22.1615 C   0  0  0  0  0  0
  -19.1524  -28.8842   23.2900 C   0  0  0  0  0  0
  -18.9451  -30.1446   23.8909 C   0  0  0  0  0  0
  -17.6455  -30.6587   24.0570 C   0  0  0  0  0  0
  -25.9038  -34.9471   23.5126 C   0  0  0  0  0  0
  -16.5348  -29.9087   23.6335 C   0  0  0  0  0  0
  -16.7265  -28.6504   23.0356 C   0  0  0  0  0  0
  -26.4479  -31.6597   25.0719 C   0  0  0  0  0  0
  -25.3747  -31.3683   26.1464 C   0  0  0  0  0  0
  -27.0318  -30.3044   24.6094 C   0  0  0  0  0  0
  -27.6054  -32.4320   25.7482 C   0  0  0  0  0  0
  -27.5585  -37.1802   24.8466 C   0  0  0  0  0  0
  -21.4142  -29.3030   22.3713 N   0  0  0  0  0  0
  -26.4295  -37.3789   23.9413 N   0  0  0  0  0  0
  -24.6685  -31.0781   22.0991 N   0  0  0  0  0  0
  -23.4182  -28.8207   23.3033 O   0  0  0  0  0  0
  -28.3588  -26.6491   20.1354 O   0  0  0  0  0  0
  -26.5597  -34.8922   22.4685 O   0  0  0  0  0  0
  -23.5344  -32.1425   23.7494 O   0  0  0  0  0  0
  -28.2580  -17.1854   20.2125 C   0  0  0  0  0  0
  -29.7693  -18.7422   21.9706 C   0  0  0  0  0  0
  -27.7805  -18.4534   20.6101 C   0  0  0  0  0  0
  -30.2578  -17.4732   21.5749 C   0  0  0  0  0  0
  -29.5164  -16.6929   20.6383 C   0  0  0  0  0  0
  -28.5695  -19.2692   21.4511 C   0  0  0  0  0  0
  -31.1186  -15.4417   17.6004 C   0  0  0  0  0  0
  -30.4039  -16.0628   18.5605 C   0  0  0  0  0  0
  -26.4422  -18.9421   20.0889 C   0  0  0  0  0  0
  -31.6193  -17.0527   22.1043 C   0  0  0  0  0  0
  -28.4361  -24.1486   20.3810 C   0  0  0  0  0  0
  -28.2196  -22.9707   21.3725 C   0  0  0  0  0  0
  -28.2628  -25.5376   21.0468 C   0  0  0  0  0  0
  -28.5079  -21.5565   20.8094 C   0  0  0  0  0  0
  -30.0823  -15.6124   19.8723 N   0  0  0  0  0  0
  -28.1900  -20.5527   21.7849 O   0  0  0  0  0  0
  -31.4444  -12.3779   19.1106 H   0  0  0  0  0  0
  -30.3038  -11.3263   19.9103 H   0  0  0  0  0  0
  -29.6971  -11.6146   17.4913 H   0  0  0  0  0  0
  -29.6005  -13.3400   17.6743 H   0  0  0  0  0  0
  -27.8195  -11.2550   18.9102 H   0  0  0  0  0  0
  -27.3349  -12.5060   17.8005 H   0  0  0  0  0  0
  -27.6454  -14.2333   19.4629 H   0  0  0  0  0  0
  -28.6869  -12.1495   21.4481 H   0  0  0  0  0  0
  -28.4980  -13.8660   21.7441 H   0  0  0  0  0  0
  -25.2743   -9.5688   22.4771 H   0  0  0  0  0  0
  -23.9993   -7.4632   22.7471 H   0  0  0  0  0  0
  -21.0831   -8.8756   19.8949 H   0  0  0  0  0  0
  -22.3674  -10.9669   19.6166 H   0  0  0  0  0  0
  -21.2011   -7.6139   23.9707 H   0  0  0  0  0  0
  -21.1476   -6.0521   25.9076 H   0  0  0  0  0  0
  -22.0599   -2.7598   23.2850 H   0  0  0  0  0  0
  -22.4072  -11.9876   22.4809 H   0  0  0  0  0  0
  -21.1077  -13.1246   22.2625 H   0  0  0  0  0  0
  -24.6624  -15.8429   20.5737 H   0  0  0  0  0  0
  -26.3065  -15.6360   20.2336 H   0  0  0  0  0  0
  -26.7120  -32.5526   23.1159 H   0  0  0  0  0  0
  -25.0089  -33.9781   25.0490 H   0  0  0  0  0  0
  -22.6929  -31.3073   21.4102 H   0  0  0  0  0  0
  -23.3752  -35.9633   23.3311 H   0  0  0  0  0  0
  -24.3577  -36.8914   22.2054 H   0  0  0  0  0  0
  -23.7234  -37.6508   23.6653 H   0  0  0  0  0  0
  -26.0493  -31.6010   20.5975 H   0  0  0  0  0  0
  -26.8186  -30.8825   21.9848 H   0  0  0  0  0  0
  -28.1013  -29.0985   21.1676 H   0  0  0  0  0  0
  -26.0620  -25.9572   19.0350 H   0  0  0  0  0  0
  -23.9769  -27.2916   19.0377 H   0  0  0  0  0  0
  -23.7192  -30.5984   19.4035 H   0  0  0  0  0  0
  -22.7359  -29.2428   19.8688 H   0  0  0  0  0  0
  -25.1287  -36.1971   25.0833 H   0  0  0  0  0  0
  -20.9963  -28.3242   24.1433 H   0  0  0  0  0  0
  -20.5674  -26.2276   23.3608 H   0  0  0  0  0  0
  -21.6633  -26.7446   22.1214 H   0  0  0  0  0  0
  -19.6908  -25.6297   21.1238 H   0  0  0  0  0  0
  -19.6694  -27.3201   20.6751 H   0  0  0  0  0  0
  -17.4199  -26.6706   21.4001 H   0  0  0  0  0  0
  -18.0299  -26.0061   22.8995 H   0  0  0  0  0  0
  -19.7925  -30.7264   24.2282 H   0  0  0  0  0  0
  -17.5008  -31.6269   24.5169 H   0  0  0  0  0  0
  -15.5349  -30.2995   23.7651 H   0  0  0  0  0  0
  -15.8662  -28.0829   22.7067 H   0  0  0  0  0  0
  -24.5959  -30.6984   25.7803 H   0  0  0  0  0  0
  -24.8887  -32.2820   26.4892 H   0  0  0  0  0  0
  -25.8113  -30.8885   27.0232 H   0  0  0  0  0  0
  -26.2854  -29.6790   24.1181 H   0  0  0  0  0  0
  -27.4132  -29.7296   25.4545 H   0  0  0  0  0  0
  -27.8670  -30.4374   23.9212 H   0  0  0  0  0  0
  -27.2677  -33.3616   26.2078 H   0  0  0  0  0  0
  -28.3849  -32.6891   25.0297 H   0  0  0  0  0  0
  -28.0739  -31.8434   26.5380 H   0  0  0  0  0  0
  -28.2602  -38.0100   24.7528 H   0  0  0  0  0  0
  -28.1081  -36.2633   24.6276 H   0  0  0  0  0  0
  -27.2302  -37.1439   25.8868 H   0  0  0  0  0  0
  -20.9306  -29.8740   21.6923 H   0  0  0  0  0  0
  -26.0184  -38.2868   24.1426 H   0  0  0  0  0  0
  -27.6943  -16.6260   19.4800 H   0  0  0  0  0  0
  -30.3529  -19.3563   22.6422 H   0  0  0  0  0  0
  -31.2722  -15.9200   16.6435 H   0  0  0  0  0  0
  -31.5647  -14.4666   17.7308 H   0  0  0  0  0  0
  -30.0132  -17.0451   18.3306 H   0  0  0  0  0  0
  -25.8029  -18.1078   19.8001 H   0  0  0  0  0  0
  -26.5814  -19.5766   19.2142 H   0  0  0  0  0  0
  -25.9143  -19.5145   20.8528 H   0  0  0  0  0  0
  -32.0253  -17.7886   22.7991 H   0  0  0  0  0  0
  -32.3339  -16.9487   21.2883 H   0  0  0  0  0  0
  -31.5518  -16.1074   22.6427 H   0  0  0  0  0  0
  -27.7342  -24.0531   19.5516 H   0  0  0  0  0  0
  -29.4345  -24.0853   19.9472 H   0  0  0  0  0  0
  -27.1889  -22.9999   21.7278 H   0  0  0  0  0  0
  -28.8450  -23.1256   22.2523 H   0  0  0  0  0  0
  -29.0385  -25.6695   21.8019 H   0  0  0  0  0  0
  -27.3195  -25.5528   21.5980 H   0  0  0  0  0  0
  -29.5592  -21.4795   20.5258 H   0  0  0  0  0  0
  -27.9222  -21.3926   19.9050 H   0  0  0  0  0  0
  1 25  1  0  0  0
  1 30  2  0  0  0
  1 85  1  0  0  0
  2  3  1  0  0  0
  2 25  1  0  0  0
  2 87  1  0  0  0
  2 88  1  0  0  0
  3  4  1  0  0  0
  3 89  1  0  0  0
  3 90  1  0  0  0
  4  5  1  0  0  0
  4 91  1  0  0  0
  4 92  1  0  0  0
  5  6  1  0  0  0
  5 26  1  0  0  0
  5 93  1  0  0  0
  6 25  1  0  0  0
  6 94  1  0  0  0
  6 95  1  0  0  0
  7  8  2  0  0  0
  7 26  1  0  0  0
  7 29  1  0  0  0
  8  9  1  0  0  0
  8 22  1  0  0  0
  9 10  1  0  0  0
  9 27  2  0  0  0
 10 11  2  0  0  0
 10 15  1  0  0  0
 11 12  1  0  0  0
 11 96  1  0  0  0
 12 13  2  0  0  0
 12 97  1  0  0  0
 13 14  1  0  0  0
 13 31  1  0  0  0
 14 15  2  0  0  0
 14 98  1  0  0  0
 15 99  1  0  0  0
 16 17  2  0  0  0
 16 21  1  0  0  0
 16 31  1  0  0  0
 17 18  1  0  0  0
 17100  1  0  0  0
 18 19  2  0  0  0
 18101  1  0  0  0
 19 20  1  0  0  0
 19 24  1  0  0  0
 20 21  2  0  0  0
 20102  1  0  0  0
 21 23  1  0  0  0
 22 28  1  0  0  0
 22 32  2  0  0  0
 26 27  1  0  0  0
 28103  1  0  0  0
 28104  1  0  0  0
 29105  1  0  0  0
 29106  1  0  0  0
 33 34  1  0  0  0
 33 66  1  0  0  0
 33 70  2  0  0  0
 34 36  1  0  0  0
 34 59  1  0  0  0
 34107  1  0  0  0
 35 44  2  0  0  0
 35 45  1  0  0  0
 35 68  1  0  0  0
 36 56  1  0  0  0
 36108  1  0  0  0
 37 39  1  0  0  0
 37 47  1  0  0  0
 37 66  1  0  0  0
 37109  1  0  0  0
 38 43  2  0  0  0
 38 46  1  0  0  0
 38 47  1  0  0  0
 39 64  1  0  0  0
 39 67  2  0  0  0
 40 52  1  0  0  0
 40 53  2  0  0  0
 40 58  1  0  0  0
 41110  1  0  0  0
 41111  1  0  0  0
 41112  1  0  0  0
 41 48  1  0  0  0
 42 43  1  0  0  0
 42 66  1  0  0  0
 42113  1  0  0  0
 42114  1  0  0  0
 43 44  1  0  0  0
 44115  1  0  0  0
 45 46  2  0  0  0
 45116  1  0  0  0
 46117  1  0  0  0
 47118  1  0  0  0
 47119  1  0  0  0
 48 56  1  0  0  0
 48 65  1  0  0  0
 48120  1  0  0  0
 49 50  1  0  0  0
 49 53  1  0  0  0
 49 64  1  0  0  0
 49121  1  0  0  0
 50 51  1  0  0  0
 50122  1  0  0  0
 50123  1  0  0  0
 51 52  1  0  0  0
 51124  1  0  0  0
 51125  1  0  0  0
 52126  1  0  0  0
 52127  1  0  0  0
 53 54  1  0  0  0
 54 55  2  0  0  0
 54128  1  0  0  0
 55 57  1  0  0  0
 55129  1  0  0  0
 56 69  2  0  0  0
 57 58  2  0  0  0
 57130  1  0  0  0
 58131  1  0  0  0
 59 60  1  0  0  0
 59 61  1  0  0  0
 59 62  1  0  0  0
 60132  1  0  0  0
 60133  1  0  0  0
 60134  1  0  0  0
 61135  1  0  0  0
 61136  1  0  0  0
 61137  1  0  0  0
 62138  1  0  0  0
 62139  1  0  0  0
 62140  1  0  0  0
 63 65  1  0  0  0
 63141  1  0  0  0
 63142  1  0  0  0
 63143  1  0  0  0
 64144  1  0  0  0
 65145  1  0  0  0
 68 83  1  0  0  0
 71 73  2  0  0  0
 71 75  1  0  0  0
 71146  1  0  0  0
 72 74  1  0  0  0
 72 76  2  0  0  0
 72147  1  0  0  0
 73 76  1  0  0  0
 73 79  1  0  0  0
 74 75  2  0  0  0
 74 80  1  0  0  0
 75 85  1  0  0  0
 76 86  1  0  0  0
 77 78  2  0  0  0
 77148  1  0  0  0
 77149  1  0  0  0
 78 85  1  0  0  0
 78150  1  0  0  0
 79151  1  0  0  0
 79152  1  0  0  0
 79153  1  0  0  0
 80154  1  0  0  0
 80155  1  0  0  0
 80156  1  0  0  0
 81 82  1  0  0  0
 81 83  1  0  0  0
 81157  1  0  0  0
 81158  1  0  0  0
 82 84  1  0  0  0
 82159  1  0  0  0
 82160  1  0  0  0
 83161  1  0  0  0
 83162  1  0  0  0
 84 86  1  0  0  0
 84163  1  0  0  0
 84164  1  0  0  0
M  ISO  4   1 100  68 101  83 101  85 100
M  END
> <chiral flag>
0

> <version>
0

> <s_m_source_file>
/data/baiqing/PycharmProjects/Reinvent-master-3.2/result/LINK_invent/BTK/process_docking_weight1_custom_product_contain_oxygen_bond_distance_aromatic_linkinvent_7_9_3/rearranged_h_0108.sdf

> <i_m_source_file_index>
29

> <r_mmod_Potential_Energy-OPLS-2005>
242.613616943359

> <r_mmod_Stretch_Energy-OPLS-2005>
42.9591255187988

> <r_mmod_Bend_Energy-OPLS-2005>
109.75390625

> <r_mmod_Torsional_Energy-OPLS-2005>
377.963836669922

> <r_mmod_Improper_Torsional_Energy-OPLS-2005>
25.659517288208

> <r_mmod_Van_der_Waal_Energy-OPLS-2005>
150.194030761719

> <r_mmod_Electrostatic_Energy-OPLS-2005>
-322.139953613281

> <r_mmod_Solvation_Energy-OPLS-2005>
-184.782287597656

> <b_mmod_Minimization_Converged-OPLS-2005>
0

> <r_mmod_RMS_Derivative-OPLS-2005>
0.990114569664001

$$$$
30
                    3D
 Structure written by MMmdl.
156164  0  0  1  0            999 V2000
  -30.7044  -14.4820   20.5523 C   0  0  0  0  0  0
  -30.4154  -12.3083   19.4307 C   0  0  0  0  0  0
  -29.4919  -12.4981   18.2103 C   0  0  0  0  0  0
  -28.0136  -12.3599   18.6233 C   0  0  0  0  0  0
  -27.6576  -13.2102   19.8724 C   0  0  2  0  0  0
  -28.6991  -13.0157   20.9976 C   0  0  0  0  0  0
  -25.2571  -13.8177   20.5688 C   0  0  0  0  0  0
  -24.1828  -13.0446   20.9187 C   0  0  0  0  0  0
  -24.6388  -11.6914   20.8745 C   0  0  0  0  0  0
  -23.9059  -10.4297   21.0419 C   0  0  0  0  0  0
  -24.3612   -9.4209   21.9194 C   0  0  0  0  0  0
  -23.6290   -8.2245   22.0760 C   0  0  0  0  0  0
  -22.4273   -8.0283   21.3547 C   0  0  0  0  0  0
  -21.9908   -9.0257   20.4650 C   0  0  0  0  0  0
  -22.7236  -10.2139   20.3062 C   0  0  0  0  0  0
  -21.6849   -6.0740   22.5281 C   0  0  0  0  0  0
  -21.4012   -6.5642   23.8213 C   0  0  0  0  0  0
  -21.3654   -5.6793   24.9174 C   0  0  0  0  0  0
  -21.6045   -4.3057   24.7227 C   0  0  0  0  0  0
  -21.8815   -3.8149   23.4345 C   0  0  0  0  0  0
  -21.9190   -4.6968   22.3404 C   0  0  0  0  0  0
  -22.7850  -13.5243   21.1847 C   0  0  0  0  0  0
  -22.1658   -4.2157   21.0981 F   0  0  0  0  0  0
  -21.5628   -3.4538   25.7737 F   0  0  0  0  0  0
  -30.0269  -13.3083   20.4377 N   0  0  0  0  0  0
  -26.3004  -12.9350   20.3360 N   0  0  0  0  0  0
  -25.9316  -11.6507   20.5781 N   0  0  0  0  0  0
  -22.0483  -12.8237   22.0400 N   0  0  0  0  0  0
  -25.4298  -15.1893   20.4091 N   0  0  0  0  0  0
  -31.8470  -14.6345   20.1122 O   0  0  0  0  0  0
  -21.6634   -6.8882   21.4244 O   0  0  0  0  0  0
  -22.3536  -14.5554   20.6703 O   0  0  0  0  0  0
  -24.6149  -31.8676   23.2098 C   0  0  0  0  0  0
  -25.9042  -32.4816   23.8396 C   0  0  1  0  0  0
  -27.2311  -27.4320   20.1022 C   0  0  0  0  0  0
  -25.5901  -33.8616   24.2327 N   0  0  0  0  0  0
  -23.4037  -30.4899   21.5502 C   0  0  2  0  0  0
  -24.8511  -28.9553   20.1146 C   0  0  0  0  0  0
  -22.7414  -29.4654   22.4998 C   0  0  0  0  0  0
  -18.0271  -28.1377   22.8491 C   0  0  0  0  0  0
  -24.1481  -36.7298   23.2634 C   0  0  0  0  0  0
  -25.9324  -30.8330   21.3633 C   0  0  0  0  0  0
  -26.0112  -29.4677   20.7099 C   0  0  0  0  0  0
  -27.2085  -28.7141   20.6977 C   0  0  0  0  0  0
  -26.0582  -26.9325   19.5014 C   0  0  0  0  0  0
  -24.8693  -27.6875   19.5067 C   0  0  0  0  0  0
  -23.6117  -29.8211   20.1652 C   0  0  0  0  0  0
  -25.4104  -36.3105   24.0339 C   0  0  1  0  0  0
  -20.5864  -28.3662   23.1323 C   0  0  2  0  0  0
  -20.6763  -26.9395   22.5433 C   0  0  0  0  0  0
  -19.5752  -26.6382   21.5215 C   0  0  0  0  0  0
  -18.1918  -26.7930   22.1606 C   0  0  0  0  0  0
  -19.1521  -28.8836   23.2903 C   0  0  0  0  0  0
  -18.9450  -30.1440   23.8920 C   0  0  0  0  0  0
  -17.6453  -30.6583   24.0572 C   0  0  0  0  0  0
  -25.9042  -34.9473   23.5134 C   0  0  0  0  0  0
  -16.5345  -29.9087   23.6328 C   0  0  0  0  0  0
  -16.7260  -28.6504   23.0354 C   0  0  0  0  0  0
  -26.4469  -31.6594   25.0725 C   0  0  0  0  0  0
  -25.3726  -31.3698   26.1467 C   0  0  0  0  0  0
  -27.0288  -30.3035   24.6093 C   0  0  0  0  0  0
  -27.6060  -32.4301   25.7479 C   0  0  0  0  0  0
  -27.5593  -37.1780   24.8449 C   0  0  0  0  0  0
  -21.4146  -29.3026   22.3730 N   0  0  0  0  0  0
  -26.4277  -37.3805   23.9440 N   0  0  0  0  0  0
  -24.6683  -31.0778   22.0995 N   0  0  0  0  0  0
  -23.4187  -28.8199   23.3041 O   0  0  0  0  0  0
  -28.3710  -26.6615   20.1067 O   0  0  0  0  0  0
  -26.5602  -34.8923   22.4692 O   0  0  0  0  0  0
  -23.5340  -32.1426   23.7499 O   0  0  0  0  0  0
  -29.5841  -19.2978   20.7413 C   0  0  0  0  0  0
  -28.2411  -20.2431   22.4981 C   0  0  0  0  0  0
  -29.6363  -18.0791   21.4685 C   0  0  0  0  0  0
  -28.8908  -20.4223   21.2553 C   0  0  0  0  0  0
  -28.9735  -18.0445   22.7186 C   0  0  0  0  0  0
  -28.5928  -24.1811   20.3221 C   0  0  0  0  0  0
  -29.0229  -16.8384   23.6394 C   0  0  0  0  0  0
  -30.5102  -16.9250   20.9312 C   0  0  0  0  0  0
  -28.4560  -22.9073   21.1955 C   0  0  0  0  0  0
  -28.2979  -25.5363   21.0072 C   0  0  0  0  0  0
  -28.2786  -19.0945   23.2056 N   0  0  0  0  0  0
  -28.8750  -21.6488   20.5455 N   0  0  0  0  0  0
  -30.0015  -15.5411   21.0063 N   0  0  0  0  0  0
  -28.9331  -24.1044   19.1349 O   0  0  0  0  0  0
  -31.4617  -12.3951   19.1318 H   0  0  0  0  0  0
  -30.3072  -11.3031   19.8406 H   0  0  0  0  0  0
  -29.7325  -11.7677   17.4368 H   0  0  0  0  0  0
  -29.6590  -13.4807   17.7661 H   0  0  0  0  0  0
  -27.8268  -11.3052   18.8285 H   0  0  0  0  0  0
  -27.3623  -12.6249   17.7897 H   0  0  0  0  0  0
  -27.6949  -14.2542   19.5613 H   0  0  0  0  0  0
  -28.6749  -11.9887   21.3652 H   0  0  0  0  0  0
  -28.4674  -13.6426   21.8599 H   0  0  0  0  0  0
  -25.2757   -9.5688   22.4767 H   0  0  0  0  0  0
  -23.9999   -7.4637   22.7481 H   0  0  0  0  0  0
  -21.0840   -8.8781   19.8955 H   0  0  0  0  0  0
  -22.3700  -10.9682   19.6171 H   0  0  0  0  0  0
  -21.2000   -7.6145   23.9722 H   0  0  0  0  0  0
  -21.1477   -6.0520   25.9077 H   0  0  0  0  0  0
  -22.0596   -2.7613   23.2842 H   0  0  0  0  0  0
  -22.4085  -11.9883   22.4774 H   0  0  0  0  0  0
  -21.1107  -13.1279   22.2615 H   0  0  0  0  0  0
  -24.6628  -15.8446   20.5143 H   0  0  0  0  0  0
  -26.2787  -15.6269   20.0745 H   0  0  0  0  0  0
  -26.7115  -32.5534   23.1166 H   0  0  0  0  0  0
  -25.0076  -33.9774   25.0489 H   0  0  0  0  0  0
  -22.6925  -31.3066   21.4104 H   0  0  0  0  0  0
  -23.3763  -35.9606   23.3263 H   0  0  0  0  0  0
  -24.3587  -36.8950   22.2055 H   0  0  0  0  0  0
  -23.7194  -37.6475   23.6672 H   0  0  0  0  0  0
  -26.0450  -31.5994   20.5956 H   0  0  0  0  0  0
  -26.8194  -30.8856   21.9829 H   0  0  0  0  0  0
  -28.1056  -29.1030   21.1593 H   0  0  0  0  0  0
  -26.0635  -25.9575   19.0348 H   0  0  0  0  0  0
  -23.9770  -27.2881   19.0445 H   0  0  0  0  0  0
  -23.7172  -30.5957   19.4048 H   0  0  0  0  0  0
  -22.7357  -29.2397   19.8714 H   0  0  0  0  0  0
  -25.1267  -36.1963   25.0828 H   0  0  0  0  0  0
  -20.9948  -28.3235   24.1448 H   0  0  0  0  0  0
  -20.5659  -26.2275   23.3624 H   0  0  0  0  0  0
  -21.6636  -26.7428   22.1240 H   0  0  0  0  0  0
  -19.6924  -25.6298   21.1234 H   0  0  0  0  0  0
  -19.6711  -27.3208   20.6762 H   0  0  0  0  0  0
  -17.4206  -26.6709   21.3983 H   0  0  0  0  0  0
  -18.0285  -26.0050   22.8969 H   0  0  0  0  0  0
  -19.7928  -30.7245   24.2309 H   0  0  0  0  0  0
  -17.5009  -31.6263   24.5169 H   0  0  0  0  0  0
  -15.5352  -30.2999   23.7646 H   0  0  0  0  0  0
  -15.8658  -28.0831   22.7068 H   0  0  0  0  0  0
  -24.5998  -30.6909   25.7838 H   0  0  0  0  0  0
  -24.8783  -32.2826   26.4799 H   0  0  0  0  0  0
  -25.8092  -30.9011   27.0294 H   0  0  0  0  0  0
  -26.2822  -29.6811   24.1142 H   0  0  0  0  0  0
  -27.4049  -29.7260   25.4549 H   0  0  0  0  0  0
  -27.8665  -30.4348   23.9239 H   0  0  0  0  0  0
  -27.2709  -33.3616   26.2049 H   0  0  0  0  0  0
  -28.3876  -32.6824   25.0300 H   0  0  0  0  0  0
  -28.0712  -31.8414   26.5395 H   0  0  0  0  0  0
  -28.2562  -38.0127   24.7587 H   0  0  0  0  0  0
  -28.1136  -36.2669   24.6145 H   0  0  0  0  0  0
  -27.2329  -37.1273   25.8849 H   0  0  0  0  0  0
  -20.9314  -29.8733   21.6935 H   0  0  0  0  0  0
  -26.0162  -38.2866   24.1514 H   0  0  0  0  0  0
  -30.1061  -19.3809   19.7986 H   0  0  0  0  0  0
  -27.6811  -21.0442   22.9573 H   0  0  0  0  0  0
  -30.0115  -16.3801   23.6386 H   0  0  0  0  0  0
  -28.2896  -16.0931   23.3325 H   0  0  0  0  0  0
  -28.8018  -17.1194   24.6696 H   0  0  0  0  0  0
  -31.4626  -16.9705   21.4627 H   0  0  0  0  0  0
  -30.7466  -17.1321   19.8852 H   0  0  0  0  0  0
  -27.4098  -22.8310   21.4962 H   0  0  0  0  0  0
  -29.0373  -23.0629   22.1059 H   0  0  0  0  0  0
  -29.0344  -25.6853   21.7967 H   0  0  0  0  0  0
  -27.3251  -25.4767   21.4975 H   0  0  0  0  0  0
  -29.4229  -21.7534   19.6929 H   0  0  0  0  0  0
  -29.0478  -15.3830   21.2899 H   0  0  0  0  0  0
  1 25  1  0  0  0
  1 30  2  0  0  0
  1 83  1  0  0  0
  2  3  1  0  0  0
  2 25  1  0  0  0
  2 85  1  0  0  0
  2 86  1  0  0  0
  3  4  1  0  0  0
  3 87  1  0  0  0
  3 88  1  0  0  0
  4  5  1  0  0  0
  4 89  1  0  0  0
  4 90  1  0  0  0
  5  6  1  0  0  0
  5 26  1  0  0  0
  5 91  1  0  0  0
  6 25  1  0  0  0
  6 92  1  0  0  0
  6 93  1  0  0  0
  7  8  2  0  0  0
  7 26  1  0  0  0
  7 29  1  0  0  0
  8  9  1  0  0  0
  8 22  1  0  0  0
  9 10  1  0  0  0
  9 27  2  0  0  0
 10 11  2  0  0  0
 10 15  1  0  0  0
 11 12  1  0  0  0
 11 94  1  0  0  0
 12 13  2  0  0  0
 12 95  1  0  0  0
 13 14  1  0  0  0
 13 31  1  0  0  0
 14 15  2  0  0  0
 14 96  1  0  0  0
 15 97  1  0  0  0
 16 17  2  0  0  0
 16 21  1  0  0  0
 16 31  1  0  0  0
 17 18  1  0  0  0
 17 98  1  0  0  0
 18 19  2  0  0  0
 18 99  1  0  0  0
 19 20  1  0  0  0
 19 24  1  0  0  0
 20 21  2  0  0  0
 20100  1  0  0  0
 21 23  1  0  0  0
 22 28  1  0  0  0
 22 32  2  0  0  0
 26 27  1  0  0  0
 28101  1  0  0  0
 28102  1  0  0  0
 29103  1  0  0  0
 29104  1  0  0  0
 33 34  1  0  0  0
 33 66  1  0  0  0
 33 70  2  0  0  0
 34 36  1  0  0  0
 34 59  1  0  0  0
 34105  1  0  0  0
 35 44  2  0  0  0
 35 45  1  0  0  0
 35 68  1  0  0  0
 36 56  1  0  0  0
 36106  1  0  0  0
 37 39  1  0  0  0
 37 47  1  0  0  0
 37 66  1  0  0  0
 37107  1  0  0  0
 38 43  2  0  0  0
 38 46  1  0  0  0
 38 47  1  0  0  0
 39 64  1  0  0  0
 39 67  2  0  0  0
 40 52  1  0  0  0
 40 53  2  0  0  0
 40 58  1  0  0  0
 41108  1  0  0  0
 41109  1  0  0  0
 41110  1  0  0  0
 41 48  1  0  0  0
 42 43  1  0  0  0
 42 66  1  0  0  0
 42111  1  0  0  0
 42112  1  0  0  0
 43 44  1  0  0  0
 44113  1  0  0  0
 45 46  2  0  0  0
 45114  1  0  0  0
 46115  1  0  0  0
 47116  1  0  0  0
 47117  1  0  0  0
 48 56  1  0  0  0
 48 65  1  0  0  0
 48118  1  0  0  0
 49 50  1  0  0  0
 49 53  1  0  0  0
 49 64  1  0  0  0
 49119  1  0  0  0
 50 51  1  0  0  0
 50120  1  0  0  0
 50121  1  0  0  0
 51 52  1  0  0  0
 51122  1  0  0  0
 51123  1  0  0  0
 52124  1  0  0  0
 52125  1  0  0  0
 53 54  1  0  0  0
 54 55  2  0  0  0
 54126  1  0  0  0
 55 57  1  0  0  0
 55127  1  0  0  0
 56 69  2  0  0  0
 57 58  2  0  0  0
 57128  1  0  0  0
 58129  1  0  0  0
 59 60  1  0  0  0
 59 61  1  0  0  0
 59 62  1  0  0  0
 60130  1  0  0  0
 60131  1  0  0  0
 60132  1  0  0  0
 61133  1  0  0  0
 61134  1  0  0  0
 61135  1  0  0  0
 62136  1  0  0  0
 62137  1  0  0  0
 62138  1  0  0  0
 63 65  1  0  0  0
 63139  1  0  0  0
 63140  1  0  0  0
 63141  1  0  0  0
 64142  1  0  0  0
 65143  1  0  0  0
 68 80  1  0  0  0
 71 73  2  0  0  0
 71 74  1  0  0  0
 71144  1  0  0  0
 72 74  2  0  0  0
 72 81  1  0  0  0
 72145  1  0  0  0
 73 75  1  0  0  0
 73 78  1  0  0  0
 74 82  1  0  0  0
 75 77  1  0  0  0
 75 81  2  0  0  0
 76 79  1  0  0  0
 76 80  1  0  0  0
 76 84  2  0  0  0
 77146  1  0  0  0
 77147  1  0  0  0
 77148  1  0  0  0
 78 83  1  0  0  0
 78149  1  0  0  0
 78150  1  0  0  0
 79 82  1  0  0  0
 79151  1  0  0  0
 79152  1  0  0  0
 80153  1  0  0  0
 80154  1  0  0  0
 82155  1  0  0  0
 83156  1  0  0  0
M  ISO  4   1 100  68 101  80 101  83 100
M  END
> <chiral flag>
0

> <version>
0

> <s_m_source_file>
/data/baiqing/PycharmProjects/Reinvent-master-3.2/result/LINK_invent/BTK/process_docking_weight1_custom_product_contain_oxygen_bond_distance_aromatic_linkinvent_7_9_3/rearranged_h_0108.sdf

> <i_m_source_file_index>
30

> <r_mmod_Potential_Energy-OPLS-2005>
-79.0774688720703

> <r_mmod_Stretch_Energy-OPLS-2005>
41.1942977905273

> <r_mmod_Bend_Energy-OPLS-2005>
105.464859008789

> <r_mmod_Torsional_Energy-OPLS-2005>
215.198226928711

> <r_mmod_Improper_Torsional_Energy-OPLS-2005>
5.53743410110474

> <r_mmod_Van_der_Waal_Energy-OPLS-2005>
150.722015380859

> <r_mmod_Electrostatic_Energy-OPLS-2005>
-362.146484375

> <r_mmod_Solvation_Energy-OPLS-2005>
-249.956588745117

> <b_mmod_Minimization_Converged-OPLS-2005>
0

> <r_mmod_RMS_Derivative-OPLS-2005>
1.00681591033936

$$$$
31
                    3D
 Structure written by MMmdl.
159167  0  0  1  0            999 V2000
  -30.7436  -14.4868   20.5744 C   0  0  0  0  0  0
  -30.4035  -12.3239   19.4248 C   0  0  0  0  0  0
  -29.4833  -12.4951   18.2022 C   0  0  0  0  0  0
  -28.0074  -12.3543   18.6190 C   0  0  0  0  0  0
  -27.6491  -13.2185   19.8587 C   0  0  2  0  0  0
  -28.6941  -13.0581   20.9850 C   0  0  0  0  0  0
  -25.2539  -13.8199   20.5676 C   0  0  0  0  0  0
  -24.1820  -13.0458   20.9214 C   0  0  0  0  0  0
  -24.6394  -11.6928   20.8769 C   0  0  0  0  0  0
  -23.9070  -10.4303   21.0428 C   0  0  0  0  0  0
  -24.3627   -9.4208   21.9194 C   0  0  0  0  0  0
  -23.6303   -8.2241   22.0753 C   0  0  0  0  0  0
  -22.4280   -8.0285   21.3547 C   0  0  0  0  0  0
  -21.9921   -9.0262   20.4647 C   0  0  0  0  0  0
  -22.7251  -10.2141   20.3064 C   0  0  0  0  0  0
  -21.6845   -6.0741   22.5284 C   0  0  0  0  0  0
  -21.4010   -6.5643   23.8219 C   0  0  0  0  0  0
  -21.3661   -5.6793   24.9182 C   0  0  0  0  0  0
  -21.6043   -4.3055   24.7229 C   0  0  0  0  0  0
  -21.8818   -3.8149   23.4350 C   0  0  0  0  0  0
  -21.9190   -4.6970   22.3408 C   0  0  0  0  0  0
  -22.7840  -13.5245   21.1860 C   0  0  0  0  0  0
  -22.1659   -4.2154   21.0985 F   0  0  0  0  0  0
  -21.5632   -3.4537   25.7743 F   0  0  0  0  0  0
  -30.0150  -13.3465   20.4119 N   0  0  0  0  0  0
  -26.2963  -12.9387   20.3314 N   0  0  0  0  0  0
  -25.9317  -11.6541   20.5782 N   0  0  0  0  0  0
  -22.0473  -12.8239   22.0411 N   0  0  0  0  0  0
  -25.4233  -15.1917   20.4034 N   0  0  0  0  0  0
  -31.8957  -14.5651   20.1374 O   0  0  0  0  0  0
  -21.6638   -6.8885   21.4243 O   0  0  0  0  0  0
  -22.3532  -14.5549   20.6697 O   0  0  0  0  0  0
  -24.6163  -31.8669   23.2071 C   0  0  0  0  0  0
  -25.9057  -32.4811   23.8364 C   0  0  1  0  0  0
  -27.2311  -27.4124   20.0935 C   0  0  0  0  0  0
  -25.5915  -33.8611   24.2305 N   0  0  0  0  0  0
  -23.4034  -30.4908   21.5491 C   0  0  2  0  0  0
  -24.8459  -28.9512   20.1151 C   0  0  0  0  0  0
  -22.7410  -29.4665   22.4987 C   0  0  0  0  0  0
  -18.0274  -28.1375   22.8496 C   0  0  0  0  0  0
  -24.1490  -36.7313   23.2639 C   0  0  0  0  0  0
  -25.9339  -30.8256   21.3616 C   0  0  0  0  0  0
  -26.0079  -29.4582   20.7090 C   0  0  0  0  0  0
  -27.2001  -28.6968   20.6922 C   0  0  0  0  0  0
  -26.0421  -26.9189   19.5066 C   0  0  0  0  0  0
  -24.8596  -27.6823   19.5126 C   0  0  0  0  0  0
  -23.6099  -29.8210   20.1641 C   0  0  0  0  0  0
  -25.4115  -36.3107   24.0329 C   0  0  1  0  0  0
  -20.5865  -28.3669   23.1322 C   0  0  2  0  0  0
  -20.6772  -26.9409   22.5422 C   0  0  0  0  0  0
  -19.5746  -26.6386   21.5223 C   0  0  0  0  0  0
  -18.1922  -26.7924   22.1628 C   0  0  0  0  0  0
  -19.1524  -28.8838   23.2905 C   0  0  0  0  0  0
  -18.9454  -30.1447   23.8907 C   0  0  0  0  0  0
  -17.6456  -30.6584   24.0573 C   0  0  0  0  0  0
  -25.9045  -34.9472   23.5112 C   0  0  0  0  0  0
  -16.5345  -29.9089   23.6328 C   0  0  0  0  0  0
  -16.7264  -28.6507   23.0346 C   0  0  0  0  0  0
  -26.4477  -31.6593   25.0700 C   0  0  0  0  0  0
  -25.3738  -31.3721   26.1449 C   0  0  0  0  0  0
  -27.0313  -30.3027   24.6093 C   0  0  0  0  0  0
  -27.6036  -32.4328   25.7469 C   0  0  0  0  0  0
  -27.5581  -37.1811   24.8464 C   0  0  0  0  0  0
  -21.4138  -29.3036   22.3721 N   0  0  0  0  0  0
  -26.4300  -37.3792   23.9404 N   0  0  0  0  0  0
  -24.6695  -31.0765   22.0973 N   0  0  0  0  0  0
  -23.4182  -28.8216   23.3033 O   0  0  0  0  0  0
  -28.4215  -26.7049   20.1066 O   0  0  0  0  0  0
  -26.5613  -34.8927   22.4675 O   0  0  0  0  0  0
  -23.5355  -32.1426   23.7469 O   0  0  0  0  0  0
  -28.5709  -18.1758   21.2323 C   0  0  0  0  0  0
  -30.7302  -19.2439   21.4667 C   0  0  0  0  0  0
  -29.9728  -18.0499   21.3749 C   0  0  0  0  0  0
  -27.9609  -19.4585   21.1694 C   0  0  0  0  0  0
  -30.1331  -20.5235   21.4248 C   0  0  0  0  0  0
  -28.7332  -20.6468   21.2441 C   0  0  0  0  0  0
  -30.6990  -16.7156   21.4729 C   0  0  0  0  0  0
  -26.4529  -19.5621   21.0418 C   0  0  0  0  0  0
  -31.0248  -21.7349   21.6407 C   0  0  0  0  0  0
  -28.1353  -24.2704   20.6615 C   0  0  0  0  0  0
  -28.4991  -25.3527   19.6094 C   0  0  0  0  0  0
  -28.3752  -22.8059   20.1961 C   0  0  0  0  0  0
  -30.0932  -15.5780   21.0512 N   0  0  0  0  0  0
  -31.8577  -16.7291   21.9099 O   0  0  0  0  0  0
  -28.0911  -21.8756   21.2554 O   0  0  0  0  0  0
  -31.4483  -12.3971   19.1183 H   0  0  0  0  0  0
  -30.2909  -11.3269   19.8542 H   0  0  0  0  0  0
  -29.7279  -11.7565   17.4375 H   0  0  0  0  0  0
  -29.6473  -13.4730   17.7461 H   0  0  0  0  0  0
  -27.8254  -11.3008   18.8364 H   0  0  0  0  0  0
  -27.3534  -12.6064   17.7828 H   0  0  0  0  0  0
  -27.6744  -14.2573   19.5293 H   0  0  0  0  0  0
  -28.6780  -12.0416   21.3798 H   0  0  0  0  0  0
  -28.4603  -13.7095   21.8282 H   0  0  0  0  0  0
  -25.2771   -9.5678   22.4772 H   0  0  0  0  0  0
  -24.0005   -7.4628   22.7472 H   0  0  0  0  0  0
  -21.0848   -8.8791   19.8956 H   0  0  0  0  0  0
  -22.3717  -10.9685   19.6175 H   0  0  0  0  0  0
  -21.1994   -7.6148   23.9726 H   0  0  0  0  0  0
  -21.1487   -6.0523   25.9088 H   0  0  0  0  0  0
  -22.0595   -2.7607   23.2853 H   0  0  0  0  0  0
  -22.4082  -11.9903   22.4814 H   0  0  0  0  0  0
  -21.1091  -13.1268   22.2609 H   0  0  0  0  0  0
  -24.6467  -15.8378   20.4937 H   0  0  0  0  0  0
  -26.2530  -15.6212   20.0155 H   0  0  0  0  0  0
  -26.7125  -32.5502   23.1120 H   0  0  0  0  0  0
  -25.0067  -33.9761   25.0452 H   0  0  0  0  0  0
  -22.6935  -31.3089   21.4095 H   0  0  0  0  0  0
  -23.3748  -35.9652   23.3317 H   0  0  0  0  0  0
  -24.3583  -36.8912   22.2051 H   0  0  0  0  0  0
  -23.7242  -37.6520   23.6647 H   0  0  0  0  0  0
  -26.0520  -31.5917   20.5942 H   0  0  0  0  0  0
  -26.8208  -30.8752   21.9814 H   0  0  0  0  0  0
  -28.0998  -29.0912   21.1446 H   0  0  0  0  0  0
  -25.9959  -25.9464   19.0414 H   0  0  0  0  0  0
  -23.9635  -27.2835   19.0571 H   0  0  0  0  0  0
  -23.7190  -30.5940   19.4030 H   0  0  0  0  0  0
  -22.7322  -29.2426   19.8687 H   0  0  0  0  0  0
  -25.1294  -36.1969   25.0822 H   0  0  0  0  0  0
  -20.9958  -28.3243   24.1442 H   0  0  0  0  0  0
  -20.5699  -26.2279   23.3610 H   0  0  0  0  0  0
  -21.6641  -26.7465   22.1200 H   0  0  0  0  0  0
  -19.6913  -25.6305   21.1233 H   0  0  0  0  0  0
  -19.6677  -27.3214   20.6768 H   0  0  0  0  0  0
  -17.4198  -26.6684   21.4020 H   0  0  0  0  0  0
  -18.0313  -26.0059   22.9015 H   0  0  0  0  0  0
  -19.7932  -30.7266   24.2264 H   0  0  0  0  0  0
  -17.5016  -31.6259   24.5185 H   0  0  0  0  0  0
  -15.5350  -30.3002   23.7640 H   0  0  0  0  0  0
  -15.8664  -28.0836   22.7046 H   0  0  0  0  0  0
  -24.5888  -30.7094   25.7788 H   0  0  0  0  0  0
  -24.8968  -32.2895   26.4905 H   0  0  0  0  0  0
  -25.8085  -30.8871   27.0197 H   0  0  0  0  0  0
  -26.2856  -29.6778   24.1157 H   0  0  0  0  0  0
  -27.4089  -29.7273   25.4560 H   0  0  0  0  0  0
  -27.8692  -30.4343   23.9240 H   0  0  0  0  0  0
  -27.2625  -33.3609   26.2073 H   0  0  0  0  0  0
  -28.3829  -32.6922   25.0290 H   0  0  0  0  0  0
  -28.0723  -31.8440   26.5364 H   0  0  0  0  0  0
  -28.2611  -38.0099   24.7511 H   0  0  0  0  0  0
  -28.1062  -36.2627   24.6294 H   0  0  0  0  0  0
  -27.2297  -37.1472   25.8868 H   0  0  0  0  0  0
  -20.9305  -29.8754   21.6936 H   0  0  0  0  0  0
  -26.0187  -38.2870   24.1397 H   0  0  0  0  0  0
  -27.9544  -17.2898   21.1827 H   0  0  0  0  0  0
  -31.8018  -19.1829   21.6004 H   0  0  0  0  0  0
  -25.9845  -18.5806   20.9654 H   0  0  0  0  0  0
  -26.1862  -20.1332   20.1522 H   0  0  0  0  0  0
  -26.0357  -20.0723   21.9106 H   0  0  0  0  0  0
  -31.4535  -22.0675   20.6957 H   0  0  0  0  0  0
  -31.8474  -21.4938   22.3146 H   0  0  0  0  0  0
  -30.4761  -22.5641   22.0870 H   0  0  0  0  0  0
  -27.0930  -24.3884   20.9590 H   0  0  0  0  0  0
  -28.7294  -24.4511   21.5575 H   0  0  0  0  0  0
  -27.9440  -25.2164   18.6818 H   0  0  0  0  0  0
  -29.5405  -25.2012   19.3242 H   0  0  0  0  0  0
  -29.3889  -22.6973   19.8137 H   0  0  0  0  0  0
  -27.7156  -22.5784   19.3584 H   0  0  0  0  0  0
  -29.0896  -15.5669   21.0198 H   0  0  0  0  0  0
  1 25  1  0  0  0
  1 30  2  0  0  0
  1 83  1  0  0  0
  2  3  1  0  0  0
  2 25  1  0  0  0
  2 86  1  0  0  0
  2 87  1  0  0  0
  3  4  1  0  0  0
  3 88  1  0  0  0
  3 89  1  0  0  0
  4  5  1  0  0  0
  4 90  1  0  0  0
  4 91  1  0  0  0
  5  6  1  0  0  0
  5 26  1  0  0  0
  5 92  1  0  0  0
  6 25  1  0  0  0
  6 93  1  0  0  0
  6 94  1  0  0  0
  7  8  2  0  0  0
  7 26  1  0  0  0
  7 29  1  0  0  0
  8  9  1  0  0  0
  8 22  1  0  0  0
  9 10  1  0  0  0
  9 27  2  0  0  0
 10 11  2  0  0  0
 10 15  1  0  0  0
 11 12  1  0  0  0
 11 95  1  0  0  0
 12 13  2  0  0  0
 12 96  1  0  0  0
 13 14  1  0  0  0
 13 31  1  0  0  0
 14 15  2  0  0  0
 14 97  1  0  0  0
 15 98  1  0  0  0
 16 17  2  0  0  0
 16 21  1  0  0  0
 16 31  1  0  0  0
 17 18  1  0  0  0
 17 99  1  0  0  0
 18 19  2  0  0  0
 18100  1  0  0  0
 19 20  1  0  0  0
 19 24  1  0  0  0
 20 21  2  0  0  0
 20101  1  0  0  0
 21 23  1  0  0  0
 22 28  1  0  0  0
 22 32  2  0  0  0
 26 27  1  0  0  0
 28102  1  0  0  0
 28103  1  0  0  0
 29104  1  0  0  0
 29105  1  0  0  0
 33 34  1  0  0  0
 33 66  1  0  0  0
 33 70  2  0  0  0
 34 36  1  0  0  0
 34 59  1  0  0  0
 34106  1  0  0  0
 35 44  2  0  0  0
 35 45  1  0  0  0
 35 68  1  0  0  0
 36 56  1  0  0  0
 36107  1  0  0  0
 37 39  1  0  0  0
 37 47  1  0  0  0
 37 66  1  0  0  0
 37108  1  0  0  0
 38 43  2  0  0  0
 38 46  1  0  0  0
 38 47  1  0  0  0
 39 64  1  0  0  0
 39 67  2  0  0  0
 40 52  1  0  0  0
 40 53  2  0  0  0
 40 58  1  0  0  0
 41109  1  0  0  0
 41110  1  0  0  0
 41111  1  0  0  0
 41 48  1  0  0  0
 42 43  1  0  0  0
 42 66  1  0  0  0
 42112  1  0  0  0
 42113  1  0  0  0
 43 44  1  0  0  0
 44114  1  0  0  0
 45 46  2  0  0  0
 45115  1  0  0  0
 46116  1  0  0  0
 47117  1  0  0  0
 47118  1  0  0  0
 48 56  1  0  0  0
 48 65  1  0  0  0
 48119  1  0  0  0
 49 50  1  0  0  0
 49 53  1  0  0  0
 49 64  1  0  0  0
 49120  1  0  0  0
 50 51  1  0  0  0
 50121  1  0  0  0
 50122  1  0  0  0
 51 52  1  0  0  0
 51123  1  0  0  0
 51124  1  0  0  0
 52125  1  0  0  0
 52126  1  0  0  0
 53 54  1  0  0  0
 54 55  2  0  0  0
 54127  1  0  0  0
 55 57  1  0  0  0
 55128  1  0  0  0
 56 69  2  0  0  0
 57 58  2  0  0  0
 57129  1  0  0  0
 58130  1  0  0  0
 59 60  1  0  0  0
 59 61  1  0  0  0
 59 62  1  0  0  0
 60131  1  0  0  0
 60132  1  0  0  0
 60133  1  0  0  0
 61134  1  0  0  0
 61135  1  0  0  0
 61136  1  0  0  0
 62137  1  0  0  0
 62138  1  0  0  0
 62139  1  0  0  0
 63 65  1  0  0  0
 63140  1  0  0  0
 63141  1  0  0  0
 63142  1  0  0  0
 64143  1  0  0  0
 65144  1  0  0  0
 68 81  1  0  0  0
 71 73  2  0  0  0
 71 74  1  0  0  0
 71145  1  0  0  0
 72 73  1  0  0  0
 72 75  2  0  0  0
 72146  1  0  0  0
 73 77  1  0  0  0
 74 76  2  0  0  0
 74 78  1  0  0  0
 75 76  1  0  0  0
 75 79  1  0  0  0
 76 85  1  0  0  0
 77 83  1  0  0  0
 77 84  2  0  0  0
 78147  1  0  0  0
 78148  1  0  0  0
 78149  1  0  0  0
 79150  1  0  0  0
 79151  1  0  0  0
 79152  1  0  0  0
 80 81  1  0  0  0
 80 82  1  0  0  0
 80153  1  0  0  0
 80154  1  0  0  0
 81155  1  0  0  0
 81156  1  0  0  0
 82 85  1  0  0  0
 82157  1  0  0  0
 82158  1  0  0  0
 83159  1  0  0  0
M  ISO  4   1 100  68 101  81 101  83 100
M  END
> <chiral flag>
0

> <version>
0

> <s_m_source_file>
/data/baiqing/PycharmProjects/Reinvent-master-3.2/result/LINK_invent/BTK/process_docking_weight1_custom_product_contain_oxygen_bond_distance_aromatic_linkinvent_7_9_3/rearranged_h_0108.sdf

> <i_m_source_file_index>
31

> <r_mmod_Potential_Energy-OPLS-2005>
-98.5336074829102

> <r_mmod_Stretch_Energy-OPLS-2005>
43.0082015991211

> <r_mmod_Bend_Energy-OPLS-2005>
112.849166870117

> <r_mmod_Torsional_Energy-OPLS-2005>
243.323135375977

> <r_mmod_Improper_Torsional_Energy-OPLS-2005>
4.81497383117676

> <r_mmod_Van_der_Waal_Energy-OPLS-2005>
161.376083374023

> <r_mmod_Electrostatic_Energy-OPLS-2005>
-461.657775878906

> <r_mmod_Solvation_Energy-OPLS-2005>
-221.509201049805

> <b_mmod_Minimization_Converged-OPLS-2005>
0

> <r_mmod_RMS_Derivative-OPLS-2005>
1.044473528862

$$$$
32
                    3D
 Structure written by MMmdl.
161170  0  0  1  0            999 V2000
  -30.5860  -14.7554   20.4667 C   0  0  0  0  0  0
  -30.4461  -12.4640   19.4682 C   0  0  0  0  0  0
  -29.5167  -12.5173   18.2349 C   0  0  0  0  0  0
  -28.0413  -12.3405   18.6423 C   0  0  0  0  0  0
  -27.6509  -13.2213   19.8606 C   0  0  2  0  0  0
  -28.6959  -13.1356   20.9946 C   0  0  0  0  0  0
  -25.2575  -13.8170   20.5702 C   0  0  0  0  0  0
  -24.1849  -13.0441   20.9191 C   0  0  0  0  0  0
  -24.6416  -11.6908   20.8742 C   0  0  0  0  0  0
  -23.9096  -10.4286   21.0403 C   0  0  0  0  0  0
  -24.3630   -9.4202   21.9175 C   0  0  0  0  0  0
  -23.6315   -8.2230   22.0752 C   0  0  0  0  0  0
  -22.4285   -8.0279   21.3545 C   0  0  0  0  0  0
  -21.9928   -9.0256   20.4645 C   0  0  0  0  0  0
  -22.7262  -10.2135   20.3075 C   0  0  0  0  0  0
  -21.6869   -6.0733   22.5261 C   0  0  0  0  0  0
  -21.3989   -6.5631   23.8196 C   0  0  0  0  0  0
  -21.3677   -5.6794   24.9161 C   0  0  0  0  0  0
  -21.6080   -4.3068   24.7205 C   0  0  0  0  0  0
  -21.8830   -3.8157   23.4319 C   0  0  0  0  0  0
  -21.9196   -4.6963   22.3373 C   0  0  0  0  0  0
  -22.7855  -13.5230   21.1859 C   0  0  0  0  0  0
  -22.1663   -4.2164   21.0947 F   0  0  0  0  0  0
  -21.5665   -3.4547   25.7711 F   0  0  0  0  0  0
  -29.9987  -13.5080   20.4255 N   0  0  0  0  0  0
  -26.3004  -12.9349   20.3356 N   0  0  0  0  0  0
  -25.9357  -11.6506   20.5774 N   0  0  0  0  0  0
  -22.0510  -12.8210   22.0416 N   0  0  0  0  0  0
  -25.4359  -15.1893   20.4104 N   0  0  0  0  0  0
  -31.7373  -14.9021   20.0441 O   0  0  0  0  0  0
  -21.6668   -6.8868   21.4230 O   0  0  0  0  0  0
  -22.3539  -14.5526   20.6726 O   0  0  0  0  0  0
  -24.6297  -31.8553   23.2012 C   0  0  0  0  0  0
  -25.9150  -32.4748   23.8333 C   0  0  1  0  0  0
  -27.2162  -27.2592   20.1460 C   0  0  0  0  0  0
  -25.5964  -33.8553   24.2278 N   0  0  0  0  0  0
  -23.4249  -30.4784   21.5426 C   0  0  2  0  0  0
  -24.8750  -28.9288   20.1038 C   0  0  0  0  0  0
  -22.7486  -29.4609   22.4911 C   0  0  0  0  0  0
  -18.0289  -28.1384   22.8480 C   0  0  0  0  0  0
  -24.1495  -36.7301   23.2628 C   0  0  0  0  0  0
  -25.9685  -30.7671   21.3835 C   0  0  0  0  0  0
  -26.0389  -29.3878   20.7313 C   0  0  0  0  0  0
  -27.2087  -28.5630   20.7467 C   0  0  0  0  0  0
  -26.0406  -26.8828   19.4580 C   0  0  0  0  0  0
  -24.8826  -27.6856   19.4535 C   0  0  0  0  0  0
  -23.6424  -29.8121   20.1568 C   0  0  0  0  0  0
  -25.4117  -36.3055   24.0313 C   0  0  1  0  0  0
  -20.5897  -28.3691   23.1273 C   0  0  2  0  0  0
  -20.6787  -26.9407   22.5415 C   0  0  0  0  0  0
  -19.5767  -26.6377   21.5218 C   0  0  0  0  0  0
  -18.1935  -26.7927   22.1612 C   0  0  0  0  0  0
  -19.1543  -28.8857   23.2868 C   0  0  0  0  0  0
  -18.9460  -30.1462   23.8871 C   0  0  0  0  0  0
  -17.6457  -30.6578   24.0552 C   0  0  0  0  0  0
  -25.9048  -34.9429   23.5086 C   0  0  0  0  0  0
  -16.5349  -29.9071   23.6328 C   0  0  0  0  0  0
  -16.7275  -28.6499   23.0338 C   0  0  0  0  0  0
  -26.4523  -31.6548   25.0705 C   0  0  0  0  0  0
  -25.3753  -31.3710   26.1430 C   0  0  0  0  0  0
  -27.0379  -30.2950   24.6212 C   0  0  0  0  0  0
  -27.6060  -32.4286   25.7500 C   0  0  0  0  0  0
  -27.5585  -37.1805   24.8453 C   0  0  0  0  0  0
  -21.4203  -29.3042   22.3676 N   0  0  0  0  0  0
  -26.4284  -37.3765   23.9399 N   0  0  0  0  0  0
  -24.6929  -31.0542   22.0976 N   0  0  0  0  0  0
  -23.4171  -28.8137   23.3004 O   0  0  0  0  0  0
  -28.3127  -26.3675   20.2454 O   0  0  0  0  0  0
  -26.5610  -34.8907   22.4648 O   0  0  0  0  0  0
  -23.5457  -32.1390   23.7319 O   0  0  0  0  0  0
  -28.3433  -19.5769   19.2757 C   0  0  0  0  0  0
  -28.5938  -17.1308   19.2474 C   0  0  0  0  0  0
  -29.8367  -18.4661   20.8542 C   0  0  0  0  0  0
  -27.9999  -18.3152   18.7533 C   0  0  0  0  0  0
  -29.2672  -19.7075   20.3276 C   0  0  0  0  0  0
  -29.5116  -17.1462   20.3206 C   0  0  0  0  0  0
  -27.5233  -22.0845   21.7019 C   0  0  0  0  0  0
  -27.1861  -23.2932   22.5604 C   0  0  0  0  0  0
  -28.4619  -24.1285   22.4324 C   0  0  0  0  0  0
  -28.9192  -23.8171   20.9981 C   0  0  2  0  0  0
  -26.9479  -18.2488   17.6647 C   0  0  0  0  0  0
  -29.6284  -21.1942   20.7850 C   0  0  0  0  0  0
  -28.1387  -24.8811   20.0492 C   0  0  0  0  0  0
  -28.5845  -22.3171   20.9011 N   0  0  0  0  0  0
  -29.8393  -15.8293   20.9293 N   0  0  0  0  0  0
  -26.9537  -21.0030   21.8750 O   0  0  0  0  0  0
  -31.4807  -12.6136   19.1518 H   0  0  0  0  0  0
  -30.4176  -11.4769   19.9350 H   0  0  0  0  0  0
  -29.7999  -11.7463   17.5179 H   0  0  0  0  0  0
  -29.6493  -13.4740   17.7263 H   0  0  0  0  0  0
  -27.8899  -11.2857   18.8808 H   0  0  0  0  0  0
  -27.3927  -12.5602   17.7954 H   0  0  0  0  0  0
  -27.6395  -14.2462   19.4991 H   0  0  0  0  0  0
  -28.7417  -12.1258   21.4040 H   0  0  0  0  0  0
  -28.4187  -13.7845   21.8246 H   0  0  0  0  0  0
  -25.2773   -9.5684   22.4745 H   0  0  0  0  0  0
  -24.0066   -7.4624   22.7460 H   0  0  0  0  0  0
  -21.0883   -8.8749   19.8919 H   0  0  0  0  0  0
  -22.3727  -10.9669   19.6185 H   0  0  0  0  0  0
  -21.1930   -7.6128   23.9676 H   0  0  0  0  0  0
  -21.1526   -6.0527   25.9069 H   0  0  0  0  0  0
  -22.0596   -2.7613   23.2803 H   0  0  0  0  0  0
  -22.4147  -11.9854   22.4775 H   0  0  0  0  0  0
  -21.1108  -13.1203   22.2576 H   0  0  0  0  0  0
  -24.6824  -15.8565   20.5271 H   0  0  0  0  0  0
  -26.3070  -15.6261   20.1362 H   0  0  0  0  0  0
  -26.7202  -32.5391   23.1056 H   0  0  0  0  0  0
  -25.0157  -33.9701   25.0451 H   0  0  0  0  0  0
  -22.7170  -31.2973   21.3971 H   0  0  0  0  0  0
  -23.3751  -35.9643   23.3264 H   0  0  0  0  0  0
  -24.3593  -36.8961   22.2052 H   0  0  0  0  0  0
  -23.7266  -37.6496   23.6681 H   0  0  0  0  0  0
  -26.1065  -31.5235   20.6099 H   0  0  0  0  0  0
  -26.8467  -30.8190   22.0148 H   0  0  0  0  0  0
  -28.0894  -28.9001   21.2755 H   0  0  0  0  0  0
  -25.9909  -25.9475   18.9209 H   0  0  0  0  0  0
  -24.0001  -27.3405   18.9337 H   0  0  0  0  0  0
  -23.7577  -30.5886   19.3992 H   0  0  0  0  0  0
  -22.7630  -29.2402   19.8542 H   0  0  0  0  0  0
  -25.1313  -36.1895   25.0806 H   0  0  0  0  0  0
  -20.9967  -28.3277   24.1400 H   0  0  0  0  0  0
  -20.5717  -26.2294   23.3628 H   0  0  0  0  0  0
  -21.6654  -26.7459   22.1192 H   0  0  0  0  0  0
  -19.6931  -25.6287   21.1262 H   0  0  0  0  0  0
  -19.6713  -27.3181   20.6744 H   0  0  0  0  0  0
  -17.4220  -26.6682   21.3995 H   0  0  0  0  0  0
  -18.0308  -26.0063   22.9002 H   0  0  0  0  0  0
  -19.7926  -30.7311   24.2193 H   0  0  0  0  0  0
  -17.4998  -31.6256   24.5163 H   0  0  0  0  0  0
  -15.5351  -30.2952   23.7692 H   0  0  0  0  0  0
  -15.8669  -28.0825   22.7040 H   0  0  0  0  0  0
  -24.5931  -30.7053   25.7771 H   0  0  0  0  0  0
  -24.8956  -32.2892   26.4824 H   0  0  0  0  0  0
  -25.8083  -30.8912   27.0214 H   0  0  0  0  0  0
  -26.2981  -29.6670   24.1239 H   0  0  0  0  0  0
  -27.4041  -29.7231   25.4747 H   0  0  0  0  0  0
  -27.8857  -30.4193   23.9474 H   0  0  0  0  0  0
  -27.2643  -33.3566   26.2088 H   0  0  0  0  0  0
  -28.3886  -32.6876   25.0359 H   0  0  0  0  0  0
  -28.0706  -31.8404   26.5421 H   0  0  0  0  0  0
  -28.2571  -38.0123   24.7511 H   0  0  0  0  0  0
  -28.1112  -36.2667   24.6261 H   0  0  0  0  0  0
  -27.2309  -37.1412   25.8848 H   0  0  0  0  0  0
  -20.9379  -29.8767   21.6905 H   0  0  0  0  0  0
  -26.0165  -38.2840   24.1389 H   0  0  0  0  0  0
  -27.8781  -20.4642   18.8678 H   0  0  0  0  0  0
  -28.2824  -16.1935   18.8159 H   0  0  0  0  0  0
  -30.5094  -18.5286   21.6972 H   0  0  0  0  0  0
  -26.9511  -23.0298   23.5915 H   0  0  0  0  0  0
  -26.3174  -23.8009   22.1410 H   0  0  0  0  0  0
  -29.2024  -23.7821   23.1573 H   0  0  0  0  0  0
  -28.2973  -25.1892   22.6268 H   0  0  0  0  0  0
  -29.9946  -23.9658   20.8901 H   0  0  0  0  0  0
  -27.2982  -18.7299   16.7489 H   0  0  0  0  0  0
  -26.0456  -18.7644   17.9966 H   0  0  0  0  0  0
  -26.6676  -17.2195   17.4357 H   0  0  0  0  0  0
  -30.3898  -21.5540   20.0892 H   0  0  0  0  0  0
  -30.1437  -21.1250   21.7451 H   0  0  0  0  0  0
  -27.0843  -24.6249   20.1291 H   0  0  0  0  0  0
  -28.4060  -24.6722   19.0136 H   0  0  0  0  0  0
  -29.0668  -15.4769   21.4741 H   0  0  0  0  0  0
  1 25  1  0  0  0
  1 30  2  0  0  0
  1 85  1  0  0  0
  2  3  1  0  0  0
  2 25  1  0  0  0
  2 87  1  0  0  0
  2 88  1  0  0  0
  3  4  1  0  0  0
  3 89  1  0  0  0
  3 90  1  0  0  0
  4  5  1  0  0  0
  4 91  1  0  0  0
  4 92  1  0  0  0
  5  6  1  0  0  0
  5 26  1  0  0  0
  5 93  1  0  0  0
  6 25  1  0  0  0
  6 94  1  0  0  0
  6 95  1  0  0  0
  7  8  2  0  0  0
  7 26  1  0  0  0
  7 29  1  0  0  0
  8  9  1  0  0  0
  8 22  1  0  0  0
  9 10  1  0  0  0
  9 27  2  0  0  0
 10 11  2  0  0  0
 10 15  1  0  0  0
 11 12  1  0  0  0
 11 96  1  0  0  0
 12 13  2  0  0  0
 12 97  1  0  0  0
 13 14  1  0  0  0
 13 31  1  0  0  0
 14 15  2  0  0  0
 14 98  1  0  0  0
 15 99  1  0  0  0
 16 17  2  0  0  0
 16 21  1  0  0  0
 16 31  1  0  0  0
 17 18  1  0  0  0
 17100  1  0  0  0
 18 19  2  0  0  0
 18101  1  0  0  0
 19 20  1  0  0  0
 19 24  1  0  0  0
 20 21  2  0  0  0
 20102  1  0  0  0
 21 23  1  0  0  0
 22 28  1  0  0  0
 22 32  2  0  0  0
 26 27  1  0  0  0
 28103  1  0  0  0
 28104  1  0  0  0
 29105  1  0  0  0
 29106  1  0  0  0
 33 34  1  0  0  0
 33 66  1  0  0  0
 33 70  2  0  0  0
 34 36  1  0  0  0
 34 59  1  0  0  0
 34107  1  0  0  0
 35 44  2  0  0  0
 35 45  1  0  0  0
 35 68  1  0  0  0
 36 56  1  0  0  0
 36108  1  0  0  0
 37 39  1  0  0  0
 37 47  1  0  0  0
 37 66  1  0  0  0
 37109  1  0  0  0
 38 43  2  0  0  0
 38 46  1  0  0  0
 38 47  1  0  0  0
 39 64  1  0  0  0
 39 67  2  0  0  0
 40 52  1  0  0  0
 40 53  2  0  0  0
 40 58  1  0  0  0
 41110  1  0  0  0
 41111  1  0  0  0
 41112  1  0  0  0
 41 48  1  0  0  0
 42 43  1  0  0  0
 42 66  1  0  0  0
 42113  1  0  0  0
 42114  1  0  0  0
 43 44  1  0  0  0
 44115  1  0  0  0
 45 46  2  0  0  0
 45116  1  0  0  0
 46117  1  0  0  0
 47118  1  0  0  0
 47119  1  0  0  0
 48 56  1  0  0  0
 48 65  1  0  0  0
 48120  1  0  0  0
 49 50  1  0  0  0
 49 53  1  0  0  0
 49 64  1  0  0  0
 49121  1  0  0  0
 50 51  1  0  0  0
 50122  1  0  0  0
 50123  1  0  0  0
 51 52  1  0  0  0
 51124  1  0  0  0
 51125  1  0  0  0
 52126  1  0  0  0
 52127  1  0  0  0
 53 54  1  0  0  0
 54 55  2  0  0  0
 54128  1  0  0  0
 55 57  1  0  0  0
 55129  1  0  0  0
 56 69  2  0  0  0
 57 58  2  0  0  0
 57130  1  0  0  0
 58131  1  0  0  0
 59 60  1  0  0  0
 59 61  1  0  0  0
 59 62  1  0  0  0
 60132  1  0  0  0
 60133  1  0  0  0
 60134  1  0  0  0
 61135  1  0  0  0
 61136  1  0  0  0
 61137  1  0  0  0
 62138  1  0  0  0
 62139  1  0  0  0
 62140  1  0  0  0
 63 65  1  0  0  0
 63141  1  0  0  0
 63142  1  0  0  0
 63143  1  0  0  0
 64144  1  0  0  0
 65145  1  0  0  0
 68 83  1  0  0  0
 71 74  2  0  0  0
 71 75  1  0  0  0
 71146  1  0  0  0
 72 74  1  0  0  0
 72 76  2  0  0  0
 72147  1  0  0  0
 73 75  2  0  0  0
 73 76  1  0  0  0
 73148  1  0  0  0
 74 81  1  0  0  0
 75 82  1  0  0  0
 76 85  1  0  0  0
 77 78  1  0  0  0
 77 84  1  0  0  0
 77 86  2  0  0  0
 78 79  1  0  0  0
 78149  1  0  0  0
 78150  1  0  0  0
 79 80  1  0  0  0
 79151  1  0  0  0
 79152  1  0  0  0
 80 83  1  0  0  0
 80 84  1  0  0  0
 80153  1  0  0  0
 81154  1  0  0  0
 81155  1  0  0  0
 81156  1  0  0  0
 82 84  1  0  0  0
 82157  1  0  0  0
 82158  1  0  0  0
 83159  1  0  0  0
 83160  1  0  0  0
 85161  1  0  0  0
M  ISO  4   1 100  68 101  83 101  85 100
M  END
> <chiral flag>
0

> <version>
0

> <s_m_source_file>
/data/baiqing/PycharmProjects/Reinvent-master-3.2/result/LINK_invent/BTK/process_docking_weight1_custom_product_contain_oxygen_bond_distance_aromatic_linkinvent_7_9_3/rearranged_h_0108.sdf

> <i_m_source_file_index>
32

> <r_mmod_Potential_Energy-OPLS-2005>
256.218719482422

> <r_mmod_Stretch_Energy-OPLS-2005>
132.771057128906

> <r_mmod_Bend_Energy-OPLS-2005>
211.044097900391

> <r_mmod_Torsional_Energy-OPLS-2005>
295.365081787109

> <r_mmod_Improper_Torsional_Energy-OPLS-2005>
10.847146987915

> <r_mmod_Van_der_Waal_Energy-OPLS-2005>
129.245040893555

> <r_mmod_Electrostatic_Energy-OPLS-2005>
-383.113555908203

> <r_mmod_Solvation_Energy-OPLS-2005>
-229.244064331055

> <b_mmod_Minimization_Converged-OPLS-2005>
0

> <r_mmod_RMS_Derivative-OPLS-2005>
4.66910123825073

$$$$
33
                    3D
 Structure written by MMmdl.
160168  0  0  1  0            999 V2000
  -30.7095  -14.5036   20.5009 C   0  0  0  0  0  0
  -30.4176  -12.2990   19.4511 C   0  0  0  0  0  0
  -29.5017  -12.4655   18.2256 C   0  0  0  0  0  0
  -28.0285  -12.3041   18.6517 C   0  0  0  0  0  0
  -27.6571  -13.1936   19.8697 C   0  0  2  0  0  0
  -28.7004  -13.0505   20.9982 C   0  0  0  0  0  0
  -25.2594  -13.8140   20.5669 C   0  0  0  0  0  0
  -24.1838  -13.0429   20.9200 C   0  0  0  0  0  0
  -24.6375  -11.6891   20.8781 C   0  0  0  0  0  0
  -23.9033  -10.4286   21.0433 C   0  0  0  0  0  0
  -24.3602   -9.4192   21.9201 C   0  0  0  0  0  0
  -23.6282   -8.2221   22.0761 C   0  0  0  0  0  0
  -22.4270   -8.0264   21.3546 C   0  0  0  0  0  0
  -21.9903   -9.0243   20.4645 C   0  0  0  0  0  0
  -22.7216  -10.2128   20.3066 C   0  0  0  0  0  0
  -21.6851   -6.0718   22.5270 C   0  0  0  0  0  0
  -21.4018   -6.5634   23.8201 C   0  0  0  0  0  0
  -21.3666   -5.6791   24.9177 C   0  0  0  0  0  0
  -21.6051   -4.3053   24.7236 C   0  0  0  0  0  0
  -21.8822   -3.8140   23.4362 C   0  0  0  0  0  0
  -21.9192   -4.6948   22.3410 C   0  0  0  0  0  0
  -22.7873  -13.5248   21.1845 C   0  0  0  0  0  0
  -22.1658   -4.2119   21.0986 F   0  0  0  0  0  0
  -21.5642   -3.4540   25.7754 F   0  0  0  0  0  0
  -30.0234  -13.3296   20.4231 N   0  0  0  0  0  0
  -26.3002  -12.9264   20.3365 N   0  0  0  0  0  0
  -25.9303  -11.6446   20.5852 N   0  0  0  0  0  0
  -22.0516  -12.8264   22.0428 N   0  0  0  0  0  0
  -25.4342  -15.1845   20.4036 N   0  0  0  0  0  0
  -31.8936  -14.5712   20.1657 O   0  0  0  0  0  0
  -21.6641   -6.8856   21.4231 O   0  0  0  0  0  0
  -22.3552  -14.5544   20.6661 O   0  0  0  0  0  0
  -24.6165  -31.8698   23.2132 C   0  0  0  0  0  0
  -25.9059  -32.4823   23.8407 C   0  0  1  0  0  0
  -27.2146  -27.4059   20.0988 C   0  0  0  0  0  0
  -25.5936  -33.8620   24.2344 N   0  0  0  0  0  0
  -23.4025  -30.4986   21.5561 C   0  0  2  0  0  0
  -24.8458  -28.9753   20.1102 C   0  0  0  0  0  0
  -22.7407  -29.4680   22.4994 C   0  0  0  0  0  0
  -18.0286  -28.1357   22.8474 C   0  0  0  0  0  0
  -24.1497  -36.7312   23.2627 C   0  0  0  0  0  0
  -25.9380  -30.8235   21.3772 C   0  0  0  0  0  0
  -26.0097  -29.4600   20.7188 C   0  0  0  0  0  0
  -27.1941  -28.6805   20.7181 C   0  0  0  0  0  0
  -26.0364  -26.9770   19.4333 C   0  0  0  0  0  0
  -24.8565  -27.7345   19.4630 C   0  0  0  0  0  0
  -23.6099  -29.8440   20.1662 C   0  0  0  0  0  0
  -25.4114  -36.3110   24.0330 C   0  0  1  0  0  0
  -20.5874  -28.3662   23.1305 C   0  0  2  0  0  0
  -20.6799  -26.9401   22.5377 C   0  0  0  0  0  0
  -19.5757  -26.6340   21.5203 C   0  0  0  0  0  0
  -18.1931  -26.7910   22.1581 C   0  0  0  0  0  0
  -19.1530  -28.8813   23.2899 C   0  0  0  0  0  0
  -18.9448  -30.1436   23.8884 C   0  0  0  0  0  0
  -17.6445  -30.6571   24.0532 C   0  0  0  0  0  0
  -25.9045  -34.9476   23.5128 C   0  0  0  0  0  0
  -16.5340  -29.9063   23.6314 C   0  0  0  0  0  0
  -16.7273  -28.6479   23.0341 C   0  0  0  0  0  0
  -26.4485  -31.6600   25.0733 C   0  0  0  0  0  0
  -25.3747  -31.3725   26.1482 C   0  0  0  0  0  0
  -27.0311  -30.3034   24.6126 C   0  0  0  0  0  0
  -27.6060  -32.4312   25.7498 C   0  0  0  0  0  0
  -27.5591  -37.1813   24.8461 C   0  0  0  0  0  0
  -21.4136  -29.3056   22.3728 N   0  0  0  0  0  0
  -26.4301  -37.3791   23.9404 N   0  0  0  0  0  0
  -24.6701  -31.0780   22.1066 N   0  0  0  0  0  0
  -23.4188  -28.8172   23.2989 O   0  0  0  0  0  0
  -28.3468  -26.6040   20.1737 O   0  0  0  0  0  0
  -26.5573  -34.8920   22.4673 O   0  0  0  0  0  0
  -23.5356  -32.1472   23.7516 O   0  0  0  0  0  0
  -27.4626  -20.1045   20.1344 C   0  0  0  0  0  0
  -27.2266  -18.8498   19.5538 C   0  0  0  0  0  0
  -29.5423  -19.2721   21.0604 C   0  0  0  0  0  0
  -29.3066  -17.9793   20.5092 C   0  0  0  0  0  0
  -28.6623  -20.3580   20.8359 C   0  0  0  0  0  0
  -28.1663  -17.7983   19.6775 C   0  0  0  0  0  0
  -30.3632  -16.8997   20.6764 C   0  0  0  0  0  0
  -28.9030  -24.1831   20.7151 C   0  0  0  0  0  0
  -27.8338  -15.5561   16.8210 C   0  0  0  0  0  0
  -28.2171  -22.8013   20.7759 C   0  0  0  0  0  0
  -28.1371  -25.2059   19.8554 C   0  0  0  0  0  0
  -27.3713  -16.7161   17.7005 C   0  0  0  0  0  0
  -28.9993  -21.6571   21.2757 N   0  0  0  0  0  0
  -29.9549  -15.6067   20.7184 N   0  0  0  0  0  0
  -31.5432  -17.2552   20.7916 O   0  0  0  0  0  0
  -29.9753  -24.4210   21.2826 O   0  0  0  0  0  0
  -28.0078  -16.6233   18.9752 O   0  0  0  0  0  0
  -31.4649  -12.3698   19.1538 H   0  0  0  0  0  0
  -30.2986  -11.3064   19.8878 H   0  0  0  0  0  0
  -29.7579  -11.7272   17.4647 H   0  0  0  0  0  0
  -29.6670  -13.4436   17.7726 H   0  0  0  0  0  0
  -27.8805  -11.2553   18.9107 H   0  0  0  0  0  0
  -27.3595  -12.4918   17.8128 H   0  0  0  0  0  0
  -27.6870  -14.2252   19.5312 H   0  0  0  0  0  0
  -28.6843  -12.0419   21.4136 H   0  0  0  0  0  0
  -28.4719  -13.7201   21.8289 H   0  0  0  0  0  0
  -25.2753   -9.5666   22.4771 H   0  0  0  0  0  0
  -23.9987   -7.4634   22.7503 H   0  0  0  0  0  0
  -21.0818   -8.8766   19.8966 H   0  0  0  0  0  0
  -22.3682  -10.9669   19.6176 H   0  0  0  0  0  0
  -21.1999   -7.6141   23.9690 H   0  0  0  0  0  0
  -21.1490   -6.0532   25.9068 H   0  0  0  0  0  0
  -22.0588   -2.7583   23.2890 H   0  0  0  0  0  0
  -22.4152  -11.9939   22.4834 H   0  0  0  0  0  0
  -21.1122  -13.1277   22.2619 H   0  0  0  0  0  0
  -24.6562  -15.8297   20.4839 H   0  0  0  0  0  0
  -26.2750  -15.6198   20.0441 H   0  0  0  0  0  0
  -26.7126  -32.5525   23.1162 H   0  0  0  0  0  0
  -25.0150  -33.9797   25.0535 H   0  0  0  0  0  0
  -22.6922  -31.3178   21.4250 H   0  0  0  0  0  0
  -23.3750  -35.9657   23.3302 H   0  0  0  0  0  0
  -24.3598  -36.8905   22.2042 H   0  0  0  0  0  0
  -23.7257  -37.6526   23.6629 H   0  0  0  0  0  0
  -26.0605  -31.5930   20.6134 H   0  0  0  0  0  0
  -26.8223  -30.8678   22.0015 H   0  0  0  0  0  0
  -28.0846  -29.0427   21.2135 H   0  0  0  0  0  0
  -25.9820  -26.0557   18.8738 H   0  0  0  0  0  0
  -23.9683  -27.3650   18.9683 H   0  0  0  0  0  0
  -23.7213  -30.6252   19.4131 H   0  0  0  0  0  0
  -22.7319  -29.2704   19.8649 H   0  0  0  0  0  0
  -25.1293  -36.1977   25.0821 H   0  0  0  0  0  0
  -20.9976  -28.3186   24.1422 H   0  0  0  0  0  0
  -20.5778  -26.2263   23.3565 H   0  0  0  0  0  0
  -21.6673  -26.7469   22.1152 H   0  0  0  0  0  0
  -19.6928  -25.6234   21.1276 H   0  0  0  0  0  0
  -19.6716  -27.3115   20.6706 H   0  0  0  0  0  0
  -17.4233  -26.6723   21.3945 H   0  0  0  0  0  0
  -18.0269  -26.0032   22.8933 H   0  0  0  0  0  0
  -19.7923  -30.7252   24.2242 H   0  0  0  0  0  0
  -17.4985  -31.6261   24.5092 H   0  0  0  0  0  0
  -15.5339  -30.2958   23.7592 H   0  0  0  0  0  0
  -15.8679  -28.0804   22.7029 H   0  0  0  0  0  0
  -24.5896  -30.7103   25.7817 H   0  0  0  0  0  0
  -24.8972  -32.2903   26.4942 H   0  0  0  0  0  0
  -25.8092  -30.8874   27.0233 H   0  0  0  0  0  0
  -26.2873  -29.6803   24.1148 H   0  0  0  0  0  0
  -27.4043  -29.7261   25.4595 H   0  0  0  0  0  0
  -27.8733  -30.4341   23.9317 H   0  0  0  0  0  0
  -27.2671  -33.3579   26.2148 H   0  0  0  0  0  0
  -28.3840  -32.6926   25.0307 H   0  0  0  0  0  0
  -28.0770  -31.8388   26.5362 H   0  0  0  0  0  0
  -28.2604  -38.0114   24.7512 H   0  0  0  0  0  0
  -28.1090  -36.2647   24.6284 H   0  0  0  0  0  0
  -27.2306  -37.1455   25.8861 H   0  0  0  0  0  0
  -20.9284  -29.8811   21.6990 H   0  0  0  0  0  0
  -26.0191  -38.2869   24.1402 H   0  0  0  0  0  0
  -26.7135  -20.8683   19.9831 H   0  0  0  0  0  0
  -26.3225  -18.7205   18.9779 H   0  0  0  0  0  0
  -30.4456  -19.4400   21.6300 H   0  0  0  0  0  0
  -27.3798  -15.6067   15.8327 H   0  0  0  0  0  0
  -27.5394  -14.6075   17.2563 H   0  0  0  0  0  0
  -28.9162  -15.5544   16.6959 H   0  0  0  0  0  0
  -27.8871  -22.6059   19.7559 H   0  0  0  0  0  0
  -27.3190  -22.9007   21.3869 H   0  0  0  0  0  0
  -27.1053  -24.9086   20.0326 H   0  0  0  0  0  0
  -28.3525  -25.0236   18.8019 H   0  0  0  0  0  0
  -26.2870  -16.6821   17.8149 H   0  0  0  0  0  0
  -27.6232  -17.6507   17.1968 H   0  0  0  0  0  0
  -29.9483  -21.8592   21.5839 H   0  0  0  0  0  0
  -28.9613  -15.4658   20.7675 H   0  0  0  0  0  0
  1 25  1  0  0  0
  1 30  2  0  0  0
  1 84  1  0  0  0
  2  3  1  0  0  0
  2 25  1  0  0  0
  2 88  1  0  0  0
  2 89  1  0  0  0
  3  4  1  0  0  0
  3 90  1  0  0  0
  3 91  1  0  0  0
  4  5  1  0  0  0
  4 92  1  0  0  0
  4 93  1  0  0  0
  5  6  1  0  0  0
  5 26  1  0  0  0
  5 94  1  0  0  0
  6 25  1  0  0  0
  6 95  1  0  0  0
  6 96  1  0  0  0
  7  8  2  0  0  0
  7 26  1  0  0  0
  7 29  1  0  0  0
  8  9  1  0  0  0
  8 22  1  0  0  0
  9 10  1  0  0  0
  9 27  2  0  0  0
 10 11  2  0  0  0
 10 15  1  0  0  0
 11 12  1  0  0  0
 11 97  1  0  0  0
 12 13  2  0  0  0
 12 98  1  0  0  0
 13 14  1  0  0  0
 13 31  1  0  0  0
 14 15  2  0  0  0
 14 99  1  0  0  0
 15100  1  0  0  0
 16 17  2  0  0  0
 16 21  1  0  0  0
 16 31  1  0  0  0
 17 18  1  0  0  0
 17101  1  0  0  0
 18 19  2  0  0  0
 18102  1  0  0  0
 19 20  1  0  0  0
 19 24  1  0  0  0
 20 21  2  0  0  0
 20103  1  0  0  0
 21 23  1  0  0  0
 22 28  1  0  0  0
 22 32  2  0  0  0
 26 27  1  0  0  0
 28104  1  0  0  0
 28105  1  0  0  0
 29106  1  0  0  0
 29107  1  0  0  0
 33 34  1  0  0  0
 33 66  1  0  0  0
 33 70  2  0  0  0
 34 36  1  0  0  0
 34 59  1  0  0  0
 34108  1  0  0  0
 35 44  2  0  0  0
 35 45  1  0  0  0
 35 68  1  0  0  0
 36 56  1  0  0  0
 36109  1  0  0  0
 37 39  1  0  0  0
 37 47  1  0  0  0
 37 66  1  0  0  0
 37110  1  0  0  0
 38 43  2  0  0  0
 38 46  1  0  0  0
 38 47  1  0  0  0
 39 64  1  0  0  0
 39 67  2  0  0  0
 40 52  1  0  0  0
 40 53  2  0  0  0
 40 58  1  0  0  0
 41111  1  0  0  0
 41112  1  0  0  0
 41113  1  0  0  0
 41 48  1  0  0  0
 42 43  1  0  0  0
 42 66  1  0  0  0
 42114  1  0  0  0
 42115  1  0  0  0
 43 44  1  0  0  0
 44116  1  0  0  0
 45 46  2  0  0  0
 45117  1  0  0  0
 46118  1  0  0  0
 47119  1  0  0  0
 47120  1  0  0  0
 48 56  1  0  0  0
 48 65  1  0  0  0
 48121  1  0  0  0
 49 50  1  0  0  0
 49 53  1  0  0  0
 49 64  1  0  0  0
 49122  1  0  0  0
 50 51  1  0  0  0
 50123  1  0  0  0
 50124  1  0  0  0
 51 52  1  0  0  0
 51125  1  0  0  0
 51126  1  0  0  0
 52127  1  0  0  0
 52128  1  0  0  0
 53 54  1  0  0  0
 54 55  2  0  0  0
 54129  1  0  0  0
 55 57  1  0  0  0
 55130  1  0  0  0
 56 69  2  0  0  0
 57 58  2  0  0  0
 57131  1  0  0  0
 58132  1  0  0  0
 59 60  1  0  0  0
 59 61  1  0  0  0
 59 62  1  0  0  0
 60133  1  0  0  0
 60134  1  0  0  0
 60135  1  0  0  0
 61136  1  0  0  0
 61137  1  0  0  0
 61138  1  0  0  0
 62139  1  0  0  0
 62140  1  0  0  0
 62141  1  0  0  0
 63 65  1  0  0  0
 63142  1  0  0  0
 63143  1  0  0  0
 63144  1  0  0  0
 64145  1  0  0  0
 65146  1  0  0  0
 68 81  1  0  0  0
 71 72  2  0  0  0
 71 75  1  0  0  0
 71147  1  0  0  0
 72 76  1  0  0  0
 72148  1  0  0  0
 73 74  1  0  0  0
 73 75  2  0  0  0
 73149  1  0  0  0
 74 76  2  0  0  0
 74 77  1  0  0  0
 75 83  1  0  0  0
 76 87  1  0  0  0
 77 84  1  0  0  0
 77 85  2  0  0  0
 78 80  1  0  0  0
 78 81  1  0  0  0
 78 86  2  0  0  0
 79 82  1  0  0  0
 79150  1  0  0  0
 79151  1  0  0  0
 79152  1  0  0  0
 80 83  1  0  0  0
 80153  1  0  0  0
 80154  1  0  0  0
 81155  1  0  0  0
 81156  1  0  0  0
 82 87  1  0  0  0
 82157  1  0  0  0
 82158  1  0  0  0
 83159  1  0  0  0
 84160  1  0  0  0
M  ISO  4   1 100  68 101  81 101  84 100
M  END
> <chiral flag>
0

> <version>
0

> <s_m_source_file>
/data/baiqing/PycharmProjects/Reinvent-master-3.2/result/LINK_invent/BTK/process_docking_weight1_custom_product_contain_oxygen_bond_distance_aromatic_linkinvent_7_9_3/rearranged_h_0108.sdf

> <i_m_source_file_index>
33

> <r_mmod_Potential_Energy-OPLS-2005>
-82.3026123046875

> <r_mmod_Stretch_Energy-OPLS-2005>
43.3574447631836

> <r_mmod_Bend_Energy-OPLS-2005>
119.059898376465

> <r_mmod_Torsional_Energy-OPLS-2005>
227.772430419922

> <r_mmod_Improper_Torsional_Energy-OPLS-2005>
8.65658378601074

> <r_mmod_Van_der_Waal_Energy-OPLS-2005>
173.503845214844

> <r_mmod_Electrostatic_Energy-OPLS-2005>
-433.923095703125

> <r_mmod_Solvation_Energy-OPLS-2005>
-248.670425415039

> <b_mmod_Minimization_Converged-OPLS-2005>
0

> <r_mmod_RMS_Derivative-OPLS-2005>
2.94859385490417

$$$$
34
                    3D
 Structure written by MMmdl.
164173  0  0  1  0            999 V2000
  -30.7621  -14.4544   20.5574 C   0  0  0  0  0  0
  -30.4002  -12.2878   19.4503 C   0  0  0  0  0  0
  -29.4963  -12.4989   18.2203 C   0  0  0  0  0  0
  -28.0156  -12.3667   18.6219 C   0  0  0  0  0  0
  -27.6566  -13.2204   19.8684 C   0  0  2  0  0  0
  -28.6952  -13.0463   21.0000 C   0  0  0  0  0  0
  -25.2567  -13.8197   20.5688 C   0  0  0  0  0  0
  -24.1830  -13.0447   20.9173 C   0  0  0  0  0  0
  -24.6408  -11.6923   20.8735 C   0  0  0  0  0  0
  -23.9085  -10.4300   21.0411 C   0  0  0  0  0  0
  -24.3631   -9.4209   21.9187 C   0  0  0  0  0  0
  -23.6294   -8.2250   22.0764 C   0  0  0  0  0  0
  -22.4277   -8.0293   21.3551 C   0  0  0  0  0  0
  -21.9928   -9.0268   20.4649 C   0  0  0  0  0  0
  -22.7262  -10.2143   20.3057 C   0  0  0  0  0  0
  -21.6859   -6.0742   22.5282 C   0  0  0  0  0  0
  -21.4020   -6.5637   23.8217 C   0  0  0  0  0  0
  -21.3660   -5.6792   24.9182 C   0  0  0  0  0  0
  -21.6044   -4.3057   24.7230 C   0  0  0  0  0  0
  -21.8818   -3.8149   23.4351 C   0  0  0  0  0  0
  -21.9197   -4.6969   22.3408 C   0  0  0  0  0  0
  -22.7852  -13.5238   21.1833 C   0  0  0  0  0  0
  -22.1663   -4.2153   21.0988 F   0  0  0  0  0  0
  -21.5626   -3.4539   25.7738 F   0  0  0  0  0  0
  -30.0298  -13.3102   20.4450 N   0  0  0  0  0  0
  -26.3006  -12.9393   20.3340 N   0  0  0  0  0  0
  -25.9337  -11.6538   20.5753 N   0  0  0  0  0  0
  -22.0503  -12.8223   22.0393 N   0  0  0  0  0  0
  -25.4282  -15.1915   20.4109 N   0  0  0  0  0  0
  -31.9108  -14.5159   20.1117 O   0  0  0  0  0  0
  -21.6639   -6.8890   21.4247 O   0  0  0  0  0  0
  -22.3531  -14.5543   20.6688 O   0  0  0  0  0  0
  -24.6126  -31.8678   23.2094 C   0  0  0  0  0  0
  -25.9018  -32.4823   23.8390 C   0  0  1  0  0  0
  -27.2387  -27.4475   20.1076 C   0  0  0  0  0  0
  -25.5876  -33.8619   24.2325 N   0  0  0  0  0  0
  -23.4029  -30.4902   21.5480 C   0  0  2  0  0  0
  -24.8547  -28.9598   20.1119 C   0  0  0  0  0  0
  -22.7413  -29.4653   22.4973 C   0  0  0  0  0  0
  -18.0269  -28.1383   22.8496 C   0  0  0  0  0  0
  -24.1483  -36.7317   23.2640 C   0  0  0  0  0  0
  -25.9293  -30.8408   21.3609 C   0  0  0  0  0  0
  -26.0117  -29.4757   20.7097 C   0  0  0  0  0  0
  -27.2107  -28.7271   20.7049 C   0  0  0  0  0  0
  -26.0719  -26.9444   19.4973 C   0  0  0  0  0  0
  -24.8783  -27.6921   19.5021 C   0  0  0  0  0  0
  -23.6127  -29.8213   20.1626 C   0  0  0  0  0  0
  -25.4104  -36.3111   24.0337 C   0  0  1  0  0  0
  -20.5861  -28.3668   23.1316 C   0  0  2  0  0  0
  -20.6754  -26.9399   22.5422 C   0  0  0  0  0  0
  -19.5729  -26.6383   21.5220 C   0  0  0  0  0  0
  -18.1909  -26.7930   22.1630 C   0  0  0  0  0  0
  -19.1519  -28.8844   23.2906 C   0  0  0  0  0  0
  -18.9448  -30.1457   23.8905 C   0  0  0  0  0  0
  -17.6450  -30.6589   24.0574 C   0  0  0  0  0  0
  -25.9033  -34.9477   23.5135 C   0  0  0  0  0  0
  -16.5342  -29.9094   23.6327 C   0  0  0  0  0  0
  -16.7262  -28.6513   23.0344 C   0  0  0  0  0  0
  -26.4454  -31.6598   25.0713 C   0  0  0  0  0  0
  -25.3731  -31.3694   26.1469 C   0  0  0  0  0  0
  -27.0274  -30.3033   24.6080 C   0  0  0  0  0  0
  -27.6022  -32.4313   25.7491 C   0  0  0  0  0  0
  -27.5589  -37.1800   24.8457 C   0  0  0  0  0  0
  -21.4141  -29.3031   22.3718 N   0  0  0  0  0  0
  -26.4288  -37.3801   23.9424 N   0  0  0  0  0  0
  -24.6661  -31.0800   22.0985 N   0  0  0  0  0  0
  -23.4191  -28.8187   23.3010 O   0  0  0  0  0  0
  -28.3677  -26.6635   20.1504 O   0  0  0  0  0  0
  -26.5611  -34.8930   22.4708 O   0  0  0  0  0  0
  -23.5318  -32.1419   23.7495 O   0  0  0  0  0  0
  -31.2149  -18.8743   22.5068 C   0  0  0  0  0  0
  -31.1220  -20.2752   22.6218 C   0  0  0  0  0  0
  -29.4982  -20.3124   20.8272 C   0  0  0  0  0  0
  -30.4903  -18.1735   21.5206 C   0  0  0  0  0  0
  -29.5860  -18.9025   20.7028 C   0  0  0  0  0  0
  -30.2966  -21.0247   21.7524 C   0  0  0  0  0  0
  -29.4328  -24.6545   21.2548 C   0  0  0  0  0  0
  -29.2663  -23.3439   21.6113 C   0  0  0  0  0  0
  -30.8012  -25.1581   20.9680 C   0  0  0  0  0  0
  -30.8513  -16.7562   21.2957 C   0  0  0  0  0  0
  -30.0847  -15.6754   21.0042 C   0  0  0  0  0  0
  -31.9017  -24.1192   20.7875 C   0  0  0  0  0  0
  -31.7179  -22.9592   21.7717 C   0  0  0  0  0  0
  -28.7836  -18.2189   19.6085 C   0  0  0  0  0  0
  -27.9006  -22.7985   22.0218 C   0  0  0  0  0  0
  -28.2937  -25.6893   21.2083 C   0  0  0  0  0  0
  -30.3423  -22.4441   21.7552 N   0  0  0  0  0  0
  -31.1020  -26.3532   20.8806 O   0  0  0  0  0  0
  -31.4515  -12.3268   19.1592 H   0  0  0  0  0  0
  -30.2510  -11.2913   19.8691 H   0  0  0  0  0  0
  -29.7406  -11.7770   17.4410 H   0  0  0  0  0  0
  -29.6788  -13.4868   17.7947 H   0  0  0  0  0  0
  -27.8216  -11.3129   18.8257 H   0  0  0  0  0  0
  -27.3738  -12.6358   17.7822 H   0  0  0  0  0  0
  -27.6898  -14.2616   19.5488 H   0  0  0  0  0  0
  -28.6598  -12.0310   21.3976 H   0  0  0  0  0  0
  -28.4663  -13.6981   21.8437 H   0  0  0  0  0  0
  -25.2787   -9.5676   22.4752 H   0  0  0  0  0  0
  -24.0004   -7.4649   22.7489 H   0  0  0  0  0  0
  -21.0866   -8.8792   19.8946 H   0  0  0  0  0  0
  -22.3736  -10.9682   19.6157 H   0  0  0  0  0  0
  -21.2016   -7.6150   23.9707 H   0  0  0  0  0  0
  -21.1477   -6.0533   25.9077 H   0  0  0  0  0  0
  -22.0597   -2.7608   23.2853 H   0  0  0  0  0  0
  -22.4124  -11.9879   22.4771 H   0  0  0  0  0  0
  -21.1119  -13.1241   22.2590 H   0  0  0  0  0  0
  -24.6660  -15.8511   20.5235 H   0  0  0  0  0  0
  -26.2864  -15.6295   20.1013 H   0  0  0  0  0  0
  -26.7097  -32.5554   23.1168 H   0  0  0  0  0  0
  -24.9994  -33.9778   25.0446 H   0  0  0  0  0  0
  -22.6908  -31.3063   21.4070 H   0  0  0  0  0  0
  -23.3748  -35.9644   23.3290 H   0  0  0  0  0  0
  -24.3585  -36.8950   22.2059 H   0  0  0  0  0  0
  -23.7221  -37.6511   23.6666 H   0  0  0  0  0  0
  -26.0379  -31.6082   20.5927 H   0  0  0  0  0  0
  -26.8173  -30.8954   21.9784 H   0  0  0  0  0  0
  -28.1028  -29.1161   21.1751 H   0  0  0  0  0  0
  -26.0838  -25.9660   19.0370 H   0  0  0  0  0  0
  -23.9889  -27.2864   19.0407 H   0  0  0  0  0  0
  -23.7190  -30.5957   19.4023 H   0  0  0  0  0  0
  -22.7391  -29.2373   19.8677 H   0  0  0  0  0  0
  -25.1273  -36.1976   25.0829 H   0  0  0  0  0  0
  -20.9965  -28.3236   24.1434 H   0  0  0  0  0  0
  -20.5652  -26.2275   23.3611 H   0  0  0  0  0  0
  -21.6624  -26.7432   22.1219 H   0  0  0  0  0  0
  -19.6890  -25.6300   21.1236 H   0  0  0  0  0  0
  -19.6673  -27.3209   20.6760 H   0  0  0  0  0  0
  -17.4185  -26.6702   21.4027 H   0  0  0  0  0  0
  -18.0301  -26.0067   22.9016 H   0  0  0  0  0  0
  -19.7924  -30.7278   24.2267 H   0  0  0  0  0  0
  -17.5007  -31.6265   24.5184 H   0  0  0  0  0  0
  -15.5346  -30.3005   23.7640 H   0  0  0  0  0  0
  -15.8663  -28.0848   22.7034 H   0  0  0  0  0  0
  -24.5890  -30.7054   25.7809 H   0  0  0  0  0  0
  -24.8938  -32.2848   26.4946 H   0  0  0  0  0  0
  -25.8097  -30.8842   27.0208 H   0  0  0  0  0  0
  -26.2808  -29.6814   24.1118 H   0  0  0  0  0  0
  -27.4020  -29.7243   25.4535 H   0  0  0  0  0  0
  -27.8660  -30.4335   23.9232 H   0  0  0  0  0  0
  -27.2613  -33.3581   26.2112 H   0  0  0  0  0  0
  -28.3815  -32.6921   25.0322 H   0  0  0  0  0  0
  -28.0704  -31.8414   26.5380 H   0  0  0  0  0  0
  -28.2568  -38.0136   24.7567 H   0  0  0  0  0  0
  -28.1119  -36.2672   24.6195 H   0  0  0  0  0  0
  -27.2321  -37.1350   25.8860 H   0  0  0  0  0  0
  -20.9292  -29.8781   21.6969 H   0  0  0  0  0  0
  -26.0175  -38.2867   24.1469 H   0  0  0  0  0  0
  -31.9061  -18.3440   23.1475 H   0  0  0  0  0  0
  -31.7319  -20.7752   23.3617 H   0  0  0  0  0  0
  -28.8581  -20.8647   20.1546 H   0  0  0  0  0  0
  -31.9245  -16.6171   21.2954 H   0  0  0  0  0  0
  -29.0094  -15.7429   21.0316 H   0  0  0  0  0  0
  -32.8800  -24.5801   20.9222 H   0  0  0  0  0  0
  -31.8584  -23.7490   19.7638 H   0  0  0  0  0  0
  -31.9573  -23.2904   22.7837 H   0  0  0  0  0  0
  -32.4470  -22.1876   21.5174 H   0  0  0  0  0  0
  -28.2699  -18.9414   18.9741 H   0  0  0  0  0  0
  -28.0279  -17.5646   20.0423 H   0  0  0  0  0  0
  -29.4370  -17.6250   18.9677 H   0  0  0  0  0  0
  -27.4149  -23.4778   22.7236 H   0  0  0  0  0  0
  -27.9508  -21.8355   22.5287 H   0  0  0  0  0  0
  -27.2542  -22.6884   21.1501 H   0  0  0  0  0  0
  -28.2888  -26.2119   22.1664 H   0  0  0  0  0  0
  -27.3394  -25.1676   21.1378 H   0  0  0  0  0  0
  1 25  1  0  0  0
  1 30  2  0  0  0
  1 81  1  0  0  0
  2  3  1  0  0  0
  2 25  1  0  0  0
  2 89  1  0  0  0
  2 90  1  0  0  0
  3  4  1  0  0  0
  3 91  1  0  0  0
  3 92  1  0  0  0
  4  5  1  0  0  0
  4 93  1  0  0  0
  4 94  1  0  0  0
  5  6  1  0  0  0
  5 26  1  0  0  0
  5 95  1  0  0  0
  6 25  1  0  0  0
  6 96  1  0  0  0
  6 97  1  0  0  0
  7  8  2  0  0  0
  7 26  1  0  0  0
  7 29  1  0  0  0
  8  9  1  0  0  0
  8 22  1  0  0  0
  9 10  1  0  0  0
  9 27  2  0  0  0
 10 11  2  0  0  0
 10 15  1  0  0  0
 11 12  1  0  0  0
 11 98  1  0  0  0
 12 13  2  0  0  0
 12 99  1  0  0  0
 13 14  1  0  0  0
 13 31  1  0  0  0
 14 15  2  0  0  0
 14100  1  0  0  0
 15101  1  0  0  0
 16 17  2  0  0  0
 16 21  1  0  0  0
 16 31  1  0  0  0
 17 18  1  0  0  0
 17102  1  0  0  0
 18 19  2  0  0  0
 18103  1  0  0  0
 19 20  1  0  0  0
 19 24  1  0  0  0
 20 21  2  0  0  0
 20104  1  0  0  0
 21 23  1  0  0  0
 22 28  1  0  0  0
 22 32  2  0  0  0
 26 27  1  0  0  0
 28105  1  0  0  0
 28106  1  0  0  0
 29107  1  0  0  0
 29108  1  0  0  0
 33 34  1  0  0  0
 33 66  1  0  0  0
 33 70  2  0  0  0
 34 36  1  0  0  0
 34 59  1  0  0  0
 34109  1  0  0  0
 35 44  2  0  0  0
 35 45  1  0  0  0
 35 68  1  0  0  0
 36 56  1  0  0  0
 36110  1  0  0  0
 37 39  1  0  0  0
 37 47  1  0  0  0
 37 66  1  0  0  0
 37111  1  0  0  0
 38 43  2  0  0  0
 38 46  1  0  0  0
 38 47  1  0  0  0
 39 64  1  0  0  0
 39 67  2  0  0  0
 40 52  1  0  0  0
 40 53  2  0  0  0
 40 58  1  0  0  0
 41112  1  0  0  0
 41113  1  0  0  0
 41114  1  0  0  0
 41 48  1  0  0  0
 42 43  1  0  0  0
 42 66  1  0  0  0
 42115  1  0  0  0
 42116  1  0  0  0
 43 44  1  0  0  0
 44117  1  0  0  0
 45 46  2  0  0  0
 45118  1  0  0  0
 46119  1  0  0  0
 47120  1  0  0  0
 47121  1  0  0  0
 48 56  1  0  0  0
 48 65  1  0  0  0
 48122  1  0  0  0
 49 50  1  0  0  0
 49 53  1  0  0  0
 49 64  1  0  0  0
 49123  1  0  0  0
 50 51  1  0  0  0
 50124  1  0  0  0
 50125  1  0  0  0
 51 52  1  0  0  0
 51126  1  0  0  0
 51127  1  0  0  0
 52128  1  0  0  0
 52129  1  0  0  0
 53 54  1  0  0  0
 54 55  2  0  0  0
 54130  1  0  0  0
 55 57  1  0  0  0
 55131  1  0  0  0
 56 69  2  0  0  0
 57 58  2  0  0  0
 57132  1  0  0  0
 58133  1  0  0  0
 59 60  1  0  0  0
 59 61  1  0  0  0
 59 62  1  0  0  0
 60134  1  0  0  0
 60135  1  0  0  0
 60136  1  0  0  0
 61137  1  0  0  0
 61138  1  0  0  0
 61139  1  0  0  0
 62140  1  0  0  0
 62141  1  0  0  0
 62142  1  0  0  0
 63 65  1  0  0  0
 63143  1  0  0  0
 63144  1  0  0  0
 63145  1  0  0  0
 64146  1  0  0  0
 65147  1  0  0  0
 68 86  1  0  0  0
 71 72  2  0  0  0
 71 74  1  0  0  0
 71148  1  0  0  0
 72 76  1  0  0  0
 72149  1  0  0  0
 73 75  1  0  0  0
 73 76  2  0  0  0
 73150  1  0  0  0
 74 75  2  0  0  0
 74 80  1  0  0  0
 75 84  1  0  0  0
 76 87  1  0  0  0
 77 78  2  0  0  0
 77 79  1  0  0  0
 77 86  1  0  0  0
 78 85  1  0  0  0
 78 87  1  0  0  0
 79 82  1  0  0  0
 79 88  2  0  0  0
 80 81  2  0  0  0
 80151  1  0  0  0
 81152  1  0  0  0
 82 83  1  0  0  0
 82153  1  0  0  0
 82154  1  0  0  0
 83 87  1  0  0  0
 83155  1  0  0  0
 83156  1  0  0  0
 84157  1  0  0  0
 84158  1  0  0  0
 84159  1  0  0  0
 85160  1  0  0  0
 85161  1  0  0  0
 85162  1  0  0  0
 86163  1  0  0  0
 86164  1  0  0  0
M  ISO  4   1 100  68 101  81 100  86 101
M  END
> <chiral flag>
0

> <version>
0

> <s_m_source_file>
/data/baiqing/PycharmProjects/Reinvent-master-3.2/result/LINK_invent/BTK/process_docking_weight1_custom_product_contain_oxygen_bond_distance_aromatic_linkinvent_7_9_3/rearranged_h_0108.sdf

> <i_m_source_file_index>
34

> <r_mmod_Potential_Energy-OPLS-2005>
33.7237358093262

> <r_mmod_Stretch_Energy-OPLS-2005>
43.5418510437012

> <r_mmod_Bend_Energy-OPLS-2005>
105.730155944824

> <r_mmod_Torsional_Energy-OPLS-2005>
220.865447998047

> <r_mmod_Improper_Torsional_Energy-OPLS-2005>
7.75437068939209

> <r_mmod_Van_der_Waal_Energy-OPLS-2005>
182.609970092773

> <r_mmod_Electrostatic_Energy-OPLS-2005>
-337.381256103516

> <r_mmod_Solvation_Energy-OPLS-2005>
-207.4794921875

> <b_mmod_Minimization_Converged-OPLS-2005>
0

> <r_mmod_RMS_Derivative-OPLS-2005>
1.51502442359924

$$$$
35
                    3D
 Structure written by MMmdl.
168176  0  0  1  0            999 V2000
  -30.7978  -14.3641   20.7076 C   0  0  0  0  0  0
  -30.4179  -12.3069   19.3968 C   0  0  0  0  0  0
  -29.4905  -12.5798   18.1973 C   0  0  0  0  0  0
  -28.0102  -12.4383   18.5973 C   0  0  0  0  0  0
  -27.6762  -13.2126   19.8970 C   0  0  2  0  0  0
  -28.7136  -12.9076   20.9991 C   0  0  0  0  0  0
  -25.2625  -13.8159   20.5681 C   0  0  0  0  0  0
  -24.1878  -13.0443   20.9138 C   0  0  0  0  0  0
  -24.6442  -11.6904   20.8708 C   0  0  0  0  0  0
  -23.9112  -10.4276   21.0365 C   0  0  0  0  0  0
  -24.3647   -9.4190   21.9156 C   0  0  0  0  0  0
  -23.6306   -8.2237   22.0744 C   0  0  0  0  0  0
  -22.4271   -8.0293   21.3553 C   0  0  0  0  0  0
  -21.9924   -9.0260   20.4633 C   0  0  0  0  0  0
  -22.7272  -10.2126   20.3029 C   0  0  0  0  0  0
  -21.6856   -6.0740   22.5279 C   0  0  0  0  0  0
  -21.4020   -6.5642   23.8210 C   0  0  0  0  0  0
  -21.3668   -5.6796   24.9169 C   0  0  0  0  0  0
  -21.6049   -4.3058   24.7227 C   0  0  0  0  0  0
  -21.8821   -3.8151   23.4345 C   0  0  0  0  0  0
  -21.9192   -4.6969   22.3396 C   0  0  0  0  0  0
  -22.7885  -13.5221   21.1790 C   0  0  0  0  0  0
  -22.1656   -4.2152   21.0975 F   0  0  0  0  0  0
  -21.5625   -3.4545   25.7737 F   0  0  0  0  0  0
  -30.0608  -13.2324   20.4884 N   0  0  0  0  0  0
  -26.3112  -12.9371   20.3458 N   0  0  0  0  0  0
  -25.9387  -11.6523   20.5782 N   0  0  0  0  0  0
  -22.0523  -12.8228   22.0350 N   0  0  0  0  0  0
  -25.4327  -15.1884   20.4120 N   0  0  0  0  0  0
  -31.7554  -14.6741   19.9875 O   0  0  0  0  0  0
  -21.6649   -6.8881   21.4240 O   0  0  0  0  0  0
  -22.3577  -14.5525   20.6619 O   0  0  0  0  0  0
  -24.6155  -31.8686   23.2084 C   0  0  0  0  0  0
  -25.9055  -32.4825   23.8391 C   0  0  1  0  0  0
  -27.2527  -27.4290   20.1181 C   0  0  0  0  0  0
  -25.5921  -33.8621   24.2311 N   0  0  0  0  0  0
  -23.4079  -30.4910   21.5451 C   0  0  2  0  0  0
  -24.8630  -28.9498   20.1184 C   0  0  0  0  0  0
  -22.7432  -29.4685   22.4960 C   0  0  0  0  0  0
  -18.0283  -28.1389   22.8495 C   0  0  0  0  0  0
  -24.1496  -36.7289   23.2644 C   0  0  0  0  0  0
  -25.9381  -30.8271   21.3720 C   0  0  0  0  0  0
  -26.0188  -29.4568   20.7277 C   0  0  0  0  0  0
  -27.2168  -28.7010   20.7362 C   0  0  0  0  0  0
  -26.0866  -26.9409   19.4954 C   0  0  0  0  0  0
  -24.8910  -27.6855   19.5010 C   0  0  0  0  0  0
  -23.6227  -29.8162   20.1617 C   0  0  0  0  0  0
  -25.4130  -36.3107   24.0335 C   0  0  1  0  0  0
  -20.5887  -28.3681   23.1292 C   0  0  2  0  0  0
  -20.6769  -26.9408   22.5407 C   0  0  0  0  0  0
  -19.5749  -26.6385   21.5209 C   0  0  0  0  0  0
  -18.1932  -26.7929   22.1624 C   0  0  0  0  0  0
  -19.1537  -28.8846   23.2889 C   0  0  0  0  0  0
  -18.9462  -30.1452   23.8896 C   0  0  0  0  0  0
  -17.6469  -30.6585   24.0568 C   0  0  0  0  0  0
  -25.9057  -34.9477   23.5118 C   0  0  0  0  0  0
  -16.5364  -29.9085   23.6343 C   0  0  0  0  0  0
  -16.7271  -28.6506   23.0352 C   0  0  0  0  0  0
  -26.4482  -31.6617   25.0721 C   0  0  0  0  0  0
  -25.3754  -31.3730   26.1471 C   0  0  0  0  0  0
  -27.0298  -30.3048   24.6112 C   0  0  0  0  0  0
  -27.6031  -32.4367   25.7491 C   0  0  0  0  0  0
  -27.5586  -37.1809   24.8475 C   0  0  0  0  0  0
  -21.4152  -29.3046   22.3677 N   0  0  0  0  0  0
  -26.4309  -37.3794   23.9420 N   0  0  0  0  0  0
  -24.6702  -31.0783   22.0984 N   0  0  0  0  0  0
  -23.4189  -28.8245   23.3021 O   0  0  0  0  0  0
  -28.3893  -26.6520   20.0342 O   0  0  0  0  0  0
  -26.5605  -34.8926   22.4674 O   0  0  0  0  0  0
  -23.5345  -32.1460   23.7466 O   0  0  0  0  0  0
  -29.8862  -17.5003   21.1030 C   0  0  0  0  0  0
  -32.2653  -18.6300   22.0197 C   0  0  0  0  0  0
  -30.8173  -16.6734   21.7752 C   0  0  0  0  0  0
  -32.0118  -17.2636   22.2686 C   0  0  0  0  0  0
  -31.3520  -19.4464   21.3108 C   0  0  0  0  0  0
  -30.1302  -18.8819   20.8729 C   0  0  0  0  0  0
  -30.4960  -15.2262   21.9400 C   0  0  0  0  0  0
  -30.9511  -22.8033   22.2540 C   0  0  0  0  0  0
  -34.2510  -16.0795   22.1206 C   0  0  0  0  0  0
  -27.9208  -19.2214   20.0093 C   0  0  0  0  0  0
  -33.0735  -16.4696   23.0273 C   0  0  0  0  0  0
  -31.7908  -20.8743   20.9348 C   0  0  0  0  0  0
  -30.4294  -24.2604   22.2204 C   0  0  0  0  0  0
  -29.4568  -24.7040   21.0954 C   0  0  0  0  0  0
  -28.9646  -26.1768   21.2580 C   0  0  0  0  0  0
  -30.0766  -14.7990   23.0578 N   0  0  0  0  0  0
  -30.8770  -22.0084   21.1740 N   0  0  0  0  0  0
  -31.5183  -22.4223   23.2788 O   0  0  0  0  0  0
  -29.2438  -19.7018   20.2062 O   0  0  0  0  0  0
  -31.4612  -12.4026   19.0882 H   0  0  0  0  0  0
  -30.3097  -11.2729   19.7299 H   0  0  0  0  0  0
  -29.7208  -11.9005   17.3733 H   0  0  0  0  0  0
  -29.6822  -13.5882   17.8246 H   0  0  0  0  0  0
  -27.7873  -11.3785   18.7189 H   0  0  0  0  0  0
  -27.3723  -12.7886   17.7868 H   0  0  0  0  0  0
  -27.7474  -14.2777   19.6785 H   0  0  0  0  0  0
  -28.6879  -11.8451   21.2510 H   0  0  0  0  0  0
  -28.4282  -13.4213   21.9124 H   0  0  0  0  0  0
  -25.2803   -9.5671   22.4725 H   0  0  0  0  0  0
  -24.0010   -7.4646   22.7490 H   0  0  0  0  0  0
  -21.0842   -8.8807   19.8947 H   0  0  0  0  0  0
  -22.3749  -10.9670   19.6135 H   0  0  0  0  0  0
  -21.2016   -7.6152   23.9715 H   0  0  0  0  0  0
  -21.1482   -6.0520   25.9070 H   0  0  0  0  0  0
  -22.0586   -2.7615   23.2848 H   0  0  0  0  0  0
  -22.4202  -11.9945   22.4796 H   0  0  0  0  0  0
  -21.1116  -13.1230   22.2499 H   0  0  0  0  0  0
  -24.6645  -15.8404   20.5292 H   0  0  0  0  0  0
  -26.2896  -15.6332   20.1102 H   0  0  0  0  0  0
  -26.7138  -32.5552   23.1159 H   0  0  0  0  0  0
  -25.0125  -33.9788   25.0493 H   0  0  0  0  0  0
  -22.7022  -31.3119   21.4025 H   0  0  0  0  0  0
  -23.3771  -35.9610   23.3325 H   0  0  0  0  0  0
  -24.3579  -36.8877   22.2054 H   0  0  0  0  0  0
  -23.7237  -37.6496   23.6629 H   0  0  0  0  0  0
  -26.0705  -31.5921   20.6048 H   0  0  0  0  0  0
  -26.8172  -30.8732   22.0016 H   0  0  0  0  0  0
  -28.1098  -29.0946   21.1987 H   0  0  0  0  0  0
  -26.1129  -25.9764   19.0096 H   0  0  0  0  0  0
  -24.0071  -27.2895   19.0214 H   0  0  0  0  0  0
  -23.7375  -30.5903   19.4036 H   0  0  0  0  0  0
  -22.7488  -29.2348   19.8600 H   0  0  0  0  0  0
  -25.1317  -36.1957   25.0826 H   0  0  0  0  0  0
  -20.9989  -28.3235   24.1407 H   0  0  0  0  0  0
  -20.5673  -26.2287   23.3593 H   0  0  0  0  0  0
  -21.6646  -26.7438   22.1210 H   0  0  0  0  0  0
  -19.6904  -25.6290   21.1239 H   0  0  0  0  0  0
  -19.6687  -27.3189   20.6734 H   0  0  0  0  0  0
  -17.4202  -26.6695   21.4010 H   0  0  0  0  0  0
  -18.0322  -26.0052   22.9004 H   0  0  0  0  0  0
  -19.7941  -30.7277   24.2249 H   0  0  0  0  0  0
  -17.5023  -31.6263   24.5177 H   0  0  0  0  0  0
  -15.5366  -30.2995   23.7643 H   0  0  0  0  0  0
  -15.8674  -28.0825   22.7064 H   0  0  0  0  0  0
  -24.5931  -30.7063   25.7818 H   0  0  0  0  0  0
  -24.8956  -32.2886   26.4930 H   0  0  0  0  0  0
  -25.8135  -30.8905   27.0226 H   0  0  0  0  0  0
  -26.2813  -29.6830   24.1174 H   0  0  0  0  0  0
  -27.4058  -29.7267   25.4580 H   0  0  0  0  0  0
  -27.8672  -30.4364   23.9257 H   0  0  0  0  0  0
  -27.2603  -33.3670   26.2054 H   0  0  0  0  0  0
  -28.3828  -32.6957   25.0302 H   0  0  0  0  0  0
  -28.0703  -31.8524   26.5433 H   0  0  0  0  0  0
  -28.2629  -38.0085   24.7524 H   0  0  0  0  0  0
  -28.1057  -36.2624   24.6302 H   0  0  0  0  0  0
  -27.2295  -37.1460   25.8874 H   0  0  0  0  0  0
  -20.9304  -29.8763   21.6900 H   0  0  0  0  0  0
  -26.0190  -38.2870   24.1416 H   0  0  0  0  0  0
  -28.9804  -17.0318   20.7462 H   0  0  0  0  0  0
  -33.2008  -19.0549   22.3557 H   0  0  0  0  0  0
  -34.9941  -15.4937   22.6626 H   0  0  0  0  0  0
  -34.7547  -16.9615   21.7183 H   0  0  0  0  0  0
  -33.9164  -15.4799   21.2756 H   0  0  0  0  0  0
  -27.9036  -18.4019   19.2880 H   0  0  0  0  0  0
  -27.2898  -20.0196   19.6202 H   0  0  0  0  0  0
  -27.4752  -18.8862   20.9467 H   0  0  0  0  0  0
  -32.6585  -15.5783   23.4977 H   0  0  0  0  0  0
  -33.4306  -17.0764   23.8617 H   0  0  0  0  0  0
  -32.0126  -20.8620   19.8694 H   0  0  0  0  0  0
  -32.7532  -21.0904   21.4038 H   0  0  0  0  0  0
  -31.3156  -24.8952   22.1701 H   0  0  0  0  0  0
  -29.9751  -24.4619   23.1912 H   0  0  0  0  0  0
  -28.5952  -24.0367   21.0611 H   0  0  0  0  0  0
  -29.9606  -24.5965   20.1349 H   0  0  0  0  0  0
  -28.2518  -26.2372   22.0831 H   0  0  0  0  0  0
  -29.7957  -26.8353   21.5187 H   0  0  0  0  0  0
  -29.9982  -15.5718   23.7064 H   0  0  0  0  0  0
  -30.3597  -22.3404   20.3727 H   0  0  0  0  0  0
  1 25  1  0  0  0
  1 30  2  0  0  0
  1 77  1  0  0  0
  2  3  1  0  0  0
  2 25  1  0  0  0
  2 90  1  0  0  0
  2 91  1  0  0  0
  3  4  1  0  0  0
  3 92  1  0  0  0
  3 93  1  0  0  0
  4  5  1  0  0  0
  4 94  1  0  0  0
  4 95  1  0  0  0
  5  6  1  0  0  0
  5 26  1  0  0  0
  5 96  1  0  0  0
  6 25  1  0  0  0
  6 97  1  0  0  0
  6 98  1  0  0  0
  7  8  2  0  0  0
  7 26  1  0  0  0
  7 29  1  0  0  0
  8  9  1  0  0  0
  8 22  1  0  0  0
  9 10  1  0  0  0
  9 27  2  0  0  0
 10 11  2  0  0  0
 10 15  1  0  0  0
 11 12  1  0  0  0
 11 99  1  0  0  0
 12 13  2  0  0  0
 12100  1  0  0  0
 13 14  1  0  0  0
 13 31  1  0  0  0
 14 15  2  0  0  0
 14101  1  0  0  0
 15102  1  0  0  0
 16 17  2  0  0  0
 16 21  1  0  0  0
 16 31  1  0  0  0
 17 18  1  0  0  0
 17103  1  0  0  0
 18 19  2  0  0  0
 18104  1  0  0  0
 19 20  1  0  0  0
 19 24  1  0  0  0
 20 21  2  0  0  0
 20105  1  0  0  0
 21 23  1  0  0  0
 22 28  1  0  0  0
 22 32  2  0  0  0
 26 27  1  0  0  0
 28106  1  0  0  0
 28107  1  0  0  0
 29108  1  0  0  0
 29109  1  0  0  0
 33 34  1  0  0  0
 33 66  1  0  0  0
 33 70  2  0  0  0
 34 36  1  0  0  0
 34 59  1  0  0  0
 34110  1  0  0  0
 35 44  2  0  0  0
 35 45  1  0  0  0
 35 68  1  0  0  0
 36 56  1  0  0  0
 36111  1  0  0  0
 37 39  1  0  0  0
 37 47  1  0  0  0
 37 66  1  0  0  0
 37112  1  0  0  0
 38 43  2  0  0  0
 38 46  1  0  0  0
 38 47  1  0  0  0
 39 64  1  0  0  0
 39 67  2  0  0  0
 40 52  1  0  0  0
 40 53  2  0  0  0
 40 58  1  0  0  0
 41113  1  0  0  0
 41114  1  0  0  0
 41115  1  0  0  0
 41 48  1  0  0  0
 42 43  1  0  0  0
 42 66  1  0  0  0
 42116  1  0  0  0
 42117  1  0  0  0
 43 44  1  0  0  0
 44118  1  0  0  0
 45 46  2  0  0  0
 45119  1  0  0  0
 46120  1  0  0  0
 47121  1  0  0  0
 47122  1  0  0  0
 48 56  1  0  0  0
 48 65  1  0  0  0
 48123  1  0  0  0
 49 50  1  0  0  0
 49 53  1  0  0  0
 49 64  1  0  0  0
 49124  1  0  0  0
 50 51  1  0  0  0
 50125  1  0  0  0
 50126  1  0  0  0
 51 52  1  0  0  0
 51127  1  0  0  0
 51128  1  0  0  0
 52129  1  0  0  0
 52130  1  0  0  0
 53 54  1  0  0  0
 54 55  2  0  0  0
 54131  1  0  0  0
 55 57  1  0  0  0
 55132  1  0  0  0
 56 69  2  0  0  0
 57 58  2  0  0  0
 57133  1  0  0  0
 58134  1  0  0  0
 59 60  1  0  0  0
 59 61  1  0  0  0
 59 62  1  0  0  0
 60135  1  0  0  0
 60136  1  0  0  0
 60137  1  0  0  0
 61138  1  0  0  0
 61139  1  0  0  0
 61140  1  0  0  0
 62141  1  0  0  0
 62142  1  0  0  0
 62143  1  0  0  0
 63 65  1  0  0  0
 63144  1  0  0  0
 63145  1  0  0  0
 63146  1  0  0  0
 64147  1  0  0  0
 65148  1  0  0  0
 68 85  1  0  0  0
 71 73  2  0  0  0
 71 76  1  0  0  0
 71149  1  0  0  0
 72 74  2  0  0  0
 72 75  1  0  0  0
 72150  1  0  0  0
 73 74  1  0  0  0
 73 77  1  0  0  0
 74 81  1  0  0  0
 75 76  2  0  0  0
 75 82  1  0  0  0
 76 89  1  0  0  0
 77 86  2  0  0  0
 78 83  1  0  0  0
 78 87  1  0  0  0
 78 88  2  0  0  0
 79 81  1  0  0  0
 79151  1  0  0  0
 79152  1  0  0  0
 79153  1  0  0  0
 80 89  1  0  0  0
 80154  1  0  0  0
 80155  1  0  0  0
 80156  1  0  0  0
 81157  1  0  0  0
 81158  1  0  0  0
 82 87  1  0  0  0
 82159  1  0  0  0
 82160  1  0  0  0
 83 84  1  0  0  0
 83161  1  0  0  0
 83162  1  0  0  0
 84 85  1  0  0  0
 84163  1  0  0  0
 84164  1  0  0  0
 85165  1  0  0  0
 85166  1  0  0  0
 86167  1  0  0  0
 87168  1  0  0  0
M  ISO  4   1 100  68 101  77 100  85 101
M  END
> <chiral flag>
0

> <version>
0

> <s_m_source_file>
/data/baiqing/PycharmProjects/Reinvent-master-3.2/result/LINK_invent/BTK/process_docking_weight1_custom_product_contain_oxygen_bond_distance_aromatic_linkinvent_7_9_3/rearranged_h_0108.sdf

> <i_m_source_file_index>
35

> <r_mmod_Potential_Energy-OPLS-2005>
40.6581268310547

> <r_mmod_Stretch_Energy-OPLS-2005>
45.1788291931152

> <r_mmod_Bend_Energy-OPLS-2005>
125.842071533203

> <r_mmod_Torsional_Energy-OPLS-2005>
243.724609375

> <r_mmod_Improper_Torsional_Energy-OPLS-2005>
4.49056911468506

> <r_mmod_Van_der_Waal_Energy-OPLS-2005>
154.835678100586

> <r_mmod_Electrostatic_Energy-OPLS-2005>
-321.053497314453

> <r_mmod_Solvation_Energy-OPLS-2005>
-222.322418212891

> <b_mmod_Minimization_Converged-OPLS-2005>
0

> <r_mmod_RMS_Derivative-OPLS-2005>
4.14863443374634

$$$$
36
                    3D
 Structure written by MMmdl.
159168  0  0  1  0            999 V2000
  -30.6188  -14.6509   20.5090 C   0  0  0  0  0  0
  -30.4396  -12.3964   19.4644 C   0  0  0  0  0  0
  -29.5134  -12.5095   18.2328 C   0  0  0  0  0  0
  -28.0350  -12.3450   18.6411 C   0  0  0  0  0  0
  -27.6541  -13.2175   19.8665 C   0  0  2  0  0  0
  -28.6966  -13.0762   20.9989 C   0  0  0  0  0  0
  -25.2564  -13.8175   20.5693 C   0  0  0  0  0  0
  -24.1827  -13.0436   20.9180 C   0  0  0  0  0  0
  -24.6396  -11.6904   20.8732 C   0  0  0  0  0  0
  -23.9065  -10.4287   21.0404 C   0  0  0  0  0  0
  -24.3612   -9.4204   21.9187 C   0  0  0  0  0  0
  -23.6284   -8.2242   22.0759 C   0  0  0  0  0  0
  -22.4272   -8.0280   21.3545 C   0  0  0  0  0  0
  -21.9909   -9.0252   20.4644 C   0  0  0  0  0  0
  -22.7238  -10.2127   20.3053 C   0  0  0  0  0  0
  -21.6852   -6.0731   22.5280 C   0  0  0  0  0  0
  -21.4014   -6.5634   23.8213 C   0  0  0  0  0  0
  -21.3657   -5.6790   24.9174 C   0  0  0  0  0  0
  -21.6048   -4.3056   24.7225 C   0  0  0  0  0  0
  -21.8815   -3.8145   23.4348 C   0  0  0  0  0  0
  -21.9190   -4.6961   22.3402 C   0  0  0  0  0  0
  -22.7851  -13.5232   21.1849 C   0  0  0  0  0  0
  -22.1658   -4.2143   21.0980 F   0  0  0  0  0  0
  -21.5626   -3.4541   25.7739 F   0  0  0  0  0  0
  -30.0135  -13.4212   20.4391 N   0  0  0  0  0  0
  -26.2990  -12.9355   20.3325 N   0  0  0  0  0  0
  -25.9326  -11.6506   20.5757 N   0  0  0  0  0  0
  -22.0489  -12.8218   22.0400 N   0  0  0  0  0  0
  -25.4289  -15.1898   20.4125 N   0  0  0  0  0  0
  -31.7775  -14.8118   20.1143 O   0  0  0  0  0  0
  -21.6640   -6.8874   21.4241 O   0  0  0  0  0  0
  -22.3541  -14.5543   20.6705 O   0  0  0  0  0  0
  -24.6257  -31.8608   23.2019 C   0  0  0  0  0  0
  -25.9097  -32.4798   23.8344 C   0  0  1  0  0  0
  -27.2181  -27.3179   20.1139 C   0  0  0  0  0  0
  -25.5905  -33.8599   24.2262 N   0  0  0  0  0  0
  -23.4185  -30.4837   21.5493 C   0  0  2  0  0  0
  -24.8609  -28.9413   20.1124 C   0  0  0  0  0  0
  -22.7474  -29.4611   22.4966 C   0  0  0  0  0  0
  -18.0282  -28.1409   22.8478 C   0  0  0  0  0  0
  -24.1481  -36.7291   23.2639 C   0  0  0  0  0  0
  -25.9597  -30.7904   21.3711 C   0  0  0  0  0  0
  -26.0312  -29.4167   20.7168 C   0  0  0  0  0  0
  -27.2123  -28.6163   20.7106 C   0  0  0  0  0  0
  -26.0227  -26.9010   19.4805 C   0  0  0  0  0  0
  -24.8580  -27.6872   19.4869 C   0  0  0  0  0  0
  -23.6297  -29.8217   20.1639 C   0  0  0  0  0  0
  -25.4106  -36.3095   24.0333 C   0  0  1  0  0  0
  -20.5883  -28.3689   23.1299 C   0  0  2  0  0  0
  -20.6781  -26.9417   22.5416 C   0  0  0  0  0  0
  -19.5751  -26.6387   21.5231 C   0  0  0  0  0  0
  -18.1923  -26.7945   22.1631 C   0  0  0  0  0  0
  -19.1536  -28.8866   23.2879 C   0  0  0  0  0  0
  -18.9476  -30.1475   23.8885 C   0  0  0  0  0  0
  -17.6479  -30.6604   24.0570 C   0  0  0  0  0  0
  -25.9048  -34.9471   23.5100 C   0  0  0  0  0  0
  -16.5362  -29.9105   23.6359 C   0  0  0  0  0  0
  -16.7268  -28.6541   23.0338 C   0  0  0  0  0  0
  -26.4452  -31.6605   25.0722 C   0  0  0  0  0  0
  -25.3655  -31.3774   26.1431 C   0  0  0  0  0  0
  -27.0275  -30.3034   24.6138 C   0  0  0  0  0  0
  -27.6013  -32.4329   25.7494 C   0  0  0  0  0  0
  -27.5573  -37.1796   24.8466 C   0  0  0  0  0  0
  -21.4190  -29.3037   22.3704 N   0  0  0  0  0  0
  -26.4276  -37.3787   23.9423 N   0  0  0  0  0  0
  -24.6877  -31.0607   22.0981 N   0  0  0  0  0  0
  -23.4201  -28.8144   23.3033 O   0  0  0  0  0  0
  -28.3313  -26.4607   20.1741 O   0  0  0  0  0  0
  -26.5633  -34.8944   22.4676 O   0  0  0  0  0  0
  -23.5419  -32.1401   23.7344 O   0  0  0  0  0  0
  -31.0132  -19.3036   20.1997 C   0  0  0  0  0  0
  -28.7760  -19.3754   21.0502 C   0  0  0  0  0  0
  -31.0195  -17.8773   20.2816 C   0  0  0  0  0  0
  -28.7774  -17.9488   21.1335 C   0  0  0  0  0  0
  -29.8994  -20.1089   20.5859 C   0  0  0  0  0  0
  -29.8970  -17.1520   20.7600 C   0  0  0  0  0  0
  -29.1301  -23.9154   20.4293 C   0  0  0  0  0  0
  -29.0112  -22.5501   20.1992 C   0  0  0  0  0  0
  -30.3435  -24.3879   21.1358 C   0  0  0  0  0  0
  -31.5336  -23.4349   21.1709 C   0  0  0  0  0  0
  -31.0915  -21.9911   21.4489 C   0  0  0  0  0  0
  -27.8130  -22.0043   19.4303 C   0  0  0  0  0  0
  -28.0814  -25.0079   19.9886 C   0  0  0  0  0  0
  -29.9716  -21.5566   20.6004 N   0  0  0  0  0  0
  -29.8103  -15.6925   20.8912 N   0  0  0  0  0  0
  -30.4529  -25.4860   21.6887 O   0  0  0  0  0  0
  -31.4832  -12.5167   19.1691 H   0  0  0  0  0  0
  -30.3690  -11.4017   19.9078 H   0  0  0  0  0  0
  -29.7815  -11.7566   17.4903 H   0  0  0  0  0  0
  -29.6571  -13.4788   17.7526 H   0  0  0  0  0  0
  -27.8745  -11.2914   18.8754 H   0  0  0  0  0  0
  -27.3823  -12.5721   17.7975 H   0  0  0  0  0  0
  -27.6715  -14.2527   19.5243 H   0  0  0  0  0  0
  -28.7076  -12.0556   21.3840 H   0  0  0  0  0  0
  -28.4383  -13.7077   21.8503 H   0  0  0  0  0  0
  -25.2751   -9.5683   22.4765 H   0  0  0  0  0  0
  -23.9988   -7.4640   22.7487 H   0  0  0  0  0  0
  -21.0840   -8.8766   19.8950 H   0  0  0  0  0  0
  -22.3699  -10.9665   19.6159 H   0  0  0  0  0  0
  -21.2009   -7.6143   23.9713 H   0  0  0  0  0  0
  -21.1484   -6.0524   25.9077 H   0  0  0  0  0  0
  -22.0596   -2.7607   23.2854 H   0  0  0  0  0  0
  -22.4083  -11.9865   22.4772 H   0  0  0  0  0  0
  -21.1118  -13.1269   22.2624 H   0  0  0  0  0  0
  -24.6592  -15.8428   20.5153 H   0  0  0  0  0  0
  -26.2751  -15.6280   20.0727 H   0  0  0  0  0  0
  -26.7170  -32.5461   23.1100 H   0  0  0  0  0  0
  -25.0041  -33.9754   25.0395 H   0  0  0  0  0  0
  -22.7114  -31.3039   21.4107 H   0  0  0  0  0  0
  -23.3762  -35.9604   23.3294 H   0  0  0  0  0  0
  -24.3569  -36.8909   22.2052 H   0  0  0  0  0  0
  -23.7220  -37.6484   23.6665 H   0  0  0  0  0  0
  -26.0807  -31.5445   20.5926 H   0  0  0  0  0  0
  -26.8461  -30.8470   21.9916 H   0  0  0  0  0  0
  -28.1078  -28.9721   21.2002 H   0  0  0  0  0  0
  -25.9479  -25.9460   18.9819 H   0  0  0  0  0  0
  -23.9614  -27.3130   19.0110 H   0  0  0  0  0  0
  -23.7468  -30.6015   19.4111 H   0  0  0  0  0  0
  -22.7487  -29.2522   19.8627 H   0  0  0  0  0  0
  -25.1282  -36.1942   25.0825 H   0  0  0  0  0  0
  -20.9956  -28.3273   24.1426 H   0  0  0  0  0  0
  -20.5731  -26.2291   23.3607 H   0  0  0  0  0  0
  -21.6644  -26.7473   22.1176 H   0  0  0  0  0  0
  -19.6917  -25.6298   21.1257 H   0  0  0  0  0  0
  -19.6711  -27.3209   20.6773 H   0  0  0  0  0  0
  -17.4193  -26.6694   21.4032 H   0  0  0  0  0  0
  -18.0311  -26.0097   22.9038 H   0  0  0  0  0  0
  -19.7956  -30.7297   24.2229 H   0  0  0  0  0  0
  -17.5041  -31.6286   24.5169 H   0  0  0  0  0  0
  -15.5367  -30.3007   23.7716 H   0  0  0  0  0  0
  -15.8658  -28.0885   22.7031 H   0  0  0  0  0  0
  -24.5890  -30.7039   25.7779 H   0  0  0  0  0  0
  -24.8764  -32.2949   26.4723 H   0  0  0  0  0  0
  -25.7948  -30.9080   27.0290 H   0  0  0  0  0  0
  -26.2842  -29.6825   24.1123 H   0  0  0  0  0  0
  -27.3955  -29.7246   25.4615 H   0  0  0  0  0  0
  -27.8707  -30.4346   23.9356 H   0  0  0  0  0  0
  -27.2637  -33.3660   26.2020 H   0  0  0  0  0  0
  -28.3849  -32.6825   25.0330 H   0  0  0  0  0  0
  -28.0630  -31.8469   26.5449 H   0  0  0  0  0  0
  -28.2577  -38.0104   24.7527 H   0  0  0  0  0  0
  -28.1081  -36.2637   24.6269 H   0  0  0  0  0  0
  -27.2296  -37.1408   25.8868 H   0  0  0  0  0  0
  -20.9374  -29.8759   21.6907 H   0  0  0  0  0  0
  -26.0161  -38.2857   24.1454 H   0  0  0  0  0  0
  -31.9058  -19.7851   19.8276 H   0  0  0  0  0  0
  -27.8979  -19.9120   21.3797 H   0  0  0  0  0  0
  -31.9132  -17.3527   19.9773 H   0  0  0  0  0  0
  -27.8867  -17.4655   21.5102 H   0  0  0  0  0  0
  -32.2494  -23.7612   21.9258 H   0  0  0  0  0  0
  -32.0391  -23.4912   20.2077 H   0  0  0  0  0  0
  -30.7773  -21.9084   22.4905 H   0  0  0  0  0  0
  -31.9669  -21.3516   21.3491 H   0  0  0  0  0  0
  -27.5395  -22.6568   18.6010 H   0  0  0  0  0  0
  -26.9492  -21.9190   20.0911 H   0  0  0  0  0  0
  -28.0023  -21.0280   18.9859 H   0  0  0  0  0  0
  -27.1660  -24.7403   20.5184 H   0  0  0  0  0  0
  -27.8961  -24.8538   18.9262 H   0  0  0  0  0  0
  -28.9195  -15.3642   21.2305 H   0  0  0  0  0  0
  1 25  1  0  0  0
  1 30  2  0  0  0
  1 85  1  0  0  0
  2  3  1  0  0  0
  2 25  1  0  0  0
  2 87  1  0  0  0
  2 88  1  0  0  0
  3  4  1  0  0  0
  3 89  1  0  0  0
  3 90  1  0  0  0
  4  5  1  0  0  0
  4 91  1  0  0  0
  4 92  1  0  0  0
  5  6  1  0  0  0
  5 26  1  0  0  0
  5 93  1  0  0  0
  6 25  1  0  0  0
  6 94  1  0  0  0
  6 95  1  0  0  0
  7  8  2  0  0  0
  7 26  1  0  0  0
  7 29  1  0  0  0
  8  9  1  0  0  0
  8 22  1  0  0  0
  9 10  1  0  0  0
  9 27  2  0  0  0
 10 11  2  0  0  0
 10 15  1  0  0  0
 11 12  1  0  0  0
 11 96  1  0  0  0
 12 13  2  0  0  0
 12 97  1  0  0  0
 13 14  1  0  0  0
 13 31  1  0  0  0
 14 15  2  0  0  0
 14 98  1  0  0  0
 15 99  1  0  0  0
 16 17  2  0  0  0
 16 21  1  0  0  0
 16 31  1  0  0  0
 17 18  1  0  0  0
 17100  1  0  0  0
 18 19  2  0  0  0
 18101  1  0  0  0
 19 20  1  0  0  0
 19 24  1  0  0  0
 20 21  2  0  0  0
 20102  1  0  0  0
 21 23  1  0  0  0
 22 28  1  0  0  0
 22 32  2  0  0  0
 26 27  1  0  0  0
 28103  1  0  0  0
 28104  1  0  0  0
 29105  1  0  0  0
 29106  1  0  0  0
 33 34  1  0  0  0
 33 66  1  0  0  0
 33 70  2  0  0  0
 34 36  1  0  0  0
 34 59  1  0  0  0
 34107  1  0  0  0
 35 44  2  0  0  0
 35 45  1  0  0  0
 35 68  1  0  0  0
 36 56  1  0  0  0
 36108  1  0  0  0
 37 39  1  0  0  0
 37 47  1  0  0  0
 37 66  1  0  0  0
 37109  1  0  0  0
 38 43  2  0  0  0
 38 46  1  0  0  0
 38 47  1  0  0  0
 39 64  1  0  0  0
 39 67  2  0  0  0
 40 52  1  0  0  0
 40 53  2  0  0  0
 40 58  1  0  0  0
 41110  1  0  0  0
 41111  1  0  0  0
 41112  1  0  0  0
 41 48  1  0  0  0
 42 43  1  0  0  0
 42 66  1  0  0  0
 42113  1  0  0  0
 42114  1  0  0  0
 43 44  1  0  0  0
 44115  1  0  0  0
 45 46  2  0  0  0
 45116  1  0  0  0
 46117  1  0  0  0
 47118  1  0  0  0
 47119  1  0  0  0
 48 56  1  0  0  0
 48 65  1  0  0  0
 48120  1  0  0  0
 49 50  1  0  0  0
 49 53  1  0  0  0
 49 64  1  0  0  0
 49121  1  0  0  0
 50 51  1  0  0  0
 50122  1  0  0  0
 50123  1  0  0  0
 51 52  1  0  0  0
 51124  1  0  0  0
 51125  1  0  0  0
 52126  1  0  0  0
 52127  1  0  0  0
 53 54  1  0  0  0
 54 55  2  0  0  0
 54128  1  0  0  0
 55 57  1  0  0  0
 55129  1  0  0  0
 56 69  2  0  0  0
 57 58  2  0  0  0
 57130  1  0  0  0
 58131  1  0  0  0
 59 60  1  0  0  0
 59 61  1  0  0  0
 59 62  1  0  0  0
 60132  1  0  0  0
 60133  1  0  0  0
 60134  1  0  0  0
 61135  1  0  0  0
 61136  1  0  0  0
 61137  1  0  0  0
 62138  1  0  0  0
 62139  1  0  0  0
 62140  1  0  0  0
 63 65  1  0  0  0
 63141  1  0  0  0
 63142  1  0  0  0
 63143  1  0  0  0
 64144  1  0  0  0
 65145  1  0  0  0
 68 83  1  0  0  0
 71 73  2  0  0  0
 71 75  1  0  0  0
 71146  1  0  0  0
 72 74  1  0  0  0
 72 75  2  0  0  0
 72147  1  0  0  0
 73 76  1  0  0  0
 73148  1  0  0  0
 74 76  2  0  0  0
 74149  1  0  0  0
 75 84  1  0  0  0
 76 85  1  0  0  0
 77 78  2  0  0  0
 77 79  1  0  0  0
 77 83  1  0  0  0
 78 82  1  0  0  0
 78 84  1  0  0  0
 79 80  1  0  0  0
 79 86  2  0  0  0
 80 81  1  0  0  0
 80150  1  0  0  0
 80151  1  0  0  0
 81 84  1  0  0  0
 81152  1  0  0  0
 81153  1  0  0  0
 82154  1  0  0  0
 82155  1  0  0  0
 82156  1  0  0  0
 83157  1  0  0  0
 83158  1  0  0  0
 85159  1  0  0  0
M  ISO  4   1 100  68 101  83 101  85 100
M  END
> <chiral flag>
0

> <version>
0

> <s_m_source_file>
/data/baiqing/PycharmProjects/Reinvent-master-3.2/result/LINK_invent/BTK/process_docking_weight1_custom_product_contain_oxygen_bond_distance_aromatic_linkinvent_7_9_3/rearranged_h_0108.sdf

> <i_m_source_file_index>
36

> <r_mmod_Potential_Energy-OPLS-2005>
65.2321243286133

> <r_mmod_Stretch_Energy-OPLS-2005>
88.3112487792969

> <r_mmod_Bend_Energy-OPLS-2005>
141.345031738281

> <r_mmod_Torsional_Energy-OPLS-2005>
205.801147460938

> <r_mmod_Improper_Torsional_Energy-OPLS-2005>
4.70334577560425

> <r_mmod_Van_der_Waal_Energy-OPLS-2005>
168.787216186523

> <r_mmod_Electrostatic_Energy-OPLS-2005>
-369.718414306641

> <r_mmod_Solvation_Energy-OPLS-2005>
-225.317581176758

> <b_mmod_Minimization_Converged-OPLS-2005>
0

> <r_mmod_RMS_Derivative-OPLS-2005>
1.57381176948547

$$$$
37
                    3D
 Structure written by MMmdl.
164173  0  0  1  0            999 V2000
  -30.7717  -14.4338   20.6364 C   0  0  0  0  0  0
  -30.4135  -12.3013   19.4324 C   0  0  0  0  0  0
  -29.4957  -12.4964   18.2074 C   0  0  0  0  0  0
  -28.0074  -12.3885   18.5970 C   0  0  0  0  0  0
  -27.6626  -13.1991   19.8751 C   0  0  2  0  0  0
  -28.6971  -12.9023   20.9781 C   0  0  0  0  0  0
  -25.2591  -13.8168   20.5621 C   0  0  0  0  0  0
  -24.1830  -13.0471   20.9138 C   0  0  0  0  0  0
  -24.6368  -11.6927   20.8702 C   0  0  0  0  0  0
  -23.9050  -10.4308   21.0398 C   0  0  0  0  0  0
  -24.3617   -9.4239   21.9185 C   0  0  0  0  0  0
  -23.6299   -8.2263   22.0766 C   0  0  0  0  0  0
  -22.4277   -8.0301   21.3553 C   0  0  0  0  0  0
  -21.9904   -9.0265   20.4656 C   0  0  0  0  0  0
  -22.7223  -10.2158   20.3065 C   0  0  0  0  0  0
  -21.6859   -6.0757   22.5296 C   0  0  0  0  0  0
  -21.4010   -6.5653   23.8229 C   0  0  0  0  0  0
  -21.3655   -5.6804   24.9191 C   0  0  0  0  0  0
  -21.6046   -4.3058   24.7234 C   0  0  0  0  0  0
  -21.8817   -3.8161   23.4338 C   0  0  0  0  0  0
  -21.9179   -4.6984   22.3408 C   0  0  0  0  0  0
  -22.7862  -13.5288   21.1797 C   0  0  0  0  0  0
  -22.1646   -4.2177   21.0978 F   0  0  0  0  0  0
  -21.5635   -3.4535   25.7737 F   0  0  0  0  0  0
  -30.0284  -13.2853   20.4723 N   0  0  0  0  0  0
  -26.3008  -12.9302   20.3316 N   0  0  0  0  0  0
  -25.9277  -11.6468   20.5700 N   0  0  0  0  0  0
  -22.0492  -12.8311   22.0392 N   0  0  0  0  0  0
  -25.4356  -15.1870   20.4026 N   0  0  0  0  0  0
  -31.8384  -14.5412   20.0226 O   0  0  0  0  0  0
  -21.6642   -6.8900   21.4258 O   0  0  0  0  0  0
  -22.3541  -14.5578   20.6637 O   0  0  0  0  0  0
  -24.6136  -31.8695   23.2129 C   0  0  0  0  0  0
  -25.9040  -32.4844   23.8384 C   0  0  1  0  0  0
  -27.2389  -27.4431   20.1127 C   0  0  0  0  0  0
  -25.5891  -33.8627   24.2320 N   0  0  0  0  0  0
  -23.4013  -30.4936   21.5533 C   0  0  2  0  0  0
  -24.8489  -28.9548   20.1250 C   0  0  0  0  0  0
  -22.7384  -29.4700   22.5020 C   0  0  0  0  0  0
  -18.0259  -28.1385   22.8520 C   0  0  0  0  0  0
  -24.1484  -36.7326   23.2641 C   0  0  0  0  0  0
  -25.9278  -30.8371   21.3663 C   0  0  0  0  0  0
  -26.0092  -29.4704   20.7201 C   0  0  0  0  0  0
  -27.2104  -28.7237   20.7110 C   0  0  0  0  0  0
  -26.0686  -26.9449   19.5033 C   0  0  0  0  0  0
  -24.8730  -27.6873   19.5156 C   0  0  0  0  0  0
  -23.6093  -29.8191   20.1717 C   0  0  0  0  0  0
  -25.4105  -36.3115   24.0339 C   0  0  1  0  0  0
  -20.5846  -28.3696   23.1320 C   0  0  2  0  0  0
  -20.6752  -26.9435   22.5410 C   0  0  0  0  0  0
  -19.5734  -26.6388   21.5224 C   0  0  0  0  0  0
  -18.1909  -26.7939   22.1637 C   0  0  0  0  0  0
  -19.1510  -28.8852   23.2915 C   0  0  0  0  0  0
  -18.9445  -30.1458   23.8931 C   0  0  0  0  0  0
  -17.6458  -30.6607   24.0568 C   0  0  0  0  0  0
  -25.9031  -34.9491   23.5139 C   0  0  0  0  0  0
  -16.5346  -29.9110   23.6334 C   0  0  0  0  0  0
  -16.7247  -28.6511   23.0383 C   0  0  0  0  0  0
  -26.4481  -31.6633   25.0720 C   0  0  0  0  0  0
  -25.3759  -31.3683   26.1468 C   0  0  0  0  0  0
  -27.0410  -30.3099   24.6146 C   0  0  0  0  0  0
  -27.6038  -32.4393   25.7475 C   0  0  0  0  0  0
  -27.5621  -37.1769   24.8447 C   0  0  0  0  0  0
  -21.4116  -29.3080   22.3741 N   0  0  0  0  0  0
  -26.4292  -37.3822   23.9455 N   0  0  0  0  0  0
  -24.6651  -31.0804   22.1030 N   0  0  0  0  0  0
  -23.4144  -28.8215   23.3051 O   0  0  0  0  0  0
  -28.3898  -26.6918   20.0361 O   0  0  0  0  0  0
  -26.5609  -34.8963   22.4709 O   0  0  0  0  0  0
  -23.5326  -32.1444   23.7503 O   0  0  0  0  0  0
  -29.5810  -18.2028   20.3105 C   0  0  0  0  0  0
  -29.0777  -19.4750   19.9675 C   0  0  0  0  0  0
  -30.5990  -20.5097   21.5506 C   0  0  0  0  0  0
  -30.6065  -18.0670   21.2724 C   0  0  0  0  0  0
  -31.1089  -19.2373   21.9031 C   0  0  0  0  0  0
  -29.5877  -20.6452   20.5722 C   0  0  0  0  0  0
  -28.5597  -25.6427   20.8857 C   0  0  0  0  0  0
  -32.1905  -19.1568   22.9790 C   0  0  0  0  0  0
  -32.9757  -17.8368   22.9792 C   0  0  0  0  0  0
  -32.0266  -16.6416   22.8809 C   0  0  0  0  0  0
  -31.2398  -16.6899   21.5561 C   0  0  1  0  0  0
  -29.1753  -15.5828   22.2825 C   0  0  0  0  0  0
  -29.1234  -24.3942   20.1796 C   0  0  0  0  0  0
  -29.0744  -23.0811   21.0089 C   0  0  0  0  0  0
  -29.0929  -21.8923   20.1444 N   0  0  0  0  0  0
  -30.3639  -15.4882   21.4230 N   0  0  0  0  0  0
  -28.2420  -25.6360   22.0787 O   0  0  0  0  0  0
  -31.4572  -12.3753   19.1231 H   0  0  0  0  0  0
  -30.3180  -11.2838   19.8164 H   0  0  0  0  0  0
  -29.7308  -11.7494   17.4479 H   0  0  0  0  0  0
  -29.6896  -13.4680   17.7512 H   0  0  0  0  0  0
  -27.7798  -11.3329   18.7529 H   0  0  0  0  0  0
  -27.3778  -12.7066   17.7634 H   0  0  0  0  0  0
  -27.7300  -14.2561   19.6188 H   0  0  0  0  0  0
  -28.6864  -11.8299   21.1795 H   0  0  0  0  0  0
  -28.4071  -13.3059   21.9381 H   0  0  0  0  0  0
  -25.2772   -9.5731   22.4745 H   0  0  0  0  0  0
  -24.0028   -7.4670   22.7481 H   0  0  0  0  0  0
  -21.0841   -8.8776   19.8956 H   0  0  0  0  0  0
  -22.3667  -10.9699   19.6169 H   0  0  0  0  0  0
  -21.2005   -7.6163   23.9753 H   0  0  0  0  0  0
  -21.1474   -6.0520   25.9102 H   0  0  0  0  0  0
  -22.0586   -2.7626   23.2831 H   0  0  0  0  0  0
  -22.4083  -11.9989   22.4826 H   0  0  0  0  0  0
  -21.1139  -13.1376   22.2609 H   0  0  0  0  0  0
  -24.6806  -15.8545   20.5210 H   0  0  0  0  0  0
  -26.3071  -15.6213   20.1228 H   0  0  0  0  0  0
  -26.7110  -32.5551   23.1144 H   0  0  0  0  0  0
  -25.0061  -33.9746   25.0473 H   0  0  0  0  0  0
  -22.6928  -31.3117   21.4107 H   0  0  0  0  0  0
  -23.3786  -35.9613   23.3210 H   0  0  0  0  0  0
  -24.3582  -36.9067   22.2081 H   0  0  0  0  0  0
  -23.7193  -37.6481   23.6730 H   0  0  0  0  0  0
  -26.0384  -31.6026   20.5969 H   0  0  0  0  0  0
  -26.8153  -30.8863   21.9870 H   0  0  0  0  0  0
  -28.1112  -29.1234   21.1601 H   0  0  0  0  0  0
  -26.0865  -25.9807   19.0167 H   0  0  0  0  0  0
  -23.9812  -27.2844   19.0561 H   0  0  0  0  0  0
  -23.7022  -30.5902   19.4061 H   0  0  0  0  0  0
  -22.7341  -29.2336   19.8896 H   0  0  0  0  0  0
  -25.1257  -36.1970   25.0824 H   0  0  0  0  0  0
  -20.9920  -28.3279   24.1457 H   0  0  0  0  0  0
  -20.5701  -26.2305   23.3608 H   0  0  0  0  0  0
  -21.6614  -26.7498   22.1195 H   0  0  0  0  0  0
  -19.6892  -25.6293   21.1280 H   0  0  0  0  0  0
  -19.6666  -27.3160   20.6739 H   0  0  0  0  0  0
  -17.4180  -26.6734   21.4028 H   0  0  0  0  0  0
  -18.0263  -26.0037   22.8989 H   0  0  0  0  0  0
  -19.7934  -30.7252   24.2312 H   0  0  0  0  0  0
  -17.5039  -31.6303   24.5161 H   0  0  0  0  0  0
  -15.5352  -30.3047   23.7656 H   0  0  0  0  0  0
  -15.8637  -28.0841   22.7117 H   0  0  0  0  0  0
  -24.5914  -30.7068   25.7775 H   0  0  0  0  0  0
  -24.8942  -32.2811   26.4988 H   0  0  0  0  0  0
  -25.8108  -30.8792   27.0193 H   0  0  0  0  0  0
  -26.2992  -29.6719   24.1340 H   0  0  0  0  0  0
  -27.4368  -29.7477   25.4620 H   0  0  0  0  0  0
  -27.8706  -30.4460   23.9200 H   0  0  0  0  0  0
  -27.2659  -33.3712   26.2013 H   0  0  0  0  0  0
  -28.3837  -32.6947   25.0290 H   0  0  0  0  0  0
  -28.0725  -31.8566   26.5419 H   0  0  0  0  0  0
  -28.2500  -38.0206   24.7734 H   0  0  0  0  0  0
  -28.1266  -36.2765   24.5972 H   0  0  0  0  0  0
  -27.2360  -37.1038   25.8839 H   0  0  0  0  0  0
  -20.9251  -29.8836   21.6998 H   0  0  0  0  0  0
  -26.0184  -38.2881   24.1555 H   0  0  0  0  0  0
  -29.1858  -17.3318   19.8066 H   0  0  0  0  0  0
  -28.2989  -19.5372   19.2194 H   0  0  0  0  0  0
  -31.0253  -21.3783   22.0272 H   0  0  0  0  0  0
  -31.6980  -19.2759   23.9445 H   0  0  0  0  0  0
  -32.8812  -19.9944   22.8776 H   0  0  0  0  0  0
  -33.5935  -17.7654   23.8747 H   0  0  0  0  0  0
  -33.6635  -17.8168   22.1314 H   0  0  0  0  0  0
  -31.3406  -16.6637   23.7294 H   0  0  0  0  0  0
  -32.5907  -15.7101   22.9571 H   0  0  0  0  0  0
  -32.0101  -16.6921   20.7824 H   0  0  0  0  0  0
  -29.0901  -16.5496   22.7760 H   0  0  0  0  0  0
  -29.2352  -14.8546   23.0918 H   0  0  0  0  0  0
  -28.2558  -15.4565   21.7149 H   0  0  0  0  0  0
  -30.1441  -24.6013   19.8575 H   0  0  0  0  0  0
  -28.5272  -24.2672   19.2748 H   0  0  0  0  0  0
  -28.1544  -23.0410   21.5998 H   0  0  0  0  0  0
  -29.8931  -23.0976   21.7307 H   0  0  0  0  0  0
  -28.3638  -21.8536   19.4347 H   0  0  0  0  0  0
  1 25  1  0  0  0
  1 30  2  0  0  0
  1 86  1  0  0  0
  2  3  1  0  0  0
  2 25  1  0  0  0
  2 88  1  0  0  0
  2 89  1  0  0  0
  3  4  1  0  0  0
  3 90  1  0  0  0
  3 91  1  0  0  0
  4  5  1  0  0  0
  4 92  1  0  0  0
  4 93  1  0  0  0
  5  6  1  0  0  0
  5 26  1  0  0  0
  5 94  1  0  0  0
  6 25  1  0  0  0
  6 95  1  0  0  0
  6 96  1  0  0  0
  7  8  2  0  0  0
  7 26  1  0  0  0
  7 29  1  0  0  0
  8  9  1  0  0  0
  8 22  1  0  0  0
  9 10  1  0  0  0
  9 27  2  0  0  0
 10 11  2  0  0  0
 10 15  1  0  0  0
 11 12  1  0  0  0
 11 97  1  0  0  0
 12 13  2  0  0  0
 12 98  1  0  0  0
 13 14  1  0  0  0
 13 31  1  0  0  0
 14 15  2  0  0  0
 14 99  1  0  0  0
 15100  1  0  0  0
 16 17  2  0  0  0
 16 21  1  0  0  0
 16 31  1  0  0  0
 17 18  1  0  0  0
 17101  1  0  0  0
 18 19  2  0  0  0
 18102  1  0  0  0
 19 20  1  0  0  0
 19 24  1  0  0  0
 20 21  2  0  0  0
 20103  1  0  0  0
 21 23  1  0  0  0
 22 28  1  0  0  0
 22 32  2  0  0  0
 26 27  1  0  0  0
 28104  1  0  0  0
 28105  1  0  0  0
 29106  1  0  0  0
 29107  1  0  0  0
 33 34  1  0  0  0
 33 66  1  0  0  0
 33 70  2  0  0  0
 34 36  1  0  0  0
 34 59  1  0  0  0
 34108  1  0  0  0
 35 44  2  0  0  0
 35 45  1  0  0  0
 35 68  1  0  0  0
 36 56  1  0  0  0
 36109  1  0  0  0
 37 39  1  0  0  0
 37 47  1  0  0  0
 37 66  1  0  0  0
 37110  1  0  0  0
 38 43  2  0  0  0
 38 46  1  0  0  0
 38 47  1  0  0  0
 39 64  1  0  0  0
 39 67  2  0  0  0
 40 52  1  0  0  0
 40 53  2  0  0  0
 40 58  1  0  0  0
 41111  1  0  0  0
 41112  1  0  0  0
 41113  1  0  0  0
 41 48  1  0  0  0
 42 43  1  0  0  0
 42 66  1  0  0  0
 42114  1  0  0  0
 42115  1  0  0  0
 43 44  1  0  0  0
 44116  1  0  0  0
 45 46  2  0  0  0
 45117  1  0  0  0
 46118  1  0  0  0
 47119  1  0  0  0
 47120  1  0  0  0
 48 56  1  0  0  0
 48 65  1  0  0  0
 48121  1  0  0  0
 49 50  1  0  0  0
 49 53  1  0  0  0
 49 64  1  0  0  0
 49122  1  0  0  0
 50 51  1  0  0  0
 50123  1  0  0  0
 50124  1  0  0  0
 51 52  1  0  0  0
 51125  1  0  0  0
 51126  1  0  0  0
 52127  1  0  0  0
 52128  1  0  0  0
 53 54  1  0  0  0
 54 55  2  0  0  0
 54129  1  0  0  0
 55 57  1  0  0  0
 55130  1  0  0  0
 56 69  2  0  0  0
 57 58  2  0  0  0
 57131  1  0  0  0
 58132  1  0  0  0
 59 60  1  0  0  0
 59 61  1  0  0  0
 59 62  1  0  0  0
 60133  1  0  0  0
 60134  1  0  0  0
 60135  1  0  0  0
 61136  1  0  0  0
 61137  1  0  0  0
 61138  1  0  0  0
 62139  1  0  0  0
 62140  1  0  0  0
 62141  1  0  0  0
 63 65  1  0  0  0
 63142  1  0  0  0
 63143  1  0  0  0
 63144  1  0  0  0
 64145  1  0  0  0
 65146  1  0  0  0
 68 77  1  0  0  0
 71 72  2  0  0  0
 71 74  1  0  0  0
 71147  1  0  0  0
 72 76  1  0  0  0
 72148  1  0  0  0
 73 75  1  0  0  0
 73 76  2  0  0  0
 73149  1  0  0  0
 74 75  2  0  0  0
 74 81  1  0  0  0
 75 78  1  0  0  0
 76 85  1  0  0  0
 77 83  1  0  0  0
 77 87  2  0  0  0
 78 79  1  0  0  0
 78150  1  0  0  0
 78151  1  0  0  0
 79 80  1  0  0  0
 79152  1  0  0  0
 79153  1  0  0  0
 80 81  1  0  0  0
 80154  1  0  0  0
 80155  1  0  0  0
 81 86  1  0  0  0
 81156  1  0  0  0
 82 86  1  0  0  0
 82157  1  0  0  0
 82158  1  0  0  0
 82159  1  0  0  0
 83 84  1  0  0  0
 83160  1  0  0  0
 83161  1  0  0  0
 84 85  1  0  0  0
 84162  1  0  0  0
 84163  1  0  0  0
 85164  1  0  0  0
M  ISO  4   1 100  68 101  77 101  86 100
M  END
> <chiral flag>
0

> <version>
0

> <s_m_source_file>
/data/baiqing/PycharmProjects/Reinvent-master-3.2/result/LINK_invent/BTK/process_docking_weight1_custom_product_contain_oxygen_bond_distance_aromatic_linkinvent_7_9_3/rearranged_h_0108.sdf

> <i_m_source_file_index>
37

> <r_mmod_Potential_Energy-OPLS-2005>
162.975723266602

> <r_mmod_Stretch_Energy-OPLS-2005>
47.6381988525391

> <r_mmod_Bend_Energy-OPLS-2005>
144.853851318359

> <r_mmod_Torsional_Energy-OPLS-2005>
264.205718994141

> <r_mmod_Improper_Torsional_Energy-OPLS-2005>
4.46984910964966

> <r_mmod_Van_der_Waal_Energy-OPLS-2005>
178.465179443359

> <r_mmod_Electrostatic_Energy-OPLS-2005>
-274.913696289062

> <r_mmod_Solvation_Energy-OPLS-2005>
-212.977355957031

> <b_mmod_Minimization_Converged-OPLS-2005>
0

> <r_mmod_RMS_Derivative-OPLS-2005>
3.60472726821899

$$$$
38
                    3D
 Structure written by MMmdl.
164172  0  0  1  0            999 V2000
  -30.6220  -14.6679   20.4927 C   0  0  0  0  0  0
  -30.4458  -12.4092   19.4519 C   0  0  0  0  0  0
  -29.5167  -12.5027   18.2207 C   0  0  0  0  0  0
  -28.0357  -12.3380   18.6245 C   0  0  0  0  0  0
  -27.6519  -13.2049   19.8521 C   0  0  2  0  0  0
  -28.6988  -13.0840   20.9827 C   0  0  0  0  0  0
  -25.2516  -13.8082   20.5679 C   0  0  0  0  0  0
  -24.1798  -13.0367   20.9197 C   0  0  0  0  0  0
  -24.6379  -11.6855   20.8714 C   0  0  0  0  0  0
  -23.9050  -10.4257   21.0387 C   0  0  0  0  0  0
  -24.3604   -9.4192   21.9170 C   0  0  0  0  0  0
  -23.6292   -8.2222   22.0745 C   0  0  0  0  0  0
  -22.4281   -8.0257   21.3540 C   0  0  0  0  0  0
  -21.9897   -9.0221   20.4639 C   0  0  0  0  0  0
  -22.7214  -10.2100   20.3041 C   0  0  0  0  0  0
  -21.6850   -6.0726   22.5286 C   0  0  0  0  0  0
  -21.4010   -6.5631   23.8214 C   0  0  0  0  0  0
  -21.3657   -5.6780   24.9169 C   0  0  0  0  0  0
  -21.6052   -4.3046   24.7218 C   0  0  0  0  0  0
  -21.8827   -3.8138   23.4334 C   0  0  0  0  0  0
  -21.9188   -4.6958   22.3398 C   0  0  0  0  0  0
  -22.7828  -13.5188   21.1859 C   0  0  0  0  0  0
  -22.1667   -4.2150   21.0972 F   0  0  0  0  0  0
  -21.5626   -3.4526   25.7727 F   0  0  0  0  0  0
  -30.0124  -13.4387   20.4195 N   0  0  0  0  0  0
  -26.2965  -12.9286   20.3239 N   0  0  0  0  0  0
  -25.9296  -11.6446   20.5669 N   0  0  0  0  0  0
  -22.0444  -12.8209   22.0418 N   0  0  0  0  0  0
  -25.4065  -15.1804   20.4173 N   0  0  0  0  0  0
  -31.7916  -14.8242   20.1301 O   0  0  0  0  0  0
  -21.6636   -6.8864   21.4244 O   0  0  0  0  0  0
  -22.3530  -14.5486   20.6680 O   0  0  0  0  0  0
  -24.6231  -31.8619   23.2023 C   0  0  0  0  0  0
  -25.9090  -32.4788   23.8355 C   0  0  1  0  0  0
  -27.2331  -27.3246   20.1288 C   0  0  0  0  0  0
  -25.5928  -33.8587   24.2293 N   0  0  0  0  0  0
  -23.4176  -30.4816   21.5458 C   0  0  2  0  0  0
  -24.8695  -28.9379   20.1167 C   0  0  0  0  0  0
  -22.7467  -29.4615   22.4960 C   0  0  0  0  0  0
  -18.0286  -28.1362   22.8483 C   0  0  0  0  0  0
  -24.1497  -36.7282   23.2642 C   0  0  0  0  0  0
  -25.9583  -30.7942   21.3742 C   0  0  0  0  0  0
  -26.0376  -29.4203   20.7219 C   0  0  0  0  0  0
  -27.2221  -28.6259   20.7196 C   0  0  0  0  0  0
  -26.0461  -26.8999   19.4884 C   0  0  0  0  0  0
  -24.8770  -27.6827   19.4905 C   0  0  0  0  0  0
  -23.6340  -29.8134   20.1625 C   0  0  0  0  0  0
  -25.4119  -36.3085   24.0338 C   0  0  1  0  0  0
  -20.5880  -28.3667   23.1297 C   0  0  2  0  0  0
  -20.6785  -26.9397   22.5414 C   0  0  0  0  0  0
  -19.5766  -26.6366   21.5212 C   0  0  0  0  0  0
  -18.1937  -26.7909   22.1612 C   0  0  0  0  0  0
  -19.1534  -28.8836   23.2881 C   0  0  0  0  0  0
  -18.9456  -30.1441   23.8884 C   0  0  0  0  0  0
  -17.6458  -30.6576   24.0542 C   0  0  0  0  0  0
  -25.9062  -34.9457   23.5115 C   0  0  0  0  0  0
  -16.5351  -29.9061   23.6327 C   0  0  0  0  0  0
  -16.7273  -28.6475   23.0358 C   0  0  0  0  0  0
  -26.4487  -31.6582   25.0703 C   0  0  0  0  0  0
  -25.3728  -31.3692   26.1428 C   0  0  0  0  0  0
  -27.0348  -30.3029   24.6116 C   0  0  0  0  0  0
  -27.6067  -32.4295   25.7463 C   0  0  0  0  0  0
  -27.5586  -37.1796   24.8467 C   0  0  0  0  0  0
  -21.4189  -29.3018   22.3699 N   0  0  0  0  0  0
  -26.4300  -37.3776   23.9410 N   0  0  0  0  0  0
  -24.6848  -31.0620   22.0978 N   0  0  0  0  0  0
  -23.4207  -28.8170   23.3041 O   0  0  0  0  0  0
  -28.3574  -26.4840   20.1551 O   0  0  0  0  0  0
  -26.5615  -34.8920   22.4675 O   0  0  0  0  0  0
  -23.5399  -32.1424   23.7345 O   0  0  0  0  0  0
  -30.8473  -17.9656   21.3337 C   0  0  0  0  0  0
  -30.8437  -19.3894   21.2478 C   0  0  0  0  0  0
  -29.0292  -17.8949   19.7457 C   0  0  0  0  0  0
  -29.0843  -19.3321   19.5918 C   0  0  0  0  0  0
  -29.9329  -17.1758   20.5966 C   0  0  0  0  0  0
  -29.9583  -20.1174   20.4081 C   0  0  0  0  0  0
  -28.2006  -22.0908   17.0833 C   0  0  0  0  0  0
  -28.8776  -21.1200   17.7157 C   0  0  0  0  0  0
  -28.5026  -16.4463   17.7106 C   0  0  0  0  0  0
  -28.2190  -20.0130   18.5188 C   0  0  0  0  0  0
  -27.9709  -17.0914   18.9978 C   0  0  0  0  0  0
  -29.2907  -23.9909   20.2249 C   0  0  0  0  0  0
  -28.1470  -25.0590   20.5126 C   0  0  0  0  0  0
  -29.0252  -22.4675   20.6370 C   0  0  0  0  0  0
  -29.8058  -15.7247   20.8127 N   0  0  0  0  0  0
  -30.1091  -21.5220   20.3333 O   0  0  0  0  0  0
  -31.4875  -12.5408   19.1537 H   0  0  0  0  0  0
  -30.3903  -11.4164   19.9012 H   0  0  0  0  0  0
  -29.7926  -11.7444   17.4873 H   0  0  0  0  0  0
  -29.6600  -13.4622   17.7234 H   0  0  0  0  0  0
  -27.8667  -11.2845   18.8483 H   0  0  0  0  0  0
  -27.3882  -12.5720   17.7786 H   0  0  0  0  0  0
  -27.6618  -14.2274   19.4927 H   0  0  0  0  0  0
  -28.7186  -12.0651   21.3730 H   0  0  0  0  0  0
  -28.4366  -13.7220   21.8269 H   0  0  0  0  0  0
  -25.2738   -9.5675   22.4751 H   0  0  0  0  0  0
  -24.0010   -7.4612   22.7469 H   0  0  0  0  0  0
  -21.0822   -8.8722   19.8956 H   0  0  0  0  0  0
  -22.3663  -10.9630   19.6152 H   0  0  0  0  0  0
  -21.2017   -7.6143   23.9717 H   0  0  0  0  0  0
  -21.1471   -6.0508   25.9072 H   0  0  0  0  0  0
  -22.0613   -2.7607   23.2824 H   0  0  0  0  0  0
  -22.4032  -11.9874   22.4840 H   0  0  0  0  0  0
  -21.1058  -13.1245   22.2563 H   0  0  0  0  0  0
  -24.6227  -15.8152   20.5239 H   0  0  0  0  0  0
  -26.2348  -15.6300   20.0572 H   0  0  0  0  0  0
  -26.7157  -32.5469   23.1112 H   0  0  0  0  0  0
  -25.0100  -33.9743   25.0451 H   0  0  0  0  0  0
  -22.7094  -31.3000   21.4000 H   0  0  0  0  0  0
  -23.3774  -35.9602   23.3302 H   0  0  0  0  0  0
  -24.3600  -36.8898   22.2060 H   0  0  0  0  0  0
  -23.7238  -37.6480   23.6659 H   0  0  0  0  0  0
  -26.0866  -31.5565   20.6035 H   0  0  0  0  0  0
  -26.8394  -30.8486   22.0017 H   0  0  0  0  0  0
  -28.1166  -28.9908   21.2057 H   0  0  0  0  0  0
  -26.0004  -25.9529   18.9712 H   0  0  0  0  0  0
  -23.9865  -27.3081   19.0046 H   0  0  0  0  0  0
  -23.7487  -30.5865   19.4019 H   0  0  0  0  0  0
  -22.7562  -29.2375   19.8623 H   0  0  0  0  0  0
  -25.1300  -36.1954   25.0833 H   0  0  0  0  0  0
  -20.9966  -28.3240   24.1423 H   0  0  0  0  0  0
  -20.5705  -26.2269   23.3605 H   0  0  0  0  0  0
  -21.6655  -26.7444   22.1201 H   0  0  0  0  0  0
  -19.6934  -25.6279   21.1236 H   0  0  0  0  0  0
  -19.6712  -27.3179   20.6746 H   0  0  0  0  0  0
  -17.4225  -26.6669   21.3997 H   0  0  0  0  0  0
  -18.0324  -26.0036   22.8990 H   0  0  0  0  0  0
  -19.7938  -30.7245   24.2255 H   0  0  0  0  0  0
  -17.5016  -31.6260   24.5128 H   0  0  0  0  0  0
  -15.5348  -30.2955   23.7647 H   0  0  0  0  0  0
  -15.8679  -28.0772   22.7094 H   0  0  0  0  0  0
  -24.5899  -30.7061   25.7727 H   0  0  0  0  0  0
  -24.8915  -32.2850   26.4876 H   0  0  0  0  0  0
  -25.8043  -30.8833   27.0191 H   0  0  0  0  0  0
  -26.2920  -29.6760   24.1172 H   0  0  0  0  0  0
  -27.4139  -29.7283   25.4576 H   0  0  0  0  0  0
  -27.8739  -30.4350   23.9282 H   0  0  0  0  0  0
  -27.2715  -33.3599   26.2054 H   0  0  0  0  0  0
  -28.3869  -32.6846   25.0278 H   0  0  0  0  0  0
  -28.0758  -31.8410   26.5361 H   0  0  0  0  0  0
  -28.2602  -38.0092   24.7524 H   0  0  0  0  0  0
  -28.1082  -36.2629   24.6284 H   0  0  0  0  0  0
  -27.2303  -37.1430   25.8867 H   0  0  0  0  0  0
  -20.9378  -29.8726   21.6890 H   0  0  0  0  0  0
  -26.0190  -38.2858   24.1398 H   0  0  0  0  0  0
  -31.5385  -17.4842   22.0107 H   0  0  0  0  0  0
  -31.5549  -19.9401   21.8467 H   0  0  0  0  0  0
  -28.7169  -22.8516   16.5153 H   0  0  0  0  0  0
  -27.1210  -22.1411   17.1209 H   0  0  0  0  0  0
  -29.9565  -21.0915   17.6447 H   0  0  0  0  0  0
  -27.7252  -15.8548   17.2262 H   0  0  0  0  0  0
  -29.3449  -15.7859   17.9142 H   0  0  0  0  0  0
  -28.8413  -17.1979   16.9974 H   0  0  0  0  0  0
  -27.2817  -20.3522   18.9599 H   0  0  0  0  0  0
  -27.9547  -19.3008   17.7414 H   0  0  0  0  0  0
  -27.0765  -17.6796   18.7964 H   0  0  0  0  0  0
  -27.6076  -16.3316   19.6757 H   0  0  0  0  0  0
  -30.2015  -24.3292   20.7176 H   0  0  0  0  0  0
  -29.5050  -24.0193   19.1564 H   0  0  0  0  0  0
  -27.9354  -25.0394   21.5828 H   0  0  0  0  0  0
  -27.2531  -24.6649   20.0371 H   0  0  0  0  0  0
  -28.0953  -22.1364   20.1825 H   0  0  0  0  0  0
  -28.8533  -22.4247   21.7125 H   0  0  0  0  0  0
  -28.8686  -15.4178   21.0213 H   0  0  0  0  0  0
  1 25  1  0  0  0
  1 30  2  0  0  0
  1 85  1  0  0  0
  2  3  1  0  0  0
  2 25  1  0  0  0
  2 87  1  0  0  0
  2 88  1  0  0  0
  3  4  1  0  0  0
  3 89  1  0  0  0
  3 90  1  0  0  0
  4  5  1  0  0  0
  4 91  1  0  0  0
  4 92  1  0  0  0
  5  6  1  0  0  0
  5 26  1  0  0  0
  5 93  1  0  0  0
  6 25  1  0  0  0
  6 94  1  0  0  0
  6 95  1  0  0  0
  7  8  2  0  0  0
  7 26  1  0  0  0
  7 29  1  0  0  0
  8  9  1  0  0  0
  8 22  1  0  0  0
  9 10  1  0  0  0
  9 27  2  0  0  0
 10 11  2  0  0  0
 10 15  1  0  0  0
 11 12  1  0  0  0
 11 96  1  0  0  0
 12 13  2  0  0  0
 12 97  1  0  0  0
 13 14  1  0  0  0
 13 31  1  0  0  0
 14 15  2  0  0  0
 14 98  1  0  0  0
 15 99  1  0  0  0
 16 17  2  0  0  0
 16 21  1  0  0  0
 16 31  1  0  0  0
 17 18  1  0  0  0
 17100  1  0  0  0
 18 19  2  0  0  0
 18101  1  0  0  0
 19 20  1  0  0  0
 19 24  1  0  0  0
 20 21  2  0  0  0
 20102  1  0  0  0
 21 23  1  0  0  0
 22 28  1  0  0  0
 22 32  2  0  0  0
 26 27  1  0  0  0
 28103  1  0  0  0
 28104  1  0  0  0
 29105  1  0  0  0
 29106  1  0  0  0
 33 34  1  0  0  0
 33 66  1  0  0  0
 33 70  2  0  0  0
 34 36  1  0  0  0
 34 59  1  0  0  0
 34107  1  0  0  0
 35 44  2  0  0  0
 35 45  1  0  0  0
 35 68  1  0  0  0
 36 56  1  0  0  0
 36108  1  0  0  0
 37 39  1  0  0  0
 37 47  1  0  0  0
 37 66  1  0  0  0
 37109  1  0  0  0
 38 43  2  0  0  0
 38 46  1  0  0  0
 38 47  1  0  0  0
 39 64  1  0  0  0
 39 67  2  0  0  0
 40 52  1  0  0  0
 40 53  2  0  0  0
 40 58  1  0  0  0
 41110  1  0  0  0
 41111  1  0  0  0
 41112  1  0  0  0
 41 48  1  0  0  0
 42 43  1  0  0  0
 42 66  1  0  0  0
 42113  1  0  0  0
 42114  1  0  0  0
 43 44  1  0  0  0
 44115  1  0  0  0
 45 46  2  0  0  0
 45116  1  0  0  0
 46117  1  0  0  0
 47118  1  0  0  0
 47119  1  0  0  0
 48 56  1  0  0  0
 48 65  1  0  0  0
 48120  1  0  0  0
 49 50  1  0  0  0
 49 53  1  0  0  0
 49 64  1  0  0  0
 49121  1  0  0  0
 50 51  1  0  0  0
 50122  1  0  0  0
 50123  1  0  0  0
 51 52  1  0  0  0
 51124  1  0  0  0
 51125  1  0  0  0
 52126  1  0  0  0
 52127  1  0  0  0
 53 54  1  0  0  0
 54 55  2  0  0  0
 54128  1  0  0  0
 55 57  1  0  0  0
 55129  1  0  0  0
 56 69  2  0  0  0
 57 58  2  0  0  0
 57130  1  0  0  0
 58131  1  0  0  0
 59 60  1  0  0  0
 59 61  1  0  0  0
 59 62  1  0  0  0
 60132  1  0  0  0
 60133  1  0  0  0
 60134  1  0  0  0
 61135  1  0  0  0
 61136  1  0  0  0
 61137  1  0  0  0
 62138  1  0  0  0
 62139  1  0  0  0
 62140  1  0  0  0
 63 65  1  0  0  0
 63141  1  0  0  0
 63142  1  0  0  0
 63143  1  0  0  0
 64144  1  0  0  0
 65145  1  0  0  0
 68 83  1  0  0  0
 71 72  2  0  0  0
 71 75  1  0  0  0
 71146  1  0  0  0
 72 76  1  0  0  0
 72147  1  0  0  0
 73 74  1  0  0  0
 73 75  2  0  0  0
 73 81  1  0  0  0
 74 76  2  0  0  0
 74 80  1  0  0  0
 75 85  1  0  0  0
 76 86  1  0  0  0
 77 78  2  0  0  0
 77148  1  0  0  0
 77149  1  0  0  0
 78 80  1  0  0  0
 78150  1  0  0  0
 79 81  1  0  0  0
 79151  1  0  0  0
 79152  1  0  0  0
 79153  1  0  0  0
 80154  1  0  0  0
 80155  1  0  0  0
 81156  1  0  0  0
 81157  1  0  0  0
 82 83  1  0  0  0
 82 84  1  0  0  0
 82158  1  0  0  0
 82159  1  0  0  0
 83160  1  0  0  0
 83161  1  0  0  0
 84 86  1  0  0  0
 84162  1  0  0  0
 84163  1  0  0  0
 85164  1  0  0  0
M  ISO  4   1 100  68 101  83 101  85 100
M  END
> <chiral flag>
0

> <version>
0

> <s_m_source_file>
/data/baiqing/PycharmProjects/Reinvent-master-3.2/result/LINK_invent/BTK/process_docking_weight1_custom_product_contain_oxygen_bond_distance_aromatic_linkinvent_7_9_3/rearranged_h_0108.sdf

> <i_m_source_file_index>
38

> <r_mmod_Potential_Energy-OPLS-2005>
110.792137145996

> <r_mmod_Stretch_Energy-OPLS-2005>
87.5344161987305

> <r_mmod_Bend_Energy-OPLS-2005>
144.060531616211

> <r_mmod_Torsional_Energy-OPLS-2005>
276.771820068359

> <r_mmod_Improper_Torsional_Energy-OPLS-2005>
6.07584524154663

> <r_mmod_Van_der_Waal_Energy-OPLS-2005>
140.478500366211

> <r_mmod_Electrostatic_Energy-OPLS-2005>
-387.831573486328

> <r_mmod_Solvation_Energy-OPLS-2005>
-207.811828613281

> <b_mmod_Minimization_Converged-OPLS-2005>
0

> <r_mmod_RMS_Derivative-OPLS-2005>
2.19637751579285

$$$$
39
                    3D
 Structure written by MMmdl.
161169  0  0  1  0            999 V2000
  -30.7477  -14.4687   20.6416 C   0  0  0  0  0  0
  -30.4304  -12.3255   19.4234 C   0  0  0  0  0  0
  -29.5036  -12.5072   18.2051 C   0  0  0  0  0  0
  -28.0215  -12.3790   18.6090 C   0  0  0  0  0  0
  -27.6662  -13.2015   19.8787 C   0  0  2  0  0  0
  -28.7099  -12.9963   20.9974 C   0  0  0  0  0  0
  -25.2666  -13.8140   20.5759 C   0  0  0  0  0  0
  -24.1880  -13.0428   20.9161 C   0  0  0  0  0  0
  -24.6413  -11.6886   20.8725 C   0  0  0  0  0  0
  -23.9057  -10.4273   21.0407 C   0  0  0  0  0  0
  -24.3606   -9.4197   21.9199 C   0  0  0  0  0  0
  -23.6248   -8.2259   22.0792 C   0  0  0  0  0  0
  -22.4253   -8.0284   21.3571 C   0  0  0  0  0  0
  -21.9889   -9.0251   20.4679 C   0  0  0  0  0  0
  -22.7224  -10.2118   20.3053 C   0  0  0  0  0  0
  -21.6848   -6.0728   22.5262 C   0  0  0  0  0  0
  -21.4020   -6.5623   23.8192 C   0  0  0  0  0  0
  -21.3658   -5.6776   24.9151 C   0  0  0  0  0  0
  -21.6061   -4.3038   24.7205 C   0  0  0  0  0  0
  -21.8815   -3.8126   23.4325 C   0  0  0  0  0  0
  -21.9202   -4.6950   22.3384 C   0  0  0  0  0  0
  -22.7894  -13.5267   21.1757 C   0  0  0  0  0  0
  -22.1672   -4.2136   21.0972 F   0  0  0  0  0  0
  -21.5624   -3.4537   25.7722 F   0  0  0  0  0  0
  -30.0442  -13.3091   20.4532 N   0  0  0  0  0  0
  -26.3070  -12.9277   20.3399 N   0  0  0  0  0  0
  -25.9348  -11.6454   20.5755 N   0  0  0  0  0  0
  -22.0457  -12.8335   22.0302 N   0  0  0  0  0  0
  -25.4482  -15.1853   20.4311 N   0  0  0  0  0  0
  -31.7886  -14.7089   20.0198 O   0  0  0  0  0  0
  -21.6619   -6.8882   21.4236 O   0  0  0  0  0  0
  -22.3626  -14.5583   20.6568 O   0  0  0  0  0  0
  -24.6223  -31.8644   23.2134 C   0  0  0  0  0  0
  -25.9117  -32.4808   23.8424 C   0  0  1  0  0  0
  -27.2197  -27.3937   20.1142 C   0  0  0  0  0  0
  -25.6008  -33.8619   24.2355 N   0  0  0  0  0  0
  -23.4083  -30.4930   21.5524 C   0  0  2  0  0  0
  -24.8494  -28.9612   20.1172 C   0  0  0  0  0  0
  -22.7412  -29.4643   22.4959 C   0  0  0  0  0  0
  -18.0275  -28.1363   22.8520 C   0  0  0  0  0  0
  -24.1464  -36.7320   23.2627 C   0  0  0  0  0  0
  -25.9397  -30.8280   21.3650 C   0  0  0  0  0  0
  -26.0142  -29.4582   20.7144 C   0  0  0  0  0  0
  -27.2017  -28.6845   20.7037 C   0  0  0  0  0  0
  -26.0305  -26.9294   19.4994 C   0  0  0  0  0  0
  -24.8541  -27.6978   19.5067 C   0  0  0  0  0  0
  -23.6200  -29.8398   20.1622 C   0  0  0  0  0  0
  -25.4114  -36.3139   24.0303 C   0  0  1  0  0  0
  -20.5869  -28.3669   23.1313 C   0  0  2  0  0  0
  -20.6766  -26.9404   22.5430 C   0  0  0  0  0  0
  -19.5738  -26.6384   21.5244 C   0  0  0  0  0  0
  -18.1912  -26.7918   22.1628 C   0  0  0  0  0  0
  -19.1524  -28.8821   23.2918 C   0  0  0  0  0  0
  -18.9457  -30.1426   23.8923 C   0  0  0  0  0  0
  -17.6475  -30.6587   24.0558 C   0  0  0  0  0  0
  -25.9057  -34.9481   23.5106 C   0  0  0  0  0  0
  -16.5350  -29.9105   23.6318 C   0  0  0  0  0  0
  -16.7275  -28.6500   23.0371 C   0  0  0  0  0  0
  -26.4536  -31.6568   25.0748 C   0  0  0  0  0  0
  -25.3805  -31.3672   26.1516 C   0  0  0  0  0  0
  -27.0386  -30.3020   24.6105 C   0  0  0  0  0  0
  -27.6083  -32.4296   25.7525 C   0  0  0  0  0  0
  -27.5568  -37.1818   24.8474 C   0  0  0  0  0  0
  -21.4126  -29.3054   22.3697 N   0  0  0  0  0  0
  -26.4293  -37.3845   23.9409 N   0  0  0  0  0  0
  -24.6751  -31.0741   22.1044 N   0  0  0  0  0  0
  -23.4153  -28.8217   23.3044 O   0  0  0  0  0  0
  -28.3726  -26.6214   20.1469 O   0  0  0  0  0  0
  -26.5593  -34.8943   22.4657 O   0  0  0  0  0  0
  -23.5398  -32.1401   23.7513 O   0  0  0  0  0  0
  -29.4271  -18.8134   20.0923 C   0  0  0  0  0  0
  -30.6755  -17.6847   22.2989 C   0  0  0  0  0  0
  -29.5020  -17.3929   20.1940 C   0  0  0  0  0  0
  -30.1525  -16.7894   21.3248 C   0  0  0  0  0  0
  -29.9716  -19.6844   21.0690 C   0  0  0  0  0  0
  -30.6022  -19.0819   22.1730 C   0  0  0  0  0  0
  -27.7684  -17.0391   18.4113 C   0  0  0  0  0  0
  -28.8232  -16.6196   19.1337 C   0  0  0  0  0  0
  -30.5207  -14.9120   22.9525 C   0  0  0  0  0  0
  -29.5760  -24.4341   20.1617 C   0  0  0  0  0  0
  -29.5845  -23.0143   19.5077 C   0  0  0  0  0  0
  -28.2151  -25.1774   20.1598 C   0  0  0  0  0  0
  -28.9768  -21.8099   20.2828 C   0  0  0  0  0  0
  -30.2770  -15.3495   21.5656 N   0  0  0  0  0  0
  -29.9799  -21.0771   21.0096 O   0  0  0  0  0  0
  -31.1489  -19.8565   23.1421 F   0  0  0  0  0  0
  -31.4777  -12.4192   19.1235 H   0  0  0  0  0  0
  -30.3355  -11.3147   19.8204 H   0  0  0  0  0  0
  -29.7454  -11.7659   17.4403 H   0  0  0  0  0  0
  -29.6857  -13.4798   17.7456 H   0  0  0  0  0  0
  -27.8106  -11.3213   18.7788 H   0  0  0  0  0  0
  -27.3846  -12.6800   17.7751 H   0  0  0  0  0  0
  -27.6910  -14.2484   19.5957 H   0  0  0  0  0  0
  -28.6969  -11.9646   21.3529 H   0  0  0  0  0  0
  -28.4509  -13.6055   21.8616 H   0  0  0  0  0  0
  -25.2764   -9.5639   22.4766 H   0  0  0  0  0  0
  -23.9923   -7.4675   22.7549 H   0  0  0  0  0  0
  -21.0812   -8.8772   19.9017 H   0  0  0  0  0  0
  -22.3712  -10.9644   19.6130 H   0  0  0  0  0  0
  -21.2029   -7.6130   23.9682 H   0  0  0  0  0  0
  -21.1486   -6.0514   25.9051 H   0  0  0  0  0  0
  -22.0616   -2.7589   23.2817 H   0  0  0  0  0  0
  -22.3951  -11.9985   22.4764 H   0  0  0  0  0  0
  -21.1081  -13.1468   22.2412 H   0  0  0  0  0  0
  -24.7049  -15.8549   20.5890 H   0  0  0  0  0  0
  -26.3298  -15.6201   20.1827 H   0  0  0  0  0  0
  -26.7192  -32.5509   23.1180 H   0  0  0  0  0  0
  -25.0193  -33.9795   25.0523 H   0  0  0  0  0  0
  -22.7042  -31.3158   21.4177 H   0  0  0  0  0  0
  -23.3740  -35.9640   23.3314 H   0  0  0  0  0  0
  -24.3556  -36.8957   22.2052 H   0  0  0  0  0  0
  -23.7191  -37.6487   23.6669 H   0  0  0  0  0  0
  -26.0499  -31.5943   20.5957 H   0  0  0  0  0  0
  -26.8253  -30.8830   21.9851 H   0  0  0  0  0  0
  -28.0996  -29.0640   21.1700 H   0  0  0  0  0  0
  -25.9733  -25.9770   18.9979 H   0  0  0  0  0  0
  -23.9573  -27.3067   19.0425 H   0  0  0  0  0  0
  -23.7524  -30.6244   19.4164 H   0  0  0  0  0  0
  -22.7356  -29.2833   19.8466 H   0  0  0  0  0  0
  -25.1282  -36.2007   25.0788 H   0  0  0  0  0  0
  -20.9949  -28.3269   24.1449 H   0  0  0  0  0  0
  -20.5688  -26.2304   23.3639 H   0  0  0  0  0  0
  -21.6626  -26.7483   22.1174 H   0  0  0  0  0  0
  -19.6888  -25.6328   21.1239 H   0  0  0  0  0  0
  -19.6639  -27.3225   20.6801 H   0  0  0  0  0  0
  -17.4179  -26.6740   21.4004 H   0  0  0  0  0  0
  -18.0225  -26.0048   22.8981 H   0  0  0  0  0  0
  -19.7945  -30.7211   24.2278 H   0  0  0  0  0  0
  -17.5050  -31.6277   24.5155 H   0  0  0  0  0  0
  -15.5346  -30.3026   23.7590 H   0  0  0  0  0  0
  -15.8673  -28.0806   22.7093 H   0  0  0  0  0  0
  -24.6035  -30.6938   25.7895 H   0  0  0  0  0  0
  -24.8958  -32.2819   26.4926 H   0  0  0  0  0  0
  -25.8192  -30.8915   27.0307 H   0  0  0  0  0  0
  -26.2922  -29.6762   24.1201 H   0  0  0  0  0  0
  -27.4234  -29.7280   25.4553 H   0  0  0  0  0  0
  -27.8719  -30.4340   23.9200 H   0  0  0  0  0  0
  -27.2653  -33.3590   26.2068 H   0  0  0  0  0  0
  -28.3903  -32.6838   25.0365 H   0  0  0  0  0  0
  -28.0724  -31.8460   26.5494 H   0  0  0  0  0  0
  -28.2562  -38.0126   24.7546 H   0  0  0  0  0  0
  -28.1055  -36.2654   24.6253 H   0  0  0  0  0  0
  -27.2278  -37.1420   25.8868 H   0  0  0  0  0  0
  -20.9302  -29.8828   21.6949 H   0  0  0  0  0  0
  -26.0158  -38.2883   24.1541 H   0  0  0  0  0  0
  -28.9663  -19.2294   19.2126 H   0  0  0  0  0  0
  -31.1638  -17.3363   23.1926 H   0  0  0  0  0  0
  -27.3456  -16.4145   17.6389 H   0  0  0  0  0  0
  -27.3004  -18.0002   18.5680 H   0  0  0  0  0  0
  -29.2222  -15.6526   18.8877 H   0  0  0  0  0  0
  -31.4815  -15.2841   23.3134 H   0  0  0  0  0  0
  -30.5751  -13.8264   23.0628 H   0  0  0  0  0  0
  -29.7237  -15.2642   23.6091 H   0  0  0  0  0  0
  -30.2536  -25.0466   19.5627 H   0  0  0  0  0  0
  -30.0182  -24.4154   21.1603 H   0  0  0  0  0  0
  -30.6109  -22.7567   19.2387 H   0  0  0  0  0  0
  -29.0630  -23.0896   18.5531 H   0  0  0  0  0  0
  -27.6219  -24.8679   21.0293 H   0  0  0  0  0  0
  -27.6779  -24.8447   19.2714 H   0  0  0  0  0  0
  -28.4523  -21.1881   19.5619 H   0  0  0  0  0  0
  -28.2107  -22.1552   20.9779 H   0  0  0  0  0  0
  1 25  1  0  0  0
  1 30  2  0  0  0
  1 84  1  0  0  0
  2  3  1  0  0  0
  2 25  1  0  0  0
  2 87  1  0  0  0
  2 88  1  0  0  0
  3  4  1  0  0  0
  3 89  1  0  0  0
  3 90  1  0  0  0
  4  5  1  0  0  0
  4 91  1  0  0  0
  4 92  1  0  0  0
  5  6  1  0  0  0
  5 26  1  0  0  0
  5 93  1  0  0  0
  6 25  1  0  0  0
  6 94  1  0  0  0
  6 95  1  0  0  0
  7  8  2  0  0  0
  7 26  1  0  0  0
  7 29  1  0  0  0
  8  9  1  0  0  0
  8 22  1  0  0  0
  9 10  1  0  0  0
  9 27  2  0  0  0
 10 11  2  0  0  0
 10 15  1  0  0  0
 11 12  1  0  0  0
 11 96  1  0  0  0
 12 13  2  0  0  0
 12 97  1  0  0  0
 13 14  1  0  0  0
 13 31  1  0  0  0
 14 15  2  0  0  0
 14 98  1  0  0  0
 15 99  1  0  0  0
 16 17  2  0  0  0
 16 21  1  0  0  0
 16 31  1  0  0  0
 17 18  1  0  0  0
 17100  1  0  0  0
 18 19  2  0  0  0
 18101  1  0  0  0
 19 20  1  0  0  0
 19 24  1  0  0  0
 20 21  2  0  0  0
 20102  1  0  0  0
 21 23  1  0  0  0
 22 28  1  0  0  0
 22 32  2  0  0  0
 26 27  1  0  0  0
 28103  1  0  0  0
 28104  1  0  0  0
 29105  1  0  0  0
 29106  1  0  0  0
 33 34  1  0  0  0
 33 66  1  0  0  0
 33 70  2  0  0  0
 34 36  1  0  0  0
 34 59  1  0  0  0
 34107  1  0  0  0
 35 44  2  0  0  0
 35 45  1  0  0  0
 35 68  1  0  0  0
 36 56  1  0  0  0
 36108  1  0  0  0
 37 39  1  0  0  0
 37 47  1  0  0  0
 37 66  1  0  0  0
 37109  1  0  0  0
 38 43  2  0  0  0
 38 46  1  0  0  0
 38 47  1  0  0  0
 39 64  1  0  0  0
 39 67  2  0  0  0
 40 52  1  0  0  0
 40 53  2  0  0  0
 40 58  1  0  0  0
 41110  1  0  0  0
 41111  1  0  0  0
 41112  1  0  0  0
 41 48  1  0  0  0
 42 43  1  0  0  0
 42 66  1  0  0  0
 42113  1  0  0  0
 42114  1  0  0  0
 43 44  1  0  0  0
 44115  1  0  0  0
 45 46  2  0  0  0
 45116  1  0  0  0
 46117  1  0  0  0
 47118  1  0  0  0
 47119  1  0  0  0
 48 56  1  0  0  0
 48 65  1  0  0  0
 48120  1  0  0  0
 49 50  1  0  0  0
 49 53  1  0  0  0
 49 64  1  0  0  0
 49121  1  0  0  0
 50 51  1  0  0  0
 50122  1  0  0  0
 50123  1  0  0  0
 51 52  1  0  0  0
 51124  1  0  0  0
 51125  1  0  0  0
 52126  1  0  0  0
 52127  1  0  0  0
 53 54  1  0  0  0
 54 55  2  0  0  0
 54128  1  0  0  0
 55 57  1  0  0  0
 55129  1  0  0  0
 56 69  2  0  0  0
 57 58  2  0  0  0
 57130  1  0  0  0
 58131  1  0  0  0
 59 60  1  0  0  0
 59 61  1  0  0  0
 59 62  1  0  0  0
 60132  1  0  0  0
 60133  1  0  0  0
 60134  1  0  0  0
 61135  1  0  0  0
 61136  1  0  0  0
 61137  1  0  0  0
 62138  1  0  0  0
 62139  1  0  0  0
 62140  1  0  0  0
 63 65  1  0  0  0
 63141  1  0  0  0
 63142  1  0  0  0
 63143  1  0  0  0
 64144  1  0  0  0
 65145  1  0  0  0
 68 82  1  0  0  0
 71 73  2  0  0  0
 71 75  1  0  0  0
 71146  1  0  0  0
 72 74  2  0  0  0
 72 76  1  0  0  0
 72147  1  0  0  0
 73 74  1  0  0  0
 73 78  1  0  0  0
 74 84  1  0  0  0
 75 76  2  0  0  0
 75 85  1  0  0  0
 76 86  1  0  0  0
 77 78  2  0  0  0
 77148  1  0  0  0
 77149  1  0  0  0
 78150  1  0  0  0
 79 84  1  0  0  0
 79151  1  0  0  0
 79152  1  0  0  0
 79153  1  0  0  0
 80 81  1  0  0  0
 80 82  1  0  0  0
 80154  1  0  0  0
 80155  1  0  0  0
 81 83  1  0  0  0
 81156  1  0  0  0
 81157  1  0  0  0
 82158  1  0  0  0
 82159  1  0  0  0
 83 85  1  0  0  0
 83160  1  0  0  0
 83161  1  0  0  0
M  ISO  4   1 100  68 101  82 101  84 100
M  END
> <chiral flag>
0

> <version>
0

> <s_m_source_file>
/data/baiqing/PycharmProjects/Reinvent-master-3.2/result/LINK_invent/BTK/process_docking_weight1_custom_product_contain_oxygen_bond_distance_aromatic_linkinvent_7_9_3/rearranged_h_0108.sdf

> <i_m_source_file_index>
39

> <r_mmod_Potential_Energy-OPLS-2005>
194.064575195312

> <r_mmod_Stretch_Energy-OPLS-2005>
55.4300956726074

> <r_mmod_Bend_Energy-OPLS-2005>
131.473236083984

> <r_mmod_Torsional_Energy-OPLS-2005>
310.326904296875

> <r_mmod_Improper_Torsional_Energy-OPLS-2005>
3.8502357006073

> <r_mmod_Van_der_Waal_Energy-OPLS-2005>
169.136199951172

> <r_mmod_Electrostatic_Energy-OPLS-2005>
-301.865295410156

> <r_mmod_Solvation_Energy-OPLS-2005>
-190.251434326172

> <b_mmod_Minimization_Converged-OPLS-2005>
0

> <r_mmod_RMS_Derivative-OPLS-2005>
5.45854187011719

$$$$
40
                    3D
 Structure written by MMmdl.
161170  0  0  1  0            999 V2000
  -30.6681  -14.5076   20.5415 C   0  0  0  0  0  0
  -30.4302  -12.3292   19.3957 C   0  0  0  0  0  0
  -29.4891  -12.4807   18.1768 C   0  0  0  0  0  0
  -27.9993  -12.3754   18.5806 C   0  0  0  0  0  0
  -27.6476  -13.2059   19.8413 C   0  0  2  0  0  0
  -28.6955  -12.9834   20.9536 C   0  0  0  0  0  0
  -25.2503  -13.8107   20.5603 C   0  0  0  0  0  0
  -24.1798  -13.0425   20.9173 C   0  0  0  0  0  0
  -24.6330  -11.6857   20.8647 C   0  0  0  0  0  0
  -23.9008  -10.4258   21.0338 C   0  0  0  0  0  0
  -24.3555   -9.4195   21.9142 C   0  0  0  0  0  0
  -23.6225   -8.2242   22.0743 C   0  0  0  0  0  0
  -22.4206   -8.0287   21.3557 C   0  0  0  0  0  0
  -21.9832   -9.0238   20.4658 C   0  0  0  0  0  0
  -22.7151  -10.2115   20.3007 C   0  0  0  0  0  0
  -21.6904   -6.0683   22.5249 C   0  0  0  0  0  0
  -21.4041   -6.5571   23.8180 C   0  0  0  0  0  0
  -21.3671   -5.6750   24.9151 C   0  0  0  0  0  0
  -21.6052   -4.3006   24.7239 C   0  0  0  0  0  0
  -21.8811   -3.8084   23.4350 C   0  0  0  0  0  0
  -21.9194   -4.6890   22.3395 C   0  0  0  0  0  0
  -22.7801  -13.5236   21.1865 C   0  0  0  0  0  0
  -22.1656   -4.2053   21.0987 F   0  0  0  0  0  0
  -21.5650   -3.4499   25.7758 F   0  0  0  0  0  0
  -30.0178  -13.3198   20.3985 N   0  0  0  0  0  0
  -26.2919  -12.9298   20.3111 N   0  0  0  0  0  0
  -25.9253  -11.6459   20.5612 N   0  0  0  0  0  0
  -22.0468  -12.8225   22.0424 N   0  0  0  0  0  0
  -25.4238  -15.1852   20.4000 N   0  0  0  0  0  0
  -31.8337  -14.6828   20.1761 O   0  0  0  0  0  0
  -21.6642   -6.8826   21.4221 O   0  0  0  0  0  0
  -22.3477  -14.5567   20.6777 O   0  0  0  0  0  0
  -24.6191  -31.8718   23.2059 C   0  0  0  0  0  0
  -25.9095  -32.4856   23.8352 C   0  0  1  0  0  0
  -27.2112  -27.3710   20.0952 C   0  0  0  0  0  0
  -25.5918  -33.8642   24.2226 N   0  0  0  0  0  0
  -23.4011  -30.4979   21.5546 C   0  0  2  0  0  0
  -24.8363  -28.9574   20.1111 C   0  0  0  0  0  0
  -22.7362  -29.4706   22.5019 C   0  0  0  0  0  0
  -18.0296  -28.1276   22.8471 C   0  0  0  0  0  0
  -24.1454  -36.7297   23.2619 C   0  0  0  0  0  0
  -25.9350  -30.8206   21.3624 C   0  0  0  0  0  0
  -26.0098  -29.4519   20.6954 C   0  0  0  0  0  0
  -27.1999  -28.6702   20.6717 C   0  0  0  0  0  0
  -26.0053  -26.8968   19.5293 C   0  0  0  0  0  0
  -24.8304  -27.6767   19.5332 C   0  0  0  0  0  0
  -23.5957  -29.8268   20.1696 C   0  0  0  0  0  0
  -25.4093  -36.3095   24.0280 C   0  0  1  0  0  0
  -20.5878  -28.3536   23.1197 C   0  0  2  0  0  0
  -20.6936  -26.9427   22.4941 C   0  0  0  0  0  0
  -19.5634  -26.6058   21.5138 C   0  0  0  0  0  0
  -18.1889  -26.7776   22.1697 C   0  0  0  0  0  0
  -19.1550  -28.8673   23.2880 C   0  0  0  0  0  0
  -18.9550  -30.1217   23.9072 C   0  0  0  0  0  0
  -17.6594  -30.6465   24.0663 C   0  0  0  0  0  0
  -25.9033  -34.9483   23.5023 C   0  0  0  0  0  0
  -16.5449  -29.9095   23.6278 C   0  0  0  0  0  0
  -16.7323  -28.6503   23.0268 C   0  0  0  0  0  0
  -26.4439  -31.6718   25.0776 C   0  0  0  0  0  0
  -25.3637  -31.4035   26.1514 C   0  0  0  0  0  0
  -27.0285  -30.3092   24.6326 C   0  0  0  0  0  0
  -27.5922  -32.4477   25.7657 C   0  0  0  0  0  0
  -27.5526  -37.1805   24.8421 C   0  0  0  0  0  0
  -21.4079  -29.3155   22.3805 N   0  0  0  0  0  0
  -26.4249  -37.3794   23.9367 N   0  0  0  0  0  0
  -24.6709  -31.0762   22.0992 N   0  0  0  0  0  0
  -23.4104  -28.8120   23.2966 O   0  0  0  0  0  0
  -28.3765  -26.6067   20.1341 O   0  0  0  0  0  0
  -26.5605  -34.8958   22.4579 O   0  0  0  0  0  0
  -23.5398  -32.1476   23.7449 O   0  0  0  0  0  0
  -31.6296  -18.7134   21.8924 C   0  0  0  0  0  0
  -31.3720  -17.3388   21.7082 C   0  0  0  0  0  0
  -29.2407  -17.9251   20.7239 C   0  0  0  0  0  0
  -30.7226  -19.7152   21.4769 C   0  0  0  0  0  0
  -29.4712  -19.3192   20.9074 C   0  0  0  0  0  0
  -30.1804  -16.9245   21.0842 C   0  0  0  0  0  0
  -28.2573  -22.6639   19.6881 C   0  0  0  0  0  0
  -28.3739  -23.8131   21.7177 C   0  0  0  0  0  0
  -28.0602  -22.3216   21.9534 C   0  0  0  0  0  0
  -27.9035  -24.0460   20.2803 C   0  0  1  0  0  0
  -31.1811  -21.1586   21.6676 C   0  0  0  0  0  0
  -28.3066  -20.2455   20.4617 C   0  0  0  0  0  0
  -28.4688  -25.2881   19.5086 C   0  0  0  0  0  0
  -28.3103  -21.7151   20.6520 N   0  0  0  0  0  0
  -29.8612  -15.5423   20.8679 N   0  0  0  0  0  0
  -28.4369  -22.4790   18.4821 O   0  0  0  0  0  0
  -31.4671  -12.4664   19.0875 H   0  0  0  0  0  0
  -30.3777  -11.3211   19.8128 H   0  0  0  0  0  0
  -29.7152  -11.7233   17.4283 H   0  0  0  0  0  0
  -29.6732  -13.4389   17.6896 H   0  0  0  0  0  0
  -27.7767  -11.3220   18.7539 H   0  0  0  0  0  0
  -27.3597  -12.6860   17.7506 H   0  0  0  0  0  0
  -27.6794  -14.2492   19.5314 H   0  0  0  0  0  0
  -28.6909  -11.9344   21.2549 H   0  0  0  0  0  0
  -28.4505  -13.5576   21.8499 H   0  0  0  0  0  0
  -25.2715   -9.5694   22.4689 H   0  0  0  0  0  0
  -23.9944   -7.4644   22.7446 H   0  0  0  0  0  0
  -21.0784   -8.8751   19.8944 H   0  0  0  0  0  0
  -22.3625  -10.9632   19.6086 H   0  0  0  0  0  0
  -21.2047   -7.6084   23.9655 H   0  0  0  0  0  0
  -21.1516   -6.0494   25.9068 H   0  0  0  0  0  0
  -22.0583   -2.7532   23.2895 H   0  0  0  0  0  0
  -22.4116  -11.9886   22.4769 H   0  0  0  0  0  0
  -21.1089  -13.1231   22.2658 H   0  0  0  0  0  0
  -24.6755  -15.8480   20.5705 H   0  0  0  0  0  0
  -26.2640  -15.6122   20.0310 H   0  0  0  0  0  0
  -26.7163  -32.5448   23.1131 H   0  0  0  0  0  0
  -25.0139  -33.9849   25.0404 H   0  0  0  0  0  0
  -22.6945  -31.3205   21.4249 H   0  0  0  0  0  0
  -23.3722  -35.9630   23.3326 H   0  0  0  0  0  0
  -24.3507  -36.8901   22.2017 H   0  0  0  0  0  0
  -23.7269  -37.6509   23.6668 H   0  0  0  0  0  0
  -26.0473  -31.6070   20.6107 H   0  0  0  0  0  0
  -26.8117  -30.8544   21.9969 H   0  0  0  0  0  0
  -28.1036  -29.0511   21.1225 H   0  0  0  0  0  0
  -25.9339  -25.9040   19.1115 H   0  0  0  0  0  0
  -23.9172  -27.2798   19.1117 H   0  0  0  0  0  0
  -23.6580  -30.5933   19.3972 H   0  0  0  0  0  0
  -22.7132  -29.2405   19.9034 H   0  0  0  0  0  0
  -25.1309  -36.1941   25.0793 H   0  0  0  0  0  0
  -21.0027  -28.2850   24.1281 H   0  0  0  0  0  0
  -20.6636  -26.2032   23.2946 H   0  0  0  0  0  0
  -21.6579  -26.7983   22.0083 H   0  0  0  0  0  0
  -19.6736  -25.5782   21.1591 H   0  0  0  0  0  0
  -19.6483  -27.2424   20.6278 H   0  0  0  0  0  0
  -17.4076  -26.6399   21.4216 H   0  0  0  0  0  0
  -18.0408  -26.0007   22.9221 H   0  0  0  0  0  0
  -19.8073  -30.6889   24.2600 H   0  0  0  0  0  0
  -17.5209  -31.6101   24.5383 H   0  0  0  0  0  0
  -15.5479  -30.3073   23.7556 H   0  0  0  0  0  0
  -15.8658  -28.0905   22.6957 H   0  0  0  0  0  0
  -24.5703  -30.7496   25.7912 H   0  0  0  0  0  0
  -24.8985  -32.3322   26.4826 H   0  0  0  0  0  0
  -25.7910  -30.9310   27.0372 H   0  0  0  0  0  0
  -26.2982  -29.6995   24.1014 H   0  0  0  0  0  0
  -27.3510  -29.7260   25.4973 H   0  0  0  0  0  0
  -27.9018  -30.4287   23.9908 H   0  0  0  0  0  0
  -27.2381  -33.3708   26.2275 H   0  0  0  0  0  0
  -28.3804  -32.7184   25.0619 H   0  0  0  0  0  0
  -28.0514  -31.8617   26.5631 H   0  0  0  0  0  0
  -28.2549  -38.0090   24.7445 H   0  0  0  0  0  0
  -28.1031  -36.2619   24.6310 H   0  0  0  0  0  0
  -27.2213  -37.1499   25.8815 H   0  0  0  0  0  0
  -20.9148  -29.9148   21.7334 H   0  0  0  0  0  0
  -26.0126  -38.2847   24.1472 H   0  0  0  0  0  0
  -32.5600  -18.9938   22.3643 H   0  0  0  0  0  0
  -32.0962  -16.6121   22.0487 H   0  0  0  0  0  0
  -28.3111  -17.6077   20.2749 H   0  0  0  0  0  0
  -29.4504  -23.9759   21.7615 H   0  0  0  0  0  0
  -27.9031  -24.4760   22.4412 H   0  0  0  0  0  0
  -27.0070  -22.1851   22.2183 H   0  0  0  0  0  0
  -28.6618  -21.8779   22.7447 H   0  0  0  0  0  0
  -26.8162  -24.1076   20.2891 H   0  0  0  0  0  0
  -32.2699  -21.2095   21.6282 H   0  0  0  0  0  0
  -30.8946  -21.5290   22.6511 H   0  0  0  0  0  0
  -30.8343  -21.8589   20.9101 H   0  0  0  0  0  0
  -27.4195  -19.8740   20.9846 H   0  0  0  0  0  0
  -28.1176  -20.0318   19.4085 H   0  0  0  0  0  0
  -28.0213  -25.3304   18.5132 H   0  0  0  0  0  0
  -29.5279  -25.0952   19.3153 H   0  0  0  0  0  0
  -28.8802  -15.3091   20.8236 H   0  0  0  0  0  0
  1 25  1  0  0  0
  1 30  2  0  0  0
  1 85  1  0  0  0
  2  3  1  0  0  0
  2 25  1  0  0  0
  2 87  1  0  0  0
  2 88  1  0  0  0
  3  4  1  0  0  0
  3 89  1  0  0  0
  3 90  1  0  0  0
  4  5  1  0  0  0
  4 91  1  0  0  0
  4 92  1  0  0  0
  5  6  1  0  0  0
  5 26  1  0  0  0
  5 93  1  0  0  0
  6 25  1  0  0  0
  6 94  1  0  0  0
  6 95  1  0  0  0
  7  8  2  0  0  0
  7 26  1  0  0  0
  7 29  1  0  0  0
  8  9  1  0  0  0
  8 22  1  0  0  0
  9 10  1  0  0  0
  9 27  2  0  0  0
 10 11  2  0  0  0
 10 15  1  0  0  0
 11 12  1  0  0  0
 11 96  1  0  0  0
 12 13  2  0  0  0
 12 97  1  0  0  0
 13 14  1  0  0  0
 13 31  1  0  0  0
 14 15  2  0  0  0
 14 98  1  0  0  0
 15 99  1  0  0  0
 16 17  2  0  0  0
 16 21  1  0  0  0
 16 31  1  0  0  0
 17 18  1  0  0  0
 17100  1  0  0  0
 18 19  2  0  0  0
 18101  1  0  0  0
 19 20  1  0  0  0
 19 24  1  0  0  0
 20 21  2  0  0  0
 20102  1  0  0  0
 21 23  1  0  0  0
 22 28  1  0  0  0
 22 32  2  0  0  0
 26 27  1  0  0  0
 28103  1  0  0  0
 28104  1  0  0  0
 29105  1  0  0  0
 29106  1  0  0  0
 33 34  1  0  0  0
 33 66  1  0  0  0
 33 70  2  0  0  0
 34 36  1  0  0  0
 34 59  1  0  0  0
 34107  1  0  0  0
 35 44  2  0  0  0
 35 45  1  0  0  0
 35 68  1  0  0  0
 36 56  1  0  0  0
 36108  1  0  0  0
 37 39  1  0  0  0
 37 47  1  0  0  0
 37 66  1  0  0  0
 37109  1  0  0  0
 38 43  2  0  0  0
 38 46  1  0  0  0
 38 47  1  0  0  0
 39 64  1  0  0  0
 39 67  2  0  0  0
 40 52  1  0  0  0
 40 53  2  0  0  0
 40 58  1  0  0  0
 41110  1  0  0  0
 41111  1  0  0  0
 41112  1  0  0  0
 41 48  1  0  0  0
 42 43  1  0  0  0
 42 66  1  0  0  0
 42113  1  0  0  0
 42114  1  0  0  0
 43 44  1  0  0  0
 44115  1  0  0  0
 45 46  2  0  0  0
 45116  1  0  0  0
 46117  1  0  0  0
 47118  1  0  0  0
 47119  1  0  0  0
 48 56  1  0  0  0
 48 65  1  0  0  0
 48120  1  0  0  0
 49 50  1  0  0  0
 49 53  1  0  0  0
 49 64  1  0  0  0
 49121  1  0  0  0
 50 51  1  0  0  0
 50122  1  0  0  0
 50123  1  0  0  0
 51 52  1  0  0  0
 51124  1  0  0  0
 51125  1  0  0  0
 52126  1  0  0  0
 52127  1  0  0  0
 53 54  1  0  0  0
 54 55  2  0  0  0
 54128  1  0  0  0
 55 57  1  0  0  0
 55129  1  0  0  0
 56 69  2  0  0  0
 57 58  2  0  0  0
 57130  1  0  0  0
 58131  1  0  0  0
 59 60  1  0  0  0
 59 61  1  0  0  0
 59 62  1  0  0  0
 60132  1  0  0  0
 60133  1  0  0  0
 60134  1  0  0  0
 61135  1  0  0  0
 61136  1  0  0  0
 61137  1  0  0  0
 62138  1  0  0  0
 62139  1  0  0  0
 62140  1  0  0  0
 63 65  1  0  0  0
 63141  1  0  0  0
 63142  1  0  0  0
 63143  1  0  0  0
 64144  1  0  0  0
 65145  1  0  0  0
 68 83  1  0  0  0
 71 72  2  0  0  0
 71 74  1  0  0  0
 71146  1  0  0  0
 72 76  1  0  0  0
 72147  1  0  0  0
 73 75  1  0  0  0
 73 76  2  0  0  0
 73148  1  0  0  0
 74 75  2  0  0  0
 74 81  1  0  0  0
 75 82  1  0  0  0
 76 85  1  0  0  0
 77 80  1  0  0  0
 77 84  1  0  0  0
 77 86  2  0  0  0
 78 79  1  0  0  0
 78 80  1  0  0  0
 78149  1  0  0  0
 78150  1  0  0  0
 79 84  1  0  0  0
 79151  1  0  0  0
 79152  1  0  0  0
 80 83  1  0  0  0
 80153  1  0  0  0
 81154  1  0  0  0
 81155  1  0  0  0
 81156  1  0  0  0
 82 84  1  0  0  0
 82157  1  0  0  0
 82158  1  0  0  0
 83159  1  0  0  0
 83160  1  0  0  0
 85161  1  0  0  0
M  ISO  4   1 100  68 101  83 101  85 100
M  END
> <chiral flag>
0

> <version>
0

> <s_m_source_file>
/data/baiqing/PycharmProjects/Reinvent-master-3.2/result/LINK_invent/BTK/process_docking_weight1_custom_product_contain_oxygen_bond_distance_aromatic_linkinvent_7_9_3/rearranged_h_0108.sdf

> <i_m_source_file_index>
40

> <r_mmod_Potential_Energy-OPLS-2005>
36.0054244995117

> <r_mmod_Stretch_Energy-OPLS-2005>
51.2662239074707

> <r_mmod_Bend_Energy-OPLS-2005>
181.643920898438

> <r_mmod_Torsional_Energy-OPLS-2005>
232.733139038086

> <r_mmod_Improper_Torsional_Energy-OPLS-2005>
6.77552795410156

> <r_mmod_Van_der_Waal_Energy-OPLS-2005>
142.047927856445

> <r_mmod_Electrostatic_Energy-OPLS-2005>
-376.374786376953

> <r_mmod_Solvation_Energy-OPLS-2005>
-228.158721923828

> <b_mmod_Minimization_Converged-OPLS-2005>
0

> <r_mmod_RMS_Derivative-OPLS-2005>
8.50492000579834

$$$$
41
                    3D
 Structure written by MMmdl.
163171  0  0  1  0            999 V2000
  -30.7121  -14.7362   20.3781 C   0  0  0  0  0  0
  -30.4288  -12.4610   19.4231 C   0  0  0  0  0  0
  -29.4899  -12.4967   18.2014 C   0  0  0  0  0  0
  -28.0279  -12.3087   18.6485 C   0  0  0  0  0  0
  -27.6382  -13.2213   19.8441 C   0  0  2  0  0  0
  -28.7154  -13.2532   20.9501 C   0  0  0  0  0  0
  -25.2564  -13.8110   20.5907 C   0  0  0  0  0  0
  -24.1818  -13.0387   20.9274 C   0  0  0  0  0  0
  -24.6419  -11.6877   20.8790 C   0  0  0  0  0  0
  -23.9088  -10.4272   21.0416 C   0  0  0  0  0  0
  -24.3626   -9.4179   21.9191 C   0  0  0  0  0  0
  -23.6297   -8.2219   22.0761 C   0  0  0  0  0  0
  -22.4272   -8.0279   21.3558 C   0  0  0  0  0  0
  -21.9915   -9.0257   20.4661 C   0  0  0  0  0  0
  -22.7256  -10.2129   20.3075 C   0  0  0  0  0  0
  -21.6840   -6.0737   22.5285 C   0  0  0  0  0  0
  -21.4002   -6.5632   23.8218 C   0  0  0  0  0  0
  -21.3659   -5.6788   24.9176 C   0  0  0  0  0  0
  -21.6045   -4.3052   24.7227 C   0  0  0  0  0  0
  -21.8819   -3.8144   23.4343 C   0  0  0  0  0  0
  -21.9190   -4.6968   22.3396 C   0  0  0  0  0  0
  -22.7834  -13.5208   21.1858 C   0  0  0  0  0  0
  -22.1662   -4.2160   21.0978 F   0  0  0  0  0  0
  -21.5638   -3.4530   25.7730 F   0  0  0  0  0  0
  -29.9968  -13.5650   20.3015 N   0  0  0  0  0  0
  -26.2994  -12.9323   20.3446 N   0  0  0  0  0  0
  -25.9352  -11.6470   20.5826 N   0  0  0  0  0  0
  -22.0433  -12.8260   22.0421 N   0  0  0  0  0  0
  -25.4236  -15.1824   20.4520 N   0  0  0  0  0  0
  -31.9413  -14.6749   20.4429 O   0  0  0  0  0  0
  -21.6634   -6.8880   21.4251 O   0  0  0  0  0  0
  -22.3542  -14.5497   20.6650 O   0  0  0  0  0  0
  -24.6284  -31.8579   23.1985 C   0  0  0  0  0  0
  -25.9125  -32.4780   23.8327 C   0  0  1  0  0  0
  -27.2289  -27.3118   20.1268 C   0  0  0  0  0  0
  -25.5957  -33.8581   24.2302 N   0  0  0  0  0  0
  -23.4211  -30.4761   21.5397 C   0  0  2  0  0  0
  -24.8696  -28.9189   20.1129 C   0  0  0  0  0  0
  -22.7473  -29.4613   22.4918 C   0  0  0  0  0  0
  -18.0287  -28.1420   22.8479 C   0  0  0  0  0  0
  -24.1485  -36.7292   23.2626 C   0  0  0  0  0  0
  -25.9575  -30.7874   21.3615 C   0  0  0  0  0  0
  -26.0343  -29.4061   20.7180 C   0  0  0  0  0  0
  -27.2197  -28.6152   20.7120 C   0  0  0  0  0  0
  -26.0442  -26.8648   19.5097 C   0  0  0  0  0  0
  -24.8749  -27.6553   19.4991 C   0  0  0  0  0  0
  -23.6401  -29.8040   20.1578 C   0  0  0  0  0  0
  -25.4111  -36.3108   24.0347 C   0  0  1  0  0  0
  -20.5883  -28.3734   23.1286 C   0  0  2  0  0  0
  -20.6794  -26.9454   22.5412 C   0  0  0  0  0  0
  -19.5782  -26.6411   21.5212 C   0  0  0  0  0  0
  -18.1957  -26.7951   22.1618 C   0  0  0  0  0  0
  -19.1546  -28.8883   23.2883 C   0  0  0  0  0  0
  -18.9463  -30.1472   23.8911 C   0  0  0  0  0  0
  -17.6467  -30.6606   24.0581 C   0  0  0  0  0  0
  -25.9049  -34.9458   23.5125 C   0  0  0  0  0  0
  -16.5352  -29.9110   23.6324 C   0  0  0  0  0  0
  -16.7270  -28.6535   23.0324 C   0  0  0  0  0  0
  -26.4526  -31.6552   25.0651 C   0  0  0  0  0  0
  -25.3787  -31.3682   26.1386 C   0  0  0  0  0  0
  -27.0311  -30.2977   24.6031 C   0  0  0  0  0  0
  -27.6153  -32.4219   25.7391 C   0  0  0  0  0  0
  -27.5597  -37.1788   24.8475 C   0  0  0  0  0  0
  -21.4191  -29.3076   22.3662 N   0  0  0  0  0  0
  -26.4299  -37.3808   23.9426 N   0  0  0  0  0  0
  -24.6891  -31.0561   22.0934 N   0  0  0  0  0  0
  -23.4178  -28.8168   23.3020 O   0  0  0  0  0  0
  -28.3632  -26.4947   20.1098 O   0  0  0  0  0  0
  -26.5584  -34.8931   22.4668 O   0  0  0  0  0  0
  -23.5438  -32.1385   23.7305 O   0  0  0  0  0  0
  -30.4277  -18.0581   20.9060 C   0  0  0  0  0  0
  -28.2091  -19.0731   19.5764 C   0  0  0  0  0  0
  -30.0634  -19.4483   21.0473 C   0  0  0  0  0  0
  -28.5696  -17.7066   19.4125 C   0  0  0  0  0  0
  -29.7011  -17.1400   20.0813 C   0  0  0  0  0  0
  -28.9467  -19.9999   20.3461 C   0  0  0  0  0  0
  -30.8684  -20.3312   21.9866 C   0  0  0  0  0  0
  -27.5956  -17.4289   17.0451 C   0  0  0  0  0  0
  -30.9442  -16.0101   18.3837 C   0  0  0  0  0  0
  -27.6999  -16.8790   18.4697 C   0  0  0  0  0  0
  -28.5449  -23.8615   19.7369 C   0  0  0  0  0  0
  -28.2867  -25.1257   20.6734 C   0  0  0  0  0  0
  -29.2592  -22.5345   20.3029 C   0  0  0  0  0  0
  -30.2148  -15.8207   19.6548 N   0  0  0  0  0  0
  -28.4381  -21.3227   20.4048 O   0  0  0  0  0  0
  -31.4658  -12.5723   19.0973 H   0  0  0  0  0  0
  -30.3655  -11.5030   19.9403 H   0  0  0  0  0  0
  -29.7737  -11.7247   17.4856 H   0  0  0  0  0  0
  -29.5843  -13.4482   17.6762 H   0  0  0  0  0  0
  -27.9099  -11.2662   18.9376 H   0  0  0  0  0  0
  -27.3484  -12.4680   17.8095 H   0  0  0  0  0  0
  -27.5925  -14.2213   19.4409 H   0  0  0  0  0  0
  -28.7749  -12.3096   21.4928 H   0  0  0  0  0  0
  -28.4748  -14.0271   21.6813 H   0  0  0  0  0  0
  -25.2768   -9.5652   22.4772 H   0  0  0  0  0  0
  -24.0005   -7.4610   22.7479 H   0  0  0  0  0  0
  -21.0841   -8.8810   19.8962 H   0  0  0  0  0  0
  -22.3737  -10.9694   19.6201 H   0  0  0  0  0  0
  -21.1991   -7.6145   23.9725 H   0  0  0  0  0  0
  -21.1480   -6.0514   25.9087 H   0  0  0  0  0  0
  -22.0599   -2.7618   23.2834 H   0  0  0  0  0  0
  -22.4015  -11.9970   22.4924 H   0  0  0  0  0  0
  -21.1052  -13.1338   22.2553 H   0  0  0  0  0  0
  -24.6616  -15.8378   20.5861 H   0  0  0  0  0  0
  -26.3029  -15.6299   20.2268 H   0  0  0  0  0  0
  -26.7187  -32.5482   23.1069 H   0  0  0  0  0  0
  -25.0188  -33.9704   25.0495 H   0  0  0  0  0  0
  -22.7167  -31.2979   21.3932 H   0  0  0  0  0  0
  -23.3765  -35.9608   23.3286 H   0  0  0  0  0  0
  -24.3579  -36.8892   22.2045 H   0  0  0  0  0  0
  -23.7203  -37.6494   23.6600 H   0  0  0  0  0  0
  -26.0662  -31.5352   20.5758 H   0  0  0  0  0  0
  -26.8508  -30.8603   21.9714 H   0  0  0  0  0  0
  -28.1201  -28.9834   21.1787 H   0  0  0  0  0  0
  -26.0187  -25.8956   19.0315 H   0  0  0  0  0  0
  -23.9835  -27.2773   19.0159 H   0  0  0  0  0  0
  -23.7696  -30.5777   19.3986 H   0  0  0  0  0  0
  -22.7574  -29.2388   19.8519 H   0  0  0  0  0  0
  -25.1288  -36.1987   25.0851 H   0  0  0  0  0  0
  -20.9993  -28.3327   24.1400 H   0  0  0  0  0  0
  -20.5745  -26.2329   23.3608 H   0  0  0  0  0  0
  -21.6662  -26.7509   22.1211 H   0  0  0  0  0  0
  -19.6953  -25.6328   21.1251 H   0  0  0  0  0  0
  -19.6744  -27.3208   20.6748 H   0  0  0  0  0  0
  -17.4237  -26.6690   21.4006 H   0  0  0  0  0  0
  -18.0367  -26.0092   22.9031 H   0  0  0  0  0  0
  -19.7928  -30.7296   24.2267 H   0  0  0  0  0  0
  -17.5013  -31.6265   24.5217 H   0  0  0  0  0  0
  -15.5363  -30.3039   23.7608 H   0  0  0  0  0  0
  -15.8669  -28.0872   22.7010 H   0  0  0  0  0  0
  -24.5972  -30.7029   25.7710 H   0  0  0  0  0  0
  -24.8955  -32.2835   26.4817 H   0  0  0  0  0  0
  -25.8126  -30.8858   27.0150 H   0  0  0  0  0  0
  -26.2803  -29.6722   24.1192 H   0  0  0  0  0  0
  -27.4178  -29.7258   25.4483 H   0  0  0  0  0  0
  -27.8622  -30.4275   23.9099 H   0  0  0  0  0  0
  -27.2855  -33.3533   26.1994 H   0  0  0  0  0  0
  -28.3924  -32.6722   25.0158 H   0  0  0  0  0  0
  -28.0830  -31.8284   26.5250 H   0  0  0  0  0  0
  -28.2652  -38.0059   24.7529 H   0  0  0  0  0  0
  -28.1066  -36.2596   24.6300 H   0  0  0  0  0  0
  -27.2306  -37.1452   25.8878 H   0  0  0  0  0  0
  -20.9339  -29.8730   21.6837 H   0  0  0  0  0  0
  -26.0205  -38.2901   24.1422 H   0  0  0  0  0  0
  -31.3228  -17.7116   21.4055 H   0  0  0  0  0  0
  -27.3327  -19.4391   19.0615 H   0  0  0  0  0  0
  -31.4629  -19.7451   22.6852 H   0  0  0  0  0  0
  -30.1983  -20.9558   22.5793 H   0  0  0  0  0  0
  -31.5444  -20.9763   21.4253 H   0  0  0  0  0  0
  -26.9151  -16.8039   16.4641 H   0  0  0  0  0  0
  -28.5643  -17.4137   16.5484 H   0  0  0  0  0  0
  -27.2101  -18.4474   17.0195 H   0  0  0  0  0  0
  -30.3348  -16.5142   17.6369 H   0  0  0  0  0  0
  -31.2913  -15.0793   17.9297 H   0  0  0  0  0  0
  -31.8226  -16.6420   18.5450 H   0  0  0  0  0  0
  -26.7070  -16.8102   18.9059 H   0  0  0  0  0  0
  -28.0747  -15.8698   18.3687 H   0  0  0  0  0  0
  -29.1634  -24.2224   18.9141 H   0  0  0  0  0  0
  -27.6042  -23.5793   19.2637 H   0  0  0  0  0  0
  -29.0442  -25.1051   21.4558 H   0  0  0  0  0  0
  -27.3431  -24.9895   21.2036 H   0  0  0  0  0  0
  -29.7230  -22.7550   21.2642 H   0  0  0  0  0  0
  -30.0859  -22.2887   19.6312 H   0  0  0  0  0  0
  1 25  1  0  0  0
  1 30  2  0  0  0
  1 84  1  0  0  0
  2  3  1  0  0  0
  2 25  1  0  0  0
  2 86  1  0  0  0
  2 87  1  0  0  0
  3  4  1  0  0  0
  3 88  1  0  0  0
  3 89  1  0  0  0
  4  5  1  0  0  0
  4 90  1  0  0  0
  4 91  1  0  0  0
  5  6  1  0  0  0
  5 26  1  0  0  0
  5 92  1  0  0  0
  6 25  1  0  0  0
  6 93  1  0  0  0
  6 94  1  0  0  0
  7  8  2  0  0  0
  7 26  1  0  0  0
  7 29  1  0  0  0
  8  9  1  0  0  0
  8 22  1  0  0  0
  9 10  1  0  0  0
  9 27  2  0  0  0
 10 11  2  0  0  0
 10 15  1  0  0  0
 11 12  1  0  0  0
 11 95  1  0  0  0
 12 13  2  0  0  0
 12 96  1  0  0  0
 13 14  1  0  0  0
 13 31  1  0  0  0
 14 15  2  0  0  0
 14 97  1  0  0  0
 15 98  1  0  0  0
 16 17  2  0  0  0
 16 21  1  0  0  0
 16 31  1  0  0  0
 17 18  1  0  0  0
 17 99  1  0  0  0
 18 19  2  0  0  0
 18100  1  0  0  0
 19 20  1  0  0  0
 19 24  1  0  0  0
 20 21  2  0  0  0
 20101  1  0  0  0
 21 23  1  0  0  0
 22 28  1  0  0  0
 22 32  2  0  0  0
 26 27  1  0  0  0
 28102  1  0  0  0
 28103  1  0  0  0
 29104  1  0  0  0
 29105  1  0  0  0
 33 34  1  0  0  0
 33 66  1  0  0  0
 33 70  2  0  0  0
 34 36  1  0  0  0
 34 59  1  0  0  0
 34106  1  0  0  0
 35 44  2  0  0  0
 35 45  1  0  0  0
 35 68  1  0  0  0
 36 56  1  0  0  0
 36107  1  0  0  0
 37 39  1  0  0  0
 37 47  1  0  0  0
 37 66  1  0  0  0
 37108  1  0  0  0
 38 43  2  0  0  0
 38 46  1  0  0  0
 38 47  1  0  0  0
 39 64  1  0  0  0
 39 67  2  0  0  0
 40 52  1  0  0  0
 40 53  2  0  0  0
 40 58  1  0  0  0
 41109  1  0  0  0
 41110  1  0  0  0
 41111  1  0  0  0
 41 48  1  0  0  0
 42 43  1  0  0  0
 42 66  1  0  0  0
 42112  1  0  0  0
 42113  1  0  0  0
 43 44  1  0  0  0
 44114  1  0  0  0
 45 46  2  0  0  0
 45115  1  0  0  0
 46116  1  0  0  0
 47117  1  0  0  0
 47118  1  0  0  0
 48 56  1  0  0  0
 48 65  1  0  0  0
 48119  1  0  0  0
 49 50  1  0  0  0
 49 53  1  0  0  0
 49 64  1  0  0  0
 49120  1  0  0  0
 50 51  1  0  0  0
 50121  1  0  0  0
 50122  1  0  0  0
 51 52  1  0  0  0
 51123  1  0  0  0
 51124  1  0  0  0
 52125  1  0  0  0
 52126  1  0  0  0
 53 54  1  0  0  0
 54 55  2  0  0  0
 54127  1  0  0  0
 55 57  1  0  0  0
 55128  1  0  0  0
 56 69  2  0  0  0
 57 58  2  0  0  0
 57129  1  0  0  0
 58130  1  0  0  0
 59 60  1  0  0  0
 59 61  1  0  0  0
 59 62  1  0  0  0
 60131  1  0  0  0
 60132  1  0  0  0
 60133  1  0  0  0
 61134  1  0  0  0
 61135  1  0  0  0
 61136  1  0  0  0
 62137  1  0  0  0
 62138  1  0  0  0
 62139  1  0  0  0
 63 65  1  0  0  0
 63140  1  0  0  0
 63141  1  0  0  0
 63142  1  0  0  0
 64143  1  0  0  0
 65144  1  0  0  0
 68 82  1  0  0  0
 71 73  2  0  0  0
 71 75  1  0  0  0
 71145  1  0  0  0
 72 74  1  0  0  0
 72 76  2  0  0  0
 72146  1  0  0  0
 73 76  1  0  0  0
 73 77  1  0  0  0
 74 75  2  0  0  0
 74 80  1  0  0  0
 75 84  1  0  0  0
 76 85  1  0  0  0
 77147  1  0  0  0
 77148  1  0  0  0
 77149  1  0  0  0
 78 80  1  0  0  0
 78150  1  0  0  0
 78151  1  0  0  0
 78152  1  0  0  0
 79 84  1  0  0  0
 79153  1  0  0  0
 79154  1  0  0  0
 79155  1  0  0  0
 80156  1  0  0  0
 80157  1  0  0  0
 81 82  1  0  0  0
 81 83  1  0  0  0
 81158  1  0  0  0
 81159  1  0  0  0
 82160  1  0  0  0
 82161  1  0  0  0
 83 85  1  0  0  0
 83162  1  0  0  0
 83163  1  0  0  0
M  ISO  4   1 100  68 101  82 101  84 100
M  END
> <chiral flag>
0

> <version>
0

> <s_m_source_file>
/data/baiqing/PycharmProjects/Reinvent-master-3.2/result/LINK_invent/BTK/process_docking_weight1_custom_product_contain_oxygen_bond_distance_aromatic_linkinvent_7_9_3/rearranged_h_0108.sdf

> <i_m_source_file_index>
41

> <r_mmod_Potential_Energy-OPLS-2005>
410.192962646484

> <r_mmod_Stretch_Energy-OPLS-2005>
94.5474090576172

> <r_mmod_Bend_Energy-OPLS-2005>
191.388412475586

> <r_mmod_Torsional_Energy-OPLS-2005>
370.535095214844

> <r_mmod_Improper_Torsional_Energy-OPLS-2005>
35.1113243103027

> <r_mmod_Van_der_Waal_Energy-OPLS-2005>
139.975662231445

> <r_mmod_Electrostatic_Energy-OPLS-2005>
-328.929077148438

> <r_mmod_Solvation_Energy-OPLS-2005>
-187.149230957031

> <b_mmod_Minimization_Converged-OPLS-2005>
0

> <r_mmod_RMS_Derivative-OPLS-2005>
4.92004346847534

$$$$
42
                    3D
 Structure written by MMmdl.
158167  0  0  1  0            999 V2000
  -30.6250  -14.7412   20.5154 C   0  0  0  0  0  0
  -30.4354  -12.4719   19.4645 C   0  0  0  0  0  0
  -29.5057  -12.5258   18.2329 C   0  0  0  0  0  0
  -28.0300  -12.3443   18.6462 C   0  0  0  0  0  0
  -27.6428  -13.2272   19.8618 C   0  0  2  0  0  0
  -28.6924  -13.0998   20.9878 C   0  0  0  0  0  0
  -25.2485  -13.8189   20.5772 C   0  0  0  0  0  0
  -24.1771  -13.0439   20.9265 C   0  0  0  0  0  0
  -24.6359  -11.6921   20.8745 C   0  0  0  0  0  0
  -23.9056  -10.4303   21.0397 C   0  0  0  0  0  0
  -24.3602   -9.4227   21.9185 C   0  0  0  0  0  0
  -23.6281   -8.2254   22.0755 C   0  0  0  0  0  0
  -22.4272   -8.0296   21.3540 C   0  0  0  0  0  0
  -21.9907   -9.0269   20.4637 C   0  0  0  0  0  0
  -22.7237  -10.2147   20.3046 C   0  0  0  0  0  0
  -21.6863   -6.0742   22.5289 C   0  0  0  0  0  0
  -21.4028   -6.5629   23.8226 C   0  0  0  0  0  0
  -21.3639   -5.6770   24.9174 C   0  0  0  0  0  0
  -21.6022   -4.3030   24.7229 C   0  0  0  0  0  0
  -21.8819   -3.8145   23.4350 C   0  0  0  0  0  0
  -21.9206   -4.6965   22.3414 C   0  0  0  0  0  0
  -22.7793  -13.5204   21.1914 C   0  0  0  0  0  0
  -22.1683   -4.2148   21.0996 F   0  0  0  0  0  0
  -21.5613   -3.4518   25.7736 F   0  0  0  0  0  0
  -29.9829  -13.5170   20.4181 N   0  0  0  0  0  0
  -26.2910  -12.9393   20.3318 N   0  0  0  0  0  0
  -25.9270  -11.6531   20.5717 N   0  0  0  0  0  0
  -22.0408  -12.8202   22.0449 N   0  0  0  0  0  0
  -25.4147  -15.1923   20.4322 N   0  0  0  0  0  0
  -31.7936  -14.8252   20.1225 O   0  0  0  0  0  0
  -21.6641   -6.8883   21.4252 O   0  0  0  0  0  0
  -22.3479  -14.5518   20.6755 O   0  0  0  0  0  0
  -24.6280  -31.8568   23.2016 C   0  0  0  0  0  0
  -25.9109  -32.4777   23.8363 C   0  0  1  0  0  0
  -27.2327  -27.2932   20.1347 C   0  0  0  0  0  0
  -25.5925  -33.8575   24.2297 N   0  0  0  0  0  0
  -23.4267  -30.4764   21.5435 C   0  0  2  0  0  0
  -24.8810  -28.9246   20.1201 C   0  0  0  0  0  0
  -22.7488  -29.4580   22.4918 C   0  0  0  0  0  0
  -18.0275  -28.1377   22.8491 C   0  0  0  0  0  0
  -24.1487  -36.7287   23.2638 C   0  0  0  0  0  0
  -25.9695  -30.7767   21.3825 C   0  0  0  0  0  0
  -26.0483  -29.3969   20.7362 C   0  0  0  0  0  0
  -27.2294  -28.5878   20.7473 C   0  0  0  0  0  0
  -26.0499  -26.8807   19.4922 C   0  0  0  0  0  0
  -24.8840  -27.6699   19.4903 C   0  0  0  0  0  0
  -23.6502  -29.8085   20.1613 C   0  0  0  0  0  0
  -25.4120  -36.3090   24.0330 C   0  0  1  0  0  0
  -20.5875  -28.3685   23.1285 C   0  0  2  0  0  0
  -20.6761  -26.9398   22.5415 C   0  0  0  0  0  0
  -19.5733  -26.6347   21.5228 C   0  0  0  0  0  0
  -18.1917  -26.7907   22.1643 C   0  0  0  0  0  0
  -19.1525  -28.8853   23.2879 C   0  0  0  0  0  0
  -18.9438  -30.1453   23.8887 C   0  0  0  0  0  0
  -17.6432  -30.6580   24.0537 C   0  0  0  0  0  0
  -25.9052  -34.9454   23.5118 C   0  0  0  0  0  0
  -16.5326  -29.9081   23.6298 C   0  0  0  0  0  0
  -16.7258  -28.6488   23.0344 C   0  0  0  0  0  0
  -26.4500  -31.6586   25.0725 C   0  0  0  0  0  0
  -25.3727  -31.3719   26.1443 C   0  0  0  0  0  0
  -27.0341  -30.3012   24.6169 C   0  0  0  0  0  0
  -27.6069  -32.4317   25.7479 C   0  0  0  0  0  0
  -27.5587  -37.1812   24.8467 C   0  0  0  0  0  0
  -21.4193  -29.3037   22.3689 N   0  0  0  0  0  0
  -26.4303  -37.3784   23.9412 N   0  0  0  0  0  0
  -24.6928  -31.0530   22.1010 N   0  0  0  0  0  0
  -23.4190  -28.8095   23.2993 O   0  0  0  0  0  0
  -28.3023  -26.3848   20.0762 O   0  0  0  0  0  0
  -26.5600  -34.8913   22.4676 O   0  0  0  0  0  0
  -23.5426  -32.1368   23.7314 O   0  0  0  0  0  0
  -30.1619  -22.1857   20.6088 C   0  0  0  0  0  0
  -30.2557  -20.7530   20.4912 C   0  0  0  0  0  0
  -27.8904  -20.6101   20.7849 C   0  0  0  0  0  0
  -28.9328  -22.8834   20.8360 C   0  0  0  0  0  0
  -29.1170  -19.9075   20.6144 C   0  0  0  0  0  0
  -27.7916  -22.0337   20.9064 C   0  0  0  0  0  0
  -28.8973  -24.2895   21.4585 C   0  0  0  0  0  0
  -28.6290  -25.6294   21.2084 C   0  0  0  0  0  0
  -28.7023  -17.6813   21.9534 C   0  0  0  0  0  0
  -28.8738  -16.1545   21.7524 C   0  0  0  0  0  0
  -30.2556  -17.3184   20.2265 C   0  0  0  0  0  0
  -29.0832  -18.3099   20.6170 C   0  0  2  0  0  0
  -26.4315  -22.6354   21.2160 C   0  0  0  0  0  0
  -29.8971  -15.9230   20.7165 N   0  0  0  0  0  0
  -31.4714  -12.6098   19.1515 H   0  0  0  0  0  0
  -30.4035  -11.4838   19.9282 H   0  0  0  0  0  0
  -29.7874  -11.7511   17.5166 H   0  0  0  0  0  0
  -29.6300  -13.4831   17.7217 H   0  0  0  0  0  0
  -27.8875  -11.2933   18.8969 H   0  0  0  0  0  0
  -27.3685  -12.5439   17.8030 H   0  0  0  0  0  0
  -27.6536  -14.2584   19.5074 H   0  0  0  0  0  0
  -28.7450  -12.0668   21.3284 H   0  0  0  0  0  0
  -28.4145  -13.6599   21.8757 H   0  0  0  0  0  0
  -25.2731   -9.5728   22.4771 H   0  0  0  0  0  0
  -23.9988   -7.4641   22.7459 H   0  0  0  0  0  0
  -21.0852   -8.8810   19.8925 H   0  0  0  0  0  0
  -22.3694  -10.9703   19.6170 H   0  0  0  0  0  0
  -21.2043   -7.6136   23.9755 H   0  0  0  0  0  0
  -21.1448   -6.0476   25.9075 H   0  0  0  0  0  0
  -22.0616   -2.7613   23.2852 H   0  0  0  0  0  0
  -22.4022  -11.9904   22.4916 H   0  0  0  0  0  0
  -21.0977  -13.1166   22.2546 H   0  0  0  0  0  0
  -26.2612  -15.6515   20.1230 H   0  0  0  0  0  0
  -24.6674  -15.8411   20.6502 H   0  0  0  0  0  0
  -26.7177  -32.5464   23.1117 H   0  0  0  0  0  0
  -25.0144  -33.9731   25.0485 H   0  0  0  0  0  0
  -22.7214  -31.2975   21.3950 H   0  0  0  0  0  0
  -23.3759  -35.9609   23.3297 H   0  0  0  0  0  0
  -24.3577  -36.8891   22.2053 H   0  0  0  0  0  0
  -23.7220  -37.6483   23.6647 H   0  0  0  0  0  0
  -26.0999  -31.5325   20.6067 H   0  0  0  0  0  0
  -26.8504  -30.8365   22.0089 H   0  0  0  0  0  0
  -28.1283  -28.9442   21.2303 H   0  0  0  0  0  0
  -26.0315  -25.9184   18.9984 H   0  0  0  0  0  0
  -23.9943  -27.2988   18.9995 H   0  0  0  0  0  0
  -23.7772  -30.5836   19.4051 H   0  0  0  0  0  0
  -22.7712  -29.2385   19.8563 H   0  0  0  0  0  0
  -25.1303  -36.1960   25.0823 H   0  0  0  0  0  0
  -20.9966  -28.3270   24.1403 H   0  0  0  0  0  0
  -20.5649  -26.2277   23.3605 H   0  0  0  0  0  0
  -21.6631  -26.7410   22.1215 H   0  0  0  0  0  0
  -19.6875  -25.6240   21.1299 H   0  0  0  0  0  0
  -19.6657  -27.3125   20.6745 H   0  0  0  0  0  0
  -17.4169  -26.6628   21.4052 H   0  0  0  0  0  0
  -18.0301  -26.0051   22.9060 H   0  0  0  0  0  0
  -19.7892  -30.7281   24.2259 H   0  0  0  0  0  0
  -17.4973  -31.6266   24.5140 H   0  0  0  0  0  0
  -15.5327  -30.2984   23.7603 H   0  0  0  0  0  0
  -15.8660  -28.0799   22.7072 H   0  0  0  0  0  0
  -24.5923  -30.7042   25.7765 H   0  0  0  0  0  0
  -24.8884  -32.2870   26.4858 H   0  0  0  0  0  0
  -25.8041  -30.8910   27.0226 H   0  0  0  0  0  0
  -26.2916  -29.6767   24.1182 H   0  0  0  0  0  0
  -27.4033  -29.7266   25.4671 H   0  0  0  0  0  0
  -27.8783  -30.4302   23.9395 H   0  0  0  0  0  0
  -27.2714  -33.3637   26.2047 H   0  0  0  0  0  0
  -28.3884  -32.6844   25.0297 H   0  0  0  0  0  0
  -28.0729  -31.8435   26.5397 H   0  0  0  0  0  0
  -28.2621  -38.0097   24.7526 H   0  0  0  0  0  0
  -28.1075  -36.2633   24.6299 H   0  0  0  0  0  0
  -27.2297  -37.1464   25.8866 H   0  0  0  0  0  0
  -20.9346  -29.8835   21.6981 H   0  0  0  0  0  0
  -26.0182  -38.2855   24.1419 H   0  0  0  0  0  0
  -31.0815  -22.7553   20.5998 H   0  0  0  0  0  0
  -31.2302  -20.3073   20.3536 H   0  0  0  0  0  0
  -26.9876  -20.0231   20.8874 H   0  0  0  0  0  0
  -29.1415  -24.1773   22.5048 H   0  0  0  0  0  0
  -28.6986  -26.3036   22.0517 H   0  0  0  0  0  0
  -29.3908  -18.0312   22.7246 H   0  0  0  0  0  0
  -27.6939  -17.9485   22.2726 H   0  0  0  0  0  0
  -27.9222  -15.7469   21.4154 H   0  0  0  0  0  0
  -29.1375  -15.6674   22.6925 H   0  0  0  0  0  0
  -31.1865  -17.6250   20.7056 H   0  0  0  0  0  0
  -30.4324  -17.3240   19.1494 H   0  0  0  0  0  0
  -28.2751  -18.0722   19.9226 H   0  0  0  0  0  0
  -25.6369  -21.8946   21.1331 H   0  0  0  0  0  0
  -26.2040  -23.4468   20.5228 H   0  0  0  0  0  0
  -26.4137  -23.0352   22.2308 H   0  0  0  0  0  0
  1 25  1  0  0  0
  1 30  2  0  0  0
  1 84  1  0  0  0
  2  3  1  0  0  0
  2 25  1  0  0  0
  2 85  1  0  0  0
  2 86  1  0  0  0
  3  4  1  0  0  0
  3 87  1  0  0  0
  3 88  1  0  0  0
  4  5  1  0  0  0
  4 89  1  0  0  0
  4 90  1  0  0  0
  5  6  1  0  0  0
  5 26  1  0  0  0
  5 91  1  0  0  0
  6 25  1  0  0  0
  6 92  1  0  0  0
  6 93  1  0  0  0
  7  8  2  0  0  0
  7 26  1  0  0  0
  7 29  1  0  0  0
  8  9  1  0  0  0
  8 22  1  0  0  0
  9 10  1  0  0  0
  9 27  2  0  0  0
 10 11  2  0  0  0
 10 15  1  0  0  0
 11 12  1  0  0  0
 11 94  1  0  0  0
 12 13  2  0  0  0
 12 95  1  0  0  0
 13 14  1  0  0  0
 13 31  1  0  0  0
 14 15  2  0  0  0
 14 96  1  0  0  0
 15 97  1  0  0  0
 16 17  2  0  0  0
 16 21  1  0  0  0
 16 31  1  0  0  0
 17 18  1  0  0  0
 17 98  1  0  0  0
 18 19  2  0  0  0
 18 99  1  0  0  0
 19 20  1  0  0  0
 19 24  1  0  0  0
 20 21  2  0  0  0
 20100  1  0  0  0
 21 23  1  0  0  0
 22 28  1  0  0  0
 22 32  2  0  0  0
 26 27  1  0  0  0
 28101  1  0  0  0
 28102  1  0  0  0
 29103  1  0  0  0
 29104  1  0  0  0
 33 34  1  0  0  0
 33 66  1  0  0  0
 33 70  2  0  0  0
 34 36  1  0  0  0
 34 59  1  0  0  0
 34105  1  0  0  0
 35 44  2  0  0  0
 35 45  1  0  0  0
 35 68  1  0  0  0
 36 56  1  0  0  0
 36106  1  0  0  0
 37 39  1  0  0  0
 37 47  1  0  0  0
 37 66  1  0  0  0
 37107  1  0  0  0
 38 43  2  0  0  0
 38 46  1  0  0  0
 38 47  1  0  0  0
 39 64  1  0  0  0
 39 67  2  0  0  0
 40 52  1  0  0  0
 40 53  2  0  0  0
 40 58  1  0  0  0
 41108  1  0  0  0
 41109  1  0  0  0
 41110  1  0  0  0
 41 48  1  0  0  0
 42 43  1  0  0  0
 42 66  1  0  0  0
 42111  1  0  0  0
 42112  1  0  0  0
 43 44  1  0  0  0
 44113  1  0  0  0
 45 46  2  0  0  0
 45114  1  0  0  0
 46115  1  0  0  0
 47116  1  0  0  0
 47117  1  0  0  0
 48 56  1  0  0  0
 48 65  1  0  0  0
 48118  1  0  0  0
 49 50  1  0  0  0
 49 53  1  0  0  0
 49 64  1  0  0  0
 49119  1  0  0  0
 50 51  1  0  0  0
 50120  1  0  0  0
 50121  1  0  0  0
 51 52  1  0  0  0
 51122  1  0  0  0
 51123  1  0  0  0
 52124  1  0  0  0
 52125  1  0  0  0
 53 54  1  0  0  0
 54 55  2  0  0  0
 54126  1  0  0  0
 55 57  1  0  0  0
 55127  1  0  0  0
 56 69  2  0  0  0
 57 58  2  0  0  0
 57128  1  0  0  0
 58129  1  0  0  0
 59 60  1  0  0  0
 59 61  1  0  0  0
 59 62  1  0  0  0
 60130  1  0  0  0
 60131  1  0  0  0
 60132  1  0  0  0
 61133  1  0  0  0
 61134  1  0  0  0
 61135  1  0  0  0
 62136  1  0  0  0
 62137  1  0  0  0
 62138  1  0  0  0
 63 65  1  0  0  0
 63139  1  0  0  0
 63140  1  0  0  0
 63141  1  0  0  0
 64142  1  0  0  0
 65143  1  0  0  0
 68 78  1  0  0  0
 71 72  2  0  0  0
 71 74  1  0  0  0
 71144  1  0  0  0
 72 75  1  0  0  0
 72145  1  0  0  0
 73 75  2  0  0  0
 73 76  1  0  0  0
 73146  1  0  0  0
 74 76  2  0  0  0
 74 77  1  0  0  0
 75 82  1  0  0  0
 76 83  1  0  0  0
 77 78  2  0  0  0
 77147  1  0  0  0
 78148  1  0  0  0
 79 80  1  0  0  0
 79 82  1  0  0  0
 79149  1  0  0  0
 79150  1  0  0  0
 80 84  1  0  0  0
 80151  1  0  0  0
 80152  1  0  0  0
 81 82  1  0  0  0
 81 84  1  0  0  0
 81153  1  0  0  0
 81154  1  0  0  0
 82155  1  0  0  0
 83156  1  0  0  0
 83157  1  0  0  0
 83158  1  0  0  0
M  ISO  4   1 100  68 101  78 101  84 100
M  END
> <chiral flag>
0

> <version>
0

> <s_m_source_file>
/data/baiqing/PycharmProjects/Reinvent-master-3.2/result/LINK_invent/BTK/process_docking_weight1_custom_product_contain_oxygen_bond_distance_aromatic_linkinvent_7_9_3/rearranged_h_0108.sdf

> <i_m_source_file_index>
42

> <r_mmod_Potential_Energy-OPLS-2005>
431.335266113281

> <r_mmod_Stretch_Energy-OPLS-2005>
100.998634338379

> <r_mmod_Bend_Energy-OPLS-2005>
254.406326293945

> <r_mmod_Torsional_Energy-OPLS-2005>
355.663146972656

> <r_mmod_Improper_Torsional_Energy-OPLS-2005>
15.0478801727295

> <r_mmod_Van_der_Waal_Energy-OPLS-2005>
129.842590332031

> <r_mmod_Electrostatic_Energy-OPLS-2005>
-300.611022949219

> <r_mmod_Solvation_Energy-OPLS-2005>
-196.658843994141

> <b_mmod_Minimization_Converged-OPLS-2005>
0

> <r_mmod_RMS_Derivative-OPLS-2005>
3.04583430290222

$$$$
43
                    3D
 Structure written by MMmdl.
154162  0  0  1  0            999 V2000
  -30.6414  -14.6419   20.5822 C   0  0  0  0  0  0
  -30.4414  -12.4191   19.4587 C   0  0  0  0  0  0
  -29.5125  -12.5410   18.2283 C   0  0  0  0  0  0
  -28.0327  -12.3664   18.6257 C   0  0  0  0  0  0
  -27.6559  -13.2139   19.8677 C   0  0  2  0  0  0
  -28.6913  -13.0138   20.9911 C   0  0  0  0  0  0
  -25.2565  -13.8162   20.5658 C   0  0  0  0  0  0
  -24.1828  -13.0432   20.9166 C   0  0  0  0  0  0
  -24.6391  -11.6902   20.8714 C   0  0  0  0  0  0
  -23.9059  -10.4289   21.0396 C   0  0  0  0  0  0
  -24.3613   -9.4209   21.9178 C   0  0  0  0  0  0
  -23.6289   -8.2245   22.0752 C   0  0  0  0  0  0
  -22.4271   -8.0280   21.3544 C   0  0  0  0  0  0
  -21.9903   -9.0251   20.4646 C   0  0  0  0  0  0
  -22.7230  -10.2130   20.3050 C   0  0  0  0  0  0
  -21.6853   -6.0734   22.5279 C   0  0  0  0  0  0
  -21.4014   -6.5639   23.8213 C   0  0  0  0  0  0
  -21.3660   -5.6791   24.9175 C   0  0  0  0  0  0
  -21.6044   -4.3053   24.7225 C   0  0  0  0  0  0
  -21.8820   -3.8145   23.4346 C   0  0  0  0  0  0
  -21.9193   -4.6962   22.3402 C   0  0  0  0  0  0
  -22.7854  -13.5230   21.1847 C   0  0  0  0  0  0
  -22.1661   -4.2148   21.0980 F   0  0  0  0  0  0
  -21.5629   -3.4537   25.7738 F   0  0  0  0  0  0
  -30.0120  -13.4157   20.4690 N   0  0  0  0  0  0
  -26.2988  -12.9335   20.3288 N   0  0  0  0  0  0
  -25.9313  -11.6490   20.5704 N   0  0  0  0  0  0
  -22.0501  -12.8223   22.0408 N   0  0  0  0  0  0
  -25.4288  -15.1882   20.4083 N   0  0  0  0  0  0
  -31.7293  -14.8426   20.0294 O   0  0  0  0  0  0
  -21.6638   -6.8876   21.4241 O   0  0  0  0  0  0
  -22.3536  -14.5539   20.6702 O   0  0  0  0  0  0
  -24.6254  -31.8593   23.2018 C   0  0  0  0  0  0
  -25.9102  -32.4778   23.8350 C   0  0  1  0  0  0
  -27.2303  -27.3232   20.1221 C   0  0  0  0  0  0
  -25.5919  -33.8579   24.2278 N   0  0  0  0  0  0
  -23.4201  -30.4808   21.5439 C   0  0  2  0  0  0
  -24.8691  -28.9307   20.1151 C   0  0  0  0  0  0
  -22.7472  -29.4619   22.4940 C   0  0  0  0  0  0
  -18.0285  -28.1384   22.8487 C   0  0  0  0  0  0
  -24.1488  -36.7293   23.2638 C   0  0  0  0  0  0
  -25.9599  -30.7907   21.3724 C   0  0  0  0  0  0
  -26.0365  -29.4157   20.7199 C   0  0  0  0  0  0
  -27.2219  -28.6225   20.7147 C   0  0  0  0  0  0
  -26.0432  -26.8848   19.4985 C   0  0  0  0  0  0
  -24.8729  -27.6692   19.4969 C   0  0  0  0  0  0
  -23.6362  -29.8110   20.1608 C   0  0  0  0  0  0
  -25.4112  -36.3084   24.0330 C   0  0  1  0  0  0
  -20.5884  -28.3687   23.1286 C   0  0  2  0  0  0
  -20.6774  -26.9411   22.5412 C   0  0  0  0  0  0
  -19.5751  -26.6384   21.5212 C   0  0  0  0  0  0
  -18.1931  -26.7927   22.1623 C   0  0  0  0  0  0
  -19.1537  -28.8852   23.2882 C   0  0  0  0  0  0
  -18.9460  -30.1454   23.8899 C   0  0  0  0  0  0
  -17.6460  -30.6587   24.0563 C   0  0  0  0  0  0
  -25.9049  -34.9453   23.5106 C   0  0  0  0  0  0
  -16.5351  -29.9086   23.6329 C   0  0  0  0  0  0
  -16.7272  -28.6503   23.0352 C   0  0  0  0  0  0
  -26.4491  -31.6588   25.0718 C   0  0  0  0  0  0
  -25.3728  -31.3721   26.1448 C   0  0  0  0  0  0
  -27.0333  -30.3014   24.6165 C   0  0  0  0  0  0
  -27.6052  -32.4321   25.7489 C   0  0  0  0  0  0
  -27.5581  -37.1799   24.8462 C   0  0  0  0  0  0
  -21.4186  -29.3040   22.3681 N   0  0  0  0  0  0
  -26.4289  -37.3779   23.9411 N   0  0  0  0  0  0
  -24.6872  -31.0605   22.0965 N   0  0  0  0  0  0
  -23.4194  -28.8164   23.3025 O   0  0  0  0  0  0
  -28.3464  -26.4770   20.1140 O   0  0  0  0  0  0
  -26.5620  -34.8921   22.4673 O   0  0  0  0  0  0
  -23.5418  -32.1389   23.7347 O   0  0  0  0  0  0
  -30.0675  -19.7331   21.4766 C   0  0  0  0  0  0
  -29.1418  -19.0177   19.3924 C   0  0  0  0  0  0
  -29.9535  -17.2674   20.9797 C   0  0  0  0  0  0
  -30.3288  -18.3693   21.8284 C   0  0  0  0  0  0
  -29.4505  -20.1044   20.2571 C   0  0  0  0  0  0
  -29.3735  -17.6486   19.7378 C   0  0  0  0  0  0
  -29.0210  -24.0802   20.2367 C   0  0  0  0  0  0
  -28.1986  -25.1395   20.5398 C   0  0  0  0  0  0
  -29.9885  -15.7898   21.4509 C   0  0  0  0  0  0
  -31.0236  -18.1376   23.1651 C   0  0  0  0  0  0
  -28.9419  -22.6127   20.7988 C   0  0  0  0  0  0
  -29.5278  -15.5350   22.6069 N   0  0  0  0  0  0
  -29.1693  -21.4637   19.8670 N   0  0  0  0  0  0
  -28.9718  -16.6867   18.8698 F   0  0  0  0  0  0
  -31.4813  -12.5543   19.1571 H   0  0  0  0  0  0
  -30.3922  -11.4119   19.8757 H   0  0  0  0  0  0
  -29.7870  -11.8032   17.4734 H   0  0  0  0  0  0
  -29.6512  -13.5190   17.7646 H   0  0  0  0  0  0
  -27.8661  -11.3091   18.8357 H   0  0  0  0  0  0
  -27.3828  -12.6158   17.7861 H   0  0  0  0  0  0
  -27.6911  -14.2600   19.5631 H   0  0  0  0  0  0
  -28.7170  -11.9653   21.2915 H   0  0  0  0  0  0
  -28.3746  -13.5362   21.8875 H   0  0  0  0  0  0
  -25.2761   -9.5687   22.4747 H   0  0  0  0  0  0
  -24.0001   -7.4637   22.7471 H   0  0  0  0  0  0
  -21.0834   -8.8767   19.8954 H   0  0  0  0  0  0
  -22.3689  -10.9665   19.6155 H   0  0  0  0  0  0
  -21.2006   -7.6147   23.9717 H   0  0  0  0  0  0
  -21.1481   -6.0520   25.9078 H   0  0  0  0  0  0
  -22.0599   -2.7607   23.2846 H   0  0  0  0  0  0
  -22.4114  -11.9879   22.4788 H   0  0  0  0  0  0
  -21.1123  -13.1254   22.2624 H   0  0  0  0  0  0
  -24.6658  -15.8463   20.5224 H   0  0  0  0  0  0
  -26.2868  -15.6253   20.0963 H   0  0  0  0  0  0
  -26.7170  -32.5453   23.1100 H   0  0  0  0  0  0
  -25.0067  -33.9725   25.0423 H   0  0  0  0  0  0
  -22.7141  -31.3010   21.3982 H   0  0  0  0  0  0
  -23.3751  -35.9625   23.3301 H   0  0  0  0  0  0
  -24.3582  -36.8912   22.2053 H   0  0  0  0  0  0
  -23.7241  -37.6496   23.6658 H   0  0  0  0  0  0
  -26.0884  -31.5517   20.6015 H   0  0  0  0  0  0
  -26.8413  -30.8435   21.9998 H   0  0  0  0  0  0
  -28.1216  -28.9908   21.1873 H   0  0  0  0  0  0
  -26.0189  -25.9165   19.0187 H   0  0  0  0  0  0
  -23.9784  -27.2915   19.0209 H   0  0  0  0  0  0
  -23.7555  -30.5852   19.4019 H   0  0  0  0  0  0
  -22.7569  -29.2387   19.8595 H   0  0  0  0  0  0
  -25.1293  -36.1935   25.0823 H   0  0  0  0  0  0
  -20.9977  -28.3259   24.1406 H   0  0  0  0  0  0
  -20.5673  -26.2297   23.3610 H   0  0  0  0  0  0
  -21.6643  -26.7441   22.1206 H   0  0  0  0  0  0
  -19.6914  -25.6296   21.1240 H   0  0  0  0  0  0
  -19.6691  -27.3196   20.6744 H   0  0  0  0  0  0
  -17.4201  -26.6675   21.4024 H   0  0  0  0  0  0
  -18.0332  -26.0068   22.9018 H   0  0  0  0  0  0
  -19.7936  -30.7268   24.2270 H   0  0  0  0  0  0
  -17.5016  -31.6268   24.5163 H   0  0  0  0  0  0
  -15.5352  -30.2989   23.7654 H   0  0  0  0  0  0
  -15.8671  -28.0822   22.7067 H   0  0  0  0  0  0
  -24.5908  -30.7063   25.7778 H   0  0  0  0  0  0
  -24.8913  -32.2884   26.4873 H   0  0  0  0  0  0
  -25.8058  -30.8902   27.0223 H   0  0  0  0  0  0
  -26.2903  -29.6766   24.1194 H   0  0  0  0  0  0
  -27.4040  -29.7267   25.4663 H   0  0  0  0  0  0
  -27.8768  -30.4305   23.9379 H   0  0  0  0  0  0
  -27.2662  -33.3620   26.2069 H   0  0  0  0  0  0
  -28.3861  -32.6884   25.0316 H   0  0  0  0  0  0
  -28.0722  -31.8445   26.5403 H   0  0  0  0  0  0
  -28.2589  -38.0105   24.7523 H   0  0  0  0  0  0
  -28.1086  -36.2638   24.6267 H   0  0  0  0  0  0
  -27.2303  -37.1423   25.8866 H   0  0  0  0  0  0
  -20.9364  -29.8759   21.6887 H   0  0  0  0  0  0
  -26.0171  -38.2852   24.1421 H   0  0  0  0  0  0
  -30.3590  -20.5087   22.1703 H   0  0  0  0  0  0
  -28.6811  -19.2200   18.4367 H   0  0  0  0  0  0
  -29.8551  -24.2706   19.5760 H   0  0  0  0  0  0
  -27.3451  -25.0219   21.1947 H   0  0  0  0  0  0
  -31.5751  -19.0230   23.4831 H   0  0  0  0  0  0
  -31.7439  -17.3210   23.1051 H   0  0  0  0  0  0
  -30.2968  -17.9042   23.9434 H   0  0  0  0  0  0
  -27.9727  -22.4823   21.2831 H   0  0  0  0  0  0
  -29.6840  -22.5550   21.5958 H   0  0  0  0  0  0
  -29.1688  -16.3744   23.0447 H   0  0  0  0  0  0
  -28.7101  -21.5638   18.9638 H   0  0  0  0  0  0
  1 25  1  0  0  0
  1 30  2  0  0  0
  1 79  1  0  0  0
  2  3  1  0  0  0
  2 25  1  0  0  0
  2 85  1  0  0  0
  2 86  1  0  0  0
  3  4  1  0  0  0
  3 87  1  0  0  0
  3 88  1  0  0  0
  4  5  1  0  0  0
  4 89  1  0  0  0
  4 90  1  0  0  0
  5  6  1  0  0  0
  5 26  1  0  0  0
  5 91  1  0  0  0
  6 25  1  0  0  0
  6 92  1  0  0  0
  6 93  1  0  0  0
  7  8  2  0  0  0
  7 26  1  0  0  0
  7 29  1  0  0  0
  8  9  1  0  0  0
  8 22  1  0  0  0
  9 10  1  0  0  0
  9 27  2  0  0  0
 10 11  2  0  0  0
 10 15  1  0  0  0
 11 12  1  0  0  0
 11 94  1  0  0  0
 12 13  2  0  0  0
 12 95  1  0  0  0
 13 14  1  0  0  0
 13 31  1  0  0  0
 14 15  2  0  0  0
 14 96  1  0  0  0
 15 97  1  0  0  0
 16 17  2  0  0  0
 16 21  1  0  0  0
 16 31  1  0  0  0
 17 18  1  0  0  0
 17 98  1  0  0  0
 18 19  2  0  0  0
 18 99  1  0  0  0
 19 20  1  0  0  0
 19 24  1  0  0  0
 20 21  2  0  0  0
 20100  1  0  0  0
 21 23  1  0  0  0
 22 28  1  0  0  0
 22 32  2  0  0  0
 26 27  1  0  0  0
 28101  1  0  0  0
 28102  1  0  0  0
 29103  1  0  0  0
 29104  1  0  0  0
 33 34  1  0  0  0
 33 66  1  0  0  0
 33 70  2  0  0  0
 34 36  1  0  0  0
 34 59  1  0  0  0
 34105  1  0  0  0
 35 44  2  0  0  0
 35 45  1  0  0  0
 35 68  1  0  0  0
 36 56  1  0  0  0
 36106  1  0  0  0
 37 39  1  0  0  0
 37 47  1  0  0  0
 37 66  1  0  0  0
 37107  1  0  0  0
 38 43  2  0  0  0
 38 46  1  0  0  0
 38 47  1  0  0  0
 39 64  1  0  0  0
 39 67  2  0  0  0
 40 52  1  0  0  0
 40 53  2  0  0  0
 40 58  1  0  0  0
 41108  1  0  0  0
 41109  1  0  0  0
 41110  1  0  0  0
 41 48  1  0  0  0
 42 43  1  0  0  0
 42 66  1  0  0  0
 42111  1  0  0  0
 42112  1  0  0  0
 43 44  1  0  0  0
 44113  1  0  0  0
 45 46  2  0  0  0
 45114  1  0  0  0
 46115  1  0  0  0
 47116  1  0  0  0
 47117  1  0  0  0
 48 56  1  0  0  0
 48 65  1  0  0  0
 48118  1  0  0  0
 49 50  1  0  0  0
 49 53  1  0  0  0
 49 64  1  0  0  0
 49119  1  0  0  0
 50 51  1  0  0  0
 50120  1  0  0  0
 50121  1  0  0  0
 51 52  1  0  0  0
 51122  1  0  0  0
 51123  1  0  0  0
 52124  1  0  0  0
 52125  1  0  0  0
 53 54  1  0  0  0
 54 55  2  0  0  0
 54126  1  0  0  0
 55 57  1  0  0  0
 55127  1  0  0  0
 56 69  2  0  0  0
 57 58  2  0  0  0
 57128  1  0  0  0
 58129  1  0  0  0
 59 60  1  0  0  0
 59 61  1  0  0  0
 59 62  1  0  0  0
 60130  1  0  0  0
 60131  1  0  0  0
 60132  1  0  0  0
 61133  1  0  0  0
 61134  1  0  0  0
 61135  1  0  0  0
 62136  1  0  0  0
 62137  1  0  0  0
 62138  1  0  0  0
 63 65  1  0  0  0
 63139  1  0  0  0
 63140  1  0  0  0
 63141  1  0  0  0
 64142  1  0  0  0
 65143  1  0  0  0
 68 78  1  0  0  0
 71 74  2  0  0  0
 71 75  1  0  0  0
 71144  1  0  0  0
 72 75  2  0  0  0
 72 76  1  0  0  0
 72145  1  0  0  0
 73 74  1  0  0  0
 73 76  2  0  0  0
 73 79  1  0  0  0
 74 80  1  0  0  0
 75 83  1  0  0  0
 76 84  1  0  0  0
 77 78  2  0  0  0
 77 81  1  0  0  0
 77146  1  0  0  0
 78147  1  0  0  0
 79 82  2  0  0  0
 80148  1  0  0  0
 80149  1  0  0  0
 80150  1  0  0  0
 81 83  1  0  0  0
 81151  1  0  0  0
 81152  1  0  0  0
 82153  1  0  0  0
 83154  1  0  0  0
M  ISO  4   1 100  68 101  78 101  79 100
M  END
> <chiral flag>
0

> <version>
0

> <s_m_source_file>
/data/baiqing/PycharmProjects/Reinvent-master-3.2/result/LINK_invent/BTK/process_docking_weight1_custom_product_contain_oxygen_bond_distance_aromatic_linkinvent_7_9_3/rearranged_h_0108.sdf

> <i_m_source_file_index>
43

> <r_mmod_Potential_Energy-OPLS-2005>
229.302261352539

> <r_mmod_Stretch_Energy-OPLS-2005>
90.8691101074219

> <r_mmod_Bend_Energy-OPLS-2005>
146.99186706543

> <r_mmod_Torsional_Energy-OPLS-2005>
197.426406860352

> <r_mmod_Improper_Torsional_Energy-OPLS-2005>
5.41203832626343

> <r_mmod_Van_der_Waal_Energy-OPLS-2005>
148.651565551758

> <r_mmod_Electrostatic_Energy-OPLS-2005>
-207.356094360352

> <r_mmod_Solvation_Energy-OPLS-2005>
-197.876571655273

> <b_mmod_Minimization_Converged-OPLS-2005>
0

> <r_mmod_RMS_Derivative-OPLS-2005>
0.139573067426682

$$$$
44
                    3D
 Structure written by MMmdl.
165174  0  0  1  0            999 V2000
  -30.7222  -14.4584   20.6276 C   0  0  0  0  0  0
  -30.4247  -12.3258   19.4063 C   0  0  0  0  0  0
  -29.4907  -12.5189   18.1965 C   0  0  0  0  0  0
  -28.0142  -12.3694   18.6148 C   0  0  0  0  0  0
  -27.6602  -13.2085   19.8720 C   0  0  2  0  0  0
  -28.7030  -12.9845   20.9884 C   0  0  0  0  0  0
  -25.2572  -13.8162   20.5684 C   0  0  0  0  0  0
  -24.1833  -13.0438   20.9199 C   0  0  0  0  0  0
  -24.6390  -11.6913   20.8745 C   0  0  0  0  0  0
  -23.9062  -10.4300   21.0417 C   0  0  0  0  0  0
  -24.3618   -9.4214   21.9193 C   0  0  0  0  0  0
  -23.6303   -8.2239   22.0754 C   0  0  0  0  0  0
  -22.4280   -8.0280   21.3551 C   0  0  0  0  0  0
  -21.9922   -9.0252   20.4650 C   0  0  0  0  0  0
  -22.7242  -10.2138   20.3064 C   0  0  0  0  0  0
  -21.6847   -6.0743   22.5288 C   0  0  0  0  0  0
  -21.4003   -6.5641   23.8225 C   0  0  0  0  0  0
  -21.3663   -5.6784   24.9182 C   0  0  0  0  0  0
  -21.6054   -4.3049   24.7225 C   0  0  0  0  0  0
  -21.8820   -3.8149   23.4341 C   0  0  0  0  0  0
  -21.9192   -4.6971   22.3402 C   0  0  0  0  0  0
  -22.7854  -13.5240   21.1870 C   0  0  0  0  0  0
  -22.1661   -4.2159   21.0977 F   0  0  0  0  0  0
  -21.5639   -3.4530   25.7733 F   0  0  0  0  0  0
  -30.0322  -13.3004   20.4367 N   0  0  0  0  0  0
  -26.3013  -12.9341   20.3355 N   0  0  0  0  0  0
  -25.9315  -11.6499   20.5763 N   0  0  0  0  0  0
  -22.0474  -12.8244   22.0420 N   0  0  0  0  0  0
  -25.4257  -15.1882   20.4088 N   0  0  0  0  0  0
  -31.8245  -14.6738   20.1175 O   0  0  0  0  0  0
  -21.6632   -6.8888   21.4252 O   0  0  0  0  0  0
  -22.3553  -14.5551   20.6720 O   0  0  0  0  0  0
  -24.6161  -31.8676   23.2114 C   0  0  0  0  0  0
  -25.9054  -32.4813   23.8409 C   0  0  1  0  0  0
  -27.2289  -27.4254   20.0953 C   0  0  0  0  0  0
  -25.5921  -33.8614   24.2342 N   0  0  0  0  0  0
  -23.4038  -30.4916   21.5529 C   0  0  2  0  0  0
  -24.8490  -28.9578   20.1162 C   0  0  0  0  0  0
  -22.7411  -29.4656   22.5002 C   0  0  0  0  0  0
  -18.0265  -28.1365   22.8486 C   0  0  0  0  0  0
  -24.1495  -36.7314   23.2635 C   0  0  0  0  0  0
  -25.9344  -30.8292   21.3661 C   0  0  0  0  0  0
  -26.0112  -29.4640   20.7117 C   0  0  0  0  0  0
  -27.2067  -28.7064   20.6963 C   0  0  0  0  0  0
  -26.0529  -26.9462   19.4769 C   0  0  0  0  0  0
  -24.8638  -27.6974   19.4966 C   0  0  0  0  0  0
  -23.6117  -29.8251   20.1676 C   0  0  0  0  0  0
  -25.4109  -36.3103   24.0341 C   0  0  1  0  0  0
  -20.5856  -28.3654   23.1316 C   0  0  2  0  0  0
  -20.6755  -26.9394   22.5409 C   0  0  0  0  0  0
  -19.5738  -26.6372   21.5203 C   0  0  0  0  0  0
  -18.1917  -26.7912   22.1617 C   0  0  0  0  0  0
  -19.1513  -28.8827   23.2892 C   0  0  0  0  0  0
  -18.9442  -30.1435   23.8902 C   0  0  0  0  0  0
  -17.6444  -30.6575   24.0552 C   0  0  0  0  0  0
  -25.9041  -34.9467   23.5130 C   0  0  0  0  0  0
  -16.5333  -29.9072   23.6332 C   0  0  0  0  0  0
  -16.7252  -28.6487   23.0355 C   0  0  0  0  0  0
  -26.4468  -31.6589   25.0739 C   0  0  0  0  0  0
  -25.3739  -31.3705   26.1499 C   0  0  0  0  0  0
  -27.0284  -30.3023   24.6124 C   0  0  0  0  0  0
  -27.6063  -32.4284   25.7493 C   0  0  0  0  0  0
  -27.5584  -37.1810   24.8459 C   0  0  0  0  0  0
  -21.4140  -29.3029   22.3741 N   0  0  0  0  0  0
  -26.4291  -37.3789   23.9413 N   0  0  0  0  0  0
  -24.6700  -31.0769   22.1015 N   0  0  0  0  0  0
  -23.4183  -28.8194   23.3041 O   0  0  0  0  0  0
  -28.3798  -26.6608   20.0977 O   0  0  0  0  0  0
  -26.5592  -34.8915   22.4685 O   0  0  0  0  0  0
  -23.5350  -32.1441   23.7494 O   0  0  0  0  0  0
  -29.1776  -19.8746   20.7021 C   0  0  0  0  0  0
  -31.5888  -20.0667   20.6984 C   0  0  0  0  0  0
  -29.2731  -18.5274   21.1405 C   0  0  0  0  0  0
  -30.5475  -17.9423   21.3801 C   0  0  0  0  0  0
  -30.3283  -20.6731   20.5016 C   0  0  0  0  0  0
  -31.6974  -18.7334   21.1409 C   0  0  0  0  0  0
  -29.1248  -24.2119   19.9869 C   0  0  0  0  0  0
  -29.4075  -23.0412   20.6384 C   0  0  0  0  0  0
  -29.6452  -24.4072   18.6030 C   0  0  0  0  0  0
  -30.3330  -23.2185   17.9319 C   0  0  0  0  0  0
  -31.0846  -22.3531   18.9494 C   0  0  0  0  0  0
  -27.9902  -17.7533   21.3888 C   0  0  0  0  0  0
  -28.8869  -22.7854   22.0519 C   0  0  0  0  0  0
  -30.7311  -16.5505   22.0217 C   0  0  0  0  0  0
  -28.2219  -25.3107   20.5950 C   0  0  0  0  0  0
  -30.2327  -22.0322   20.0967 N   0  0  0  0  0  0
  -30.1046  -15.3797   21.3887 N   0  0  0  0  0  0
  -29.5327  -25.4469   17.9469 O   0  0  0  0  0  0
  -32.9330  -18.2268   21.3719 F   0  0  0  0  0  0
  -31.4672  -12.4363   19.1011 H   0  0  0  0  0  0
  -30.3367  -11.3119   19.7988 H   0  0  0  0  0  0
  -29.7343  -11.7985   17.4145 H   0  0  0  0  0  0
  -29.6500  -13.5066   17.7621 H   0  0  0  0  0  0
  -27.8340  -11.3117   18.8138 H   0  0  0  0  0  0
  -27.3584  -12.6378   17.7856 H   0  0  0  0  0  0
  -27.7058  -14.2578   19.5778 H   0  0  0  0  0  0
  -28.6872  -11.9457   21.3202 H   0  0  0  0  0  0
  -28.4526  -13.5681   21.8749 H   0  0  0  0  0  0
  -25.2772   -9.5684   22.4761 H   0  0  0  0  0  0
  -24.0025   -7.4622   22.7460 H   0  0  0  0  0  0
  -21.0855   -8.8768   19.8948 H   0  0  0  0  0  0
  -22.3713  -10.9670   19.6162 H   0  0  0  0  0  0
  -21.1976   -7.6147   23.9739 H   0  0  0  0  0  0
  -21.1488   -6.0504   25.9092 H   0  0  0  0  0  0
  -22.0593   -2.7611   23.2825 H   0  0  0  0  0  0
  -22.4058  -11.9904   22.4830 H   0  0  0  0  0  0
  -21.1093  -13.1291   22.2598 H   0  0  0  0  0  0
  -24.6524  -15.8364   20.5145 H   0  0  0  0  0  0
  -26.2716  -15.6293   20.0722 H   0  0  0  0  0  0
  -26.7126  -32.5516   23.1176 H   0  0  0  0  0  0
  -25.0107  -33.9778   25.0513 H   0  0  0  0  0  0
  -22.6920  -31.3085   21.4148 H   0  0  0  0  0  0
  -23.3751  -35.9650   23.3275 H   0  0  0  0  0  0
  -24.3604  -36.8947   22.2055 H   0  0  0  0  0  0
  -23.7245  -37.6515   23.6653 H   0  0  0  0  0  0
  -26.0491  -31.5952   20.5981 H   0  0  0  0  0  0
  -26.8220  -30.8806   21.9854 H   0  0  0  0  0  0
  -28.1041  -29.0914   21.1609 H   0  0  0  0  0  0
  -26.0479  -25.9911   18.9709 H   0  0  0  0  0  0
  -23.9719  -27.3045   19.0278 H   0  0  0  0  0  0
  -23.7211  -30.6006   19.4084 H   0  0  0  0  0  0
  -22.7356  -29.2454   19.8713 H   0  0  0  0  0  0
  -25.1280  -36.1967   25.0833 H   0  0  0  0  0  0
  -20.9936  -28.3204   24.1439 H   0  0  0  0  0  0
  -20.5650  -26.2262   23.3590 H   0  0  0  0  0  0
  -21.6629  -26.7437   22.1204 H   0  0  0  0  0  0
  -19.6900  -25.6282   21.1238 H   0  0  0  0  0  0
  -19.6685  -27.3176   20.6727 H   0  0  0  0  0  0
  -17.4191  -26.6647   21.4017 H   0  0  0  0  0  0
  -18.0326  -26.0047   22.9008 H   0  0  0  0  0  0
  -19.7916  -30.7241   24.2280 H   0  0  0  0  0  0
  -17.5000  -31.6261   24.5139 H   0  0  0  0  0  0
  -15.5336  -30.2970   23.7659 H   0  0  0  0  0  0
  -15.8648  -28.0804   22.7080 H   0  0  0  0  0  0
  -24.5888  -30.7080   25.7831 H   0  0  0  0  0  0
  -24.8966  -32.2871   26.4976 H   0  0  0  0  0  0
  -25.8103  -30.8843   27.0238 H   0  0  0  0  0  0
  -26.2831  -29.6801   24.1157 H   0  0  0  0  0  0
  -27.4012  -29.7241   25.4589 H   0  0  0  0  0  0
  -27.8687  -30.4318   23.9301 H   0  0  0  0  0  0
  -27.2713  -33.3582   26.2098 H   0  0  0  0  0  0
  -28.3867  -32.6840   25.0312 H   0  0  0  0  0  0
  -28.0735  -31.8382   26.5389 H   0  0  0  0  0  0
  -28.2588  -38.0120   24.7523 H   0  0  0  0  0  0
  -28.1095  -36.2655   24.6255 H   0  0  0  0  0  0
  -27.2314  -37.1424   25.8864 H   0  0  0  0  0  0
  -20.9296  -29.8784   21.6995 H   0  0  0  0  0  0
  -26.0178  -38.2868   24.1404 H   0  0  0  0  0  0
  -28.2043  -20.3148   20.5362 H   0  0  0  0  0  0
  -32.4949  -20.6370   20.5553 H   0  0  0  0  0  0
  -31.0122  -23.5693   17.1545 H   0  0  0  0  0  0
  -29.5648  -22.6223   17.4405 H   0  0  0  0  0  0
  -31.9715  -22.8814   19.3029 H   0  0  0  0  0  0
  -31.4389  -21.4532   18.4437 H   0  0  0  0  0  0
  -27.1091  -18.3810   21.2499 H   0  0  0  0  0  0
  -27.9586  -17.3681   22.4081 H   0  0  0  0  0  0
  -27.9095  -16.9159   20.6965 H   0  0  0  0  0  0
  -29.2005  -23.5872   22.7201 H   0  0  0  0  0  0
  -29.2524  -21.8663   22.5062 H   0  0  0  0  0  0
  -27.7973  -22.7468   22.0549 H   0  0  0  0  0  0
  -30.3233  -16.6160   23.0309 H   0  0  0  0  0  0
  -31.7904  -16.3416   22.1745 H   0  0  0  0  0  0
  -28.4088  -25.3778   21.6658 H   0  0  0  0  0  0
  -27.2028  -24.9364   20.5111 H   0  0  0  0  0  0
  -29.1868  -15.1277   21.7201 H   0  0  0  0  0  0
  1 25  1  0  0  0
  1 30  2  0  0  0
  1 87  1  0  0  0
  2  3  1  0  0  0
  2 25  1  0  0  0
  2 90  1  0  0  0
  2 91  1  0  0  0
  3  4  1  0  0  0
  3 92  1  0  0  0
  3 93  1  0  0  0
  4  5  1  0  0  0
  4 94  1  0  0  0
  4 95  1  0  0  0
  5  6  1  0  0  0
  5 26  1  0  0  0
  5 96  1  0  0  0
  6 25  1  0  0  0
  6 97  1  0  0  0
  6 98  1  0  0  0
  7  8  2  0  0  0
  7 26  1  0  0  0
  7 29  1  0  0  0
  8  9  1  0  0  0
  8 22  1  0  0  0
  9 10  1  0  0  0
  9 27  2  0  0  0
 10 11  2  0  0  0
 10 15  1  0  0  0
 11 12  1  0  0  0
 11 99  1  0  0  0
 12 13  2  0  0  0
 12100  1  0  0  0
 13 14  1  0  0  0
 13 31  1  0  0  0
 14 15  2  0  0  0
 14101  1  0  0  0
 15102  1  0  0  0
 16 17  2  0  0  0
 16 21  1  0  0  0
 16 31  1  0  0  0
 17 18  1  0  0  0
 17103  1  0  0  0
 18 19  2  0  0  0
 18104  1  0  0  0
 19 20  1  0  0  0
 19 24  1  0  0  0
 20 21  2  0  0  0
 20105  1  0  0  0
 21 23  1  0  0  0
 22 28  1  0  0  0
 22 32  2  0  0  0
 26 27  1  0  0  0
 28106  1  0  0  0
 28107  1  0  0  0
 29108  1  0  0  0
 29109  1  0  0  0
 33 34  1  0  0  0
 33 66  1  0  0  0
 33 70  2  0  0  0
 34 36  1  0  0  0
 34 59  1  0  0  0
 34110  1  0  0  0
 35 44  2  0  0  0
 35 45  1  0  0  0
 35 68  1  0  0  0
 36 56  1  0  0  0
 36111  1  0  0  0
 37 39  1  0  0  0
 37 47  1  0  0  0
 37 66  1  0  0  0
 37112  1  0  0  0
 38 43  2  0  0  0
 38 46  1  0  0  0
 38 47  1  0  0  0
 39 64  1  0  0  0
 39 67  2  0  0  0
 40 52  1  0  0  0
 40 53  2  0  0  0
 40 58  1  0  0  0
 41113  1  0  0  0
 41114  1  0  0  0
 41115  1  0  0  0
 41 48  1  0  0  0
 42 43  1  0  0  0
 42 66  1  0  0  0
 42116  1  0  0  0
 42117  1  0  0  0
 43 44  1  0  0  0
 44118  1  0  0  0
 45 46  2  0  0  0
 45119  1  0  0  0
 46120  1  0  0  0
 47121  1  0  0  0
 47122  1  0  0  0
 48 56  1  0  0  0
 48 65  1  0  0  0
 48123  1  0  0  0
 49 50  1  0  0  0
 49 53  1  0  0  0
 49 64  1  0  0  0
 49124  1  0  0  0
 50 51  1  0  0  0
 50125  1  0  0  0
 50126  1  0  0  0
 51 52  1  0  0  0
 51127  1  0  0  0
 51128  1  0  0  0
 52129  1  0  0  0
 52130  1  0  0  0
 53 54  1  0  0  0
 54 55  2  0  0  0
 54131  1  0  0  0
 55 57  1  0  0  0
 55132  1  0  0  0
 56 69  2  0  0  0
 57 58  2  0  0  0
 57133  1  0  0  0
 58134  1  0  0  0
 59 60  1  0  0  0
 59 61  1  0  0  0
 59 62  1  0  0  0
 60135  1  0  0  0
 60136  1  0  0  0
 60137  1  0  0  0
 61138  1  0  0  0
 61139  1  0  0  0
 61140  1  0  0  0
 62141  1  0  0  0
 62142  1  0  0  0
 62143  1  0  0  0
 63 65  1  0  0  0
 63144  1  0  0  0
 63145  1  0  0  0
 63146  1  0  0  0
 64147  1  0  0  0
 65148  1  0  0  0
 68 85  1  0  0  0
 71 73  2  0  0  0
 71 75  1  0  0  0
 71149  1  0  0  0
 72 75  2  0  0  0
 72 76  1  0  0  0
 72150  1  0  0  0
 73 74  1  0  0  0
 73 82  1  0  0  0
 74 76  2  0  0  0
 74 84  1  0  0  0
 75 86  1  0  0  0
 76 89  1  0  0  0
 77 78  2  0  0  0
 77 79  1  0  0  0
 77 85  1  0  0  0
 78 83  1  0  0  0
 78 86  1  0  0  0
 79 80  1  0  0  0
 79 88  2  0  0  0
 80 81  1  0  0  0
 80151  1  0  0  0
 80152  1  0  0  0
 81 86  1  0  0  0
 81153  1  0  0  0
 81154  1  0  0  0
 82155  1  0  0  0
 82156  1  0  0  0
 82157  1  0  0  0
 83158  1  0  0  0
 83159  1  0  0  0
 83160  1  0  0  0
 84 87  1  0  0  0
 84161  1  0  0  0
 84162  1  0  0  0
 85163  1  0  0  0
 85164  1  0  0  0
 87165  1  0  0  0
M  ISO  4   1 100  68 101  85 101  87 100
M  END
> <chiral flag>
0

> <version>
0

> <s_m_source_file>
/data/baiqing/PycharmProjects/Reinvent-master-3.2/result/LINK_invent/BTK/process_docking_weight1_custom_product_contain_oxygen_bond_distance_aromatic_linkinvent_7_9_3/rearranged_h_0108.sdf

> <i_m_source_file_index>
44

> <r_mmod_Potential_Energy-OPLS-2005>
-26.3778247833252

> <r_mmod_Stretch_Energy-OPLS-2005>
47.0235710144043

> <r_mmod_Bend_Energy-OPLS-2005>
106.930908203125

> <r_mmod_Torsional_Energy-OPLS-2005>
209.002029418945

> <r_mmod_Improper_Torsional_Energy-OPLS-2005>
3.00385499000549

> <r_mmod_Van_der_Waal_Energy-OPLS-2005>
176.501159667969

> <r_mmod_Electrostatic_Energy-OPLS-2005>
-356.007568359375

> <r_mmod_Solvation_Energy-OPLS-2005>
-225.326171875

> <b_mmod_Minimization_Converged-OPLS-2005>
0

> <r_mmod_RMS_Derivative-OPLS-2005>
1.49797403812408

$$$$
45
                    3D
 Structure written by MMmdl.
163171  0  0  1  0            999 V2000
  -30.7592  -14.3958   20.6199 C   0  0  0  0  0  0
  -30.4054  -12.2833   19.4098 C   0  0  0  0  0  0
  -29.4785  -12.5071   18.1977 C   0  0  0  0  0  0
  -27.9980  -12.3763   18.6106 C   0  0  0  0  0  0
  -27.6602  -13.1925   19.8867 C   0  0  2  0  0  0
  -28.7012  -12.9155   20.9929 C   0  0  0  0  0  0
  -25.2599  -13.8137   20.5741 C   0  0  0  0  0  0
  -24.1822  -13.0435   20.9172 C   0  0  0  0  0  0
  -24.6353  -11.6893   20.8748 C   0  0  0  0  0  0
  -23.9014  -10.4290   21.0432 C   0  0  0  0  0  0
  -24.3596   -9.4206   21.9191 C   0  0  0  0  0  0
  -23.6285   -8.2231   22.0745 C   0  0  0  0  0  0
  -22.4264   -8.0272   21.3539 C   0  0  0  0  0  0
  -21.9904   -9.0239   20.4635 C   0  0  0  0  0  0
  -22.7210  -10.2126   20.3055 C   0  0  0  0  0  0
  -21.6850   -6.0740   22.5284 C   0  0  0  0  0  0
  -21.4015   -6.5644   23.8217 C   0  0  0  0  0  0
  -21.3661   -5.6798   24.9181 C   0  0  0  0  0  0
  -21.6044   -4.3062   24.7223 C   0  0  0  0  0  0
  -21.8816   -3.8150   23.4348 C   0  0  0  0  0  0
  -21.9197   -4.6968   22.3408 C   0  0  0  0  0  0
  -22.7848  -13.5237   21.1871 C   0  0  0  0  0  0
  -22.1668   -4.2159   21.0984 F   0  0  0  0  0  0
  -21.5637   -3.4540   25.7736 F   0  0  0  0  0  0
  -30.0252  -13.2568   20.4475 N   0  0  0  0  0  0
  -26.3012  -12.9270   20.3450 N   0  0  0  0  0  0
  -25.9270  -11.6434   20.5799 N   0  0  0  0  0  0
  -22.0514  -12.8201   22.0418 N   0  0  0  0  0  0
  -25.4414  -15.1848   20.4233 N   0  0  0  0  0  0
  -31.8604  -14.5425   20.0809 O   0  0  0  0  0  0
  -21.6631   -6.8869   21.4235 O   0  0  0  0  0  0
  -22.3527  -14.5564   20.6755 O   0  0  0  0  0  0
  -24.6085  -31.8726   23.2112 C   0  0  0  0  0  0
  -25.8996  -32.4854   23.8400 C   0  0  1  0  0  0
  -27.2416  -27.4908   20.0823 C   0  0  0  0  0  0
  -25.5882  -33.8651   24.2340 N   0  0  0  0  0  0
  -23.3938  -30.4932   21.5527 C   0  0  2  0  0  0
  -24.8399  -28.9633   20.1153 C   0  0  0  0  0  0
  -22.7379  -29.4665   22.5025 C   0  0  0  0  0  0
  -18.0267  -28.1364   22.8494 C   0  0  0  0  0  0
  -24.1487  -36.7320   23.2636 C   0  0  0  0  0  0
  -25.9154  -30.8578   21.3512 C   0  0  0  0  0  0
  -25.9964  -29.4953   20.6987 C   0  0  0  0  0  0
  -27.2014  -28.7684   20.6713 C   0  0  0  0  0  0
  -26.0700  -26.9529   19.5059 C   0  0  0  0  0  0
  -24.8688  -27.6896   19.5171 C   0  0  0  0  0  0
  -23.5979  -29.8226   20.1671 C   0  0  0  0  0  0
  -25.4110  -36.3128   24.0339 C   0  0  1  0  0  0
  -20.5853  -28.3634   23.1350 C   0  0  2  0  0  0
  -20.6756  -26.9379   22.5428 C   0  0  0  0  0  0
  -19.5739  -26.6379   21.5218 C   0  0  0  0  0  0
  -18.1917  -26.7919   22.1624 C   0  0  0  0  0  0
  -19.1514  -28.8817   23.2919 C   0  0  0  0  0  0
  -18.9446  -30.1435   23.8913 C   0  0  0  0  0  0
  -17.6444  -30.6573   24.0559 C   0  0  0  0  0  0
  -25.9036  -34.9494   23.5137 C   0  0  0  0  0  0
  -16.5336  -29.9074   23.6316 C   0  0  0  0  0  0
  -16.7258  -28.6495   23.0332 C   0  0  0  0  0  0
  -26.4452  -31.6607   25.0696 C   0  0  0  0  0  0
  -25.3747  -31.3689   26.1455 C   0  0  0  0  0  0
  -27.0253  -30.3060   24.6008 C   0  0  0  0  0  0
  -27.6037  -32.4308   25.7461 C   0  0  0  0  0  0
  -27.5587  -37.1814   24.8467 C   0  0  0  0  0  0
  -21.4113  -29.3008   22.3762 N   0  0  0  0  0  0
  -26.4300  -37.3805   23.9409 N   0  0  0  0  0  0
  -24.6577  -31.0869   22.0986 N   0  0  0  0  0  0
  -23.4178  -28.8220   23.3054 O   0  0  0  0  0  0
  -28.4367  -26.8213   20.0609 O   0  0  0  0  0  0
  -26.5598  -34.8937   22.4697 O   0  0  0  0  0  0
  -23.5295  -32.1449   23.7548 O   0  0  0  0  0  0
  -30.8661  -19.1166   21.5488 C   0  0  0  0  0  0
  -31.6430  -17.8007   19.6500 C   0  0  0  0  0  0
  -31.2785  -20.1904   19.3965 C   0  0  0  0  0  0
  -31.2347  -17.8719   21.0014 C   0  0  0  0  0  0
  -30.8741  -20.2787   20.7516 C   0  0  0  0  0  0
  -31.6618  -18.9501   18.8400 C   0  0  0  0  0  0
  -30.1767  -15.5801   21.4013 C   0  0  0  0  0  0
  -30.0567  -22.6364   20.8298 C   0  0  0  0  0  0
  -32.5970  -19.9759   16.7969 C   0  0  0  0  0  0
  -31.1983  -16.6171   21.8682 C   0  0  0  0  0  0
  -29.8128  -23.7806   21.8155 C   0  0  0  0  0  0
  -29.7053  -25.1794   21.1795 C   0  0  0  0  0  0
  -28.3981  -25.4503   20.4216 C   0  0  0  0  0  0
  -28.9491  -15.8140   21.6288 N   0  0  0  0  0  0
  -30.5130  -21.5005   21.3799 N   0  0  0  0  0  0
  -32.0586  -18.8187   17.5018 N   0  0  0  0  0  0
  -29.8206  -22.7790   19.6284 O   0  0  0  0  0  0
  -31.4502  -12.3611   19.1035 H   0  0  0  0  0  0
  -30.2924  -11.2683   19.7958 H   0  0  0  0  0  0
  -29.7114  -11.7944   17.4056 H   0  0  0  0  0  0
  -29.6483  -13.5011   17.7814 H   0  0  0  0  0  0
  -27.7960  -11.3198   18.7854 H   0  0  0  0  0  0
  -27.3456  -12.6763   17.7897 H   0  0  0  0  0  0
  -27.7215  -14.2461   19.6168 H   0  0  0  0  0  0
  -28.6817  -11.8598   21.2661 H   0  0  0  0  0  0
  -28.4600  -13.4258   21.9222 H   0  0  0  0  0  0
  -25.2764   -9.5687   22.4732 H   0  0  0  0  0  0
  -24.0024   -7.4618   22.7445 H   0  0  0  0  0  0
  -21.0852   -8.8740   19.8924 H   0  0  0  0  0  0
  -22.3687  -10.9659   19.6145 H   0  0  0  0  0  0
  -21.1992   -7.6148   23.9716 H   0  0  0  0  0  0
  -21.1498   -6.0534   25.9083 H   0  0  0  0  0  0
  -22.0597   -2.7609   23.2844 H   0  0  0  0  0  0
  -22.4179  -11.9839   22.4737 H   0  0  0  0  0  0
  -21.1128  -13.1178   22.2681 H   0  0  0  0  0  0
  -24.7040  -15.8608   20.5879 H   0  0  0  0  0  0
  -26.3502  -15.6096   20.2761 H   0  0  0  0  0  0
  -26.7076  -32.5587   23.1183 H   0  0  0  0  0  0
  -25.0020  -33.9826   25.0475 H   0  0  0  0  0  0
  -22.6787  -31.3072   21.4167 H   0  0  0  0  0  0
  -23.3756  -35.9648   23.3317 H   0  0  0  0  0  0
  -24.3577  -36.8914   22.2045 H   0  0  0  0  0  0
  -23.7240  -37.6531   23.6638 H   0  0  0  0  0  0
  -26.0163  -31.6303   20.5869 H   0  0  0  0  0  0
  -26.8067  -30.9145   21.9634 H   0  0  0  0  0  0
  -28.1014  -29.1853   21.1008 H   0  0  0  0  0  0
  -26.0885  -25.9817   19.0327 H   0  0  0  0  0  0
  -23.9784  -27.2769   19.0631 H   0  0  0  0  0  0
  -23.6961  -30.5985   19.4069 H   0  0  0  0  0  0
  -22.7246  -29.2361   19.8766 H   0  0  0  0  0  0
  -25.1288  -36.1998   25.0834 H   0  0  0  0  0  0
  -20.9948  -28.3187   24.1467 H   0  0  0  0  0  0
  -20.5665  -26.2234   23.3601 H   0  0  0  0  0  0
  -21.6631  -26.7428   22.1221 H   0  0  0  0  0  0
  -19.6901  -25.6301   21.1223 H   0  0  0  0  0  0
  -19.6687  -27.3208   20.6764 H   0  0  0  0  0  0
  -17.4195  -26.6673   21.4015 H   0  0  0  0  0  0
  -18.0303  -26.0050   22.9009 H   0  0  0  0  0  0
  -19.7918  -30.7250   24.2283 H   0  0  0  0  0  0
  -17.4994  -31.6253   24.5159 H   0  0  0  0  0  0
  -15.5336  -30.2974   23.7630 H   0  0  0  0  0  0
  -15.8662  -28.0823   22.7015 H   0  0  0  0  0  0
  -24.5914  -30.7045   25.7797 H   0  0  0  0  0  0
  -24.8938  -32.2830   26.4940 H   0  0  0  0  0  0
  -25.8110  -30.8835   27.0189 H   0  0  0  0  0  0
  -26.2758  -29.6859   24.1076 H   0  0  0  0  0  0
  -27.4065  -29.7250   25.4415 H   0  0  0  0  0  0
  -27.8577  -30.4393   23.9095 H   0  0  0  0  0  0
  -27.2660  -33.3580   26.2099 H   0  0  0  0  0  0
  -28.3815  -32.6917   25.0277 H   0  0  0  0  0  0
  -28.0742  -31.8401   26.5327 H   0  0  0  0  0  0
  -28.2622  -38.0096   24.7511 H   0  0  0  0  0  0
  -28.1067  -36.2633   24.6300 H   0  0  0  0  0  0
  -27.2301  -37.1472   25.8868 H   0  0  0  0  0  0
  -20.9266  -29.8723   21.6988 H   0  0  0  0  0  0
  -26.0199  -38.2890   24.1403 H   0  0  0  0  0  0
  -30.5707  -19.1751   22.5876 H   0  0  0  0  0  0
  -31.9523  -16.8555   19.2295 H   0  0  0  0  0  0
  -31.3067  -21.0763   18.7826 H   0  0  0  0  0  0
  -33.3789  -20.4675   17.3788 H   0  0  0  0  0  0
  -31.8183  -20.7086   16.5766 H   0  0  0  0  0  0
  -33.0372  -19.6651   15.8487 H   0  0  0  0  0  0
  -32.1985  -16.1854   21.9098 H   0  0  0  0  0  0
  -30.9736  -16.8843   22.9016 H   0  0  0  0  0  0
  -30.6418  -23.7908   22.5249 H   0  0  0  0  0  0
  -28.9161  -23.5617   22.3960 H   0  0  0  0  0  0
  -30.5565  -25.3575   20.5209 H   0  0  0  0  0  0
  -29.7872  -25.9161   21.9794 H   0  0  0  0  0  0
  -27.5470  -25.2283   21.0698 H   0  0  0  0  0  0
  -28.3059  -24.8419   19.5222 H   0  0  0  0  0  0
  -28.8303  -16.6892   22.1249 H   0  0  0  0  0  0
  -30.5600  -21.5068   22.3898 H   0  0  0  0  0  0
  -32.3393  -17.8964   17.1735 H   0  0  0  0  0  0
  1 25  1  0  0  0
  1 30  2  0  0  0
  1 77  1  0  0  0
  2  3  1  0  0  0
  2 25  1  0  0  0
  2 88  1  0  0  0
  2 89  1  0  0  0
  3  4  1  0  0  0
  3 90  1  0  0  0
  3 91  1  0  0  0
  4  5  1  0  0  0
  4 92  1  0  0  0
  4 93  1  0  0  0
  5  6  1  0  0  0
  5 26  1  0  0  0
  5 94  1  0  0  0
  6 25  1  0  0  0
  6 95  1  0  0  0
  6 96  1  0  0  0
  7  8  2  0  0  0
  7 26  1  0  0  0
  7 29  1  0  0  0
  8  9  1  0  0  0
  8 22  1  0  0  0
  9 10  1  0  0  0
  9 27  2  0  0  0
 10 11  2  0  0  0
 10 15  1  0  0  0
 11 12  1  0  0  0
 11 97  1  0  0  0
 12 13  2  0  0  0
 12 98  1  0  0  0
 13 14  1  0  0  0
 13 31  1  0  0  0
 14 15  2  0  0  0
 14 99  1  0  0  0
 15100  1  0  0  0
 16 17  2  0  0  0
 16 21  1  0  0  0
 16 31  1  0  0  0
 17 18  1  0  0  0
 17101  1  0  0  0
 18 19  2  0  0  0
 18102  1  0  0  0
 19 20  1  0  0  0
 19 24  1  0  0  0
 20 21  2  0  0  0
 20103  1  0  0  0
 21 23  1  0  0  0
 22 28  1  0  0  0
 22 32  2  0  0  0
 26 27  1  0  0  0
 28104  1  0  0  0
 28105  1  0  0  0
 29106  1  0  0  0
 29107  1  0  0  0
 33 34  1  0  0  0
 33 66  1  0  0  0
 33 70  2  0  0  0
 34 36  1  0  0  0
 34 59  1  0  0  0
 34108  1  0  0  0
 35 44  2  0  0  0
 35 45  1  0  0  0
 35 68  1  0  0  0
 36 56  1  0  0  0
 36109  1  0  0  0
 37 39  1  0  0  0
 37 47  1  0  0  0
 37 66  1  0  0  0
 37110  1  0  0  0
 38 43  2  0  0  0
 38 46  1  0  0  0
 38 47  1  0  0  0
 39 64  1  0  0  0
 39 67  2  0  0  0
 40 52  1  0  0  0
 40 53  2  0  0  0
 40 58  1  0  0  0
 41111  1  0  0  0
 41112  1  0  0  0
 41113  1  0  0  0
 41 48  1  0  0  0
 42 43  1  0  0  0
 42 66  1  0  0  0
 42114  1  0  0  0
 42115  1  0  0  0
 43 44  1  0  0  0
 44116  1  0  0  0
 45 46  2  0  0  0
 45117  1  0  0  0
 46118  1  0  0  0
 47119  1  0  0  0
 47120  1  0  0  0
 48 56  1  0  0  0
 48 65  1  0  0  0
 48121  1  0  0  0
 49 50  1  0  0  0
 49 53  1  0  0  0
 49 64  1  0  0  0
 49122  1  0  0  0
 50 51  1  0  0  0
 50123  1  0  0  0
 50124  1  0  0  0
 51 52  1  0  0  0
 51125  1  0  0  0
 51126  1  0  0  0
 52127  1  0  0  0
 52128  1  0  0  0
 53 54  1  0  0  0
 54 55  2  0  0  0
 54129  1  0  0  0
 55 57  1  0  0  0
 55130  1  0  0  0
 56 69  2  0  0  0
 57 58  2  0  0  0
 57131  1  0  0  0
 58132  1  0  0  0
 59 60  1  0  0  0
 59 61  1  0  0  0
 59 62  1  0  0  0
 60133  1  0  0  0
 60134  1  0  0  0
 60135  1  0  0  0
 61136  1  0  0  0
 61137  1  0  0  0
 61138  1  0  0  0
 62139  1  0  0  0
 62140  1  0  0  0
 62141  1  0  0  0
 63 65  1  0  0  0
 63142  1  0  0  0
 63143  1  0  0  0
 63144  1  0  0  0
 64145  1  0  0  0
 65146  1  0  0  0
 68 83  1  0  0  0
 71 74  2  0  0  0
 71 75  1  0  0  0
 71147  1  0  0  0
 72 74  1  0  0  0
 72 76  2  0  0  0
 72148  1  0  0  0
 73 75  2  0  0  0
 73 76  1  0  0  0
 73149  1  0  0  0
 74 80  1  0  0  0
 75 85  1  0  0  0
 76 86  1  0  0  0
 77 80  1  0  0  0
 77 84  2  0  0  0
 78 81  1  0  0  0
 78 85  1  0  0  0
 78 87  2  0  0  0
 79 86  1  0  0  0
 79150  1  0  0  0
 79151  1  0  0  0
 79152  1  0  0  0
 80153  1  0  0  0
 80154  1  0  0  0
 81 82  1  0  0  0
 81155  1  0  0  0
 81156  1  0  0  0
 82 83  1  0  0  0
 82157  1  0  0  0
 82158  1  0  0  0
 83159  1  0  0  0
 83160  1  0  0  0
 84161  1  0  0  0
 85162  1  0  0  0
 86163  1  0  0  0
M  ISO  4   1 100  68 101  77 100  83 101
M  END
> <chiral flag>
0

> <version>
0

> <s_m_source_file>
/data/baiqing/PycharmProjects/Reinvent-master-3.2/result/LINK_invent/BTK/process_docking_weight1_custom_product_contain_oxygen_bond_distance_aromatic_linkinvent_7_9_3/rearranged_h_0108.sdf

> <i_m_source_file_index>
45

> <r_mmod_Potential_Energy-OPLS-2005>
15.7479429244995

> <r_mmod_Stretch_Energy-OPLS-2005>
35.3643455505371

> <r_mmod_Bend_Energy-OPLS-2005>
119.760055541992

> <r_mmod_Torsional_Energy-OPLS-2005>
185.713562011719

> <r_mmod_Improper_Torsional_Energy-OPLS-2005>
4.3791561126709

> <r_mmod_Van_der_Waal_Energy-OPLS-2005>
174.66325378418

> <r_mmod_Electrostatic_Energy-OPLS-2005>
-277.436981201172

> <r_mmod_Solvation_Energy-OPLS-2005>
-237.158020019531

> <b_mmod_Minimization_Converged-OPLS-2005>
0

> <r_mmod_RMS_Derivative-OPLS-2005>
2.12300729751587

$$$$
46
                    3D
 Structure written by MMmdl.
165173  0  0  1  0            999 V2000
  -30.7464  -14.4074   20.6170 C   0  0  0  0  0  0
  -30.4173  -12.2863   19.4089 C   0  0  0  0  0  0
  -29.4860  -12.5092   18.2025 C   0  0  0  0  0  0
  -28.0086  -12.3827   18.6172 C   0  0  0  0  0  0
  -27.6663  -13.2066   19.8867 C   0  0  2  0  0  0
  -28.7076  -12.9621   21.0017 C   0  0  0  0  0  0
  -25.2588  -13.8165   20.5672 C   0  0  0  0  0  0
  -24.1845  -13.0453   20.9193 C   0  0  0  0  0  0
  -24.6394  -11.6916   20.8753 C   0  0  0  0  0  0
  -23.9055  -10.4308   21.0413 C   0  0  0  0  0  0
  -24.3612   -9.4221   21.9190 C   0  0  0  0  0  0
  -23.6295   -8.2251   22.0750 C   0  0  0  0  0  0
  -22.4279   -8.0289   21.3539 C   0  0  0  0  0  0
  -21.9915   -9.0259   20.4639 C   0  0  0  0  0  0
  -22.7232  -10.2144   20.3060 C   0  0  0  0  0  0
  -21.6850   -6.0742   22.5276 C   0  0  0  0  0  0
  -21.4011   -6.5641   23.8207 C   0  0  0  0  0  0
  -21.3662   -5.6796   24.9167 C   0  0  0  0  0  0
  -21.6045   -4.3059   24.7222 C   0  0  0  0  0  0
  -21.8821   -3.8151   23.4335 C   0  0  0  0  0  0
  -21.9195   -4.6971   22.3395 C   0  0  0  0  0  0
  -22.7863  -13.5242   21.1856 C   0  0  0  0  0  0
  -22.1664   -4.2159   21.0971 F   0  0  0  0  0  0
  -21.5632   -3.4542   25.7730 F   0  0  0  0  0  0
  -30.0463  -13.2529   20.4553 N   0  0  0  0  0  0
  -26.3047  -12.9340   20.3430 N   0  0  0  0  0  0
  -25.9326  -11.6498   20.5804 N   0  0  0  0  0  0
  -22.0497  -12.8238   22.0409 N   0  0  0  0  0  0
  -25.4289  -15.1865   20.3978 N   0  0  0  0  0  0
  -31.8277  -14.5968   20.0571 O   0  0  0  0  0  0
  -21.6643   -6.8885   21.4233 O   0  0  0  0  0  0
  -22.3552  -14.5551   20.6705 O   0  0  0  0  0  0
  -24.6104  -31.8689   23.2111 C   0  0  0  0  0  0
  -25.9020  -32.4825   23.8404 C   0  0  1  0  0  0
  -27.2447  -27.4626   20.0906 C   0  0  0  0  0  0
  -25.5917  -33.8626   24.2339 N   0  0  0  0  0  0
  -23.3982  -30.4917   21.5498 C   0  0  2  0  0  0
  -24.8488  -28.9613   20.1126 C   0  0  0  0  0  0
  -22.7386  -29.4651   22.4979 C   0  0  0  0  0  0
  -18.0263  -28.1371   22.8454 C   0  0  0  0  0  0
  -24.1488  -36.7315   23.2639 C   0  0  0  0  0  0
  -25.9229  -30.8422   21.3613 C   0  0  0  0  0  0
  -26.0035  -29.4773   20.7123 C   0  0  0  0  0  0
  -27.2043  -28.7367   20.7060 C   0  0  0  0  0  0
  -26.0773  -26.9617   19.4817 C   0  0  0  0  0  0
  -24.8776  -27.6985   19.4946 C   0  0  0  0  0  0
  -23.6083  -29.8245   20.1630 C   0  0  0  0  0  0
  -25.4106  -36.3105   24.0341 C   0  0  1  0  0  0
  -20.5850  -28.3646   23.1304 C   0  0  2  0  0  0
  -20.6754  -26.9389   22.5397 C   0  0  0  0  0  0
  -19.5740  -26.6362   21.5186 C   0  0  0  0  0  0
  -18.1911  -26.7906   22.1597 C   0  0  0  0  0  0
  -19.1511  -28.8823   23.2867 C   0  0  0  0  0  0
  -18.9464  -30.1428   23.8887 C   0  0  0  0  0  0
  -17.6476  -30.6589   24.0551 C   0  0  0  0  0  0
  -25.9035  -34.9471   23.5122 C   0  0  0  0  0  0
  -16.5363  -29.9098   23.6322 C   0  0  0  0  0  0
  -16.7257  -28.6515   23.0330 C   0  0  0  0  0  0
  -26.4469  -31.6601   25.0721 C   0  0  0  0  0  0
  -25.3769  -31.3737   26.1500 C   0  0  0  0  0  0
  -27.0266  -30.3043   24.6048 C   0  0  0  0  0  0
  -27.6017  -32.4334   25.7514 C   0  0  0  0  0  0
  -27.5578  -37.1806   24.8466 C   0  0  0  0  0  0
  -21.4120  -29.3027   22.3738 N   0  0  0  0  0  0
  -26.4288  -37.3784   23.9407 N   0  0  0  0  0  0
  -24.6614  -31.0823   22.0989 N   0  0  0  0  0  0
  -23.4162  -28.8173   23.3000 O   0  0  0  0  0  0
  -28.3648  -26.6643   20.0309 O   0  0  0  0  0  0
  -26.5576  -34.8922   22.4667 O   0  0  0  0  0  0
  -23.5309  -32.1423   23.7525 O   0  0  0  0  0  0
  -29.7154  -18.9550   22.3168 C   0  0  0  0  0  0
  -31.6328  -17.3312   21.0824 C   0  0  0  0  0  0
  -29.4520  -17.5694   22.1612 C   0  0  0  0  0  0
  -30.4239  -16.7370   21.5339 C   0  0  0  0  0  0
  -31.8718  -18.7079   21.2298 C   0  0  0  0  0  0
  -30.9114  -19.5362   21.8376 C   0  0  0  0  0  0
  -26.8893  -17.8148   22.2363 C   0  0  0  0  0  0
  -28.1223  -17.0118   22.6836 C   0  0  0  0  0  0
  -29.7071  -24.3357   21.5451 C   0  0  0  0  0  0
  -30.3242  -25.6451   21.0079 C   0  0  0  0  0  0
  -30.7329  -23.1857   21.5809 C   0  0  0  0  0  0
  -29.3748  -26.8558   21.0124 C   0  0  0  0  0  0
  -30.1380  -21.8114   21.9330 C   0  0  0  0  0  0
  -33.0581  -19.2670   20.7520 N   0  0  0  0  0  0
  -30.1502  -15.3366   21.3895 N   0  0  0  0  0  0
  -31.2122  -20.8789   21.9360 O   0  0  0  0  0  0
  -31.4587  -12.3802   19.0962 H   0  0  0  0  0  0
  -30.3191  -11.2683   19.7880 H   0  0  0  0  0  0
  -29.7116  -11.7874   17.4164 H   0  0  0  0  0  0
  -29.6669  -13.4963   17.7728 H   0  0  0  0  0  0
  -27.8038  -11.3263   18.7943 H   0  0  0  0  0  0
  -27.3610  -12.6848   17.7923 H   0  0  0  0  0  0
  -27.7218  -14.2594   19.6104 H   0  0  0  0  0  0
  -28.6724  -11.9227   21.3308 H   0  0  0  0  0  0
  -28.4654  -13.5478   21.8889 H   0  0  0  0  0  0
  -25.2748   -9.5707   22.4772 H   0  0  0  0  0  0
  -24.0010   -7.4641   22.7467 H   0  0  0  0  0  0
  -21.0854   -8.8774   19.8934 H   0  0  0  0  0  0
  -22.3687  -10.9691   19.6180 H   0  0  0  0  0  0
  -21.1995   -7.6150   23.9714 H   0  0  0  0  0  0
  -21.1483   -6.0522   25.9071 H   0  0  0  0  0  0
  -22.0594   -2.7618   23.2830 H   0  0  0  0  0  0
  -22.4100  -11.9898   22.4806 H   0  0  0  0  0  0
  -21.1099  -13.1255   22.2591 H   0  0  0  0  0  0
  -24.6558  -15.8369   20.4808 H   0  0  0  0  0  0
  -26.2746  -15.6193   20.0495 H   0  0  0  0  0  0
  -26.7100  -32.5559   23.1184 H   0  0  0  0  0  0
  -25.0114  -33.9812   25.0517 H   0  0  0  0  0  0
  -22.6843  -31.3065   21.4104 H   0  0  0  0  0  0
  -23.3743  -35.9657   23.3303 H   0  0  0  0  0  0
  -24.3600  -36.8929   22.2056 H   0  0  0  0  0  0
  -23.7240  -37.6521   23.6657 H   0  0  0  0  0  0
  -26.0341  -31.6087   20.5929 H   0  0  0  0  0  0
  -26.8112  -30.8973   21.9788 H   0  0  0  0  0  0
  -28.0884  -29.1551   21.1634 H   0  0  0  0  0  0
  -26.0963  -25.9926   19.0029 H   0  0  0  0  0  0
  -23.9939  -27.2933   19.0210 H   0  0  0  0  0  0
  -23.7187  -30.6018   19.4054 H   0  0  0  0  0  0
  -22.7339  -29.2455   19.8629 H   0  0  0  0  0  0
  -25.1268  -36.1976   25.0836 H   0  0  0  0  0  0
  -20.9932  -28.3212   24.1429 H   0  0  0  0  0  0
  -20.5644  -26.2263   23.3580 H   0  0  0  0  0  0
  -21.6632  -26.7421   22.1218 H   0  0  0  0  0  0
  -19.6917  -25.6266   21.1234 H   0  0  0  0  0  0
  -19.6713  -27.3151   20.6697 H   0  0  0  0  0  0
  -17.4179  -26.6630   21.4004 H   0  0  0  0  0  0
  -18.0333  -26.0060   22.9009 H   0  0  0  0  0  0
  -19.7955  -30.7206   24.2286 H   0  0  0  0  0  0
  -17.5057  -31.6282   24.5130 H   0  0  0  0  0  0
  -15.5371  -30.3014   23.7660 H   0  0  0  0  0  0
  -15.8640  -28.0855   22.7046 H   0  0  0  0  0  0
  -24.5913  -30.7098   25.7886 H   0  0  0  0  0  0
  -24.9025  -32.2928   26.4964 H   0  0  0  0  0  0
  -25.8165  -30.8918   27.0246 H   0  0  0  0  0  0
  -26.2772  -29.6863   24.1092 H   0  0  0  0  0  0
  -27.4028  -29.7216   25.4468 H   0  0  0  0  0  0
  -27.8624  -30.4356   23.9165 H   0  0  0  0  0  0
  -27.2585  -33.3618   26.2093 H   0  0  0  0  0  0
  -28.3860  -32.6930   25.0395 H   0  0  0  0  0  0
  -28.0645  -31.8470   26.5466 H   0  0  0  0  0  0
  -28.2565  -38.0122   24.7511 H   0  0  0  0  0  0
  -28.1094  -36.2650   24.6280 H   0  0  0  0  0  0
  -27.2314  -37.1452   25.8873 H   0  0  0  0  0  0
  -20.9266  -29.8834   21.7048 H   0  0  0  0  0  0
  -26.0173  -38.2858   24.1429 H   0  0  0  0  0  0
  -28.9902  -19.5778   22.8179 H   0  0  0  0  0  0
  -32.4072  -16.7538   20.6046 H   0  0  0  0  0  0
  -25.9767  -17.3575   22.6218 H   0  0  0  0  0  0
  -26.8081  -17.8429   21.1490 H   0  0  0  0  0  0
  -26.9058  -18.8416   22.5998 H   0  0  0  0  0  0
  -28.1635  -16.9736   23.7725 H   0  0  0  0  0  0
  -27.9666  -15.9821   22.3664 H   0  0  0  0  0  0
  -28.8596  -24.0512   20.9190 H   0  0  0  0  0  0
  -29.3081  -24.4959   22.5486 H   0  0  0  0  0  0
  -30.6911  -25.4850   19.9932 H   0  0  0  0  0  0
  -31.1999  -25.8923   21.6097 H   0  0  0  0  0  0
  -31.5216  -23.4270   22.2950 H   0  0  0  0  0  0
  -31.2208  -23.1089   20.6087 H   0  0  0  0  0  0
  -29.9354  -27.7593   20.7697 H   0  0  0  0  0  0
  -28.9434  -26.9881   22.0064 H   0  0  0  0  0  0
  -29.3909  -21.5310   21.1875 H   0  0  0  0  0  0
  -29.6534  -21.8356   22.9089 H   0  0  0  0  0  0
  -33.8683  -18.6714   20.6168 H   0  0  0  0  0  0
  -33.2881  -20.1993   21.0834 H   0  0  0  0  0  0
  -29.2911  -15.0187   21.8070 H   0  0  0  0  0  0
  1 25  1  0  0  0
  1 30  2  0  0  0
  1 85  1  0  0  0
  2  3  1  0  0  0
  2 25  1  0  0  0
  2 87  1  0  0  0
  2 88  1  0  0  0
  3  4  1  0  0  0
  3 89  1  0  0  0
  3 90  1  0  0  0
  4  5  1  0  0  0
  4 91  1  0  0  0
  4 92  1  0  0  0
  5  6  1  0  0  0
  5 26  1  0  0  0
  5 93  1  0  0  0
  6 25  1  0  0  0
  6 94  1  0  0  0
  6 95  1  0  0  0
  7  8  2  0  0  0
  7 26  1  0  0  0
  7 29  1  0  0  0
  8  9  1  0  0  0
  8 22  1  0  0  0
  9 10  1  0  0  0
  9 27  2  0  0  0
 10 11  2  0  0  0
 10 15  1  0  0  0
 11 12  1  0  0  0
 11 96  1  0  0  0
 12 13  2  0  0  0
 12 97  1  0  0  0
 13 14  1  0  0  0
 13 31  1  0  0  0
 14 15  2  0  0  0
 14 98  1  0  0  0
 15 99  1  0  0  0
 16 17  2  0  0  0
 16 21  1  0  0  0
 16 31  1  0  0  0
 17 18  1  0  0  0
 17100  1  0  0  0
 18 19  2  0  0  0
 18101  1  0  0  0
 19 20  1  0  0  0
 19 24  1  0  0  0
 20 21  2  0  0  0
 20102  1  0  0  0
 21 23  1  0  0  0
 22 28  1  0  0  0
 22 32  2  0  0  0
 26 27  1  0  0  0
 28103  1  0  0  0
 28104  1  0  0  0
 29105  1  0  0  0
 29106  1  0  0  0
 33 34  1  0  0  0
 33 66  1  0  0  0
 33 70  2  0  0  0
 34 36  1  0  0  0
 34 59  1  0  0  0
 34107  1  0  0  0
 35 44  2  0  0  0
 35 45  1  0  0  0
 35 68  1  0  0  0
 36 56  1  0  0  0
 36108  1  0  0  0
 37 39  1  0  0  0
 37 47  1  0  0  0
 37 66  1  0  0  0
 37109  1  0  0  0
 38 43  2  0  0  0
 38 46  1  0  0  0
 38 47  1  0  0  0
 39 64  1  0  0  0
 39 67  2  0  0  0
 40 52  1  0  0  0
 40 53  2  0  0  0
 40 58  1  0  0  0
 41110  1  0  0  0
 41111  1  0  0  0
 41112  1  0  0  0
 41 48  1  0  0  0
 42 43  1  0  0  0
 42 66  1  0  0  0
 42113  1  0  0  0
 42114  1  0  0  0
 43 44  1  0  0  0
 44115  1  0  0  0
 45 46  2  0  0  0
 45116  1  0  0  0
 46117  1  0  0  0
 47118  1  0  0  0
 47119  1  0  0  0
 48 56  1  0  0  0
 48 65  1  0  0  0
 48120  1  0  0  0
 49 50  1  0  0  0
 49 53  1  0  0  0
 49 64  1  0  0  0
 49121  1  0  0  0
 50 51  1  0  0  0
 50122  1  0  0  0
 50123  1  0  0  0
 51 52  1  0  0  0
 51124  1  0  0  0
 51125  1  0  0  0
 52126  1  0  0  0
 52127  1  0  0  0
 53 54  1  0  0  0
 54 55  2  0  0  0
 54128  1  0  0  0
 55 57  1  0  0  0
 55129  1  0  0  0
 56 69  2  0  0  0
 57 58  2  0  0  0
 57130  1  0  0  0
 58131  1  0  0  0
 59 60  1  0  0  0
 59 61  1  0  0  0
 59 62  1  0  0  0
 60132  1  0  0  0
 60133  1  0  0  0
 60134  1  0  0  0
 61135  1  0  0  0
 61136  1  0  0  0
 61137  1  0  0  0
 62138  1  0  0  0
 62139  1  0  0  0
 62140  1  0  0  0
 63 65  1  0  0  0
 63141  1  0  0  0
 63142  1  0  0  0
 63143  1  0  0  0
 64144  1  0  0  0
 65145  1  0  0  0
 68 82  1  0  0  0
 71 73  2  0  0  0
 71 76  1  0  0  0
 71146  1  0  0  0
 72 74  2  0  0  0
 72 75  1  0  0  0
 72147  1  0  0  0
 73 74  1  0  0  0
 73 78  1  0  0  0
 74 85  1  0  0  0
 75 76  2  0  0  0
 75 84  1  0  0  0
 76 86  1  0  0  0
 77 78  1  0  0  0
 77148  1  0  0  0
 77149  1  0  0  0
 77150  1  0  0  0
 78151  1  0  0  0
 78152  1  0  0  0
 79 80  1  0  0  0
 79 81  1  0  0  0
 79153  1  0  0  0
 79154  1  0  0  0
 80 82  1  0  0  0
 80155  1  0  0  0
 80156  1  0  0  0
 81 83  1  0  0  0
 81157  1  0  0  0
 81158  1  0  0  0
 82159  1  0  0  0
 82160  1  0  0  0
 83 86  1  0  0  0
 83161  1  0  0  0
 83162  1  0  0  0
 84163  1  0  0  0
 84164  1  0  0  0
 85165  1  0  0  0
M  ISO  4   1 100  68 101  82 101  85 100
M  END
> <chiral flag>
0

> <version>
0

> <s_m_source_file>
/data/baiqing/PycharmProjects/Reinvent-master-3.2/result/LINK_invent/BTK/process_docking_weight1_custom_product_contain_oxygen_bond_distance_aromatic_linkinvent_7_9_3/rearranged_h_0108.sdf

> <i_m_source_file_index>
46

> <r_mmod_Potential_Energy-OPLS-2005>
-68.9602661132812

> <r_mmod_Stretch_Energy-OPLS-2005>
36.3184394836426

> <r_mmod_Bend_Energy-OPLS-2005>
109.277359008789

> <r_mmod_Torsional_Energy-OPLS-2005>
213.916473388672

> <r_mmod_Improper_Torsional_Energy-OPLS-2005>
5.52852821350098

> <r_mmod_Van_der_Waal_Energy-OPLS-2005>
162.715270996094

> <r_mmod_Electrostatic_Energy-OPLS-2005>
-392.576934814453

> <r_mmod_Solvation_Energy-OPLS-2005>
-212.422317504883

> <b_mmod_Minimization_Converged-OPLS-2005>
0

> <r_mmod_RMS_Derivative-OPLS-2005>
2.5112087726593

$$$$
47
                    3D
 Structure written by MMmdl.
164173  0  0  1  0            999 V2000
  -30.5737  -14.9293   20.4583 C   0  0  0  0  0  0
  -30.4304  -12.5624   19.5319 C   0  0  0  0  0  0
  -29.5349  -12.5373   18.2720 C   0  0  0  0  0  0
  -28.0633  -12.3191   18.6697 C   0  0  0  0  0  0
  -27.6290  -13.2489   19.8329 C   0  0  2  0  0  0
  -28.6591  -13.2762   20.9841 C   0  0  0  0  0  0
  -25.2400  -13.8159   20.5531 C   0  0  0  0  0  0
  -24.1767  -13.0405   20.9132 C   0  0  0  0  0  0
  -24.6403  -11.6900   20.8707 C   0  0  0  0  0  0
  -23.9080  -10.4284   21.0369 C   0  0  0  0  0  0
  -24.3637   -9.4213   21.9158 C   0  0  0  0  0  0
  -23.6302   -8.2261   22.0758 C   0  0  0  0  0  0
  -22.4290   -8.0288   21.3540 C   0  0  0  0  0  0
  -21.9918   -9.0245   20.4634 C   0  0  0  0  0  0
  -22.7250  -10.2112   20.3023 C   0  0  0  0  0  0
  -21.6855   -6.0741   22.5276 C   0  0  0  0  0  0
  -21.4025   -6.5633   23.8211 C   0  0  0  0  0  0
  -21.3662   -5.6780   24.9167 C   0  0  0  0  0  0
  -21.6054   -4.3045   24.7207 C   0  0  0  0  0  0
  -21.8827   -3.8145   23.4318 C   0  0  0  0  0  0
  -21.9207   -4.6977   22.3387 C   0  0  0  0  0  0
  -22.7793  -13.5158   21.1823 C   0  0  0  0  0  0
  -22.1672   -4.2168   21.0968 F   0  0  0  0  0  0
  -21.5619   -3.4523   25.7709 F   0  0  0  0  0  0
  -29.9580  -13.6714   20.4137 N   0  0  0  0  0  0
  -26.2853  -12.9431   20.3118 N   0  0  0  0  0  0
  -25.9325  -11.6563   20.5673 N   0  0  0  0  0  0
  -22.0497  -12.8153   22.0414 N   0  0  0  0  0  0
  -25.4009  -15.1858   20.3812 N   0  0  0  0  0  0
  -31.7218  -15.0020   19.9997 O   0  0  0  0  0  0
  -21.6647   -6.8887   21.4242 O   0  0  0  0  0  0
  -22.3473  -14.5504   20.6707 O   0  0  0  0  0  0
  -24.6372  -31.8452   23.1889 C   0  0  0  0  0  0
  -25.9134  -32.4718   23.8294 C   0  0  1  0  0  0
  -27.2289  -27.1504   20.1737 C   0  0  0  0  0  0
  -25.5907  -33.8533   24.2229 N   0  0  0  0  0  0
  -23.4444  -30.4562   21.5310 C   0  0  2  0  0  0
  -24.9029  -28.8801   20.1132 C   0  0  0  0  0  0
  -22.7536  -29.4508   22.4849 C   0  0  0  0  0  0
  -18.0257  -28.1398   22.8401 C   0  0  0  0  0  0
  -24.1492  -36.7281   23.2642 C   0  0  0  0  0  0
  -25.9953  -30.7216   21.3909 C   0  0  0  0  0  0
  -26.0692  -29.3303   20.7421 C   0  0  0  0  0  0
  -27.2256  -28.4715   20.7673 C   0  0  0  0  0  0
  -26.0400  -26.7891   19.5062 C   0  0  0  0  0  0
  -24.8965  -27.6224   19.4853 C   0  0  0  0  0  0
  -23.6789  -29.7776   20.1522 C   0  0  0  0  0  0
  -25.4123  -36.3072   24.0327 C   0  0  1  0  0  0
  -20.5874  -28.3701   23.1236 C   0  0  2  0  0  0
  -20.6777  -26.9404   22.5405 C   0  0  0  0  0  0
  -19.5781  -26.6369   21.5171 C   0  0  0  0  0  0
  -18.1931  -26.7925   22.1554 C   0  0  0  0  0  0
  -19.1518  -28.8868   23.2798 C   0  0  0  0  0  0
  -18.9445  -30.1474   23.8796 C   0  0  0  0  0  0
  -17.6450  -30.6589   24.0539 C   0  0  0  0  0  0
  -25.9042  -34.9430   23.5095 C   0  0  0  0  0  0
  -16.5334  -29.9083   23.6349 C   0  0  0  0  0  0
  -16.7243  -28.6536   23.0290 C   0  0  0  0  0  0
  -26.4486  -31.6590   25.0733 C   0  0  0  0  0  0
  -25.3678  -31.3764   26.1434 C   0  0  0  0  0  0
  -27.0382  -30.2984   24.6385 C   0  0  0  0  0  0
  -27.6059  -32.4353   25.7489 C   0  0  0  0  0  0
  -27.5585  -37.1808   24.8451 C   0  0  0  0  0  0
  -21.4226  -29.3031   22.3624 N   0  0  0  0  0  0
  -26.4296  -37.3771   23.9392 N   0  0  0  0  0  0
  -24.7113  -31.0301   22.0931 N   0  0  0  0  0  0
  -23.4177  -28.8065   23.3010 O   0  0  0  0  0  0
  -28.3117  -26.2201   20.3076 O   0  0  0  0  0  0
  -26.5620  -34.8905   22.4657 O   0  0  0  0  0  0
  -23.5496  -32.1318   23.7096 O   0  0  0  0  0  0
  -30.2176  -19.8534   19.7329 C   0  0  0  0  0  0
  -30.5060  -18.4396   19.9717 C   0  0  0  0  0  0
  -28.1346  -19.6206   20.7901 C   0  0  0  0  0  0
  -28.4065  -18.2061   21.0178 C   0  0  0  0  0  0
  -29.0132  -20.5376   20.1284 C   0  0  0  0  0  0
  -29.6190  -17.5131   20.6249 C   0  0  0  0  0  0
  -27.7704  -21.8796   18.5857 C   0  0  0  0  0  0
  -26.4771  -22.6639   18.8095 C   0  0  0  0  0  0
  -26.6301  -23.1140   20.2654 C   0  0  0  0  0  0
  -28.1463  -23.2685   20.3815 C   0  0  2  0  0  0
  -27.2952  -17.4439   21.7056 C   0  0  0  0  0  0
  -31.3362  -16.8315   23.0212 C   0  0  0  0  0  0
  -28.4508  -24.7980   19.7178 C   0  0  0  0  0  0
  -30.1449  -15.9772   22.5398 C   0  0  0  0  0  0
  -28.6028  -21.9459   19.6466 N   0  0  0  0  0  0
  -29.9592  -16.0640   21.0751 N   0  0  0  0  0  0
  -27.9753  -21.2394   17.5501 O   0  0  0  0  0  0
  -31.4799  -12.6725   19.2542 H   0  0  0  0  0  0
  -30.3724  -11.6099   20.0606 H   0  0  0  0  0  0
  -29.8600  -11.7510   17.5879 H   0  0  0  0  0  0
  -29.6404  -13.4792   17.7323 H   0  0  0  0  0  0
  -27.9631  -11.2777   18.9824 H   0  0  0  0  0  0
  -27.4092  -12.4466   17.8049 H   0  0  0  0  0  0
  -27.5953  -14.2509   19.4032 H   0  0  0  0  0  0
  -28.7222  -12.3077   21.4846 H   0  0  0  0  0  0
  -28.3356  -13.9898   21.7406 H   0  0  0  0  0  0
  -25.2790   -9.5708   22.4708 H   0  0  0  0  0  0
  -24.0020   -7.4671   22.7489 H   0  0  0  0  0  0
  -21.0843   -8.8743   19.8943 H   0  0  0  0  0  0
  -22.3699  -10.9638   19.6109 H   0  0  0  0  0  0
  -21.2033   -7.6146   23.9718 H   0  0  0  0  0  0
  -21.1470   -6.0503   25.9068 H   0  0  0  0  0  0
  -22.0617   -2.7609   23.2804 H   0  0  0  0  0  0
  -22.4157  -11.9749   22.4661 H   0  0  0  0  0  0
  -21.1135  -13.1188   22.2703 H   0  0  0  0  0  0
  -24.6448  -15.8471   20.5196 H   0  0  0  0  0  0
  -26.2488  -15.6195   20.0412 H   0  0  0  0  0  0
  -26.7177  -32.5384   23.1013 H   0  0  0  0  0  0
  -25.0068  -33.9667   25.0393 H   0  0  0  0  0  0
  -22.7436  -31.2777   21.3656 H   0  0  0  0  0  0
  -23.3773  -35.9586   23.3288 H   0  0  0  0  0  0
  -24.3563  -36.8932   22.2053 H   0  0  0  0  0  0
  -23.7238  -37.6479   23.6674 H   0  0  0  0  0  0
  -26.1367  -31.4703   20.6108 H   0  0  0  0  0  0
  -26.8688  -30.7872   22.0268 H   0  0  0  0  0  0
  -28.1058  -28.7948   21.3049 H   0  0  0  0  0  0
  -25.9607  -25.8178   19.0439 H   0  0  0  0  0  0
  -23.9960  -27.2767   18.9970 H   0  0  0  0  0  0
  -23.8200  -30.5476   19.3947 H   0  0  0  0  0  0
  -22.8030  -29.2101   19.8370 H   0  0  0  0  0  0
  -25.1307  -36.1913   25.0823 H   0  0  0  0  0  0
  -20.9866  -28.3292   24.1392 H   0  0  0  0  0  0
  -20.5631  -26.2289   23.3603 H   0  0  0  0  0  0
  -21.6657  -26.7406   22.1227 H   0  0  0  0  0  0
  -19.6965  -25.6254   21.1264 H   0  0  0  0  0  0
  -19.6805  -27.3119   20.6656 H   0  0  0  0  0  0
  -17.4213  -26.6563   21.3964 H   0  0  0  0  0  0
  -18.0385  -26.0095   22.8990 H   0  0  0  0  0  0
  -19.7929  -30.7314   24.2103 H   0  0  0  0  0  0
  -17.5015  -31.6237   24.5197 H   0  0  0  0  0  0
  -15.5341  -30.2958   23.7795 H   0  0  0  0  0  0
  -15.8617  -28.0898   22.6985 H   0  0  0  0  0  0
  -24.5869  -30.7093   25.7753 H   0  0  0  0  0  0
  -24.8828  -32.2919   26.4825 H   0  0  0  0  0  0
  -25.7973  -30.8971   27.0229 H   0  0  0  0  0  0
  -26.3024  -29.6669   24.1403 H   0  0  0  0  0  0
  -27.3936  -29.7350   25.5020 H   0  0  0  0  0  0
  -27.8932  -30.4192   23.9740 H   0  0  0  0  0  0
  -27.2702  -33.3675   26.2026 H   0  0  0  0  0  0
  -28.3882  -32.6873   25.0320 H   0  0  0  0  0  0
  -28.0680  -31.8482   26.5429 H   0  0  0  0  0  0
  -28.2605  -38.0112   24.7521 H   0  0  0  0  0  0
  -28.1109  -36.2654   24.6270 H   0  0  0  0  0  0
  -27.2293  -37.1430   25.8853 H   0  0  0  0  0  0
  -20.9424  -29.8793   21.6851 H   0  0  0  0  0  0
  -26.0194  -38.2851   24.1393 H   0  0  0  0  0  0
  -30.9640  -20.4261   19.2008 H   0  0  0  0  0  0
  -31.4675  -18.0721   19.6455 H   0  0  0  0  0  0
  -27.1712  -20.0029   21.1018 H   0  0  0  0  0  0
  -25.5819  -22.0584   18.6601 H   0  0  0  0  0  0
  -26.4266  -23.4995   18.1102 H   0  0  0  0  0  0
  -26.2861  -22.3198   20.9292 H   0  0  0  0  0  0
  -26.0693  -24.0152   20.5150 H   0  0  0  0  0  0
  -28.4616  -23.2327   21.4254 H   0  0  0  0  0  0
  -26.3257  -17.7353   21.2983 H   0  0  0  0  0  0
  -27.2975  -17.6494   22.7764 H   0  0  0  0  0  0
  -27.4029  -16.3704   21.5640 H   0  0  0  0  0  0
  -31.4797  -16.7243   24.0955 H   0  0  0  0  0  0
  -31.1773  -17.8927   22.8265 H   0  0  0  0  0  0
  -32.2710  -16.5419   22.5391 H   0  0  0  0  0  0
  -27.9783  -24.8681   18.7404 H   0  0  0  0  0  0
  -29.5097  -24.7622   19.4606 H   0  0  0  0  0  0
  -29.2400  -16.2942   23.0566 H   0  0  0  0  0  0
  -30.3016  -14.9532   22.8877 H   0  0  0  0  0  0
  1 25  1  0  0  0
  1 30  2  0  0  0
  1 86  1  0  0  0
  2  3  1  0  0  0
  2 25  1  0  0  0
  2 88  1  0  0  0
  2 89  1  0  0  0
  3  4  1  0  0  0
  3 90  1  0  0  0
  3 91  1  0  0  0
  4  5  1  0  0  0
  4 92  1  0  0  0
  4 93  1  0  0  0
  5  6  1  0  0  0
  5 26  1  0  0  0
  5 94  1  0  0  0
  6 25  1  0  0  0
  6 95  1  0  0  0
  6 96  1  0  0  0
  7  8  2  0  0  0
  7 26  1  0  0  0
  7 29  1  0  0  0
  8  9  1  0  0  0
  8 22  1  0  0  0
  9 10  1  0  0  0
  9 27  2  0  0  0
 10 11  2  0  0  0
 10 15  1  0  0  0
 11 12  1  0  0  0
 11 97  1  0  0  0
 12 13  2  0  0  0
 12 98  1  0  0  0
 13 14  1  0  0  0
 13 31  1  0  0  0
 14 15  2  0  0  0
 14 99  1  0  0  0
 15100  1  0  0  0
 16 17  2  0  0  0
 16 21  1  0  0  0
 16 31  1  0  0  0
 17 18  1  0  0  0
 17101  1  0  0  0
 18 19  2  0  0  0
 18102  1  0  0  0
 19 20  1  0  0  0
 19 24  1  0  0  0
 20 21  2  0  0  0
 20103  1  0  0  0
 21 23  1  0  0  0
 22 28  1  0  0  0
 22 32  2  0  0  0
 26 27  1  0  0  0
 28104  1  0  0  0
 28105  1  0  0  0
 29106  1  0  0  0
 29107  1  0  0  0
 33 34  1  0  0  0
 33 66  1  0  0  0
 33 70  2  0  0  0
 34 36  1  0  0  0
 34 59  1  0  0  0
 34108  1  0  0  0
 35 44  2  0  0  0
 35 45  1  0  0  0
 35 68  1  0  0  0
 36 56  1  0  0  0
 36109  1  0  0  0
 37 39  1  0  0  0
 37 47  1  0  0  0
 37 66  1  0  0  0
 37110  1  0  0  0
 38 43  2  0  0  0
 38 46  1  0  0  0
 38 47  1  0  0  0
 39 64  1  0  0  0
 39 67  2  0  0  0
 40 52  1  0  0  0
 40 53  2  0  0  0
 40 58  1  0  0  0
 41111  1  0  0  0
 41112  1  0  0  0
 41113  1  0  0  0
 41 48  1  0  0  0
 42 43  1  0  0  0
 42 66  1  0  0  0
 42114  1  0  0  0
 42115  1  0  0  0
 43 44  1  0  0  0
 44116  1  0  0  0
 45 46  2  0  0  0
 45117  1  0  0  0
 46118  1  0  0  0
 47119  1  0  0  0
 47120  1  0  0  0
 48 56  1  0  0  0
 48 65  1  0  0  0
 48121  1  0  0  0
 49 50  1  0  0  0
 49 53  1  0  0  0
 49 64  1  0  0  0
 49122  1  0  0  0
 50 51  1  0  0  0
 50123  1  0  0  0
 50124  1  0  0  0
 51 52  1  0  0  0
 51125  1  0  0  0
 51126  1  0  0  0
 52127  1  0  0  0
 52128  1  0  0  0
 53 54  1  0  0  0
 54 55  2  0  0  0
 54129  1  0  0  0
 55 57  1  0  0  0
 55130  1  0  0  0
 56 69  2  0  0  0
 57 58  2  0  0  0
 57131  1  0  0  0
 58132  1  0  0  0
 59 60  1  0  0  0
 59 61  1  0  0  0
 59 62  1  0  0  0
 60133  1  0  0  0
 60134  1  0  0  0
 60135  1  0  0  0
 61136  1  0  0  0
 61137  1  0  0  0
 61138  1  0  0  0
 62139  1  0  0  0
 62140  1  0  0  0
 62141  1  0  0  0
 63 65  1  0  0  0
 63142  1  0  0  0
 63143  1  0  0  0
 63144  1  0  0  0
 64145  1  0  0  0
 65146  1  0  0  0
 68 83  1  0  0  0
 71 72  2  0  0  0
 71 75  1  0  0  0
 71147  1  0  0  0
 72 76  1  0  0  0
 72148  1  0  0  0
 73 74  1  0  0  0
 73 75  2  0  0  0
 73149  1  0  0  0
 74 76  2  0  0  0
 74 81  1  0  0  0
 75 85  1  0  0  0
 76 86  1  0  0  0
 77 78  1  0  0  0
 77 85  1  0  0  0
 77 87  2  0  0  0
 78 79  1  0  0  0
 78150  1  0  0  0
 78151  1  0  0  0
 79 80  1  0  0  0
 79152  1  0  0  0
 79153  1  0  0  0
 80 83  1  0  0  0
 80 85  1  0  0  0
 80154  1  0  0  0
 81155  1  0  0  0
 81156  1  0  0  0
 81157  1  0  0  0
 82 84  1  0  0  0
 82158  1  0  0  0
 82159  1  0  0  0
 82160  1  0  0  0
 83161  1  0  0  0
 83162  1  0  0  0
 84 86  1  0  0  0
 84163  1  0  0  0
 84164  1  0  0  0
M  ISO  4   1 100  68 101  83 101  86 100
M  END
> <chiral flag>
0

> <version>
0

> <s_m_source_file>
/data/baiqing/PycharmProjects/Reinvent-master-3.2/result/LINK_invent/BTK/process_docking_weight1_custom_product_contain_oxygen_bond_distance_aromatic_linkinvent_7_9_3/rearranged_h_0108.sdf

> <i_m_source_file_index>
47

> <r_mmod_Potential_Energy-OPLS-2005>
849.275451660156

> <r_mmod_Stretch_Energy-OPLS-2005>
251.818222045898

> <r_mmod_Bend_Energy-OPLS-2005>
345.993194580078

> <r_mmod_Torsional_Energy-OPLS-2005>
402.260681152344

> <r_mmod_Improper_Torsional_Energy-OPLS-2005>
9.42820358276367

> <r_mmod_Van_der_Waal_Energy-OPLS-2005>
131.228759765625

> <r_mmod_Electrostatic_Energy-OPLS-2005>
-266.272247314453

> <r_mmod_Solvation_Energy-OPLS-2005>
-204.080322265625

> <b_mmod_Minimization_Converged-OPLS-2005>
0

> <r_mmod_RMS_Derivative-OPLS-2005>
4.80503845214844

$$$$
48
                    3D
 Structure written by MMmdl.
168177  0  0  1  0            999 V2000
  -30.6600  -14.5553   20.5446 C   0  0  0  0  0  0
  -30.4373  -12.3578   19.4206 C   0  0  0  0  0  0
  -29.4975  -12.5007   18.2044 C   0  0  0  0  0  0
  -28.0203  -12.3485   18.6221 C   0  0  0  0  0  0
  -27.6549  -13.2078   19.8621 C   0  0  2  0  0  0
  -28.7031  -13.0252   20.9825 C   0  0  0  0  0  0
  -25.2567  -13.8156   20.5676 C   0  0  0  0  0  0
  -24.1827  -13.0430   20.9193 C   0  0  0  0  0  0
  -24.6389  -11.6900   20.8734 C   0  0  0  0  0  0
  -23.9053  -10.4288   21.0395 C   0  0  0  0  0  0
  -24.3608   -9.4207   21.9176 C   0  0  0  0  0  0
  -23.6289   -8.2237   22.0749 C   0  0  0  0  0  0
  -22.4269   -8.0275   21.3537 C   0  0  0  0  0  0
  -21.9898   -9.0246   20.4638 C   0  0  0  0  0  0
  -22.7220  -10.2130   20.3047 C   0  0  0  0  0  0
  -21.6852   -6.0730   22.5276 C   0  0  0  0  0  0
  -21.4013   -6.5635   23.8209 C   0  0  0  0  0  0
  -21.3657   -5.6790   24.9171 C   0  0  0  0  0  0
  -21.6044   -4.3054   24.7221 C   0  0  0  0  0  0
  -21.8821   -3.8146   23.4344 C   0  0  0  0  0  0
  -21.9196   -4.6960   22.3399 C   0  0  0  0  0  0
  -22.7849  -13.5227   21.1867 C   0  0  0  0  0  0
  -22.1660   -4.2150   21.0974 F   0  0  0  0  0  0
  -21.5632   -3.4537   25.7734 F   0  0  0  0  0  0
  -30.0201  -13.3578   20.4149 N   0  0  0  0  0  0
  -26.2994  -12.9327   20.3314 N   0  0  0  0  0  0
  -25.9317  -11.6490   20.5753 N   0  0  0  0  0  0
  -22.0495  -12.8209   22.0418 N   0  0  0  0  0  0
  -25.4262  -15.1874   20.4068 N   0  0  0  0  0  0
  -31.8243  -14.7276   20.1766 O   0  0  0  0  0  0
  -21.6634   -6.8870   21.4236 O   0  0  0  0  0  0
  -22.3522  -14.5527   20.6713 O   0  0  0  0  0  0
  -24.6232  -31.8651   23.2083 C   0  0  0  0  0  0
  -25.9102  -32.4802   23.8382 C   0  0  1  0  0  0
  -27.2216  -27.3812   20.0925 C   0  0  0  0  0  0
  -25.5952  -33.8598   24.2319 N   0  0  0  0  0  0
  -23.4119  -30.4920   21.5513 C   0  0  2  0  0  0
  -24.8531  -28.9520   20.1237 C   0  0  0  0  0  0
  -22.7438  -29.4688   22.4988 C   0  0  0  0  0  0
  -18.0282  -28.1410   22.8492 C   0  0  0  0  0  0
  -24.1489  -36.7288   23.2636 C   0  0  0  0  0  0
  -25.9475  -30.8179   21.3643 C   0  0  0  0  0  0
  -26.0244  -29.4483   20.7114 C   0  0  0  0  0  0
  -27.2163  -28.6745   20.6826 C   0  0  0  0  0  0
  -26.0186  -26.9063   19.5299 C   0  0  0  0  0  0
  -24.8484  -27.6812   19.5311 C   0  0  0  0  0  0
  -23.6226  -29.8287   20.1675 C   0  0  0  0  0  0
  -25.4097  -36.3076   24.0333 C   0  0  1  0  0  0
  -20.5875  -28.3707   23.1318 C   0  0  2  0  0  0
  -20.6774  -26.9442   22.5426 C   0  0  0  0  0  0
  -19.5761  -26.6412   21.5224 C   0  0  0  0  0  0
  -18.1934  -26.7958   22.1630 C   0  0  0  0  0  0
  -19.1527  -28.8869   23.2907 C   0  0  0  0  0  0
  -18.9458  -30.1474   23.8930 C   0  0  0  0  0  0
  -17.6455  -30.6609   24.0582 C   0  0  0  0  0  0
  -25.9046  -34.9460   23.5106 C   0  0  0  0  0  0
  -16.5352  -29.9105   23.6338 C   0  0  0  0  0  0
  -16.7266  -28.6523   23.0353 C   0  0  0  0  0  0
  -26.4485  -31.6580   25.0718 C   0  0  0  0  0  0
  -25.3732  -31.3714   26.1456 C   0  0  0  0  0  0
  -27.0298  -30.3017   24.6099 C   0  0  0  0  0  0
  -27.6074  -32.4270   25.7462 C   0  0  0  0  0  0
  -27.5576  -37.1768   24.8449 C   0  0  0  0  0  0
  -21.4155  -29.3070   22.3718 N   0  0  0  0  0  0
  -26.4264  -37.3773   23.9429 N   0  0  0  0  0  0
  -24.6801  -31.0722   22.0998 N   0  0  0  0  0  0
  -23.4173  -28.8221   23.3051 O   0  0  0  0  0  0
  -28.3678  -26.5977   20.0237 O   0  0  0  0  0  0
  -26.5586  -34.8917   22.4656 O   0  0  0  0  0  0
  -23.5404  -32.1432   23.7443 O   0  0  0  0  0  0
  -31.4019  -18.1709   19.5803 C   0  0  0  0  0  0
  -31.6220  -19.3337   18.8182 C   0  0  0  0  0  0
  -29.5128  -19.2681   20.6517 C   0  0  0  0  0  0
  -30.3588  -18.1246   20.5232 C   0  0  0  0  0  0
  -30.8114  -20.4809   18.9732 C   0  0  0  0  0  0
  -29.7264  -20.4608   19.8938 C   0  0  0  0  0  0
  -28.4420  -23.9676   19.9889 C   0  0  0  0  0  0
  -28.9752  -22.8262   20.5388 C   0  0  0  0  0  0
  -27.8285  -23.8472   18.6332 C   0  0  0  0  0  0
  -27.4715  -22.4492   18.1018 C   0  0  0  0  0  0
  -27.6169  -21.3348   19.1510 C   0  0  0  0  0  0
  -29.6578  -22.8201   21.8988 C   0  0  0  0  0  0
  -32.5175  -22.2897   18.4181 C   0  0  0  0  0  0
  -31.1381  -21.6919   18.1027 C   0  0  0  0  0  0
  -30.2654  -16.9153   21.4822 C   0  0  0  0  0  0
  -28.3471  -25.3338   20.7486 C   0  0  0  0  0  0
  -28.8056  -21.5446   19.9710 N   0  0  0  0  0  0
  -29.8833  -15.5798   20.9672 N   0  0  0  0  0  0
  -27.6705  -24.7964   17.8628 O   0  0  0  0  0  0
  -31.4759  -12.4906   19.1124 H   0  0  0  0  0  0
  -30.3772  -11.3544   19.8457 H   0  0  0  0  0  0
  -29.7505  -11.7591   17.4461 H   0  0  0  0  0  0
  -29.6438  -13.4763   17.7388 H   0  0  0  0  0  0
  -27.8453  -11.2938   18.8390 H   0  0  0  0  0  0
  -27.3648  -12.5963   17.7867 H   0  0  0  0  0  0
  -27.6834  -14.2480   19.5390 H   0  0  0  0  0  0
  -28.7039  -11.9949   21.3404 H   0  0  0  0  0  0
  -28.4599  -13.6376   21.8524 H   0  0  0  0  0  0
  -25.2759   -9.5692   22.4739 H   0  0  0  0  0  0
  -24.0010   -7.4628   22.7459 H   0  0  0  0  0  0
  -21.0834   -8.8748   19.8937 H   0  0  0  0  0  0
  -22.3670  -10.9663   19.6150 H   0  0  0  0  0  0
  -21.1997   -7.6140   23.9714 H   0  0  0  0  0  0
  -21.1478   -6.0516   25.9074 H   0  0  0  0  0  0
  -22.0605   -2.7613   23.2840 H   0  0  0  0  0  0
  -22.4119  -11.9872   22.4809 H   0  0  0  0  0  0
  -21.1104  -13.1215   22.2624 H   0  0  0  0  0  0
  -24.6556  -15.8380   20.5102 H   0  0  0  0  0  0
  -26.2687  -15.6280   20.0610 H   0  0  0  0  0  0
  -26.7171  -32.5492   23.1141 H   0  0  0  0  0  0
  -25.0133  -33.9734   25.0481 H   0  0  0  0  0  0
  -22.7072  -31.3130   21.4095 H   0  0  0  0  0  0
  -23.3750  -35.9622   23.3265 H   0  0  0  0  0  0
  -24.3628  -36.8934   22.2065 H   0  0  0  0  0  0
  -23.7225  -37.6479   23.6660 H   0  0  0  0  0  0
  -26.0602  -31.5813   20.5924 H   0  0  0  0  0  0
  -26.8351  -30.8742   21.9822 H   0  0  0  0  0  0
  -28.1242  -29.0583   21.1253 H   0  0  0  0  0  0
  -25.9565  -25.9286   19.0831 H   0  0  0  0  0  0
  -23.9449  -27.2888   19.0864 H   0  0  0  0  0  0
  -23.7431  -30.6051   19.4114 H   0  0  0  0  0  0
  -22.7427  -29.2584   19.8651 H   0  0  0  0  0  0
  -25.1264  -36.1921   25.0819 H   0  0  0  0  0  0
  -20.9966  -28.3256   24.1439 H   0  0  0  0  0  0
  -20.5729  -26.2291   23.3604 H   0  0  0  0  0  0
  -21.6632  -26.7512   22.1190 H   0  0  0  0  0  0
  -19.6942  -25.6324   21.1254 H   0  0  0  0  0  0
  -19.6718  -27.3223   20.6757 H   0  0  0  0  0  0
  -17.4208  -26.6729   21.4025 H   0  0  0  0  0  0
  -18.0341  -26.0100   22.9025 H   0  0  0  0  0  0
  -19.7927  -30.7285   24.2322 H   0  0  0  0  0  0
  -17.5002  -31.6295   24.5172 H   0  0  0  0  0  0
  -15.5356  -30.3014   23.7639 H   0  0  0  0  0  0
  -15.8665  -28.0843   22.7060 H   0  0  0  0  0  0
  -24.5926  -30.7031   25.7791 H   0  0  0  0  0  0
  -24.8904  -32.2887   26.4848 H   0  0  0  0  0  0
  -25.8079  -30.8928   27.0245 H   0  0  0  0  0  0
  -26.2854  -29.6794   24.1123 H   0  0  0  0  0  0
  -27.4035  -29.7226   25.4553 H   0  0  0  0  0  0
  -27.8695  -30.4326   23.9266 H   0  0  0  0  0  0
  -27.2733  -33.3583   26.2035 H   0  0  0  0  0  0
  -28.3873  -32.6799   25.0267 H   0  0  0  0  0  0
  -28.0738  -31.8386   26.5371 H   0  0  0  0  0  0
  -28.2516  -38.0142   24.7567 H   0  0  0  0  0  0
  -28.1143  -36.2663   24.6148 H   0  0  0  0  0  0
  -27.2331  -37.1261   25.8866 H   0  0  0  0  0  0
  -20.9324  -29.8759   21.6907 H   0  0  0  0  0  0
  -26.0143  -38.2830   24.1504 H   0  0  0  0  0  0
  -32.0694  -17.3279   19.4665 H   0  0  0  0  0  0
  -32.4405  -19.3483   18.1117 H   0  0  0  0  0  0
  -28.7014  -19.2465   21.3657 H   0  0  0  0  0  0
  -28.1317  -22.2417   17.2598 H   0  0  0  0  0  0
  -26.4555  -22.4545   17.7087 H   0  0  0  0  0  0
  -27.6277  -20.3586   18.6613 H   0  0  0  0  0  0
  -26.7423  -21.3358   19.8048 H   0  0  0  0  0  0
  -28.9994  -23.2431   22.6590 H   0  0  0  0  0  0
  -30.5703  -23.4164   21.8668 H   0  0  0  0  0  0
  -29.9323  -21.8183   22.2287 H   0  0  0  0  0  0
  -32.7180  -23.1578   17.7890 H   0  0  0  0  0  0
  -33.3186  -21.5697   18.2470 H   0  0  0  0  0  0
  -32.5753  -22.6122   19.4580 H   0  0  0  0  0  0
  -30.3915  -22.4753   18.1975 H   0  0  0  0  0  0
  -31.1002  -21.3814   17.0584 H   0  0  0  0  0  0
  -29.5474  -17.1668   22.2638 H   0  0  0  0  0  0
  -31.2235  -16.8235   21.9962 H   0  0  0  0  0  0
  -29.1838  -25.3951   21.4426 H   0  0  0  0  0  0
  -27.4575  -25.2771   21.3795 H   0  0  0  0  0  0
  -28.9245  -15.3216   21.1452 H   0  0  0  0  0  0
  1 25  1  0  0  0
  1 30  2  0  0  0
  1 88  1  0  0  0
  2  3  1  0  0  0
  2 25  1  0  0  0
  2 90  1  0  0  0
  2 91  1  0  0  0
  3  4  1  0  0  0
  3 92  1  0  0  0
  3 93  1  0  0  0
  4  5  1  0  0  0
  4 94  1  0  0  0
  4 95  1  0  0  0
  5  6  1  0  0  0
  5 26  1  0  0  0
  5 96  1  0  0  0
  6 25  1  0  0  0
  6 97  1  0  0  0
  6 98  1  0  0  0
  7  8  2  0  0  0
  7 26  1  0  0  0
  7 29  1  0  0  0
  8  9  1  0  0  0
  8 22  1  0  0  0
  9 10  1  0  0  0
  9 27  2  0  0  0
 10 11  2  0  0  0
 10 15  1  0  0  0
 11 12  1  0  0  0
 11 99  1  0  0  0
 12 13  2  0  0  0
 12100  1  0  0  0
 13 14  1  0  0  0
 13 31  1  0  0  0
 14 15  2  0  0  0
 14101  1  0  0  0
 15102  1  0  0  0
 16 17  2  0  0  0
 16 21  1  0  0  0
 16 31  1  0  0  0
 17 18  1  0  0  0
 17103  1  0  0  0
 18 19  2  0  0  0
 18104  1  0  0  0
 19 20  1  0  0  0
 19 24  1  0  0  0
 20 21  2  0  0  0
 20105  1  0  0  0
 21 23  1  0  0  0
 22 28  1  0  0  0
 22 32  2  0  0  0
 26 27  1  0  0  0
 28106  1  0  0  0
 28107  1  0  0  0
 29108  1  0  0  0
 29109  1  0  0  0
 33 34  1  0  0  0
 33 66  1  0  0  0
 33 70  2  0  0  0
 34 36  1  0  0  0
 34 59  1  0  0  0
 34110  1  0  0  0
 35 44  2  0  0  0
 35 45  1  0  0  0
 35 68  1  0  0  0
 36 56  1  0  0  0
 36111  1  0  0  0
 37 39  1  0  0  0
 37 47  1  0  0  0
 37 66  1  0  0  0
 37112  1  0  0  0
 38 43  2  0  0  0
 38 46  1  0  0  0
 38 47  1  0  0  0
 39 64  1  0  0  0
 39 67  2  0  0  0
 40 52  1  0  0  0
 40 53  2  0  0  0
 40 58  1  0  0  0
 41113  1  0  0  0
 41114  1  0  0  0
 41115  1  0  0  0
 41 48  1  0  0  0
 42 43  1  0  0  0
 42 66  1  0  0  0
 42116  1  0  0  0
 42117  1  0  0  0
 43 44  1  0  0  0
 44118  1  0  0  0
 45 46  2  0  0  0
 45119  1  0  0  0
 46120  1  0  0  0
 47121  1  0  0  0
 47122  1  0  0  0
 48 56  1  0  0  0
 48 65  1  0  0  0
 48123  1  0  0  0
 49 50  1  0  0  0
 49 53  1  0  0  0
 49 64  1  0  0  0
 49124  1  0  0  0
 50 51  1  0  0  0
 50125  1  0  0  0
 50126  1  0  0  0
 51 52  1  0  0  0
 51127  1  0  0  0
 51128  1  0  0  0
 52129  1  0  0  0
 52130  1  0  0  0
 53 54  1  0  0  0
 54 55  2  0  0  0
 54131  1  0  0  0
 55 57  1  0  0  0
 55132  1  0  0  0
 56 69  2  0  0  0
 57 58  2  0  0  0
 57133  1  0  0  0
 58134  1  0  0  0
 59 60  1  0  0  0
 59 61  1  0  0  0
 59 62  1  0  0  0
 60135  1  0  0  0
 60136  1  0  0  0
 60137  1  0  0  0
 61138  1  0  0  0
 61139  1  0  0  0
 61140  1  0  0  0
 62141  1  0  0  0
 62142  1  0  0  0
 62143  1  0  0  0
 63 65  1  0  0  0
 63144  1  0  0  0
 63145  1  0  0  0
 63146  1  0  0  0
 64147  1  0  0  0
 65148  1  0  0  0
 68 86  1  0  0  0
 71 72  2  0  0  0
 71 74  1  0  0  0
 71149  1  0  0  0
 72 75  1  0  0  0
 72150  1  0  0  0
 73 74  2  0  0  0
 73 76  1  0  0  0
 73151  1  0  0  0
 74 85  1  0  0  0
 75 76  2  0  0  0
 75 84  1  0  0  0
 76 87  1  0  0  0
 77 78  2  0  0  0
 77 79  1  0  0  0
 77 86  1  0  0  0
 78 82  1  0  0  0
 78 87  1  0  0  0
 79 80  1  0  0  0
 79 89  2  0  0  0
 80 81  1  0  0  0
 80152  1  0  0  0
 80153  1  0  0  0
 81 87  1  0  0  0
 81154  1  0  0  0
 81155  1  0  0  0
 82156  1  0  0  0
 82157  1  0  0  0
 82158  1  0  0  0
 83 84  1  0  0  0
 83159  1  0  0  0
 83160  1  0  0  0
 83161  1  0  0  0
 84162  1  0  0  0
 84163  1  0  0  0
 85 88  1  0  0  0
 85164  1  0  0  0
 85165  1  0  0  0
 86166  1  0  0  0
 86167  1  0  0  0
 88168  1  0  0  0
M  ISO  4   1 100  68 101  86 101  88 100
M  END
> <chiral flag>
0

> <version>
0

> <s_m_source_file>
/data/baiqing/PycharmProjects/Reinvent-master-3.2/result/LINK_invent/BTK/process_docking_weight1_custom_product_contain_oxygen_bond_distance_aromatic_linkinvent_7_9_3/rearranged_h_0108.sdf

> <i_m_source_file_index>
48

> <r_mmod_Potential_Energy-OPLS-2005>
2.13788604736328

> <r_mmod_Stretch_Energy-OPLS-2005>
56.960750579834

> <r_mmod_Bend_Energy-OPLS-2005>
123.259788513184

> <r_mmod_Torsional_Energy-OPLS-2005>
259.245330810547

> <r_mmod_Improper_Torsional_Energy-OPLS-2005>
5.7627329826355

> <r_mmod_Van_der_Waal_Energy-OPLS-2005>
155.202301025391

> <r_mmod_Electrostatic_Energy-OPLS-2005>
-405.23095703125

> <r_mmod_Solvation_Energy-OPLS-2005>
-218.93310546875

> <b_mmod_Minimization_Converged-OPLS-2005>
0

> <r_mmod_RMS_Derivative-OPLS-2005>
2.24362373352051

$$$$
49
                    3D
 Structure written by MMmdl.
169178  0  0  1  0            999 V2000
  -30.6683  -14.5610   20.5271 C   0  0  0  0  0  0
  -30.4271  -12.3537   19.4326 C   0  0  0  0  0  0
  -29.4967  -12.5000   18.2101 C   0  0  0  0  0  0
  -28.0191  -12.3505   18.6247 C   0  0  0  0  0  0
  -27.6523  -13.2132   19.8615 C   0  0  2  0  0  0
  -28.6980  -13.0528   20.9875 C   0  0  0  0  0  0
  -25.2551  -13.8170   20.5679 C   0  0  0  0  0  0
  -24.1820  -13.0431   20.9194 C   0  0  0  0  0  0
  -24.6387  -11.6905   20.8746 C   0  0  0  0  0  0
  -23.9057  -10.4287   21.0407 C   0  0  0  0  0  0
  -24.3612   -9.4208   21.9186 C   0  0  0  0  0  0
  -23.6291   -8.2240   22.0753 C   0  0  0  0  0  0
  -22.4273   -8.0278   21.3544 C   0  0  0  0  0  0
  -21.9908   -9.0252   20.4644 C   0  0  0  0  0  0
  -22.7230  -10.2132   20.3057 C   0  0  0  0  0  0
  -21.6857   -6.0735   22.5279 C   0  0  0  0  0  0
  -21.4010   -6.5636   23.8211 C   0  0  0  0  0  0
  -21.3661   -5.6791   24.9175 C   0  0  0  0  0  0
  -21.6047   -4.3055   24.7227 C   0  0  0  0  0  0
  -21.8820   -3.8144   23.4347 C   0  0  0  0  0  0
  -21.9190   -4.6960   22.3402 C   0  0  0  0  0  0
  -22.7851  -13.5230   21.1861 C   0  0  0  0  0  0
  -22.1662   -4.2144   21.0983 F   0  0  0  0  0  0
  -21.5631   -3.4540   25.7741 F   0  0  0  0  0  0
  -30.0155  -13.3679   20.4171 N   0  0  0  0  0  0
  -26.2982  -12.9347   20.3321 N   0  0  0  0  0  0
  -25.9314  -11.6502   20.5758 N   0  0  0  0  0  0
  -22.0492  -12.8213   22.0412 N   0  0  0  0  0  0
  -25.4240  -15.1892   20.4076 N   0  0  0  0  0  0
  -31.8414  -14.6986   20.1686 O   0  0  0  0  0  0
  -21.6639   -6.8875   21.4239 O   0  0  0  0  0  0
  -22.3535  -14.5537   20.6715 O   0  0  0  0  0  0
  -24.6207  -31.8623   23.2049 C   0  0  0  0  0  0
  -25.9068  -32.4795   23.8360 C   0  0  1  0  0  0
  -27.2329  -27.3737   20.1193 C   0  0  0  0  0  0
  -25.5886  -33.8592   24.2279 N   0  0  0  0  0  0
  -23.4131  -30.4833   21.5466 C   0  0  2  0  0  0
  -24.8613  -28.9340   20.1222 C   0  0  0  0  0  0
  -22.7451  -29.4620   22.4969 C   0  0  0  0  0  0
  -18.0275  -28.1378   22.8492 C   0  0  0  0  0  0
  -24.1495  -36.7316   23.2641 C   0  0  0  0  0  0
  -25.9473  -30.8071   21.3701 C   0  0  0  0  0  0
  -26.0235  -29.4321   20.7274 C   0  0  0  0  0  0
  -27.2152  -28.6584   20.7255 C   0  0  0  0  0  0
  -26.0556  -26.9016   19.5081 C   0  0  0  0  0  0
  -24.8727  -27.6675   19.5123 C   0  0  0  0  0  0
  -23.6287  -29.8132   20.1632 C   0  0  0  0  0  0
  -25.4113  -36.3098   24.0331 C   0  0  1  0  0  0
  -20.5875  -28.3672   23.1311 C   0  0  2  0  0  0
  -20.6774  -26.9403   22.5419 C   0  0  0  0  0  0
  -19.5752  -26.6389   21.5216 C   0  0  0  0  0  0
  -18.1929  -26.7920   22.1627 C   0  0  0  0  0  0
  -19.1529  -28.8841   23.2897 C   0  0  0  0  0  0
  -18.9460  -30.1446   23.8913 C   0  0  0  0  0  0
  -17.6462  -30.6585   24.0571 C   0  0  0  0  0  0
  -25.9039  -34.9462   23.5113 C   0  0  0  0  0  0
  -16.5347  -29.9090   23.6329 C   0  0  0  0  0  0
  -16.7266  -28.6508   23.0343 C   0  0  0  0  0  0
  -26.4469  -31.6584   25.0707 C   0  0  0  0  0  0
  -25.3725  -31.3679   26.1451 C   0  0  0  0  0  0
  -27.0304  -30.3025   24.6096 C   0  0  0  0  0  0
  -27.6041  -32.4307   25.7465 C   0  0  0  0  0  0
  -27.5589  -37.1805   24.8463 C   0  0  0  0  0  0
  -21.4172  -29.3029   22.3714 N   0  0  0  0  0  0
  -26.4301  -37.3782   23.9404 N   0  0  0  0  0  0
  -24.6788  -31.0678   22.0982 N   0  0  0  0  0  0
  -23.4196  -28.8178   23.3043 O   0  0  0  0  0  0
  -28.3761  -26.5978   20.0175 O   0  0  0  0  0  0
  -26.5636  -34.8930   22.4697 O   0  0  0  0  0  0
  -23.5385  -32.1408   23.7405 O   0  0  0  0  0  0
  -31.1032  -19.7040   21.4650 C   0  0  0  0  0  0
  -31.3666  -17.3055   21.8821 C   0  0  0  0  0  0
  -29.6122  -18.0998   20.3908 C   0  0  0  0  0  0
  -31.7659  -18.6389   22.1164 C   0  0  0  0  0  0
  -30.0306  -19.4566   20.5799 C   0  0  0  0  0  0
  -30.2931  -17.0094   21.0149 C   0  0  0  0  0  0
  -28.3140  -24.1939   20.9516 C   0  0  0  0  0  0
  -29.0517  -23.2242   20.3147 C   0  0  0  0  0  0
  -27.1211  -23.7777   21.7420 C   0  0  0  0  0  0
  -26.7409  -22.2943   21.8061 C   0  0  0  0  0  0
  -27.9245  -21.3471   21.5416 C   0  0  0  0  0  0
  -30.3287  -23.4835   19.5220 C   0  0  0  0  0  0
  -32.7207  -18.4260   24.4683 C   0  0  0  0  0  0
  -32.9478  -18.9166   23.0325 C   0  0  0  0  0  0
  -29.4804  -20.6240   19.7060 C   0  0  0  0  0  0
  -28.7033  -25.7001   21.1071 C   0  0  0  0  0  0
  -29.8875  -15.6383   20.8153 N   0  0  0  0  0  0
  -28.6330  -21.7325   20.3032 N   0  3  2  0  0  0
  -26.3963  -24.5745   22.3435 O   0  0  0  0  0  0
  -31.4691  -12.4670   19.1291 H   0  0  0  0  0  0
  -30.3464  -11.3552   19.8643 H   0  0  0  0  0  0
  -29.7478  -11.7562   17.4527 H   0  0  0  0  0  0
  -29.6501  -13.4750   17.7438 H   0  0  0  0  0  0
  -27.8429  -11.2967   18.8431 H   0  0  0  0  0  0
  -27.3663  -12.6000   17.7871 H   0  0  0  0  0  0
  -27.6738  -14.2506   19.5284 H   0  0  0  0  0  0
  -28.6961  -12.0330   21.3748 H   0  0  0  0  0  0
  -28.4602  -13.6957   21.8372 H   0  0  0  0  0  0
  -25.2759   -9.5685   22.4760 H   0  0  0  0  0  0
  -24.0002   -7.4632   22.7471 H   0  0  0  0  0  0
  -21.0840   -8.8771   19.8951 H   0  0  0  0  0  0
  -22.3692  -10.9673   19.6166 H   0  0  0  0  0  0
  -21.2005   -7.6145   23.9712 H   0  0  0  0  0  0
  -21.1483   -6.0524   25.9078 H   0  0  0  0  0  0
  -22.0598   -2.7605   23.2853 H   0  0  0  0  0  0
  -22.4113  -11.9870   22.4793 H   0  0  0  0  0  0
  -21.1107  -13.1228   22.2622 H   0  0  0  0  0  0
  -24.6498  -15.8366   20.5079 H   0  0  0  0  0  0
  -26.2640  -15.6311   20.0572 H   0  0  0  0  0  0
  -26.7143  -32.5497   23.1118 H   0  0  0  0  0  0
  -24.9975  -33.9718   25.0386 H   0  0  0  0  0  0
  -22.7051  -31.3022   21.4022 H   0  0  0  0  0  0
  -23.3746  -35.9662   23.3301 H   0  0  0  0  0  0
  -24.3601  -36.8944   22.2061 H   0  0  0  0  0  0
  -23.7264  -37.6520   23.6674 H   0  0  0  0  0  0
  -26.0672  -31.5656   20.5954 H   0  0  0  0  0  0
  -26.8312  -30.8638   21.9931 H   0  0  0  0  0  0
  -28.1182  -29.0419   21.1800 H   0  0  0  0  0  0
  -26.0546  -25.9348   19.0240 H   0  0  0  0  0  0
  -23.9797  -27.2792   19.0408 H   0  0  0  0  0  0
  -23.7533  -30.5879   19.4058 H   0  0  0  0  0  0
  -22.7492  -29.2422   19.8601 H   0  0  0  0  0  0
  -25.1294  -36.1961   25.0825 H   0  0  0  0  0  0
  -20.9953  -28.3249   24.1437 H   0  0  0  0  0  0
  -20.5689  -26.2276   23.3612 H   0  0  0  0  0  0
  -21.6648  -26.7454   22.1210 H   0  0  0  0  0  0
  -19.6922  -25.6307   21.1239 H   0  0  0  0  0  0
  -19.6690  -27.3210   20.6763 H   0  0  0  0  0  0
  -17.4195  -26.6670   21.4028 H   0  0  0  0  0  0
  -18.0324  -26.0054   22.9021 H   0  0  0  0  0  0
  -19.7936  -30.7252   24.2295 H   0  0  0  0  0  0
  -17.5018  -31.6269   24.5173 H   0  0  0  0  0  0
  -15.5349  -30.2998   23.7644 H   0  0  0  0  0  0
  -15.8668  -28.0843   22.7031 H   0  0  0  0  0  0
  -24.5914  -30.7008   25.7785 H   0  0  0  0  0  0
  -24.8895  -32.2821   26.4910 H   0  0  0  0  0  0
  -25.8081  -30.8850   27.0206 H   0  0  0  0  0  0
  -26.2847  -29.6767   24.1178 H   0  0  0  0  0  0
  -27.4095  -29.7282   25.4555 H   0  0  0  0  0  0
  -27.8674  -30.4326   23.9233 H   0  0  0  0  0  0
  -27.2663  -33.3613   26.2028 H   0  0  0  0  0  0
  -28.3845  -32.6839   25.0279 H   0  0  0  0  0  0
  -28.0700  -31.8431   26.5382 H   0  0  0  0  0  0
  -28.2588  -38.0119   24.7525 H   0  0  0  0  0  0
  -28.1097  -36.2647   24.6265 H   0  0  0  0  0  0
  -27.2310  -37.1431   25.8866 H   0  0  0  0  0  0
  -20.9359  -29.8744   21.6912 H   0  0  0  0  0  0
  -26.0191  -38.2862   24.1398 H   0  0  0  0  0  0
  -31.4516  -20.7187   21.6080 H   0  0  0  0  0  0
  -31.8963  -16.5006   22.3733 H   0  0  0  0  0  0
  -28.8042  -17.8855   19.7065 H   0  0  0  0  0  0
  -25.9534  -22.1239   21.0724 H   0  0  0  0  0  0
  -26.3094  -22.0753   22.7827 H   0  0  0  0  0  0
  -27.5466  -20.3273   21.4585 H   0  0  0  0  0  0
  -28.6211  -21.3585   22.3812 H   0  0  0  0  0  0
  -30.5848  -24.5418   19.5103 H   0  0  0  0  0  0
  -30.2102  -23.1888   18.4784 H   0  0  0  0  0  0
  -31.1777  -22.9537   19.9552 H   0  0  0  0  0  0
  -33.5827  -18.6585   25.0948 H   0  0  0  0  0  0
  -32.5725  -17.3468   24.5075 H   0  0  0  0  0  0
  -31.8471  -18.9012   24.9148 H   0  0  0  0  0  0
  -33.1655  -19.9852   23.0451 H   0  0  0  0  0  0
  -33.8309  -18.4336   22.6117 H   0  0  0  0  0  0
  -28.8351  -20.1626   18.9582 H   0  0  0  0  0  0
  -30.3114  -21.0014   19.1163 H   0  0  0  0  0  0
  -29.7852  -25.7454   21.2294 H   0  0  0  0  0  0
  -28.3268  -26.1094   22.0463 H   0  0  0  0  0  0
  -28.8982  -15.4519   20.8637 H   0  0  0  0  0  0
  -27.8906  -21.6970   19.6192 H   0  0  0  0  0  0
  1 25  1  0  0  0
  1 30  2  0  0  0
  1 87  1  0  0  0
  2  3  1  0  0  0
  2 25  1  0  0  0
  2 90  1  0  0  0
  2 91  1  0  0  0
  3  4  1  0  0  0
  3 92  1  0  0  0
  3 93  1  0  0  0
  4  5  1  0  0  0
  4 94  1  0  0  0
  4 95  1  0  0  0
  5  6  1  0  0  0
  5 26  1  0  0  0
  5 96  1  0  0  0
  6 25  1  0  0  0
  6 97  1  0  0  0
  6 98  1  0  0  0
  7  8  2  0  0  0
  7 26  1  0  0  0
  7 29  1  0  0  0
  8  9  1  0  0  0
  8 22  1  0  0  0
  9 10  1  0  0  0
  9 27  2  0  0  0
 10 11  2  0  0  0
 10 15  1  0  0  0
 11 12  1  0  0  0
 11 99  1  0  0  0
 12 13  2  0  0  0
 12100  1  0  0  0
 13 14  1  0  0  0
 13 31  1  0  0  0
 14 15  2  0  0  0
 14101  1  0  0  0
 15102  1  0  0  0
 16 17  2  0  0  0
 16 21  1  0  0  0
 16 31  1  0  0  0
 17 18  1  0  0  0
 17103  1  0  0  0
 18 19  2  0  0  0
 18104  1  0  0  0
 19 20  1  0  0  0
 19 24  1  0  0  0
 20 21  2  0  0  0
 20105  1  0  0  0
 21 23  1  0  0  0
 22 28  1  0  0  0
 22 32  2  0  0  0
 26 27  1  0  0  0
 28106  1  0  0  0
 28107  1  0  0  0
 29108  1  0  0  0
 29109  1  0  0  0
 33 34  1  0  0  0
 33 66  1  0  0  0
 33 70  2  0  0  0
 34 36  1  0  0  0
 34 59  1  0  0  0
 34110  1  0  0  0
 35 44  2  0  0  0
 35 45  1  0  0  0
 35 68  1  0  0  0
 36 56  1  0  0  0
 36111  1  0  0  0
 37 39  1  0  0  0
 37 47  1  0  0  0
 37 66  1  0  0  0
 37112  1  0  0  0
 38 43  2  0  0  0
 38 46  1  0  0  0
 38 47  1  0  0  0
 39 64  1  0  0  0
 39 67  2  0  0  0
 40 52  1  0  0  0
 40 53  2  0  0  0
 40 58  1  0  0  0
 41113  1  0  0  0
 41114  1  0  0  0
 41115  1  0  0  0
 41 48  1  0  0  0
 42 43  1  0  0  0
 42 66  1  0  0  0
 42116  1  0  0  0
 42117  1  0  0  0
 43 44  1  0  0  0
 44118  1  0  0  0
 45 46  2  0  0  0
 45119  1  0  0  0
 46120  1  0  0  0
 47121  1  0  0  0
 47122  1  0  0  0
 48 56  1  0  0  0
 48 65  1  0  0  0
 48123  1  0  0  0
 49 50  1  0  0  0
 49 53  1  0  0  0
 49 64  1  0  0  0
 49124  1  0  0  0
 50 51  1  0  0  0
 50125  1  0  0  0
 50126  1  0  0  0
 51 52  1  0  0  0
 51127  1  0  0  0
 51128  1  0  0  0
 52129  1  0  0  0
 52130  1  0  0  0
 53 54  1  0  0  0
 54 55  2  0  0  0
 54131  1  0  0  0
 55 57  1  0  0  0
 55132  1  0  0  0
 56 69  2  0  0  0
 57 58  2  0  0  0
 57133  1  0  0  0
 58134  1  0  0  0
 59 60  1  0  0  0
 59 61  1  0  0  0
 59 62  1  0  0  0
 60135  1  0  0  0
 60136  1  0  0  0
 60137  1  0  0  0
 61138  1  0  0  0
 61139  1  0  0  0
 61140  1  0  0  0
 62141  1  0  0  0
 62142  1  0  0  0
 62143  1  0  0  0
 63 65  1  0  0  0
 63144  1  0  0  0
 63145  1  0  0  0
 63146  1  0  0  0
 64147  1  0  0  0
 65148  1  0  0  0
 68 86  1  0  0  0
 71 74  2  0  0  0
 71 75  1  0  0  0
 71149  1  0  0  0
 72 74  1  0  0  0
 72 76  2  0  0  0
 72150  1  0  0  0
 73 75  2  0  0  0
 73 76  1  0  0  0
 73151  1  0  0  0
 74 84  1  0  0  0
 75 85  1  0  0  0
 76 87  1  0  0  0
 77 78  2  0  0  0
 77 79  1  0  0  0
 77 86  1  0  0  0
 78 82  1  0  0  0
 78 88  1  0  0  0
 79 80  1  0  0  0
 79 89  2  0  0  0
 80 81  1  0  0  0
 80152  1  0  0  0
 80153  1  0  0  0
 81 88  1  0  0  0
 81154  1  0  0  0
 81155  1  0  0  0
 82156  1  0  0  0
 82157  1  0  0  0
 82158  1  0  0  0
 83 84  1  0  0  0
 83159  1  0  0  0
 83160  1  0  0  0
 83161  1  0  0  0
 84162  1  0  0  0
 84163  1  0  0  0
 85164  1  0  0  0
 85165  1  0  0  0
 85 88  1  0  0  0
 86166  1  0  0  0
 86167  1  0  0  0
 87168  1  0  0  0
 88169  1  0  0  0
M  CHG  1  88   1
M  ISO  4   1 100  68 101  86 101  87 100
M  END
> <chiral flag>
0

> <version>
0

> <s_m_source_file>
/data/baiqing/PycharmProjects/Reinvent-master-3.2/result/LINK_invent/BTK/process_docking_weight1_custom_product_contain_oxygen_bond_distance_aromatic_linkinvent_7_9_3/rearranged_h_0108.sdf

> <i_m_source_file_index>
49

> <r_mmod_Potential_Energy-OPLS-2005>
-137.842849731445

> <r_mmod_Stretch_Energy-OPLS-2005>
64.2598342895508

> <r_mmod_Bend_Energy-OPLS-2005>
139.167678833008

> <r_mmod_Torsional_Energy-OPLS-2005>
243.880920410156

> <r_mmod_Improper_Torsional_Energy-OPLS-2005>
6.90340328216553

> <r_mmod_Van_der_Waal_Energy-OPLS-2005>
150.28108215332

> <r_mmod_Electrostatic_Energy-OPLS-2005>
-281.092041015625

> <r_mmod_Solvation_Energy-OPLS-2005>
-487.871185302734

> <b_mmod_Minimization_Converged-OPLS-2005>
0

> <r_mmod_RMS_Derivative-OPLS-2005>
1.6317013502121

$$$$
50
                    3D
 Structure written by MMmdl.
164173  0  0  1  0            999 V2000
  -30.7599  -14.4254   20.5850 C   0  0  0  0  0  0
  -30.4148  -12.2920   19.4029 C   0  0  0  0  0  0
  -29.4812  -12.4924   18.1938 C   0  0  0  0  0  0
  -28.0074  -12.3328   18.6155 C   0  0  0  0  0  0
  -27.6502  -13.1807   19.8631 C   0  0  2  0  0  0
  -28.7040  -12.9974   20.9824 C   0  0  0  0  0  0
  -25.2560  -13.8039   20.5710 C   0  0  0  0  0  0
  -24.1800  -13.0365   20.9211 C   0  0  0  0  0  0
  -24.6336  -11.6837   20.8765 C   0  0  0  0  0  0
  -23.9007  -10.4250   21.0422 C   0  0  0  0  0  0
  -24.3580   -9.4177   21.9194 C   0  0  0  0  0  0
  -23.6268   -8.2210   22.0751 C   0  0  0  0  0  0
  -22.4252   -8.0249   21.3541 C   0  0  0  0  0  0
  -21.9877   -9.0217   20.4649 C   0  0  0  0  0  0
  -22.7187  -10.2101   20.3059 C   0  0  0  0  0  0
  -21.6836   -6.0719   22.5282 C   0  0  0  0  0  0
  -21.3999   -6.5627   23.8216 C   0  0  0  0  0  0
  -21.3657   -5.6783   24.9181 C   0  0  0  0  0  0
  -21.6045   -4.3043   24.7229 C   0  0  0  0  0  0
  -21.8823   -3.8131   23.4349 C   0  0  0  0  0  0
  -21.9186   -4.6948   22.3405 C   0  0  0  0  0  0
  -22.7838  -13.5208   21.1852 C   0  0  0  0  0  0
  -22.1662   -4.2141   21.0981 F   0  0  0  0  0  0
  -21.5635   -3.4523   25.7742 F   0  0  0  0  0  0
  -30.0386  -13.2818   20.4216 N   0  0  0  0  0  0
  -26.2964  -12.9164   20.3361 N   0  0  0  0  0  0
  -25.9248  -11.6363   20.5787 N   0  0  0  0  0  0
  -22.0451  -12.8245   22.0420 N   0  0  0  0  0  0
  -25.4254  -15.1743   20.4132 N   0  0  0  0  0  0
  -31.8968  -14.5760   20.1275 O   0  0  0  0  0  0
  -21.6614   -6.8856   21.4244 O   0  0  0  0  0  0
  -22.3560  -14.5520   20.6674 O   0  0  0  0  0  0
  -24.6097  -31.8718   23.2140 C   0  0  0  0  0  0
  -25.9016  -32.4839   23.8408 C   0  0  1  0  0  0
  -27.2399  -27.4853   20.0645 C   0  0  0  0  0  0
  -25.5890  -33.8638   24.2341 N   0  0  0  0  0  0
  -23.3946  -30.4956   21.5540 C   0  0  2  0  0  0
  -24.8393  -28.9621   20.1206 C   0  0  0  0  0  0
  -22.7376  -29.4675   22.5017 C   0  0  0  0  0  0
  -18.0264  -28.1379   22.8495 C   0  0  0  0  0  0
  -24.1486  -36.7324   23.2637 C   0  0  0  0  0  0
  -25.9189  -30.8447   21.3639 C   0  0  0  0  0  0
  -25.9948  -29.4792   20.7191 C   0  0  0  0  0  0
  -27.1946  -28.7384   20.7059 C   0  0  0  0  0  0
  -26.0640  -26.9606   19.4838 C   0  0  0  0  0  0
  -24.8634  -27.6950   19.5116 C   0  0  0  0  0  0
  -23.6006  -29.8268   20.1686 C   0  0  0  0  0  0
  -25.4105  -36.3120   24.0338 C   0  0  1  0  0  0
  -20.5850  -28.3655   23.1340 C   0  0  2  0  0  0
  -20.6753  -26.9399   22.5423 C   0  0  0  0  0  0
  -19.5734  -26.6389   21.5214 C   0  0  0  0  0  0
  -18.1914  -26.7926   22.1627 C   0  0  0  0  0  0
  -19.1513  -28.8831   23.2915 C   0  0  0  0  0  0
  -18.9444  -30.1441   23.8923 C   0  0  0  0  0  0
  -17.6450  -30.6588   24.0570 C   0  0  0  0  0  0
  -25.9030  -34.9483   23.5134 C   0  0  0  0  0  0
  -16.5338  -29.9097   23.6324 C   0  0  0  0  0  0
  -16.7257  -28.6512   23.0345 C   0  0  0  0  0  0
  -26.4461  -31.6605   25.0720 C   0  0  0  0  0  0
  -25.3745  -31.3708   26.1482 C   0  0  0  0  0  0
  -27.0277  -30.3051   24.6067 C   0  0  0  0  0  0
  -27.6046  -32.4315   25.7479 C   0  0  0  0  0  0
  -27.5580  -37.1814   24.8464 C   0  0  0  0  0  0
  -21.4111  -29.3033   22.3753 N   0  0  0  0  0  0
  -26.4296  -37.3801   23.9407 N   0  0  0  0  0  0
  -24.6590  -31.0844   22.1030 N   0  0  0  0  0  0
  -23.4165  -28.8223   23.3049 O   0  0  0  0  0  0
  -28.4338  -26.8124   20.0020 O   0  0  0  0  0  0
  -26.5588  -34.8933   22.4694 O   0  0  0  0  0  0
  -23.5303  -32.1458   23.7560 O   0  0  0  0  0  0
  -30.8774  -19.6421   20.6444 C   0  0  0  0  0  0
  -28.8887  -19.8254   19.2496 C   0  0  0  0  0  0
  -30.6036  -18.2737   20.8482 C   0  0  0  0  0  0
  -29.4593  -17.6814   20.2618 C   0  0  0  0  0  0
  -28.6100  -18.4627   19.4400 C   0  0  0  0  0  0
  -29.9988  -20.4297   19.8754 C   0  0  0  0  0  0
  -29.3335  -22.7845   19.7300 C   0  0  0  0  0  0
  -31.5403  -17.4399   21.7049 C   0  0  0  0  0  0
  -29.1415  -16.2104   20.5006 C   0  0  0  0  0  0
  -30.8445  -16.1946   22.2794 C   0  0  0  0  0  0
  -27.3947  -17.8883   18.7297 C   0  0  0  0  0  0
  -29.8053  -24.1955   19.3901 C   0  0  0  0  0  0
  -28.8031  -24.9493   18.4912 C   0  0  0  0  0  0
  -28.8681  -26.4654   18.6867 C   0  0  0  0  0  0
  -30.1470  -15.4337   21.2378 N   0  0  0  0  0  0
  -30.2575  -21.8120   19.7120 N   0  0  0  0  0  0
  -28.1532  -22.5935   20.0372 O   0  0  0  0  0  0
  -31.4573  -12.3814   19.0925 H   0  0  0  0  0  0
  -30.3119  -11.2834   19.8059 H   0  0  0  0  0  0
  -29.7231  -11.7728   17.4103 H   0  0  0  0  0  0
  -29.6398  -13.4813   17.7602 H   0  0  0  0  0  0
  -27.8369  -11.2765   18.8262 H   0  0  0  0  0  0
  -27.3467  -12.5850   17.7857 H   0  0  0  0  0  0
  -27.6550  -14.2092   19.5250 H   0  0  0  0  0  0
  -28.6824  -11.9734   21.3569 H   0  0  0  0  0  0
  -28.4671  -13.6261   21.8418 H   0  0  0  0  0  0
  -25.2722   -9.5652   22.4776 H   0  0  0  0  0  0
  -23.9974   -7.4590   22.7454 H   0  0  0  0  0  0
  -21.0809   -8.8716   19.8954 H   0  0  0  0  0  0
  -22.3638  -10.9637   19.6169 H   0  0  0  0  0  0
  -21.1984   -7.6138   23.9719 H   0  0  0  0  0  0
  -21.1482   -6.0513   25.9090 H   0  0  0  0  0  0
  -22.0609   -2.7592   23.2842 H   0  0  0  0  0  0
  -22.4018  -11.9904   22.4854 H   0  0  0  0  0  0
  -21.1069  -13.1296   22.2586 H   0  0  0  0  0  0
  -24.6565  -15.8263   20.5227 H   0  0  0  0  0  0
  -26.2764  -15.6115   20.0918 H   0  0  0  0  0  0
  -26.7084  -32.5564   23.1176 H   0  0  0  0  0  0
  -25.0041  -33.9803   25.0485 H   0  0  0  0  0  0
  -22.6821  -31.3113   21.4171 H   0  0  0  0  0  0
  -23.3737  -35.9668   23.3318 H   0  0  0  0  0  0
  -24.3582  -36.8917   22.2047 H   0  0  0  0  0  0
  -23.7249  -37.6543   23.6634 H   0  0  0  0  0  0
  -26.0238  -31.6086   20.5919 H   0  0  0  0  0  0
  -26.8102  -30.9015   21.9763 H   0  0  0  0  0  0
  -28.0917  -29.1392   21.1566 H   0  0  0  0  0  0
  -26.0692  -25.9948   19.0010 H   0  0  0  0  0  0
  -23.9720  -27.2880   19.0540 H   0  0  0  0  0  0
  -23.7069  -30.6007   19.4076 H   0  0  0  0  0  0
  -22.7246  -29.2452   19.8749 H   0  0  0  0  0  0
  -25.1282  -36.1989   25.0830 H   0  0  0  0  0  0
  -20.9941  -28.3212   24.1461 H   0  0  0  0  0  0
  -20.5657  -26.2261   23.3602 H   0  0  0  0  0  0
  -21.6627  -26.7452   22.1216 H   0  0  0  0  0  0
  -19.6898  -25.6305   21.1231 H   0  0  0  0  0  0
  -19.6681  -27.3211   20.6754 H   0  0  0  0  0  0
  -17.4186  -26.6676   21.4029 H   0  0  0  0  0  0
  -18.0320  -26.0065   22.9021 H   0  0  0  0  0  0
  -19.7922  -30.7246   24.2306 H   0  0  0  0  0  0
  -17.5011  -31.6274   24.5165 H   0  0  0  0  0  0
  -15.5343  -30.3012   23.7635 H   0  0  0  0  0  0
  -15.8653  -28.0847   22.7045 H   0  0  0  0  0  0
  -24.5906  -30.7064   25.7829 H   0  0  0  0  0  0
  -24.8949  -32.2865   26.4950 H   0  0  0  0  0  0
  -25.8112  -30.8865   27.0226 H   0  0  0  0  0  0
  -26.2803  -29.6825   24.1135 H   0  0  0  0  0  0
  -27.4072  -29.7271   25.4505 H   0  0  0  0  0  0
  -27.8629  -30.4372   23.9186 H   0  0  0  0  0  0
  -27.2672  -33.3609   26.2081 H   0  0  0  0  0  0
  -28.3847  -32.6885   25.0299 H   0  0  0  0  0  0
  -28.0721  -31.8420   26.5378 H   0  0  0  0  0  0
  -28.2610  -38.0102   24.7506 H   0  0  0  0  0  0
  -28.1066  -36.2634   24.6295 H   0  0  0  0  0  0
  -27.2299  -37.1473   25.8870 H   0  0  0  0  0  0
  -20.9259  -29.8760   21.6990 H   0  0  0  0  0  0
  -26.0187  -38.2881   24.1408 H   0  0  0  0  0  0
  -31.7480  -20.0905   21.1040 H   0  0  0  0  0  0
  -28.2329  -20.4114   18.6201 H   0  0  0  0  0  0
  -31.9383  -18.0481   22.5187 H   0  0  0  0  0  0
  -32.3941  -17.1486   21.0919 H   0  0  0  0  0  0
  -29.0063  -15.7958   19.5011 H   0  0  0  0  0  0
  -28.1923  -16.1300   21.0307 H   0  0  0  0  0  0
  -30.1057  -16.5010   23.0214 H   0  0  0  0  0  0
  -31.5651  -15.5676   22.8086 H   0  0  0  0  0  0
  -26.5992  -18.6321   18.6701 H   0  0  0  0  0  0
  -26.9785  -17.0230   19.2358 H   0  0  0  0  0  0
  -27.6563  -17.5930   17.7135 H   0  0  0  0  0  0
  -30.7846  -24.1710   18.9103 H   0  0  0  0  0  0
  -29.9388  -24.7180   20.3372 H   0  0  0  0  0  0
  -27.7785  -24.6196   18.6608 H   0  0  0  0  0  0
  -29.0168  -24.7105   17.4484 H   0  0  0  0  0  0
  -28.2831  -26.9676   17.9132 H   0  0  0  0  0  0
  -29.8937  -26.8120   18.5569 H   0  0  0  0  0  0
  -31.2243  -22.0935   19.6183 H   0  0  0  0  0  0
  1 25  1  0  0  0
  1 30  2  0  0  0
  1 85  1  0  0  0
  2  3  1  0  0  0
  2 25  1  0  0  0
  2 88  1  0  0  0
  2 89  1  0  0  0
  3  4  1  0  0  0
  3 90  1  0  0  0
  3 91  1  0  0  0
  4  5  1  0  0  0
  4 92  1  0  0  0
  4 93  1  0  0  0
  5  6  1  0  0  0
  5 26  1  0  0  0
  5 94  1  0  0  0
  6 25  1  0  0  0
  6 95  1  0  0  0
  6 96  1  0  0  0
  7  8  2  0  0  0
  7 26  1  0  0  0
  7 29  1  0  0  0
  8  9  1  0  0  0
  8 22  1  0  0  0
  9 10  1  0  0  0
  9 27  2  0  0  0
 10 11  2  0  0  0
 10 15  1  0  0  0
 11 12  1  0  0  0
 11 97  1  0  0  0
 12 13  2  0  0  0
 12 98  1  0  0  0
 13 14  1  0  0  0
 13 31  1  0  0  0
 14 15  2  0  0  0
 14 99  1  0  0  0
 15100  1  0  0  0
 16 17  2  0  0  0
 16 21  1  0  0  0
 16 31  1  0  0  0
 17 18  1  0  0  0
 17101  1  0  0  0
 18 19  2  0  0  0
 18102  1  0  0  0
 19 20  1  0  0  0
 19 24  1  0  0  0
 20 21  2  0  0  0
 20103  1  0  0  0
 21 23  1  0  0  0
 22 28  1  0  0  0
 22 32  2  0  0  0
 26 27  1  0  0  0
 28104  1  0  0  0
 28105  1  0  0  0
 29106  1  0  0  0
 29107  1  0  0  0
 33 34  1  0  0  0
 33 66  1  0  0  0
 33 70  2  0  0  0
 34 36  1  0  0  0
 34 59  1  0  0  0
 34108  1  0  0  0
 35 44  2  0  0  0
 35 45  1  0  0  0
 35 68  1  0  0  0
 36 56  1  0  0  0
 36109  1  0  0  0
 37 39  1  0  0  0
 37 47  1  0  0  0
 37 66  1  0  0  0
 37110  1  0  0  0
 38 43  2  0  0  0
 38 46  1  0  0  0
 38 47  1  0  0  0
 39 64  1  0  0  0
 39 67  2  0  0  0
 40 52  1  0  0  0
 40 53  2  0  0  0
 40 58  1  0  0  0
 41111  1  0  0  0
 41112  1  0  0  0
 41113  1  0  0  0
 41 48  1  0  0  0
 42 43  1  0  0  0
 42 66  1  0  0  0
 42114  1  0  0  0
 42115  1  0  0  0
 43 44  1  0  0  0
 44116  1  0  0  0
 45 46  2  0  0  0
 45117  1  0  0  0
 46118  1  0  0  0
 47119  1  0  0  0
 47120  1  0  0  0
 48 56  1  0  0  0
 48 65  1  0  0  0
 48121  1  0  0  0
 49 50  1  0  0  0
 49 53  1  0  0  0
 49 64  1  0  0  0
 49122  1  0  0  0
 50 51  1  0  0  0
 50123  1  0  0  0
 50124  1  0  0  0
 51 52  1  0  0  0
 51125  1  0  0  0
 51126  1  0  0  0
 52127  1  0  0  0
 52128  1  0  0  0
 53 54  1  0  0  0
 54 55  2  0  0  0
 54129  1  0  0  0
 55 57  1  0  0  0
 55130  1  0  0  0
 56 69  2  0  0  0
 57 58  2  0  0  0
 57131  1  0  0  0
 58132  1  0  0  0
 59 60  1  0  0  0
 59 61  1  0  0  0
 59 62  1  0  0  0
 60133  1  0  0  0
 60134  1  0  0  0
 60135  1  0  0  0
 61136  1  0  0  0
 61137  1  0  0  0
 61138  1  0  0  0
 62139  1  0  0  0
 62140  1  0  0  0
 62141  1  0  0  0
 63 65  1  0  0  0
 63142  1  0  0  0
 63143  1  0  0  0
 63144  1  0  0  0
 64145  1  0  0  0
 65146  1  0  0  0
 68 84  1  0  0  0
 71 73  2  0  0  0
 71 76  1  0  0  0
 71147  1  0  0  0
 72 75  1  0  0  0
 72 76  2  0  0  0
 72148  1  0  0  0
 73 74  1  0  0  0
 73 78  1  0  0  0
 74 75  2  0  0  0
 74 79  1  0  0  0
 75 81  1  0  0  0
 76 86  1  0  0  0
 77 82  1  0  0  0
 77 86  1  0  0  0
 77 87  2  0  0  0
 78 80  1  0  0  0
 78149  1  0  0  0
 78150  1  0  0  0
 79 85  1  0  0  0
 79151  1  0  0  0
 79152  1  0  0  0
 80 85  1  0  0  0
 80153  1  0  0  0
 80154  1  0  0  0
 81155  1  0  0  0
 81156  1  0  0  0
 81157  1  0  0  0
 82 83  1  0  0  0
 82158  1  0  0  0
 82159  1  0  0  0
 83 84  1  0  0  0
 83160  1  0  0  0
 83161  1  0  0  0
 84162  1  0  0  0
 84163  1  0  0  0
 86164  1  0  0  0
M  ISO  4   1 100  68 101  84 101  85 100
M  END
> <chiral flag>
0

> <version>
0

> <s_m_source_file>
/data/baiqing/PycharmProjects/Reinvent-master-3.2/result/LINK_invent/BTK/process_docking_weight1_custom_product_contain_oxygen_bond_distance_aromatic_linkinvent_7_9_3/rearranged_h_0108.sdf

> <i_m_source_file_index>
50

> <r_mmod_Potential_Energy-OPLS-2005>
33.6711883544922

> <r_mmod_Stretch_Energy-OPLS-2005>
32.7100410461426

> <r_mmod_Bend_Energy-OPLS-2005>
91.8514785766602

> <r_mmod_Torsional_Energy-OPLS-2005>
322.98779296875

> <r_mmod_Improper_Torsional_Energy-OPLS-2005>
4.31738090515137

> <r_mmod_Van_der_Waal_Energy-OPLS-2005>
171.221008300781

> <r_mmod_Electrostatic_Energy-OPLS-2005>
-376.880340576172

> <r_mmod_Solvation_Energy-OPLS-2005>
-225.039901733398

> <b_mmod_Minimization_Converged-OPLS-2005>
0

> <r_mmod_RMS_Derivative-OPLS-2005>
1.26925921440125

$$$$
51
                    3D
 Structure written by MMmdl.
166175  0  0  1  0            999 V2000
  -30.6564  -14.5713   20.5356 C   0  0  0  0  0  0
  -30.4318  -12.3655   19.4229 C   0  0  0  0  0  0
  -29.4988  -12.5175   18.2037 C   0  0  0  0  0  0
  -28.0178  -12.3708   18.6118 C   0  0  0  0  0  0
  -27.6520  -13.2165   19.8618 C   0  0  2  0  0  0
  -28.7000  -13.0456   20.9831 C   0  0  0  0  0  0
  -25.2547  -13.8165   20.5672 C   0  0  0  0  0  0
  -24.1823  -13.0429   20.9189 C   0  0  0  0  0  0
  -24.6391  -11.6901   20.8726 C   0  0  0  0  0  0
  -23.9061  -10.4286   21.0392 C   0  0  0  0  0  0
  -24.3618   -9.4209   21.9175 C   0  0  0  0  0  0
  -23.6299   -8.2242   22.0747 C   0  0  0  0  0  0
  -22.4277   -8.0276   21.3543 C   0  0  0  0  0  0
  -21.9910   -9.0244   20.4642 C   0  0  0  0  0  0
  -22.7230  -10.2127   20.3047 C   0  0  0  0  0  0
  -21.6854   -6.0736   22.5281 C   0  0  0  0  0  0
  -21.4014   -6.5638   23.8215 C   0  0  0  0  0  0
  -21.3663   -5.6790   24.9176 C   0  0  0  0  0  0
  -21.6044   -4.3052   24.7224 C   0  0  0  0  0  0
  -21.8823   -3.8147   23.4346 C   0  0  0  0  0  0
  -21.9195   -4.6965   22.3403 C   0  0  0  0  0  0
  -22.7844  -13.5225   21.1866 C   0  0  0  0  0  0
  -22.1664   -4.2150   21.0980 F   0  0  0  0  0  0
  -21.5633   -3.4539   25.7740 F   0  0  0  0  0  0
  -30.0152  -13.3727   20.4126 N   0  0  0  0  0  0
  -26.2983  -12.9351   20.3310 N   0  0  0  0  0  0
  -25.9318  -11.6504   20.5734 N   0  0  0  0  0  0
  -22.0491  -12.8202   22.0415 N   0  0  0  0  0  0
  -25.4200  -15.1893   20.4057 N   0  0  0  0  0  0
  -31.8354  -14.7247   20.2058 O   0  0  0  0  0  0
  -21.6641   -6.8874   21.4241 O   0  0  0  0  0  0
  -22.3518  -14.5531   20.6714 O   0  0  0  0  0  0
  -24.6190  -31.8637   23.2043 C   0  0  0  0  0  0
  -25.9062  -32.4791   23.8359 C   0  0  1  0  0  0
  -27.2351  -27.3827   20.1149 C   0  0  0  0  0  0
  -25.5895  -33.8593   24.2271 N   0  0  0  0  0  0
  -23.4120  -30.4844   21.5445 C   0  0  2  0  0  0
  -24.8623  -28.9374   20.1212 C   0  0  0  0  0  0
  -22.7446  -29.4636   22.4955 C   0  0  0  0  0  0
  -18.0288  -28.1407   22.8491 C   0  0  0  0  0  0
  -24.1496  -36.7325   23.2640 C   0  0  0  0  0  0
  -25.9446  -30.8113   21.3665 C   0  0  0  0  0  0
  -26.0231  -29.4359   20.7273 C   0  0  0  0  0  0
  -27.2143  -28.6635   20.7264 C   0  0  0  0  0  0
  -26.0611  -26.9102   19.4976 C   0  0  0  0  0  0
  -24.8769  -27.6735   19.5049 C   0  0  0  0  0  0
  -23.6275  -29.8126   20.1617 C   0  0  0  0  0  0
  -25.4116  -36.3093   24.0325 C   0  0  1  0  0  0
  -20.5893  -28.3691   23.1314 C   0  0  2  0  0  0
  -20.6779  -26.9412   22.5430 C   0  0  0  0  0  0
  -19.5752  -26.6402   21.5228 C   0  0  0  0  0  0
  -18.1925  -26.7952   22.1628 C   0  0  0  0  0  0
  -19.1547  -28.8863   23.2898 C   0  0  0  0  0  0
  -18.9458  -30.1462   23.8913 C   0  0  0  0  0  0
  -17.6457  -30.6592   24.0574 C   0  0  0  0  0  0
  -25.9047  -34.9457   23.5098 C   0  0  0  0  0  0
  -16.5349  -29.9094   23.6324 C   0  0  0  0  0  0
  -16.7273  -28.6523   23.0330 C   0  0  0  0  0  0
  -26.4475  -31.6589   25.0709 C   0  0  0  0  0  0
  -25.3720  -31.3712   26.1448 C   0  0  0  0  0  0
  -27.0302  -30.3025   24.6099 C   0  0  0  0  0  0
  -27.6043  -32.4322   25.7471 C   0  0  0  0  0  0
  -27.5579  -37.1800   24.8453 C   0  0  0  0  0  0
  -21.4172  -29.3046   22.3701 N   0  0  0  0  0  0
  -26.4293  -37.3786   23.9404 N   0  0  0  0  0  0
  -24.6765  -31.0714   22.0962 N   0  0  0  0  0  0
  -23.4191  -28.8175   23.3020 O   0  0  0  0  0  0
  -28.3799  -26.6105   20.0127 O   0  0  0  0  0  0
  -26.5626  -34.8912   22.4664 O   0  0  0  0  0  0
  -23.5368  -32.1408   23.7408 O   0  0  0  0  0  0
  -30.8968  -18.2996   23.1722 C   0  0  0  0  0  0
  -30.6588  -17.0442   22.5894 C   0  0  0  0  0  0
  -29.9494  -18.1604   20.5456 C   0  0  0  0  0  0
  -30.6927  -19.4981   22.4551 C   0  0  0  0  0  0
  -30.2203  -19.4523   21.1124 C   0  0  0  0  0  0
  -30.1854  -16.9464   21.2677 C   0  0  0  0  0  0
  -28.4120  -24.2002   20.9020 C   0  0  0  0  0  0
  -29.2984  -23.2781   20.4031 C   0  0  0  0  0  0
  -27.1180  -23.7221   21.4471 C   0  0  0  0  0  0
  -26.7316  -22.2622   21.2076 C   0  0  0  0  0  0
  -27.9490  -21.3266   21.2865 C   0  0  0  0  0  0
  -31.0159  -20.7958   23.1872 C   0  0  0  0  0  0
  -30.6516  -23.6607   19.8073 C   0  0  0  0  0  0
  -30.1693  -20.7544   20.2440 C   0  0  0  0  0  0
  -28.7044  -25.7205   21.1062 C   0  0  0  0  0  0
  -29.8446  -15.6414   20.7598 N   0  0  0  0  0  0
  -29.0211  -21.7465   20.3514 N   0  3  2  0  0  0
  -26.3303  -24.4412   22.0669 O   0  0  0  0  0  0
  -31.4718  -12.4936   19.1177 H   0  0  0  0  0  0
  -30.3609  -11.3626   19.8451 H   0  0  0  0  0  0
  -29.7513  -11.7835   17.4377 H   0  0  0  0  0  0
  -29.6536  -13.4974   17.7487 H   0  0  0  0  0  0
  -27.8260  -11.3151   18.8040 H   0  0  0  0  0  0
  -27.3742  -12.6485   17.7759 H   0  0  0  0  0  0
  -27.6733  -14.2579   19.5420 H   0  0  0  0  0  0
  -28.6983  -12.0209   21.3581 H   0  0  0  0  0  0
  -28.4620  -13.6776   21.8404 H   0  0  0  0  0  0
  -25.2769   -9.5690   22.4744 H   0  0  0  0  0  0
  -24.0014   -7.4634   22.7461 H   0  0  0  0  0  0
  -21.0848   -8.8759   19.8942 H   0  0  0  0  0  0
  -22.3689  -10.9666   19.6156 H   0  0  0  0  0  0
  -21.1999   -7.6145   23.9717 H   0  0  0  0  0  0
  -21.1486   -6.0521   25.9079 H   0  0  0  0  0  0
  -22.0598   -2.7609   23.2847 H   0  0  0  0  0  0
  -22.4108  -11.9870   22.4814 H   0  0  0  0  0  0
  -21.1102  -13.1203   22.2607 H   0  0  0  0  0  0
  -24.6413  -15.8331   20.4989 H   0  0  0  0  0  0
  -26.2571  -15.6354   20.0539 H   0  0  0  0  0  0
  -26.7123  -32.5517   23.1114 H   0  0  0  0  0  0
  -25.0019  -33.9746   25.0389 H   0  0  0  0  0  0
  -22.7039  -31.3025   21.3974 H   0  0  0  0  0  0
  -23.3741  -35.9675   23.3306 H   0  0  0  0  0  0
  -24.3591  -36.8964   22.2060 H   0  0  0  0  0  0
  -23.7266  -37.6527   23.6674 H   0  0  0  0  0  0
  -26.0582  -31.5633   20.5863 H   0  0  0  0  0  0
  -26.8323  -30.8761   21.9825 H   0  0  0  0  0  0
  -28.1133  -29.0481   21.1878 H   0  0  0  0  0  0
  -26.0670  -25.9494   19.0042 H   0  0  0  0  0  0
  -23.9882  -27.2892   19.0247 H   0  0  0  0  0  0
  -23.7448  -30.5844   19.3997 H   0  0  0  0  0  0
  -22.7505  -29.2357   19.8618 H   0  0  0  0  0  0
  -25.1285  -36.1949   25.0820 H   0  0  0  0  0  0
  -20.9977  -28.3263   24.1446 H   0  0  0  0  0  0
  -20.5721  -26.2268   23.3617 H   0  0  0  0  0  0
  -21.6633  -26.7469   22.1191 H   0  0  0  0  0  0
  -19.6914  -25.6316   21.1245 H   0  0  0  0  0  0
  -19.6719  -27.3229   20.6788 H   0  0  0  0  0  0
  -17.4200  -26.6731   21.4017 H   0  0  0  0  0  0
  -18.0291  -26.0103   22.9036 H   0  0  0  0  0  0
  -19.7933  -30.7280   24.2283 H   0  0  0  0  0  0
  -17.5007  -31.6275   24.5177 H   0  0  0  0  0  0
  -15.5340  -30.2990   23.7657 H   0  0  0  0  0  0
  -15.8686  -28.0855   22.7010 H   0  0  0  0  0  0
  -24.5949  -30.6987   25.7793 H   0  0  0  0  0  0
  -24.8842  -32.2863   26.4817 H   0  0  0  0  0  0
  -25.8081  -30.8963   27.0243 H   0  0  0  0  0  0
  -26.2836  -29.6790   24.1163 H   0  0  0  0  0  0
  -27.4072  -29.7271   25.4563 H   0  0  0  0  0  0
  -27.8677  -30.4337   23.9240 H   0  0  0  0  0  0
  -27.2663  -33.3634   26.2016 H   0  0  0  0  0  0
  -28.3861  -32.6860   25.0303 H   0  0  0  0  0  0
  -28.0679  -31.8463   26.5411 H   0  0  0  0  0  0
  -28.2569  -38.0118   24.7493 H   0  0  0  0  0  0
  -28.1092  -36.2645   24.6264 H   0  0  0  0  0  0
  -27.2296  -37.1430   25.8853 H   0  0  0  0  0  0
  -20.9321  -29.8764   21.6923 H   0  0  0  0  0  0
  -26.0184  -38.2855   24.1421 H   0  0  0  0  0  0
  -31.2494  -18.3384   24.1951 H   0  0  0  0  0  0
  -30.8224  -16.1536   23.1807 H   0  0  0  0  0  0
  -29.5905  -18.0953   19.5280 H   0  0  0  0  0  0
  -26.2641  -22.1942   20.2263 H   0  0  0  0  0  0
  -25.9812  -21.9607   21.9384 H   0  0  0  0  0  0
  -27.6260  -20.3111   21.0559 H   0  0  0  0  0  0
  -28.3312  -21.3170   22.3067 H   0  0  0  0  0  0
  -31.9429  -20.6845   23.7524 H   0  0  0  0  0  0
  -30.2246  -21.0221   23.9020 H   0  0  0  0  0  0
  -31.1375  -21.6655   22.5460 H   0  0  0  0  0  0
  -31.4140  -23.6991   20.5867 H   0  0  0  0  0  0
  -30.5939  -24.6504   19.3546 H   0  0  0  0  0  0
  -30.9820  -22.9905   19.0152 H   0  0  0  0  0  0
  -30.2128  -20.4537   19.1970 H   0  0  0  0  0  0
  -31.1236  -21.2482   20.4073 H   0  0  0  0  0  0
  -29.7757  -25.8290   21.2723 H   0  0  0  0  0  0
  -28.2586  -26.0826   22.0345 H   0  0  0  0  0  0
  -28.8612  -15.4248   20.7557 H   0  0  0  0  0  0
  -28.5829  -21.5875   19.4547 H   0  0  0  0  0  0
  1 25  1  0  0  0
  1 30  2  0  0  0
  1 86  1  0  0  0
  2  3  1  0  0  0
  2 25  1  0  0  0
  2 89  1  0  0  0
  2 90  1  0  0  0
  3  4  1  0  0  0
  3 91  1  0  0  0
  3 92  1  0  0  0
  4  5  1  0  0  0
  4 93  1  0  0  0
  4 94  1  0  0  0
  5  6  1  0  0  0
  5 26  1  0  0  0
  5 95  1  0  0  0
  6 25  1  0  0  0
  6 96  1  0  0  0
  6 97  1  0  0  0
  7  8  2  0  0  0
  7 26  1  0  0  0
  7 29  1  0  0  0
  8  9  1  0  0  0
  8 22  1  0  0  0
  9 10  1  0  0  0
  9 27  2  0  0  0
 10 11  2  0  0  0
 10 15  1  0  0  0
 11 12  1  0  0  0
 11 98  1  0  0  0
 12 13  2  0  0  0
 12 99  1  0  0  0
 13 14  1  0  0  0
 13 31  1  0  0  0
 14 15  2  0  0  0
 14100  1  0  0  0
 15101  1  0  0  0
 16 17  2  0  0  0
 16 21  1  0  0  0
 16 31  1  0  0  0
 17 18  1  0  0  0
 17102  1  0  0  0
 18 19  2  0  0  0
 18103  1  0  0  0
 19 20  1  0  0  0
 19 24  1  0  0  0
 20 21  2  0  0  0
 20104  1  0  0  0
 21 23  1  0  0  0
 22 28  1  0  0  0
 22 32  2  0  0  0
 26 27  1  0  0  0
 28105  1  0  0  0
 28106  1  0  0  0
 29107  1  0  0  0
 29108  1  0  0  0
 33 34  1  0  0  0
 33 66  1  0  0  0
 33 70  2  0  0  0
 34 36  1  0  0  0
 34 59  1  0  0  0
 34109  1  0  0  0
 35 44  2  0  0  0
 35 45  1  0  0  0
 35 68  1  0  0  0
 36 56  1  0  0  0
 36110  1  0  0  0
 37 39  1  0  0  0
 37 47  1  0  0  0
 37 66  1  0  0  0
 37111  1  0  0  0
 38 43  2  0  0  0
 38 46  1  0  0  0
 38 47  1  0  0  0
 39 64  1  0  0  0
 39 67  2  0  0  0
 40 52  1  0  0  0
 40 53  2  0  0  0
 40 58  1  0  0  0
 41112  1  0  0  0
 41113  1  0  0  0
 41114  1  0  0  0
 41 48  1  0  0  0
 42 43  1  0  0  0
 42 66  1  0  0  0
 42115  1  0  0  0
 42116  1  0  0  0
 43 44  1  0  0  0
 44117  1  0  0  0
 45 46  2  0  0  0
 45118  1  0  0  0
 46119  1  0  0  0
 47120  1  0  0  0
 47121  1  0  0  0
 48 56  1  0  0  0
 48 65  1  0  0  0
 48122  1  0  0  0
 49 50  1  0  0  0
 49 53  1  0  0  0
 49 64  1  0  0  0
 49123  1  0  0  0
 50 51  1  0  0  0
 50124  1  0  0  0
 50125  1  0  0  0
 51 52  1  0  0  0
 51126  1  0  0  0
 51127  1  0  0  0
 52128  1  0  0  0
 52129  1  0  0  0
 53 54  1  0  0  0
 54 55  2  0  0  0
 54130  1  0  0  0
 55 57  1  0  0  0
 55131  1  0  0  0
 56 69  2  0  0  0
 57 58  2  0  0  0
 57132  1  0  0  0
 58133  1  0  0  0
 59 60  1  0  0  0
 59 61  1  0  0  0
 59 62  1  0  0  0
 60134  1  0  0  0
 60135  1  0  0  0
 60136  1  0  0  0
 61137  1  0  0  0
 61138  1  0  0  0
 61139  1  0  0  0
 62140  1  0  0  0
 62141  1  0  0  0
 62142  1  0  0  0
 63 65  1  0  0  0
 63143  1  0  0  0
 63144  1  0  0  0
 63145  1  0  0  0
 64146  1  0  0  0
 65147  1  0  0  0
 68 85  1  0  0  0
 71 72  2  0  0  0
 71 74  1  0  0  0
 71148  1  0  0  0
 72 76  1  0  0  0
 72149  1  0  0  0
 73 75  1  0  0  0
 73 76  2  0  0  0
 73150  1  0  0  0
 74 75  2  0  0  0
 74 82  1  0  0  0
 75 84  1  0  0  0
 76 86  1  0  0  0
 77 78  2  0  0  0
 77 79  1  0  0  0
 77 85  1  0  0  0
 78 83  1  0  0  0
 78 87  1  0  0  0
 79 80  1  0  0  0
 79 88  2  0  0  0
 80 81  1  0  0  0
 80151  1  0  0  0
 80152  1  0  0  0
 81 87  1  0  0  0
 81153  1  0  0  0
 81154  1  0  0  0
 82155  1  0  0  0
 82156  1  0  0  0
 82157  1  0  0  0
 83158  1  0  0  0
 83159  1  0  0  0
 83160  1  0  0  0
 84161  1  0  0  0
 84162  1  0  0  0
 84 87  1  0  0  0
 85163  1  0  0  0
 85164  1  0  0  0
 86165  1  0  0  0
 87166  1  0  0  0
M  CHG  1  87   1
M  ISO  4   1 100  68 101  85 101  86 100
M  END
> <chiral flag>
0

> <version>
0

> <s_m_source_file>
/data/baiqing/PycharmProjects/Reinvent-master-3.2/result/LINK_invent/BTK/process_docking_weight1_custom_product_contain_oxygen_bond_distance_aromatic_linkinvent_7_9_3/rearranged_h_0108.sdf

> <i_m_source_file_index>
51

> <r_mmod_Potential_Energy-OPLS-2005>
-122.337005615234

> <r_mmod_Stretch_Energy-OPLS-2005>
67.2887725830078

> <r_mmod_Bend_Energy-OPLS-2005>
134.910079956055

> <r_mmod_Torsional_Energy-OPLS-2005>
256.480743408203

> <r_mmod_Improper_Torsional_Energy-OPLS-2005>
8.71780967712402

> <r_mmod_Van_der_Waal_Energy-OPLS-2005>
149.756973266602

> <r_mmod_Electrostatic_Energy-OPLS-2005>
-282.160308837891

> <r_mmod_Solvation_Energy-OPLS-2005>
-484.587341308594

> <b_mmod_Minimization_Converged-OPLS-2005>
0

> <r_mmod_RMS_Derivative-OPLS-2005>
2.55272746086121

$$$$
52
                    3D
 Structure written by MMmdl.
162171  0  0  1  0            999 V2000
  -30.7288  -14.4465   20.6019 C   0  0  0  0  0  0
  -30.4144  -12.3028   19.4115 C   0  0  0  0  0  0
  -29.4744  -12.4993   18.2048 C   0  0  0  0  0  0
  -28.0010  -12.3581   18.6303 C   0  0  0  0  0  0
  -27.6575  -13.2000   19.8838 C   0  0  2  0  0  0
  -28.7048  -12.9867   21.0000 C   0  0  0  0  0  0
  -25.2571  -13.8157   20.5738 C   0  0  0  0  0  0
  -24.1818  -13.0446   20.9221 C   0  0  0  0  0  0
  -24.6367  -11.6903   20.8798 C   0  0  0  0  0  0
  -23.9036  -10.4294   21.0440 C   0  0  0  0  0  0
  -24.3588   -9.4207   21.9211 C   0  0  0  0  0  0
  -23.6275   -8.2236   22.0761 C   0  0  0  0  0  0
  -22.4265   -8.0271   21.3543 C   0  0  0  0  0  0
  -21.9897   -9.0250   20.4654 C   0  0  0  0  0  0
  -22.7215  -10.2137   20.3079 C   0  0  0  0  0  0
  -21.6844   -6.0735   22.5279 C   0  0  0  0  0  0
  -21.4006   -6.5637   23.8213 C   0  0  0  0  0  0
  -21.3661   -5.6794   24.9172 C   0  0  0  0  0  0
  -21.6037   -4.3055   24.7224 C   0  0  0  0  0  0
  -21.8817   -3.8145   23.4348 C   0  0  0  0  0  0
  -21.9185   -4.6961   22.3403 C   0  0  0  0  0  0
  -22.7840  -13.5246   21.1862 C   0  0  0  0  0  0
  -22.1660   -4.2143   21.0981 F   0  0  0  0  0  0
  -21.5624   -3.4543   25.7740 F   0  0  0  0  0  0
  -30.0343  -13.2854   20.4399 N   0  0  0  0  0  0
  -26.3004  -12.9315   20.3485 N   0  0  0  0  0  0
  -25.9291  -11.6482   20.5870 N   0  0  0  0  0  0
  -22.0470  -12.8251   22.0416 N   0  0  0  0  0  0
  -25.4314  -15.1877   20.4108 N   0  0  0  0  0  0
  -31.8430  -14.6372   20.1028 O   0  0  0  0  0  0
  -21.6628   -6.8870   21.4234 O   0  0  0  0  0  0
  -22.3531  -14.5561   20.6705 O   0  0  0  0  0  0
  -24.6195  -31.8681   23.2135 C   0  0  0  0  0  0
  -25.9068  -32.4825   23.8439 C   0  0  1  0  0  0
  -27.2103  -27.4002   20.0855 C   0  0  0  0  0  0
  -25.5923  -33.8627   24.2353 N   0  0  0  0  0  0
  -23.4068  -30.4988   21.5568 C   0  0  2  0  0  0
  -24.8456  -28.9769   20.1093 C   0  0  0  0  0  0
  -22.7448  -29.4660   22.4981 C   0  0  0  0  0  0
  -18.0297  -28.1359   22.8478 C   0  0  0  0  0  0
  -24.1481  -36.7310   23.2633 C   0  0  0  0  0  0
  -25.9440  -30.8193   21.3774 C   0  0  0  0  0  0
  -26.0148  -29.4586   20.7123 C   0  0  0  0  0  0
  -27.2010  -28.6803   20.6970 C   0  0  0  0  0  0
  -26.0134  -26.9614   19.4608 C   0  0  0  0  0  0
  -24.8422  -27.7295   19.4787 C   0  0  0  0  0  0
  -23.6122  -29.8460   20.1673 C   0  0  0  0  0  0
  -25.4102  -36.3105   24.0329 C   0  0  1  0  0  0
  -20.5897  -28.3644   23.1290 C   0  0  2  0  0  0
  -20.6787  -26.9374   22.5409 C   0  0  0  0  0  0
  -19.5760  -26.6368   21.5203 C   0  0  0  0  0  0
  -18.1940  -26.7907   22.1611 C   0  0  0  0  0  0
  -19.1551  -28.8821   23.2883 C   0  0  0  0  0  0
  -18.9469  -30.1435   23.8870 C   0  0  0  0  0  0
  -17.6468  -30.6557   24.0556 C   0  0  0  0  0  0
  -25.9031  -34.9469   23.5129 C   0  0  0  0  0  0
  -16.5361  -29.9056   23.6328 C   0  0  0  0  0  0
  -16.7290  -28.6489   23.0325 C   0  0  0  0  0  0
  -26.4478  -31.6613   25.0776 C   0  0  0  0  0  0
  -25.3732  -31.3729   26.1522 C   0  0  0  0  0  0
  -27.0329  -30.3046   24.6193 C   0  0  0  0  0  0
  -27.6041  -32.4355   25.7527 C   0  0  0  0  0  0
  -27.5584  -37.1816   24.8463 C   0  0  0  0  0  0
  -21.4181  -29.3016   22.3697 N   0  0  0  0  0  0
  -26.4291  -37.3788   23.9406 N   0  0  0  0  0  0
  -24.6755  -31.0762   22.1064 N   0  0  0  0  0  0
  -23.4210  -28.8179   23.3011 O   0  0  0  0  0  0
  -28.3432  -26.5909   20.1280 O   0  0  0  0  0  0
  -26.5585  -34.8912   22.4686 O   0  0  0  0  0  0
  -23.5375  -32.1461   23.7498 O   0  0  0  0  0  0
  -28.8630  -18.5094   21.9689 C   0  0  0  0  0  0
  -28.9766  -19.9351   21.9905 C   0  0  0  0  0  0
  -29.4458  -17.9252   20.8714 C   0  0  0  0  0  0
  -29.6236  -20.4529   20.8949 C   0  0  0  0  0  0
  -29.1686  -24.1257   20.1632 C   0  0  0  0  0  0
  -28.8769  -22.8147   20.4396 C   0  0  0  0  0  0
  -30.5792  -24.5080   19.9265 C   0  0  0  0  0  0
  -31.5329  -23.3724   19.5729 C   0  0  0  0  0  0
  -31.2818  -22.1579   20.4755 C   0  0  0  0  0  0
  -27.4203  -22.3478   20.5393 C   0  0  0  0  0  0
  -30.6357  -15.8555   22.5542 C   0  0  0  0  0  0
  -29.4031  -16.4748   20.4364 C   0  0  0  0  0  0
  -28.0809  -25.1820   19.8889 C   0  0  0  0  0  0
  -29.8624  -21.8057   20.5670 N   0  0  0  0  0  0
  -30.0922  -15.4463   21.2570 N   0  0  0  0  0  0
  -31.0190  -25.6613   19.9787 O   0  0  0  0  0  0
  -30.1710  -19.1519   19.8518 S   0  0  0  0  0  0
  -31.4547  -12.4053   19.0958 H   0  0  0  0  0  0
  -30.3239  -11.2909   19.8100 H   0  0  0  0  0  0
  -29.7030  -11.7729   17.4230 H   0  0  0  0  0  0
  -29.6375  -13.4844   17.7648 H   0  0  0  0  0  0
  -27.8112  -11.3042   18.8330 H   0  0  0  0  0  0
  -27.3400  -12.6332   17.8083 H   0  0  0  0  0  0
  -27.6970  -14.2416   19.5724 H   0  0  0  0  0  0
  -28.6816  -11.9549   21.3535 H   0  0  0  0  0  0
  -28.4722  -13.5979   21.8740 H   0  0  0  0  0  0
  -25.2719   -9.5676   22.4817 H   0  0  0  0  0  0
  -23.9974   -7.4615   22.7482 H   0  0  0  0  0  0
  -21.0827   -8.8770   19.8963 H   0  0  0  0  0  0
  -22.3667  -10.9685   19.6207 H   0  0  0  0  0  0
  -21.2007   -7.6147   23.9710 H   0  0  0  0  0  0
  -21.1484   -6.0530   25.9077 H   0  0  0  0  0  0
  -22.0596   -2.7609   23.2852 H   0  0  0  0  0  0
  -22.4041  -11.9869   22.4770 H   0  0  0  0  0  0
  -21.1122  -13.1345   22.2687 H   0  0  0  0  0  0
  -24.6723  -15.8511   20.5222 H   0  0  0  0  0  0
  -26.2852  -15.6194   20.0832 H   0  0  0  0  0  0
  -26.7131  -32.5494   23.1195 H   0  0  0  0  0  0
  -25.0101  -33.9797   25.0520 H   0  0  0  0  0  0
  -22.6946  -31.3168   21.4261 H   0  0  0  0  0  0
  -23.3745  -35.9642   23.3299 H   0  0  0  0  0  0
  -24.3565  -36.8938   22.2051 H   0  0  0  0  0  0
  -23.7265  -37.6515   23.6654 H   0  0  0  0  0  0
  -26.0769  -31.5883   20.6159 H   0  0  0  0  0  0
  -26.8258  -30.8565   22.0060 H   0  0  0  0  0  0
  -28.0992  -29.0444   21.1761 H   0  0  0  0  0  0
  -25.9298  -26.0143   18.9503 H   0  0  0  0  0  0
  -23.9471  -27.3551   19.0004 H   0  0  0  0  0  0
  -23.7202  -30.6274   19.4150 H   0  0  0  0  0  0
  -22.7333  -29.2712   19.8685 H   0  0  0  0  0  0
  -25.1297  -36.1960   25.0826 H   0  0  0  0  0  0
  -20.9988  -28.3215   24.1410 H   0  0  0  0  0  0
  -20.5701  -26.2248   23.3604 H   0  0  0  0  0  0
  -21.6653  -26.7417   22.1193 H   0  0  0  0  0  0
  -19.6909  -25.6284   21.1220 H   0  0  0  0  0  0
  -19.6697  -27.3175   20.6730 H   0  0  0  0  0  0
  -17.4225  -26.6663   21.4001 H   0  0  0  0  0  0
  -18.0319  -26.0043   22.8997 H   0  0  0  0  0  0
  -19.7946  -30.7267   24.2209 H   0  0  0  0  0  0
  -17.5023  -31.6222   24.5176 H   0  0  0  0  0  0
  -15.5360  -30.2938   23.7666 H   0  0  0  0  0  0
  -15.8698  -28.0815   22.7007 H   0  0  0  0  0  0
  -24.5904  -30.7067   25.7884 H   0  0  0  0  0  0
  -24.8911  -32.2876   26.4962 H   0  0  0  0  0  0
  -25.8084  -30.8929   27.0299 H   0  0  0  0  0  0
  -26.2898  -29.6796   24.1222 H   0  0  0  0  0  0
  -27.4061  -29.7296   25.4680 H   0  0  0  0  0  0
  -27.8748  -30.4366   23.9397 H   0  0  0  0  0  0
  -27.2671  -33.3685   26.2061 H   0  0  0  0  0  0
  -28.3858  -32.6891   25.0353 H   0  0  0  0  0  0
  -28.0691  -31.8524   26.5490 H   0  0  0  0  0  0
  -28.2607  -38.0112   24.7515 H   0  0  0  0  0  0
  -28.1098  -36.2650   24.6297 H   0  0  0  0  0  0
  -27.2297  -37.1464   25.8866 H   0  0  0  0  0  0
  -20.9331  -29.8761   21.6944 H   0  0  0  0  0  0
  -26.0180  -38.2865   24.1410 H   0  0  0  0  0  0
  -28.3337  -17.9719   22.7426 H   0  0  0  0  0  0
  -28.5576  -20.5290   22.7901 H   0  0  0  0  0  0
  -32.5671  -23.7047   19.6591 H   0  0  0  0  0  0
  -31.3652  -23.1023   18.5296 H   0  0  0  0  0  0
  -31.6446  -22.3782   21.4798 H   0  0  0  0  0  0
  -31.8766  -21.3178   20.1165 H   0  0  0  0  0  0
  -26.8229  -22.7760   19.7331 H   0  0  0  0  0  0
  -26.9836  -22.6707   21.4864 H   0  0  0  0  0  0
  -27.2719  -21.2729   20.4547 H   0  0  0  0  0  0
  -29.8474  -16.2244   23.2087 H   0  0  0  0  0  0
  -31.3868  -16.6359   22.4311 H   0  0  0  0  0  0
  -31.1080  -15.0180   23.0718 H   0  0  0  0  0  0
  -29.7574  -16.4180   19.4033 H   0  0  0  0  0  0
  -28.3549  -16.1857   20.3898 H   0  0  0  0  0  0
  -27.2133  -24.9066   20.4915 H   0  0  0  0  0  0
  -27.8262  -25.0490   18.8372 H   0  0  0  0  0  0
  1 25  1  0  0  0
  1 30  2  0  0  0
  1 85  1  0  0  0
  2  3  1  0  0  0
  2 25  1  0  0  0
  2 88  1  0  0  0
  2 89  1  0  0  0
  3  4  1  0  0  0
  3 90  1  0  0  0
  3 91  1  0  0  0
  4  5  1  0  0  0
  4 92  1  0  0  0
  4 93  1  0  0  0
  5  6  1  0  0  0
  5 26  1  0  0  0
  5 94  1  0  0  0
  6 25  1  0  0  0
  6 95  1  0  0  0
  6 96  1  0  0  0
  7  8  2  0  0  0
  7 26  1  0  0  0
  7 29  1  0  0  0
  8  9  1  0  0  0
  8 22  1  0  0  0
  9 10  1  0  0  0
  9 27  2  0  0  0
 10 11  2  0  0  0
 10 15  1  0  0  0
 11 12  1  0  0  0
 11 97  1  0  0  0
 12 13  2  0  0  0
 12 98  1  0  0  0
 13 14  1  0  0  0
 13 31  1  0  0  0
 14 15  2  0  0  0
 14 99  1  0  0  0
 15100  1  0  0  0
 16 17  2  0  0  0
 16 21  1  0  0  0
 16 31  1  0  0  0
 17 18  1  0  0  0
 17101  1  0  0  0
 18 19  2  0  0  0
 18102  1  0  0  0
 19 20  1  0  0  0
 19 24  1  0  0  0
 20 21  2  0  0  0
 20103  1  0  0  0
 21 23  1  0  0  0
 22 28  1  0  0  0
 22 32  2  0  0  0
 26 27  1  0  0  0
 28104  1  0  0  0
 28105  1  0  0  0
 29106  1  0  0  0
 29107  1  0  0  0
 33 34  1  0  0  0
 33 66  1  0  0  0
 33 70  2  0  0  0
 34 36  1  0  0  0
 34 59  1  0  0  0
 34108  1  0  0  0
 35 44  2  0  0  0
 35 45  1  0  0  0
 35 68  1  0  0  0
 36 56  1  0  0  0
 36109  1  0  0  0
 37 39  1  0  0  0
 37 47  1  0  0  0
 37 66  1  0  0  0
 37110  1  0  0  0
 38 43  2  0  0  0
 38 46  1  0  0  0
 38 47  1  0  0  0
 39 64  1  0  0  0
 39 67  2  0  0  0
 40 52  1  0  0  0
 40 53  2  0  0  0
 40 58  1  0  0  0
 41111  1  0  0  0
 41112  1  0  0  0
 41113  1  0  0  0
 41 48  1  0  0  0
 42 43  1  0  0  0
 42 66  1  0  0  0
 42114  1  0  0  0
 42115  1  0  0  0
 43 44  1  0  0  0
 44116  1  0  0  0
 45 46  2  0  0  0
 45117  1  0  0  0
 46118  1  0  0  0
 47119  1  0  0  0
 47120  1  0  0  0
 48 56  1  0  0  0
 48 65  1  0  0  0
 48121  1  0  0  0
 49 50  1  0  0  0
 49 53  1  0  0  0
 49 64  1  0  0  0
 49122  1  0  0  0
 50 51  1  0  0  0
 50123  1  0  0  0
 50124  1  0  0  0
 51 52  1  0  0  0
 51125  1  0  0  0
 51126  1  0  0  0
 52127  1  0  0  0
 52128  1  0  0  0
 53 54  1  0  0  0
 54 55  2  0  0  0
 54129  1  0  0  0
 55 57  1  0  0  0
 55130  1  0  0  0
 56 69  2  0  0  0
 57 58  2  0  0  0
 57131  1  0  0  0
 58132  1  0  0  0
 59 60  1  0  0  0
 59 61  1  0  0  0
 59 62  1  0  0  0
 60133  1  0  0  0
 60134  1  0  0  0
 60135  1  0  0  0
 61136  1  0  0  0
 61137  1  0  0  0
 61138  1  0  0  0
 62139  1  0  0  0
 62140  1  0  0  0
 62141  1  0  0  0
 63 65  1  0  0  0
 63142  1  0  0  0
 63143  1  0  0  0
 63144  1  0  0  0
 64145  1  0  0  0
 65146  1  0  0  0
 68 83  1  0  0  0
 71 72  1  0  0  0
 71 73  2  0  0  0
 71147  1  0  0  0
 72 74  2  0  0  0
 72148  1  0  0  0
 73 82  1  0  0  0
 73 87  1  0  0  0
 74 84  1  0  0  0
 74 87  1  0  0  0
 75 76  2  0  0  0
 75 77  1  0  0  0
 75 83  1  0  0  0
 76 80  1  0  0  0
 76 84  1  0  0  0
 77 78  1  0  0  0
 77 86  2  0  0  0
 78 79  1  0  0  0
 78149  1  0  0  0
 78150  1  0  0  0
 79 84  1  0  0  0
 79151  1  0  0  0
 79152  1  0  0  0
 80153  1  0  0  0
 80154  1  0  0  0
 80155  1  0  0  0
 81 85  1  0  0  0
 81156  1  0  0  0
 81157  1  0  0  0
 81158  1  0  0  0
 82 85  1  0  0  0
 82159  1  0  0  0
 82160  1  0  0  0
 83161  1  0  0  0
 83162  1  0  0  0
M  ISO  4   1 100  68 101  83 101  85 100
M  END
> <chiral flag>
0

> <version>
0

> <s_m_source_file>
/data/baiqing/PycharmProjects/Reinvent-master-3.2/result/LINK_invent/BTK/process_docking_weight1_custom_product_contain_oxygen_bond_distance_aromatic_linkinvent_7_9_3/rearranged_h_0108.sdf

> <i_m_source_file_index>
52

> <r_mmod_Potential_Energy-OPLS-2005>
127.201698303223

> <r_mmod_Stretch_Energy-OPLS-2005>
46.9835510253906

> <r_mmod_Bend_Energy-OPLS-2005>
114.15315246582

> <r_mmod_Torsional_Energy-OPLS-2005>
275.671783447266

> <r_mmod_Improper_Torsional_Energy-OPLS-2005>
5.25269269943237

> <r_mmod_Van_der_Waal_Energy-OPLS-2005>
165.175827026367

> <r_mmod_Electrostatic_Energy-OPLS-2005>
-282.173950195312

> <r_mmod_Solvation_Energy-OPLS-2005>
-215.296539306641

> <b_mmod_Minimization_Converged-OPLS-2005>
0

> <r_mmod_RMS_Derivative-OPLS-2005>
2.43264436721802

$$$$
53
                    3D
 Structure written by MMmdl.
152160  0  0  1  0            999 V2000
  -30.3944  -15.4349   20.3830 C   0  0  0  0  0  0
  -30.4294  -12.9282   19.5607 C   0  0  0  0  0  0
  -29.5491  -12.6277   18.3170 C   0  0  0  0  0  0
  -28.1054  -12.3094   18.7348 C   0  0  0  0  0  0
  -27.6059  -13.2909   19.8202 C   0  0  2  0  0  0
  -28.6223  -13.5208   20.9594 C   0  0  0  0  0  0
  -25.2364  -13.8269   20.5754 C   0  0  0  0  0  0
  -24.1725  -13.0440   20.9236 C   0  0  0  0  0  0
  -24.6395  -11.6939   20.8725 C   0  0  0  0  0  0
  -23.9094  -10.4296   21.0388 C   0  0  0  0  0  0
  -24.3639   -9.4212   21.9169 C   0  0  0  0  0  0
  -23.6302   -8.2252   22.0752 C   0  0  0  0  0  0
  -22.4279   -8.0288   21.3552 C   0  0  0  0  0  0
  -21.9920   -9.0259   20.4651 C   0  0  0  0  0  0
  -22.7258  -10.2131   20.3046 C   0  0  0  0  0  0
  -21.6856   -6.0735   22.5281 C   0  0  0  0  0  0
  -21.4022   -6.5637   23.8216 C   0  0  0  0  0  0
  -21.3661   -5.6788   24.9175 C   0  0  0  0  0  0
  -21.6044   -4.3050   24.7226 C   0  0  0  0  0  0
  -21.8817   -3.8143   23.4348 C   0  0  0  0  0  0
  -21.9193   -4.6962   22.3405 C   0  0  0  0  0  0
  -22.7742  -13.5187   21.1891 C   0  0  0  0  0  0
  -22.1660   -4.2148   21.0984 F   0  0  0  0  0  0
  -21.5625   -3.4534   25.7740 F   0  0  0  0  0  0
  -29.8439  -14.0944   20.3531 N   0  0  0  0  0  0
  -26.2785  -12.9564   20.3183 N   0  0  0  0  0  0
  -25.9337  -11.6653   20.5666 N   0  0  0  0  0  0
  -22.0407  -12.8176   22.0458 N   0  0  0  0  0  0
  -25.4005  -15.2012   20.4267 N   0  0  0  0  0  0
  -31.5846  -15.3992   20.0247 O   0  0  0  0  0  0
  -21.6642   -6.8883   21.4247 O   0  0  0  0  0  0
  -22.3420  -14.5486   20.6729 O   0  0  0  0  0  0
  -24.6724  -31.8112   23.1602 C   0  0  0  0  0  0
  -25.9356  -32.4519   23.8117 C   0  0  1  0  0  0
  -27.2262  -26.8168   20.1972 C   0  0  0  0  0  0
  -25.5981  -33.8342   24.2006 N   0  0  0  0  0  0
  -23.4934  -30.4170   21.5097 C   0  0  2  0  0  0
  -24.9512  -28.7809   20.1087 C   0  0  0  0  0  0
  -22.7713  -29.4372   22.4725 C   0  0  0  0  0  0
  -18.0331  -28.1420   22.8454 C   0  0  0  0  0  0
  -24.1497  -36.7180   23.2649 C   0  0  0  0  0  0
  -26.0671  -30.5788   21.4100 C   0  0  0  0  0  0
  -26.1333  -29.1570   20.7564 C   0  0  0  0  0  0
  -27.2552  -28.1953   20.7797 C   0  0  0  0  0  0
  -26.0188  -26.6238   19.4845 C   0  0  0  0  0  0
  -24.9256  -27.5382   19.4516 C   0  0  0  0  0  0
  -23.7409  -29.7217   20.1400 C   0  0  0  0  0  0
  -25.4142  -36.2924   24.0285 C   0  0  1  0  0  0
  -20.5960  -28.3775   23.1156 C   0  0  2  0  0  0
  -20.6799  -26.9444   22.5401 C   0  0  0  0  0  0
  -19.5778  -26.6373   21.5211 C   0  0  0  0  0  0
  -18.1961  -26.7948   22.1616 C   0  0  0  0  0  0
  -19.1595  -28.8919   23.2788 C   0  0  0  0  0  0
  -18.9504  -30.1501   23.8833 C   0  0  0  0  0  0
  -17.6497  -30.6603   24.0552 C   0  0  0  0  0  0
  -25.9114  -34.9311   23.4976 C   0  0  0  0  0  0
  -16.5385  -29.9089   23.6347 C   0  0  0  0  0  0
  -16.7310  -28.6512   23.0361 C   0  0  0  0  0  0
  -26.4573  -31.6516   25.0697 C   0  0  0  0  0  0
  -25.3672  -31.3809   26.1335 C   0  0  0  0  0  0
  -27.0492  -30.2865   24.6531 C   0  0  0  0  0  0
  -27.6035  -32.4361   25.7509 C   0  0  0  0  0  0
  -27.5565  -37.1746   24.8463 C   0  0  0  0  0  0
  -21.4371  -29.3039   22.3483 N   0  0  0  0  0  0
  -26.4275  -37.3674   23.9400 N   0  0  0  0  0  0
  -24.7663  -30.9668   22.0790 N   0  0  0  0  0  0
  -23.4206  -28.7960   23.3027 O   0  0  0  0  0  0
  -28.2076  -25.6606   20.3358 O   0  0  0  0  0  0
  -26.5742  -34.8867   22.4585 O   0  0  0  0  0  0
  -23.5771  -32.1135   23.6624 O   0  0  0  0  0  0
  -29.0153  -19.5798   18.0727 C   0  0  0  0  0  0
  -28.7932  -20.8584   18.6654 C   0  0  0  0  0  0
  -29.3539  -18.3812   18.7662 C   0  0  0  0  0  0
  -28.9120  -21.1295   20.0473 C   0  0  0  0  0  0
  -29.4862  -18.3003   20.1695 C   0  0  0  0  0  0
  -29.2452  -19.7569   20.7520 C   0  0  0  0  0  0
  -28.7121  -22.8252   20.4790 C   0  0  0  0  0  0
  -28.1579  -24.1313   19.9626 C   0  0  0  0  0  0
  -30.8365  -17.1685   23.0017 C   0  0  0  0  0  0
  -29.5589  -16.7568   22.2454 C   0  0  0  0  0  0
  -29.7428  -16.7626   20.7857 N   0  0  0  0  0  0
  -29.3420  -19.8782   22.1060 O   0  0  0  0  0  0
  -31.4463  -13.1355   19.2264 H   0  0  0  0  0  0
  -30.5220  -12.0403   20.1891 H   0  0  0  0  0  0
  -29.9676  -11.7994   17.7431 H   0  0  0  0  0  0
  -29.5552  -13.4942   17.6537 H   0  0  0  0  0  0
  -28.0881  -11.2914   19.1260 H   0  0  0  0  0  0
  -27.4426  -12.3188   17.8687 H   0  0  0  0  0  0
  -27.5039  -14.2445   19.3002 H   0  0  0  0  0  0
  -28.8239  -12.6006   21.5099 H   0  0  0  0  0  0
  -28.1910  -14.2129   21.6780 H   0  0  0  0  0  0
  -25.2789   -9.5683   22.4737 H   0  0  0  0  0  0
  -24.0008   -7.4646   22.7477 H   0  0  0  0  0  0
  -21.0847   -8.8782   19.8963 H   0  0  0  0  0  0
  -22.3718  -10.9666   19.6147 H   0  0  0  0  0  0
  -21.2023   -7.6145   23.9719 H   0  0  0  0  0  0
  -21.1481   -6.0518   25.9079 H   0  0  0  0  0  0
  -22.0593   -2.7607   23.2845 H   0  0  0  0  0  0
  -22.4036  -11.9862   22.4872 H   0  0  0  0  0  0
  -21.1019  -13.1191   22.2655 H   0  0  0  0  0  0
  -24.6344  -15.8533   20.5563 H   0  0  0  0  0  0
  -26.2576  -15.6506   20.1294 H   0  0  0  0  0  0
  -26.7431  -32.5022   23.0831 H   0  0  0  0  0  0
  -25.0052  -33.9412   25.0105 H   0  0  0  0  0  0
  -22.8121  -31.2509   21.3288 H   0  0  0  0  0  0
  -23.3765  -35.9505   23.3278 H   0  0  0  0  0  0
  -24.3565  -36.8872   22.2071 H   0  0  0  0  0  0
  -23.7258  -37.6353   23.6745 H   0  0  0  0  0  0
  -26.2629  -31.3110   20.6254 H   0  0  0  0  0  0
  -26.9209  -30.6399   22.0725 H   0  0  0  0  0  0
  -28.1416  -28.4765   21.3304 H   0  0  0  0  0  0
  -25.8759  -25.6755   18.9871 H   0  0  0  0  0  0
  -24.0306  -27.2432   18.9214 H   0  0  0  0  0  0
  -23.9050  -30.4854   19.3793 H   0  0  0  0  0  0
  -22.8485  -29.1814   19.8197 H   0  0  0  0  0  0
  -25.1351  -36.1698   25.0776 H   0  0  0  0  0  0
  -21.0048  -28.3402   24.1280 H   0  0  0  0  0  0
  -20.5669  -26.2403   23.3659 H   0  0  0  0  0  0
  -21.6664  -26.7400   22.1221 H   0  0  0  0  0  0
  -19.6940  -25.6265   21.1288 H   0  0  0  0  0  0
  -19.6718  -27.3143   20.6710 H   0  0  0  0  0  0
  -17.4228  -26.6681   21.4022 H   0  0  0  0  0  0
  -18.0354  -26.0109   22.9033 H   0  0  0  0  0  0
  -19.7980  -30.7330   24.2175 H   0  0  0  0  0  0
  -17.5051  -31.6276   24.5170 H   0  0  0  0  0  0
  -15.5385  -30.2974   23.7707 H   0  0  0  0  0  0
  -15.8708  -28.0809   22.7114 H   0  0  0  0  0  0
  -24.5851  -30.7168   25.7634 H   0  0  0  0  0  0
  -24.8874  -32.3031   26.4622 H   0  0  0  0  0  0
  -25.7874  -30.9051   27.0205 H   0  0  0  0  0  0
  -26.3189  -29.6497   24.1527 H   0  0  0  0  0  0
  -27.3952  -29.7284   25.5241 H   0  0  0  0  0  0
  -27.9159  -30.4003   24.0017 H   0  0  0  0  0  0
  -27.2573  -33.3706   26.1937 H   0  0  0  0  0  0
  -28.3924  -32.6858   25.0401 H   0  0  0  0  0  0
  -28.0624  -31.8601   26.5555 H   0  0  0  0  0  0
  -28.2556  -38.0065   24.7499 H   0  0  0  0  0  0
  -28.1086  -36.2584   24.6304 H   0  0  0  0  0  0
  -27.2277  -37.1402   25.8866 H   0  0  0  0  0  0
  -20.9651  -29.8710   21.6574 H   0  0  0  0  0  0
  -26.0107  -38.2725   24.1406 H   0  0  0  0  0  0
  -28.9173  -19.5137   16.9980 H   0  0  0  0  0  0
  -28.5571  -21.6817   18.0061 H   0  0  0  0  0  0
  -29.4779  -17.4805   18.1827 H   0  0  0  0  0  0
  -29.2245  -22.9967   21.4146 H   0  0  0  0  0  0
  -27.6154  -24.0576   19.0304 H   0  0  0  0  0  0
  -30.6485  -17.2195   24.0748 H   0  0  0  0  0  0
  -31.2026  -18.1458   22.6865 H   0  0  0  0  0  0
  -31.6455  -16.4536   22.8486 H   0  0  0  0  0  0
  -28.7366  -17.4231   22.5055 H   0  0  0  0  0  0
  -29.2454  -15.7856   22.6223 H   0  0  0  0  0  0
  -29.1835  -20.7698   22.3953 H   0  0  0  0  0  0
  1 25  1  0  0  0
  1 30  2  0  0  0
  1 81  1  0  0  0
  2  3  1  0  0  0
  2 25  1  0  0  0
  2 83  1  0  0  0
  2 84  1  0  0  0
  3  4  1  0  0  0
  3 85  1  0  0  0
  3 86  1  0  0  0
  4  5  1  0  0  0
  4 87  1  0  0  0
  4 88  1  0  0  0
  5  6  1  0  0  0
  5 26  1  0  0  0
  5 89  1  0  0  0
  6 25  1  0  0  0
  6 90  1  0  0  0
  6 91  1  0  0  0
  7  8  2  0  0  0
  7 26  1  0  0  0
  7 29  1  0  0  0
  8  9  1  0  0  0
  8 22  1  0  0  0
  9 10  1  0  0  0
  9 27  2  0  0  0
 10 11  2  0  0  0
 10 15  1  0  0  0
 11 12  1  0  0  0
 11 92  1  0  0  0
 12 13  2  0  0  0
 12 93  1  0  0  0
 13 14  1  0  0  0
 13 31  1  0  0  0
 14 15  2  0  0  0
 14 94  1  0  0  0
 15 95  1  0  0  0
 16 17  2  0  0  0
 16 21  1  0  0  0
 16 31  1  0  0  0
 17 18  1  0  0  0
 17 96  1  0  0  0
 18 19  2  0  0  0
 18 97  1  0  0  0
 19 20  1  0  0  0
 19 24  1  0  0  0
 20 21  2  0  0  0
 20 98  1  0  0  0
 21 23  1  0  0  0
 22 28  1  0  0  0
 22 32  2  0  0  0
 26 27  1  0  0  0
 28 99  1  0  0  0
 28100  1  0  0  0
 29101  1  0  0  0
 29102  1  0  0  0
 33 34  1  0  0  0
 33 66  1  0  0  0
 33 70  2  0  0  0
 34 36  1  0  0  0
 34 59  1  0  0  0
 34103  1  0  0  0
 35 44  2  0  0  0
 35 45  1  0  0  0
 35 68  1  0  0  0
 36 56  1  0  0  0
 36104  1  0  0  0
 37 39  1  0  0  0
 37 47  1  0  0  0
 37 66  1  0  0  0
 37105  1  0  0  0
 38 43  2  0  0  0
 38 46  1  0  0  0
 38 47  1  0  0  0
 39 64  1  0  0  0
 39 67  2  0  0  0
 40 52  1  0  0  0
 40 53  2  0  0  0
 40 58  1  0  0  0
 41106  1  0  0  0
 41107  1  0  0  0
 41108  1  0  0  0
 41 48  1  0  0  0
 42 43  1  0  0  0
 42 66  1  0  0  0
 42109  1  0  0  0
 42110  1  0  0  0
 43 44  1  0  0  0
 44111  1  0  0  0
 45 46  2  0  0  0
 45112  1  0  0  0
 46113  1  0  0  0
 47114  1  0  0  0
 47115  1  0  0  0
 48 56  1  0  0  0
 48 65  1  0  0  0
 48116  1  0  0  0
 49 50  1  0  0  0
 49 53  1  0  0  0
 49 64  1  0  0  0
 49117  1  0  0  0
 50 51  1  0  0  0
 50118  1  0  0  0
 50119  1  0  0  0
 51 52  1  0  0  0
 51120  1  0  0  0
 51121  1  0  0  0
 52122  1  0  0  0
 52123  1  0  0  0
 53 54  1  0  0  0
 54 55  2  0  0  0
 54124  1  0  0  0
 55 57  1  0  0  0
 55125  1  0  0  0
 56 69  2  0  0  0
 57 58  2  0  0  0
 57126  1  0  0  0
 58127  1  0  0  0
 59 60  1  0  0  0
 59 61  1  0  0  0
 59 62  1  0  0  0
 60128  1  0  0  0
 60129  1  0  0  0
 60130  1  0  0  0
 61131  1  0  0  0
 61132  1  0  0  0
 61133  1  0  0  0
 62134  1  0  0  0
 62135  1  0  0  0
 62136  1  0  0  0
 63 65  1  0  0  0
 63137  1  0  0  0
 63138  1  0  0  0
 63139  1  0  0  0
 64140  1  0  0  0
 65141  1  0  0  0
 68 78  1  0  0  0
 71 72  2  0  0  0
 71 73  1  0  0  0
 71142  1  0  0  0
 72 74  1  0  0  0
 72143  1  0  0  0
 73 75  2  0  0  0
 73144  1  0  0  0
 74 76  2  0  0  0
 74 77  1  0  0  0
 75 76  1  0  0  0
 75 81  1  0  0  0
 76 82  1  0  0  0
 77 78  2  0  0  0
 77145  1  0  0  0
 78146  1  0  0  0
 79 80  1  0  0  0
 79147  1  0  0  0
 79148  1  0  0  0
 79149  1  0  0  0
 80 81  1  0  0  0
 80150  1  0  0  0
 80151  1  0  0  0
 82152  1  0  0  0
M  ISO  4   1 100  68 101  78 101  81 100
M  END
> <chiral flag>
0

> <version>
0

> <s_m_source_file>
/data/baiqing/PycharmProjects/Reinvent-master-3.2/result/LINK_invent/BTK/process_docking_weight1_custom_product_contain_oxygen_bond_distance_aromatic_linkinvent_7_9_3/rearranged_h_0108.sdf

> <i_m_source_file_index>
53

> <r_mmod_Potential_Energy-OPLS-2005>
1781.87951660156

> <r_mmod_Stretch_Energy-OPLS-2005>
754.565856933594

> <r_mmod_Bend_Energy-OPLS-2005>
462.295654296875

> <r_mmod_Torsional_Energy-OPLS-2005>
287.873809814453

> <r_mmod_Improper_Torsional_Energy-OPLS-2005>
3.66606903076172

> <r_mmod_Van_der_Waal_Energy-OPLS-2005>
126.316818237305

> <r_mmod_Electrostatic_Energy-OPLS-2005>
-291.969635009766

> <r_mmod_Solvation_Energy-OPLS-2005>
-203.853424072266

> <b_mmod_Minimization_Converged-OPLS-2005>
0

> <r_mmod_RMS_Derivative-OPLS-2005>
0.963441908359528

$$$$
54
                    3D
 Structure written by MMmdl.
165174  0  0  1  0            999 V2000
  -30.6184  -14.6644   20.5226 C   0  0  0  0  0  0
  -30.4407  -12.4161   19.4625 C   0  0  0  0  0  0
  -29.5185  -12.5381   18.2284 C   0  0  0  0  0  0
  -28.0386  -12.3665   18.6281 C   0  0  0  0  0  0
  -27.6526  -13.2229   19.8634 C   0  0  2  0  0  0
  -28.6933  -13.0819   20.9972 C   0  0  0  0  0  0
  -25.2532  -13.8114   20.5627 C   0  0  0  0  0  0
  -24.1824  -13.0400   20.9154 C   0  0  0  0  0  0
  -24.6410  -11.6873   20.8711 C   0  0  0  0  0  0
  -23.9067  -10.4275   21.0394 C   0  0  0  0  0  0
  -24.3611   -9.4209   21.9187 C   0  0  0  0  0  0
  -23.6288   -8.2250   22.0755 C   0  0  0  0  0  0
  -22.4280   -8.0280   21.3536 C   0  0  0  0  0  0
  -21.9908   -9.0248   20.4640 C   0  0  0  0  0  0
  -22.7235  -10.2123   20.3045 C   0  0  0  0  0  0
  -21.6860   -6.0737   22.5272 C   0  0  0  0  0  0
  -21.4017   -6.5640   23.8207 C   0  0  0  0  0  0
  -21.3662   -5.6789   24.9163 C   0  0  0  0  0  0
  -21.6050   -4.3048   24.7216 C   0  0  0  0  0  0
  -21.8827   -3.8141   23.4334 C   0  0  0  0  0  0
  -21.9197   -4.6962   22.3394 C   0  0  0  0  0  0
  -22.7855  -13.5218   21.1818 C   0  0  0  0  0  0
  -22.1665   -4.2152   21.0976 F   0  0  0  0  0  0
  -21.5633   -3.4537   25.7727 F   0  0  0  0  0  0
  -30.0107  -13.4353   20.4436 N   0  0  0  0  0  0
  -26.2987  -12.9336   20.3274 N   0  0  0  0  0  0
  -25.9337  -11.6481   20.5710 N   0  0  0  0  0  0
  -22.0481  -12.8225   22.0360 N   0  0  0  0  0  0
  -25.4187  -15.1817   20.4005 N   0  0  0  0  0  0
  -31.7754  -14.8253   20.1242 O   0  0  0  0  0  0
  -21.6649   -6.8869   21.4233 O   0  0  0  0  0  0
  -22.3560  -14.5540   20.6670 O   0  0  0  0  0  0
  -24.6263  -31.8594   23.2051 C   0  0  0  0  0  0
  -25.9110  -32.4784   23.8374 C   0  0  1  0  0  0
  -27.2311  -27.3214   20.1162 C   0  0  0  0  0  0
  -25.5933  -33.8591   24.2279 N   0  0  0  0  0  0
  -23.4226  -30.4792   21.5498 C   0  0  2  0  0  0
  -24.8703  -28.9386   20.1139 C   0  0  0  0  0  0
  -22.7504  -29.4584   22.4988 C   0  0  0  0  0  0
  -18.0271  -28.1387   22.8482 C   0  0  0  0  0  0
  -24.1471  -36.7291   23.2632 C   0  0  0  0  0  0
  -25.9620  -30.7844   21.3844 C   0  0  0  0  0  0
  -26.0366  -29.4134   20.7253 C   0  0  0  0  0  0
  -27.2166  -28.6128   20.7263 C   0  0  0  0  0  0
  -26.0439  -26.9083   19.4630 C   0  0  0  0  0  0
  -24.8755  -27.6905   19.4747 C   0  0  0  0  0  0
  -23.6390  -29.8177   20.1633 C   0  0  0  0  0  0
  -25.4093  -36.3092   24.0335 C   0  0  1  0  0  0
  -20.5878  -28.3672   23.1295 C   0  0  2  0  0  0
  -20.6775  -26.9406   22.5399 C   0  0  0  0  0  0
  -19.5740  -26.6393   21.5210 C   0  0  0  0  0  0
  -18.1918  -26.7931   22.1620 C   0  0  0  0  0  0
  -19.1533  -28.8853   23.2873 C   0  0  0  0  0  0
  -18.9452  -30.1464   23.8875 C   0  0  0  0  0  0
  -17.6457  -30.6593   24.0557 C   0  0  0  0  0  0
  -25.9046  -34.9466   23.5106 C   0  0  0  0  0  0
  -16.5343  -29.9087   23.6353 C   0  0  0  0  0  0
  -16.7261  -28.6514   23.0353 C   0  0  0  0  0  0
  -26.4459  -31.6622   25.0774 C   0  0  0  0  0  0
  -25.3672  -31.3825   26.1503 C   0  0  0  0  0  0
  -27.0302  -30.3034   24.6281 C   0  0  0  0  0  0
  -27.6001  -32.4371   25.7554 C   0  0  0  0  0  0
  -27.5585  -37.1789   24.8432 C   0  0  0  0  0  0
  -21.4220  -29.3033   22.3732 N   0  0  0  0  0  0
  -26.4251  -37.3816   23.9449 N   0  0  0  0  0  0
  -24.6883  -31.0580   22.1033 N   0  0  0  0  0  0
  -23.4224  -28.8128   23.3077 O   0  0  0  0  0  0
  -28.3502  -26.4734   20.1857 O   0  0  0  0  0  0
  -26.5608  -34.8932   22.4666 O   0  0  0  0  0  0
  -23.5421  -32.1408   23.7368 O   0  0  0  0  0  0
  -31.0370  -19.3223   20.2691 C   0  0  0  0  0  0
  -31.0239  -17.8952   20.3483 C   0  0  0  0  0  0
  -28.7875  -19.4118   21.0690 C   0  0  0  0  0  0
  -28.7712  -17.9859   21.1867 C   0  0  0  0  0  0
  -29.9193  -20.1349   20.6205 C   0  0  0  0  0  0
  -29.8918  -17.1736   20.8121 C   0  0  0  0  0  0
  -29.0940  -23.9151   20.5039 C   0  0  0  0  0  0
  -29.0753  -22.5738   20.1383 C   0  0  0  0  0  0
  -30.0338  -24.3228   21.5803 C   0  0  0  0  0  0
  -30.9017  -23.2405   22.2255 C   0  0  0  0  0  0
  -31.2037  -22.0777   21.2698 C   0  0  0  0  0  0
  -27.5043  -17.3737   21.7632 C   0  0  0  0  0  0
  -28.8774  -21.6355   17.7833 C   0  0  0  0  0  0
  -28.1534  -25.0301   19.9019 C   0  0  0  0  0  0
  -28.1307  -22.0613   19.0554 C   0  0  0  0  0  0
  -29.9831  -21.5816   20.6358 N   0  0  0  0  0  0
  -29.8158  -15.7072   20.9273 N   0  0  0  0  0  0
  -30.1250  -25.4678   22.0306 O   0  0  0  0  0  0
  -31.4844  -12.5442   19.1713 H   0  0  0  0  0  0
  -30.3724  -11.4177   19.8965 H   0  0  0  0  0  0
  -29.7955  -11.8000   17.4744 H   0  0  0  0  0  0
  -29.6601  -13.5165   17.7643 H   0  0  0  0  0  0
  -27.8734  -11.3102   18.8406 H   0  0  0  0  0  0
  -27.3927  -12.6147   17.7851 H   0  0  0  0  0  0
  -27.6663  -14.2614   19.5318 H   0  0  0  0  0  0
  -28.7068  -12.0601   21.3798 H   0  0  0  0  0  0
  -28.4282  -13.7131   21.8462 H   0  0  0  0  0  0
  -25.2748   -9.5715   22.4770 H   0  0  0  0  0  0
  -24.0003   -7.4653   22.7487 H   0  0  0  0  0  0
  -21.0832   -8.8755   19.8946 H   0  0  0  0  0  0
  -22.3685  -10.9660   19.6154 H   0  0  0  0  0  0
  -21.2013   -7.6150   23.9702 H   0  0  0  0  0  0
  -21.1479   -6.0522   25.9063 H   0  0  0  0  0  0
  -22.0609   -2.7607   23.2831 H   0  0  0  0  0  0
  -22.4060  -11.9879   22.4762 H   0  0  0  0  0  0
  -21.1097  -13.1277   22.2527 H   0  0  0  0  0  0
  -24.6500  -15.8312   20.5230 H   0  0  0  0  0  0
  -26.2610  -15.6209   20.0541 H   0  0  0  0  0  0
  -26.7195  -32.5419   23.1130 H   0  0  0  0  0  0
  -25.0108  -33.9748   25.0443 H   0  0  0  0  0  0
  -22.7170  -31.3000   21.4081 H   0  0  0  0  0  0
  -23.3788  -35.9559   23.3193 H   0  0  0  0  0  0
  -24.3596  -36.9022   22.2073 H   0  0  0  0  0  0
  -23.7139  -37.6429   23.6705 H   0  0  0  0  0  0
  -26.0979  -31.5495   20.6195 H   0  0  0  0  0  0
  -26.8393  -30.8290   22.0177 H   0  0  0  0  0  0
  -28.1040  -28.9627   21.2357 H   0  0  0  0  0  0
  -25.9804  -25.9658   18.9391 H   0  0  0  0  0  0
  -23.9878  -27.3233   18.9791 H   0  0  0  0  0  0
  -23.7662  -30.5960   19.4099 H   0  0  0  0  0  0
  -22.7586  -29.2519   19.8535 H   0  0  0  0  0  0
  -25.1258  -36.1933   25.0825 H   0  0  0  0  0  0
  -20.9925  -28.3202   24.1432 H   0  0  0  0  0  0
  -20.5712  -26.2266   23.3582 H   0  0  0  0  0  0
  -21.6630  -26.7468   22.1148 H   0  0  0  0  0  0
  -19.6900  -25.6312   21.1223 H   0  0  0  0  0  0
  -19.6674  -27.3219   20.6756 H   0  0  0  0  0  0
  -17.4194  -26.6686   21.4016 H   0  0  0  0  0  0
  -18.0296  -26.0060   22.8999 H   0  0  0  0  0  0
  -19.7934  -30.7289   24.2219 H   0  0  0  0  0  0
  -17.5015  -31.6278   24.5148 H   0  0  0  0  0  0
  -15.5345  -30.2979   23.7721 H   0  0  0  0  0  0
  -15.8651  -28.0848   22.7062 H   0  0  0  0  0  0
  -24.5776  -30.7257   25.7842 H   0  0  0  0  0  0
  -24.8952  -32.3033   26.4948 H   0  0  0  0  0  0
  -25.7950  -30.8964   27.0277 H   0  0  0  0  0  0
  -26.2919  -29.6834   24.1183 H   0  0  0  0  0  0
  -27.3843  -29.7261   25.4833 H   0  0  0  0  0  0
  -27.8848  -30.4323   23.9635 H   0  0  0  0  0  0
  -27.2578  -33.3663   26.2124 H   0  0  0  0  0  0
  -28.3812  -32.6954   25.0392 H   0  0  0  0  0  0
  -28.0652  -31.8513   26.5492 H   0  0  0  0  0  0
  -28.2482  -38.0208   24.7662 H   0  0  0  0  0  0
  -28.1202  -36.2764   24.5987 H   0  0  0  0  0  0
  -27.2345  -37.1102   25.8833 H   0  0  0  0  0  0
  -20.9422  -29.8813   21.6980 H   0  0  0  0  0  0
  -26.0124  -38.2862   24.1559 H   0  0  0  0  0  0
  -31.9450  -19.7975   19.9269 H   0  0  0  0  0  0
  -31.9207  -17.3668   20.0595 H   0  0  0  0  0  0
  -27.9164  -19.9720   21.3788 H   0  0  0  0  0  0
  -30.3760  -22.8648   23.1035 H   0  0  0  0  0  0
  -31.8324  -23.6887   22.5706 H   0  0  0  0  0  0
  -31.7216  -21.2985   21.8313 H   0  0  0  0  0  0
  -31.8880  -22.4100   20.4880 H   0  0  0  0  0  0
  -27.2766  -17.8232   22.7302 H   0  0  0  0  0  0
  -27.5698  -16.2990   21.9201 H   0  0  0  0  0  0
  -26.6588  -17.5736   21.1052 H   0  0  0  0  0  0
  -28.1731  -21.3677   16.9961 H   0  0  0  0  0  0
  -29.5239  -20.7732   17.9506 H   0  0  0  0  0  0
  -29.5019  -22.4464   17.4074 H   0  0  0  0  0  0
  -27.1651  -24.7297   20.2484 H   0  0  0  0  0  0
  -28.1710  -24.9252   18.8164 H   0  0  0  0  0  0
  -27.3821  -22.8073   18.7909 H   0  0  0  0  0  0
  -27.5521  -21.2258   19.4464 H   0  0  0  0  0  0
  -28.9261  -15.3775   21.2651 H   0  0  0  0  0  0
  1 25  1  0  0  0
  1 30  2  0  0  0
  1 87  1  0  0  0
  2  3  1  0  0  0
  2 25  1  0  0  0
  2 89  1  0  0  0
  2 90  1  0  0  0
  3  4  1  0  0  0
  3 91  1  0  0  0
  3 92  1  0  0  0
  4  5  1  0  0  0
  4 93  1  0  0  0
  4 94  1  0  0  0
  5  6  1  0  0  0
  5 26  1  0  0  0
  5 95  1  0  0  0
  6 25  1  0  0  0
  6 96  1  0  0  0
  6 97  1  0  0  0
  7  8  2  0  0  0
  7 26  1  0  0  0
  7 29  1  0  0  0
  8  9  1  0  0  0
  8 22  1  0  0  0
  9 10  1  0  0  0
  9 27  2  0  0  0
 10 11  2  0  0  0
 10 15  1  0  0  0
 11 12  1  0  0  0
 11 98  1  0  0  0
 12 13  2  0  0  0
 12 99  1  0  0  0
 13 14  1  0  0  0
 13 31  1  0  0  0
 14 15  2  0  0  0
 14100  1  0  0  0
 15101  1  0  0  0
 16 17  2  0  0  0
 16 21  1  0  0  0
 16 31  1  0  0  0
 17 18  1  0  0  0
 17102  1  0  0  0
 18 19  2  0  0  0
 18103  1  0  0  0
 19 20  1  0  0  0
 19 24  1  0  0  0
 20 21  2  0  0  0
 20104  1  0  0  0
 21 23  1  0  0  0
 22 28  1  0  0  0
 22 32  2  0  0  0
 26 27  1  0  0  0
 28105  1  0  0  0
 28106  1  0  0  0
 29107  1  0  0  0
 29108  1  0  0  0
 33 34  1  0  0  0
 33 66  1  0  0  0
 33 70  2  0  0  0
 34 36  1  0  0  0
 34 59  1  0  0  0
 34109  1  0  0  0
 35 44  2  0  0  0
 35 45  1  0  0  0
 35 68  1  0  0  0
 36 56  1  0  0  0
 36110  1  0  0  0
 37 39  1  0  0  0
 37 47  1  0  0  0
 37 66  1  0  0  0
 37111  1  0  0  0
 38 43  2  0  0  0
 38 46  1  0  0  0
 38 47  1  0  0  0
 39 64  1  0  0  0
 39 67  2  0  0  0
 40 52  1  0  0  0
 40 53  2  0  0  0
 40 58  1  0  0  0
 41112  1  0  0  0
 41113  1  0  0  0
 41114  1  0  0  0
 41 48  1  0  0  0
 42 43  1  0  0  0
 42 66  1  0  0  0
 42115  1  0  0  0
 42116  1  0  0  0
 43 44  1  0  0  0
 44117  1  0  0  0
 45 46  2  0  0  0
 45118  1  0  0  0
 46119  1  0  0  0
 47120  1  0  0  0
 47121  1  0  0  0
 48 56  1  0  0  0
 48 65  1  0  0  0
 48122  1  0  0  0
 49 50  1  0  0  0
 49 53  1  0  0  0
 49 64  1  0  0  0
 49123  1  0  0  0
 50 51  1  0  0  0
 50124  1  0  0  0
 50125  1  0  0  0
 51 52  1  0  0  0
 51126  1  0  0  0
 51127  1  0  0  0
 52128  1  0  0  0
 52129  1  0  0  0
 53 54  1  0  0  0
 54 55  2  0  0  0
 54130  1  0  0  0
 55 57  1  0  0  0
 55131  1  0  0  0
 56 69  2  0  0  0
 57 58  2  0  0  0
 57132  1  0  0  0
 58133  1  0  0  0
 59 60  1  0  0  0
 59 61  1  0  0  0
 59 62  1  0  0  0
 60134  1  0  0  0
 60135  1  0  0  0
 60136  1  0  0  0
 61137  1  0  0  0
 61138  1  0  0  0
 61139  1  0  0  0
 62140  1  0  0  0
 62141  1  0  0  0
 62142  1  0  0  0
 63 65  1  0  0  0
 63143  1  0  0  0
 63144  1  0  0  0
 63145  1  0  0  0
 64146  1  0  0  0
 65147  1  0  0  0
 68 84  1  0  0  0
 71 72  2  0  0  0
 71 75  1  0  0  0
 71148  1  0  0  0
 72 76  1  0  0  0
 72149  1  0  0  0
 73 74  1  0  0  0
 73 75  2  0  0  0
 73150  1  0  0  0
 74 76  2  0  0  0
 74 82  1  0  0  0
 75 86  1  0  0  0
 76 87  1  0  0  0
 77 78  2  0  0  0
 77 79  1  0  0  0
 77 84  1  0  0  0
 78 85  1  0  0  0
 78 86  1  0  0  0
 79 80  1  0  0  0
 79 88  2  0  0  0
 80 81  1  0  0  0
 80151  1  0  0  0
 80152  1  0  0  0
 81 86  1  0  0  0
 81153  1  0  0  0
 81154  1  0  0  0
 82155  1  0  0  0
 82156  1  0  0  0
 82157  1  0  0  0
 83 85  1  0  0  0
 83158  1  0  0  0
 83159  1  0  0  0
 83160  1  0  0  0
 84161  1  0  0  0
 84162  1  0  0  0
 85163  1  0  0  0
 85164  1  0  0  0
 87165  1  0  0  0
M  ISO  4   1 100  68 101  84 101  87 100
M  END
> <chiral flag>
0

> <version>
0

> <s_m_source_file>
/data/baiqing/PycharmProjects/Reinvent-master-3.2/result/LINK_invent/BTK/process_docking_weight1_custom_product_contain_oxygen_bond_distance_aromatic_linkinvent_7_9_3/rearranged_h_0108.sdf

> <i_m_source_file_index>
54

> <r_mmod_Potential_Energy-OPLS-2005>
49.9503631591797

> <r_mmod_Stretch_Energy-OPLS-2005>
89.6923904418945

> <r_mmod_Bend_Energy-OPLS-2005>
148.285247802734

> <r_mmod_Torsional_Energy-OPLS-2005>
203.438842773438

> <r_mmod_Improper_Torsional_Energy-OPLS-2005>
4.29294586181641

> <r_mmod_Van_der_Waal_Energy-OPLS-2005>
167.031463623047

> <r_mmod_Electrostatic_Energy-OPLS-2005>
-395.95751953125

> <r_mmod_Solvation_Energy-OPLS-2005>
-220.052017211914

> <b_mmod_Minimization_Converged-OPLS-2005>
0

> <r_mmod_RMS_Derivative-OPLS-2005>
2.42884111404419

$$$$
55
                    3D
 Structure written by MMmdl.
165174  0  0  1  0            999 V2000
  -30.6632  -14.6265   20.4943 C   0  0  0  0  0  0
  -30.4295  -12.3784   19.4614 C   0  0  0  0  0  0
  -29.5130  -12.5036   18.2263 C   0  0  0  0  0  0
  -28.0356  -12.3417   18.6352 C   0  0  0  0  0  0
  -27.6534  -13.2206   19.8564 C   0  0  2  0  0  0
  -28.6970  -13.0972   20.9915 C   0  0  0  0  0  0
  -25.2557  -13.8185   20.5638 C   0  0  0  0  0  0
  -24.1837  -13.0451   20.9189 C   0  0  0  0  0  0
  -24.6420  -11.6928   20.8745 C   0  0  0  0  0  0
  -23.9090  -10.4308   21.0410 C   0  0  0  0  0  0
  -24.3636   -9.4212   21.9184 C   0  0  0  0  0  0
  -23.6305   -8.2252   22.0766 C   0  0  0  0  0  0
  -22.4295   -8.0282   21.3535 C   0  0  0  0  0  0
  -21.9921   -9.0271   20.4651 C   0  0  0  0  0  0
  -22.7267  -10.2140   20.3061 C   0  0  0  0  0  0
  -21.6867   -6.0737   22.5282 C   0  0  0  0  0  0
  -21.4017   -6.5643   23.8209 C   0  0  0  0  0  0
  -21.3670   -5.6783   24.9176 C   0  0  0  0  0  0
  -21.6047   -4.3049   24.7217 C   0  0  0  0  0  0
  -21.8820   -3.8149   23.4339 C   0  0  0  0  0  0
  -21.9190   -4.6965   22.3397 C   0  0  0  0  0  0
  -22.7863  -13.5243   21.1838 C   0  0  0  0  0  0
  -22.1659   -4.2155   21.0973 F   0  0  0  0  0  0
  -21.5633   -3.4535   25.7729 F   0  0  0  0  0  0
  -30.0152  -13.4194   20.4237 N   0  0  0  0  0  0
  -26.2996  -12.9376   20.3276 N   0  0  0  0  0  0
  -25.9350  -11.6530   20.5759 N   0  0  0  0  0  0
  -22.0471  -12.8274   22.0394 N   0  0  0  0  0  0
  -25.4197  -15.1906   20.3989 N   0  0  0  0  0  0
  -31.8436  -14.7105   20.1637 O   0  0  0  0  0  0
  -21.6648   -6.8888   21.4248 O   0  0  0  0  0  0
  -22.3566  -14.5536   20.6650 O   0  0  0  0  0  0
  -24.6230  -31.8602   23.2057 C   0  0  0  0  0  0
  -25.9072  -32.4791   23.8384 C   0  0  1  0  0  0
  -27.2288  -27.3273   20.1292 C   0  0  0  0  0  0
  -25.5898  -33.8597   24.2311 N   0  0  0  0  0  0
  -23.4204  -30.4842   21.5453 C   0  0  2  0  0  0
  -24.8721  -28.9464   20.1081 C   0  0  0  0  0  0
  -22.7461  -29.4628   22.4924 C   0  0  0  0  0  0
  -18.0291  -28.1389   22.8508 C   0  0  0  0  0  0
  -24.1474  -36.7303   23.2645 C   0  0  0  0  0  0
  -25.9593  -30.7934   21.3798 C   0  0  0  0  0  0
  -26.0353  -29.4218   20.7246 C   0  0  0  0  0  0
  -27.2152  -28.6222   20.7316 C   0  0  0  0  0  0
  -26.0496  -26.9180   19.4592 C   0  0  0  0  0  0
  -24.8818  -27.7019   19.4622 C   0  0  0  0  0  0
  -23.6373  -29.8209   20.1593 C   0  0  0  0  0  0
  -25.4099  -36.3102   24.0340 C   0  0  1  0  0  0
  -20.5893  -28.3691   23.1290 C   0  0  2  0  0  0
  -20.6777  -26.9410   22.5405 C   0  0  0  0  0  0
  -19.5741  -26.6396   21.5218 C   0  0  0  0  0  0
  -18.1932  -26.7937   22.1641 C   0  0  0  0  0  0
  -19.1543  -28.8858   23.2906 C   0  0  0  0  0  0
  -18.9456  -30.1468   23.8912 C   0  0  0  0  0  0
  -17.6456  -30.6595   24.0578 C   0  0  0  0  0  0
  -25.9036  -34.9463   23.5132 C   0  0  0  0  0  0
  -16.5354  -29.9094   23.6329 C   0  0  0  0  0  0
  -16.7281  -28.6510   23.0358 C   0  0  0  0  0  0
  -26.4459  -31.6605   25.0744 C   0  0  0  0  0  0
  -25.3708  -31.3738   26.1474 C   0  0  0  0  0  0
  -27.0300  -30.3033   24.6188 C   0  0  0  0  0  0
  -27.6042  -32.4327   25.7503 C   0  0  0  0  0  0
  -27.5568  -37.1812   24.8463 C   0  0  0  0  0  0
  -21.4172  -29.3056   22.3676 N   0  0  0  0  0  0
  -26.4285  -37.3793   23.9407 N   0  0  0  0  0  0
  -24.6861  -31.0621   22.1012 N   0  0  0  0  0  0
  -23.4174  -28.8156   23.3001 O   0  0  0  0  0  0
  -28.3370  -26.4696   20.2225 O   0  0  0  0  0  0
  -26.5600  -34.8914   22.4689 O   0  0  0  0  0  0
  -23.5392  -32.1390   23.7395 O   0  0  0  0  0  0
  -30.9048  -19.4564   20.2826 C   0  0  0  0  0  0
  -28.8378  -17.8794   21.2187 C   0  0  0  0  0  0
  -31.0175  -18.0290   20.1889 C   0  0  0  0  0  0
  -29.7689  -20.1324   20.7938 C   0  0  0  0  0  0
  -29.9756  -17.1867   20.7183 C   0  0  0  0  0  0
  -28.7180  -19.2980   21.2461 C   0  0  0  0  0  0
  -29.0161  -23.9220   20.6747 C   0  0  0  0  0  0
  -28.9717  -22.5772   20.3498 C   0  0  0  0  0  0
  -29.9055  -24.3257   21.7943 C   0  0  0  0  0  0
  -30.4047  -23.2118   22.7162 C   0  0  0  0  0  0
  -30.8026  -21.9574   21.9276 C   0  0  0  0  0  0
  -28.0319  -22.0879   19.2563 C   0  0  0  0  0  0
  -33.0989  -18.4523   18.6670 C   0  0  0  0  0  0
  -32.2522  -17.4605   19.4878 C   0  0  0  0  0  0
  -28.0978  -25.0209   20.0212 C   0  0  0  0  0  0
  -29.7728  -21.5635   20.9622 N   0  0  0  0  0  0
  -29.8774  -15.7119   20.7880 N   0  0  0  0  0  0
  -30.2429  -25.4881   22.0403 O   0  0  0  0  0  0
  -27.5895  -19.8519   21.7557 F   0  0  0  0  0  0
  -31.4770  -12.4664   19.1713 H   0  0  0  0  0  0
  -30.3280  -11.3879   19.9094 H   0  0  0  0  0  0
  -29.7783  -11.7493   17.4846 H   0  0  0  0  0  0
  -29.6686  -13.4722   17.7455 H   0  0  0  0  0  0
  -27.8794  -11.2898   18.8785 H   0  0  0  0  0  0
  -27.3813  -12.5583   17.7886 H   0  0  0  0  0  0
  -27.6665  -14.2535   19.5074 H   0  0  0  0  0  0
  -28.7030  -12.0870   21.4038 H   0  0  0  0  0  0
  -28.4447  -13.7534   21.8251 H   0  0  0  0  0  0
  -25.2774   -9.5703   22.4758 H   0  0  0  0  0  0
  -24.0005   -7.4660   22.7499 H   0  0  0  0  0  0
  -21.0843   -8.8817   19.8967 H   0  0  0  0  0  0
  -22.3728  -10.9691   19.6176 H   0  0  0  0  0  0
  -21.2008   -7.6150   23.9731 H   0  0  0  0  0  0
  -21.1492   -6.0506   25.9078 H   0  0  0  0  0  0
  -22.0582   -2.7613   23.2837 H   0  0  0  0  0  0
  -22.4065  -11.9974   22.4878 H   0  0  0  0  0  0
  -21.1082  -13.1339   22.2513 H   0  0  0  0  0  0
  -24.6282  -15.8214   20.4669 H   0  0  0  0  0  0
  -26.2383  -15.6310   19.9989 H   0  0  0  0  0  0
  -26.7137  -32.5459   23.1139 H   0  0  0  0  0  0
  -25.0032  -33.9759   25.0442 H   0  0  0  0  0  0
  -22.7152  -31.3045   21.4027 H   0  0  0  0  0  0
  -23.3738  -35.9637   23.3320 H   0  0  0  0  0  0
  -24.3575  -36.8898   22.2056 H   0  0  0  0  0  0
  -23.7209  -37.6507   23.6652 H   0  0  0  0  0  0
  -26.0844  -31.5560   20.6102 H   0  0  0  0  0  0
  -26.8427  -30.8484   22.0041 H   0  0  0  0  0  0
  -28.1023  -28.9749   21.2393 H   0  0  0  0  0  0
  -25.9966  -25.9787   18.9282 H   0  0  0  0  0  0
  -23.9974  -27.3401   18.9574 H   0  0  0  0  0  0
  -23.7520  -30.5973   19.4026 H   0  0  0  0  0  0
  -22.7593  -29.2460   19.8594 H   0  0  0  0  0  0
  -25.1277  -36.1981   25.0840 H   0  0  0  0  0  0
  -21.0017  -28.3260   24.1401 H   0  0  0  0  0  0
  -20.5683  -26.2293   23.3604 H   0  0  0  0  0  0
  -21.6638  -26.7438   22.1188 H   0  0  0  0  0  0
  -19.6890  -25.6310   21.1241 H   0  0  0  0  0  0
  -19.6677  -27.3211   20.6758 H   0  0  0  0  0  0
  -17.4193  -26.6706   21.4054 H   0  0  0  0  0  0
  -18.0332  -26.0081   22.9038 H   0  0  0  0  0  0
  -19.7928  -30.7300   24.2274 H   0  0  0  0  0  0
  -17.5003  -31.6269   24.5170 H   0  0  0  0  0  0
  -15.5352  -30.2997   23.7650 H   0  0  0  0  0  0
  -15.8687  -28.0839   22.7061 H   0  0  0  0  0  0
  -24.5899  -30.7060   25.7805 H   0  0  0  0  0  0
  -24.8856  -32.2898   26.4872 H   0  0  0  0  0  0
  -25.8025  -30.8940   27.0265 H   0  0  0  0  0  0
  -26.2870  -29.6808   24.1180 H   0  0  0  0  0  0
  -27.3962  -29.7265   25.4689 H   0  0  0  0  0  0
  -27.8762  -30.4330   23.9438 H   0  0  0  0  0  0
  -27.2678  -33.3645   26.2067 H   0  0  0  0  0  0
  -28.3849  -32.6852   25.0320 H   0  0  0  0  0  0
  -28.0708  -31.8450   26.5416 H   0  0  0  0  0  0
  -28.2606  -38.0098   24.7507 H   0  0  0  0  0  0
  -28.1053  -36.2626   24.6304 H   0  0  0  0  0  0
  -27.2293  -37.1468   25.8873 H   0  0  0  0  0  0
  -20.9334  -29.8777   21.6892 H   0  0  0  0  0  0
  -26.0170  -38.2876   24.1415 H   0  0  0  0  0  0
  -31.7105  -20.0876   19.9433 H   0  0  0  0  0  0
  -28.0074  -17.3098   21.6072 H   0  0  0  0  0  0
  -29.6005  -22.9698   23.4116 H   0  0  0  0  0  0
  -31.2452  -23.5594   23.3154 H   0  0  0  0  0  0
  -30.9965  -21.1538   22.6434 H   0  0  0  0  0  0
  -31.7410  -22.1376   21.4033 H   0  0  0  0  0  0
  -27.0075  -22.3671   19.5036 H   0  0  0  0  0  0
  -28.0455  -21.0101   19.0992 H   0  0  0  0  0  0
  -28.2911  -22.5528   18.3037 H   0  0  0  0  0  0
  -32.4828  -18.9960   17.9500 H   0  0  0  0  0  0
  -33.8657  -17.9240   18.0992 H   0  0  0  0  0  0
  -33.6134  -19.1770   19.2994 H   0  0  0  0  0  0
  -31.9134  -16.7000   18.7862 H   0  0  0  0  0  0
  -32.8887  -16.9816   20.2317 H   0  0  0  0  0  0
  -27.1138  -24.7715   20.4206 H   0  0  0  0  0  0
  -28.0658  -24.8386   18.9461 H   0  0  0  0  0  0
  -28.9682  -15.3962   21.0887 H   0  0  0  0  0  0
  1 25  1  0  0  0
  1 30  2  0  0  0
  1 87  1  0  0  0
  2  3  1  0  0  0
  2 25  1  0  0  0
  2 90  1  0  0  0
  2 91  1  0  0  0
  3  4  1  0  0  0
  3 92  1  0  0  0
  3 93  1  0  0  0
  4  5  1  0  0  0
  4 94  1  0  0  0
  4 95  1  0  0  0
  5  6  1  0  0  0
  5 26  1  0  0  0
  5 96  1  0  0  0
  6 25  1  0  0  0
  6 97  1  0  0  0
  6 98  1  0  0  0
  7  8  2  0  0  0
  7 26  1  0  0  0
  7 29  1  0  0  0
  8  9  1  0  0  0
  8 22  1  0  0  0
  9 10  1  0  0  0
  9 27  2  0  0  0
 10 11  2  0  0  0
 10 15  1  0  0  0
 11 12  1  0  0  0
 11 99  1  0  0  0
 12 13  2  0  0  0
 12100  1  0  0  0
 13 14  1  0  0  0
 13 31  1  0  0  0
 14 15  2  0  0  0
 14101  1  0  0  0
 15102  1  0  0  0
 16 17  2  0  0  0
 16 21  1  0  0  0
 16 31  1  0  0  0
 17 18  1  0  0  0
 17103  1  0  0  0
 18 19  2  0  0  0
 18104  1  0  0  0
 19 20  1  0  0  0
 19 24  1  0  0  0
 20 21  2  0  0  0
 20105  1  0  0  0
 21 23  1  0  0  0
 22 28  1  0  0  0
 22 32  2  0  0  0
 26 27  1  0  0  0
 28106  1  0  0  0
 28107  1  0  0  0
 29108  1  0  0  0
 29109  1  0  0  0
 33 34  1  0  0  0
 33 66  1  0  0  0
 33 70  2  0  0  0
 34 36  1  0  0  0
 34 59  1  0  0  0
 34110  1  0  0  0
 35 44  2  0  0  0
 35 45  1  0  0  0
 35 68  1  0  0  0
 36 56  1  0  0  0
 36111  1  0  0  0
 37 39  1  0  0  0
 37 47  1  0  0  0
 37 66  1  0  0  0
 37112  1  0  0  0
 38 43  2  0  0  0
 38 46  1  0  0  0
 38 47  1  0  0  0
 39 64  1  0  0  0
 39 67  2  0  0  0
 40 52  1  0  0  0
 40 53  2  0  0  0
 40 58  1  0  0  0
 41113  1  0  0  0
 41114  1  0  0  0
 41115  1  0  0  0
 41 48  1  0  0  0
 42 43  1  0  0  0
 42 66  1  0  0  0
 42116  1  0  0  0
 42117  1  0  0  0
 43 44  1  0  0  0
 44118  1  0  0  0
 45 46  2  0  0  0
 45119  1  0  0  0
 46120  1  0  0  0
 47121  1  0  0  0
 47122  1  0  0  0
 48 56  1  0  0  0
 48 65  1  0  0  0
 48123  1  0  0  0
 49 50  1  0  0  0
 49 53  1  0  0  0
 49 64  1  0  0  0
 49124  1  0  0  0
 50 51  1  0  0  0
 50125  1  0  0  0
 50126  1  0  0  0
 51 52  1  0  0  0
 51127  1  0  0  0
 51128  1  0  0  0
 52129  1  0  0  0
 52130  1  0  0  0
 53 54  1  0  0  0
 54 55  2  0  0  0
 54131  1  0  0  0
 55 57  1  0  0  0
 55132  1  0  0  0
 56 69  2  0  0  0
 57 58  2  0  0  0
 57133  1  0  0  0
 58134  1  0  0  0
 59 60  1  0  0  0
 59 61  1  0  0  0
 59 62  1  0  0  0
 60135  1  0  0  0
 60136  1  0  0  0
 60137  1  0  0  0
 61138  1  0  0  0
 61139  1  0  0  0
 61140  1  0  0  0
 62141  1  0  0  0
 62142  1  0  0  0
 62143  1  0  0  0
 63 65  1  0  0  0
 63144  1  0  0  0
 63145  1  0  0  0
 63146  1  0  0  0
 64147  1  0  0  0
 65148  1  0  0  0
 68 85  1  0  0  0
 71 73  2  0  0  0
 71 74  1  0  0  0
 71149  1  0  0  0
 72 75  2  0  0  0
 72 76  1  0  0  0
 72150  1  0  0  0
 73 75  1  0  0  0
 73 84  1  0  0  0
 74 76  2  0  0  0
 74 86  1  0  0  0
 75 87  1  0  0  0
 76 89  1  0  0  0
 77 78  2  0  0  0
 77 79  1  0  0  0
 77 85  1  0  0  0
 78 82  1  0  0  0
 78 86  1  0  0  0
 79 80  1  0  0  0
 79 88  2  0  0  0
 80 81  1  0  0  0
 80151  1  0  0  0
 80152  1  0  0  0
 81 86  1  0  0  0
 81153  1  0  0  0
 81154  1  0  0  0
 82155  1  0  0  0
 82156  1  0  0  0
 82157  1  0  0  0
 83 84  1  0  0  0
 83158  1  0  0  0
 83159  1  0  0  0
 83160  1  0  0  0
 84161  1  0  0  0
 84162  1  0  0  0
 85163  1  0  0  0
 85164  1  0  0  0
 87165  1  0  0  0
M  ISO  4   1 100  68 101  85 101  87 100
M  END
> <chiral flag>
0

> <version>
0

> <s_m_source_file>
/data/baiqing/PycharmProjects/Reinvent-master-3.2/result/LINK_invent/BTK/process_docking_weight1_custom_product_contain_oxygen_bond_distance_aromatic_linkinvent_7_9_3/rearranged_h_0108.sdf

> <i_m_source_file_index>
55

> <r_mmod_Potential_Energy-OPLS-2005>
152.318084716797

> <r_mmod_Stretch_Energy-OPLS-2005>
86.0643005371094

> <r_mmod_Bend_Energy-OPLS-2005>
166.896301269531

> <r_mmod_Torsional_Energy-OPLS-2005>
222.74235534668

> <r_mmod_Improper_Torsional_Energy-OPLS-2005>
4.78229427337646

> <r_mmod_Van_der_Waal_Energy-OPLS-2005>
173.924728393555

> <r_mmod_Electrostatic_Energy-OPLS-2005>
-334.115570068359

> <r_mmod_Solvation_Energy-OPLS-2005>
-216.989135742188

> <b_mmod_Minimization_Converged-OPLS-2005>
0

> <r_mmod_RMS_Derivative-OPLS-2005>
3.07022166252136

$$$$
56
                    3D
 Structure written by MMmdl.
164173  0  0  1  0            999 V2000
  -30.7231  -14.4694   20.6059 C   0  0  0  0  0  0
  -30.4162  -12.3231   19.4216 C   0  0  0  0  0  0
  -29.4872  -12.5094   18.2067 C   0  0  0  0  0  0
  -28.0096  -12.3686   18.6218 C   0  0  0  0  0  0
  -27.6562  -13.2135   19.8739 C   0  0  2  0  0  0
  -28.6959  -13.0118   20.9981 C   0  0  0  0  0  0
  -25.2550  -13.8185   20.5725 C   0  0  0  0  0  0
  -24.1802  -13.0433   20.9192 C   0  0  0  0  0  0
  -24.6362  -11.6908   20.8718 C   0  0  0  0  0  0
  -23.9044  -10.4285   21.0404 C   0  0  0  0  0  0
  -24.3607   -9.4210   21.9190 C   0  0  0  0  0  0
  -23.6281   -8.2241   22.0757 C   0  0  0  0  0  0
  -22.4261   -8.0279   21.3548 C   0  0  0  0  0  0
  -21.9898   -9.0258   20.4654 C   0  0  0  0  0  0
  -22.7219  -10.2133   20.3059 C   0  0  0  0  0  0
  -21.6842   -6.0737   22.5281 C   0  0  0  0  0  0
  -21.4006   -6.5637   23.8221 C   0  0  0  0  0  0
  -21.3655   -5.6788   24.9185 C   0  0  0  0  0  0
  -21.6033   -4.3051   24.7235 C   0  0  0  0  0  0
  -21.8807   -3.8146   23.4355 C   0  0  0  0  0  0
  -21.9175   -4.6959   22.3403 C   0  0  0  0  0  0
  -22.7840  -13.5236   21.1872 C   0  0  0  0  0  0
  -22.1633   -4.2149   21.0975 F   0  0  0  0  0  0
  -21.5658   -3.4519   25.7748 F   0  0  0  0  0  0
  -30.0283  -13.3103   20.4441 N   0  0  0  0  0  0
  -26.2984  -12.9362   20.3365 N   0  0  0  0  0  0
  -25.9286  -11.6512   20.5742 N   0  0  0  0  0  0
  -22.0477  -12.8227   22.0437 N   0  0  0  0  0  0
  -25.4245  -15.1905   20.4162 N   0  0  0  0  0  0
  -31.8306  -14.6574   20.0943 O   0  0  0  0  0  0
  -21.6621   -6.8877   21.4238 O   0  0  0  0  0  0
  -22.3518  -14.5540   20.6738 O   0  0  0  0  0  0
  -24.6146  -31.8673   23.2094 C   0  0  0  0  0  0
  -25.9042  -32.4817   23.8398 C   0  0  1  0  0  0
  -27.2339  -27.4326   20.1045 C   0  0  0  0  0  0
  -25.5899  -33.8615   24.2335 N   0  0  0  0  0  0
  -23.4031  -30.4894   21.5481 C   0  0  2  0  0  0
  -24.8520  -28.9518   20.1180 C   0  0  0  0  0  0
  -22.7405  -29.4654   22.4975 C   0  0  0  0  0  0
  -18.0275  -28.1364   22.8456 C   0  0  0  0  0  0
  -24.1484  -36.7317   23.2627 C   0  0  0  0  0  0
  -25.9302  -30.8321   21.3617 C   0  0  0  0  0  0
  -26.0097  -29.4626   20.7189 C   0  0  0  0  0  0
  -27.2069  -28.7092   20.7117 C   0  0  0  0  0  0
  -26.0651  -26.9400   19.4896 C   0  0  0  0  0  0
  -24.8726  -27.6878   19.5033 C   0  0  0  0  0  0
  -23.6141  -29.8194   20.1640 C   0  0  0  0  0  0
  -25.4106  -36.3111   24.0330 C   0  0  1  0  0  0
  -20.5865  -28.3648   23.1305 C   0  0  2  0  0  0
  -20.6774  -26.9392   22.5390 C   0  0  0  0  0  0
  -19.5764  -26.6387   21.5164 C   0  0  0  0  0  0
  -18.1924  -26.7930   22.1542 C   0  0  0  0  0  0
  -19.1522  -28.8813   23.2890 C   0  0  0  0  0  0
  -18.9442  -30.1402   23.8932 C   0  0  0  0  0  0
  -17.6452  -30.6552   24.0575 C   0  0  0  0  0  0
  -25.9024  -34.9473   23.5130 C   0  0  0  0  0  0
  -16.5343  -29.9067   23.6316 C   0  0  0  0  0  0
  -16.7264  -28.6491   23.0321 C   0  0  0  0  0  0
  -26.4472  -31.6587   25.0717 C   0  0  0  0  0  0
  -25.3749  -31.3699   26.1475 C   0  0  0  0  0  0
  -27.0294  -30.3036   24.6063 C   0  0  0  0  0  0
  -27.6052  -32.4298   25.7480 C   0  0  0  0  0  0
  -27.5579  -37.1816   24.8458 C   0  0  0  0  0  0
  -21.4127  -29.3032   22.3722 N   0  0  0  0  0  0
  -26.4296  -37.3797   23.9398 N   0  0  0  0  0  0
  -24.6670  -31.0788   22.0978 N   0  0  0  0  0  0
  -23.4185  -28.8201   23.3020 O   0  0  0  0  0  0
  -28.4045  -26.6951   20.0347 O   0  0  0  0  0  0
  -26.5589  -34.8921   22.4690 O   0  0  0  0  0  0
  -23.5335  -32.1431   23.7480 O   0  0  0  0  0  0
  -29.9528  -19.0249   22.4020 C   0  0  0  0  0  0
  -29.3165  -20.2552   22.1296 C   0  0  0  0  0  0
  -29.3825  -18.2283   20.1779 C   0  0  0  0  0  0
  -29.9837  -17.9945   21.4354 C   0  0  0  0  0  0
  -28.7052  -20.4924   20.8810 C   0  0  0  0  0  0
  -28.7505  -19.4654   19.8998 C   0  0  0  0  0  0
  -27.9166  -24.1422   20.9005 C   0  0  0  0  0  0
  -28.5876  -22.9870   20.6064 C   0  0  0  0  0  0
  -26.4841  -24.0287   21.3062 C   0  0  0  0  0  0
  -25.7500  -22.7741   20.8524 C   0  0  0  0  0  0
  -26.6127  -21.5301   21.0961 C   0  0  0  0  0  0
  -30.0428  -23.0226   20.1545 C   0  0  0  0  0  0
  -30.7384  -16.6962   21.7480 C   0  0  0  0  0  0
  -28.5835  -25.5463   20.9061 C   0  0  0  0  0  0
  -28.0026  -21.7034   20.6566 N   0  0  0  0  0  0
  -28.1798  -19.6796   18.6467 N   0  0  0  0  0  0
  -30.1100  -15.4401   21.3079 N   0  0  0  0  0  0
  -25.8710  -24.8680   21.9721 O   0  0  0  0  0  0
  -31.4599  -12.4185   19.1143 H   0  0  0  0  0  0
  -30.3205  -11.3141   19.8233 H   0  0  0  0  0  0
  -29.7269  -11.7819   17.4296 H   0  0  0  0  0  0
  -29.6519  -13.4949   17.7691 H   0  0  0  0  0  0
  -27.8136  -11.3148   18.8217 H   0  0  0  0  0  0
  -27.3569  -12.6441   17.7922 H   0  0  0  0  0  0
  -27.6971  -14.2603   19.5711 H   0  0  0  0  0  0
  -28.6759  -11.9843   21.3637 H   0  0  0  0  0  0
  -28.4441  -13.6270   21.8623 H   0  0  0  0  0  0
  -25.2755   -9.5685   22.4773 H   0  0  0  0  0  0
  -24.0002   -7.4616   22.7448 H   0  0  0  0  0  0
  -21.0851   -8.8775   19.8946 H   0  0  0  0  0  0
  -22.3697  -10.9681   19.6178 H   0  0  0  0  0  0
  -21.2009   -7.6145   23.9731 H   0  0  0  0  0  0
  -21.1482   -6.0515   25.9094 H   0  0  0  0  0  0
  -22.0595   -2.7607   23.2855 H   0  0  0  0  0  0
  -22.4100  -11.9880   22.4814 H   0  0  0  0  0  0
  -21.1086  -13.1245   22.2630 H   0  0  0  0  0  0
  -24.6583  -15.8440   20.5360 H   0  0  0  0  0  0
  -26.2769  -15.6363   20.0984 H   0  0  0  0  0  0
  -26.7108  -32.5545   23.1158 H   0  0  0  0  0  0
  -25.0100  -33.9773   25.0520 H   0  0  0  0  0  0
  -22.6915  -31.3054   21.4060 H   0  0  0  0  0  0
  -23.3740  -35.9659   23.3308 H   0  0  0  0  0  0
  -24.3570  -36.8922   22.2037 H   0  0  0  0  0  0
  -23.7254  -37.6531   23.6632 H   0  0  0  0  0  0
  -26.0384  -31.5931   20.5871 H   0  0  0  0  0  0
  -26.8182  -30.8926   21.9785 H   0  0  0  0  0  0
  -28.1042  -29.1038   21.1671 H   0  0  0  0  0  0
  -26.0816  -25.9795   18.9936 H   0  0  0  0  0  0
  -23.9841  -27.2916   19.0321 H   0  0  0  0  0  0
  -23.7227  -30.5915   19.4014 H   0  0  0  0  0  0
  -22.7392  -29.2373   19.8675 H   0  0  0  0  0  0
  -25.1285  -36.1972   25.0825 H   0  0  0  0  0  0
  -20.9978  -28.3197   24.1414 H   0  0  0  0  0  0
  -20.5653  -26.2235   23.3547 H   0  0  0  0  0  0
  -21.6661  -26.7459   22.1194 H   0  0  0  0  0  0
  -19.6922  -25.6302   21.1175 H   0  0  0  0  0  0
  -19.6739  -27.3210   20.6702 H   0  0  0  0  0  0
  -17.4238  -26.6741   21.3885 H   0  0  0  0  0  0
  -18.0250  -26.0025   22.8873 H   0  0  0  0  0  0
  -19.7915  -30.7190   24.2347 H   0  0  0  0  0  0
  -17.5017  -31.6226   24.5178 H   0  0  0  0  0  0
  -15.5349  -30.2980   23.7625 H   0  0  0  0  0  0
  -15.8663  -28.0819   22.7013 H   0  0  0  0  0  0
  -24.5925  -30.7034   25.7817 H   0  0  0  0  0  0
  -24.8938  -32.2858   26.4915 H   0  0  0  0  0  0
  -25.8114  -30.8886   27.0237 H   0  0  0  0  0  0
  -26.2835  -29.6813   24.1104 H   0  0  0  0  0  0
  -27.4062  -29.7236   25.4494 H   0  0  0  0  0  0
  -27.8665  -30.4353   23.9206 H   0  0  0  0  0  0
  -27.2680  -33.3584   26.2095 H   0  0  0  0  0  0
  -28.3850  -32.6884   25.0304 H   0  0  0  0  0  0
  -28.0729  -31.8405   26.5373 H   0  0  0  0  0  0
  -28.2604  -38.0104   24.7506 H   0  0  0  0  0  0
  -28.1073  -36.2644   24.6294 H   0  0  0  0  0  0
  -27.2290  -37.1477   25.8857 H   0  0  0  0  0  0
  -20.9273  -29.8794   21.6981 H   0  0  0  0  0  0
  -26.0184  -38.2870   24.1426 H   0  0  0  0  0  0
  -30.4158  -18.8832   23.3686 H   0  0  0  0  0  0
  -29.2893  -21.0193   22.8921 H   0  0  0  0  0  0
  -29.4332  -17.4633   19.4154 H   0  0  0  0  0  0
  -25.5349  -22.8744   19.7888 H   0  0  0  0  0  0
  -24.7940  -22.6906   21.3711 H   0  0  0  0  0  0
  -26.1663  -20.6729   20.5908 H   0  0  0  0  0  0
  -26.6014  -21.2970   22.1628 H   0  0  0  0  0  0
  -30.1782  -23.7766   19.3791 H   0  0  0  0  0  0
  -30.3772  -22.0811   19.7177 H   0  0  0  0  0  0
  -30.7051  -23.2629   20.9873 H   0  0  0  0  0  0
  -31.7381  -16.8088   21.3238 H   0  0  0  0  0  0
  -30.8883  -16.6178   22.8257 H   0  0  0  0  0  0
  -28.0593  -25.9597   21.7675 H   0  0  0  0  0  0
  -28.1811  -25.2942   19.9227 H   0  0  0  0  0  0
  -27.8769  -18.8823   18.0992 H   0  0  0  0  0  0
  -27.5735  -20.4902   18.5712 H   0  0  0  0  0  0
  -29.1927  -15.2312   21.6734 H   0  0  0  0  0  0
  1 25  1  0  0  0
  1 30  2  0  0  0
  1 87  1  0  0  0
  2  3  1  0  0  0
  2 25  1  0  0  0
  2 89  1  0  0  0
  2 90  1  0  0  0
  3  4  1  0  0  0
  3 91  1  0  0  0
  3 92  1  0  0  0
  4  5  1  0  0  0
  4 93  1  0  0  0
  4 94  1  0  0  0
  5  6  1  0  0  0
  5 26  1  0  0  0
  5 95  1  0  0  0
  6 25  1  0  0  0
  6 96  1  0  0  0
  6 97  1  0  0  0
  7  8  2  0  0  0
  7 26  1  0  0  0
  7 29  1  0  0  0
  8  9  1  0  0  0
  8 22  1  0  0  0
  9 10  1  0  0  0
  9 27  2  0  0  0
 10 11  2  0  0  0
 10 15  1  0  0  0
 11 12  1  0  0  0
 11 98  1  0  0  0
 12 13  2  0  0  0
 12 99  1  0  0  0
 13 14  1  0  0  0
 13 31  1  0  0  0
 14 15  2  0  0  0
 14100  1  0  0  0
 15101  1  0  0  0
 16 17  2  0  0  0
 16 21  1  0  0  0
 16 31  1  0  0  0
 17 18  1  0  0  0
 17102  1  0  0  0
 18 19  2  0  0  0
 18103  1  0  0  0
 19 20  1  0  0  0
 19 24  1  0  0  0
 20 21  2  0  0  0
 20104  1  0  0  0
 21 23  1  0  0  0
 22 28  1  0  0  0
 22 32  2  0  0  0
 26 27  1  0  0  0
 28105  1  0  0  0
 28106  1  0  0  0
 29107  1  0  0  0
 29108  1  0  0  0
 33 34  1  0  0  0
 33 66  1  0  0  0
 33 70  2  0  0  0
 34 36  1  0  0  0
 34 59  1  0  0  0
 34109  1  0  0  0
 35 44  2  0  0  0
 35 45  1  0  0  0
 35 68  1  0  0  0
 36 56  1  0  0  0
 36110  1  0  0  0
 37 39  1  0  0  0
 37 47  1  0  0  0
 37 66  1  0  0  0
 37111  1  0  0  0
 38 43  2  0  0  0
 38 46  1  0  0  0
 38 47  1  0  0  0
 39 64  1  0  0  0
 39 67  2  0  0  0
 40 52  1  0  0  0
 40 53  2  0  0  0
 40 58  1  0  0  0
 41112  1  0  0  0
 41113  1  0  0  0
 41114  1  0  0  0
 41 48  1  0  0  0
 42 43  1  0  0  0
 42 66  1  0  0  0
 42115  1  0  0  0
 42116  1  0  0  0
 43 44  1  0  0  0
 44117  1  0  0  0
 45 46  2  0  0  0
 45118  1  0  0  0
 46119  1  0  0  0
 47120  1  0  0  0
 47121  1  0  0  0
 48 56  1  0  0  0
 48 65  1  0  0  0
 48122  1  0  0  0
 49 50  1  0  0  0
 49 53  1  0  0  0
 49 64  1  0  0  0
 49123  1  0  0  0
 50 51  1  0  0  0
 50124  1  0  0  0
 50125  1  0  0  0
 51 52  1  0  0  0
 51126  1  0  0  0
 51127  1  0  0  0
 52128  1  0  0  0
 52129  1  0  0  0
 53 54  1  0  0  0
 54 55  2  0  0  0
 54130  1  0  0  0
 55 57  1  0  0  0
 55131  1  0  0  0
 56 69  2  0  0  0
 57 58  2  0  0  0
 57132  1  0  0  0
 58133  1  0  0  0
 59 60  1  0  0  0
 59 61  1  0  0  0
 59 62  1  0  0  0
 60134  1  0  0  0
 60135  1  0  0  0
 60136  1  0  0  0
 61137  1  0  0  0
 61138  1  0  0  0
 61139  1  0  0  0
 62140  1  0  0  0
 62141  1  0  0  0
 62142  1  0  0  0
 63 65  1  0  0  0
 63143  1  0  0  0
 63144  1  0  0  0
 63145  1  0  0  0
 64146  1  0  0  0
 65147  1  0  0  0
 68 84  1  0  0  0
 71 72  2  0  0  0
 71 74  1  0  0  0
 71148  1  0  0  0
 72 75  1  0  0  0
 72149  1  0  0  0
 73 74  2  0  0  0
 73 76  1  0  0  0
 73150  1  0  0  0
 74 83  1  0  0  0
 75 76  2  0  0  0
 75 85  1  0  0  0
 76 86  1  0  0  0
 77 78  2  0  0  0
 77 79  1  0  0  0
 77 84  1  0  0  0
 78 82  1  0  0  0
 78 85  1  0  0  0
 79 80  1  0  0  0
 79 88  2  0  0  0
 80 81  1  0  0  0
 80151  1  0  0  0
 80152  1  0  0  0
 81 85  1  0  0  0
 81153  1  0  0  0
 81154  1  0  0  0
 82155  1  0  0  0
 82156  1  0  0  0
 82157  1  0  0  0
 83 87  1  0  0  0
 83158  1  0  0  0
 83159  1  0  0  0
 84160  1  0  0  0
 84161  1  0  0  0
 86162  1  0  0  0
 86163  1  0  0  0
 87164  1  0  0  0
M  ISO  4   1 100  68 101  84 101  87 100
M  END
> <chiral flag>
0

> <version>
0

> <s_m_source_file>
/data/baiqing/PycharmProjects/Reinvent-master-3.2/result/LINK_invent/BTK/process_docking_weight1_custom_product_contain_oxygen_bond_distance_aromatic_linkinvent_7_9_3/rearranged_h_0108.sdf

> <i_m_source_file_index>
56

> <r_mmod_Potential_Energy-OPLS-2005>
139.665908813477

> <r_mmod_Stretch_Energy-OPLS-2005>
46.914680480957

> <r_mmod_Bend_Energy-OPLS-2005>
333.273956298828

> <r_mmod_Torsional_Energy-OPLS-2005>
235.204010009766

> <r_mmod_Improper_Torsional_Energy-OPLS-2005>
7.69073343276978

> <r_mmod_Van_der_Waal_Energy-OPLS-2005>
176.637619018555

> <r_mmod_Electrostatic_Energy-OPLS-2005>
-442.669647216797

> <r_mmod_Solvation_Energy-OPLS-2005>
-228.88932800293

> <b_mmod_Minimization_Converged-OPLS-2005>
0

> <r_mmod_RMS_Derivative-OPLS-2005>
2.7404465675354

$$$$
57
                    3D
 Structure written by MMmdl.
164172  0  0  1  0            999 V2000
  -30.7114  -14.4909   20.5896 C   0  0  0  0  0  0
  -30.4174  -12.3304   19.4216 C   0  0  0  0  0  0
  -29.4901  -12.5078   18.2036 C   0  0  0  0  0  0
  -28.0142  -12.3598   18.6188 C   0  0  0  0  0  0
  -27.6558  -13.2099   19.8675 C   0  0  2  0  0  0
  -28.6972  -13.0169   20.9903 C   0  0  0  0  0  0
  -25.2570  -13.8174   20.5681 C   0  0  0  0  0  0
  -24.1830  -13.0445   20.9181 C   0  0  0  0  0  0
  -24.6383  -11.6911   20.8727 C   0  0  0  0  0  0
  -23.9051  -10.4295   21.0395 C   0  0  0  0  0  0
  -24.3608   -9.4219   21.9179 C   0  0  0  0  0  0
  -23.6290   -8.2250   22.0748 C   0  0  0  0  0  0
  -22.4277   -8.0279   21.3535 C   0  0  0  0  0  0
  -21.9901   -9.0248   20.4641 C   0  0  0  0  0  0
  -22.7218  -10.2135   20.3049 C   0  0  0  0  0  0
  -21.6857   -6.0734   22.5278 C   0  0  0  0  0  0
  -21.4015   -6.5637   23.8213 C   0  0  0  0  0  0
  -21.3663   -5.6787   24.9174 C   0  0  0  0  0  0
  -21.6047   -4.3048   24.7227 C   0  0  0  0  0  0
  -21.8822   -3.8145   23.4345 C   0  0  0  0  0  0
  -21.9198   -4.6961   22.3402 C   0  0  0  0  0  0
  -22.7855  -13.5244   21.1847 C   0  0  0  0  0  0
  -22.1666   -4.2148   21.0978 F   0  0  0  0  0  0
  -21.5630   -3.4533   25.7739 F   0  0  0  0  0  0
  -30.0223  -13.3272   20.4315 N   0  0  0  0  0  0
  -26.2995  -12.9342   20.3340 N   0  0  0  0  0  0
  -25.9307  -11.6502   20.5746 N   0  0  0  0  0  0
  -22.0493  -12.8238   22.0400 N   0  0  0  0  0  0
  -25.4316  -15.1895   20.4102 N   0  0  0  0  0  0
  -31.8368  -14.6582   20.1108 O   0  0  0  0  0  0
  -21.6644   -6.8875   21.4237 O   0  0  0  0  0  0
  -22.3543  -14.5547   20.6690 O   0  0  0  0  0  0
  -24.6181  -31.8658   23.2092 C   0  0  0  0  0  0
  -25.9066  -32.4810   23.8385 C   0  0  1  0  0  0
  -27.2238  -27.3971   20.1034 C   0  0  0  0  0  0
  -25.5902  -33.8606   24.2313 N   0  0  0  0  0  0
  -23.4062  -30.4931   21.5498 C   0  0  2  0  0  0
  -24.8510  -28.9574   20.1117 C   0  0  0  0  0  0
  -22.7418  -29.4671   22.4970 C   0  0  0  0  0  0
  -18.0275  -28.1388   22.8489 C   0  0  0  0  0  0
  -24.1485  -36.7314   23.2641 C   0  0  0  0  0  0
  -25.9410  -30.8196   21.3701 C   0  0  0  0  0  0
  -26.0148  -29.4550   20.7105 C   0  0  0  0  0  0
  -27.2042  -28.6841   20.6996 C   0  0  0  0  0  0
  -26.0374  -26.9281   19.4901 C   0  0  0  0  0  0
  -24.8597  -27.6957   19.4971 C   0  0  0  0  0  0
  -23.6162  -29.8290   20.1634 C   0  0  0  0  0  0
  -25.4108  -36.3103   24.0336 C   0  0  1  0  0  0
  -20.5868  -28.3678   23.1307 C   0  0  2  0  0  0
  -20.6766  -26.9411   22.5414 C   0  0  0  0  0  0
  -19.5744  -26.6389   21.5214 C   0  0  0  0  0  0
  -18.1925  -26.7934   22.1630 C   0  0  0  0  0  0
  -19.1524  -28.8848   23.2900 C   0  0  0  0  0  0
  -18.9454  -30.1450   23.8919 C   0  0  0  0  0  0
  -17.6460  -30.6588   24.0571 C   0  0  0  0  0  0
  -25.9036  -34.9467   23.5126 C   0  0  0  0  0  0
  -16.5348  -29.9090   23.6330 C   0  0  0  0  0  0
  -16.7265  -28.6507   23.0351 C   0  0  0  0  0  0
  -26.4491  -31.6602   25.0726 C   0  0  0  0  0  0
  -25.3746  -31.3723   26.1472 C   0  0  0  0  0  0
  -27.0343  -30.3034   24.6150 C   0  0  0  0  0  0
  -27.6054  -32.4338   25.7487 C   0  0  0  0  0  0
  -27.5586  -37.1813   24.8458 C   0  0  0  0  0  0
  -21.4139  -29.3050   22.3704 N   0  0  0  0  0  0
  -26.4289  -37.3788   23.9411 N   0  0  0  0  0  0
  -24.6734  -31.0744   22.1008 N   0  0  0  0  0  0
  -23.4189  -28.8194   23.3005 O   0  0  0  0  0  0
  -28.3771  -26.6261   20.1431 O   0  0  0  0  0  0
  -26.5603  -34.8919   22.4690 O   0  0  0  0  0  0
  -23.5364  -32.1425   23.7472 O   0  0  0  0  0  0
  -30.3513  -19.1033   22.4773 C   0  0  0  0  0  0
  -29.3107  -18.4108   20.4057 C   0  0  0  0  0  0
  -30.0893  -18.0827   21.5377 C   0  0  0  0  0  0
  -29.8803  -20.4240   22.2955 C   0  0  0  0  0  0
  -28.8112  -19.7265   20.2114 C   0  0  0  0  0  0
  -29.1261  -20.7614   21.1437 C   0  0  0  0  0  0
  -26.8510  -20.6924   19.2620 C   0  0  0  0  0  0
  -30.7402  -16.7035   21.7604 C   0  0  0  0  0  0
  -30.2182  -21.4752   23.3472 C   0  0  0  0  0  0
  -29.4908  -24.4042   20.4308 C   0  0  0  0  0  0
  -28.2325  -25.1914   19.9824 C   0  0  0  0  0  0
  -29.5214  -22.8776   20.1057 C   0  0  0  0  0  0
  -30.0779  -15.4916   21.2387 N   0  0  0  0  0  0
  -29.2693  -21.4471   24.4683 N   0  3  0  0  0  0
  -28.0416  -19.9322   19.0890 O   0  0  0  0  0  0
  -28.7093  -22.0749   20.9780 O   0  0  0  0  0  0
  -31.4607  -12.4299   19.1172 H   0  0  0  0  0  0
  -30.3228  -11.3234   19.8315 H   0  0  0  0  0  0
  -29.7371  -11.7768   17.4330 H   0  0  0  0  0  0
  -29.6502  -13.4907   17.7576 H   0  0  0  0  0  0
  -27.8339  -11.3037   18.8241 H   0  0  0  0  0  0
  -27.3612  -12.6211   17.7846 H   0  0  0  0  0  0
  -27.6930  -14.2546   19.5581 H   0  0  0  0  0  0
  -28.6832  -11.9866   21.3474 H   0  0  0  0  0  0
  -28.4506  -13.6299   21.8575 H   0  0  0  0  0  0
  -25.2756   -9.5710   22.4746 H   0  0  0  0  0  0
  -24.0016   -7.4646   22.7459 H   0  0  0  0  0  0
  -21.0840   -8.8746   19.8943 H   0  0  0  0  0  0
  -22.3663  -10.9665   19.6154 H   0  0  0  0  0  0
  -21.1994   -7.6142   23.9717 H   0  0  0  0  0  0
  -21.1488   -6.0515   25.9079 H   0  0  0  0  0  0
  -22.0598   -2.7607   23.2846 H   0  0  0  0  0  0
  -22.4111  -11.9904   22.4790 H   0  0  0  0  0  0
  -21.1099  -13.1258   22.2579 H   0  0  0  0  0  0
  -24.6682  -15.8481   20.5192 H   0  0  0  0  0  0
  -26.2883  -15.6256   20.0915 H   0  0  0  0  0  0
  -26.7137  -32.5502   23.1141 H   0  0  0  0  0  0
  -25.0030  -33.9765   25.0442 H   0  0  0  0  0  0
  -22.6964  -31.3117   21.4105 H   0  0  0  0  0  0
  -23.3743  -35.9652   23.3313 H   0  0  0  0  0  0
  -24.3571  -36.8919   22.2051 H   0  0  0  0  0  0
  -23.7250  -37.6521   23.6657 H   0  0  0  0  0  0
  -26.0660  -31.5890   20.6076 H   0  0  0  0  0  0
  -26.8246  -30.8640   21.9951 H   0  0  0  0  0  0
  -28.0986  -29.0626   21.1748 H   0  0  0  0  0  0
  -25.9945  -25.9650   19.0034 H   0  0  0  0  0  0
  -23.9655  -27.3086   19.0273 H   0  0  0  0  0  0
  -23.7270  -30.6057   19.4053 H   0  0  0  0  0  0
  -22.7396  -29.2512   19.8659 H   0  0  0  0  0  0
  -25.1297  -36.1957   25.0830 H   0  0  0  0  0  0
  -20.9966  -28.3242   24.1427 H   0  0  0  0  0  0
  -20.5676  -26.2283   23.3600 H   0  0  0  0  0  0
  -21.6636  -26.7454   22.1212 H   0  0  0  0  0  0
  -19.6904  -25.6300   21.1245 H   0  0  0  0  0  0
  -19.6697  -27.3197   20.6745 H   0  0  0  0  0  0
  -17.4201  -26.6682   21.4029 H   0  0  0  0  0  0
  -18.0329  -26.0072   22.9025 H   0  0  0  0  0  0
  -19.7931  -30.7250   24.2310 H   0  0  0  0  0  0
  -17.5019  -31.6280   24.5154 H   0  0  0  0  0  0
  -15.5354  -30.3012   23.7636 H   0  0  0  0  0  0
  -15.8661  -28.0834   22.7065 H   0  0  0  0  0  0
  -24.5882  -30.7131   25.7789 H   0  0  0  0  0  0
  -24.8994  -32.2894   26.4977 H   0  0  0  0  0  0
  -25.8085  -30.8833   27.0203 H   0  0  0  0  0  0
  -26.2919  -29.6745   24.1213 H   0  0  0  0  0  0
  -27.4132  -29.7309   25.4631 H   0  0  0  0  0  0
  -27.8742  -30.4360   23.9317 H   0  0  0  0  0  0
  -27.2660  -33.3613   26.2116 H   0  0  0  0  0  0
  -28.3812  -32.6942   25.0283 H   0  0  0  0  0  0
  -28.0771  -31.8444   26.5359 H   0  0  0  0  0  0
  -28.2604  -38.0108   24.7496 H   0  0  0  0  0  0
  -28.1084  -36.2639   24.6299 H   0  0  0  0  0  0
  -27.2301  -37.1465   25.8857 H   0  0  0  0  0  0
  -20.9284  -29.8770   21.6933 H   0  0  0  0  0  0
  -26.0180  -38.2871   24.1396 H   0  0  0  0  0  0
  -30.9512  -18.8733   23.3467 H   0  0  0  0  0  0
  -29.0956  -17.6482   19.6709 H   0  0  0  0  0  0
  -26.3928  -20.5261   20.2392 H   0  0  0  0  0  0
  -27.0278  -21.7584   19.1278 H   0  0  0  0  0  0
  -26.1234  -20.3951   18.5069 H   0  0  0  0  0  0
  -30.8476  -16.5490   22.8347 H   0  0  0  0  0  0
  -31.7608  -16.7810   21.3814 H   0  0  0  0  0  0
  -30.2272  -22.4727   22.9102 H   0  0  0  0  0  0
  -31.2277  -21.3046   23.7245 H   0  0  0  0  0  0
  -29.6615  -24.5551   21.4959 H   0  0  0  0  0  0
  -30.3455  -24.8581   19.9289 H   0  0  0  0  0  0
  -27.3826  -24.8256   20.5619 H   0  0  0  0  0  0
  -28.0291  -24.9712   18.9338 H   0  0  0  0  0  0
  -30.5586  -22.5435   20.1850 H   0  0  0  0  0  0
  -29.2315  -22.7068   19.0697 H   0  0  0  0  0  0
  -29.1380  -15.3085   21.5532 H   0  0  0  0  0  0
  -28.3371  -21.6320   24.1459 H   0  0  0  0  0  0
  -29.5215  -22.1483   25.1417 H   0  0  0  0  0  0
  -29.2883  -20.5534   24.9228 H   0  0  0  0  0  0
  1 25  1  0  0  0
  1 30  2  0  0  0
  1 83  1  0  0  0
  2  3  1  0  0  0
  2 25  1  0  0  0
  2 87  1  0  0  0
  2 88  1  0  0  0
  3  4  1  0  0  0
  3 89  1  0  0  0
  3 90  1  0  0  0
  4  5  1  0  0  0
  4 91  1  0  0  0
  4 92  1  0  0  0
  5  6  1  0  0  0
  5 26  1  0  0  0
  5 93  1  0  0  0
  6 25  1  0  0  0
  6 94  1  0  0  0
  6 95  1  0  0  0
  7  8  2  0  0  0
  7 26  1  0  0  0
  7 29  1  0  0  0
  8  9  1  0  0  0
  8 22  1  0  0  0
  9 10  1  0  0  0
  9 27  2  0  0  0
 10 11  2  0  0  0
 10 15  1  0  0  0
 11 12  1  0  0  0
 11 96  1  0  0  0
 12 13  2  0  0  0
 12 97  1  0  0  0
 13 14  1  0  0  0
 13 31  1  0  0  0
 14 15  2  0  0  0
 14 98  1  0  0  0
 15 99  1  0  0  0
 16 17  2  0  0  0
 16 21  1  0  0  0
 16 31  1  0  0  0
 17 18  1  0  0  0
 17100  1  0  0  0
 18 19  2  0  0  0
 18101  1  0  0  0
 19 20  1  0  0  0
 19 24  1  0  0  0
 20 21  2  0  0  0
 20102  1  0  0  0
 21 23  1  0  0  0
 22 28  1  0  0  0
 22 32  2  0  0  0
 26 27  1  0  0  0
 28103  1  0  0  0
 28104  1  0  0  0
 29105  1  0  0  0
 29106  1  0  0  0
 33 34  1  0  0  0
 33 66  1  0  0  0
 33 70  2  0  0  0
 34 36  1  0  0  0
 34 59  1  0  0  0
 34107  1  0  0  0
 35 44  2  0  0  0
 35 45  1  0  0  0
 35 68  1  0  0  0
 36 56  1  0  0  0
 36108  1  0  0  0
 37 39  1  0  0  0
 37 47  1  0  0  0
 37 66  1  0  0  0
 37109  1  0  0  0
 38 43  2  0  0  0
 38 46  1  0  0  0
 38 47  1  0  0  0
 39 64  1  0  0  0
 39 67  2  0  0  0
 40 52  1  0  0  0
 40 53  2  0  0  0
 40 58  1  0  0  0
 41110  1  0  0  0
 41111  1  0  0  0
 41112  1  0  0  0
 41 48  1  0  0  0
 42 43  1  0  0  0
 42 66  1  0  0  0
 42113  1  0  0  0
 42114  1  0  0  0
 43 44  1  0  0  0
 44115  1  0  0  0
 45 46  2  0  0  0
 45116  1  0  0  0
 46117  1  0  0  0
 47118  1  0  0  0
 47119  1  0  0  0
 48 56  1  0  0  0
 48 65  1  0  0  0
 48120  1  0  0  0
 49 50  1  0  0  0
 49 53  1  0  0  0
 49 64  1  0  0  0
 49121  1  0  0  0
 50 51  1  0  0  0
 50122  1  0  0  0
 50123  1  0  0  0
 51 52  1  0  0  0
 51124  1  0  0  0
 51125  1  0  0  0
 52126  1  0  0  0
 52127  1  0  0  0
 53 54  1  0  0  0
 54 55  2  0  0  0
 54128  1  0  0  0
 55 57  1  0  0  0
 55129  1  0  0  0
 56 69  2  0  0  0
 57 58  2  0  0  0
 57130  1  0  0  0
 58131  1  0  0  0
 59 60  1  0  0  0
 59 61  1  0  0  0
 59 62  1  0  0  0
 60132  1  0  0  0
 60133  1  0  0  0
 60134  1  0  0  0
 61135  1  0  0  0
 61136  1  0  0  0
 61137  1  0  0  0
 62138  1  0  0  0
 62139  1  0  0  0
 62140  1  0  0  0
 63 65  1  0  0  0
 63141  1  0  0  0
 63142  1  0  0  0
 63143  1  0  0  0
 64144  1  0  0  0
 65145  1  0  0  0
 68 81  1  0  0  0
 71 73  2  0  0  0
 71 74  1  0  0  0
 71146  1  0  0  0
 72 73  1  0  0  0
 72 75  2  0  0  0
 72147  1  0  0  0
 73 78  1  0  0  0
 74 76  2  0  0  0
 74 79  1  0  0  0
 75 76  1  0  0  0
 75 85  1  0  0  0
 76 86  1  0  0  0
 77 85  1  0  0  0
 77148  1  0  0  0
 77149  1  0  0  0
 77150  1  0  0  0
 78 83  1  0  0  0
 78151  1  0  0  0
 78152  1  0  0  0
 79 84  1  0  0  0
 79153  1  0  0  0
 79154  1  0  0  0
 80 81  1  0  0  0
 80 82  1  0  0  0
 80155  1  0  0  0
 80156  1  0  0  0
 81157  1  0  0  0
 81158  1  0  0  0
 82 86  1  0  0  0
 82159  1  0  0  0
 82160  1  0  0  0
 83161  1  0  0  0
 84162  1  0  0  0
 84163  1  0  0  0
 84164  1  0  0  0
M  CHG  1  84   1
M  ISO  4   1 100  68 101  81 101  83 100
M  END
> <chiral flag>
0

> <version>
0

> <s_m_source_file>
/data/baiqing/PycharmProjects/Reinvent-master-3.2/result/LINK_invent/BTK/process_docking_weight1_custom_product_contain_oxygen_bond_distance_aromatic_linkinvent_7_9_3/rearranged_h_0108.sdf

> <i_m_source_file_index>
57

> <r_mmod_Potential_Energy-OPLS-2005>
-373.371856689453

> <r_mmod_Stretch_Energy-OPLS-2005>
44.8765830993652

> <r_mmod_Bend_Energy-OPLS-2005>
108.895439147949

> <r_mmod_Torsional_Energy-OPLS-2005>
236.633697509766

> <r_mmod_Improper_Torsional_Energy-OPLS-2005>
2.59425139427185

> <r_mmod_Van_der_Waal_Energy-OPLS-2005>
152.220260620117

> <r_mmod_Electrostatic_Energy-OPLS-2005>
-427.045532226562

> <r_mmod_Solvation_Energy-OPLS-2005>
-509.719879150391

> <b_mmod_Minimization_Converged-OPLS-2005>
0

> <r_mmod_RMS_Derivative-OPLS-2005>
1.72814691066742

$$$$
58
                    3D
 Structure written by MMmdl.
161169  0  0  1  0            999 V2000
  -30.7420  -14.4426   20.6536 C   0  0  0  0  0  0
  -30.4225  -12.3189   19.4256 C   0  0  0  0  0  0
  -29.4961  -12.5264   18.2099 C   0  0  0  0  0  0
  -28.0173  -12.3642   18.6124 C   0  0  0  0  0  0
  -27.6620  -13.1861   19.8762 C   0  0  2  0  0  0
  -28.6954  -12.9477   20.9957 C   0  0  0  0  0  0
  -25.2626  -13.8114   20.5666 C   0  0  0  0  0  0
  -24.1842  -13.0419   20.9143 C   0  0  0  0  0  0
  -24.6366  -11.6876   20.8712 C   0  0  0  0  0  0
  -23.9030  -10.4278   21.0401 C   0  0  0  0  0  0
  -24.3593   -9.4209   21.9185 C   0  0  0  0  0  0
  -23.6276   -8.2240   22.0758 C   0  0  0  0  0  0
  -22.4262   -8.0274   21.3548 C   0  0  0  0  0  0
  -21.9889   -9.0237   20.4641 C   0  0  0  0  0  0
  -22.7207  -10.2119   20.3046 C   0  0  0  0  0  0
  -21.6848   -6.0733   22.5281 C   0  0  0  0  0  0
  -21.4007   -6.5633   23.8215 C   0  0  0  0  0  0
  -21.3653   -5.6789   24.9178 C   0  0  0  0  0  0
  -21.6044   -4.3052   24.7229 C   0  0  0  0  0  0
  -21.8818   -3.8146   23.4349 C   0  0  0  0  0  0
  -21.9187   -4.6964   22.3405 C   0  0  0  0  0  0
  -22.7877  -13.5241   21.1827 C   0  0  0  0  0  0
  -22.1660   -4.2150   21.0982 F   0  0  0  0  0  0
  -21.5630   -3.4541   25.7744 F   0  0  0  0  0  0
  -30.0385  -13.2801   20.4774 N   0  0  0  0  0  0
  -26.3015  -12.9223   20.3337 N   0  0  0  0  0  0
  -25.9278  -11.6403   20.5722 N   0  0  0  0  0  0
  -22.0507  -12.8235   22.0379 N   0  0  0  0  0  0
  -25.4439  -15.1832   20.4144 N   0  0  0  0  0  0
  -31.7712  -14.6969   20.0168 O   0  0  0  0  0  0
  -21.6626   -6.8873   21.4243 O   0  0  0  0  0  0
  -22.3574  -14.5562   20.6697 O   0  0  0  0  0  0
  -24.6137  -31.8682   23.2105 C   0  0  0  0  0  0
  -25.9031  -32.4821   23.8398 C   0  0  1  0  0  0
  -27.2386  -27.4366   20.0838 C   0  0  0  0  0  0
  -25.5896  -33.8622   24.2327 N   0  0  0  0  0  0
  -23.4007  -30.4917   21.5515 C   0  0  2  0  0  0
  -24.8461  -28.9580   20.1137 C   0  0  0  0  0  0
  -22.7391  -29.4662   22.4999 C   0  0  0  0  0  0
  -18.0265  -28.1372   22.8503 C   0  0  0  0  0  0
  -24.1483  -36.7303   23.2636 C   0  0  0  0  0  0
  -25.9291  -30.8319   21.3643 C   0  0  0  0  0  0
  -26.0042  -29.4652   20.7137 C   0  0  0  0  0  0
  -27.1971  -28.7073   20.7042 C   0  0  0  0  0  0
  -26.0562  -26.9428   19.4838 C   0  0  0  0  0  0
  -24.8659  -27.6937   19.5009 C   0  0  0  0  0  0
  -23.6082  -29.8246   20.1656 C   0  0  0  0  0  0
  -25.4104  -36.3110   24.0337 C   0  0  1  0  0  0
  -20.5852  -28.3663   23.1328 C   0  0  2  0  0  0
  -20.6763  -26.9403   22.5421 C   0  0  0  0  0  0
  -19.5739  -26.6391   21.5219 C   0  0  0  0  0  0
  -18.1911  -26.7927   22.1620 C   0  0  0  0  0  0
  -19.1513  -28.8832   23.2915 C   0  0  0  0  0  0
  -18.9447  -30.1436   23.8929 C   0  0  0  0  0  0
  -17.6451  -30.6584   24.0572 C   0  0  0  0  0  0
  -25.9040  -34.9477   23.5134 C   0  0  0  0  0  0
  -16.5344  -29.9091   23.6329 C   0  0  0  0  0  0
  -16.7254  -28.6501   23.0362 C   0  0  0  0  0  0
  -26.4473  -31.6589   25.0719 C   0  0  0  0  0  0
  -25.3742  -31.3655   26.1459 C   0  0  0  0  0  0
  -27.0321  -30.3047   24.6069 C   0  0  0  0  0  0
  -27.6044  -32.4314   25.7485 C   0  0  0  0  0  0
  -27.5587  -37.1797   24.8456 C   0  0  0  0  0  0
  -21.4119  -29.3037   22.3739 N   0  0  0  0  0  0
  -26.4281  -37.3806   23.9430 N   0  0  0  0  0  0
  -24.6659  -31.0785   22.1006 N   0  0  0  0  0  0
  -23.4164  -28.8206   23.3041 O   0  0  0  0  0  0
  -28.4298  -26.7332   20.1109 O   0  0  0  0  0  0
  -26.5609  -34.8930   22.4699 O   0  0  0  0  0  0
  -23.5334  -32.1438   23.7503 O   0  0  0  0  0  0
  -31.0948  -19.2091   21.6105 C   0  0  0  0  0  0
  -29.3329  -18.7678   20.0063 C   0  0  0  0  0  0
  -30.2852  -16.8978   21.2963 C   0  0  0  0  0  0
  -31.1550  -17.8337   21.9343 C   0  0  0  0  0  0
  -30.1615  -19.6910   20.6753 C   0  0  0  0  0  0
  -29.3961  -17.3773   20.2910 C   0  0  0  0  0  0
  -29.2991  -23.2081   19.8372 C   0  0  0  0  0  0
  -30.2586  -15.4486   21.7078 C   0  0  0  0  0  0
  -28.4183  -24.2403   19.8819 C   0  0  0  0  0  0
  -29.0355  -21.8772   20.3849 C   0  0  0  0  0  0
  -32.1782  -17.3969   22.9760 C   0  0  0  0  0  0
  -28.0116  -16.8525   18.3948 C   0  0  0  0  0  0
  -28.6445  -25.6140   19.2373 C   0  0  0  0  0  0
  -29.9255  -15.1261   22.8914 N   0  0  0  0  0  0
  -30.1217  -21.0815   20.3641 N   0  0  0  0  0  0
  -27.9430  -21.5029   20.8237 O   0  0  0  0  0  0
  -27.2172  -24.1840   20.4819 O   0  0  0  0  0  0
  -28.5940  -16.4657   19.6357 O   0  0  0  0  0  0
  -31.4670  -12.4198   19.1257 H   0  0  0  0  0  0
  -30.3301  -11.2992   19.8035 H   0  0  0  0  0  0
  -29.7472  -11.8166   17.4206 H   0  0  0  0  0  0
  -29.6578  -13.5211   17.7916 H   0  0  0  0  0  0
  -27.8332  -11.3045   18.7957 H   0  0  0  0  0  0
  -27.3679  -12.6464   17.7822 H   0  0  0  0  0  0
  -27.7089  -14.2312   19.5923 H   0  0  0  0  0  0
  -28.6785  -11.9010   21.3034 H   0  0  0  0  0  0
  -28.3935  -13.4984   21.8814 H   0  0  0  0  0  0
  -25.2737   -9.5689   22.4761 H   0  0  0  0  0  0
  -23.9986   -7.4633   22.7475 H   0  0  0  0  0  0
  -21.0828   -8.8743   19.8943 H   0  0  0  0  0  0
  -22.3668  -10.9655   19.6149 H   0  0  0  0  0  0
  -21.1998   -7.6141   23.9720 H   0  0  0  0  0  0
  -21.1476   -6.0521   25.9080 H   0  0  0  0  0  0
  -22.0605   -2.7609   23.2852 H   0  0  0  0  0  0
  -22.4089  -11.9868   22.4737 H   0  0  0  0  0  0
  -21.1134  -13.1284   22.2590 H   0  0  0  0  0  0
  -24.6934  -15.8511   20.5512 H   0  0  0  0  0  0
  -26.3282  -15.6179   20.1800 H   0  0  0  0  0  0
  -26.7099  -32.5536   23.1161 H   0  0  0  0  0  0
  -25.0045  -33.9790   25.0472 H   0  0  0  0  0  0
  -22.6899  -31.3085   21.4130 H   0  0  0  0  0  0
  -23.3769  -35.9609   23.3257 H   0  0  0  0  0  0
  -24.3597  -36.8965   22.2062 H   0  0  0  0  0  0
  -23.7198  -37.6478   23.6678 H   0  0  0  0  0  0
  -26.0393  -31.5965   20.5939 H   0  0  0  0  0  0
  -26.8186  -30.8883   21.9798 H   0  0  0  0  0  0
  -28.0909  -29.0979   21.1702 H   0  0  0  0  0  0
  -26.0280  -25.9718   19.0128 H   0  0  0  0  0  0
  -23.9724  -27.2937   19.0421 H   0  0  0  0  0  0
  -23.7144  -30.6000   19.4061 H   0  0  0  0  0  0
  -22.7321  -29.2442   19.8711 H   0  0  0  0  0  0
  -25.1273  -36.1971   25.0826 H   0  0  0  0  0  0
  -20.9944  -28.3229   24.1445 H   0  0  0  0  0  0
  -20.5680  -26.2268   23.3601 H   0  0  0  0  0  0
  -21.6636  -26.7455   22.1204 H   0  0  0  0  0  0
  -19.6908  -25.6308   21.1233 H   0  0  0  0  0  0
  -19.6671  -27.3225   20.6767 H   0  0  0  0  0  0
  -17.4181  -26.6679   21.4015 H   0  0  0  0  0  0
  -18.0302  -26.0051   22.8996 H   0  0  0  0  0  0
  -19.7920  -30.7247   24.2309 H   0  0  0  0  0  0
  -17.5003  -31.6270   24.5167 H   0  0  0  0  0  0
  -15.5346  -30.3012   23.7629 H   0  0  0  0  0  0
  -15.8648  -28.0833   22.7078 H   0  0  0  0  0  0
  -24.5927  -30.6998   25.7772 H   0  0  0  0  0  0
  -24.8921  -32.2791   26.4949 H   0  0  0  0  0  0
  -25.8105  -30.8784   27.0187 H   0  0  0  0  0  0
  -26.2861  -29.6789   24.1154 H   0  0  0  0  0  0
  -27.4156  -29.7292   25.4504 H   0  0  0  0  0  0
  -27.8655  -30.4396   23.9171 H   0  0  0  0  0  0
  -27.2674  -33.3628   26.2045 H   0  0  0  0  0  0
  -28.3867  -32.6845   25.0317 H   0  0  0  0  0  0
  -28.0685  -31.8437   26.5416 H   0  0  0  0  0  0
  -28.2546  -38.0153   24.7611 H   0  0  0  0  0  0
  -28.1145  -36.2697   24.6150 H   0  0  0  0  0  0
  -27.2318  -37.1288   25.8855 H   0  0  0  0  0  0
  -20.9277  -29.8753   21.6958 H   0  0  0  0  0  0
  -26.0160  -38.2865   24.1497 H   0  0  0  0  0  0
  -31.7563  -19.9075   22.1052 H   0  0  0  0  0  0
  -28.6426  -19.1527   19.2706 H   0  0  0  0  0  0
  -30.2444  -23.3772   19.3402 H   0  0  0  0  0  0
  -32.8997  -18.1880   23.1836 H   0  0  0  0  0  0
  -32.7420  -16.5279   22.6348 H   0  0  0  0  0  0
  -31.6875  -17.1435   23.9162 H   0  0  0  0  0  0
  -27.5795  -15.9783   17.9076 H   0  0  0  0  0  0
  -28.7556  -17.2680   17.7130 H   0  0  0  0  0  0
  -27.2082  -17.5764   18.5361 H   0  0  0  0  0  0
  -28.0830  -25.6923   18.3057 H   0  0  0  0  0  0
  -29.6902  -25.6684   18.9323 H   0  0  0  0  0  0
  -29.6732  -15.9476   23.4271 H   0  0  0  0  0  0
  -31.0023  -21.5235   20.1375 H   0  0  0  0  0  0
  -27.1140  -23.3015   20.8265 H   0  0  0  0  0  0
  1 25  1  0  0  0
  1 30  2  0  0  0
  1 78  1  0  0  0
  2  3  1  0  0  0
  2 25  1  0  0  0
  2 89  1  0  0  0
  2 90  1  0  0  0
  3  4  1  0  0  0
  3 91  1  0  0  0
  3 92  1  0  0  0
  4  5  1  0  0  0
  4 93  1  0  0  0
  4 94  1  0  0  0
  5  6  1  0  0  0
  5 26  1  0  0  0
  5 95  1  0  0  0
  6 25  1  0  0  0
  6 96  1  0  0  0
  6 97  1  0  0  0
  7  8  2  0  0  0
  7 26  1  0  0  0
  7 29  1  0  0  0
  8  9  1  0  0  0
  8 22  1  0  0  0
  9 10  1  0  0  0
  9 27  2  0  0  0
 10 11  2  0  0  0
 10 15  1  0  0  0
 11 12  1  0  0  0
 11 98  1  0  0  0
 12 13  2  0  0  0
 12 99  1  0  0  0
 13 14  1  0  0  0
 13 31  1  0  0  0
 14 15  2  0  0  0
 14100  1  0  0  0
 15101  1  0  0  0
 16 17  2  0  0  0
 16 21  1  0  0  0
 16 31  1  0  0  0
 17 18  1  0  0  0
 17102  1  0  0  0
 18 19  2  0  0  0
 18103  1  0  0  0
 19 20  1  0  0  0
 19 24  1  0  0  0
 20 21  2  0  0  0
 20104  1  0  0  0
 21 23  1  0  0  0
 22 28  1  0  0  0
 22 32  2  0  0  0
 26 27  1  0  0  0
 28105  1  0  0  0
 28106  1  0  0  0
 29107  1  0  0  0
 29108  1  0  0  0
 33 34  1  0  0  0
 33 66  1  0  0  0
 33 70  2  0  0  0
 34 36  1  0  0  0
 34 59  1  0  0  0
 34109  1  0  0  0
 35 44  2  0  0  0
 35 45  1  0  0  0
 35 68  1  0  0  0
 36 56  1  0  0  0
 36110  1  0  0  0
 37 39  1  0  0  0
 37 47  1  0  0  0
 37 66  1  0  0  0
 37111  1  0  0  0
 38 43  2  0  0  0
 38 46  1  0  0  0
 38 47  1  0  0  0
 39 64  1  0  0  0
 39 67  2  0  0  0
 40 52  1  0  0  0
 40 53  2  0  0  0
 40 58  1  0  0  0
 41112  1  0  0  0
 41113  1  0  0  0
 41114  1  0  0  0
 41 48  1  0  0  0
 42 43  1  0  0  0
 42 66  1  0  0  0
 42115  1  0  0  0
 42116  1  0  0  0
 43 44  1  0  0  0
 44117  1  0  0  0
 45 46  2  0  0  0
 45118  1  0  0  0
 46119  1  0  0  0
 47120  1  0  0  0
 47121  1  0  0  0
 48 56  1  0  0  0
 48 65  1  0  0  0
 48122  1  0  0  0
 49 50  1  0  0  0
 49 53  1  0  0  0
 49 64  1  0  0  0
 49123  1  0  0  0
 50 51  1  0  0  0
 50124  1  0  0  0
 50125  1  0  0  0
 51 52  1  0  0  0
 51126  1  0  0  0
 51127  1  0  0  0
 52128  1  0  0  0
 52129  1  0  0  0
 53 54  1  0  0  0
 54 55  2  0  0  0
 54130  1  0  0  0
 55 57  1  0  0  0
 55131  1  0  0  0
 56 69  2  0  0  0
 57 58  2  0  0  0
 57132  1  0  0  0
 58133  1  0  0  0
 59 60  1  0  0  0
 59 61  1  0  0  0
 59 62  1  0  0  0
 60134  1  0  0  0
 60135  1  0  0  0
 60136  1  0  0  0
 61137  1  0  0  0
 61138  1  0  0  0
 61139  1  0  0  0
 62140  1  0  0  0
 62141  1  0  0  0
 62142  1  0  0  0
 63 65  1  0  0  0
 63143  1  0  0  0
 63144  1  0  0  0
 63145  1  0  0  0
 64146  1  0  0  0
 65147  1  0  0  0
 68 83  1  0  0  0
 71 74  2  0  0  0
 71 75  1  0  0  0
 71148  1  0  0  0
 72 75  2  0  0  0
 72 76  1  0  0  0
 72149  1  0  0  0
 73 74  1  0  0  0
 73 76  2  0  0  0
 73 78  1  0  0  0
 74 81  1  0  0  0
 75 85  1  0  0  0
 76 88  1  0  0  0
 77 79  2  0  0  0
 77 80  1  0  0  0
 77150  1  0  0  0
 78 84  2  0  0  0
 79 83  1  0  0  0
 79 87  1  0  0  0
 80 85  1  0  0  0
 80 86  2  0  0  0
 81151  1  0  0  0
 81152  1  0  0  0
 81153  1  0  0  0
 82 88  1  0  0  0
 82154  1  0  0  0
 82155  1  0  0  0
 82156  1  0  0  0
 83157  1  0  0  0
 83158  1  0  0  0
 84159  1  0  0  0
 85160  1  0  0  0
 87161  1  0  0  0
M  ISO  4   1 100  68 101  78 100  83 101
M  END
> <chiral flag>
0

> <version>
0

> <s_m_source_file>
/data/baiqing/PycharmProjects/Reinvent-master-3.2/result/LINK_invent/BTK/process_docking_weight1_custom_product_contain_oxygen_bond_distance_aromatic_linkinvent_7_9_3/rearranged_h_0108.sdf

> <i_m_source_file_index>
58

> <r_mmod_Potential_Energy-OPLS-2005>
129.727203369141

> <r_mmod_Stretch_Energy-OPLS-2005>
46.0441513061523

> <r_mmod_Bend_Energy-OPLS-2005>
117.729721069336

> <r_mmod_Torsional_Energy-OPLS-2005>
222.258178710938

> <r_mmod_Improper_Torsional_Energy-OPLS-2005>
2.58724927902222

> <r_mmod_Van_der_Waal_Energy-OPLS-2005>
167.787719726562

> <r_mmod_Electrostatic_Energy-OPLS-2005>
-219.391128540039

> <r_mmod_Solvation_Energy-OPLS-2005>
-217.977874755859

> <b_mmod_Minimization_Converged-OPLS-2005>
0

> <r_mmod_RMS_Derivative-OPLS-2005>
0.95039165019989

$$$$
59
                    3D
 Structure written by MMmdl.
161169  0  0  1  0            999 V2000
  -30.7193  -14.4005   20.5464 C   0  0  0  0  0  0
  -30.4220  -12.2591   19.3969 C   0  0  0  0  0  0
  -29.4936  -12.5144   18.1925 C   0  0  0  0  0  0
  -28.0116  -12.3859   18.6020 C   0  0  0  0  0  0
  -27.6665  -13.1987   19.8782 C   0  0  2  0  0  0
  -28.7130  -12.9463   20.9899 C   0  0  0  0  0  0
  -25.2626  -13.8134   20.5684 C   0  0  0  0  0  0
  -24.1876  -13.0422   20.9181 C   0  0  0  0  0  0
  -24.6419  -11.6891   20.8721 C   0  0  0  0  0  0
  -23.9067  -10.4281   21.0400 C   0  0  0  0  0  0
  -24.3621   -9.4198   21.9179 C   0  0  0  0  0  0
  -23.6295   -8.2231   22.0746 C   0  0  0  0  0  0
  -22.4271   -8.0273   21.3544 C   0  0  0  0  0  0
  -21.9914   -9.0245   20.4642 C   0  0  0  0  0  0
  -22.7238  -10.2124   20.3052 C   0  0  0  0  0  0
  -21.6841   -6.0735   22.5273 C   0  0  0  0  0  0
  -21.4002   -6.5642   23.8211 C   0  0  0  0  0  0
  -21.3660   -5.6793   24.9174 C   0  0  0  0  0  0
  -21.6053   -4.3054   24.7218 C   0  0  0  0  0  0
  -21.8821   -3.8147   23.4338 C   0  0  0  0  0  0
  -21.9194   -4.6966   22.3400 C   0  0  0  0  0  0
  -22.7898  -13.5226   21.1842 C   0  0  0  0  0  0
  -22.1665   -4.2149   21.0978 F   0  0  0  0  0  0
  -21.5635   -3.4534   25.7729 F   0  0  0  0  0  0
  -30.0510  -13.2259   20.4348 N   0  0  0  0  0  0
  -26.3057  -12.9297   20.3369 N   0  0  0  0  0  0
  -25.9341  -11.6461   20.5741 N   0  0  0  0  0  0
  -22.0536  -12.8215   22.0396 N   0  0  0  0  0  0
  -25.4341  -15.1847   20.4078 N   0  0  0  0  0  0
  -31.8831  -14.5555   20.1645 O   0  0  0  0  0  0
  -21.6637   -6.8872   21.4236 O   0  0  0  0  0  0
  -22.3593  -14.5540   20.6699 O   0  0  0  0  0  0
  -24.6114  -31.8698   23.2155 C   0  0  0  0  0  0
  -25.9039  -32.4809   23.8427 C   0  0  1  0  0  0
  -27.2247  -27.4753   20.0694 C   0  0  0  0  0  0
  -25.5934  -33.8609   24.2373 N   0  0  0  0  0  0
  -23.3934  -30.4982   21.5560 C   0  0  2  0  0  0
  -24.8334  -28.9686   20.1172 C   0  0  0  0  0  0
  -22.7368  -29.4684   22.5027 C   0  0  0  0  0  0
  -18.0270  -28.1363   22.8487 C   0  0  0  0  0  0
  -24.1476  -36.7285   23.2646 C   0  0  0  0  0  0
  -25.9202  -30.8437   21.3664 C   0  0  0  0  0  0
  -25.9936  -29.4833   20.7109 C   0  0  0  0  0  0
  -27.1933  -28.7399   20.6909 C   0  0  0  0  0  0
  -26.0506  -26.9730   19.4661 C   0  0  0  0  0  0
  -24.8528  -27.7079   19.5001 C   0  0  0  0  0  0
  -23.5946  -29.8309   20.1694 C   0  0  0  0  0  0
  -25.4094  -36.3098   24.0358 C   0  0  1  0  0  0
  -20.5855  -28.3630   23.1334 C   0  0  2  0  0  0
  -20.6751  -26.9378   22.5398 C   0  0  0  0  0  0
  -19.5728  -26.6369   21.5198 C   0  0  0  0  0  0
  -18.1912  -26.7908   22.1608 C   0  0  0  0  0  0
  -19.1519  -28.8813   23.2895 C   0  0  0  0  0  0
  -18.9449  -30.1426   23.8883 C   0  0  0  0  0  0
  -17.6454  -30.6571   24.0551 C   0  0  0  0  0  0
  -25.9016  -34.9461   23.5150 C   0  0  0  0  0  0
  -16.5338  -29.9055   23.6342 C   0  0  0  0  0  0
  -16.7257  -28.6479   23.0355 C   0  0  0  0  0  0
  -26.4510  -31.6566   25.0730 C   0  0  0  0  0  0
  -25.3832  -31.3612   26.1510 C   0  0  0  0  0  0
  -27.0375  -30.3032   24.6094 C   0  0  0  0  0  0
  -27.6084  -32.4298   25.7483 C   0  0  0  0  0  0
  -27.5562  -37.1790   24.8483 C   0  0  0  0  0  0
  -21.4105  -29.3021   22.3757 N   0  0  0  0  0  0
  -26.4272  -37.3782   23.9431 N   0  0  0  0  0  0
  -24.6598  -31.0847   22.1036 N   0  0  0  0  0  0
  -23.4165  -28.8228   23.3045 O   0  0  0  0  0  0
  -28.3954  -26.7596   20.0401 O   0  0  0  0  0  0
  -26.5534  -34.8913   22.4684 O   0  0  0  0  0  0
  -23.5324  -32.1431   23.7592 O   0  0  0  0  0  0
  -28.3866  -17.1957   19.1251 C   0  0  0  0  0  0
  -26.9667  -19.1537   19.2641 C   0  0  0  0  0  0
  -29.0190  -17.5521   20.3372 C   0  0  0  0  0  0
  -28.6029  -18.7117   21.0463 C   0  0  0  0  0  0
  -27.5911  -19.5308   20.4751 C   0  0  0  0  0  0
  -27.3564  -17.9843   18.5959 C   0  0  0  0  0  0
  -30.1860  -16.7228   20.7748 C   0  0  0  0  0  0
  -29.2426  -19.0597   22.3962 C   0  0  0  0  0  0
  -27.7643  -23.1475   20.9889 C   0  0  0  0  0  0
  -28.1054  -24.3270   20.0772 C   0  0  0  0  0  0
  -27.4688  -21.8834   20.1832 C   0  0  0  0  0  0
  -28.3889  -25.6072   20.8753 C   0  0  0  0  0  0
  -27.2348  -20.7494   21.0660 N   0  0  0  0  0  0
  -29.9052  -15.4205   20.8400 N   0  0  0  0  0  0
  -31.2826  -17.2469   21.0056 O   0  0  0  0  0  0
  -30.4941  -19.7063   22.2623 O   0  0  0  0  0  0
  -26.7647  -17.6291   17.4312 F   0  0  0  0  0  0
  -31.4687  -12.3443   19.0981 H   0  0  0  0  0  0
  -30.3008  -11.2403   19.7687 H   0  0  0  0  0  0
  -29.7193  -11.8181   17.3844 H   0  0  0  0  0  0
  -29.6786  -13.5128   17.7927 H   0  0  0  0  0  0
  -27.8005  -11.3290   18.7642 H   0  0  0  0  0  0
  -27.3680  -12.7001   17.7796 H   0  0  0  0  0  0
  -27.7138  -14.2495   19.5979 H   0  0  0  0  0  0
  -28.6700  -11.9083   21.3231 H   0  0  0  0  0  0
  -28.4988  -13.5433   21.8781 H   0  0  0  0  0  0
  -25.2769   -9.5662   22.4750 H   0  0  0  0  0  0
  -23.9999   -7.4616   22.7459 H   0  0  0  0  0  0
  -21.0844   -8.8767   19.8942 H   0  0  0  0  0  0
  -22.3705  -10.9668   19.6157 H   0  0  0  0  0  0
  -21.1984   -7.6147   23.9711 H   0  0  0  0  0  0
  -21.1486   -6.0525   25.9080 H   0  0  0  0  0  0
  -22.0604   -2.7607   23.2832 H   0  0  0  0  0  0
  -22.4163  -11.9872   22.4765 H   0  0  0  0  0  0
  -21.1152  -13.1238   22.2607 H   0  0  0  0  0  0
  -24.6501  -15.8224   20.4891 H   0  0  0  0  0  0
  -26.2664  -15.6249   20.0417 H   0  0  0  0  0  0
  -26.7094  -32.5519   23.1176 H   0  0  0  0  0  0
  -25.0253  -33.9791   25.0637 H   0  0  0  0  0  0
  -22.6802  -31.3136   21.4213 H   0  0  0  0  0  0
  -23.3746  -35.9604   23.3311 H   0  0  0  0  0  0
  -24.3583  -36.8890   22.2058 H   0  0  0  0  0  0
  -23.7215  -37.6494   23.6640 H   0  0  0  0  0  0
  -26.0399  -31.6154   20.6048 H   0  0  0  0  0  0
  -26.8050  -30.8836   21.9887 H   0  0  0  0  0  0
  -28.0887  -29.1333   21.1513 H   0  0  0  0  0  0
  -26.0416  -26.0334   18.9404 H   0  0  0  0  0  0
  -23.9612  -27.3083   19.0341 H   0  0  0  0  0  0
  -23.6941  -30.6033   19.4069 H   0  0  0  0  0  0
  -22.7191  -29.2452   19.8800 H   0  0  0  0  0  0
  -25.1268  -36.1961   25.0849 H   0  0  0  0  0  0
  -20.9945  -28.3166   24.1454 H   0  0  0  0  0  0
  -20.5669  -26.2226   23.3566 H   0  0  0  0  0  0
  -21.6619  -26.7422   22.1181 H   0  0  0  0  0  0
  -19.6875  -25.6287   21.1197 H   0  0  0  0  0  0
  -19.6679  -27.3199   20.6754 H   0  0  0  0  0  0
  -17.4193  -26.6698   21.3999 H   0  0  0  0  0  0
  -18.0294  -26.0040   22.8992 H   0  0  0  0  0  0
  -19.7941  -30.7250   24.2226 H   0  0  0  0  0  0
  -17.5021  -31.6255   24.5131 H   0  0  0  0  0  0
  -15.5342  -30.2945   23.7677 H   0  0  0  0  0  0
  -15.8663  -28.0784   22.7062 H   0  0  0  0  0  0
  -24.6044  -30.6895   25.7888 H   0  0  0  0  0  0
  -24.8976  -32.2717   26.5007 H   0  0  0  0  0  0
  -25.8267  -30.8795   27.0232 H   0  0  0  0  0  0
  -26.2887  -29.6707   24.1313 H   0  0  0  0  0  0
  -27.4357  -29.7360   25.4524 H   0  0  0  0  0  0
  -27.8614  -30.4386   23.9088 H   0  0  0  0  0  0
  -27.2696  -33.3604   26.2043 H   0  0  0  0  0  0
  -28.3881  -32.6844   25.0290 H   0  0  0  0  0  0
  -28.0743  -31.8437   26.5419 H   0  0  0  0  0  0
  -28.2581  -38.0086   24.7535 H   0  0  0  0  0  0
  -28.1053  -36.2619   24.6298 H   0  0  0  0  0  0
  -27.2286  -37.1416   25.8889 H   0  0  0  0  0  0
  -20.9249  -29.8715   21.6970 H   0  0  0  0  0  0
  -26.0164  -38.2856   24.1468 H   0  0  0  0  0  0
  -28.7127  -16.3278   18.5694 H   0  0  0  0  0  0
  -26.1898  -19.7636   18.8270 H   0  0  0  0  0  0
  -29.3711  -18.1528   22.9898 H   0  0  0  0  0  0
  -28.5825  -19.6835   22.9970 H   0  0  0  0  0  0
  -26.8973  -23.4012   21.6014 H   0  0  0  0  0  0
  -28.5955  -22.9704   21.6733 H   0  0  0  0  0  0
  -27.2739  -24.4669   19.3952 H   0  0  0  0  0  0
  -28.9657  -24.0878   19.4496 H   0  0  0  0  0  0
  -28.3167  -21.6823   19.5249 H   0  0  0  0  0  0
  -26.6006  -22.0395   19.5383 H   0  0  0  0  0  0
  -29.3667  -25.5214   21.3501 H   0  0  0  0  0  0
  -27.6728  -25.7206   21.6909 H   0  0  0  0  0  0
  -27.6506  -20.8902   21.9814 H   0  0  0  0  0  0
  -28.9305  -15.1815   20.8893 H   0  0  0  0  0  0
  -31.0882  -19.0892   21.8388 H   0  0  0  0  0  0
  1 25  1  0  0  0
  1 30  2  0  0  0
  1 84  1  0  0  0
  2  3  1  0  0  0
  2 25  1  0  0  0
  2 88  1  0  0  0
  2 89  1  0  0  0
  3  4  1  0  0  0
  3 90  1  0  0  0
  3 91  1  0  0  0
  4  5  1  0  0  0
  4 92  1  0  0  0
  4 93  1  0  0  0
  5  6  1  0  0  0
  5 26  1  0  0  0
  5 94  1  0  0  0
  6 25  1  0  0  0
  6 95  1  0  0  0
  6 96  1  0  0  0
  7  8  2  0  0  0
  7 26  1  0  0  0
  7 29  1  0  0  0
  8  9  1  0  0  0
  8 22  1  0  0  0
  9 10  1  0  0  0
  9 27  2  0  0  0
 10 11  2  0  0  0
 10 15  1  0  0  0
 11 12  1  0  0  0
 11 97  1  0  0  0
 12 13  2  0  0  0
 12 98  1  0  0  0
 13 14  1  0  0  0
 13 31  1  0  0  0
 14 15  2  0  0  0
 14 99  1  0  0  0
 15100  1  0  0  0
 16 17  2  0  0  0
 16 21  1  0  0  0
 16 31  1  0  0  0
 17 18  1  0  0  0
 17101  1  0  0  0
 18 19  2  0  0  0
 18102  1  0  0  0
 19 20  1  0  0  0
 19 24  1  0  0  0
 20 21  2  0  0  0
 20103  1  0  0  0
 21 23  1  0  0  0
 22 28  1  0  0  0
 22 32  2  0  0  0
 26 27  1  0  0  0
 28104  1  0  0  0
 28105  1  0  0  0
 29106  1  0  0  0
 29107  1  0  0  0
 33 34  1  0  0  0
 33 66  1  0  0  0
 33 70  2  0  0  0
 34 36  1  0  0  0
 34 59  1  0  0  0
 34108  1  0  0  0
 35 44  2  0  0  0
 35 45  1  0  0  0
 35 68  1  0  0  0
 36 56  1  0  0  0
 36109  1  0  0  0
 37 39  1  0  0  0
 37 47  1  0  0  0
 37 66  1  0  0  0
 37110  1  0  0  0
 38 43  2  0  0  0
 38 46  1  0  0  0
 38 47  1  0  0  0
 39 64  1  0  0  0
 39 67  2  0  0  0
 40 52  1  0  0  0
 40 53  2  0  0  0
 40 58  1  0  0  0
 41111  1  0  0  0
 41112  1  0  0  0
 41113  1  0  0  0
 41 48  1  0  0  0
 42 43  1  0  0  0
 42 66  1  0  0  0
 42114  1  0  0  0
 42115  1  0  0  0
 43 44  1  0  0  0
 44116  1  0  0  0
 45 46  2  0  0  0
 45117  1  0  0  0
 46118  1  0  0  0
 47119  1  0  0  0
 47120  1  0  0  0
 48 56  1  0  0  0
 48 65  1  0  0  0
 48121  1  0  0  0
 49 50  1  0  0  0
 49 53  1  0  0  0
 49 64  1  0  0  0
 49122  1  0  0  0
 50 51  1  0  0  0
 50123  1  0  0  0
 50124  1  0  0  0
 51 52  1  0  0  0
 51125  1  0  0  0
 51126  1  0  0  0
 52127  1  0  0  0
 52128  1  0  0  0
 53 54  1  0  0  0
 54 55  2  0  0  0
 54129  1  0  0  0
 55 57  1  0  0  0
 55130  1  0  0  0
 56 69  2  0  0  0
 57 58  2  0  0  0
 57131  1  0  0  0
 58132  1  0  0  0
 59 60  1  0  0  0
 59 61  1  0  0  0
 59 62  1  0  0  0
 60133  1  0  0  0
 60134  1  0  0  0
 60135  1  0  0  0
 61136  1  0  0  0
 61137  1  0  0  0
 61138  1  0  0  0
 62139  1  0  0  0
 62140  1  0  0  0
 62141  1  0  0  0
 63 65  1  0  0  0
 63142  1  0  0  0
 63143  1  0  0  0
 63144  1  0  0  0
 64145  1  0  0  0
 65146  1  0  0  0
 68 82  1  0  0  0
 71 73  2  0  0  0
 71 76  1  0  0  0
 71147  1  0  0  0
 72 75  1  0  0  0
 72 76  2  0  0  0
 72148  1  0  0  0
 73 74  1  0  0  0
 73 77  1  0  0  0
 74 75  2  0  0  0
 74 78  1  0  0  0
 75 83  1  0  0  0
 76 87  1  0  0  0
 77 84  1  0  0  0
 77 85  2  0  0  0
 78 86  1  0  0  0
 78149  1  0  0  0
 78150  1  0  0  0
 79 80  1  0  0  0
 79 81  1  0  0  0
 79151  1  0  0  0
 79152  1  0  0  0
 80 82  1  0  0  0
 80153  1  0  0  0
 80154  1  0  0  0
 81 83  1  0  0  0
 81155  1  0  0  0
 81156  1  0  0  0
 82157  1  0  0  0
 82158  1  0  0  0
 83159  1  0  0  0
 84160  1  0  0  0
 86161  1  0  0  0
M  ISO  4   1 100  68 101  82 101  84 100
M  END
> <chiral flag>
0

> <version>
0

> <s_m_source_file>
/data/baiqing/PycharmProjects/Reinvent-master-3.2/result/LINK_invent/BTK/process_docking_weight1_custom_product_contain_oxygen_bond_distance_aromatic_linkinvent_7_9_3/rearranged_h_0108.sdf

> <i_m_source_file_index>
59

> <r_mmod_Potential_Energy-OPLS-2005>
-145.039779663086

> <r_mmod_Stretch_Energy-OPLS-2005>
32.3188362121582

> <r_mmod_Bend_Energy-OPLS-2005>
86.7665100097656

> <r_mmod_Torsional_Energy-OPLS-2005>
273.392211914062

> <r_mmod_Improper_Torsional_Energy-OPLS-2005>
13.2542686462402

> <r_mmod_Van_der_Waal_Energy-OPLS-2005>
164.458084106445

> <r_mmod_Electrostatic_Energy-OPLS-2005>
-498.968383789062

> <r_mmod_Solvation_Energy-OPLS-2005>
-228.402404785156

> <b_mmod_Minimization_Converged-OPLS-2005>
0

> <r_mmod_RMS_Derivative-OPLS-2005>
2.70001697540283

$$$$
60
                    3D
 Structure written by MMmdl.
160168  0  0  1  0            999 V2000
  -30.7013  -14.5066   20.5541 C   0  0  0  0  0  0
  -30.4193  -12.3240   19.4305 C   0  0  0  0  0  0
  -29.4938  -12.4992   18.2094 C   0  0  0  0  0  0
  -28.0162  -12.3559   18.6237 C   0  0  0  0  0  0
  -27.6565  -13.2112   19.8684 C   0  0  2  0  0  0
  -28.6999  -13.0276   20.9937 C   0  0  0  0  0  0
  -25.2569  -13.8170   20.5682 C   0  0  0  0  0  0
  -24.1830  -13.0441   20.9187 C   0  0  0  0  0  0
  -24.6390  -11.6909   20.8742 C   0  0  0  0  0  0
  -23.9058  -10.4293   21.0407 C   0  0  0  0  0  0
  -24.3613   -9.4208   21.9183 C   0  0  0  0  0  0
  -23.6290   -8.2243   22.0753 C   0  0  0  0  0  0
  -22.4272   -8.0280   21.3544 C   0  0  0  0  0  0
  -21.9905   -9.0254   20.4648 C   0  0  0  0  0  0
  -22.7231  -10.2134   20.3057 C   0  0  0  0  0  0
  -21.6852   -6.0735   22.5279 C   0  0  0  0  0  0
  -21.4014   -6.5640   23.8212 C   0  0  0  0  0  0
  -21.3659   -5.6792   24.9174 C   0  0  0  0  0  0
  -21.6044   -4.3055   24.7225 C   0  0  0  0  0  0
  -21.8819   -3.8146   23.4347 C   0  0  0  0  0  0
  -21.9193   -4.6962   22.3403 C   0  0  0  0  0  0
  -22.7853  -13.5237   21.1849 C   0  0  0  0  0  0
  -22.1662   -4.2148   21.0980 F   0  0  0  0  0  0
  -21.5629   -3.4538   25.7738 F   0  0  0  0  0  0
  -30.0246  -13.3303   20.4307 N   0  0  0  0  0  0
  -26.3000  -12.9344   20.3345 N   0  0  0  0  0  0
  -25.9317  -11.6502   20.5769 N   0  0  0  0  0  0
  -22.0495  -12.8231   22.0407 N   0  0  0  0  0  0
  -25.4288  -15.1888   20.4078 N   0  0  0  0  0  0
  -31.8453  -14.6472   20.1129 O   0  0  0  0  0  0
  -21.6638   -6.8876   21.4240 O   0  0  0  0  0  0
  -22.3541  -14.5545   20.6699 O   0  0  0  0  0  0
  -24.6169  -31.8662   23.2080 C   0  0  0  0  0  0
  -25.9054  -32.4813   23.8382 C   0  0  1  0  0  0
  -27.2294  -27.4133   20.1063 C   0  0  0  0  0  0
  -25.5905  -33.8612   24.2317 N   0  0  0  0  0  0
  -23.4062  -30.4893   21.5487 C   0  0  2  0  0  0
  -24.8535  -28.9529   20.1129 C   0  0  0  0  0  0
  -22.7424  -29.4651   22.4977 C   0  0  0  0  0  0
  -18.0275  -28.1378   22.8490 C   0  0  0  0  0  0
  -24.1489  -36.7311   23.2638 C   0  0  0  0  0  0
  -25.9370  -30.8270   21.3631 C   0  0  0  0  0  0
  -26.0157  -29.4604   20.7089 C   0  0  0  0  0  0
  -27.2110  -28.7002   20.6972 C   0  0  0  0  0  0
  -26.0535  -26.9273   19.4976 C   0  0  0  0  0  0
  -24.8685  -27.6871   19.5014 C   0  0  0  0  0  0
  -23.6157  -29.8213   20.1636 C   0  0  0  0  0  0
  -25.4110  -36.3107   24.0337 C   0  0  1  0  0  0
  -20.5867  -28.3668   23.1312 C   0  0  2  0  0  0
  -20.6765  -26.9401   22.5421 C   0  0  0  0  0  0
  -19.5748  -26.6384   21.5213 C   0  0  0  0  0  0
  -18.1923  -26.7926   22.1619 C   0  0  0  0  0  0
  -19.1525  -28.8839   23.2899 C   0  0  0  0  0  0
  -18.9452  -30.1445   23.8910 C   0  0  0  0  0  0
  -17.6455  -30.6584   24.0566 C   0  0  0  0  0  0
  -25.9038  -34.9472   23.5125 C   0  0  0  0  0  0
  -16.5345  -29.9087   23.6327 C   0  0  0  0  0  0
  -16.7264  -28.6503   23.0347 C   0  0  0  0  0  0
  -26.4475  -31.6595   25.0715 C   0  0  0  0  0  0
  -25.3739  -31.3714   26.1465 C   0  0  0  0  0  0
  -27.0297  -30.3032   24.6100 C   0  0  0  0  0  0
  -27.6056  -32.4311   25.7473 C   0  0  0  0  0  0
  -27.5584  -37.1809   24.8464 C   0  0  0  0  0  0
  -21.4148  -29.3033   22.3717 N   0  0  0  0  0  0
  -26.4297  -37.3791   23.9408 N   0  0  0  0  0  0
  -24.6717  -31.0752   22.0984 N   0  0  0  0  0  0
  -23.4188  -28.8196   23.3028 O   0  0  0  0  0  0
  -28.3652  -26.6269   20.1180 O   0  0  0  0  0  0
  -26.5600  -34.8927   22.4686 O   0  0  0  0  0  0
  -23.5357  -32.1418   23.7467 O   0  0  0  0  0  0
  -32.1445  -18.5163   21.9204 C   0  0  0  0  0  0
  -31.7410  -17.1974   21.6522 C   0  0  0  0  0  0
  -29.5359  -18.0191   21.0503 C   0  0  0  0  0  0
  -31.2587  -19.6045   21.7633 C   0  0  0  0  0  0
  -30.4275  -16.9200   21.2154 C   0  0  0  0  0  0
  -29.9350  -19.3680   21.2907 C   0  0  0  0  0  0
  -31.7601  -20.9746   22.2150 C   0  0  0  0  0  0
  -28.7833  -24.1206   20.1105 C   0  0  0  0  0  0
  -28.6229  -22.8064   20.9389 C   0  0  0  0  0  0
  -28.2311  -25.3801   20.8407 C   0  0  0  0  0  0
  -29.1996  -21.5004   20.3122 C   0  0  0  0  0  0
  -29.9841  -15.5636   21.0114 N   0  0  0  0  0  0
  -32.7220  -21.5540   21.2644 N   0  3  0  0  0  0
  -28.9761  -20.3696   21.1815 O   0  0  0  0  0  0
  -31.4642  -12.4163   19.1288 H   0  0  0  0  0  0
  -30.3194  -11.3209   19.8480 H   0  0  0  0  0  0
  -29.7390  -11.7639   17.4418 H   0  0  0  0  0  0
  -29.6570  -13.4793   17.7581 H   0  0  0  0  0  0
  -27.8348  -11.3015   18.8351 H   0  0  0  0  0  0
  -27.3635  -12.6133   17.7888 H   0  0  0  0  0  0
  -27.6895  -14.2533   19.5501 H   0  0  0  0  0  0
  -28.6839  -12.0021   21.3658 H   0  0  0  0  0  0
  -28.4627  -13.6561   21.8533 H   0  0  0  0  0  0
  -25.2760   -9.5685   22.4755 H   0  0  0  0  0  0
  -24.0002   -7.4633   22.7470 H   0  0  0  0  0  0
  -21.0836   -8.8772   19.8954 H   0  0  0  0  0  0
  -22.3689  -10.9673   19.6166 H   0  0  0  0  0  0
  -21.2005   -7.6148   23.9715 H   0  0  0  0  0  0
  -21.1481   -6.0522   25.9077 H   0  0  0  0  0  0
  -22.0599   -2.7609   23.2847 H   0  0  0  0  0  0
  -22.4106  -11.9889   22.4793 H   0  0  0  0  0  0
  -21.1116  -13.1262   22.2617 H   0  0  0  0  0  0
  -24.6602  -15.8426   20.5101 H   0  0  0  0  0  0
  -26.2749  -15.6254   20.0646 H   0  0  0  0  0  0
  -26.7126  -32.5521   23.1146 H   0  0  0  0  0  0
  -25.0066  -33.9771   25.0470 H   0  0  0  0  0  0
  -22.6959  -31.3068   21.4087 H   0  0  0  0  0  0
  -23.3748  -35.9647   23.3309 H   0  0  0  0  0  0
  -24.3584  -36.8916   22.2051 H   0  0  0  0  0  0
  -23.7244  -37.6520   23.6646 H   0  0  0  0  0  0
  -26.0520  -31.5934   20.5952 H   0  0  0  0  0  0
  -26.8238  -30.8797   21.9831 H   0  0  0  0  0  0
  -28.1083  -29.0858   21.1608 H   0  0  0  0  0  0
  -26.0526  -25.9534   19.0282 H   0  0  0  0  0  0
  -23.9760  -27.2914   19.0363 H   0  0  0  0  0  0
  -23.7245  -30.5961   19.4039 H   0  0  0  0  0  0
  -22.7392  -29.2418   19.8676 H   0  0  0  0  0  0
  -25.1289  -36.1971   25.0830 H   0  0  0  0  0  0
  -20.9959  -28.3235   24.1433 H   0  0  0  0  0  0
  -20.5662  -26.2277   23.3610 H   0  0  0  0  0  0
  -21.6637  -26.7440   22.1218 H   0  0  0  0  0  0
  -19.6910  -25.6298   21.1235 H   0  0  0  0  0  0
  -19.6692  -27.3201   20.6750 H   0  0  0  0  0  0
  -17.4198  -26.6680   21.4015 H   0  0  0  0  0  0
  -18.0319  -26.0062   22.9008 H   0  0  0  0  0  0
  -19.7929  -30.7255   24.2286 H   0  0  0  0  0  0
  -17.5012  -31.6267   24.5164 H   0  0  0  0  0  0
  -15.5347  -30.2994   23.7644 H   0  0  0  0  0  0
  -15.8663  -28.0829   22.7054 H   0  0  0  0  0  0
  -24.5920  -30.7046   25.7812 H   0  0  0  0  0  0
  -24.8919  -32.2871   26.4897 H   0  0  0  0  0  0
  -25.8093  -30.8903   27.0232 H   0  0  0  0  0  0
  -26.2838  -29.6800   24.1152 H   0  0  0  0  0  0
  -27.4057  -29.7265   25.4561 H   0  0  0  0  0  0
  -27.8681  -30.4340   23.9253 H   0  0  0  0  0  0
  -27.2681  -33.3600   26.2082 H   0  0  0  0  0  0
  -28.3847  -32.6887   25.0286 H   0  0  0  0  0  0
  -28.0745  -31.8415   26.5361 H   0  0  0  0  0  0
  -28.2612  -38.0096   24.7504 H   0  0  0  0  0  0
  -28.1068  -36.2629   24.6298 H   0  0  0  0  0  0
  -27.2303  -37.1470   25.8868 H   0  0  0  0  0  0
  -20.9310  -29.8756   21.6939 H   0  0  0  0  0  0
  -26.0187  -38.2872   24.1404 H   0  0  0  0  0  0
  -33.1462  -18.6817   22.2927 H   0  0  0  0  0  0
  -32.4516  -16.4009   21.8233 H   0  0  0  0  0  0
  -28.5177  -17.8313   20.7400 H   0  0  0  0  0  0
  -32.2489  -20.8672   23.1844 H   0  0  0  0  0  0
  -30.9332  -21.6607   22.3850 H   0  0  0  0  0  0
  -28.2727  -24.0083   19.1535 H   0  0  0  0  0  0
  -29.8370  -24.2780   19.8783 H   0  0  0  0  0  0
  -27.5619  -22.6497   21.1366 H   0  0  0  0  0  0
  -29.0792  -22.9587   21.9166 H   0  0  0  0  0  0
  -28.7701  -25.5037   21.7807 H   0  0  0  0  0  0
  -27.1964  -25.1880   21.1312 H   0  0  0  0  0  0
  -30.2500  -21.6282   20.0584 H   0  0  0  0  0  0
  -28.6919  -21.2990   19.3682 H   0  0  0  0  0  0
  -29.0074  -15.3773   21.1801 H   0  0  0  0  0  0
  -33.5294  -20.9640   21.1817 H   0  0  0  0  0  0
  -33.0257  -22.4523   21.5951 H   0  0  0  0  0  0
  -32.3138  -21.6671   20.3557 H   0  0  0  0  0  0
  1 25  1  0  0  0
  1 30  2  0  0  0
  1 82  1  0  0  0
  2  3  1  0  0  0
  2 25  1  0  0  0
  2 85  1  0  0  0
  2 86  1  0  0  0
  3  4  1  0  0  0
  3 87  1  0  0  0
  3 88  1  0  0  0
  4  5  1  0  0  0
  4 89  1  0  0  0
  4 90  1  0  0  0
  5  6  1  0  0  0
  5 26  1  0  0  0
  5 91  1  0  0  0
  6 25  1  0  0  0
  6 92  1  0  0  0
  6 93  1  0  0  0
  7  8  2  0  0  0
  7 26  1  0  0  0
  7 29  1  0  0  0
  8  9  1  0  0  0
  8 22  1  0  0  0
  9 10  1  0  0  0
  9 27  2  0  0  0
 10 11  2  0  0  0
 10 15  1  0  0  0
 11 12  1  0  0  0
 11 94  1  0  0  0
 12 13  2  0  0  0
 12 95  1  0  0  0
 13 14  1  0  0  0
 13 31  1  0  0  0
 14 15  2  0  0  0
 14 96  1  0  0  0
 15 97  1  0  0  0
 16 17  2  0  0  0
 16 21  1  0  0  0
 16 31  1  0  0  0
 17 18  1  0  0  0
 17 98  1  0  0  0
 18 19  2  0  0  0
 18 99  1  0  0  0
 19 20  1  0  0  0
 19 24  1  0  0  0
 20 21  2  0  0  0
 20100  1  0  0  0
 21 23  1  0  0  0
 22 28  1  0  0  0
 22 32  2  0  0  0
 26 27  1  0  0  0
 28101  1  0  0  0
 28102  1  0  0  0
 29103  1  0  0  0
 29104  1  0  0  0
 33 34  1  0  0  0
 33 66  1  0  0  0
 33 70  2  0  0  0
 34 36  1  0  0  0
 34 59  1  0  0  0
 34105  1  0  0  0
 35 44  2  0  0  0
 35 45  1  0  0  0
 35 68  1  0  0  0
 36 56  1  0  0  0
 36106  1  0  0  0
 37 39  1  0  0  0
 37 47  1  0  0  0
 37 66  1  0  0  0
 37107  1  0  0  0
 38 43  2  0  0  0
 38 46  1  0  0  0
 38 47  1  0  0  0
 39 64  1  0  0  0
 39 67  2  0  0  0
 40 52  1  0  0  0
 40 53  2  0  0  0
 40 58  1  0  0  0
 41108  1  0  0  0
 41109  1  0  0  0
 41110  1  0  0  0
 41 48  1  0  0  0
 42 43  1  0  0  0
 42 66  1  0  0  0
 42111  1  0  0  0
 42112  1  0  0  0
 43 44  1  0  0  0
 44113  1  0  0  0
 45 46  2  0  0  0
 45114  1  0  0  0
 46115  1  0  0  0
 47116  1  0  0  0
 47117  1  0  0  0
 48 56  1  0  0  0
 48 65  1  0  0  0
 48118  1  0  0  0
 49 50  1  0  0  0
 49 53  1  0  0  0
 49 64  1  0  0  0
 49119  1  0  0  0
 50 51  1  0  0  0
 50120  1  0  0  0
 50121  1  0  0  0
 51 52  1  0  0  0
 51122  1  0  0  0
 51123  1  0  0  0
 52124  1  0  0  0
 52125  1  0  0  0
 53 54  1  0  0  0
 54 55  2  0  0  0
 54126  1  0  0  0
 55 57  1  0  0  0
 55127  1  0  0  0
 56 69  2  0  0  0
 57 58  2  0  0  0
 57128  1  0  0  0
 58129  1  0  0  0
 59 60  1  0  0  0
 59 61  1  0  0  0
 59 62  1  0  0  0
 60130  1  0  0  0
 60131  1  0  0  0
 60132  1  0  0  0
 61133  1  0  0  0
 61134  1  0  0  0
 61135  1  0  0  0
 62136  1  0  0  0
 62137  1  0  0  0
 62138  1  0  0  0
 63 65  1  0  0  0
 63139  1  0  0  0
 63140  1  0  0  0
 63141  1  0  0  0
 64142  1  0  0  0
 65143  1  0  0  0
 68 80  1  0  0  0
 71 72  2  0  0  0
 71 74  1  0  0  0
 71144  1  0  0  0
 72 75  1  0  0  0
 72145  1  0  0  0
 73 75  2  0  0  0
 73 76  1  0  0  0
 73146  1  0  0  0
 74 76  2  0  0  0
 74 77  1  0  0  0
 75 82  1  0  0  0
 76 84  1  0  0  0
 77 83  1  0  0  0
 77147  1  0  0  0
 77148  1  0  0  0
 78 79  1  0  0  0
 78 80  1  0  0  0
 78149  1  0  0  0
 78150  1  0  0  0
 79 81  1  0  0  0
 79151  1  0  0  0
 79152  1  0  0  0
 80153  1  0  0  0
 80154  1  0  0  0
 81 84  1  0  0  0
 81155  1  0  0  0
 81156  1  0  0  0
 82157  1  0  0  0
 83158  1  0  0  0
 83159  1  0  0  0
 83160  1  0  0  0
M  CHG  1  83   1
M  ISO  4   1 100  68 101  80 101  82 100
M  END
> <chiral flag>
0

> <version>
0

> <s_m_source_file>
/data/baiqing/PycharmProjects/Reinvent-master-3.2/result/LINK_invent/BTK/process_docking_weight1_custom_product_contain_oxygen_bond_distance_aromatic_linkinvent_7_9_3/rearranged_h_0108.sdf

> <i_m_source_file_index>
60

> <r_mmod_Potential_Energy-OPLS-2005>
-280.348419189453

> <r_mmod_Stretch_Energy-OPLS-2005>
46.4734954833984

> <r_mmod_Bend_Energy-OPLS-2005>
105.167915344238

> <r_mmod_Torsional_Energy-OPLS-2005>
250.455612182617

> <r_mmod_Improper_Torsional_Energy-OPLS-2005>
4.88510847091675

> <r_mmod_Van_der_Waal_Energy-OPLS-2005>
149.192916870117

> <r_mmod_Electrostatic_Energy-OPLS-2005>
-346.981079101562

> <r_mmod_Solvation_Energy-OPLS-2005>
-507.703460693359

> <b_mmod_Minimization_Converged-OPLS-2005>
0

> <r_mmod_RMS_Derivative-OPLS-2005>
0.158145502209663

$$$$
61
                    3D
 Structure written by MMmdl.
161170  0  0  1  0            999 V2000
  -30.6601  -14.5257   20.5466 C   0  0  0  0  0  0
  -30.4228  -12.2989   19.4937 C   0  0  0  0  0  0
  -29.5283  -12.4667   18.2468 C   0  0  0  0  0  0
  -28.0338  -12.3705   18.6218 C   0  0  0  0  0  0
  -27.6590  -13.2173   19.8689 C   0  0  2  0  0  0
  -28.6847  -13.0243   21.0073 C   0  0  0  0  0  0
  -25.2575  -13.8177   20.5607 C   0  0  0  0  0  0
  -24.1839  -13.0467   20.9113 C   0  0  0  0  0  0
  -24.6387  -11.6928   20.8669 C   0  0  0  0  0  0
  -23.9040  -10.4318   21.0360 C   0  0  0  0  0  0
  -24.3582   -9.4249   21.9166 C   0  0  0  0  0  0
  -23.6270   -8.2283   22.0743 C   0  0  0  0  0  0
  -22.4256   -8.0298   21.3531 C   0  0  0  0  0  0
  -21.9882   -9.0249   20.4610 C   0  0  0  0  0  0
  -22.7206  -10.2132   20.3010 C   0  0  0  0  0  0
  -21.6841   -6.0752   22.5288 C   0  0  0  0  0  0
  -21.4013   -6.5651   23.8229 C   0  0  0  0  0  0
  -21.3675   -5.6792   24.9186 C   0  0  0  0  0  0
  -21.6048   -4.3056   24.7213 C   0  0  0  0  0  0
  -21.8821   -3.8152   23.4337 C   0  0  0  0  0  0
  -21.9188   -4.6980   22.3399 C   0  0  0  0  0  0
  -22.7858  -13.5245   21.1818 C   0  0  0  0  0  0
  -22.1641   -4.2163   21.0969 F   0  0  0  0  0  0
  -21.5645   -3.4540   25.7733 F   0  0  0  0  0  0
  -30.0214  -13.3227   20.4725 N   0  0  0  0  0  0
  -26.3000  -12.9366   20.3243 N   0  0  0  0  0  0
  -25.9321  -11.6520   20.5664 N   0  0  0  0  0  0
  -22.0472  -12.8235   22.0335 N   0  0  0  0  0  0
  -25.4407  -15.1891   20.4063 N   0  0  0  0  0  0
  -31.8004  -14.6965   20.1020 O   0  0  0  0  0  0
  -21.6627   -6.8898   21.4249 O   0  0  0  0  0  0
  -22.3557  -14.5576   20.6702 O   0  0  0  0  0  0
  -24.6253  -31.8588   23.2050 C   0  0  0  0  0  0
  -25.9126  -32.4764   23.8360 C   0  0  1  0  0  0
  -27.2446  -27.3462   20.1171 C   0  0  0  0  0  0
  -25.5947  -33.8568   24.2277 N   0  0  0  0  0  0
  -23.4191  -30.4827   21.5456 C   0  0  2  0  0  0
  -24.8700  -28.9489   20.0952 C   0  0  0  0  0  0
  -22.7478  -29.4621   22.4943 C   0  0  0  0  0  0
  -18.0285  -28.1392   22.8513 C   0  0  0  0  0  0
  -24.1453  -36.7253   23.2656 C   0  0  0  0  0  0
  -25.9600  -30.7892   21.3836 C   0  0  0  0  0  0
  -26.0333  -29.4282   20.7114 C   0  0  0  0  0  0
  -27.2204  -28.6415   20.7084 C   0  0  0  0  0  0
  -26.0607  -26.9138   19.4676 C   0  0  0  0  0  0
  -24.8895  -27.6965   19.4600 C   0  0  0  0  0  0
  -23.6295  -29.8216   20.1559 C   0  0  0  0  0  0
  -25.4100  -36.3072   24.0337 C   0  0  1  0  0  0
  -20.5889  -28.3676   23.1299 C   0  0  2  0  0  0
  -20.6751  -26.9396   22.5424 C   0  0  0  0  0  0
  -19.5721  -26.6385   21.5229 C   0  0  0  0  0  0
  -18.1904  -26.7946   22.1638 C   0  0  0  0  0  0
  -19.1543  -28.8866   23.2892 C   0  0  0  0  0  0
  -18.9466  -30.1471   23.8895 C   0  0  0  0  0  0
  -17.6461  -30.6598   24.0571 C   0  0  0  0  0  0
  -25.9055  -34.9449   23.5107 C   0  0  0  0  0  0
  -16.5352  -29.9091   23.6352 C   0  0  0  0  0  0
  -16.7269  -28.6508   23.0385 C   0  0  0  0  0  0
  -26.4508  -31.6625   25.0770 C   0  0  0  0  0  0
  -25.3764  -31.3777   26.1517 C   0  0  0  0  0  0
  -27.0376  -30.3043   24.6298 C   0  0  0  0  0  0
  -27.6028  -32.4426   25.7542 C   0  0  0  0  0  0
  -27.5553  -37.1798   24.8484 C   0  0  0  0  0  0
  -21.4202  -29.3010   22.3683 N   0  0  0  0  0  0
  -26.4270  -37.3780   23.9416 N   0  0  0  0  0  0
  -24.6853  -31.0609   22.0992 N   0  0  0  0  0  0
  -23.4200  -28.8195   23.3052 O   0  0  0  0  0  0
  -28.3874  -26.5373   20.2022 O   0  0  0  0  0  0
  -26.5603  -34.8934   22.4662 O   0  0  0  0  0  0
  -23.5425  -32.1397   23.7388 O   0  0  0  0  0  0
  -29.3634  -18.1786   18.4032 C   0  0  0  0  0  0
  -29.4393  -16.9361   19.0497 C   0  0  0  0  0  0
  -30.1210  -18.0814   21.0766 C   0  0  0  0  0  0
  -30.0545  -19.3689   20.4442 C   0  0  0  0  0  0
  -29.6974  -19.3882   19.0557 C   0  0  0  0  0  0
  -29.8544  -16.8602   20.3905 C   0  0  0  0  0  0
  -30.5945  -20.5751   21.2307 C   0  0  0  0  0  0
  -30.6851  -24.2051   20.6298 C   0  0  0  0  0  0
  -31.1995  -22.9538   21.3554 C   0  0  0  0  0  0
  -28.9514  -22.5678   20.7152 C   0  0  0  0  0  0
  -29.1811  -24.1213   20.8666 C   0  0  2  0  0  0
  -29.6995  -20.6179   18.1583 C   0  0  0  0  0  0
  -28.2568  -25.0838   20.0197 C   0  0  0  0  0  0
  -30.2367  -21.8893   21.0426 N   0  0  0  0  0  0
  -29.9288  -15.5661   21.0170 N   0  0  0  0  0  0
  -31.4861  -20.3167   22.0509 O   0  0  0  0  0  0
  -31.4818  -12.3549   19.2343 H   0  0  0  0  0  0
  -30.2797  -11.3075   19.9266 H   0  0  0  0  0  0
  -29.7680  -11.6908   17.5185 H   0  0  0  0  0  0
  -29.7413  -13.4221   17.7672 H   0  0  0  0  0  0
  -27.8102  -11.3209   18.8132 H   0  0  0  0  0  0
  -27.4130  -12.6572   17.7711 H   0  0  0  0  0  0
  -27.6962  -14.2622   19.5582 H   0  0  0  0  0  0
  -28.6529  -11.9986   21.3747 H   0  0  0  0  0  0
  -28.4362  -13.6463   21.8672 H   0  0  0  0  0  0
  -25.2730   -9.5755   22.4738 H   0  0  0  0  0  0
  -23.9993   -7.4678   22.7475 H   0  0  0  0  0  0
  -21.0824   -8.8752   19.8891 H   0  0  0  0  0  0
  -22.3671  -10.9656   19.6088 H   0  0  0  0  0  0
  -21.2004   -7.6157   23.9750 H   0  0  0  0  0  0
  -21.1491   -6.0506   25.9094 H   0  0  0  0  0  0
  -22.0580   -2.7614   23.2818 H   0  0  0  0  0  0
  -22.3989  -11.9811   22.4640 H   0  0  0  0  0  0
  -21.1098  -13.1303   22.2536 H   0  0  0  0  0  0
  -24.6957  -15.8669   20.5320 H   0  0  0  0  0  0
  -26.3206  -15.6102   20.1369 H   0  0  0  0  0  0
  -26.7221  -32.5386   23.1121 H   0  0  0  0  0  0
  -25.0138  -33.9702   25.0451 H   0  0  0  0  0  0
  -22.7143  -31.3046   21.4086 H   0  0  0  0  0  0
  -23.3725  -35.9577   23.3377 H   0  0  0  0  0  0
  -24.3521  -36.8804   22.2058 H   0  0  0  0  0  0
  -23.7198  -37.6474   23.6630 H   0  0  0  0  0  0
  -26.1214  -31.5608   20.6299 H   0  0  0  0  0  0
  -26.8270  -30.8043   22.0331 H   0  0  0  0  0  0
  -28.1149  -29.0117   21.1915 H   0  0  0  0  0  0
  -26.0018  -25.9627   18.9587 H   0  0  0  0  0  0
  -24.0112  -27.3179   18.9561 H   0  0  0  0  0  0
  -23.7266  -30.5990   19.3961 H   0  0  0  0  0  0
  -22.7472  -29.2483   19.8644 H   0  0  0  0  0  0
  -25.1283  -36.1927   25.0831 H   0  0  0  0  0  0
  -20.9996  -28.3224   24.1409 H   0  0  0  0  0  0
  -20.5638  -26.2281   23.3619 H   0  0  0  0  0  0
  -21.6616  -26.7399   22.1219 H   0  0  0  0  0  0
  -19.6849  -25.6298   21.1244 H   0  0  0  0  0  0
  -19.6652  -27.3209   20.6770 H   0  0  0  0  0  0
  -17.4172  -26.6737   21.4028 H   0  0  0  0  0  0
  -18.0257  -26.0088   22.9031 H   0  0  0  0  0  0
  -19.7946  -30.7297   24.2235 H   0  0  0  0  0  0
  -17.5023  -31.6282   24.5165 H   0  0  0  0  0  0
  -15.5356  -30.2989   23.7696 H   0  0  0  0  0  0
  -15.8665  -28.0820   22.7115 H   0  0  0  0  0  0
  -24.5917  -30.7137   25.7883 H   0  0  0  0  0  0
  -24.8989  -32.2947   26.4980 H   0  0  0  0  0  0
  -25.8125  -30.8955   27.0275 H   0  0  0  0  0  0
  -26.2975  -29.6800   24.1287 H   0  0  0  0  0  0
  -27.3996  -29.7318   25.4847 H   0  0  0  0  0  0
  -27.8884  -30.4306   23.9603 H   0  0  0  0  0  0
  -27.2578  -33.3732   26.2067 H   0  0  0  0  0  0
  -28.3858  -32.7011   25.0403 H   0  0  0  0  0  0
  -28.0692  -31.8632   26.5516 H   0  0  0  0  0  0
  -28.2627  -38.0042   24.7481 H   0  0  0  0  0  0
  -28.0988  -36.2576   24.6368 H   0  0  0  0  0  0
  -27.2267  -37.1530   25.8890 H   0  0  0  0  0  0
  -20.9382  -29.8704   21.6873 H   0  0  0  0  0  0
  -26.0145  -38.2851   24.1424 H   0  0  0  0  0  0
  -29.0773  -18.1934   17.3621 H   0  0  0  0  0  0
  -29.1873  -16.0413   18.4979 H   0  0  0  0  0  0
  -30.4466  -18.0284   22.1077 H   0  0  0  0  0  0
  -30.9163  -24.1218   19.5664 H   0  0  0  0  0  0
  -31.1367  -25.1248   21.0010 H   0  0  0  0  0  0
  -31.2155  -23.1261   22.4345 H   0  0  0  0  0  0
  -32.2181  -22.6895   21.0654 H   0  0  0  0  0  0
  -28.6341  -22.3551   19.7011 H   0  0  0  0  0  0
  -28.1624  -22.2134   21.3812 H   0  0  0  0  0  0
  -29.0203  -24.3692   21.9170 H   0  0  0  0  0  0
  -30.0655  -20.3543   17.1656 H   0  0  0  0  0  0
  -30.3489  -21.4214   18.4962 H   0  0  0  0  0  0
  -28.6815  -20.9880   18.0264 H   0  0  0  0  0  0
  -27.2477  -24.7830   20.2977 H   0  0  0  0  0  0
  -28.3815  -24.8540   18.9610 H   0  0  0  0  0  0
  -29.0861  -15.2738   21.4904 H   0  0  0  0  0  0
  1 25  1  0  0  0
  1 30  2  0  0  0
  1 85  1  0  0  0
  2  3  1  0  0  0
  2 25  1  0  0  0
  2 87  1  0  0  0
  2 88  1  0  0  0
  3  4  1  0  0  0
  3 89  1  0  0  0
  3 90  1  0  0  0
  4  5  1  0  0  0
  4 91  1  0  0  0
  4 92  1  0  0  0
  5  6  1  0  0  0
  5 26  1  0  0  0
  5 93  1  0  0  0
  6 25  1  0  0  0
  6 94  1  0  0  0
  6 95  1  0  0  0
  7  8  2  0  0  0
  7 26  1  0  0  0
  7 29  1  0  0  0
  8  9  1  0  0  0
  8 22  1  0  0  0
  9 10  1  0  0  0
  9 27  2  0  0  0
 10 11  2  0  0  0
 10 15  1  0  0  0
 11 12  1  0  0  0
 11 96  1  0  0  0
 12 13  2  0  0  0
 12 97  1  0  0  0
 13 14  1  0  0  0
 13 31  1  0  0  0
 14 15  2  0  0  0
 14 98  1  0  0  0
 15 99  1  0  0  0
 16 17  2  0  0  0
 16 21  1  0  0  0
 16 31  1  0  0  0
 17 18  1  0  0  0
 17100  1  0  0  0
 18 19  2  0  0  0
 18101  1  0  0  0
 19 20  1  0  0  0
 19 24  1  0  0  0
 20 21  2  0  0  0
 20102  1  0  0  0
 21 23  1  0  0  0
 22 28  1  0  0  0
 22 32  2  0  0  0
 26 27  1  0  0  0
 28103  1  0  0  0
 28104  1  0  0  0
 29105  1  0  0  0
 29106  1  0  0  0
 33 34  1  0  0  0
 33 66  1  0  0  0
 33 70  2  0  0  0
 34 36  1  0  0  0
 34 59  1  0  0  0
 34107  1  0  0  0
 35 44  2  0  0  0
 35 45  1  0  0  0
 35 68  1  0  0  0
 36 56  1  0  0  0
 36108  1  0  0  0
 37 39  1  0  0  0
 37 47  1  0  0  0
 37 66  1  0  0  0
 37109  1  0  0  0
 38 43  2  0  0  0
 38 46  1  0  0  0
 38 47  1  0  0  0
 39 64  1  0  0  0
 39 67  2  0  0  0
 40 52  1  0  0  0
 40 53  2  0  0  0
 40 58  1  0  0  0
 41110  1  0  0  0
 41111  1  0  0  0
 41112  1  0  0  0
 41 48  1  0  0  0
 42 43  1  0  0  0
 42 66  1  0  0  0
 42113  1  0  0  0
 42114  1  0  0  0
 43 44  1  0  0  0
 44115  1  0  0  0
 45 46  2  0  0  0
 45116  1  0  0  0
 46117  1  0  0  0
 47118  1  0  0  0
 47119  1  0  0  0
 48 56  1  0  0  0
 48 65  1  0  0  0
 48120  1  0  0  0
 49 50  1  0  0  0
 49 53  1  0  0  0
 49 64  1  0  0  0
 49121  1  0  0  0
 50 51  1  0  0  0
 50122  1  0  0  0
 50123  1  0  0  0
 51 52  1  0  0  0
 51124  1  0  0  0
 51125  1  0  0  0
 52126  1  0  0  0
 52127  1  0  0  0
 53 54  1  0  0  0
 54 55  2  0  0  0
 54128  1  0  0  0
 55 57  1  0  0  0
 55129  1  0  0  0
 56 69  2  0  0  0
 57 58  2  0  0  0
 57130  1  0  0  0
 58131  1  0  0  0
 59 60  1  0  0  0
 59 61  1  0  0  0
 59 62  1  0  0  0
 60132  1  0  0  0
 60133  1  0  0  0
 60134  1  0  0  0
 61135  1  0  0  0
 61136  1  0  0  0
 61137  1  0  0  0
 62138  1  0  0  0
 62139  1  0  0  0
 62140  1  0  0  0
 63 65  1  0  0  0
 63141  1  0  0  0
 63142  1  0  0  0
 63143  1  0  0  0
 64144  1  0  0  0
 65145  1  0  0  0
 68 83  1  0  0  0
 71 72  2  0  0  0
 71 75  1  0  0  0
 71146  1  0  0  0
 72 76  1  0  0  0
 72147  1  0  0  0
 73 74  1  0  0  0
 73 76  2  0  0  0
 73148  1  0  0  0
 74 75  2  0  0  0
 74 77  1  0  0  0
 75 82  1  0  0  0
 76 85  1  0  0  0
 77 84  1  0  0  0
 77 86  2  0  0  0
 78 79  1  0  0  0
 78 81  1  0  0  0
 78149  1  0  0  0
 78150  1  0  0  0
 79 84  1  0  0  0
 79151  1  0  0  0
 79152  1  0  0  0
 80 81  1  0  0  0
 80 84  1  0  0  0
 80153  1  0  0  0
 80154  1  0  0  0
 81 83  1  0  0  0
 81155  1  0  0  0
 82156  1  0  0  0
 82157  1  0  0  0
 82158  1  0  0  0
 83159  1  0  0  0
 83160  1  0  0  0
 85161  1  0  0  0
M  ISO  4   1 100  68 101  83 101  85 100
M  END
> <chiral flag>
0

> <version>
0

> <s_m_source_file>
/data/baiqing/PycharmProjects/Reinvent-master-3.2/result/LINK_invent/BTK/process_docking_weight1_custom_product_contain_oxygen_bond_distance_aromatic_linkinvent_7_9_3/rearranged_h_0108.sdf

> <i_m_source_file_index>
61

> <r_mmod_Potential_Energy-OPLS-2005>
219.018280029297

> <r_mmod_Stretch_Energy-OPLS-2005>
66.0319137573242

> <r_mmod_Bend_Energy-OPLS-2005>
179.250717163086

> <r_mmod_Torsional_Energy-OPLS-2005>
345.255157470703

> <r_mmod_Improper_Torsional_Energy-OPLS-2005>
7.46463537216187

> <r_mmod_Van_der_Waal_Energy-OPLS-2005>
152.479553222656

> <r_mmod_Electrostatic_Energy-OPLS-2005>
-330.077239990234

> <r_mmod_Solvation_Energy-OPLS-2005>
-232.537002563477

> <b_mmod_Minimization_Converged-OPLS-2005>
0

> <r_mmod_RMS_Derivative-OPLS-2005>
5.27292156219482

$$$$
62
                    3D
 Structure written by MMmdl.
171180  0  0  1  0            999 V2000
  -30.6853  -14.5721   20.2689 C   0  0  0  0  0  0
  -30.3846  -12.3196   19.3793 C   0  0  0  0  0  0
  -29.4214  -12.3753   18.1672 C   0  0  0  0  0  0
  -27.9556  -12.3217   18.6249 C   0  0  0  0  0  0
  -27.6347  -13.2379   19.8334 C   0  0  2  0  0  0
  -28.7074  -13.1511   20.9415 C   0  0  0  0  0  0
  -25.2416  -13.8237   20.5717 C   0  0  0  0  0  0
  -24.1762  -13.0429   20.9353 C   0  0  0  0  0  0
  -24.6364  -11.6987   20.8833 C   0  0  0  0  0  0
  -23.9005  -10.4399   21.0394 C   0  0  0  0  0  0
  -24.3555   -9.4421   21.9222 C   0  0  0  0  0  0
  -23.6345   -8.2401   22.0716 C   0  0  0  0  0  0
  -22.4296   -8.0354   21.3516 C   0  0  0  0  0  0
  -21.9942   -9.0327   20.4651 C   0  0  0  0  0  0
  -22.7165  -10.2255   20.3106 C   0  0  0  0  0  0
  -21.7021   -6.0814   22.5307 C   0  0  0  0  0  0
  -21.4116   -6.5733   23.8239 C   0  0  0  0  0  0
  -21.3593   -5.6816   24.9156 C   0  0  0  0  0  0
  -21.6036   -4.3063   24.7177 C   0  0  0  0  0  0
  -21.8888   -3.8204   23.4309 C   0  0  0  0  0  0
  -21.9283   -4.7021   22.3386 C   0  0  0  0  0  0
  -22.7767  -13.5208   21.1903 C   0  0  0  0  0  0
  -22.1671   -4.2180   21.0944 F   0  0  0  0  0  0
  -21.5637   -3.4600   25.7724 F   0  0  0  0  0  0
  -30.0265  -13.3818   20.3280 N   0  0  0  0  0  0
  -26.2916  -12.9517   20.3387 N   0  0  0  0  0  0
  -25.9307  -11.6648   20.5925 N   0  0  0  0  0  0
  -22.0403  -12.8219   22.0478 N   0  0  0  0  0  0
  -25.3743  -15.1922   20.3898 N   0  0  0  0  0  0
  -31.8480  -14.6631   20.6408 O   0  0  0  0  0  0
  -21.6741   -6.8909   21.4242 O   0  0  0  0  0  0
  -22.3531  -14.5518   20.6768 O   0  0  0  0  0  0
  -24.6257  -31.8640   23.2090 C   0  0  0  0  0  0
  -25.9115  -32.4821   23.8406 C   0  0  1  0  0  0
  -27.2127  -27.3202   20.0936 C   0  0  0  0  0  0
  -25.5909  -33.8611   24.2317 N   0  0  0  0  0  0
  -23.4169  -30.4894   21.5575 C   0  0  2  0  0  0
  -24.8619  -28.9570   20.1140 C   0  0  0  0  0  0
  -22.7507  -29.4624   22.5060 C   0  0  0  0  0  0
  -18.0272  -28.1395   22.8513 C   0  0  0  0  0  0
  -24.1460  -36.7290   23.2641 C   0  0  0  0  0  0
  -25.9627  -30.7865   21.3863 C   0  0  0  0  0  0
  -26.0307  -29.4158   20.7303 C   0  0  0  0  0  0
  -27.2072  -28.6044   20.7248 C   0  0  0  0  0  0
  -26.0250  -26.9475   19.4149 C   0  0  0  0  0  0
  -24.8630  -27.7272   19.4466 C   0  0  0  0  0  0
  -23.6300  -29.8332   20.1717 C   0  0  0  0  0  0
  -25.4096  -36.3126   24.0354 C   0  0  1  0  0  0
  -20.5873  -28.3682   23.1331 C   0  0  2  0  0  0
  -20.6778  -26.9421   22.5432 C   0  0  0  0  0  0
  -19.5743  -26.6392   21.5252 C   0  0  0  0  0  0
  -18.1912  -26.7931   22.1650 C   0  0  0  0  0  0
  -19.1519  -28.8857   23.2893 C   0  0  0  0  0  0
  -18.9458  -30.1482   23.8878 C   0  0  0  0  0  0
  -17.6451  -30.6593   24.0577 C   0  0  0  0  0  0
  -25.9062  -34.9501   23.5161 C   0  0  0  0  0  0
  -16.5345  -29.9107   23.6341 C   0  0  0  0  0  0
  -16.7255  -28.6521   23.0366 C   0  0  0  0  0  0
  -26.4479  -31.6611   25.0765 C   0  0  0  0  0  0
  -25.3691  -31.3750   26.1476 C   0  0  0  0  0  0
  -27.0298  -30.3037   24.6188 C   0  0  0  0  0  0
  -27.6029  -32.4358   25.7517 C   0  0  0  0  0  0
  -27.5592  -37.1808   24.8476 C   0  0  0  0  0  0
  -21.4215  -29.3009   22.3736 N   0  0  0  0  0  0
  -26.4286  -37.3832   23.9431 N   0  0  0  0  0  0
  -24.6873  -31.0661   22.1038 N   0  0  0  0  0  0
  -23.4237  -28.8173   23.3141 O   0  0  0  0  0  0
  -28.3099  -26.4379   20.1503 O   0  0  0  0  0  0
  -26.5638  -34.8957   22.4741 O   0  0  0  0  0  0
  -23.5438  -32.1430   23.7442 O   0  0  0  0  0  0
  -29.6306  -18.8655   19.6850 C   0  0  0  0  0  0
  -27.7382  -17.5430   18.9408 C   0  0  0  0  0  0
  -27.4423  -19.9189   19.4271 C   0  0  0  0  0  0
  -29.1008  -17.6003   19.2787 C   0  0  0  0  0  0
  -28.8219  -20.0574   19.7389 C   0  0  0  0  0  0
  -26.9127  -18.6780   18.9907 C   0  0  0  0  0  0
  -28.8326  -23.7901   20.1649 C   0  0  0  0  0  0
  -28.9375  -22.5950   19.4717 C   0  0  0  0  0  0
  -29.1736  -23.7677   21.6119 C   0  0  0  0  0  0
  -29.8781  -16.4789   18.6708 C   0  0  0  0  0  0
  -30.4461  -15.2899   19.0140 C   0  0  0  0  0  0
  -29.3084  -22.3808   22.2638 C   0  0  0  0  0  0
  -30.0400  -21.4060   21.3271 C   0  0  0  0  0  0
  -28.6136  -22.5023   17.9820 C   0  0  0  0  0  0
  -22.9089  -17.8954   17.4416 C   0  0  0  0  0  0
  -28.1415  -25.0738   19.5832 C   0  0  0  0  0  0
  -23.3906  -17.9709   18.9022 C   0  0  0  0  0  0
  -24.5297  -18.9833   19.1353 C   0  0  0  0  0  0
  -29.3608  -21.3562   20.0349 N   0  0  0  0  0  0
  -29.3318  -24.7773   22.3094 O   0  0  0  0  0  0
  -25.6695  -18.5391   18.4129 O   0  0  0  0  0  0
  -31.4120  -12.4295   19.0329 H   0  0  0  0  0  0
  -30.3225  -11.3466   19.8628 H   0  0  0  0  0  0
  -29.6092  -11.5448   17.4827 H   0  0  0  0  0  0
  -29.5743  -13.2572   17.5474 H   0  0  0  0  0  0
  -27.7333  -11.2899   18.8867 H   0  0  0  0  0  0
  -27.2827  -12.5589   17.7961 H   0  0  0  0  0  0
  -27.6476  -14.2625   19.4560 H   0  0  0  0  0  0
  -28.6715  -12.1815   21.4487 H   0  0  0  0  0  0
  -28.5040  -13.9024   21.7070 H   0  0  0  0  0  0
  -25.2659   -9.6252   22.4761 H   0  0  0  0  0  0
  -24.0275   -7.4860   22.7373 H   0  0  0  0  0  0
  -21.0943   -8.8896   19.8838 H   0  0  0  0  0  0
  -22.3558  -10.9841   19.6315 H   0  0  0  0  0  0
  -21.2136   -7.6256   23.9803 H   0  0  0  0  0  0
  -21.1200   -6.0450   25.9036 H   0  0  0  0  0  0
  -22.0645   -2.7651   23.2794 H   0  0  0  0  0  0
  -22.4212  -12.0010   22.4919 H   0  0  0  0  0  0
  -21.0982  -13.1239   22.2696 H   0  0  0  0  0  0
  -24.5212  -15.7430   20.3559 H   0  0  0  0  0  0
  -26.1591  -15.6481   19.9422 H   0  0  0  0  0  0
  -26.7176  -32.5498   23.1153 H   0  0  0  0  0  0
  -25.0030  -33.9737   25.0448 H   0  0  0  0  0  0
  -22.7080  -31.3096   21.4244 H   0  0  0  0  0  0
  -23.3773  -35.9580   23.3310 H   0  0  0  0  0  0
  -24.3544  -36.8895   22.2054 H   0  0  0  0  0  0
  -23.7141  -37.6473   23.6638 H   0  0  0  0  0  0
  -26.1084  -31.5437   20.6134 H   0  0  0  0  0  0
  -26.8405  -30.8324   22.0191 H   0  0  0  0  0  0
  -28.0958  -28.9591   21.2285 H   0  0  0  0  0  0
  -25.9375  -26.0471   18.8288 H   0  0  0  0  0  0
  -23.9782  -27.3822   18.9312 H   0  0  0  0  0  0
  -23.7533  -30.6101   19.4187 H   0  0  0  0  0  0
  -22.7486  -29.2656   19.8690 H   0  0  0  0  0  0
  -25.1268  -36.2020   25.0854 H   0  0  0  0  0  0
  -20.9929  -28.3249   24.1474 H   0  0  0  0  0  0
  -20.5740  -26.2308   23.3639 H   0  0  0  0  0  0
  -21.6640  -26.7506   22.1180 H   0  0  0  0  0  0
  -19.6900  -25.6313   21.1265 H   0  0  0  0  0  0
  -19.6649  -27.3232   20.6802 H   0  0  0  0  0  0
  -17.4204  -26.6723   21.4018 H   0  0  0  0  0  0
  -18.0256  -26.0058   22.9019 H   0  0  0  0  0  0
  -19.7933  -30.7306   24.2229 H   0  0  0  0  0  0
  -17.5011  -31.6263   24.5202 H   0  0  0  0  0  0
  -15.5351  -30.3014   23.7657 H   0  0  0  0  0  0
  -15.8657  -28.0836   22.7102 H   0  0  0  0  0  0
  -24.5864  -30.7095   25.7810 H   0  0  0  0  0  0
  -24.8864  -32.2905   26.4901 H   0  0  0  0  0  0
  -25.7991  -30.8927   27.0258 H   0  0  0  0  0  0
  -26.2849  -29.6826   24.1174 H   0  0  0  0  0  0
  -27.3967  -29.7264   25.4686 H   0  0  0  0  0  0
  -27.8757  -30.4352   23.9431 H   0  0  0  0  0  0
  -27.2628  -33.3692   26.2032 H   0  0  0  0  0  0
  -28.3838  -32.6867   25.0320 H   0  0  0  0  0  0
  -28.0670  -31.8509   26.5469 H   0  0  0  0  0  0
  -28.2630  -38.0100   24.7594 H   0  0  0  0  0  0
  -28.1079  -36.2650   24.6225 H   0  0  0  0  0  0
  -27.2327  -37.1367   25.8885 H   0  0  0  0  0  0
  -20.9481  -29.8703   21.6865 H   0  0  0  0  0  0
  -26.0197  -38.2931   24.1428 H   0  0  0  0  0  0
  -30.6949  -18.9509   19.8408 H   0  0  0  0  0  0
  -27.3450  -16.6412   18.4898 H   0  0  0  0  0  0
  -26.8152  -20.7952   19.4160 H   0  0  0  0  0  0
  -29.9933  -16.6545   17.6055 H   0  0  0  0  0  0
  -30.8962  -14.7847   18.1729 H   0  0  0  0  0  0
  -28.2991  -21.9975   22.4334 H   0  0  0  0  0  0
  -29.7896  -22.4459   23.2406 H   0  0  0  0  0  0
  -30.0940  -20.4252   21.7934 H   0  0  0  0  0  0
  -31.0719  -21.7327   21.1883 H   0  0  0  0  0  0
  -29.1091  -23.3025   17.4311 H   0  0  0  0  0  0
  -27.5381  -22.5802   17.8204 H   0  0  0  0  0  0
  -28.9665  -21.5738   17.5252 H   0  0  0  0  0  0
  -22.1882  -17.0920   17.3101 H   0  0  0  0  0  0
  -23.7279  -17.6585   16.7612 H   0  0  0  0  0  0
  -22.4325  -18.8235   17.1108 H   0  0  0  0  0  0
  -27.1151  -24.7373   19.7295 H   0  0  0  0  0  0
  -28.3210  -25.1389   18.5106 H   0  0  0  0  0  0
  -22.5489  -18.2118   19.5618 H   0  0  0  0  0  0
  -23.6957  -16.9634   19.1917 H   0  0  0  0  0  0
  -24.7461  -19.0518   20.1999 H   0  0  0  0  0  0
  -24.2123  -19.9704   18.7994 H   0  0  0  0  0  0
  1 25  1  0  0  0
  1 30  2  0  0  0
  1 81  1  0  0  0
  2  3  1  0  0  0
  2 25  1  0  0  0
  2 92  1  0  0  0
  2 93  1  0  0  0
  3  4  1  0  0  0
  3 94  1  0  0  0
  3 95  1  0  0  0
  4  5  1  0  0  0
  4 96  1  0  0  0
  4 97  1  0  0  0
  5  6  1  0  0  0
  5 26  1  0  0  0
  5 98  1  0  0  0
  6 25  1  0  0  0
  6 99  1  0  0  0
  6100  1  0  0  0
  7  8  2  0  0  0
  7 26  1  0  0  0
  7 29  1  0  0  0
  8  9  1  0  0  0
  8 22  1  0  0  0
  9 10  1  0  0  0
  9 27  2  0  0  0
 10 11  2  0  0  0
 10 15  1  0  0  0
 11 12  1  0  0  0
 11101  1  0  0  0
 12 13  2  0  0  0
 12102  1  0  0  0
 13 14  1  0  0  0
 13 31  1  0  0  0
 14 15  2  0  0  0
 14103  1  0  0  0
 15104  1  0  0  0
 16 17  2  0  0  0
 16 21  1  0  0  0
 16 31  1  0  0  0
 17 18  1  0  0  0
 17105  1  0  0  0
 18 19  2  0  0  0
 18106  1  0  0  0
 19 20  1  0  0  0
 19 24  1  0  0  0
 20 21  2  0  0  0
 20107  1  0  0  0
 21 23  1  0  0  0
 22 28  1  0  0  0
 22 32  2  0  0  0
 26 27  1  0  0  0
 28108  1  0  0  0
 28109  1  0  0  0
 29110  1  0  0  0
 29111  1  0  0  0
 33 34  1  0  0  0
 33 66  1  0  0  0
 33 70  2  0  0  0
 34 36  1  0  0  0
 34 59  1  0  0  0
 34112  1  0  0  0
 35 44  2  0  0  0
 35 45  1  0  0  0
 35 68  1  0  0  0
 36 56  1  0  0  0
 36113  1  0  0  0
 37 39  1  0  0  0
 37 47  1  0  0  0
 37 66  1  0  0  0
 37114  1  0  0  0
 38 43  2  0  0  0
 38 46  1  0  0  0
 38 47  1  0  0  0
 39 64  1  0  0  0
 39 67  2  0  0  0
 40 52  1  0  0  0
 40 53  2  0  0  0
 40 58  1  0  0  0
 41115  1  0  0  0
 41116  1  0  0  0
 41117  1  0  0  0
 41 48  1  0  0  0
 42 43  1  0  0  0
 42 66  1  0  0  0
 42118  1  0  0  0
 42119  1  0  0  0
 43 44  1  0  0  0
 44120  1  0  0  0
 45 46  2  0  0  0
 45121  1  0  0  0
 46122  1  0  0  0
 47123  1  0  0  0
 47124  1  0  0  0
 48 56  1  0  0  0
 48 65  1  0  0  0
 48125  1  0  0  0
 49 50  1  0  0  0
 49 53  1  0  0  0
 49 64  1  0  0  0
 49126  1  0  0  0
 50 51  1  0  0  0
 50127  1  0  0  0
 50128  1  0  0  0
 51 52  1  0  0  0
 51129  1  0  0  0
 51130  1  0  0  0
 52131  1  0  0  0
 52132  1  0  0  0
 53 54  1  0  0  0
 54 55  2  0  0  0
 54133  1  0  0  0
 55 57  1  0  0  0
 55134  1  0  0  0
 56 69  2  0  0  0
 57 58  2  0  0  0
 57135  1  0  0  0
 58136  1  0  0  0
 59 60  1  0  0  0
 59 61  1  0  0  0
 59 62  1  0  0  0
 60137  1  0  0  0
 60138  1  0  0  0
 60139  1  0  0  0
 61140  1  0  0  0
 61141  1  0  0  0
 61142  1  0  0  0
 62143  1  0  0  0
 62144  1  0  0  0
 62145  1  0  0  0
 63 65  1  0  0  0
 63146  1  0  0  0
 63147  1  0  0  0
 63148  1  0  0  0
 64149  1  0  0  0
 65150  1  0  0  0
 68 86  1  0  0  0
 71 74  2  0  0  0
 71 75  1  0  0  0
 71151  1  0  0  0
 72 74  1  0  0  0
 72 76  2  0  0  0
 72152  1  0  0  0
 73 75  2  0  0  0
 73 76  1  0  0  0
 73153  1  0  0  0
 74 80  1  0  0  0
 75 89  1  0  0  0
 76 91  1  0  0  0
 77 78  2  0  0  0
 77 79  1  0  0  0
 77 86  1  0  0  0
 78 84  1  0  0  0
 78 89  1  0  0  0
 79 82  1  0  0  0
 79 90  2  0  0  0
 80 81  2  0  0  0
 80154  1  0  0  0
 81155  1  0  0  0
 82 83  1  0  0  0
 82156  1  0  0  0
 82157  1  0  0  0
 83 89  1  0  0  0
 83158  1  0  0  0
 83159  1  0  0  0
 84160  1  0  0  0
 84161  1  0  0  0
 84162  1  0  0  0
 85 87  1  0  0  0
 85163  1  0  0  0
 85164  1  0  0  0
 85165  1  0  0  0
 86166  1  0  0  0
 86167  1  0  0  0
 87 88  1  0  0  0
 87168  1  0  0  0
 87169  1  0  0  0
 88 91  1  0  0  0
 88170  1  0  0  0
 88171  1  0  0  0
M  ISO  4   1 100  68 101  81 100  86 101
M  END
> <chiral flag>
0

> <version>
0

> <s_m_source_file>
/data/baiqing/PycharmProjects/Reinvent-master-3.2/result/LINK_invent/BTK/process_docking_weight1_custom_product_contain_oxygen_bond_distance_aromatic_linkinvent_7_9_3/rearranged_h_0108.sdf

> <i_m_source_file_index>
62

> <r_mmod_Potential_Energy-OPLS-2005>
409.412353515625

> <r_mmod_Stretch_Energy-OPLS-2005>
75.5545806884766

> <r_mmod_Bend_Energy-OPLS-2005>
215.807067871094

> <r_mmod_Torsional_Energy-OPLS-2005>
330.753295898438

> <r_mmod_Improper_Torsional_Energy-OPLS-2005>
49.5895843505859

> <r_mmod_Van_der_Waal_Energy-OPLS-2005>
160.773025512695

> <r_mmod_Electrostatic_Energy-OPLS-2005>
-312.527618408203

> <r_mmod_Solvation_Energy-OPLS-2005>
-209.055328369141

> <b_mmod_Minimization_Converged-OPLS-2005>
0

> <r_mmod_RMS_Derivative-OPLS-2005>
10.0603218078613

$$$$
63
                    3D
 Structure written by MMmdl.
161169  0  0  1  0            999 V2000
  -30.6859  -14.4514   20.5982 C   0  0  0  0  0  0
  -30.4320  -12.3023   19.4105 C   0  0  0  0  0  0
  -29.4957  -12.5155   18.2020 C   0  0  0  0  0  0
  -28.0151  -12.3746   18.6120 C   0  0  0  0  0  0
  -27.6649  -13.1944   19.8813 C   0  0  2  0  0  0
  -28.7068  -12.9408   20.9944 C   0  0  0  0  0  0
  -25.2593  -13.8113   20.5672 C   0  0  0  0  0  0
  -24.1830  -13.0412   20.9162 C   0  0  0  0  0  0
  -24.6372  -11.6879   20.8721 C   0  0  0  0  0  0
  -23.9035  -10.4280   21.0401 C   0  0  0  0  0  0
  -24.3596   -9.4206   21.9183 C   0  0  0  0  0  0
  -23.6283   -8.2237   22.0755 C   0  0  0  0  0  0
  -22.4266   -8.0268   21.3544 C   0  0  0  0  0  0
  -21.9890   -9.0240   20.4647 C   0  0  0  0  0  0
  -22.7208  -10.2124   20.3053 C   0  0  0  0  0  0
  -21.6851   -6.0726   22.5277 C   0  0  0  0  0  0
  -21.4011   -6.5634   23.8209 C   0  0  0  0  0  0
  -21.3661   -5.6789   24.9173 C   0  0  0  0  0  0
  -21.6048   -4.3052   24.7225 C   0  0  0  0  0  0
  -21.8821   -3.8138   23.4347 C   0  0  0  0  0  0
  -21.9196   -4.6954   22.3402 C   0  0  0  0  0  0
  -22.7861  -13.5235   21.1834 C   0  0  0  0  0  0
  -22.1667   -4.2140   21.0981 F   0  0  0  0  0  0
  -21.5634   -3.4537   25.7738 F   0  0  0  0  0  0
  -30.0416  -13.2621   20.4526 N   0  0  0  0  0  0
  -26.3030  -12.9267   20.3379 N   0  0  0  0  0  0
  -25.9298  -11.6440   20.5757 N   0  0  0  0  0  0
  -22.0495  -12.8244   22.0394 N   0  0  0  0  0  0
  -25.4308  -15.1828   20.4110 N   0  0  0  0  0  0
  -31.7956  -14.6895   20.1110 O   0  0  0  0  0  0
  -21.6632   -6.8865   21.4239 O   0  0  0  0  0  0
  -22.3561  -14.5555   20.6695 O   0  0  0  0  0  0
  -24.6123  -31.8689   23.2105 C   0  0  0  0  0  0
  -25.9023  -32.4828   23.8401 C   0  0  1  0  0  0
  -27.2434  -27.4538   20.1002 C   0  0  0  0  0  0
  -25.5888  -33.8628   24.2333 N   0  0  0  0  0  0
  -23.4006  -30.4894   21.5503 C   0  0  2  0  0  0
  -24.8503  -28.9497   20.1223 C   0  0  0  0  0  0
  -22.7394  -29.4657   22.5004 C   0  0  0  0  0  0
  -18.0266  -28.1374   22.8491 C   0  0  0  0  0  0
  -24.1483  -36.7322   23.2640 C   0  0  0  0  0  0
  -25.9262  -30.8385   21.3617 C   0  0  0  0  0  0
  -26.0070  -29.4708   20.7167 C   0  0  0  0  0  0
  -27.2085  -28.7293   20.7040 C   0  0  0  0  0  0
  -26.0743  -26.9347   19.5097 C   0  0  0  0  0  0
  -24.8765  -27.6783   19.5187 C   0  0  0  0  0  0
  -23.6106  -29.8151   20.1672 C   0  0  0  0  0  0
  -25.4104  -36.3118   24.0340 C   0  0  1  0  0  0
  -20.5852  -28.3658   23.1327 C   0  0  2  0  0  0
  -20.6753  -26.9397   22.5422 C   0  0  0  0  0  0
  -19.5741  -26.6384   21.5211 C   0  0  0  0  0  0
  -18.1917  -26.7922   22.1619 C   0  0  0  0  0  0
  -19.1515  -28.8833   23.2906 C   0  0  0  0  0  0
  -18.9445  -30.1437   23.8917 C   0  0  0  0  0  0
  -17.6450  -30.6582   24.0564 C   0  0  0  0  0  0
  -25.9032  -34.9483   23.5136 C   0  0  0  0  0  0
  -16.5340  -29.9085   23.6320 C   0  0  0  0  0  0
  -16.7256  -28.6500   23.0345 C   0  0  0  0  0  0
  -26.4469  -31.6603   25.0720 C   0  0  0  0  0  0
  -25.3751  -31.3694   26.1477 C   0  0  0  0  0  0
  -27.0297  -30.3046   24.6080 C   0  0  0  0  0  0
  -27.6052  -32.4321   25.7477 C   0  0  0  0  0  0
  -27.5583  -37.1812   24.8462 C   0  0  0  0  0  0
  -21.4125  -29.3030   22.3740 N   0  0  0  0  0  0
  -26.4291  -37.3800   23.9413 N   0  0  0  0  0  0
  -24.6644  -31.0799   22.0997 N   0  0  0  0  0  0
  -23.4171  -28.8203   23.3047 O   0  0  0  0  0  0
  -28.4180  -26.7465   20.0283 O   0  0  0  0  0  0
  -26.5594  -34.8930   22.4697 O   0  0  0  0  0  0
  -23.5317  -32.1432   23.7507 O   0  0  0  0  0  0
  -29.4982  -18.9976   20.2701 C   0  0  0  0  0  0
  -30.8884  -18.8442   22.2536 C   0  0  0  0  0  0
  -29.4598  -17.5847   20.1714 C   0  0  0  0  0  0
  -30.1291  -16.7999   21.1483 C   0  0  0  0  0  0
  -30.1900  -19.6423   21.3240 C   0  0  0  0  0  0
  -30.8542  -17.4376   22.1764 C   0  0  0  0  0  0
  -27.3173  -17.9150   17.1511 C   0  0  0  0  0  0
  -28.4853  -17.7395   17.7885 C   0  0  0  0  0  0
  -28.6513  -16.9242   19.0566 C   0  0  0  0  0  0
  -28.7461  -24.3362   20.3340 C   0  0  0  0  0  0
  -29.3924  -23.2791   21.2592 C   0  0  0  0  0  0
  -28.5919  -25.7189   21.0041 C   0  0  0  0  0  0
  -29.4188  -21.8518   20.6747 C   0  0  0  0  0  0
  -29.9508  -15.3923   21.2101 N   0  0  0  0  0  0
  -30.2080  -21.0118   21.5213 O   0  0  0  0  0  0
  -31.4796  -16.6977   23.1246 F   0  0  0  0  0  0
  -31.4742  -12.4193   19.1087 H   0  0  0  0  0  0
  -30.3455  -11.2827   19.7897 H   0  0  0  0  0  0
  -29.7344  -11.8019   17.4124 H   0  0  0  0  0  0
  -29.6633  -13.5065   17.7770 H   0  0  0  0  0  0
  -27.8178  -11.3169   18.7901 H   0  0  0  0  0  0
  -27.3669  -12.6684   17.7854 H   0  0  0  0  0  0
  -27.7157  -14.2450   19.6034 H   0  0  0  0  0  0
  -28.6826  -11.8938   21.2995 H   0  0  0  0  0  0
  -28.4607  -13.5019   21.8970 H   0  0  0  0  0  0
  -25.2743   -9.5692   22.4753 H   0  0  0  0  0  0
  -24.0001   -7.4634   22.7477 H   0  0  0  0  0  0
  -21.0818   -8.8749   19.8957 H   0  0  0  0  0  0
  -22.3661  -10.9660   19.6159 H   0  0  0  0  0  0
  -21.1996   -7.6143   23.9706 H   0  0  0  0  0  0
  -21.1488   -6.0520   25.9077 H   0  0  0  0  0  0
  -22.0600   -2.7598   23.2846 H   0  0  0  0  0  0
  -22.4095  -11.9903   22.4789 H   0  0  0  0  0  0
  -21.1123  -13.1297   22.2606 H   0  0  0  0  0  0
  -24.6653  -15.8376   20.5273 H   0  0  0  0  0  0
  -26.2870  -15.6229   20.1049 H   0  0  0  0  0  0
  -26.7094  -32.5554   23.1172 H   0  0  0  0  0  0
  -25.0035  -33.9794   25.0475 H   0  0  0  0  0  0
  -22.6887  -31.3051   21.4085 H   0  0  0  0  0  0
  -23.3742  -35.9658   23.3308 H   0  0  0  0  0  0
  -24.3577  -36.8929   22.2053 H   0  0  0  0  0  0
  -23.7236  -37.6532   23.6646 H   0  0  0  0  0  0
  -26.0338  -31.6017   20.5896 H   0  0  0  0  0  0
  -26.8159  -30.8971   21.9767 H   0  0  0  0  0  0
  -28.1073  -29.1346   21.1482 H   0  0  0  0  0  0
  -26.0965  -25.9644   19.0338 H   0  0  0  0  0  0
  -23.9876  -27.2705   19.0573 H   0  0  0  0  0  0
  -23.7181  -30.5872   19.4046 H   0  0  0  0  0  0
  -22.7357  -29.2321   19.8730 H   0  0  0  0  0  0
  -25.1277  -36.1991   25.0832 H   0  0  0  0  0  0
  -20.9942  -28.3221   24.1448 H   0  0  0  0  0  0
  -20.5656  -26.2265   23.3606 H   0  0  0  0  0  0
  -21.6627  -26.7445   22.1224 H   0  0  0  0  0  0
  -19.6909  -25.6300   21.1232 H   0  0  0  0  0  0
  -19.6688  -27.3200   20.6748 H   0  0  0  0  0  0
  -17.4193  -26.6672   21.4015 H   0  0  0  0  0  0
  -18.0321  -26.0057   22.9010 H   0  0  0  0  0  0
  -19.7923  -30.7240   24.2305 H   0  0  0  0  0  0
  -17.5008  -31.6264   24.5160 H   0  0  0  0  0  0
  -15.5342  -30.2999   23.7630 H   0  0  0  0  0  0
  -15.8654  -28.0827   22.7052 H   0  0  0  0  0  0
  -24.5905  -30.7068   25.7812 H   0  0  0  0  0  0
  -24.8966  -32.2845   26.4978 H   0  0  0  0  0  0
  -25.8115  -30.8821   27.0203 H   0  0  0  0  0  0
  -26.2827  -29.6809   24.1154 H   0  0  0  0  0  0
  -27.4093  -29.7283   25.4529 H   0  0  0  0  0  0
  -27.8652  -30.4371   23.9202 H   0  0  0  0  0  0
  -27.2668  -33.3598   26.2108 H   0  0  0  0  0  0
  -28.3829  -32.6924   25.0287 H   0  0  0  0  0  0
  -28.0758  -31.8420   26.5349 H   0  0  0  0  0  0
  -28.2600  -38.0109   24.7515 H   0  0  0  0  0  0
  -28.1074  -36.2642   24.6270 H   0  0  0  0  0  0
  -27.2304  -37.1449   25.8865 H   0  0  0  0  0  0
  -20.9282  -29.8748   21.6962 H   0  0  0  0  0  0
  -26.0183  -38.2879   24.1415 H   0  0  0  0  0  0
  -28.9609  -19.5829   19.5399 H   0  0  0  0  0  0
  -31.4264  -19.3126   23.0645 H   0  0  0  0  0  0
  -27.2594  -18.5006   16.2444 H   0  0  0  0  0  0
  -26.4001  -17.4789   17.5216 H   0  0  0  0  0  0
  -29.3842  -18.1848   17.3839 H   0  0  0  0  0  0
  -27.6724  -16.6586   19.4524 H   0  0  0  0  0  0
  -29.1375  -15.9973   18.7557 H   0  0  0  0  0  0
  -27.7692  -23.9934   19.9916 H   0  0  0  0  0  0
  -29.3638  -24.4373   19.4409 H   0  0  0  0  0  0
  -28.8667  -23.2571   22.2144 H   0  0  0  0  0  0
  -30.4137  -23.5897   21.4831 H   0  0  0  0  0  0
  -29.4995  -25.9606   21.5587 H   0  0  0  0  0  0
  -27.7814  -25.6977   21.7360 H   0  0  0  0  0  0
  -29.8452  -21.8578   19.6704 H   0  0  0  0  0  0
  -28.3946  -21.4810   20.6050 H   0  0  0  0  0  0
  -29.0668  -15.0748   21.5736 H   0  0  0  0  0  0
  1 25  1  0  0  0
  1 30  2  0  0  0
  1 84  1  0  0  0
  2  3  1  0  0  0
  2 25  1  0  0  0
  2 87  1  0  0  0
  2 88  1  0  0  0
  3  4  1  0  0  0
  3 89  1  0  0  0
  3 90  1  0  0  0
  4  5  1  0  0  0
  4 91  1  0  0  0
  4 92  1  0  0  0
  5  6  1  0  0  0
  5 26  1  0  0  0
  5 93  1  0  0  0
  6 25  1  0  0  0
  6 94  1  0  0  0
  6 95  1  0  0  0
  7  8  2  0  0  0
  7 26  1  0  0  0
  7 29  1  0  0  0
  8  9  1  0  0  0
  8 22  1  0  0  0
  9 10  1  0  0  0
  9 27  2  0  0  0
 10 11  2  0  0  0
 10 15  1  0  0  0
 11 12  1  0  0  0
 11 96  1  0  0  0
 12 13  2  0  0  0
 12 97  1  0  0  0
 13 14  1  0  0  0
 13 31  1  0  0  0
 14 15  2  0  0  0
 14 98  1  0  0  0
 15 99  1  0  0  0
 16 17  2  0  0  0
 16 21  1  0  0  0
 16 31  1  0  0  0
 17 18  1  0  0  0
 17100  1  0  0  0
 18 19  2  0  0  0
 18101  1  0  0  0
 19 20  1  0  0  0
 19 24  1  0  0  0
 20 21  2  0  0  0
 20102  1  0  0  0
 21 23  1  0  0  0
 22 28  1  0  0  0
 22 32  2  0  0  0
 26 27  1  0  0  0
 28103  1  0  0  0
 28104  1  0  0  0
 29105  1  0  0  0
 29106  1  0  0  0
 33 34  1  0  0  0
 33 66  1  0  0  0
 33 70  2  0  0  0
 34 36  1  0  0  0
 34 59  1  0  0  0
 34107  1  0  0  0
 35 44  2  0  0  0
 35 45  1  0  0  0
 35 68  1  0  0  0
 36 56  1  0  0  0
 36108  1  0  0  0
 37 39  1  0  0  0
 37 47  1  0  0  0
 37 66  1  0  0  0
 37109  1  0  0  0
 38 43  2  0  0  0
 38 46  1  0  0  0
 38 47  1  0  0  0
 39 64  1  0  0  0
 39 67  2  0  0  0
 40 52  1  0  0  0
 40 53  2  0  0  0
 40 58  1  0  0  0
 41110  1  0  0  0
 41111  1  0  0  0
 41112  1  0  0  0
 41 48  1  0  0  0
 42 43  1  0  0  0
 42 66  1  0  0  0
 42113  1  0  0  0
 42114  1  0  0  0
 43 44  1  0  0  0
 44115  1  0  0  0
 45 46  2  0  0  0
 45116  1  0  0  0
 46117  1  0  0  0
 47118  1  0  0  0
 47119  1  0  0  0
 48 56  1  0  0  0
 48 65  1  0  0  0
 48120  1  0  0  0
 49 50  1  0  0  0
 49 53  1  0  0  0
 49 64  1  0  0  0
 49121  1  0  0  0
 50 51  1  0  0  0
 50122  1  0  0  0
 50123  1  0  0  0
 51 52  1  0  0  0
 51124  1  0  0  0
 51125  1  0  0  0
 52126  1  0  0  0
 52127  1  0  0  0
 53 54  1  0  0  0
 54 55  2  0  0  0
 54128  1  0  0  0
 55 57  1  0  0  0
 55129  1  0  0  0
 56 69  2  0  0  0
 57 58  2  0  0  0
 57130  1  0  0  0
 58131  1  0  0  0
 59 60  1  0  0  0
 59 61  1  0  0  0
 59 62  1  0  0  0
 60132  1  0  0  0
 60133  1  0  0  0
 60134  1  0  0  0
 61135  1  0  0  0
 61136  1  0  0  0
 61137  1  0  0  0
 62138  1  0  0  0
 62139  1  0  0  0
 62140  1  0  0  0
 63 65  1  0  0  0
 63141  1  0  0  0
 63142  1  0  0  0
 63143  1  0  0  0
 64144  1  0  0  0
 65145  1  0  0  0
 68 82  1  0  0  0
 71 73  2  0  0  0
 71 75  1  0  0  0
 71146  1  0  0  0
 72 75  2  0  0  0
 72 76  1  0  0  0
 72147  1  0  0  0
 73 74  1  0  0  0
 73 79  1  0  0  0
 74 76  2  0  0  0
 74 84  1  0  0  0
 75 85  1  0  0  0
 76 86  1  0  0  0
 77 78  2  0  0  0
 77148  1  0  0  0
 77149  1  0  0  0
 78 79  1  0  0  0
 78150  1  0  0  0
 79151  1  0  0  0
 79152  1  0  0  0
 80 81  1  0  0  0
 80 82  1  0  0  0
 80153  1  0  0  0
 80154  1  0  0  0
 81 83  1  0  0  0
 81155  1  0  0  0
 81156  1  0  0  0
 82157  1  0  0  0
 82158  1  0  0  0
 83 85  1  0  0  0
 83159  1  0  0  0
 83160  1  0  0  0
 84161  1  0  0  0
M  ISO  4   1 100  68 101  82 101  84 100
M  END
> <chiral flag>
0

> <version>
0

> <s_m_source_file>
/data/baiqing/PycharmProjects/Reinvent-master-3.2/result/LINK_invent/BTK/process_docking_weight1_custom_product_contain_oxygen_bond_distance_aromatic_linkinvent_7_9_3/rearranged_h_0108.sdf

> <i_m_source_file_index>
63

> <r_mmod_Potential_Energy-OPLS-2005>
-53.051513671875

> <r_mmod_Stretch_Energy-OPLS-2005>
35.0036201477051

> <r_mmod_Bend_Energy-OPLS-2005>
95.2724685668945

> <r_mmod_Torsional_Energy-OPLS-2005>
269.491607666016

> <r_mmod_Improper_Torsional_Energy-OPLS-2005>
4.43885231018066

> <r_mmod_Van_der_Waal_Energy-OPLS-2005>
146.566162109375

> <r_mmod_Electrostatic_Energy-OPLS-2005>
-407.562774658203

> <r_mmod_Solvation_Energy-OPLS-2005>
-205.554611206055

> <b_mmod_Minimization_Converged-OPLS-2005>
0

> <r_mmod_RMS_Derivative-OPLS-2005>
0.752750992774963

$$$$
64
                    3D
 Structure written by MMmdl.
165174  0  0  1  0            999 V2000
  -30.6263  -14.6528   20.4941 C   0  0  0  0  0  0
  -30.4404  -12.3997   19.4638 C   0  0  0  0  0  0
  -29.5116  -12.5003   18.2323 C   0  0  0  0  0  0
  -28.0343  -12.3381   18.6415 C   0  0  0  0  0  0
  -27.6533  -13.2184   19.8621 C   0  0  2  0  0  0
  -28.6957  -13.0845   20.9955 C   0  0  0  0  0  0
  -25.2559  -13.8192   20.5699 C   0  0  0  0  0  0
  -24.1819  -13.0464   20.9207 C   0  0  0  0  0  0
  -24.6378  -11.6930   20.8751 C   0  0  0  0  0  0
  -23.9063  -10.4307   21.0409 C   0  0  0  0  0  0
  -24.3622   -9.4222   21.9185 C   0  0  0  0  0  0
  -23.6301   -8.2255   22.0750 C   0  0  0  0  0  0
  -22.4276   -8.0298   21.3551 C   0  0  0  0  0  0
  -21.9914   -9.0270   20.4654 C   0  0  0  0  0  0
  -22.7238  -10.2148   20.3061 C   0  0  0  0  0  0
  -21.6852   -6.0756   22.5283 C   0  0  0  0  0  0
  -21.4008   -6.5649   23.8223 C   0  0  0  0  0  0
  -21.3657   -5.6797   24.9185 C   0  0  0  0  0  0
  -21.6040   -4.3061   24.7226 C   0  0  0  0  0  0
  -21.8816   -3.8161   23.4343 C   0  0  0  0  0  0
  -21.9189   -4.6985   22.3402 C   0  0  0  0  0  0
  -22.7840  -13.5260   21.1871 C   0  0  0  0  0  0
  -22.1656   -4.2173   21.0981 F   0  0  0  0  0  0
  -21.5631   -3.4538   25.7731 F   0  0  0  0  0  0
  -30.0150  -13.4264   20.4360 N   0  0  0  0  0  0
  -26.2982  -12.9366   20.3314 N   0  0  0  0  0  0
  -25.9305  -11.6520   20.5756 N   0  0  0  0  0  0
  -22.0459  -12.8258   22.0416 N   0  0  0  0  0  0
  -25.4292  -15.1914   20.4110 N   0  0  0  0  0  0
  -31.7781  -14.8132   20.0783 O   0  0  0  0  0  0
  -21.6634   -6.8901   21.4242 O   0  0  0  0  0  0
  -22.3523  -14.5561   20.6710 O   0  0  0  0  0  0
  -24.6269  -31.8606   23.2048 C   0  0  0  0  0  0
  -25.9115  -32.4787   23.8370 C   0  0  1  0  0  0
  -27.2230  -27.3107   20.1043 C   0  0  0  0  0  0
  -25.5937  -33.8586   24.2298 N   0  0  0  0  0  0
  -23.4219  -30.4850   21.5476 C   0  0  2  0  0  0
  -24.8660  -28.9433   20.1124 C   0  0  0  0  0  0
  -22.7490  -29.4617   22.4948 C   0  0  0  0  0  0
  -18.0284  -28.1382   22.8503 C   0  0  0  0  0  0
  -24.1487  -36.7285   23.2639 C   0  0  0  0  0  0
  -25.9653  -30.7861   21.3800 C   0  0  0  0  0  0
  -26.0380  -29.4144   20.7177 C   0  0  0  0  0  0
  -27.2184  -28.6095   20.7059 C   0  0  0  0  0  0
  -26.0231  -26.9012   19.4737 C   0  0  0  0  0  0
  -24.8612  -27.6915   19.4839 C   0  0  0  0  0  0
  -23.6362  -29.8242   20.1626 C   0  0  0  0  0  0
  -25.4116  -36.3089   24.0337 C   0  0  1  0  0  0
  -20.5889  -28.3685   23.1292 C   0  0  2  0  0  0
  -20.6775  -26.9411   22.5410 C   0  0  0  0  0  0
  -19.5743  -26.6391   21.5216 C   0  0  0  0  0  0
  -18.1926  -26.7932   22.1634 C   0  0  0  0  0  0
  -19.1539  -28.8853   23.2889 C   0  0  0  0  0  0
  -18.9460  -30.1459   23.8899 C   0  0  0  0  0  0
  -17.6458  -30.6589   24.0565 C   0  0  0  0  0  0
  -25.9062  -34.9457   23.5118 C   0  0  0  0  0  0
  -16.5352  -29.9083   23.6331 C   0  0  0  0  0  0
  -16.7270  -28.6494   23.0365 C   0  0  0  0  0  0
  -26.4489  -31.6599   25.0747 C   0  0  0  0  0  0
  -25.3718  -31.3740   26.1473 C   0  0  0  0  0  0
  -27.0330  -30.3024   24.6220 C   0  0  0  0  0  0
  -27.6054  -32.4334   25.7505 C   0  0  0  0  0  0
  -27.5584  -37.1799   24.8469 C   0  0  0  0  0  0
  -21.4202  -29.3038   22.3689 N   0  0  0  0  0  0
  -26.4294  -37.3786   23.9418 N   0  0  0  0  0  0
  -24.6901  -31.0611   22.1001 N   0  0  0  0  0  0
  -23.4206  -28.8169   23.3041 O   0  0  0  0  0  0
  -28.3350  -26.4462   20.1475 O   0  0  0  0  0  0
  -26.5618  -34.8918   22.4678 O   0  0  0  0  0  0
  -23.5431  -32.1391   23.7377 O   0  0  0  0  0  0
  -29.3000  -19.4537   21.4238 C   0  0  0  0  0  0
  -29.3050  -18.0387   21.6115 C   0  0  0  0  0  0
  -30.5286  -17.7668   19.5670 C   0  0  0  0  0  0
  -30.5033  -19.1854   19.3516 C   0  0  0  0  0  0
  -29.8989  -20.0792   20.3003 C   0  0  0  0  0  0
  -29.9360  -17.1504   20.7011 C   0  0  0  0  0  0
  -29.1857  -23.8927   20.1582 C   0  0  0  0  0  0
  -28.9746  -22.5228   20.0566 C   0  0  0  0  0  0
  -30.5413  -24.3457   20.5520 C   0  0  0  0  0  0
  -31.4745  -23.2949   21.1523 C   0  0  0  0  0  0
  -31.3779  -21.9726   20.3806 C   0  0  0  0  0  0
  -27.6104  -21.9812   19.6444 C   0  0  0  0  0  0
  -30.1108  -20.3717   17.1125 C   0  0  0  0  0  0
  -31.1220  -19.6947   18.0502 C   0  0  0  0  0  0
  -28.1020  -25.0024   19.8644 C   0  0  0  0  0  0
  -29.9907  -21.5230   20.2266 N   0  0  0  0  0  0
  -29.8544  -15.7026   20.9210 N   0  0  0  0  0  0
  -30.9595  -25.5001   20.4266 O   0  0  0  0  0  0
  -31.4812  -12.5283   19.1605 H   0  0  0  0  0  0
  -30.3824  -11.4095   19.9164 H   0  0  0  0  0  0
  -29.7829  -11.7372   17.5015 H   0  0  0  0  0  0
  -29.6519  -13.4642   17.7395 H   0  0  0  0  0  0
  -27.8743  -11.2874   18.8824 H   0  0  0  0  0  0
  -27.3811  -12.5540   17.7948 H   0  0  0  0  0  0
  -27.6709  -14.2520   19.5149 H   0  0  0  0  0  0
  -28.7047  -12.0652   21.3842 H   0  0  0  0  0  0
  -28.4331  -13.7221   21.8420 H   0  0  0  0  0  0
  -25.2765   -9.5701   22.4764 H   0  0  0  0  0  0
  -24.0021   -7.4635   22.7448 H   0  0  0  0  0  0
  -21.0863   -8.8791   19.8938 H   0  0  0  0  0  0
  -22.3709  -10.9696   19.6172 H   0  0  0  0  0  0
  -21.1986   -7.6154   23.9740 H   0  0  0  0  0  0
  -21.1482   -6.0520   25.9091 H   0  0  0  0  0  0
  -22.0592   -2.7623   23.2831 H   0  0  0  0  0  0
  -22.4064  -11.9940   22.4857 H   0  0  0  0  0  0
  -21.1060  -13.1275   22.2577 H   0  0  0  0  0  0
  -24.6669  -15.8516   20.5259 H   0  0  0  0  0  0
  -26.2838  -15.6261   20.0847 H   0  0  0  0  0  0
  -26.7196  -32.5452   23.1125 H   0  0  0  0  0  0
  -25.0082  -33.9719   25.0447 H   0  0  0  0  0  0
  -22.7155  -31.3052   21.4064 H   0  0  0  0  0  0
  -23.3757  -35.9612   23.3308 H   0  0  0  0  0  0
  -24.3568  -36.8888   22.2050 H   0  0  0  0  0  0
  -23.7223  -37.6488   23.6645 H   0  0  0  0  0  0
  -26.1075  -31.5518   20.6161 H   0  0  0  0  0  0
  -26.8424  -30.8282   22.0140 H   0  0  0  0  0  0
  -28.1171  -28.9648   21.1908 H   0  0  0  0  0  0
  -25.9421  -25.9508   18.9685 H   0  0  0  0  0  0
  -23.9631  -27.3262   19.0041 H   0  0  0  0  0  0
  -23.7559  -30.6001   19.4057 H   0  0  0  0  0  0
  -22.7562  -29.2535   19.8619 H   0  0  0  0  0  0
  -25.1292  -36.1946   25.0832 H   0  0  0  0  0  0
  -20.9978  -28.3246   24.1412 H   0  0  0  0  0  0
  -20.5680  -26.2292   23.3605 H   0  0  0  0  0  0
  -21.6644  -26.7440   22.1198 H   0  0  0  0  0  0
  -19.6897  -25.6300   21.1241 H   0  0  0  0  0  0
  -19.6680  -27.3204   20.6746 H   0  0  0  0  0  0
  -17.4199  -26.6690   21.4032 H   0  0  0  0  0  0
  -18.0318  -26.0069   22.9023 H   0  0  0  0  0  0
  -19.7930  -30.7284   24.2270 H   0  0  0  0  0  0
  -17.5003  -31.6270   24.5166 H   0  0  0  0  0  0
  -15.5347  -30.2982   23.7656 H   0  0  0  0  0  0
  -15.8670  -28.0805   22.7091 H   0  0  0  0  0  0
  -24.5899  -30.7079   25.7804 H   0  0  0  0  0  0
  -24.8895  -32.2904   26.4893 H   0  0  0  0  0  0
  -25.8036  -30.8925   27.0258 H   0  0  0  0  0  0
  -26.2910  -29.6788   24.1226 H   0  0  0  0  0  0
  -27.3992  -29.7275   25.4734 H   0  0  0  0  0  0
  -27.8803  -30.4310   23.9481 H   0  0  0  0  0  0
  -27.2678  -33.3638   26.2086 H   0  0  0  0  0  0
  -28.3855  -32.6891   25.0322 H   0  0  0  0  0  0
  -28.0745  -31.8464   26.5410 H   0  0  0  0  0  0
  -28.2611  -38.0087   24.7525 H   0  0  0  0  0  0
  -28.1066  -36.2620   24.6292 H   0  0  0  0  0  0
  -27.2300  -37.1454   25.8871 H   0  0  0  0  0  0
  -20.9383  -29.8757   21.6899 H   0  0  0  0  0  0
  -26.0175  -38.2868   24.1409 H   0  0  0  0  0  0
  -28.8415  -20.0734   22.1807 H   0  0  0  0  0  0
  -28.8228  -17.6394   22.4919 H   0  0  0  0  0  0
  -30.9968  -17.1369   18.8240 H   0  0  0  0  0  0
  -31.1974  -23.1436   22.1949 H   0  0  0  0  0  0
  -32.5012  -23.6609   21.1440 H   0  0  0  0  0  0
  -31.9894  -21.2171   20.8767 H   0  0  0  0  0  0
  -31.8154  -22.1330   19.3954 H   0  0  0  0  0  0
  -26.8912  -22.1111   20.4535 H   0  0  0  0  0  0
  -27.6244  -20.9254   19.3770 H   0  0  0  0  0  0
  -27.2340  -22.5140   18.7704 H   0  0  0  0  0  0
  -30.5939  -20.6936   16.1898 H   0  0  0  0  0  0
  -29.6550  -21.2518   17.5641 H   0  0  0  0  0  0
  -29.3049  -19.6890   16.8412 H   0  0  0  0  0  0
  -31.5662  -18.8586   17.5093 H   0  0  0  0  0  0
  -31.9599  -20.3557   18.2634 H   0  0  0  0  0  0
  -27.2112  -24.6847   20.4092 H   0  0  0  0  0  0
  -27.8789  -24.9104   18.8007 H   0  0  0  0  0  0
  -29.0162  -15.3974   21.3911 H   0  0  0  0  0  0
  1 25  1  0  0  0
  1 30  2  0  0  0
  1 87  1  0  0  0
  2  3  1  0  0  0
  2 25  1  0  0  0
  2 89  1  0  0  0
  2 90  1  0  0  0
  3  4  1  0  0  0
  3 91  1  0  0  0
  3 92  1  0  0  0
  4  5  1  0  0  0
  4 93  1  0  0  0
  4 94  1  0  0  0
  5  6  1  0  0  0
  5 26  1  0  0  0
  5 95  1  0  0  0
  6 25  1  0  0  0
  6 96  1  0  0  0
  6 97  1  0  0  0
  7  8  2  0  0  0
  7 26  1  0  0  0
  7 29  1  0  0  0
  8  9  1  0  0  0
  8 22  1  0  0  0
  9 10  1  0  0  0
  9 27  2  0  0  0
 10 11  2  0  0  0
 10 15  1  0  0  0
 11 12  1  0  0  0
 11 98  1  0  0  0
 12 13  2  0  0  0
 12 99  1  0  0  0
 13 14  1  0  0  0
 13 31  1  0  0  0
 14 15  2  0  0  0
 14100  1  0  0  0
 15101  1  0  0  0
 16 17  2  0  0  0
 16 21  1  0  0  0
 16 31  1  0  0  0
 17 18  1  0  0  0
 17102  1  0  0  0
 18 19  2  0  0  0
 18103  1  0  0  0
 19 20  1  0  0  0
 19 24  1  0  0  0
 20 21  2  0  0  0
 20104  1  0  0  0
 21 23  1  0  0  0
 22 28  1  0  0  0
 22 32  2  0  0  0
 26 27  1  0  0  0
 28105  1  0  0  0
 28106  1  0  0  0
 29107  1  0  0  0
 29108  1  0  0  0
 33 34  1  0  0  0
 33 66  1  0  0  0
 33 70  2  0  0  0
 34 36  1  0  0  0
 34 59  1  0  0  0
 34109  1  0  0  0
 35 44  2  0  0  0
 35 45  1  0  0  0
 35 68  1  0  0  0
 36 56  1  0  0  0
 36110  1  0  0  0
 37 39  1  0  0  0
 37 47  1  0  0  0
 37 66  1  0  0  0
 37111  1  0  0  0
 38 43  2  0  0  0
 38 46  1  0  0  0
 38 47  1  0  0  0
 39 64  1  0  0  0
 39 67  2  0  0  0
 40 52  1  0  0  0
 40 53  2  0  0  0
 40 58  1  0  0  0
 41112  1  0  0  0
 41113  1  0  0  0
 41114  1  0  0  0
 41 48  1  0  0  0
 42 43  1  0  0  0
 42 66  1  0  0  0
 42115  1  0  0  0
 42116  1  0  0  0
 43 44  1  0  0  0
 44117  1  0  0  0
 45 46  2  0  0  0
 45118  1  0  0  0
 46119  1  0  0  0
 47120  1  0  0  0
 47121  1  0  0  0
 48 56  1  0  0  0
 48 65  1  0  0  0
 48122  1  0  0  0
 49 50  1  0  0  0
 49 53  1  0  0  0
 49 64  1  0  0  0
 49123  1  0  0  0
 50 51  1  0  0  0
 50124  1  0  0  0
 50125  1  0  0  0
 51 52  1  0  0  0
 51126  1  0  0  0
 51127  1  0  0  0
 52128  1  0  0  0
 52129  1  0  0  0
 53 54  1  0  0  0
 54 55  2  0  0  0
 54130  1  0  0  0
 55 57  1  0  0  0
 55131  1  0  0  0
 56 69  2  0  0  0
 57 58  2  0  0  0
 57132  1  0  0  0
 58133  1  0  0  0
 59 60  1  0  0  0
 59 61  1  0  0  0
 59 62  1  0  0  0
 60134  1  0  0  0
 60135  1  0  0  0
 60136  1  0  0  0
 61137  1  0  0  0
 61138  1  0  0  0
 61139  1  0  0  0
 62140  1  0  0  0
 62141  1  0  0  0
 62142  1  0  0  0
 63 65  1  0  0  0
 63143  1  0  0  0
 63144  1  0  0  0
 63145  1  0  0  0
 64146  1  0  0  0
 65147  1  0  0  0
 68 85  1  0  0  0
 71 72  2  0  0  0
 71 75  1  0  0  0
 71148  1  0  0  0
 72 76  1  0  0  0
 72149  1  0  0  0
 73 74  1  0  0  0
 73 76  2  0  0  0
 73150  1  0  0  0
 74 75  2  0  0  0
 74 84  1  0  0  0
 75 86  1  0  0  0
 76 87  1  0  0  0
 77 78  2  0  0  0
 77 79  1  0  0  0
 77 85  1  0  0  0
 78 82  1  0  0  0
 78 86  1  0  0  0
 79 80  1  0  0  0
 79 88  2  0  0  0
 80 81  1  0  0  0
 80151  1  0  0  0
 80152  1  0  0  0
 81 86  1  0  0  0
 81153  1  0  0  0
 81154  1  0  0  0
 82155  1  0  0  0
 82156  1  0  0  0
 82157  1  0  0  0
 83 84  1  0  0  0
 83158  1  0  0  0
 83159  1  0  0  0
 83160  1  0  0  0
 84161  1  0  0  0
 84162  1  0  0  0
 85163  1  0  0  0
 85164  1  0  0  0
 87165  1  0  0  0
M  ISO  4   1 100  68 101  85 101  87 100
M  END
> <chiral flag>
0

> <version>
0

> <s_m_source_file>
/data/baiqing/PycharmProjects/Reinvent-master-3.2/result/LINK_invent/BTK/process_docking_weight1_custom_product_contain_oxygen_bond_distance_aromatic_linkinvent_7_9_3/rearranged_h_0108.sdf

> <i_m_source_file_index>
64

> <r_mmod_Potential_Energy-OPLS-2005>
84.1937866210938

> <r_mmod_Stretch_Energy-OPLS-2005>
91.2210845947266

> <r_mmod_Bend_Energy-OPLS-2005>
141.007186889648

> <r_mmod_Torsional_Energy-OPLS-2005>
226.760604858398

> <r_mmod_Improper_Torsional_Energy-OPLS-2005>
3.80713605880737

> <r_mmod_Van_der_Waal_Energy-OPLS-2005>
160.974807739258

> <r_mmod_Electrostatic_Energy-OPLS-2005>
-370.249420166016

> <r_mmod_Solvation_Energy-OPLS-2005>
-222.33088684082

> <b_mmod_Minimization_Converged-OPLS-2005>
0

> <r_mmod_RMS_Derivative-OPLS-2005>
2.14354085922241

$$$$
65
                    3D
 Structure written by MMmdl.
155163  0  0  1  0            999 V2000
  -30.5300  -14.8930   20.4378 C   0  0  0  0  0  0
  -30.4524  -12.5467   19.4919 C   0  0  0  0  0  0
  -29.5266  -12.5322   18.2518 C   0  0  0  0  0  0
  -28.0590  -12.3163   18.6702 C   0  0  0  0  0  0
  -27.6419  -13.2343   19.8485 C   0  0  2  0  0  0
  -28.6863  -13.2097   20.9879 C   0  0  0  0  0  0
  -25.2532  -13.8191   20.5717 C   0  0  0  0  0  0
  -24.1815  -13.0443   20.9223 C   0  0  0  0  0  0
  -24.6395  -11.6917   20.8736 C   0  0  0  0  0  0
  -23.9068  -10.4299   21.0395 C   0  0  0  0  0  0
  -24.3615   -9.4213   21.9173 C   0  0  0  0  0  0
  -23.6288   -8.2257   22.0754 C   0  0  0  0  0  0
  -22.4267   -8.0293   21.3561 C   0  0  0  0  0  0
  -21.9897   -9.0264   20.4661 C   0  0  0  0  0  0
  -22.7232  -10.2138   20.3059 C   0  0  0  0  0  0
  -21.6858   -6.0729   22.5275 C   0  0  0  0  0  0
  -21.4017   -6.5628   23.8208 C   0  0  0  0  0  0
  -21.3661   -5.6786   24.9173 C   0  0  0  0  0  0
  -21.6044   -4.3051   24.7228 C   0  0  0  0  0  0
  -21.8815   -3.8143   23.4350 C   0  0  0  0  0  0
  -21.9193   -4.6956   22.3402 C   0  0  0  0  0  0
  -22.7839  -13.5238   21.1880 C   0  0  0  0  0  0
  -22.1662   -4.2137   21.0983 F   0  0  0  0  0  0
  -21.5627   -3.4539   25.7744 F   0  0  0  0  0  0
  -29.9766  -13.6177   20.4081 N   0  0  0  0  0  0
  -26.2944  -12.9392   20.3262 N   0  0  0  0  0  0
  -25.9324  -11.6534   20.5719 N   0  0  0  0  0  0
  -22.0480  -12.8235   22.0437 N   0  0  0  0  0  0
  -25.4247  -15.1920   20.4150 N   0  0  0  0  0  0
  -31.7081  -15.0315   20.0886 O   0  0  0  0  0  0
  -21.6646   -6.8881   21.4244 O   0  0  0  0  0  0
  -22.3532  -14.5549   20.6728 O   0  0  0  0  0  0
  -24.6412  -31.8468   23.1913 C   0  0  0  0  0  0
  -25.9190  -32.4710   23.8290 C   0  0  1  0  0  0
  -27.2165  -27.1557   20.1319 C   0  0  0  0  0  0
  -25.5948  -33.8511   24.2211 N   0  0  0  0  0  0
  -23.4434  -30.4692   21.5363 C   0  0  2  0  0  0
  -24.8931  -28.9052   20.1073 C   0  0  0  0  0  0
  -22.7552  -29.4563   22.4854 C   0  0  0  0  0  0
  -18.0311  -28.1384   22.8476 C   0  0  0  0  0  0
  -24.1490  -36.7262   23.2641 C   0  0  0  0  0  0
  -26.0002  -30.7249   21.3904 C   0  0  0  0  0  0
  -26.0713  -29.3384   20.7294 C   0  0  0  0  0  0
  -27.2324  -28.4786   20.7301 C   0  0  0  0  0  0
  -26.0104  -26.8300   19.4671 C   0  0  0  0  0  0
  -24.8753  -27.6625   19.4624 C   0  0  0  0  0  0
  -23.6695  -29.8051   20.1530 C   0  0  0  0  0  0
  -25.4114  -36.3033   24.0320 C   0  0  1  0  0  0
  -20.5920  -28.3712   23.1234 C   0  0  2  0  0  0
  -20.6794  -26.9412   22.5407 C   0  0  0  0  0  0
  -19.5770  -26.6372   21.5208 C   0  0  0  0  0  0
  -18.1952  -26.7924   22.1624 C   0  0  0  0  0  0
  -19.1567  -28.8864   23.2854 C   0  0  0  0  0  0
  -18.9482  -30.1457   23.8885 C   0  0  0  0  0  0
  -17.6479  -30.6581   24.0557 C   0  0  0  0  0  0
  -25.9066  -34.9412   23.5071 C   0  0  0  0  0  0
  -16.5374  -29.9079   23.6327 C   0  0  0  0  0  0
  -16.7292  -28.6499   23.0350 C   0  0  0  0  0  0
  -26.4517  -31.6560   25.0717 C   0  0  0  0  0  0
  -25.3721  -31.3758   26.1431 C   0  0  0  0  0  0
  -27.0368  -30.2954   24.6283 C   0  0  0  0  0  0
  -27.6068  -32.4310   25.7486 C   0  0  0  0  0  0
  -27.5577  -37.1774   24.8458 C   0  0  0  0  0  0
  -21.4248  -29.3043   22.3599 N   0  0  0  0  0  0
  -26.4273  -37.3749   23.9421 N   0  0  0  0  0  0
  -24.7145  -31.0340   22.0942 N   0  0  0  0  0  0
  -23.4206  -28.8107   23.2995 O   0  0  0  0  0  0
  -28.2613  -26.1620   20.1958 O   0  0  0  0  0  0
  -26.5650  -34.8903   22.4651 O   0  0  0  0  0  0
  -23.5530  -32.1343   23.7136 O   0  0  0  0  0  0
  -30.1253  -19.8933   19.8969 C   0  0  0  0  0  0
  -30.4207  -18.4596   19.9559 C   0  0  0  0  0  0
  -28.4969  -18.1459   21.2784 C   0  0  0  0  0  0
  -28.9781  -20.5271   20.5015 C   0  0  0  0  0  0
  -29.5969  -17.4969   20.6402 C   0  0  0  0  0  0
  -28.1984  -19.5679   21.2404 C   0  0  0  0  0  0
  -28.4563  -22.0441   20.4170 C   0  0  0  0  0  0
  -28.8638  -23.3546   20.0867 C   0  0  0  0  0  0
  -25.2582  -20.0817   23.4372 C   0  0  0  0  0  0
  -27.9024  -24.6761   19.9544 C   0  0  0  0  0  0
  -26.2560  -19.2292   22.6526 C   0  0  0  0  0  0
  -29.6743  -15.9725   20.7324 N   0  0  0  0  0  0
  -27.1163  -20.0943   21.9207 O   0  0  0  0  0  0
  -31.4893  -12.7033   19.1891 H   0  0  0  0  0  0
  -30.4325  -11.5794   19.9955 H   0  0  0  0  0  0
  -29.8366  -11.7542   17.5532 H   0  0  0  0  0  0
  -29.6187  -13.4775   17.7145 H   0  0  0  0  0  0
  -27.9512  -11.2717   18.9664 H   0  0  0  0  0  0
  -27.3948  -12.4604   17.8175 H   0  0  0  0  0  0
  -27.6217  -14.2455   19.4411 H   0  0  0  0  0  0
  -28.7561  -12.2153   21.4307 H   0  0  0  0  0  0
  -28.3901  -13.8784   21.7981 H   0  0  0  0  0  0
  -25.2756   -9.5681   22.4749 H   0  0  0  0  0  0
  -23.9993   -7.4641   22.7460 H   0  0  0  0  0  0
  -21.0833   -8.8785   19.8968 H   0  0  0  0  0  0
  -22.3684  -10.9678   19.6177 H   0  0  0  0  0  0
  -21.2011   -7.6133   23.9705 H   0  0  0  0  0  0
  -21.1485   -6.0522   25.9075 H   0  0  0  0  0  0
  -22.0590   -2.7604   23.2859 H   0  0  0  0  0  0
  -22.4102  -11.9900   22.4824 H   0  0  0  0  0  0
  -21.1101  -13.1270   22.2652 H   0  0  0  0  0  0
  -24.6526  -15.8409   20.5181 H   0  0  0  0  0  0
  -26.2544  -15.6238   20.0311 H   0  0  0  0  0  0
  -26.7258  -32.5321   23.1020 H   0  0  0  0  0  0
  -25.0056  -33.9633   25.0331 H   0  0  0  0  0  0
  -22.7443  -31.2942   21.3851 H   0  0  0  0  0  0
  -23.3752  -35.9591   23.3272 H   0  0  0  0  0  0
  -24.3586  -36.8923   22.2062 H   0  0  0  0  0  0
  -23.7244  -37.6450   23.6695 H   0  0  0  0  0  0
  -26.1540  -31.4816   20.6193 H   0  0  0  0  0  0
  -26.8713  -30.7748   22.0322 H   0  0  0  0  0  0
  -28.1255  -28.8023   21.2458 H   0  0  0  0  0  0
  -25.8934  -25.8910   18.9512 H   0  0  0  0  0  0
  -23.9795  -27.3277   18.9574 H   0  0  0  0  0  0
  -23.8058  -30.5831   19.4006 H   0  0  0  0  0  0
  -22.7844  -29.2487   19.8397 H   0  0  0  0  0  0
  -25.1295  -36.1857   25.0809 H   0  0  0  0  0  0
  -21.0020  -28.3310   24.1352 H   0  0  0  0  0  0
  -20.5670  -26.2325   23.3626 H   0  0  0  0  0  0
  -21.6664  -26.7407   22.1219 H   0  0  0  0  0  0
  -19.6928  -25.6277   21.1252 H   0  0  0  0  0  0
  -19.6704  -27.3167   20.6725 H   0  0  0  0  0  0
  -17.4212  -26.6649   21.4037 H   0  0  0  0  0  0
  -18.0363  -26.0073   22.9032 H   0  0  0  0  0  0
  -19.7959  -30.7272   24.2250 H   0  0  0  0  0  0
  -17.5036  -31.6262   24.5164 H   0  0  0  0  0  0
  -15.5371  -30.2979   23.7652 H   0  0  0  0  0  0
  -15.8696  -28.0806   22.7078 H   0  0  0  0  0  0
  -24.5832  -30.7190   25.7745 H   0  0  0  0  0  0
  -24.8992  -32.2954   26.4889 H   0  0  0  0  0  0
  -25.8001  -30.8870   27.0193 H   0  0  0  0  0  0
  -26.2969  -29.6679   24.1299 H   0  0  0  0  0  0
  -27.3993  -29.7252   25.4848 H   0  0  0  0  0  0
  -27.8880  -30.4188   23.9585 H   0  0  0  0  0  0
  -27.2676  -33.3617   26.2048 H   0  0  0  0  0  0
  -28.3877  -32.6860   25.0310 H   0  0  0  0  0  0
  -28.0736  -31.8442   26.5411 H   0  0  0  0  0  0
  -28.2563  -38.0101   24.7528 H   0  0  0  0  0  0
  -28.1103  -36.2631   24.6236 H   0  0  0  0  0  0
  -27.2309  -37.1368   25.8864 H   0  0  0  0  0  0
  -20.9438  -29.8759   21.6793 H   0  0  0  0  0  0
  -26.0137  -38.2808   24.1454 H   0  0  0  0  0  0
  -30.7913  -20.5188   19.3194 H   0  0  0  0  0  0
  -31.2924  -18.1009   19.4267 H   0  0  0  0  0  0
  -27.8406  -17.4850   21.8228 H   0  0  0  0  0  0
  -27.4022  -22.0670   20.6497 H   0  0  0  0  0  0
  -29.8963  -23.5160   19.8153 H   0  0  0  0  0  0
  -24.5895  -19.4477   24.0206 H   0  0  0  0  0  0
  -24.6471  -20.6948   22.7741 H   0  0  0  0  0  0
  -25.7753  -20.7451   24.1307 H   0  0  0  0  0  0
  -26.9990  -24.4564   20.5255 H   0  0  0  0  0  0
  -27.6084  -24.6289   18.9055 H   0  0  0  0  0  0
  -25.7238  -18.5688   21.9669 H   0  0  0  0  0  0
  -26.8174  -18.6165   23.3588 H   0  0  0  0  0  0
  -28.8101  -15.5850   21.0780 H   0  0  0  0  0  0
  1 25  1  0  0  0
  1 30  2  0  0  0
  1 82  1  0  0  0
  2  3  1  0  0  0
  2 25  1  0  0  0
  2 84  1  0  0  0
  2 85  1  0  0  0
  3  4  1  0  0  0
  3 86  1  0  0  0
  3 87  1  0  0  0
  4  5  1  0  0  0
  4 88  1  0  0  0
  4 89  1  0  0  0
  5  6  1  0  0  0
  5 26  1  0  0  0
  5 90  1  0  0  0
  6 25  1  0  0  0
  6 91  1  0  0  0
  6 92  1  0  0  0
  7  8  2  0  0  0
  7 26  1  0  0  0
  7 29  1  0  0  0
  8  9  1  0  0  0
  8 22  1  0  0  0
  9 10  1  0  0  0
  9 27  2  0  0  0
 10 11  2  0  0  0
 10 15  1  0  0  0
 11 12  1  0  0  0
 11 93  1  0  0  0
 12 13  2  0  0  0
 12 94  1  0  0  0
 13 14  1  0  0  0
 13 31  1  0  0  0
 14 15  2  0  0  0
 14 95  1  0  0  0
 15 96  1  0  0  0
 16 17  2  0  0  0
 16 21  1  0  0  0
 16 31  1  0  0  0
 17 18  1  0  0  0
 17 97  1  0  0  0
 18 19  2  0  0  0
 18 98  1  0  0  0
 19 20  1  0  0  0
 19 24  1  0  0  0
 20 21  2  0  0  0
 20 99  1  0  0  0
 21 23  1  0  0  0
 22 28  1  0  0  0
 22 32  2  0  0  0
 26 27  1  0  0  0
 28100  1  0  0  0
 28101  1  0  0  0
 29102  1  0  0  0
 29103  1  0  0  0
 33 34  1  0  0  0
 33 66  1  0  0  0
 33 70  2  0  0  0
 34 36  1  0  0  0
 34 59  1  0  0  0
 34104  1  0  0  0
 35 44  2  0  0  0
 35 45  1  0  0  0
 35 68  1  0  0  0
 36 56  1  0  0  0
 36105  1  0  0  0
 37 39  1  0  0  0
 37 47  1  0  0  0
 37 66  1  0  0  0
 37106  1  0  0  0
 38 43  2  0  0  0
 38 46  1  0  0  0
 38 47  1  0  0  0
 39 64  1  0  0  0
 39 67  2  0  0  0
 40 52  1  0  0  0
 40 53  2  0  0  0
 40 58  1  0  0  0
 41107  1  0  0  0
 41108  1  0  0  0
 41109  1  0  0  0
 41 48  1  0  0  0
 42 43  1  0  0  0
 42 66  1  0  0  0
 42110  1  0  0  0
 42111  1  0  0  0
 43 44  1  0  0  0
 44112  1  0  0  0
 45 46  2  0  0  0
 45113  1  0  0  0
 46114  1  0  0  0
 47115  1  0  0  0
 47116  1  0  0  0
 48 56  1  0  0  0
 48 65  1  0  0  0
 48117  1  0  0  0
 49 50  1  0  0  0
 49 53  1  0  0  0
 49 64  1  0  0  0
 49118  1  0  0  0
 50 51  1  0  0  0
 50119  1  0  0  0
 50120  1  0  0  0
 51 52  1  0  0  0
 51121  1  0  0  0
 51122  1  0  0  0
 52123  1  0  0  0
 52124  1  0  0  0
 53 54  1  0  0  0
 54 55  2  0  0  0
 54125  1  0  0  0
 55 57  1  0  0  0
 55126  1  0  0  0
 56 69  2  0  0  0
 57 58  2  0  0  0
 57127  1  0  0  0
 58128  1  0  0  0
 59 60  1  0  0  0
 59 61  1  0  0  0
 59 62  1  0  0  0
 60129  1  0  0  0
 60130  1  0  0  0
 60131  1  0  0  0
 61132  1  0  0  0
 61133  1  0  0  0
 61134  1  0  0  0
 62135  1  0  0  0
 62136  1  0  0  0
 62137  1  0  0  0
 63 65  1  0  0  0
 63138  1  0  0  0
 63139  1  0  0  0
 63140  1  0  0  0
 64141  1  0  0  0
 65142  1  0  0  0
 68 80  1  0  0  0
 71 72  2  0  0  0
 71 74  1  0  0  0
 71143  1  0  0  0
 72 75  1  0  0  0
 72144  1  0  0  0
 73 75  2  0  0  0
 73 76  1  0  0  0
 73145  1  0  0  0
 74 76  2  0  0  0
 74 77  1  0  0  0
 75 82  1  0  0  0
 76 83  1  0  0  0
 77 78  2  0  0  0
 77146  1  0  0  0
 78 80  1  0  0  0
 78147  1  0  0  0
 79 81  1  0  0  0
 79148  1  0  0  0
 79149  1  0  0  0
 79150  1  0  0  0
 80151  1  0  0  0
 80152  1  0  0  0
 81 83  1  0  0  0
 81153  1  0  0  0
 81154  1  0  0  0
 82155  1  0  0  0
M  ISO  4   1 100  68 101  80 101  82 100
M  END
> <chiral flag>
0

> <version>
0

> <s_m_source_file>
/data/baiqing/PycharmProjects/Reinvent-master-3.2/result/LINK_invent/BTK/process_docking_weight1_custom_product_contain_oxygen_bond_distance_aromatic_linkinvent_7_9_3/rearranged_h_0108.sdf

> <i_m_source_file_index>
65

> <r_mmod_Potential_Energy-OPLS-2005>
442.7412109375

> <r_mmod_Stretch_Energy-OPLS-2005>
208.890502929688

> <r_mmod_Bend_Energy-OPLS-2005>
277.006774902344

> <r_mmod_Torsional_Energy-OPLS-2005>
216.068939208984

> <r_mmod_Improper_Torsional_Energy-OPLS-2005>
4.71420669555664

> <r_mmod_Van_der_Waal_Energy-OPLS-2005>
144.448059082031

> <r_mmod_Electrostatic_Energy-OPLS-2005>
-362.537445068359

> <r_mmod_Solvation_Energy-OPLS-2005>
-212.758972167969

> <b_mmod_Minimization_Converged-OPLS-2005>
0

> <r_mmod_RMS_Derivative-OPLS-2005>
1.96207571029663

$$$$
66
                    3D
 Structure written by MMmdl.
157166  0  0  1  0            999 V2000
  -30.7134  -14.5306   20.5296 C   0  0  0  0  0  0
  -30.4140  -12.3376   19.4281 C   0  0  0  0  0  0
  -29.4888  -12.4929   18.2057 C   0  0  0  0  0  0
  -28.0134  -12.3412   18.6247 C   0  0  0  0  0  0
  -27.6475  -13.2087   19.8586 C   0  0  2  0  0  0
  -28.6967  -13.0703   20.9838 C   0  0  0  0  0  0
  -25.2554  -13.8157   20.5688 C   0  0  0  0  0  0
  -24.1818  -13.0434   20.9202 C   0  0  0  0  0  0
  -24.6378  -11.6903   20.8760 C   0  0  0  0  0  0
  -23.9052  -10.4290   21.0419 C   0  0  0  0  0  0
  -24.3610   -9.4205   21.9191 C   0  0  0  0  0  0
  -23.6286   -8.2240   22.0757 C   0  0  0  0  0  0
  -22.4269   -8.0282   21.3546 C   0  0  0  0  0  0
  -21.9904   -9.0254   20.4648 C   0  0  0  0  0  0
  -22.7231  -10.2132   20.3060 C   0  0  0  0  0  0
  -21.6848   -6.0742   22.5283 C   0  0  0  0  0  0
  -21.4009   -6.5646   23.8216 C   0  0  0  0  0  0
  -21.3655   -5.6796   24.9177 C   0  0  0  0  0  0
  -21.6041   -4.3059   24.7223 C   0  0  0  0  0  0
  -21.8817   -3.8152   23.4345 C   0  0  0  0  0  0
  -21.9191   -4.6971   22.3403 C   0  0  0  0  0  0
  -22.7842  -13.5236   21.1856 C   0  0  0  0  0  0
  -22.1657   -4.2160   21.0978 F   0  0  0  0  0  0
  -21.5629   -3.4540   25.7733 F   0  0  0  0  0  0
  -30.0145  -13.3644   20.4044 N   0  0  0  0  0  0
  -26.2964  -12.9317   20.3328 N   0  0  0  0  0  0
  -25.9302  -11.6484   20.5784 N   0  0  0  0  0  0
  -22.0475  -12.8234   22.0410 N   0  0  0  0  0  0
  -25.4279  -15.1875   20.4070 N   0  0  0  0  0  0
  -31.8876  -14.6234   20.1613 O   0  0  0  0  0  0
  -21.6632   -6.8883   21.4243 O   0  0  0  0  0  0
  -22.3538  -14.5545   20.6701 O   0  0  0  0  0  0
  -24.6175  -31.8647   23.2077 C   0  0  0  0  0  0
  -25.9059  -32.4805   23.8382 C   0  0  1  0  0  0
  -27.2303  -27.4068   20.1071 C   0  0  0  0  0  0
  -25.5907  -33.8605   24.2319 N   0  0  0  0  0  0
  -23.4070  -30.4876   21.5480 C   0  0  2  0  0  0
  -24.8541  -28.9473   20.1160 C   0  0  0  0  0  0
  -22.7423  -29.4645   22.4975 C   0  0  0  0  0  0
  -18.0273  -28.1382   22.8492 C   0  0  0  0  0  0
  -24.1487  -36.7303   23.2641 C   0  0  0  0  0  0
  -25.9377  -30.8239   21.3624 C   0  0  0  0  0  0
  -26.0164  -29.4553   20.7111 C   0  0  0  0  0  0
  -27.2118  -28.6945   20.6981 C   0  0  0  0  0  0
  -26.0526  -26.9172   19.5067 C   0  0  0  0  0  0
  -24.8683  -27.6789   19.5091 C   0  0  0  0  0  0
  -23.6169  -29.8169   20.1641 C   0  0  0  0  0  0
  -25.4108  -36.3099   24.0338 C   0  0  1  0  0  0
  -20.5865  -28.3671   23.1308 C   0  0  2  0  0  0
  -20.6765  -26.9403   22.5414 C   0  0  0  0  0  0
  -19.5743  -26.6384   21.5212 C   0  0  0  0  0  0
  -18.1920  -26.7931   22.1621 C   0  0  0  0  0  0
  -19.1523  -28.8842   23.2898 C   0  0  0  0  0  0
  -18.9450  -30.1449   23.8908 C   0  0  0  0  0  0
  -17.6451  -30.6587   24.0567 C   0  0  0  0  0  0
  -25.9036  -34.9464   23.5125 C   0  0  0  0  0  0
  -16.5342  -29.9086   23.6333 C   0  0  0  0  0  0
  -16.7261  -28.6505   23.0350 C   0  0  0  0  0  0
  -26.4484  -31.6588   25.0715 C   0  0  0  0  0  0
  -25.3749  -31.3679   26.1461 C   0  0  0  0  0  0
  -27.0328  -30.3036   24.6095 C   0  0  0  0  0  0
  -27.6056  -32.4310   25.7479 C   0  0  0  0  0  0
  -27.5578  -37.1806   24.8468 C   0  0  0  0  0  0
  -21.4147  -29.3035   22.3714 N   0  0  0  0  0  0
  -26.4291  -37.3786   23.9410 N   0  0  0  0  0  0
  -24.6725  -31.0734   22.0979 N   0  0  0  0  0  0
  -23.4184  -28.8190   23.3027 O   0  0  0  0  0  0
  -28.3711  -26.6290   20.0960 O   0  0  0  0  0  0
  -26.5597  -34.8919   22.4686 O   0  0  0  0  0  0
  -23.5363  -32.1405   23.7462 O   0  0  0  0  0  0
  -29.0715  -19.1031   20.0006 C   0  0  0  0  0  0
  -29.8146  -20.2418   22.0367 C   0  0  0  0  0  0
  -29.4979  -17.8810   20.5801 C   0  0  0  0  0  0
  -30.0747  -17.8400   21.8273 C   0  0  0  0  0  0
  -30.2460  -19.0084   22.5926 C   0  0  0  0  0  0
  -29.2342  -20.3136   20.7374 C   0  0  0  0  0  0
  -29.4918  -16.5019   20.0027 C   0  0  0  0  0  0
  -28.5016  -24.1044   20.1087 C   0  0  0  0  0  0
  -30.4639  -16.4064   22.1204 C   0  0  0  0  0  0
  -30.8886  -18.9504   23.9642 C   0  0  0  0  0  0
  -28.8428  -22.8233   20.9238 C   0  0  0  0  0  0
  -28.2955  -25.4254   20.9019 C   0  0  0  0  0  0
  -30.0399  -15.6460   20.9160 N   0  0  0  0  0  0
  -28.8390  -21.5493   20.1668 N   0  0  0  0  0  0
  -29.0847  -16.2493   18.8633 O   0  0  0  0  0  0
  -28.3853  -24.0581   18.8781 O   0  0  0  0  0  0
  -31.4587  -12.4245   19.1234 H   0  0  0  0  0  0
  -30.3131  -11.3428   19.8644 H   0  0  0  0  0  0
  -29.7386  -11.7509   17.4462 H   0  0  0  0  0  0
  -29.6430  -13.4694   17.7433 H   0  0  0  0  0  0
  -27.8421  -11.2881   18.8499 H   0  0  0  0  0  0
  -27.3569  -12.5820   17.7877 H   0  0  0  0  0  0
  -27.6569  -14.2397   19.5151 H   0  0  0  0  0  0
  -28.6883  -12.0607   21.3966 H   0  0  0  0  0  0
  -28.4621  -13.7381   21.8145 H   0  0  0  0  0  0
  -25.2759   -9.5678   22.4763 H   0  0  0  0  0  0
  -23.9996   -7.4630   22.7475 H   0  0  0  0  0  0
  -21.0838   -8.8773   19.8949 H   0  0  0  0  0  0
  -22.3700  -10.9673   19.6166 H   0  0  0  0  0  0
  -21.1999   -7.6152   23.9724 H   0  0  0  0  0  0
  -21.1475   -6.0525   25.9079 H   0  0  0  0  0  0
  -22.0599   -2.7618   23.2839 H   0  0  0  0  0  0
  -22.4079  -11.9887   22.4795 H   0  0  0  0  0  0
  -21.1093  -13.1266   22.2610 H   0  0  0  0  0  0
  -24.6587  -15.8410   20.5071 H   0  0  0  0  0  0
  -26.2691  -15.6191   20.0466 H   0  0  0  0  0  0
  -26.7132  -32.5508   23.1148 H   0  0  0  0  0  0
  -25.0079  -33.9762   25.0481 H   0  0  0  0  0  0
  -22.6971  -31.3052   21.4064 H   0  0  0  0  0  0
  -23.3744  -35.9641   23.3311 H   0  0  0  0  0  0
  -24.3583  -36.8910   22.2054 H   0  0  0  0  0  0
  -23.7243  -37.6511   23.6653 H   0  0  0  0  0  0
  -26.0514  -31.5882   20.5924 H   0  0  0  0  0  0
  -26.8253  -30.8795   21.9811 H   0  0  0  0  0  0
  -28.1112  -29.0825   21.1559 H   0  0  0  0  0  0
  -26.0518  -25.9438   19.0368 H   0  0  0  0  0  0
  -23.9750  -27.2825   19.0463 H   0  0  0  0  0  0
  -23.7269  -30.5903   19.4030 H   0  0  0  0  0  0
  -22.7406  -29.2371   19.8679 H   0  0  0  0  0  0
  -25.1288  -36.1958   25.0833 H   0  0  0  0  0  0
  -20.9955  -28.3237   24.1429 H   0  0  0  0  0  0
  -20.5667  -26.2278   23.3603 H   0  0  0  0  0  0
  -21.6633  -26.7444   22.1201 H   0  0  0  0  0  0
  -19.6900  -25.6297   21.1232 H   0  0  0  0  0  0
  -19.6684  -27.3204   20.6752 H   0  0  0  0  0  0
  -17.4189  -26.6687   21.4021 H   0  0  0  0  0  0
  -18.0315  -26.0065   22.9009 H   0  0  0  0  0  0
  -19.7924  -30.7267   24.2279 H   0  0  0  0  0  0
  -17.5005  -31.6270   24.5165 H   0  0  0  0  0  0
  -15.5345  -30.2994   23.7657 H   0  0  0  0  0  0
  -15.8659  -28.0831   22.7060 H   0  0  0  0  0  0
  -24.5939  -30.7012   25.7790 H   0  0  0  0  0  0
  -24.8925  -32.2821   26.4925 H   0  0  0  0  0  0
  -25.8108  -30.8838   27.0211 H   0  0  0  0  0  0
  -26.2876  -29.6772   24.1179 H   0  0  0  0  0  0
  -27.4137  -29.7294   25.4552 H   0  0  0  0  0  0
  -27.8690  -30.4357   23.9225 H   0  0  0  0  0  0
  -27.2681  -33.3608   26.2070 H   0  0  0  0  0  0
  -28.3866  -32.6871   25.0307 H   0  0  0  0  0  0
  -28.0730  -31.8425   26.5384 H   0  0  0  0  0  0
  -28.2596  -38.0104   24.7514 H   0  0  0  0  0  0
  -28.1074  -36.2635   24.6296 H   0  0  0  0  0  0
  -27.2296  -37.1449   25.8871 H   0  0  0  0  0  0
  -20.9313  -29.8757   21.6933 H   0  0  0  0  0  0
  -26.0175  -38.2861   24.1413 H   0  0  0  0  0  0
  -28.6446  -19.1039   19.0071 H   0  0  0  0  0  0
  -29.9536  -21.1390   22.6225 H   0  0  0  0  0  0
  -29.9419  -16.0411   23.0059 H   0  0  0  0  0  0
  -31.5395  -16.3361   22.2955 H   0  0  0  0  0  0
  -30.8777  -19.9253   24.4526 H   0  0  0  0  0  0
  -31.9262  -18.6245   23.8843 H   0  0  0  0  0  0
  -30.3578  -18.2463   24.6056 H   0  0  0  0  0  0
  -28.1347  -22.7506   21.7504 H   0  0  0  0  0  0
  -29.8280  -22.9785   21.3648 H   0  0  0  0  0  0
  -29.0650  -25.4835   21.6718 H   0  0  0  0  0  0
  -27.3409  -25.3648   21.4265 H   0  0  0  0  0  0
  -28.4293  -21.5822   19.2355 H   0  0  0  0  0  0
  1 25  1  0  0  0
  1 30  2  0  0  0
  1 83  1  0  0  0
  2  3  1  0  0  0
  2 25  1  0  0  0
  2 87  1  0  0  0
  2 88  1  0  0  0
  3  4  1  0  0  0
  3 89  1  0  0  0
  3 90  1  0  0  0
  4  5  1  0  0  0
  4 91  1  0  0  0
  4 92  1  0  0  0
  5  6  1  0  0  0
  5 26  1  0  0  0
  5 93  1  0  0  0
  6 25  1  0  0  0
  6 94  1  0  0  0
  6 95  1  0  0  0
  7  8  2  0  0  0
  7 26  1  0  0  0
  7 29  1  0  0  0
  8  9  1  0  0  0
  8 22  1  0  0  0
  9 10  1  0  0  0
  9 27  2  0  0  0
 10 11  2  0  0  0
 10 15  1  0  0  0
 11 12  1  0  0  0
 11 96  1  0  0  0
 12 13  2  0  0  0
 12 97  1  0  0  0
 13 14  1  0  0  0
 13 31  1  0  0  0
 14 15  2  0  0  0
 14 98  1  0  0  0
 15 99  1  0  0  0
 16 17  2  0  0  0
 16 21  1  0  0  0
 16 31  1  0  0  0
 17 18  1  0  0  0
 17100  1  0  0  0
 18 19  2  0  0  0
 18101  1  0  0  0
 19 20  1  0  0  0
 19 24  1  0  0  0
 20 21  2  0  0  0
 20102  1  0  0  0
 21 23  1  0  0  0
 22 28  1  0  0  0
 22 32  2  0  0  0
 26 27  1  0  0  0
 28103  1  0  0  0
 28104  1  0  0  0
 29105  1  0  0  0
 29106  1  0  0  0
 33 34  1  0  0  0
 33 66  1  0  0  0
 33 70  2  0  0  0
 34 36  1  0  0  0
 34 59  1  0  0  0
 34107  1  0  0  0
 35 44  2  0  0  0
 35 45  1  0  0  0
 35 68  1  0  0  0
 36 56  1  0  0  0
 36108  1  0  0  0
 37 39  1  0  0  0
 37 47  1  0  0  0
 37 66  1  0  0  0
 37109  1  0  0  0
 38 43  2  0  0  0
 38 46  1  0  0  0
 38 47  1  0  0  0
 39 64  1  0  0  0
 39 67  2  0  0  0
 40 52  1  0  0  0
 40 53  2  0  0  0
 40 58  1  0  0  0
 41110  1  0  0  0
 41111  1  0  0  0
 41112  1  0  0  0
 41 48  1  0  0  0
 42 43  1  0  0  0
 42 66  1  0  0  0
 42113  1  0  0  0
 42114  1  0  0  0
 43 44  1  0  0  0
 44115  1  0  0  0
 45 46  2  0  0  0
 45116  1  0  0  0
 46117  1  0  0  0
 47118  1  0  0  0
 47119  1  0  0  0
 48 56  1  0  0  0
 48 65  1  0  0  0
 48120  1  0  0  0
 49 50  1  0  0  0
 49 53  1  0  0  0
 49 64  1  0  0  0
 49121  1  0  0  0
 50 51  1  0  0  0
 50122  1  0  0  0
 50123  1  0  0  0
 51 52  1  0  0  0
 51124  1  0  0  0
 51125  1  0  0  0
 52126  1  0  0  0
 52127  1  0  0  0
 53 54  1  0  0  0
 54 55  2  0  0  0
 54128  1  0  0  0
 55 57  1  0  0  0
 55129  1  0  0  0
 56 69  2  0  0  0
 57 58  2  0  0  0
 57130  1  0  0  0
 58131  1  0  0  0
 59 60  1  0  0  0
 59 61  1  0  0  0
 59 62  1  0  0  0
 60132  1  0  0  0
 60133  1  0  0  0
 60134  1  0  0  0
 61135  1  0  0  0
 61136  1  0  0  0
 61137  1  0  0  0
 62138  1  0  0  0
 62139  1  0  0  0
 62140  1  0  0  0
 63 65  1  0  0  0
 63141  1  0  0  0
 63142  1  0  0  0
 63143  1  0  0  0
 64144  1  0  0  0
 65145  1  0  0  0
 68 82  1  0  0  0
 71 73  2  0  0  0
 71 76  1  0  0  0
 71146  1  0  0  0
 72 75  1  0  0  0
 72 76  2  0  0  0
 72147  1  0  0  0
 73 74  1  0  0  0
 73 77  1  0  0  0
 74 75  2  0  0  0
 74 79  1  0  0  0
 75 80  1  0  0  0
 76 84  1  0  0  0
 77 83  1  0  0  0
 77 85  2  0  0  0
 78 81  1  0  0  0
 78 82  1  0  0  0
 78 86  2  0  0  0
 79 83  1  0  0  0
 79148  1  0  0  0
 79149  1  0  0  0
 80150  1  0  0  0
 80151  1  0  0  0
 80152  1  0  0  0
 81 84  1  0  0  0
 81153  1  0  0  0
 81154  1  0  0  0
 82155  1  0  0  0
 82156  1  0  0  0
 84157  1  0  0  0
M  ISO  4   1 100  68 101  82 101  83 100
M  END
> <chiral flag>
0

> <version>
0

> <s_m_source_file>
/data/baiqing/PycharmProjects/Reinvent-master-3.2/result/LINK_invent/BTK/process_docking_weight1_custom_product_contain_oxygen_bond_distance_aromatic_linkinvent_7_9_3/rearranged_h_0108.sdf

> <i_m_source_file_index>
66

> <r_mmod_Potential_Energy-OPLS-2005>
119.615463256836

> <r_mmod_Stretch_Energy-OPLS-2005>
49.5972023010254

> <r_mmod_Bend_Energy-OPLS-2005>
171.842361450195

> <r_mmod_Torsional_Energy-OPLS-2005>
308.083923339844

> <r_mmod_Improper_Torsional_Energy-OPLS-2005>
6.60414457321167

> <r_mmod_Van_der_Waal_Energy-OPLS-2005>
135.68000793457

> <r_mmod_Electrostatic_Energy-OPLS-2005>
-353.294250488281

> <r_mmod_Solvation_Energy-OPLS-2005>
-222.256301879883

> <b_mmod_Minimization_Converged-OPLS-2005>
0

> <r_mmod_RMS_Derivative-OPLS-2005>
0.594003319740295

$$$$
67
                    3D
 Structure written by MMmdl.
166175  0  0  1  0            999 V2000
  -30.6053  -14.5492   20.5536 C   0  0  0  0  0  0
  -30.4379  -12.3801   19.4402 C   0  0  0  0  0  0
  -29.5053  -12.5538   18.2208 C   0  0  0  0  0  0
  -28.0141  -12.4186   18.6047 C   0  0  0  0  0  0
  -27.6431  -13.2236   19.8793 C   0  0  2  0  0  0
  -28.6823  -12.9968   21.0089 C   0  0  0  0  0  0
  -25.2583  -13.7950   20.6315 C   0  0  0  0  0  0
  -24.1751  -13.0266   20.9336 C   0  0  0  0  0  0
  -24.6251  -11.6784   20.8557 C   0  0  0  0  0  0
  -23.9007  -10.4242   21.0297 C   0  0  0  0  0  0
  -24.3621   -9.4192   21.9094 C   0  0  0  0  0  0
  -23.6295   -8.2243   22.0718 C   0  0  0  0  0  0
  -22.4257   -8.0310   21.3533 C   0  0  0  0  0  0
  -21.9861   -9.0251   20.4613 C   0  0  0  0  0  0
  -22.7184  -10.2116   20.2965 C   0  0  0  0  0  0
  -21.6882   -6.0760   22.5255 C   0  0  0  0  0  0
  -21.4021   -6.5668   23.8197 C   0  0  0  0  0  0
  -21.3633   -5.6814   24.9164 C   0  0  0  0  0  0
  -21.6039   -4.3069   24.7210 C   0  0  0  0  0  0
  -21.8838   -3.8169   23.4331 C   0  0  0  0  0  0
  -21.9253   -4.6991   22.3408 C   0  0  0  0  0  0
  -22.7744  -13.5021   21.1877 C   0  0  0  0  0  0
  -22.1694   -4.2199   21.0971 F   0  0  0  0  0  0
  -21.5641   -3.4543   25.7714 F   0  0  0  0  0  0
  -30.0180  -13.3228   20.4852 N   0  0  0  0  0  0
  -26.2910  -12.9287   20.3379 N   0  0  0  0  0  0
  -25.9144  -11.6408   20.5380 N   0  0  0  0  0  0
  -22.0345  -12.8163   22.0466 N   0  0  0  0  0  0
  -25.4313  -15.1605   20.5668 N   0  0  0  0  0  0
  -31.7418  -14.7547   20.1086 O   0  0  0  0  0  0
  -21.6676   -6.8900   21.4180 O   0  0  0  0  0  0
  -22.3612  -14.5370   20.6714 O   0  0  0  0  0  0
  -24.6302  -31.8661   23.2125 C   0  0  0  0  0  0
  -25.9138  -32.4803   23.8409 C   0  0  1  0  0  0
  -27.1030  -27.3005   20.1784 C   0  0  0  0  0  0
  -25.5995  -33.8588   24.2319 N   0  0  0  0  0  0
  -23.4145  -30.5227   21.5436 C   0  0  2  0  0  0
  -24.8265  -28.9477   20.1276 C   0  0  0  0  0  0
  -22.7437  -29.4965   22.4857 C   0  0  0  0  0  0
  -18.0182  -28.1462   22.8460 C   0  0  0  0  0  0
  -24.1504  -36.7325   23.2641 C   0  0  0  0  0  0
  -25.9585  -30.8017   21.3708 C   0  0  0  0  0  0
  -26.0037  -29.4178   20.7296 C   0  0  0  0  0  0
  -27.1555  -28.5906   20.7708 C   0  0  0  0  0  0
  -25.9417  -26.8774   19.5243 C   0  0  0  0  0  0
  -24.7876  -27.6782   19.5233 C   0  0  0  0  0  0
  -23.6228  -29.8522   20.1576 C   0  0  0  0  0  0
  -25.4114  -36.3110   24.0364 C   0  0  1  0  0  0
  -20.5759  -28.4140   23.0940 C   0  0  2  0  0  0
  -20.6983  -27.0156   22.4399 C   0  0  0  0  0  0
  -19.5445  -26.6488   21.5039 C   0  0  0  0  0  0
  -18.2069  -26.7694   22.2328 C   0  0  0  0  0  0
  -19.1326  -28.9098   23.2805 C   0  0  0  0  0  0
  -18.8987  -30.1551   23.8940 C   0  0  0  0  0  0
  -17.5956  -30.6428   24.0482 C   0  0  0  0  0  0
  -25.9048  -34.9478   23.5122 C   0  0  0  0  0  0
  -16.4963  -29.8964   23.5833 C   0  0  0  0  0  0
  -16.7118  -28.6513   22.9858 C   0  0  0  0  0  0
  -26.4508  -31.6593   25.0741 C   0  0  0  0  0  0
  -25.3749  -31.3740   26.1478 C   0  0  0  0  0  0
  -27.0375  -30.3057   24.6118 C   0  0  0  0  0  0
  -27.6109  -32.4282   25.7516 C   0  0  0  0  0  0
  -27.5589  -37.1848   24.8479 C   0  0  0  0  0  0
  -21.4045  -29.3795   22.3700 N   0  0  0  0  0  0
  -26.4290  -37.3808   23.9438 N   0  0  0  0  0  0
  -24.6888  -31.0812   22.1005 N   0  0  0  0  0  0
  -23.4129  -28.8154   23.2691 O   0  0  0  0  0  0
  -28.1457  -26.4060   20.1749 O   0  0  0  0  0  0
  -26.5545  -34.8968   22.4636 O   0  0  0  0  0  0
  -23.5455  -32.1468   23.7415 O   0  0  0  0  0  0
  -29.1686  -18.8141   21.5350 C   0  0  0  0  0  0
  -28.4730  -20.0169   21.8661 C   0  0  0  0  0  0
  -26.8508  -19.5002   20.1478 C   0  0  0  0  0  0
  -28.7098  -17.9259   20.5221 C   0  0  0  0  0  0
  -27.3463  -20.4270   21.0827 C   0  0  0  0  0  0
  -27.4732  -18.2490   19.8856 C   0  0  0  0  0  0
  -27.0679  -24.1285   21.2192 C   0  0  0  0  0  0
  -27.2503  -22.9097   20.6482 C   0  0  0  0  0  0
  -26.0572  -24.1670   22.3232 C   0  0  0  0  0  0
  -24.9412  -23.1123   22.2095 C   0  0  0  0  0  0
  -25.5618  -21.6864   22.0905 C   0  0  0  0  0  0
  -28.0529  -22.7555   19.3698 C   0  0  0  0  0  0
  -25.4983  -17.5427   18.7570 C   0  0  0  0  0  0
  -29.5375  -16.7187   20.0075 C   0  0  0  0  0  0
  -28.1162  -25.2946   21.1380 C   0  0  0  0  0  0
  -26.7120  -21.6956   21.1775 N   0  0  0  0  0  0
  -29.7606  -15.5577   20.8920 N   0  0  0  0  0  0
  -26.1095  -24.9251   23.2872 O   0  0  0  0  0  0
  -26.8986  -17.3441   19.0250 O   0  0  0  0  0  0
  -31.4581  -12.5577   19.1145 H   0  0  0  0  0  0
  -30.4479  -11.3521   19.8132 H   0  0  0  0  0  0
  -29.7502  -11.8261   17.4329 H   0  0  0  0  0  0
  -29.6821  -13.5423   17.7930 H   0  0  0  0  0  0
  -27.7879  -11.3523   18.7610 H   0  0  0  0  0  0
  -27.3933  -12.7575   17.7771 H   0  0  0  0  0  0
  -27.6568  -14.2797   19.5966 H   0  0  0  0  0  0
  -28.6498  -11.9531   21.3220 H   0  0  0  0  0  0
  -28.4187  -13.5887   21.8882 H   0  0  0  0  0  0
  -25.2748   -9.5887   22.4676 H   0  0  0  0  0  0
  -24.0119   -7.4724   22.7468 H   0  0  0  0  0  0
  -21.0804   -8.8774   19.8944 H   0  0  0  0  0  0
  -22.3575  -10.9710   19.6192 H   0  0  0  0  0  0
  -21.1941   -7.6159   23.9707 H   0  0  0  0  0  0
  -21.1408   -6.0521   25.9068 H   0  0  0  0  0  0
  -22.0633   -2.7627   23.2799 H   0  0  0  0  0  0
  -22.4034  -11.9791   22.4766 H   0  0  0  0  0  0
  -21.0995  -13.1288   22.2683 H   0  0  0  0  0  0
  -24.6404  -15.7840   20.7017 H   0  0  0  0  0  0
  -26.2805  -15.6017   20.2265 H   0  0  0  0  0  0
  -26.7171  -32.5449   23.1143 H   0  0  0  0  0  0
  -25.0375  -33.9719   25.0618 H   0  0  0  0  0  0
  -22.7225  -31.3555   21.3719 H   0  0  0  0  0  0
  -23.3752  -35.9664   23.3290 H   0  0  0  0  0  0
  -24.3634  -36.8934   22.2061 H   0  0  0  0  0  0
  -23.7246  -37.6545   23.6618 H   0  0  0  0  0  0
  -26.0748  -31.5444   20.5761 H   0  0  0  0  0  0
  -26.8439  -30.8515   21.9920 H   0  0  0  0  0  0
  -28.0454  -28.9218   21.2944 H   0  0  0  0  0  0
  -25.9014  -25.8912   19.0784 H   0  0  0  0  0  0
  -23.8624  -27.2992   19.1055 H   0  0  0  0  0  0
  -23.8082  -30.6184   19.4019 H   0  0  0  0  0  0
  -22.7313  -29.3139   19.8156 H   0  0  0  0  0  0
  -25.1267  -36.2002   25.0858 H   0  0  0  0  0  0
  -20.9777  -28.3616   24.0952 H   0  0  0  0  0  0
  -20.7743  -26.2623   23.2195 H   0  0  0  0  0  0
  -21.6053  -26.9211   21.8613 H   0  0  0  0  0  0
  -19.7329  -25.6595   21.0702 H   0  0  0  0  0  0
  -19.5326  -27.3352   20.6710 H   0  0  0  0  0  0
  -17.3678  -26.5254   21.5689 H   0  0  0  0  0  0
  -18.1423  -26.0689   23.0525 H   0  0  0  0  0  0
  -19.7389  -30.7401   24.2361 H   0  0  0  0  0  0
  -17.4139  -31.5931   24.5234 H   0  0  0  0  0  0
  -15.4889  -30.2751   23.6806 H   0  0  0  0  0  0
  -15.8767  -28.0770   22.6233 H   0  0  0  0  0  0
  -24.5930  -30.7052   25.7840 H   0  0  0  0  0  0
  -24.8951  -32.2929   26.4883 H   0  0  0  0  0  0
  -25.8152  -30.8986   27.0236 H   0  0  0  0  0  0
  -26.2965  -29.6783   24.1154 H   0  0  0  0  0  0
  -27.4139  -29.7346   25.4597 H   0  0  0  0  0  0
  -27.8778  -30.4434   23.9301 H   0  0  0  0  0  0
  -27.2742  -33.3558   26.2145 H   0  0  0  0  0  0
  -28.3933  -32.6815   25.0344 H   0  0  0  0  0  0
  -28.0696  -31.8311   26.5398 H   0  0  0  0  0  0
  -28.2593  -38.0157   24.7483 H   0  0  0  0  0  0
  -28.1076  -36.2672   24.6305 H   0  0  0  0  0  0
  -27.2310  -37.1532   25.8885 H   0  0  0  0  0  0
  -20.9074  -30.0093   21.7502 H   0  0  0  0  0  0
  -26.0173  -38.2881   24.1433 H   0  0  0  0  0  0
  -30.0779  -18.5738   22.0548 H   0  0  0  0  0  0
  -28.8456  -20.6190   22.6818 H   0  0  0  0  0  0
  -25.9943  -19.8467   19.5919 H   0  0  0  0  0  0
  -24.1687  -23.2190   22.9708 H   0  0  0  0  0  0
  -24.3932  -23.3484   21.2976 H   0  0  0  0  0  0
  -24.8191  -20.9727   21.7416 H   0  0  0  0  0  0
  -25.8760  -21.3619   23.0881 H   0  0  0  0  0  0
  -27.8319  -23.5816   18.6755 H   0  0  0  0  0  0
  -27.7771  -21.8370   18.8372 H   0  0  0  0  0  0
  -29.1194  -22.7071   19.5927 H   0  0  0  0  0  0
  -25.0831  -16.7111   18.2153 H   0  0  0  0  0  0
  -25.3007  -18.4370   18.1715 H   0  0  0  0  0  0
  -24.9353  -17.6384   19.6915 H   0  0  0  0  0  0
  -30.5052  -17.0573   19.6270 H   0  0  0  0  0  0
  -29.0435  -16.2956   19.1394 H   0  0  0  0  0  0
  -29.0251  -24.7446   20.9009 H   0  0  0  0  0  0
  -28.2535  -25.6908   22.1433 H   0  0  0  0  0  0
  -28.9345  -15.2463   21.4049 H   0  0  0  0  0  0
  1 25  1  0  0  0
  1 30  2  0  0  0
  1 87  1  0  0  0
  2  3  1  0  0  0
  2 25  1  0  0  0
  2 90  1  0  0  0
  2 91  1  0  0  0
  3  4  1  0  0  0
  3 92  1  0  0  0
  3 93  1  0  0  0
  4  5  1  0  0  0
  4 94  1  0  0  0
  4 95  1  0  0  0
  5  6  1  0  0  0
  5 26  1  0  0  0
  5 96  1  0  0  0
  6 25  1  0  0  0
  6 97  1  0  0  0
  6 98  1  0  0  0
  7  8  2  0  0  0
  7 26  1  0  0  0
  7 29  1  0  0  0
  8  9  1  0  0  0
  8 22  1  0  0  0
  9 10  1  0  0  0
  9 27  2  0  0  0
 10 11  2  0  0  0
 10 15  1  0  0  0
 11 12  1  0  0  0
 11 99  1  0  0  0
 12 13  2  0  0  0
 12100  1  0  0  0
 13 14  1  0  0  0
 13 31  1  0  0  0
 14 15  2  0  0  0
 14101  1  0  0  0
 15102  1  0  0  0
 16 17  2  0  0  0
 16 21  1  0  0  0
 16 31  1  0  0  0
 17 18  1  0  0  0
 17103  1  0  0  0
 18 19  2  0  0  0
 18104  1  0  0  0
 19 20  1  0  0  0
 19 24  1  0  0  0
 20 21  2  0  0  0
 20105  1  0  0  0
 21 23  1  0  0  0
 22 28  1  0  0  0
 22 32  2  0  0  0
 26 27  1  0  0  0
 28106  1  0  0  0
 28107  1  0  0  0
 29108  1  0  0  0
 29109  1  0  0  0
 33 34  1  0  0  0
 33 66  1  0  0  0
 33 70  2  0  0  0
 34 36  1  0  0  0
 34 59  1  0  0  0
 34110  1  0  0  0
 35 44  2  0  0  0
 35 45  1  0  0  0
 35 68  1  0  0  0
 36 56  1  0  0  0
 36111  1  0  0  0
 37 39  1  0  0  0
 37 47  1  0  0  0
 37 66  1  0  0  0
 37112  1  0  0  0
 38 43  2  0  0  0
 38 46  1  0  0  0
 38 47  1  0  0  0
 39 64  1  0  0  0
 39 67  2  0  0  0
 40 52  1  0  0  0
 40 53  2  0  0  0
 40 58  1  0  0  0
 41113  1  0  0  0
 41114  1  0  0  0
 41115  1  0  0  0
 41 48  1  0  0  0
 42 43  1  0  0  0
 42 66  1  0  0  0
 42116  1  0  0  0
 42117  1  0  0  0
 43 44  1  0  0  0
 44118  1  0  0  0
 45 46  2  0  0  0
 45119  1  0  0  0
 46120  1  0  0  0
 47121  1  0  0  0
 47122  1  0  0  0
 48 56  1  0  0  0
 48 65  1  0  0  0
 48123  1  0  0  0
 49 50  1  0  0  0
 49 53  1  0  0  0
 49 64  1  0  0  0
 49124  1  0  0  0
 50 51  1  0  0  0
 50125  1  0  0  0
 50126  1  0  0  0
 51 52  1  0  0  0
 51127  1  0  0  0
 51128  1  0  0  0
 52129  1  0  0  0
 52130  1  0  0  0
 53 54  1  0  0  0
 54 55  2  0  0  0
 54131  1  0  0  0
 55 57  1  0  0  0
 55132  1  0  0  0
 56 69  2  0  0  0
 57 58  2  0  0  0
 57133  1  0  0  0
 58134  1  0  0  0
 59 60  1  0  0  0
 59 61  1  0  0  0
 59 62  1  0  0  0
 60135  1  0  0  0
 60136  1  0  0  0
 60137  1  0  0  0
 61138  1  0  0  0
 61139  1  0  0  0
 61140  1  0  0  0
 62141  1  0  0  0
 62142  1  0  0  0
 62143  1  0  0  0
 63 65  1  0  0  0
 63144  1  0  0  0
 63145  1  0  0  0
 63146  1  0  0  0
 64147  1  0  0  0
 65148  1  0  0  0
 68 85  1  0  0  0
 71 72  2  0  0  0
 71 74  1  0  0  0
 71149  1  0  0  0
 72 75  1  0  0  0
 72150  1  0  0  0
 73 75  2  0  0  0
 73 76  1  0  0  0
 73151  1  0  0  0
 74 76  2  0  0  0
 74 84  1  0  0  0
 75 86  1  0  0  0
 76 89  1  0  0  0
 77 78  2  0  0  0
 77 79  1  0  0  0
 77 85  1  0  0  0
 78 82  1  0  0  0
 78 86  1  0  0  0
 79 80  1  0  0  0
 79 88  2  0  0  0
 80 81  1  0  0  0
 80152  1  0  0  0
 80153  1  0  0  0
 81 86  1  0  0  0
 81154  1  0  0  0
 81155  1  0  0  0
 82156  1  0  0  0
 82157  1  0  0  0
 82158  1  0  0  0
 83 89  1  0  0  0
 83159  1  0  0  0
 83160  1  0  0  0
 83161  1  0  0  0
 84 87  1  0  0  0
 84162  1  0  0  0
 84163  1  0  0  0
 85164  1  0  0  0
 85165  1  0  0  0
 87166  1  0  0  0
M  ISO  4   1 100  68 101  85 101  87 100
M  END
> <chiral flag>
0

> <version>
0

> <s_m_source_file>
/data/baiqing/PycharmProjects/Reinvent-master-3.2/result/LINK_invent/BTK/process_docking_weight1_custom_product_contain_oxygen_bond_distance_aromatic_linkinvent_7_9_3/rearranged_h_0108.sdf

> <i_m_source_file_index>
67

> <r_mmod_Potential_Energy-OPLS-2005>
172.750946044922

> <r_mmod_Stretch_Energy-OPLS-2005>
66.8226089477539

> <r_mmod_Bend_Energy-OPLS-2005>
151.31428527832

> <r_mmod_Torsional_Energy-OPLS-2005>
334.009826660156

> <r_mmod_Improper_Torsional_Energy-OPLS-2005>
12.4472990036011

> <r_mmod_Van_der_Waal_Energy-OPLS-2005>
168.998947143555

> <r_mmod_Electrostatic_Energy-OPLS-2005>
-404.970733642578

> <r_mmod_Solvation_Energy-OPLS-2005>
-217.624084472656

> <b_mmod_Minimization_Converged-OPLS-2005>
0

> <r_mmod_RMS_Derivative-OPLS-2005>
24.6082515716553

$$$$
68
                    3D
 Structure written by MMmdl.
168178  0  0  1  0            999 V2000
  -30.7452  -14.5328   20.2927 C   0  0  0  0  0  0
  -30.4252  -12.2533   19.4683 C   0  0  0  0  0  0
  -29.5070  -12.1912   18.2317 C   0  0  0  0  0  0
  -28.0081  -12.2535   18.6097 C   0  0  0  0  0  0
  -27.6410  -13.1999   19.7971 C   0  0  2  0  0  0
  -28.7012  -13.1852   20.9185 C   0  0  0  0  0  0
  -25.2620  -13.8153   20.5630 C   0  0  0  0  0  0
  -24.1862  -13.0481   20.9132 C   0  0  0  0  0  0
  -24.6384  -11.6920   20.8720 C   0  0  0  0  0  0
  -23.9056  -10.4310   21.0441 C   0  0  0  0  0  0
  -24.3594   -9.4200   21.9207 C   0  0  0  0  0  0
  -23.6243   -8.2258   22.0782 C   0  0  0  0  0  0
  -22.4254   -8.0285   21.3559 C   0  0  0  0  0  0
  -21.9885   -9.0281   20.4685 C   0  0  0  0  0  0
  -22.7233  -10.2148   20.3097 C   0  0  0  0  0  0
  -21.6870   -6.0665   22.5271 C   0  0  0  0  0  0
  -21.4033   -6.5566   23.8205 C   0  0  0  0  0  0
  -21.3685   -5.6750   24.9182 C   0  0  0  0  0  0
  -21.6090   -4.3015   24.7278 C   0  0  0  0  0  0
  -21.8852   -3.8080   23.4402 C   0  0  0  0  0  0
  -21.9208   -4.6880   22.3433 C   0  0  0  0  0  0
  -22.7866  -13.5273   21.1766 C   0  0  0  0  0  0
  -22.1642   -4.2021   21.1025 F   0  0  0  0  0  0
  -21.5640   -3.4536   25.7820 F   0  0  0  0  0  0
  -30.0112  -13.3900   20.2941 N   0  0  0  0  0  0
  -26.2984  -12.9292   20.3123 N   0  0  0  0  0  0
  -25.9317  -11.6485   20.5758 N   0  0  0  0  0  0
  -22.0453  -12.8302   22.0303 N   0  0  0  0  0  0
  -25.4470  -15.1862   20.4021 N   0  0  0  0  0  0
  -31.9757  -14.4972   20.3056 O   0  0  0  0  0  0
  -21.6676   -6.8833   21.4246 O   0  0  0  0  0  0
  -22.3610  -14.5623   20.6642 O   0  0  0  0  0  0
  -24.6055  -31.8724   23.2120 C   0  0  0  0  0  0
  -25.8991  -32.4843   23.8386 C   0  0  1  0  0  0
  -27.2394  -27.4888   20.1044 C   0  0  0  0  0  0
  -25.5863  -33.8633   24.2311 N   0  0  0  0  0  0
  -23.3888  -30.4974   21.5470 C   0  0  2  0  0  0
  -24.8446  -28.9746   20.1077 C   0  0  0  0  0  0
  -22.7337  -29.4680   22.4942 C   0  0  0  0  0  0
  -18.0255  -28.1366   22.8495 C   0  0  0  0  0  0
  -24.1501  -36.7295   23.2636 C   0  0  0  0  0  0
  -25.9110  -30.8621   21.3562 C   0  0  0  0  0  0
  -25.9974  -29.5013   20.7033 C   0  0  0  0  0  0
  -27.2003  -28.7660   20.7001 C   0  0  0  0  0  0
  -26.0768  -26.9658   19.5040 C   0  0  0  0  0  0
  -24.8772  -27.7038   19.5060 C   0  0  0  0  0  0
  -23.5978  -29.8302   20.1604 C   0  0  0  0  0  0
  -25.4128  -36.3098   24.0327 C   0  0  1  0  0  0
  -20.5846  -28.3652   23.1315 C   0  0  2  0  0  0
  -20.6760  -26.9381   22.5417 C   0  0  0  0  0  0
  -19.5749  -26.6363   21.5205 C   0  0  0  0  0  0
  -18.1915  -26.7919   22.1603 C   0  0  0  0  0  0
  -19.1506  -28.8820   23.2927 C   0  0  0  0  0  0
  -18.9448  -30.1427   23.8941 C   0  0  0  0  0  0
  -17.6466  -30.6584   24.0570 C   0  0  0  0  0  0
  -25.9041  -34.9472   23.5116 C   0  0  0  0  0  0
  -16.5353  -29.9086   23.6332 C   0  0  0  0  0  0
  -16.7253  -28.6507   23.0344 C   0  0  0  0  0  0
  -26.4430  -31.6604   25.0693 C   0  0  0  0  0  0
  -25.3690  -31.3635   26.1427 C   0  0  0  0  0  0
  -27.0300  -30.3083   24.6023 C   0  0  0  0  0  0
  -27.6012  -32.4294   25.7478 C   0  0  0  0  0  0
  -27.5582  -37.1805   24.8459 C   0  0  0  0  0  0
  -21.4071  -29.3040   22.3712 N   0  0  0  0  0  0
  -26.4304  -37.3801   23.9390 N   0  0  0  0  0  0
  -24.6517  -31.0895   22.0992 N   0  0  0  0  0  0
  -23.4156  -28.8217   23.2944 O   0  0  0  0  0  0
  -28.3997  -26.7602   20.1119 O   0  0  0  0  0  0
  -26.5599  -34.8915   22.4672 O   0  0  0  0  0  0
  -23.5260  -32.1426   23.7557 O   0  0  0  0  0  0
  -28.7916  -18.2799   20.5441 C   0  0  0  0  0  0
  -28.1450  -19.5212   20.6914 C   0  0  0  0  0  0
  -30.2874  -20.6752   20.5504 C   0  0  0  0  0  0
  -30.1915  -18.2319   20.3712 C   0  0  0  0  0  0
  -30.9555  -19.4334   20.4280 C   0  0  0  0  0  0
  -28.8768  -20.7237   20.6419 C   0  0  0  0  0  0
  -28.5576  -24.3443   20.4060 C   0  0  0  0  0  0
  -32.4907  -19.4135   20.3066 C   0  0  0  0  0  0
  -33.0441  -19.1064   18.8955 C   0  0  0  0  0  0
  -32.8809  -17.6441   18.4390 C   0  0  0  0  0  0
  -30.9604  -16.0690   17.6484 C   0  0  0  0  0  0
  -29.7117  -15.6786   18.4371 C   0  0  0  0  0  0
  -30.9003  -16.9563   19.9281 C   0  0  2  0  0  0
  -31.4056  -17.2471   18.4861 C   0  0  1  0  0  0
  -28.6250  -23.1060   21.3120 C   0  0  0  0  0  0
  -28.3904  -25.7069   21.0831 C   0  0  0  0  0  0
  -30.1319  -15.6769   19.8507 N   0  0  0  0  0  0
  -28.1476  -21.9187   20.5987 N   0  0  0  0  0  0
  -28.6156  -24.2238   19.1752 O   0  0  0  0  0  0
  -31.4695  -12.3041   19.1574 H   0  0  0  0  0  0
  -30.3380  -11.3408   20.0549 H   0  0  0  0  0  0
  -29.6969  -11.2332   17.7433 H   0  0  0  0  0  0
  -29.7764  -12.9028   17.4538 H   0  0  0  0  0  0
  -27.7209  -11.2318   18.8612 H   0  0  0  0  0  0
  -27.4273  -12.5059   17.7221 H   0  0  0  0  0  0
  -27.6128  -14.1997   19.3731 H   0  0  0  0  0  0
  -28.6792  -12.2450   21.4682 H   0  0  0  0  0  0
  -28.5050  -13.9821   21.6374 H   0  0  0  0  0  0
  -25.2737   -9.5633   22.4803 H   0  0  0  0  0  0
  -23.9938   -7.4666   22.7518 H   0  0  0  0  0  0
  -21.0815   -8.8860   19.8975 H   0  0  0  0  0  0
  -22.3738  -10.9716   19.6235 H   0  0  0  0  0  0
  -21.2007   -7.6069   23.9679 H   0  0  0  0  0  0
  -21.1454   -6.0465   25.9077 H   0  0  0  0  0  0
  -22.0593   -2.7513   23.2986 H   0  0  0  0  0  0
  -22.3917  -11.9865   22.4641 H   0  0  0  0  0  0
  -21.1101  -13.1426   22.2531 H   0  0  0  0  0  0
  -24.6956  -15.8595   20.4955 H   0  0  0  0  0  0
  -26.3192  -15.5963   20.0937 H   0  0  0  0  0  0
  -26.7067  -32.5568   23.1156 H   0  0  0  0  0  0
  -25.0034  -33.9834   25.0470 H   0  0  0  0  0  0
  -22.6758  -31.3135   21.4046 H   0  0  0  0  0  0
  -23.3777  -35.9617   23.3298 H   0  0  0  0  0  0
  -24.3596  -36.8923   22.2050 H   0  0  0  0  0  0
  -23.7248  -37.6485   23.6684 H   0  0  0  0  0  0
  -26.0105  -31.6402   20.5962 H   0  0  0  0  0  0
  -26.7980  -30.9160   21.9720 H   0  0  0  0  0  0
  -28.0883  -29.1715   21.1680 H   0  0  0  0  0  0
  -26.1022  -25.9877   19.0476 H   0  0  0  0  0  0
  -23.9885  -27.2939   19.0472 H   0  0  0  0  0  0
  -23.6827  -30.6059   19.3954 H   0  0  0  0  0  0
  -22.7296  -29.2401   19.8652 H   0  0  0  0  0  0
  -25.1309  -36.1963   25.0828 H   0  0  0  0  0  0
  -20.9963  -28.3228   24.1424 H   0  0  0  0  0  0
  -20.5653  -26.2244   23.3611 H   0  0  0  0  0  0
  -21.6639  -26.7424   22.1213 H   0  0  0  0  0  0
  -19.6935  -25.6275   21.1220 H   0  0  0  0  0  0
  -19.6717  -27.3197   20.6765 H   0  0  0  0  0  0
  -17.4191  -26.6676   21.3994 H   0  0  0  0  0  0
  -18.0324  -26.0025   22.8971 H   0  0  0  0  0  0
  -19.7937  -30.7218   24.2314 H   0  0  0  0  0  0
  -17.5026  -31.6271   24.5156 H   0  0  0  0  0  0
  -15.5371  -30.3011   23.7652 H   0  0  0  0  0  0
  -15.8639  -28.0853   22.7040 H   0  0  0  0  0  0
  -24.6015  -30.6808   25.7743 H   0  0  0  0  0  0
  -24.8678  -32.2734   26.4760 H   0  0  0  0  0  0
  -25.8051  -30.8924   27.0254 H   0  0  0  0  0  0
  -26.2863  -29.6829   24.1083 H   0  0  0  0  0  0
  -27.4124  -29.7320   25.4453 H   0  0  0  0  0  0
  -27.8641  -30.4408   23.9129 H   0  0  0  0  0  0
  -27.2691  -33.3652   26.1984 H   0  0  0  0  0  0
  -28.3914  -32.6763   25.0366 H   0  0  0  0  0  0
  -28.0592  -31.8433   26.5458 H   0  0  0  0  0  0
  -28.2581  -38.0122   24.7568 H   0  0  0  0  0  0
  -28.1100  -36.2655   24.6241 H   0  0  0  0  0  0
  -27.2274  -37.1394   25.8854 H   0  0  0  0  0  0
  -20.9189  -29.8766   21.6975 H   0  0  0  0  0  0
  -26.0171  -38.2863   24.1442 H   0  0  0  0  0  0
  -28.1935  -17.3804   20.4912 H   0  0  0  0  0  0
  -27.0683  -19.5499   20.7850 H   0  0  0  0  0  0
  -30.8689  -21.5870   20.5149 H   0  0  0  0  0  0
  -32.9019  -18.6969   21.0188 H   0  0  0  0  0  0
  -32.8920  -20.3764   20.6262 H   0  0  0  0  0  0
  -34.1102  -19.3360   18.8796 H   0  0  0  0  0  0
  -32.5886  -19.7799   18.1683 H   0  0  0  0  0  0
  -33.4687  -16.9713   19.0659 H   0  0  0  0  0  0
  -33.2735  -17.5324   17.4282 H   0  0  0  0  0  0
  -30.7435  -16.3406   16.6151 H   0  0  0  0  0  0
  -31.7054  -15.2701   17.6509 H   0  0  0  0  0  0
  -29.2920  -14.7536   18.0812 H   0  0  0  0  0  0
  -28.9270  -16.4196   18.2832 H   0  0  0  0  0  0
  -31.7182  -16.8487   20.6426 H   0  0  0  0  0  0
  -30.8362  -18.0769   18.0601 H   0  0  0  0  0  0
  -27.9855  -23.2767   22.1792 H   0  0  0  0  0  0
  -29.6418  -22.9893   21.6901 H   0  0  0  0  0  0
  -29.2007  -25.8514   21.7984 H   0  0  0  0  0  0
  -27.4642  -25.7016   21.6634 H   0  0  0  0  0  0
  -27.9724  -22.2037   19.6342 H   0  0  0  0  0  0
  1 25  1  0  0  0
  1 30  2  0  0  0
  1 87  1  0  0  0
  2  3  1  0  0  0
  2 25  1  0  0  0
  2 90  1  0  0  0
  2 91  1  0  0  0
  3  4  1  0  0  0
  3 92  1  0  0  0
  3 93  1  0  0  0
  4  5  1  0  0  0
  4 94  1  0  0  0
  4 95  1  0  0  0
  5  6  1  0  0  0
  5 26  1  0  0  0
  5 96  1  0  0  0
  6 25  1  0  0  0
  6 97  1  0  0  0
  6 98  1  0  0  0
  7  8  2  0  0  0
  7 26  1  0  0  0
  7 29  1  0  0  0
  8  9  1  0  0  0
  8 22  1  0  0  0
  9 10  1  0  0  0
  9 27  2  0  0  0
 10 11  2  0  0  0
 10 15  1  0  0  0
 11 12  1  0  0  0
 11 99  1  0  0  0
 12 13  2  0  0  0
 12100  1  0  0  0
 13 14  1  0  0  0
 13 31  1  0  0  0
 14 15  2  0  0  0
 14101  1  0  0  0
 15102  1  0  0  0
 16 17  2  0  0  0
 16 21  1  0  0  0
 16 31  1  0  0  0
 17 18  1  0  0  0
 17103  1  0  0  0
 18 19  2  0  0  0
 18104  1  0  0  0
 19 20  1  0  0  0
 19 24  1  0  0  0
 20 21  2  0  0  0
 20105  1  0  0  0
 21 23  1  0  0  0
 22 28  1  0  0  0
 22 32  2  0  0  0
 26 27  1  0  0  0
 28106  1  0  0  0
 28107  1  0  0  0
 29108  1  0  0  0
 29109  1  0  0  0
 33 34  1  0  0  0
 33 66  1  0  0  0
 33 70  2  0  0  0
 34 36  1  0  0  0
 34 59  1  0  0  0
 34110  1  0  0  0
 35 44  2  0  0  0
 35 45  1  0  0  0
 35 68  1  0  0  0
 36 56  1  0  0  0
 36111  1  0  0  0
 37 39  1  0  0  0
 37 47  1  0  0  0
 37 66  1  0  0  0
 37112  1  0  0  0
 38 43  2  0  0  0
 38 46  1  0  0  0
 38 47  1  0  0  0
 39 64  1  0  0  0
 39 67  2  0  0  0
 40 52  1  0  0  0
 40 53  2  0  0  0
 40 58  1  0  0  0
 41113  1  0  0  0
 41114  1  0  0  0
 41115  1  0  0  0
 41 48  1  0  0  0
 42 43  1  0  0  0
 42 66  1  0  0  0
 42116  1  0  0  0
 42117  1  0  0  0
 43 44  1  0  0  0
 44118  1  0  0  0
 45 46  2  0  0  0
 45119  1  0  0  0
 46120  1  0  0  0
 47121  1  0  0  0
 47122  1  0  0  0
 48 56  1  0  0  0
 48 65  1  0  0  0
 48123  1  0  0  0
 49 50  1  0  0  0
 49 53  1  0  0  0
 49 64  1  0  0  0
 49124  1  0  0  0
 50 51  1  0  0  0
 50125  1  0  0  0
 50126  1  0  0  0
 51 52  1  0  0  0
 51127  1  0  0  0
 51128  1  0  0  0
 52129  1  0  0  0
 52130  1  0  0  0
 53 54  1  0  0  0
 54 55  2  0  0  0
 54131  1  0  0  0
 55 57  1  0  0  0
 55132  1  0  0  0
 56 69  2  0  0  0
 57 58  2  0  0  0
 57133  1  0  0  0
 58134  1  0  0  0
 59 60  1  0  0  0
 59 61  1  0  0  0
 59 62  1  0  0  0
 60135  1  0  0  0
 60136  1  0  0  0
 60137  1  0  0  0
 61138  1  0  0  0
 61139  1  0  0  0
 61140  1  0  0  0
 62141  1  0  0  0
 62142  1  0  0  0
 62143  1  0  0  0
 63 65  1  0  0  0
 63144  1  0  0  0
 63145  1  0  0  0
 63146  1  0  0  0
 64147  1  0  0  0
 65148  1  0  0  0
 68 86  1  0  0  0
 71 72  2  0  0  0
 71 74  1  0  0  0
 71149  1  0  0  0
 72 76  1  0  0  0
 72150  1  0  0  0
 73 75  1  0  0  0
 73 76  2  0  0  0
 73151  1  0  0  0
 74 75  2  0  0  0
 74 83  1  0  0  0
 75 78  1  0  0  0
 76 88  1  0  0  0
 77 85  1  0  0  0
 77 86  1  0  0  0
 77 89  2  0  0  0
 78 79  1  0  0  0
 78152  1  0  0  0
 78153  1  0  0  0
 79 80  1  0  0  0
 79154  1  0  0  0
 79155  1  0  0  0
 80156  1  0  0  0
 80157  1  0  0  0
 80 84  1  0  0  0
 81 82  1  0  0  0
 81 84  1  0  0  0
 81158  1  0  0  0
 81159  1  0  0  0
 82 87  1  0  0  0
 82160  1  0  0  0
 82161  1  0  0  0
 83 84  1  0  0  0
 83 87  1  0  0  0
 83162  1  0  0  0
 84163  1  0  0  0
 85 88  1  0  0  0
 85164  1  0  0  0
 85165  1  0  0  0
 86166  1  0  0  0
 86167  1  0  0  0
 88168  1  0  0  0
M  ISO  4   1 100  68 101  86 101  87 100
M  END
> <chiral flag>
0

> <version>
0

> <s_m_source_file>
/data/baiqing/PycharmProjects/Reinvent-master-3.2/result/LINK_invent/BTK/process_docking_weight1_custom_product_contain_oxygen_bond_distance_aromatic_linkinvent_7_9_3/rearranged_h_0108.sdf

> <i_m_source_file_index>
68

> <r_mmod_Potential_Energy-OPLS-2005>
381.544982910156

> <r_mmod_Stretch_Energy-OPLS-2005>
42.8421859741211

> <r_mmod_Bend_Energy-OPLS-2005>
164.954986572266

> <r_mmod_Torsional_Energy-OPLS-2005>
407.775451660156

> <r_mmod_Improper_Torsional_Energy-OPLS-2005>
24.6243648529053

> <r_mmod_Van_der_Waal_Energy-OPLS-2005>
169.384765625

> <r_mmod_Electrostatic_Energy-OPLS-2005>
-276.785858154297

> <r_mmod_Solvation_Energy-OPLS-2005>
-215.593948364258

> <b_mmod_Minimization_Converged-OPLS-2005>
0

> <r_mmod_RMS_Derivative-OPLS-2005>
5.65436935424805

$$$$
69
                    3D
 Structure written by MMmdl.
173183  0  0  1  0            999 V2000
  -30.6902  -14.5792   20.5255 C   0  0  0  0  0  0
  -30.4160  -12.3647   19.4582 C   0  0  0  0  0  0
  -29.4986  -12.5216   18.2292 C   0  0  0  0  0  0
  -28.0280  -12.3394   18.6402 C   0  0  0  0  0  0
  -27.6496  -13.2201   19.8640 C   0  0  2  0  0  0
  -28.6895  -13.0974   21.0017 C   0  0  0  0  0  0
  -25.2514  -13.8193   20.5683 C   0  0  0  0  0  0
  -24.1823  -13.0441   20.9163 C   0  0  0  0  0  0
  -24.6369  -11.6909   20.8713 C   0  0  0  0  0  0
  -23.9059  -10.4290   21.0428 C   0  0  0  0  0  0
  -24.3620   -9.4212   21.9213 C   0  0  0  0  0  0
  -23.6299   -8.2232   22.0764 C   0  0  0  0  0  0
  -22.4286   -8.0283   21.3540 C   0  0  0  0  0  0
  -21.9903   -9.0267   20.4659 C   0  0  0  0  0  0
  -22.7212  -10.2153   20.3074 C   0  0  0  0  0  0
  -21.6850   -6.0728   22.5282 C   0  0  0  0  0  0
  -21.4009   -6.5635   23.8214 C   0  0  0  0  0  0
  -21.3650   -5.6780   24.9177 C   0  0  0  0  0  0
  -21.6038   -4.3043   24.7222 C   0  0  0  0  0  0
  -21.8817   -3.8138   23.4338 C   0  0  0  0  0  0
  -21.9190   -4.6951   22.3385 C   0  0  0  0  0  0
  -22.7840  -13.5255   21.1819 C   0  0  0  0  0  0
  -22.1683   -4.2147   21.0958 F   0  0  0  0  0  0
  -21.5608   -3.4497   25.7719 F   0  0  0  0  0  0
  -30.0236  -13.3878   20.4482 N   0  0  0  0  0  0
  -26.2966  -12.9359   20.3292 N   0  0  0  0  0  0
  -25.9304  -11.6498   20.5704 N   0  0  0  0  0  0
  -22.0471  -12.8289   22.0431 N   0  0  0  0  0  0
  -25.4211  -15.1939   20.4192 N   0  0  0  0  0  0
  -31.8258  -14.7167   20.0666 O   0  0  0  0  0  0
  -21.6653   -6.8887   21.4251 O   0  0  0  0  0  0
  -22.3560  -14.5527   20.6642 O   0  0  0  0  0  0
  -24.6149  -31.8640   23.2036 C   0  0  0  0  0  0
  -25.9040  -32.4810   23.8360 C   0  0  1  0  0  0
  -27.2927  -27.4246   20.1156 C   0  0  0  0  0  0
  -25.5898  -33.8597   24.2311 N   0  0  0  0  0  0
  -23.4095  -30.4779   21.5400 C   0  0  2  0  0  0
  -24.8708  -28.9257   20.1245 C   0  0  0  0  0  0
  -22.7416  -29.4628   22.4969 C   0  0  0  0  0  0
  -18.0269  -28.1361   22.8512 C   0  0  0  0  0  0
  -24.1470  -36.7280   23.2628 C   0  0  0  0  0  0
  -25.9353  -30.8287   21.3578 C   0  0  0  0  0  0
  -26.0263  -29.4587   20.7082 C   0  0  0  0  0  0
  -27.2306  -28.7178   20.6942 C   0  0  0  0  0  0
  -26.1124  -26.8988   19.5393 C   0  0  0  0  0  0
  -24.9121  -27.6431   19.5405 C   0  0  0  0  0  0
  -23.6288  -29.7912   20.1631 C   0  0  0  0  0  0
  -25.4097  -36.3098   24.0337 C   0  0  1  0  0  0
  -20.5848  -28.3660   23.1308 C   0  0  2  0  0  0
  -20.6754  -26.9398   22.5402 C   0  0  0  0  0  0
  -19.5724  -26.6375   21.5199 C   0  0  0  0  0  0
  -18.1905  -26.7912   22.1623 C   0  0  0  0  0  0
  -19.1514  -28.8835   23.2906 C   0  0  0  0  0  0
  -18.9460  -30.1452   23.8906 C   0  0  0  0  0  0
  -17.6462  -30.6587   24.0558 C   0  0  0  0  0  0
  -25.9033  -34.9483   23.5122 C   0  0  0  0  0  0
  -16.5357  -29.9077   23.6323 C   0  0  0  0  0  0
  -16.7259  -28.6483   23.0361 C   0  0  0  0  0  0
  -26.4455  -31.6600   25.0712 C   0  0  0  0  0  0
  -25.3715  -31.3755   26.1474 C   0  0  0  0  0  0
  -27.0258  -30.3026   24.6134 C   0  0  0  0  0  0
  -27.6049  -32.4305   25.7454 C   0  0  0  0  0  0
  -27.5583  -37.1792   24.8465 C   0  0  0  0  0  0
  -21.4142  -29.3032   22.3721 N   0  0  0  0  0  0
  -26.4281  -37.3814   23.9423 N   0  0  0  0  0  0
  -24.6699  -31.0711   22.0933 N   0  0  0  0  0  0
  -23.4174  -28.8190   23.3035 O   0  0  0  0  0  0
  -28.5145  -26.7608   20.1694 O   0  0  0  0  0  0
  -26.5608  -34.8960   22.4698 O   0  0  0  0  0  0
  -23.5346  -32.1400   23.7442 O   0  0  0  0  0  0
  -30.0613  -18.2037   20.8981 C   0  0  0  0  0  0
  -29.1566  -19.3038   18.9191 C   0  0  0  0  0  0
  -29.2460  -16.8649   19.0342 C   0  0  0  0  0  0
  -29.7528  -19.4162   20.1915 C   0  0  0  0  0  0
  -29.8147  -16.9097   20.3221 C   0  0  0  0  0  0
  -28.8993  -18.0391   18.3491 C   0  0  0  0  0  0
  -24.6244  -18.4495   17.7930 C   0  0  0  0  0  0
  -29.9989  -23.1889   20.2873 C   0  0  0  0  0  0
  -30.2402  -20.7917   20.6529 C   0  0  0  0  0  0
  -24.1333  -18.0900   16.3913 C   0  0  0  0  0  0
  -26.0821  -18.1499   18.1087 C   0  0  0  0  0  0
  -25.2555  -17.4948   15.5183 C   0  0  0  0  0  0
  -26.5280  -18.3593   15.5517 C   0  0  0  0  0  0
  -27.7332  -23.4833   20.9831 C   0  0  0  0  0  0
  -28.0329  -22.0306   20.5299 C   0  0  0  0  0  0
  -28.9800  -24.3031   20.6364 C   0  0  2  0  0  0
  -27.0500  -18.6099   16.9875 C   0  0  2  0  0  0
  -28.7891  -25.4646   19.5869 C   0  0  0  0  0  0
  -29.4942  -21.9312   20.4292 N   0  0  0  0  0  0
  -30.0109  -15.6532   21.0175 N   0  0  0  0  0  0
  -23.8707  -18.9312   18.6389 O   0  0  0  0  0  0
  -31.1549  -23.4727   19.9545 O   0  0  0  0  0  0
  -31.3590  -20.8261   21.1782 O   0  0  0  0  0  0
  -28.2786  -17.9000   17.1315 O   0  0  0  0  0  0
  -31.4607  -12.4509   19.1529 H   0  0  0  0  0  0
  -30.3131  -11.3712   19.8923 H   0  0  0  0  0  0
  -29.7640  -11.8013   17.4559 H   0  0  0  0  0  0
  -29.6303  -13.5094   17.7831 H   0  0  0  0  0  0
  -27.8792  -11.2860   18.8835 H   0  0  0  0  0  0
  -27.3750  -12.5491   17.7929 H   0  0  0  0  0  0
  -27.6549  -14.2522   19.5170 H   0  0  0  0  0  0
  -28.6704  -12.0969   21.4322 H   0  0  0  0  0  0
  -28.4293  -13.7764   21.8173 H   0  0  0  0  0  0
  -25.2755   -9.5655   22.4826 H   0  0  0  0  0  0
  -23.9962   -7.4610   22.7482 H   0  0  0  0  0  0
  -21.0807   -8.8836   19.8984 H   0  0  0  0  0  0
  -22.3691  -10.9741   19.6220 H   0  0  0  0  0  0
  -21.2029   -7.6149   23.9718 H   0  0  0  0  0  0
  -21.1482   -6.0521   25.9079 H   0  0  0  0  0  0
  -22.0605   -2.7591   23.2858 H   0  0  0  0  0  0
  -22.4006  -11.9929   22.4809 H   0  0  0  0  0  0
  -21.1109  -13.1409   22.2615 H   0  0  0  0  0  0
  -24.6500  -15.8418   20.5497 H   0  0  0  0  0  0
  -26.2745  -15.6412   20.1115 H   0  0  0  0  0  0
  -26.7127  -32.5524   23.1132 H   0  0  0  0  0  0
  -25.0040  -33.9753   25.0461 H   0  0  0  0  0  0
  -22.6991  -31.2929   21.3837 H   0  0  0  0  0  0
  -23.3766  -35.9574   23.3272 H   0  0  0  0  0  0
  -24.3551  -36.8917   22.2044 H   0  0  0  0  0  0
  -23.7218  -37.6475   23.6656 H   0  0  0  0  0  0
  -26.0489  -31.6002   20.5946 H   0  0  0  0  0  0
  -26.8195  -30.8855   21.9811 H   0  0  0  0  0  0
  -28.1246  -29.1467   21.1299 H   0  0  0  0  0  0
  -26.1023  -25.9142   19.0980 H   0  0  0  0  0  0
  -24.0219  -27.2076   19.1057 H   0  0  0  0  0  0
  -23.7473  -30.5594   19.3978 H   0  0  0  0  0  0
  -22.7539  -29.2116   19.8622 H   0  0  0  0  0  0
  -25.1266  -36.1926   25.0832 H   0  0  0  0  0  0
  -20.9939  -28.3230   24.1423 H   0  0  0  0  0  0
  -20.5587  -26.2298   23.3597 H   0  0  0  0  0  0
  -21.6638  -26.7394   22.1223 H   0  0  0  0  0  0
  -19.6872  -25.6284   21.1213 H   0  0  0  0  0  0
  -19.6625  -27.3189   20.6725 H   0  0  0  0  0  0
  -17.4156  -26.6691   21.4035 H   0  0  0  0  0  0
  -18.0300  -26.0029   22.8992 H   0  0  0  0  0  0
  -19.7942  -30.7277   24.2260 H   0  0  0  0  0  0
  -17.5010  -31.6252   24.5188 H   0  0  0  0  0  0
  -15.5356  -30.2972   23.7650 H   0  0  0  0  0  0
  -15.8659  -28.0799   22.7063 H   0  0  0  0  0  0
  -24.5869  -30.7106   25.7853 H   0  0  0  0  0  0
  -24.8913  -32.2917   26.4908 H   0  0  0  0  0  0
  -25.8062  -30.8948   27.0243 H   0  0  0  0  0  0
  -26.2813  -29.6804   24.1158 H   0  0  0  0  0  0
  -27.3952  -29.7274   25.4630 H   0  0  0  0  0  0
  -27.8679  -30.4288   23.9329 H   0  0  0  0  0  0
  -27.2702  -33.3623   26.2018 H   0  0  0  0  0  0
  -28.3860  -32.6834   25.0270 H   0  0  0  0  0  0
  -28.0696  -31.8418   26.5366 H   0  0  0  0  0  0
  -28.2605  -38.0096   24.7555 H   0  0  0  0  0  0
  -28.1078  -36.2638   24.6201 H   0  0  0  0  0  0
  -27.2308  -37.1351   25.8876 H   0  0  0  0  0  0
  -20.9307  -29.8773   21.6960 H   0  0  0  0  0  0
  -26.0137  -38.2874   24.1488 H   0  0  0  0  0  0
  -30.5190  -18.2789   21.8760 H   0  0  0  0  0  0
  -28.9270  -20.1998   18.3630 H   0  0  0  0  0  0
  -29.0252  -15.9152   18.5668 H   0  0  0  0  0  0
  -23.7385  -18.9966   15.9312 H   0  0  0  0  0  0
  -23.3074  -17.3855   16.4820 H   0  0  0  0  0  0
  -26.1572  -17.0700   18.2484 H   0  0  0  0  0  0
  -26.3565  -18.6138   19.0553 H   0  0  0  0  0  0
  -24.9058  -17.3921   14.4911 H   0  0  0  0  0  0
  -25.4896  -16.4840   15.8544 H   0  0  0  0  0  0
  -26.3099  -19.3212   15.0851 H   0  0  0  0  0  0
  -27.3061  -17.9139   14.9326 H   0  0  0  0  0  0
  -27.5985  -23.5110   22.0682 H   0  0  0  0  0  0
  -26.8178  -23.8882   20.5470 H   0  0  0  0  0  0
  -27.5965  -21.8456   19.5456 H   0  0  0  0  0  0
  -27.6081  -21.3020   21.2236 H   0  0  0  0  0  0
  -29.3676  -24.7643   21.5479 H   0  0  0  0  0  0
  -27.2293  -19.6819   17.0817 H   0  0  0  0  0  0
  -28.1021  -25.2024   18.7873 H   0  0  0  0  0  0
  -29.7474  -25.6201   19.0844 H   0  0  0  0  0  0
  -29.2217  -15.3793   21.5803 H   0  0  0  0  0  0
  1 25  1  0  0  0
  1 30  2  0  0  0
  1 90  1  0  0  0
  2  3  1  0  0  0
  2 25  1  0  0  0
  2 95  1  0  0  0
  2 96  1  0  0  0
  3  4  1  0  0  0
  3 97  1  0  0  0
  3 98  1  0  0  0
  4  5  1  0  0  0
  4 99  1  0  0  0
  4100  1  0  0  0
  5  6  1  0  0  0
  5 26  1  0  0  0
  5101  1  0  0  0
  6 25  1  0  0  0
  6102  1  0  0  0
  6103  1  0  0  0
  7  8  2  0  0  0
  7 26  1  0  0  0
  7 29  1  0  0  0
  8  9  1  0  0  0
  8 22  1  0  0  0
  9 10  1  0  0  0
  9 27  2  0  0  0
 10 11  2  0  0  0
 10 15  1  0  0  0
 11 12  1  0  0  0
 11104  1  0  0  0
 12 13  2  0  0  0
 12105  1  0  0  0
 13 14  1  0  0  0
 13 31  1  0  0  0
 14 15  2  0  0  0
 14106  1  0  0  0
 15107  1  0  0  0
 16 17  2  0  0  0
 16 21  1  0  0  0
 16 31  1  0  0  0
 17 18  1  0  0  0
 17108  1  0  0  0
 18 19  2  0  0  0
 18109  1  0  0  0
 19 20  1  0  0  0
 19 24  1  0  0  0
 20 21  2  0  0  0
 20110  1  0  0  0
 21 23  1  0  0  0
 22 28  1  0  0  0
 22 32  2  0  0  0
 26 27  1  0  0  0
 28111  1  0  0  0
 28112  1  0  0  0
 29113  1  0  0  0
 29114  1  0  0  0
 33 34  1  0  0  0
 33 66  1  0  0  0
 33 70  2  0  0  0
 34 36  1  0  0  0
 34 59  1  0  0  0
 34115  1  0  0  0
 35 44  2  0  0  0
 35 45  1  0  0  0
 35 68  1  0  0  0
 36 56  1  0  0  0
 36116  1  0  0  0
 37 39  1  0  0  0
 37 47  1  0  0  0
 37 66  1  0  0  0
 37117  1  0  0  0
 38 43  2  0  0  0
 38 46  1  0  0  0
 38 47  1  0  0  0
 39 64  1  0  0  0
 39 67  2  0  0  0
 40 52  1  0  0  0
 40 53  2  0  0  0
 40 58  1  0  0  0
 41118  1  0  0  0
 41119  1  0  0  0
 41120  1  0  0  0
 41 48  1  0  0  0
 42 43  1  0  0  0
 42 66  1  0  0  0
 42121  1  0  0  0
 42122  1  0  0  0
 43 44  1  0  0  0
 44123  1  0  0  0
 45 46  2  0  0  0
 45124  1  0  0  0
 46125  1  0  0  0
 47126  1  0  0  0
 47127  1  0  0  0
 48 56  1  0  0  0
 48 65  1  0  0  0
 48128  1  0  0  0
 49 50  1  0  0  0
 49 53  1  0  0  0
 49 64  1  0  0  0
 49129  1  0  0  0
 50 51  1  0  0  0
 50130  1  0  0  0
 50131  1  0  0  0
 51 52  1  0  0  0
 51132  1  0  0  0
 51133  1  0  0  0
 52134  1  0  0  0
 52135  1  0  0  0
 53 54  1  0  0  0
 54 55  2  0  0  0
 54136  1  0  0  0
 55 57  1  0  0  0
 55137  1  0  0  0
 56 69  2  0  0  0
 57 58  2  0  0  0
 57138  1  0  0  0
 58139  1  0  0  0
 59 60  1  0  0  0
 59 61  1  0  0  0
 59 62  1  0  0  0
 60140  1  0  0  0
 60141  1  0  0  0
 60142  1  0  0  0
 61143  1  0  0  0
 61144  1  0  0  0
 61145  1  0  0  0
 62146  1  0  0  0
 62147  1  0  0  0
 62148  1  0  0  0
 63 65  1  0  0  0
 63149  1  0  0  0
 63150  1  0  0  0
 63151  1  0  0  0
 64152  1  0  0  0
 65153  1  0  0  0
 68 88  1  0  0  0
 71 74  2  0  0  0
 71 75  1  0  0  0
 71154  1  0  0  0
 72 74  1  0  0  0
 72 76  2  0  0  0
 72155  1  0  0  0
 73 75  2  0  0  0
 73 76  1  0  0  0
 73156  1  0  0  0
 74 79  1  0  0  0
 75 90  1  0  0  0
 76 94  1  0  0  0
 77 80  1  0  0  0
 77 81  1  0  0  0
 77 91  2  0  0  0
 78 86  1  0  0  0
 78 89  1  0  0  0
 78 92  2  0  0  0
 79 89  1  0  0  0
 79 93  2  0  0  0
 80 82  1  0  0  0
 80157  1  0  0  0
 80158  1  0  0  0
 81 87  1  0  0  0
 81159  1  0  0  0
 81160  1  0  0  0
 82 83  1  0  0  0
 82161  1  0  0  0
 82162  1  0  0  0
 83 87  1  0  0  0
 83163  1  0  0  0
 83164  1  0  0  0
 84 85  1  0  0  0
 84 86  1  0  0  0
 84165  1  0  0  0
 84166  1  0  0  0
 85 89  1  0  0  0
 85167  1  0  0  0
 85168  1  0  0  0
 86 88  1  0  0  0
 86169  1  0  0  0
 87 94  1  0  0  0
 87170  1  0  0  0
 88171  1  0  0  0
 88172  1  0  0  0
 90173  1  0  0  0
M  ISO  4   1 100  68 101  88 101  90 100
M  END
> <chiral flag>
0

> <version>
0

> <s_m_source_file>
/data/baiqing/PycharmProjects/Reinvent-master-3.2/result/LINK_invent/BTK/process_docking_weight1_custom_product_contain_oxygen_bond_distance_aromatic_linkinvent_7_9_3/rearranged_h_0108.sdf

> <i_m_source_file_index>
69

> <r_mmod_Potential_Energy-OPLS-2005>
110.338752746582

> <r_mmod_Stretch_Energy-OPLS-2005>
61.6977958679199

> <r_mmod_Bend_Energy-OPLS-2005>
167.798965454102

> <r_mmod_Torsional_Energy-OPLS-2005>
369.476135253906

> <r_mmod_Improper_Torsional_Energy-OPLS-2005>
7.75637149810791

> <r_mmod_Van_der_Waal_Energy-OPLS-2005>
146.271682739258

> <r_mmod_Electrostatic_Energy-OPLS-2005>
-407.062713623047

> <r_mmod_Solvation_Energy-OPLS-2005>
-263.855346679688

> <b_mmod_Minimization_Converged-OPLS-2005>
0

> <r_mmod_RMS_Derivative-OPLS-2005>
6.335364818573

$$$$
70
                    3D
 Structure written by MMmdl.
162170  0  0  1  0            999 V2000
  -30.6741  -14.6303   20.5747 C   0  0  0  0  0  0
  -30.4264  -12.4059   19.4468 C   0  0  0  0  0  0
  -29.4975  -12.5214   18.2184 C   0  0  0  0  0  0
  -28.0211  -12.3456   18.6277 C   0  0  0  0  0  0
  -27.6438  -13.2114   19.8548 C   0  0  2  0  0  0
  -28.6857  -13.0575   20.9758 C   0  0  0  0  0  0
  -25.2529  -13.8162   20.5699 C   0  0  0  0  0  0
  -24.1790  -13.0418   20.9201 C   0  0  0  0  0  0
  -24.6374  -11.6907   20.8752 C   0  0  0  0  0  0
  -23.9055  -10.4299   21.0425 C   0  0  0  0  0  0
  -24.3617   -9.4216   21.9192 C   0  0  0  0  0  0
  -23.6276   -8.2253   22.0747 C   0  0  0  0  0  0
  -22.4251   -8.0308   21.3553 C   0  0  0  0  0  0
  -21.9905   -9.0281   20.4649 C   0  0  0  0  0  0
  -22.7234  -10.2150   20.3059 C   0  0  0  0  0  0
  -21.6829   -6.0782   22.5299 C   0  0  0  0  0  0
  -21.4011   -6.5670   23.8245 C   0  0  0  0  0  0
  -21.3637   -5.6804   24.9197 C   0  0  0  0  0  0
  -21.6031   -4.3071   24.7247 C   0  0  0  0  0  0
  -21.8819   -3.8188   23.4353 C   0  0  0  0  0  0
  -21.9173   -4.7006   22.3423 C   0  0  0  0  0  0
  -22.7816  -13.5207   21.1870 C   0  0  0  0  0  0
  -22.1614   -4.2205   21.0983 F   0  0  0  0  0  0
  -21.5634   -3.4547   25.7741 F   0  0  0  0  0  0
  -30.0100  -13.4263   20.4348 N   0  0  0  0  0  0
  -26.2928  -12.9320   20.3291 N   0  0  0  0  0  0
  -25.9291  -11.6486   20.5744 N   0  0  0  0  0  0
  -22.0481  -12.8197   22.0437 N   0  0  0  0  0  0
  -25.4227  -15.1889   20.4177 N   0  0  0  0  0  0
  -31.7697  -14.8020   20.0308 O   0  0  0  0  0  0
  -21.6612   -6.8911   21.4247 O   0  0  0  0  0  0
  -22.3496  -14.5484   20.6689 O   0  0  0  0  0  0
  -24.6261  -31.8621   23.2024 C   0  0  0  0  0  0
  -25.9132  -32.4769   23.8339 C   0  0  1  0  0  0
  -27.2199  -27.3202   20.1291 C   0  0  0  0  0  0
  -25.5943  -33.8561   24.2273 N   0  0  0  0  0  0
  -23.4171  -30.4866   21.5462 C   0  0  2  0  0  0
  -24.8619  -28.9400   20.1156 C   0  0  0  0  0  0
  -22.7468  -29.4638   22.4942 C   0  0  0  0  0  0
  -18.0298  -28.1351   22.8491 C   0  0  0  0  0  0
  -24.1493  -36.7292   23.2639 C   0  0  0  0  0  0
  -25.9599  -30.7932   21.3749 C   0  0  0  0  0  0
  -26.0332  -29.4205   20.7176 C   0  0  0  0  0  0
  -27.2167  -28.6237   20.7127 C   0  0  0  0  0  0
  -26.0342  -26.9000   19.4880 C   0  0  0  0  0  0
  -24.8650  -27.6825   19.4930 C   0  0  0  0  0  0
  -23.6316  -29.8228   20.1614 C   0  0  0  0  0  0
  -25.4110  -36.3062   24.0332 C   0  0  1  0  0  0
  -20.5892  -28.3674   23.1269 C   0  0  2  0  0  0
  -20.6783  -26.9398   22.5403 C   0  0  0  0  0  0
  -19.5748  -26.6358   21.5207 C   0  0  0  0  0  0
  -18.1923  -26.7893   22.1619 C   0  0  0  0  0  0
  -19.1549  -28.8827   23.2871 C   0  0  0  0  0  0
  -18.9477  -30.1436   23.8875 C   0  0  0  0  0  0
  -17.6477  -30.6562   24.0563 C   0  0  0  0  0  0
  -25.9055  -34.9439   23.5099 C   0  0  0  0  0  0
  -16.5368  -29.9060   23.6326 C   0  0  0  0  0  0
  -16.7288  -28.6475   23.0350 C   0  0  0  0  0  0
  -26.4504  -31.6565   25.0716 C   0  0  0  0  0  0
  -25.3747  -31.3723   26.1466 C   0  0  0  0  0  0
  -27.0383  -30.2982   24.6201 C   0  0  0  0  0  0
  -27.6035  -32.4339   25.7484 C   0  0  0  0  0  0
  -27.5577  -37.1796   24.8467 C   0  0  0  0  0  0
  -21.4191  -29.3049   22.3684 N   0  0  0  0  0  0
  -26.4282  -37.3767   23.9418 N   0  0  0  0  0  0
  -24.6859  -31.0638   22.0970 N   0  0  0  0  0  0
  -23.4201  -28.8214   23.3043 O   0  0  0  0  0  0
  -28.3234  -26.4558   20.1672 O   0  0  0  0  0  0
  -26.5636  -34.8912   22.4670 O   0  0  0  0  0  0
  -23.5428  -32.1414   23.7368 O   0  0  0  0  0  0
  -29.4619  -18.9886   19.4269 C   0  0  0  0  0  0
  -30.0610  -18.1104   21.9587 C   0  0  0  0  0  0
  -29.6058  -17.5859   19.6675 C   0  0  0  0  0  0
  -29.9249  -17.0771   20.9709 C   0  0  0  0  0  0
  -29.5821  -19.9902   20.4235 C   0  0  0  0  0  0
  -29.8752  -19.5155   21.7283 C   0  0  0  0  0  0
  -29.1487  -15.7371   23.6133 C   0  0  0  0  0  0
  -30.0365  -15.2811   22.7113 C   0  0  0  0  0  0
  -29.4124  -16.6862   18.4602 C   0  0  0  0  0  0
  -29.8475  -20.0464   24.0751 C   0  0  0  0  0  0
  -29.0556  -23.8907   20.1652 C   0  0  0  0  0  0
  -28.0735  -25.0605   20.6157 C   0  0  0  0  0  0
  -28.7921  -22.4081   20.7143 C   0  0  0  0  0  0
  -30.1033  -15.6319   21.3428 N   0  0  0  0  0  0
  -30.0379  -20.4551   22.7245 O   0  0  0  0  0  0
  -29.5386  -21.3485   20.0235 O   0  0  0  0  0  0
  -31.4698  -12.5110   19.1439 H   0  0  0  0  0  0
  -30.3571  -11.4098   19.8873 H   0  0  0  0  0  0
  -29.7675  -11.7734   17.4700 H   0  0  0  0  0  0
  -29.6379  -13.4930   17.7427 H   0  0  0  0  0  0
  -27.8670  -11.2908   18.8604 H   0  0  0  0  0  0
  -27.3613  -12.5752   17.7895 H   0  0  0  0  0  0
  -27.6462  -14.2481   19.5279 H   0  0  0  0  0  0
  -28.7060  -12.0301   21.3406 H   0  0  0  0  0  0
  -28.3697  -13.6545   21.8254 H   0  0  0  0  0  0
  -25.2777   -9.5687   22.4751 H   0  0  0  0  0  0
  -24.0018   -7.4634   22.7431 H   0  0  0  0  0  0
  -21.0850   -8.8804   19.8937 H   0  0  0  0  0  0
  -22.3724  -10.9699   19.6176 H   0  0  0  0  0  0
  -21.2007   -7.6185   23.9783 H   0  0  0  0  0  0
  -21.1415   -6.0520   25.9084 H   0  0  0  0  0  0
  -22.0609   -2.7662   23.2848 H   0  0  0  0  0  0
  -22.4080  -11.9863   22.4837 H   0  0  0  0  0  0
  -21.1119  -13.1276   22.2632 H   0  0  0  0  0  0
  -24.6651  -15.8488   20.5576 H   0  0  0  0  0  0
  -26.2881  -15.6337   20.1364 H   0  0  0  0  0  0
  -26.7212  -32.5441   23.1091 H   0  0  0  0  0  0
  -25.0093  -33.9691   25.0422 H   0  0  0  0  0  0
  -22.7108  -31.3070   21.4028 H   0  0  0  0  0  0
  -23.3741  -35.9635   23.3273 H   0  0  0  0  0  0
  -24.3610  -36.8943   22.2062 H   0  0  0  0  0  0
  -23.7249  -37.6487   23.6686 H   0  0  0  0  0  0
  -26.0998  -31.5600   20.6110 H   0  0  0  0  0  0
  -26.8338  -30.8321   22.0137 H   0  0  0  0  0  0
  -28.1154  -28.9886   21.1904 H   0  0  0  0  0  0
  -25.9965  -25.9478   18.9790 H   0  0  0  0  0  0
  -23.9710  -27.3046   19.0169 H   0  0  0  0  0  0
  -23.7602  -30.6008   19.4082 H   0  0  0  0  0  0
  -22.7475  -29.2612   19.8504 H   0  0  0  0  0  0
  -25.1274  -36.1903   25.0820 H   0  0  0  0  0  0
  -20.9976  -28.3246   24.1390 H   0  0  0  0  0  0
  -20.5673  -26.2295   23.3615 H   0  0  0  0  0  0
  -21.6650  -26.7416   22.1198 H   0  0  0  0  0  0
  -19.6918  -25.6266   21.1239 H   0  0  0  0  0  0
  -19.6653  -27.3169   20.6730 H   0  0  0  0  0  0
  -17.4201  -26.6678   21.4008 H   0  0  0  0  0  0
  -18.0302  -25.9997   22.8970 H   0  0  0  0  0  0
  -19.7961  -30.7269   24.2191 H   0  0  0  0  0  0
  -17.5042  -31.6236   24.5185 H   0  0  0  0  0  0
  -15.5369  -30.2973   23.7636 H   0  0  0  0  0  0
  -15.8691  -28.0803   22.7046 H   0  0  0  0  0  0
  -24.5891  -30.7089   25.7825 H   0  0  0  0  0  0
  -24.8985  -32.2913   26.4896 H   0  0  0  0  0  0
  -25.8088  -30.8904   27.0240 H   0  0  0  0  0  0
  -26.2985  -29.6684   24.1253 H   0  0  0  0  0  0
  -27.4104  -29.7268   25.4715 H   0  0  0  0  0  0
  -27.8823  -30.4232   23.9414 H   0  0  0  0  0  0
  -27.2584  -33.3624   26.2041 H   0  0  0  0  0  0
  -28.3839  -32.6945   25.0323 H   0  0  0  0  0  0
  -28.0722  -31.8517   26.5428 H   0  0  0  0  0  0
  -28.2570  -38.0114   24.7530 H   0  0  0  0  0  0
  -28.1093  -36.2650   24.6244 H   0  0  0  0  0  0
  -27.2337  -37.1394   25.8882 H   0  0  0  0  0  0
  -20.9376  -29.8787   21.6901 H   0  0  0  0  0  0
  -26.0151  -38.2840   24.1407 H   0  0  0  0  0  0
  -29.2506  -19.3184   18.4195 H   0  0  0  0  0  0
  -30.3572  -17.8169   22.9486 H   0  0  0  0  0  0
  -29.1999  -15.4102   24.6421 H   0  0  0  0  0  0
  -28.3669  -16.4341   23.3511 H   0  0  0  0  0  0
  -30.7978  -14.5755   23.0195 H   0  0  0  0  0  0
  -28.8322  -17.1963   17.6896 H   0  0  0  0  0  0
  -28.8712  -15.7822   18.7110 H   0  0  0  0  0  0
  -30.3768  -16.4178   18.0275 H   0  0  0  0  0  0
  -30.6190  -19.3553   24.4144 H   0  0  0  0  0  0
  -28.8635  -19.5994   24.2233 H   0  0  0  0  0  0
  -29.9066  -20.9203   24.7223 H   0  0  0  0  0  0
  -30.0733  -24.1731   20.4384 H   0  0  0  0  0  0
  -29.0399  -23.8606   19.0756 H   0  0  0  0  0  0
  -28.0601  -25.0869   21.7055 H   0  0  0  0  0  0
  -27.0728  -24.7306   20.3428 H   0  0  0  0  0  0
  -27.7336  -22.1740   20.5971 H   0  0  0  0  0  0
  -28.9800  -22.3945   21.7862 H   0  0  0  0  0  0
  1 25  1  0  0  0
  1 30  2  0  0  0
  1 84  1  0  0  0
  2  3  1  0  0  0
  2 25  1  0  0  0
  2 87  1  0  0  0
  2 88  1  0  0  0
  3  4  1  0  0  0
  3 89  1  0  0  0
  3 90  1  0  0  0
  4  5  1  0  0  0
  4 91  1  0  0  0
  4 92  1  0  0  0
  5  6  1  0  0  0
  5 26  1  0  0  0
  5 93  1  0  0  0
  6 25  1  0  0  0
  6 94  1  0  0  0
  6 95  1  0  0  0
  7  8  2  0  0  0
  7 26  1  0  0  0
  7 29  1  0  0  0
  8  9  1  0  0  0
  8 22  1  0  0  0
  9 10  1  0  0  0
  9 27  2  0  0  0
 10 11  2  0  0  0
 10 15  1  0  0  0
 11 12  1  0  0  0
 11 96  1  0  0  0
 12 13  2  0  0  0
 12 97  1  0  0  0
 13 14  1  0  0  0
 13 31  1  0  0  0
 14 15  2  0  0  0
 14 98  1  0  0  0
 15 99  1  0  0  0
 16 17  2  0  0  0
 16 21  1  0  0  0
 16 31  1  0  0  0
 17 18  1  0  0  0
 17100  1  0  0  0
 18 19  2  0  0  0
 18101  1  0  0  0
 19 20  1  0  0  0
 19 24  1  0  0  0
 20 21  2  0  0  0
 20102  1  0  0  0
 21 23  1  0  0  0
 22 28  1  0  0  0
 22 32  2  0  0  0
 26 27  1  0  0  0
 28103  1  0  0  0
 28104  1  0  0  0
 29105  1  0  0  0
 29106  1  0  0  0
 33 34  1  0  0  0
 33 66  1  0  0  0
 33 70  2  0  0  0
 34 36  1  0  0  0
 34 59  1  0  0  0
 34107  1  0  0  0
 35 44  2  0  0  0
 35 45  1  0  0  0
 35 68  1  0  0  0
 36 56  1  0  0  0
 36108  1  0  0  0
 37 39  1  0  0  0
 37 47  1  0  0  0
 37 66  1  0  0  0
 37109  1  0  0  0
 38 43  2  0  0  0
 38 46  1  0  0  0
 38 47  1  0  0  0
 39 64  1  0  0  0
 39 67  2  0  0  0
 40 52  1  0  0  0
 40 53  2  0  0  0
 40 58  1  0  0  0
 41110  1  0  0  0
 41111  1  0  0  0
 41112  1  0  0  0
 41 48  1  0  0  0
 42 43  1  0  0  0
 42 66  1  0  0  0
 42113  1  0  0  0
 42114  1  0  0  0
 43 44  1  0  0  0
 44115  1  0  0  0
 45 46  2  0  0  0
 45116  1  0  0  0
 46117  1  0  0  0
 47118  1  0  0  0
 47119  1  0  0  0
 48 56  1  0  0  0
 48 65  1  0  0  0
 48120  1  0  0  0
 49 50  1  0  0  0
 49 53  1  0  0  0
 49 64  1  0  0  0
 49121  1  0  0  0
 50 51  1  0  0  0
 50122  1  0  0  0
 50123  1  0  0  0
 51 52  1  0  0  0
 51124  1  0  0  0
 51125  1  0  0  0
 52126  1  0  0  0
 52127  1  0  0  0
 53 54  1  0  0  0
 54 55  2  0  0  0
 54128  1  0  0  0
 55 57  1  0  0  0
 55129  1  0  0  0
 56 69  2  0  0  0
 57 58  2  0  0  0
 57130  1  0  0  0
 58131  1  0  0  0
 59 60  1  0  0  0
 59 61  1  0  0  0
 59 62  1  0  0  0
 60132  1  0  0  0
 60133  1  0  0  0
 60134  1  0  0  0
 61135  1  0  0  0
 61136  1  0  0  0
 61137  1  0  0  0
 62138  1  0  0  0
 62139  1  0  0  0
 62140  1  0  0  0
 63 65  1  0  0  0
 63141  1  0  0  0
 63142  1  0  0  0
 63143  1  0  0  0
 64144  1  0  0  0
 65145  1  0  0  0
 68 82  1  0  0  0
 71 73  2  0  0  0
 71 75  1  0  0  0
 71146  1  0  0  0
 72 74  2  0  0  0
 72 76  1  0  0  0
 72147  1  0  0  0
 73 74  1  0  0  0
 73 79  1  0  0  0
 74 84  1  0  0  0
 75 76  2  0  0  0
 75 86  1  0  0  0
 76 85  1  0  0  0
 77 78  2  0  0  0
 77148  1  0  0  0
 77149  1  0  0  0
 78 84  1  0  0  0
 78150  1  0  0  0
 79151  1  0  0  0
 79152  1  0  0  0
 79153  1  0  0  0
 80 85  1  0  0  0
 80154  1  0  0  0
 80155  1  0  0  0
 80156  1  0  0  0
 81 82  1  0  0  0
 81 83  1  0  0  0
 81157  1  0  0  0
 81158  1  0  0  0
 82159  1  0  0  0
 82160  1  0  0  0
 83 86  1  0  0  0
 83161  1  0  0  0
 83162  1  0  0  0
M  ISO  4   1 100  68 101  82 101  84 100
M  END
> <chiral flag>
0

> <version>
0

> <s_m_source_file>
/data/baiqing/PycharmProjects/Reinvent-master-3.2/result/LINK_invent/BTK/process_docking_weight1_custom_product_contain_oxygen_bond_distance_aromatic_linkinvent_7_9_3/rearranged_h_0108.sdf

> <i_m_source_file_index>
70

> <r_mmod_Potential_Energy-OPLS-2005>
309.081298828125

> <r_mmod_Stretch_Energy-OPLS-2005>
100.502868652344

> <r_mmod_Bend_Energy-OPLS-2005>
170.324813842773

> <r_mmod_Torsional_Energy-OPLS-2005>
331.295745849609

> <r_mmod_Improper_Torsional_Energy-OPLS-2005>
2.94761300086975

> <r_mmod_Van_der_Waal_Energy-OPLS-2005>
168.245834350586

> <r_mmod_Electrostatic_Energy-OPLS-2005>
-306.748565673828

> <r_mmod_Solvation_Energy-OPLS-2005>
-203.428604125977

> <b_mmod_Minimization_Converged-OPLS-2005>
0

> <r_mmod_RMS_Derivative-OPLS-2005>
3.41814947128296

$$$$
71
                    3D
 Structure written by MMmdl.
156164  0  0  1  0            999 V2000
  -30.1213  -13.8393   21.2814 C   0  0  0  0  0  0
  -30.8179  -12.5093   19.2001 C   0  0  0  0  0  0
  -29.9694  -12.8657   17.9078 C   0  0  0  0  0  0
  -28.4375  -13.0622   18.0614 C   0  0  0  0  0  0
  -28.1795  -13.6058   19.4976 C   0  0  2  0  0  0
  -28.8447  -12.3275   20.1824 C   0  0  0  0  0  0
  -25.7173  -14.5216   21.2612 C   0  0  0  0  0  0
  -24.3366  -13.5383   21.5431 C   0  0  0  0  0  0
  -24.3242  -12.1683   20.5393 C   0  0  0  0  0  0
  -23.5818  -10.7914   20.9899 C   0  0  0  0  0  0
  -24.0460   -9.8208   21.9754 C   0  0  0  0  0  0
  -23.5084   -8.5064   22.1208 C   0  0  0  0  0  0
  -22.3881   -8.1278   21.3505 C   0  0  0  0  0  0
  -21.8992   -9.0602   20.4182 C   0  0  0  0  0  0
  -22.4809  -10.3355   20.2412 C   0  0  0  0  0  0
  -21.7270   -6.1003   22.5211 C   0  0  0  0  0  0
  -21.4272   -6.5846   23.8142 C   0  0  0  0  0  0
  -21.3706   -5.6951   24.9079 C   0  0  0  0  0  0
  -21.6022   -4.3194   24.7149 C   0  0  0  0  0  0
  -21.8788   -3.8302   23.4270 C   0  0  0  0  0  0
  -21.9339   -4.7157   22.3355 C   0  0  0  0  0  0
  -22.8756  -13.8978   21.6476 C   0  0  0  0  0  0
  -22.1744   -4.2274   21.0946 F   0  0  0  0  0  0
  -21.5534   -3.4663   25.7651 F   0  0  0  0  0  0
  -30.1075  -12.7936   20.4473 N   0  0  0  0  0  0
  -26.8606  -13.9331   19.9080 N   0  0  0  0  0  0
  -26.2680  -12.5487   19.2377 N   0  0  0  0  0  0
  -22.0957  -13.0365   22.2948 N   0  0  0  0  0  0
  -25.9773  -15.7709   21.6210 N   0  0  0  0  0  0
  -31.0501  -14.6673   21.0676 O   0  0  0  0  0  0
  -21.7360   -6.9111   21.4078 O   0  0  0  0  0  0
  -22.3778  -14.7762   20.9457 O   0  0  0  0  0  0
  -24.7042  -31.7788   23.1503 C   0  0  0  0  0  0
  -25.9588  -32.4316   23.8019 C   0  0  1  0  0  0
  -26.7034  -26.3667   20.1212 C   0  0  0  0  0  0
  -25.6115  -33.8182   24.1852 N   0  0  0  0  0  0
  -23.5050  -30.4206   21.5175 C   0  0  2  0  0  0
  -24.8584  -28.7576   20.0531 C   0  0  0  0  0  0
  -22.7742  -29.4270   22.4628 C   0  0  0  0  0  0
  -18.0325  -28.1422   22.8440 C   0  0  0  0  0  0
  -24.1494  -36.7075   23.2651 C   0  0  0  0  0  0
  -26.0906  -30.3686   21.4602 C   0  0  0  0  0  0
  -26.0473  -28.9295   20.7647 C   0  0  0  0  0  0
  -26.9798  -27.7394   20.7878 C   0  0  0  0  0  0
  -25.6170  -26.5323   19.2725 C   0  0  0  0  0  0
  -24.7103  -27.6091   19.2762 C   0  0  0  0  0  0
  -23.7330  -29.7902   20.1206 C   0  0  0  0  0  0
  -25.4160  -36.2816   24.0255 C   0  0  1  0  0  0
  -20.5962  -28.3774   23.1106 C   0  0  2  0  0  0
  -20.6791  -26.9429   22.5386 C   0  0  0  0  0  0
  -19.5762  -26.6359   21.5204 C   0  0  0  0  0  0
  -18.1948  -26.7946   22.1612 C   0  0  0  0  0  0
  -19.1595  -28.8918   23.2765 C   0  0  0  0  0  0
  -18.9509  -30.1503   23.8815 C   0  0  0  0  0  0
  -17.6502  -30.6606   24.0548 C   0  0  0  0  0  0
  -25.9179  -34.9215   23.4891 C   0  0  0  0  0  0
  -16.5386  -29.9088   23.6364 C   0  0  0  0  0  0
  -16.7308  -28.6513   23.0369 C   0  0  0  0  0  0
  -26.4665  -31.6497   25.0772 C   0  0  0  0  0  0
  -25.3663  -31.3917   26.1348 C   0  0  0  0  0  0
  -27.0648  -30.2802   24.6933 C   0  0  0  0  0  0
  -27.6061  -32.4439   25.7588 C   0  0  0  0  0  0
  -27.5562  -37.1698   24.8459 C   0  0  0  0  0  0
  -21.4385  -29.3019   22.3412 N   0  0  0  0  0  0
  -26.4252  -37.3618   23.9425 N   0  0  0  0  0  0
  -24.8007  -30.8995   22.0896 N   0  0  0  0  0  0
  -23.4182  -28.7806   23.2932 O   0  0  0  0  0  0
  -27.1590  -24.8429   20.1823 O   0  0  0  0  0  0
  -26.5816  -34.8830   22.4512 O   0  0  0  0  0  0
  -23.6059  -32.1074   23.6347 O   0  0  0  0  0  0
  -25.5043  -10.3047   19.3068 C   0  0  0  0  0  0
  -24.5394  -11.2216   18.2521 C   0  0  0  0  0  0
  -26.3174  -10.7402   20.7333 C   0  0  0  0  0  0
  -24.1435  -12.8645   18.2096 C   0  0  0  0  0  0
  -26.3188  -12.3259   21.3555 C   0  0  0  0  0  0
  -24.6980  -13.9977   19.3304 C   0  0  0  0  0  0
  -26.1615  -21.2838   20.0655 C   0  0  0  0  0  0
  -27.5595  -12.9390   22.4514 C   0  0  0  0  0  0
  -25.8103  -19.4686   19.2994 C   0  0  0  0  0  0
  -26.4478  -23.1974   19.5700 C   0  0  0  0  0  0
  -25.0818  -17.5188   19.6084 C   0  0  0  0  0  0
  -28.9417  -13.8418   22.1605 N   0  0  0  0  0  0
  -26.2056  -21.1828   21.2968 O   0  0  0  0  0  0
  -24.8406  -15.7058   19.0343 O   0  0  0  0  0  0
  -31.7702  -13.0431   19.1772 H   0  0  0  0  0  0
  -31.0845  -11.4505   19.1875 H   0  0  0  0  0  0
  -30.1838  -12.1574   17.1060 H   0  0  0  0  0  0
  -30.3630  -13.8150   17.5427 H   0  0  0  0  0  0
  -27.9884  -12.1132   17.7600 H   0  0  0  0  0  0
  -28.0819  -13.7808   17.3234 H   0  0  0  0  0  0
  -28.6891  -14.5726   19.4781 H   0  0  0  0  0  0
  -28.8257  -11.4299   19.5516 H   0  0  0  0  0  0
  -28.5877  -11.6737   20.9889 H   0  0  0  0  0  0
  -24.8697  -10.0814   22.6238 H   0  0  0  0  0  0
  -23.9293   -7.8321   22.8533 H   0  0  0  0  0  0
  -21.0552   -8.7855   19.8012 H   0  0  0  0  0  0
  -22.0741  -10.9812   19.4762 H   0  0  0  0  0  0
  -21.2363   -7.6370   23.9677 H   0  0  0  0  0  0
  -21.1470   -6.0690   25.8965 H   0  0  0  0  0  0
  -22.0451   -2.7752   23.2747 H   0  0  0  0  0  0
  -22.4920  -12.2623   22.8073 H   0  0  0  0  0  0
  -21.0955  -13.1772   22.3138 H   0  0  0  0  0  0
  -25.4899  -16.2482   22.3686 H   0  0  0  0  0  0
  -26.8273  -16.2397   21.3370 H   0  0  0  0  0  0
  -26.7644  -32.4592   23.0677 H   0  0  0  0  0  0
  -25.0204  -33.9203   24.9966 H   0  0  0  0  0  0
  -22.8430  -31.2763   21.3697 H   0  0  0  0  0  0
  -23.3813  -35.9345   23.3215 H   0  0  0  0  0  0
  -24.3551  -36.8856   22.2087 H   0  0  0  0  0  0
  -23.7186  -37.6184   23.6812 H   0  0  0  0  0  0
  -26.3788  -31.0858   20.6901 H   0  0  0  0  0  0
  -26.9234  -30.3651   22.1492 H   0  0  0  0  0  0
  -27.8401  -27.8069   21.4379 H   0  0  0  0  0  0
  -25.3329  -25.6884   18.6601 H   0  0  0  0  0  0
  -23.8257  -27.5125   18.6606 H   0  0  0  0  0  0
  -23.9767  -30.5804   19.4086 H   0  0  0  0  0  0
  -22.8040  -29.3471   19.7566 H   0  0  0  0  0  0
  -25.1373  -36.1545   25.0739 H   0  0  0  0  0  0
  -21.0044  -28.3413   24.1233 H   0  0  0  0  0  0
  -20.5659  -26.2398   23.3654 H   0  0  0  0  0  0
  -21.6650  -26.7377   22.1197 H   0  0  0  0  0  0
  -19.6926  -25.6247   21.1287 H   0  0  0  0  0  0
  -19.6716  -27.3124   20.6695 H   0  0  0  0  0  0
  -17.4220  -26.6679   21.4019 H   0  0  0  0  0  0
  -18.0351  -26.0107   22.9025 H   0  0  0  0  0  0
  -19.7989  -30.7333   24.2153 H   0  0  0  0  0  0
  -17.5061  -31.6275   24.5165 H   0  0  0  0  0  0
  -15.5387  -30.2972   23.7732 H   0  0  0  0  0  0
  -15.8707  -28.0811   22.7134 H   0  0  0  0  0  0
  -24.5860  -30.7241   25.7672 H   0  0  0  0  0  0
  -24.8849  -32.3178   26.4500 H   0  0  0  0  0  0
  -25.7788  -30.9269   27.0312 H   0  0  0  0  0  0
  -26.3371  -29.6254   24.2133 H   0  0  0  0  0  0
  -27.4123  -29.7463   25.5789 H   0  0  0  0  0  0
  -27.9357  -30.3858   24.0462 H   0  0  0  0  0  0
  -27.2554  -33.3827   26.1892 H   0  0  0  0  0  0
  -28.4012  -32.6869   25.0524 H   0  0  0  0  0  0
  -28.0590  -31.8781   26.5741 H   0  0  0  0  0  0
  -28.2494  -38.0075   24.7589 H   0  0  0  0  0  0
  -28.1145  -36.2605   24.6191 H   0  0  0  0  0  0
  -27.2292  -37.1209   25.8859 H   0  0  0  0  0  0
  -20.9666  -29.8763   21.6566 H   0  0  0  0  0  0
  -26.0051  -38.2640   24.1495 H   0  0  0  0  0  0
  -25.6088   -9.2663   19.0300 H   0  0  0  0  0  0
  -24.1368  -10.6541   17.4270 H   0  0  0  0  0  0
  -26.9255   -9.9911   21.2195 H   0  0  0  0  0  0
  -23.5896  -13.2275   17.3573 H   0  0  0  0  0  0
  -27.0300  -13.4951   23.2254 H   0  0  0  0  0  0
  -27.9000  -12.0663   23.0101 H   0  0  0  0  0  0
  -26.8349  -19.2400   19.0082 H   0  0  0  0  0  0
  -25.3398  -19.7473   18.3562 H   0  0  0  0  0  0
  -25.4279  -23.4872   19.3161 H   0  0  0  0  0  0
  -26.9266  -23.0984   18.5954 H   0  0  0  0  0  0
  -24.0970  -17.7707   19.2138 H   0  0  0  0  0  0
  -24.8139  -17.5578   20.6590 H   0  0  0  0  0  0
  -28.9644  -14.6539   22.7612 H   0  0  0  0  0  0
  1 25  1  0  0  0
  1 30  2  0  0  0
  1 82  1  0  0  0
  2  3  1  0  0  0
  2 25  1  0  0  0
  2 85  1  0  0  0
  2 86  1  0  0  0
  3  4  1  0  0  0
  3 87  1  0  0  0
  3 88  1  0  0  0
  4  5  1  0  0  0
  4 89  1  0  0  0
  4 90  1  0  0  0
  5  6  1  0  0  0
  5 26  1  0  0  0
  5 91  1  0  0  0
  6 25  1  0  0  0
  6 92  1  0  0  0
  6 93  1  0  0  0
  7  8  2  0  0  0
  7 26  1  0  0  0
  7 29  1  0  0  0
  8  9  1  0  0  0
  8 22  1  0  0  0
  9 10  1  0  0  0
  9 27  2  0  0  0
 10 11  2  0  0  0
 10 15  1  0  0  0
 11 12  1  0  0  0
 11 94  1  0  0  0
 12 13  2  0  0  0
 12 95  1  0  0  0
 13 14  1  0  0  0
 13 31  1  0  0  0
 14 15  2  0  0  0
 14 96  1  0  0  0
 15 97  1  0  0  0
 16 17  2  0  0  0
 16 21  1  0  0  0
 16 31  1  0  0  0
 17 18  1  0  0  0
 17 98  1  0  0  0
 18 19  2  0  0  0
 18 99  1  0  0  0
 19 20  1  0  0  0
 19 24  1  0  0  0
 20 21  2  0  0  0
 20100  1  0  0  0
 21 23  1  0  0  0
 22 28  1  0  0  0
 22 32  2  0  0  0
 26 27  1  0  0  0
 28101  1  0  0  0
 28102  1  0  0  0
 29103  1  0  0  0
 29104  1  0  0  0
 33 34  1  0  0  0
 33 66  1  0  0  0
 33 70  2  0  0  0
 34 36  1  0  0  0
 34 59  1  0  0  0
 34105  1  0  0  0
 35 44  2  0  0  0
 35 45  1  0  0  0
 35 68  1  0  0  0
 36 56  1  0  0  0
 36106  1  0  0  0
 37 39  1  0  0  0
 37 47  1  0  0  0
 37 66  1  0  0  0
 37107  1  0  0  0
 38 43  2  0  0  0
 38 46  1  0  0  0
 38 47  1  0  0  0
 39 64  1  0  0  0
 39 67  2  0  0  0
 40 52  1  0  0  0
 40 53  2  0  0  0
 40 58  1  0  0  0
 41108  1  0  0  0
 41109  1  0  0  0
 41110  1  0  0  0
 41 48  1  0  0  0
 42 43  1  0  0  0
 42 66  1  0  0  0
 42111  1  0  0  0
 42112  1  0  0  0
 43 44  1  0  0  0
 44113  1  0  0  0
 45 46  2  0  0  0
 45114  1  0  0  0
 46115  1  0  0  0
 47116  1  0  0  0
 47117  1  0  0  0
 48 56  1  0  0  0
 48 65  1  0  0  0
 48118  1  0  0  0
 49 50  1  0  0  0
 49 53  1  0  0  0
 49 64  1  0  0  0
 49119  1  0  0  0
 50 51  1  0  0  0
 50120  1  0  0  0
 50121  1  0  0  0
 51 52  1  0  0  0
 51122  1  0  0  0
 51123  1  0  0  0
 52124  1  0  0  0
 52125  1  0  0  0
 53 54  1  0  0  0
 54 55  2  0  0  0
 54126  1  0  0  0
 55 57  1  0  0  0
 55127  1  0  0  0
 56 69  2  0  0  0
 57 58  2  0  0  0
 57128  1  0  0  0
 58129  1  0  0  0
 59 60  1  0  0  0
 59 61  1  0  0  0
 59 62  1  0  0  0
 60130  1  0  0  0
 60131  1  0  0  0
 60132  1  0  0  0
 61133  1  0  0  0
 61134  1  0  0  0
 61135  1  0  0  0
 62136  1  0  0  0
 62137  1  0  0  0
 62138  1  0  0  0
 63 65  1  0  0  0
 63139  1  0  0  0
 63140  1  0  0  0
 63141  1  0  0  0
 64142  1  0  0  0
 65143  1  0  0  0
 68 80  1  0  0  0
 71 72  2  0  0  0
 71 73  1  0  0  0
 71144  1  0  0  0
 72 74  1  0  0  0
 72145  1  0  0  0
 73 75  2  0  0  0
 73146  1  0  0  0
 74 76  2  0  0  0
 74147  1  0  0  0
 75 76  1  0  0  0
 75 78  1  0  0  0
 76 84  1  0  0  0
 77 79  1  0  0  0
 77 80  1  0  0  0
 77 83  2  0  0  0
 78 82  1  0  0  0
 78148  1  0  0  0
 78149  1  0  0  0
 79 81  1  0  0  0
 79150  1  0  0  0
 79151  1  0  0  0
 80152  1  0  0  0
 80153  1  0  0  0
 81 84  1  0  0  0
 81154  1  0  0  0
 81155  1  0  0  0
 82156  1  0  0  0
M  ISO  4   1 100  68 101  80 101  82 100
M  END
> <chiral flag>
0

> <version>
0

> <s_m_source_file>
/data/baiqing/PycharmProjects/Reinvent-master-3.2/result/LINK_invent/BTK/process_docking_weight1_custom_product_contain_oxygen_bond_distance_aromatic_linkinvent_7_9_3/rearranged_h_0108.sdf

> <i_m_source_file_index>
71

> <r_mmod_Potential_Energy-OPLS-2005>
19894.7421875

> <r_mmod_Stretch_Energy-OPLS-2005>
11720.7822265625

> <r_mmod_Bend_Energy-OPLS-2005>
1427.5126953125

> <r_mmod_Torsional_Energy-OPLS-2005>
456.143035888672

> <r_mmod_Improper_Torsional_Energy-OPLS-2005>
61.9928092956543

> <r_mmod_Van_der_Waal_Energy-OPLS-2005>
4313.79443359375

> <r_mmod_Electrostatic_Energy-OPLS-2005>
-365.603912353516

> <r_mmod_Solvation_Energy-OPLS-2005>
-261.294189453125

> <b_mmod_Minimization_Converged-OPLS-2005>
0

> <r_mmod_RMS_Derivative-OPLS-2005>
4.93138551712036

$$$$
72
                    3D
 Structure written by MMmdl.
160168  0  0  1  0            999 V2000
  -30.7032  -14.5169   20.5811 C   0  0  0  0  0  0
  -30.4279  -12.3396   19.4272 C   0  0  0  0  0  0
  -29.4975  -12.4990   18.2071 C   0  0  0  0  0  0
  -28.0182  -12.3541   18.6205 C   0  0  0  0  0  0
  -27.6548  -13.2156   19.8602 C   0  0  2  0  0  0
  -28.6992  -13.0312   20.9834 C   0  0  0  0  0  0
  -25.2509  -13.8183   20.5628 C   0  0  0  0  0  0
  -24.1799  -13.0453   20.9200 C   0  0  0  0  0  0
  -24.6383  -11.6906   20.8752 C   0  0  0  0  0  0
  -23.9053  -10.4298   21.0433 C   0  0  0  0  0  0
  -24.3616   -9.4203   21.9189 C   0  0  0  0  0  0
  -23.6286   -8.2248   22.0764 C   0  0  0  0  0  0
  -22.4263   -8.0293   21.3546 C   0  0  0  0  0  0
  -21.9898   -9.0274   20.4643 C   0  0  0  0  0  0
  -22.7244  -10.2145   20.3051 C   0  0  0  0  0  0
  -21.6839   -6.0723   22.5281 C   0  0  0  0  0  0
  -21.4018   -6.5626   23.8223 C   0  0  0  0  0  0
  -21.3653   -5.6785   24.9179 C   0  0  0  0  0  0
  -21.6057   -4.3041   24.7234 C   0  0  0  0  0  0
  -21.8805   -3.8128   23.4343 C   0  0  0  0  0  0
  -21.9185   -4.6945   22.3401 C   0  0  0  0  0  0
  -22.7798  -13.5239   21.1856 C   0  0  0  0  0  0
  -22.1635   -4.2115   21.0975 F   0  0  0  0  0  0
  -21.5646   -3.4521   25.7752 F   0  0  0  0  0  0
  -30.0224  -13.3453   20.4243 N   0  0  0  0  0  0
  -26.2973  -12.9389   20.3290 N   0  0  0  0  0  0
  -25.9303  -11.6536   20.5738 N   0  0  0  0  0  0
  -22.0434  -12.8256   22.0429 N   0  0  0  0  0  0
  -25.4180  -15.1929   20.3976 N   0  0  0  0  0  0
  -31.8537  -14.6725   20.1621 O   0  0  0  0  0  0
  -21.6619   -6.8873   21.4255 O   0  0  0  0  0  0
  -22.3458  -14.5541   20.6693 O   0  0  0  0  0  0
  -24.6194  -31.8660   23.2073 C   0  0  0  0  0  0
  -25.9073  -32.4827   23.8384 C   0  0  1  0  0  0
  -27.2492  -27.4020   20.0973 C   0  0  0  0  0  0
  -25.5916  -33.8623   24.2329 N   0  0  0  0  0  0
  -23.4096  -30.4883   21.5488 C   0  0  2  0  0  0
  -24.8589  -28.9522   20.1110 C   0  0  0  0  0  0
  -22.7445  -29.4641   22.4975 C   0  0  0  0  0  0
  -18.0262  -28.1404   22.8476 C   0  0  0  0  0  0
  -24.1476  -36.7298   23.2628 C   0  0  0  0  0  0
  -25.9409  -30.8232   21.3592 C   0  0  0  0  0  0
  -26.0219  -29.4525   20.7115 C   0  0  0  0  0  0
  -27.2153  -28.6867   20.6981 C   0  0  0  0  0  0
  -26.0599  -26.9302   19.4850 C   0  0  0  0  0  0
  -24.8789  -27.6949   19.4899 C   0  0  0  0  0  0
  -23.6200  -29.8218   20.1633 C   0  0  0  0  0  0
  -25.4103  -36.3128   24.0330 C   0  0  1  0  0  0
  -20.5863  -28.3690   23.1323 C   0  0  2  0  0  0
  -20.6760  -26.9420   22.5431 C   0  0  0  0  0  0
  -19.5751  -26.6395   21.5221 C   0  0  0  0  0  0
  -18.1923  -26.7943   22.1614 C   0  0  0  0  0  0
  -19.1510  -28.8870   23.2884 C   0  0  0  0  0  0
  -18.9428  -30.1466   23.8919 C   0  0  0  0  0  0
  -17.6431  -30.6601   24.0586 C   0  0  0  0  0  0
  -25.9031  -34.9492   23.5134 C   0  0  0  0  0  0
  -16.5330  -29.9110   23.6329 C   0  0  0  0  0  0
  -16.7248  -28.6523   23.0353 C   0  0  0  0  0  0
  -26.4485  -31.6622   25.0723 C   0  0  0  0  0  0
  -25.3724  -31.3732   26.1443 C   0  0  0  0  0  0
  -27.0297  -30.3074   24.6068 C   0  0  0  0  0  0
  -27.6074  -32.4331   25.7474 C   0  0  0  0  0  0
  -27.5577  -37.1800   24.8454 C   0  0  0  0  0  0
  -21.4170  -29.3044   22.3743 N   0  0  0  0  0  0
  -26.4294  -37.3822   23.9401 N   0  0  0  0  0  0
  -24.6756  -31.0723   22.0995 N   0  0  0  0  0  0
  -23.4192  -28.8169   23.3012 O   0  0  0  0  0  0
  -28.4194  -26.6439   20.1303 O   0  0  0  0  0  0
  -26.5583  -34.8943   22.4688 O   0  0  0  0  0  0
  -23.5378  -32.1424   23.7448 O   0  0  0  0  0  0
  -31.4653  -16.9505   22.4501 C   0  0  0  0  0  0
  -31.3198  -19.3999   22.4136 C   0  0  0  0  0  0
  -29.8717  -18.0586   20.9860 C   0  0  0  0  0  0
  -31.8844  -18.2092   22.9379 C   0  0  0  0  0  0
  -30.4573  -16.8557   21.4654 C   0  0  0  0  0  0
  -30.3007  -19.3407   21.4307 C   0  0  0  0  0  0
  -32.9320  -18.2626   24.0450 C   0  0  0  0  0  0
  -29.5046  -24.3248   20.3918 C   0  0  0  0  0  0
  -29.1523  -22.8001   20.4541 C   0  0  0  0  0  0
  -28.2935  -25.2106   19.9411 C   0  0  0  0  0  0
  -30.2083  -21.7927   21.0141 C   0  0  0  0  0  0
  -29.9788  -15.5671   21.0400 N   0  0  0  0  0  0
  -32.3368  -17.9953   25.3632 N   0  3  0  0  0  0
  -29.6636  -20.4573   20.8963 O   0  0  0  0  0  0
  -31.4725  -12.4452   19.1255 H   0  0  0  0  0  0
  -30.3437  -11.3361   19.8463 H   0  0  0  0  0  0
  -29.7469  -11.7628   17.4391 H   0  0  0  0  0  0
  -29.6601  -13.4765   17.7515 H   0  0  0  0  0  0
  -27.8413  -11.3004   18.8380 H   0  0  0  0  0  0
  -27.3670  -12.6043   17.7808 H   0  0  0  0  0  0
  -27.6849  -14.2560   19.5347 H   0  0  0  0  0  0
  -28.6892  -12.0008   21.3453 H   0  0  0  0  0  0
  -28.4593  -13.6524   21.8488 H   0  0  0  0  0  0
  -25.2776   -9.5646   22.4728 H   0  0  0  0  0  0
  -23.9961   -7.4632   22.7481 H   0  0  0  0  0  0
  -21.0819   -8.8809   19.8955 H   0  0  0  0  0  0
  -22.3737  -10.9670   19.6113 H   0  0  0  0  0  0
  -21.2017   -7.6129   23.9718 H   0  0  0  0  0  0
  -21.1487   -6.0505   25.9085 H   0  0  0  0  0  0
  -22.0590   -2.7580   23.2866 H   0  0  0  0  0  0
  -22.4017  -11.9903   22.4839 H   0  0  0  0  0  0
  -21.1041  -13.1256   22.2622 H   0  0  0  0  0  0
  -24.6460  -15.8418   20.4940 H   0  0  0  0  0  0
  -26.2574  -15.6294   20.0419 H   0  0  0  0  0  0
  -26.7153  -32.5526   23.1153 H   0  0  0  0  0  0
  -25.0195  -33.9780   25.0561 H   0  0  0  0  0  0
  -22.6974  -31.3053   21.4107 H   0  0  0  0  0  0
  -23.3768  -35.9607   23.3330 H   0  0  0  0  0  0
  -24.3573  -36.8870   22.2038 H   0  0  0  0  0  0
  -23.7190  -37.6496   23.6615 H   0  0  0  0  0  0
  -26.0436  -31.5773   20.5795 H   0  0  0  0  0  0
  -26.8361  -30.8955   21.9680 H   0  0  0  0  0  0
  -28.1106  -29.0725   21.1644 H   0  0  0  0  0  0
  -26.0196  -25.9692   18.9955 H   0  0  0  0  0  0
  -23.9891  -27.3135   19.0056 H   0  0  0  0  0  0
  -23.7279  -30.5979   19.4037 H   0  0  0  0  0  0
  -22.7429  -29.2421   19.8688 H   0  0  0  0  0  0
  -25.1290  -36.2023   25.0829 H   0  0  0  0  0  0
  -20.9935  -28.3258   24.1456 H   0  0  0  0  0  0
  -20.5700  -26.2284   23.3611 H   0  0  0  0  0  0
  -21.6621  -26.7493   22.1207 H   0  0  0  0  0  0
  -19.6916  -25.6313   21.1241 H   0  0  0  0  0  0
  -19.6703  -27.3218   20.6767 H   0  0  0  0  0  0
  -17.4197  -26.6705   21.4010 H   0  0  0  0  0  0
  -18.0310  -26.0088   22.9019 H   0  0  0  0  0  0
  -19.7903  -30.7273   24.2302 H   0  0  0  0  0  0
  -17.4989  -31.6274   24.5200 H   0  0  0  0  0  0
  -15.5340  -30.3040   23.7622 H   0  0  0  0  0  0
  -15.8636  -28.0858   22.7078 H   0  0  0  0  0  0
  -24.5905  -30.7086   25.7751 H   0  0  0  0  0  0
  -24.8891  -32.2890   26.4868 H   0  0  0  0  0  0
  -25.8041  -30.8901   27.0217 H   0  0  0  0  0  0
  -26.2837  -29.6857   24.1107 H   0  0  0  0  0  0
  -27.4088  -29.7292   25.4502 H   0  0  0  0  0  0
  -27.8672  -30.4424   23.9219 H   0  0  0  0  0  0
  -27.2738  -33.3648   26.2064 H   0  0  0  0  0  0
  -28.3883  -32.6860   25.0290 H   0  0  0  0  0  0
  -28.0760  -31.8440   26.5368 H   0  0  0  0  0  0
  -28.2610  -38.0090   24.7544 H   0  0  0  0  0  0
  -28.1071  -36.2621   24.6277 H   0  0  0  0  0  0
  -27.2278  -37.1450   25.8855 H   0  0  0  0  0  0
  -20.9364  -29.8769   21.6956 H   0  0  0  0  0  0
  -26.0191  -38.2895   24.1484 H   0  0  0  0  0  0
  -31.9017  -16.0508   22.8630 H   0  0  0  0  0  0
  -31.6611  -20.3486   22.8006 H   0  0  0  0  0  0
  -29.0844  -18.0115   20.2505 H   0  0  0  0  0  0
  -33.4147  -19.2423   24.0578 H   0  0  0  0  0  0
  -33.7139  -17.5264   23.8553 H   0  0  0  0  0  0
  -30.3388  -24.4732   19.7057 H   0  0  0  0  0  0
  -29.8590  -24.6567   21.3664 H   0  0  0  0  0  0
  -28.8593  -22.4783   19.4536 H   0  0  0  0  0  0
  -28.2598  -22.6935   21.0671 H   0  0  0  0  0  0
  -27.4215  -24.8628   20.4986 H   0  0  0  0  0  0
  -28.0947  -25.0156   18.8848 H   0  0  0  0  0  0
  -30.4455  -22.0479   22.0495 H   0  0  0  0  0  0
  -31.1328  -21.8475   20.4392 H   0  0  0  0  0  0
  -28.9841  -15.4179   21.0887 H   0  0  0  0  0  0
  -31.4863  -18.5150   25.4782 H   0  0  0  0  0  0
  -32.9818  -18.2502   26.0898 H   0  0  0  0  0  0
  -32.1378  -17.0201   25.4717 H   0  0  0  0  0  0
  1 25  1  0  0  0
  1 30  2  0  0  0
  1 82  1  0  0  0
  2  3  1  0  0  0
  2 25  1  0  0  0
  2 85  1  0  0  0
  2 86  1  0  0  0
  3  4  1  0  0  0
  3 87  1  0  0  0
  3 88  1  0  0  0
  4  5  1  0  0  0
  4 89  1  0  0  0
  4 90  1  0  0  0
  5  6  1  0  0  0
  5 26  1  0  0  0
  5 91  1  0  0  0
  6 25  1  0  0  0
  6 92  1  0  0  0
  6 93  1  0  0  0
  7  8  2  0  0  0
  7 26  1  0  0  0
  7 29  1  0  0  0
  8  9  1  0  0  0
  8 22  1  0  0  0
  9 10  1  0  0  0
  9 27  2  0  0  0
 10 11  2  0  0  0
 10 15  1  0  0  0
 11 12  1  0  0  0
 11 94  1  0  0  0
 12 13  2  0  0  0
 12 95  1  0  0  0
 13 14  1  0  0  0
 13 31  1  0  0  0
 14 15  2  0  0  0
 14 96  1  0  0  0
 15 97  1  0  0  0
 16 17  2  0  0  0
 16 21  1  0  0  0
 16 31  1  0  0  0
 17 18  1  0  0  0
 17 98  1  0  0  0
 18 19  2  0  0  0
 18 99  1  0  0  0
 19 20  1  0  0  0
 19 24  1  0  0  0
 20 21  2  0  0  0
 20100  1  0  0  0
 21 23  1  0  0  0
 22 28  1  0  0  0
 22 32  2  0  0  0
 26 27  1  0  0  0
 28101  1  0  0  0
 28102  1  0  0  0
 29103  1  0  0  0
 29104  1  0  0  0
 33 34  1  0  0  0
 33 66  1  0  0  0
 33 70  2  0  0  0
 34 36  1  0  0  0
 34 59  1  0  0  0
 34105  1  0  0  0
 35 44  2  0  0  0
 35 45  1  0  0  0
 35 68  1  0  0  0
 36 56  1  0  0  0
 36106  1  0  0  0
 37 39  1  0  0  0
 37 47  1  0  0  0
 37 66  1  0  0  0
 37107  1  0  0  0
 38 43  2  0  0  0
 38 46  1  0  0  0
 38 47  1  0  0  0
 39 64  1  0  0  0
 39 67  2  0  0  0
 40 52  1  0  0  0
 40 53  2  0  0  0
 40 58  1  0  0  0
 41108  1  0  0  0
 41109  1  0  0  0
 41110  1  0  0  0
 41 48  1  0  0  0
 42 43  1  0  0  0
 42 66  1  0  0  0
 42111  1  0  0  0
 42112  1  0  0  0
 43 44  1  0  0  0
 44113  1  0  0  0
 45 46  2  0  0  0
 45114  1  0  0  0
 46115  1  0  0  0
 47116  1  0  0  0
 47117  1  0  0  0
 48 56  1  0  0  0
 48 65  1  0  0  0
 48118  1  0  0  0
 49 50  1  0  0  0
 49 53  1  0  0  0
 49 64  1  0  0  0
 49119  1  0  0  0
 50 51  1  0  0  0
 50120  1  0  0  0
 50121  1  0  0  0
 51 52  1  0  0  0
 51122  1  0  0  0
 51123  1  0  0  0
 52124  1  0  0  0
 52125  1  0  0  0
 53 54  1  0  0  0
 54 55  2  0  0  0
 54126  1  0  0  0
 55 57  1  0  0  0
 55127  1  0  0  0
 56 69  2  0  0  0
 57 58  2  0  0  0
 57128  1  0  0  0
 58129  1  0  0  0
 59 60  1  0  0  0
 59 61  1  0  0  0
 59 62  1  0  0  0
 60130  1  0  0  0
 60131  1  0  0  0
 60132  1  0  0  0
 61133  1  0  0  0
 61134  1  0  0  0
 61135  1  0  0  0
 62136  1  0  0  0
 62137  1  0  0  0
 62138  1  0  0  0
 63 65  1  0  0  0
 63139  1  0  0  0
 63140  1  0  0  0
 63141  1  0  0  0
 64142  1  0  0  0
 65143  1  0  0  0
 68 80  1  0  0  0
 71 74  2  0  0  0
 71 75  1  0  0  0
 71144  1  0  0  0
 72 74  1  0  0  0
 72 76  2  0  0  0
 72145  1  0  0  0
 73 75  2  0  0  0
 73 76  1  0  0  0
 73146  1  0  0  0
 74 77  1  0  0  0
 75 82  1  0  0  0
 76 84  1  0  0  0
 77 83  1  0  0  0
 77147  1  0  0  0
 77148  1  0  0  0
 78 79  1  0  0  0
 78 80  1  0  0  0
 78149  1  0  0  0
 78150  1  0  0  0
 79 81  1  0  0  0
 79151  1  0  0  0
 79152  1  0  0  0
 80153  1  0  0  0
 80154  1  0  0  0
 81 84  1  0  0  0
 81155  1  0  0  0
 81156  1  0  0  0
 82157  1  0  0  0
 83158  1  0  0  0
 83159  1  0  0  0
 83160  1  0  0  0
M  CHG  1  83   1
M  ISO  4   1 100  68 101  80 101  82 100
M  END
> <chiral flag>
0

> <version>
0

> <s_m_source_file>
/data/baiqing/PycharmProjects/Reinvent-master-3.2/result/LINK_invent/BTK/process_docking_weight1_custom_product_contain_oxygen_bond_distance_aromatic_linkinvent_7_9_3/rearranged_h_0108.sdf

> <i_m_source_file_index>
72

> <r_mmod_Potential_Energy-OPLS-2005>
-327.528717041016

> <r_mmod_Stretch_Energy-OPLS-2005>
50.5592880249023

> <r_mmod_Bend_Energy-OPLS-2005>
114.112197875977

> <r_mmod_Torsional_Energy-OPLS-2005>
218.906982421875

> <r_mmod_Improper_Torsional_Energy-OPLS-2005>
4.46494102478027

> <r_mmod_Van_der_Waal_Energy-OPLS-2005>
148.476959228516

> <r_mmod_Electrostatic_Energy-OPLS-2005>
-361.040069580078

> <r_mmod_Solvation_Energy-OPLS-2005>
-523.431579589844

> <b_mmod_Minimization_Converged-OPLS-2005>
0

> <r_mmod_RMS_Derivative-OPLS-2005>
5.07451868057251

$$$$
73
                    3D
 Structure written by MMmdl.
168176  0  0  1  0            999 V2000
  -30.7111  -14.4533   20.5981 C   0  0  0  0  0  0
  -30.4228  -12.3041   19.4158 C   0  0  0  0  0  0
  -29.4887  -12.5007   18.2027 C   0  0  0  0  0  0
  -28.0117  -12.3604   18.6198 C   0  0  0  0  0  0
  -27.6601  -13.1964   19.8791 C   0  0  2  0  0  0
  -28.7044  -12.9772   20.9977 C   0  0  0  0  0  0
  -25.2587  -13.8114   20.5651 C   0  0  0  0  0  0
  -24.1824  -13.0415   20.9169 C   0  0  0  0  0  0
  -24.6364  -11.6881   20.8750 C   0  0  0  0  0  0
  -23.9040  -10.4269   21.0421 C   0  0  0  0  0  0
  -24.3594   -9.4181   21.9197 C   0  0  0  0  0  0
  -23.6284   -8.2208   22.0747 C   0  0  0  0  0  0
  -22.4259   -8.0268   21.3532 C   0  0  0  0  0  0
  -21.9893   -9.0239   20.4638 C   0  0  0  0  0  0
  -22.7220  -10.2118   20.3062 C   0  0  0  0  0  0
  -21.6840   -6.0734   22.5279 C   0  0  0  0  0  0
  -21.4004   -6.5639   23.8210 C   0  0  0  0  0  0
  -21.3657   -5.6795   24.9173 C   0  0  0  0  0  0
  -21.6050   -4.3053   24.7228 C   0  0  0  0  0  0
  -21.8819   -3.8140   23.4352 C   0  0  0  0  0  0
  -21.9178   -4.6960   22.3407 C   0  0  0  0  0  0
  -22.7857  -13.5235   21.1874 C   0  0  0  0  0  0
  -22.1642   -4.2141   21.0987 F   0  0  0  0  0  0
  -21.5638   -3.4546   25.7745 F   0  0  0  0  0  0
  -30.0351  -13.2808   20.4445 N   0  0  0  0  0  0
  -26.3012  -12.9254   20.3370 N   0  0  0  0  0  0
  -25.9293  -11.6434   20.5792 N   0  0  0  0  0  0
  -22.0486  -12.8220   22.0418 N   0  0  0  0  0  0
  -25.4350  -15.1818   20.4048 N   0  0  0  0  0  0
  -31.8424  -14.6447   20.1411 O   0  0  0  0  0  0
  -21.6616   -6.8874   21.4238 O   0  0  0  0  0  0
  -22.3553  -14.5564   20.6754 O   0  0  0  0  0  0
  -24.6116  -31.8698   23.2129 C   0  0  0  0  0  0
  -25.9021  -32.4832   23.8415 C   0  0  1  0  0  0
  -27.2345  -27.4600   20.0946 C   0  0  0  0  0  0
  -25.5884  -33.8627   24.2348 N   0  0  0  0  0  0
  -23.3994  -30.4932   21.5522 C   0  0  2  0  0  0
  -24.8479  -28.9664   20.1113 C   0  0  0  0  0  0
  -22.7405  -29.4659   22.5001 C   0  0  0  0  0  0
  -18.0265  -28.1372   22.8500 C   0  0  0  0  0  0
  -24.1484  -36.7325   23.2638 C   0  0  0  0  0  0
  -25.9263  -30.8443   21.3630 C   0  0  0  0  0  0
  -26.0069  -29.4823   20.7073 C   0  0  0  0  0  0
  -27.2057  -28.7368   20.6961 C   0  0  0  0  0  0
  -26.0649  -26.9593   19.4828 C   0  0  0  0  0  0
  -24.8708  -27.7034   19.4953 C   0  0  0  0  0  0
  -23.6067  -29.8269   20.1659 C   0  0  0  0  0  0
  -25.4101  -36.3125   24.0347 C   0  0  1  0  0  0
  -20.5853  -28.3650   23.1331 C   0  0  2  0  0  0
  -20.6755  -26.9392   22.5418 C   0  0  0  0  0  0
  -19.5734  -26.6385   21.5217 C   0  0  0  0  0  0
  -18.1915  -26.7919   22.1629 C   0  0  0  0  0  0
  -19.1513  -28.8830   23.2907 C   0  0  0  0  0  0
  -18.9444  -30.1439   23.8913 C   0  0  0  0  0  0
  -17.6448  -30.6585   24.0563 C   0  0  0  0  0  0
  -25.9021  -34.9482   23.5145 C   0  0  0  0  0  0
  -16.5339  -29.9086   23.6323 C   0  0  0  0  0  0
  -16.7255  -28.6498   23.0353 C   0  0  0  0  0  0
  -26.4454  -31.6603   25.0733 C   0  0  0  0  0  0
  -25.3730  -31.3723   26.1501 C   0  0  0  0  0  0
  -27.0267  -30.3041   24.6096 C   0  0  0  0  0  0
  -27.6063  -32.4298   25.7466 C   0  0  0  0  0  0
  -27.5584  -37.1816   24.8465 C   0  0  0  0  0  0
  -21.4134  -29.3026   22.3753 N   0  0  0  0  0  0
  -26.4294  -37.3805   23.9411 N   0  0  0  0  0  0
  -24.6638  -31.0815   22.1022 N   0  0  0  0  0  0
  -23.4189  -28.8202   23.3030 O   0  0  0  0  0  0
  -28.3792  -26.6991   20.1291 O   0  0  0  0  0  0
  -26.5586  -34.8934   22.4706 O   0  0  0  0  0  0
  -23.5314  -32.1440   23.7540 O   0  0  0  0  0  0
  -32.1892  -17.6270   22.2047 C   0  0  0  0  0  0
  -32.0139  -20.0544   22.1998 C   0  0  0  0  0  0
  -30.7940  -17.5066   22.3676 C   0  0  0  0  0  0
  -30.0005  -18.6885   22.4843 C   0  0  0  0  0  0
  -32.8003  -18.8910   22.1453 C   0  0  0  0  0  0
  -30.6082  -19.9685   22.3517 C   0  0  0  0  0  0
  -28.1927  -18.6774   24.2674 C   0  0  0  0  0  0
  -29.4321  -16.4042   20.0344 C   0  0  0  0  0  0
  -28.5006  -18.6152   22.7662 C   0  0  0  0  0  0
  -30.2086  -16.0853   22.3836 C   0  0  0  0  0  0
  -29.4207  -24.5663   20.8686 C   0  0  0  0  0  0
  -29.1291  -23.2918   21.6921 C   0  0  0  0  0  0
  -28.1968  -25.4938   20.8795 C   0  0  0  0  0  0
  -30.2880  -22.2874   21.7705 C   0  0  0  0  0  0
  -34.1869  -18.9869   22.0338 N   0  0  0  0  0  0
  -29.9688  -15.4899   21.0514 N   0  0  0  0  0  0
  -29.8066  -21.0932   22.3924 O   0  0  0  0  0  0
  -31.4651  -12.4104   19.1107 H   0  0  0  0  0  0
  -30.3264  -11.2911   19.8107 H   0  0  0  0  0  0
  -29.7198  -11.7716   17.4254 H   0  0  0  0  0  0
  -29.6544  -13.4822   17.7563 H   0  0  0  0  0  0
  -27.8219  -11.3041   18.8128 H   0  0  0  0  0  0
  -27.3594  -12.6378   17.7912 H   0  0  0  0  0  0
  -27.6964  -14.2424   19.5822 H   0  0  0  0  0  0
  -28.6767  -11.9422   21.3431 H   0  0  0  0  0  0
  -28.4686  -13.5879   21.8702 H   0  0  0  0  0  0
  -25.2727   -9.5657   22.4791 H   0  0  0  0  0  0
  -23.9996   -7.4588   22.7455 H   0  0  0  0  0  0
  -21.0823   -8.8760   19.8947 H   0  0  0  0  0  0
  -22.3671  -10.9671   19.6191 H   0  0  0  0  0  0
  -21.1995   -7.6143   23.9705 H   0  0  0  0  0  0
  -21.1490   -6.0526   25.9076 H   0  0  0  0  0  0
  -22.0609   -2.7607   23.2848 H   0  0  0  0  0  0
  -22.4113  -11.9859   22.4788 H   0  0  0  0  0  0
  -21.1115  -13.1260   22.2672 H   0  0  0  0  0  0
  -24.6796  -15.8477   20.5241 H   0  0  0  0  0  0
  -26.3042  -15.6101   20.1135 H   0  0  0  0  0  0
  -26.7093  -32.5560   23.1181 H   0  0  0  0  0  0
  -25.0039  -33.9793   25.0495 H   0  0  0  0  0  0
  -22.6859  -31.3087   21.4152 H   0  0  0  0  0  0
  -23.3752  -35.9655   23.3306 H   0  0  0  0  0  0
  -24.3585  -36.8929   22.2053 H   0  0  0  0  0  0
  -23.7227  -37.6531   23.6637 H   0  0  0  0  0  0
  -26.0347  -31.6129   20.5970 H   0  0  0  0  0  0
  -26.8149  -30.8958   21.9805 H   0  0  0  0  0  0
  -28.0981  -29.1267   21.1648 H   0  0  0  0  0  0
  -26.0698  -25.9925   18.9994 H   0  0  0  0  0  0
  -23.9813  -27.3030   19.0291 H   0  0  0  0  0  0
  -23.7086  -30.6014   19.4052 H   0  0  0  0  0  0
  -22.7339  -29.2401   19.8748 H   0  0  0  0  0  0
  -25.1274  -36.2001   25.0841 H   0  0  0  0  0  0
  -20.9935  -28.3203   24.1456 H   0  0  0  0  0  0
  -20.5662  -26.2257   23.3600 H   0  0  0  0  0  0
  -21.6626  -26.7442   22.1206 H   0  0  0  0  0  0
  -19.6893  -25.6301   21.1237 H   0  0  0  0  0  0
  -19.6676  -27.3203   20.6755 H   0  0  0  0  0  0
  -17.4186  -26.6667   21.4032 H   0  0  0  0  0  0
  -18.0316  -26.0056   22.9020 H   0  0  0  0  0  0
  -19.7924  -30.7243   24.2296 H   0  0  0  0  0  0
  -17.5010  -31.6272   24.5153 H   0  0  0  0  0  0
  -15.5339  -30.2993   23.7648 H   0  0  0  0  0  0
  -15.8655  -28.0825   22.7062 H   0  0  0  0  0  0
  -24.5850  -30.7134   25.7841 H   0  0  0  0  0  0
  -24.8986  -32.2893   26.5007 H   0  0  0  0  0  0
  -25.8076  -30.8831   27.0227 H   0  0  0  0  0  0
  -26.2802  -29.6814   24.1157 H   0  0  0  0  0  0
  -27.4045  -29.7268   25.4544 H   0  0  0  0  0  0
  -27.8637  -30.4359   23.9235 H   0  0  0  0  0  0
  -27.2724  -33.3610   26.2054 H   0  0  0  0  0  0
  -28.3852  -32.6830   25.0261 H   0  0  0  0  0  0
  -28.0746  -31.8405   26.5359 H   0  0  0  0  0  0
  -28.2614  -38.0104   24.7515 H   0  0  0  0  0  0
  -28.1069  -36.2639   24.6278 H   0  0  0  0  0  0
  -27.2311  -37.1458   25.8872 H   0  0  0  0  0  0
  -20.9300  -29.8751   21.6983 H   0  0  0  0  0  0
  -26.0196  -38.2891   24.1411 H   0  0  0  0  0  0
  -32.7913  -16.7320   22.1329 H   0  0  0  0  0  0
  -32.5020  -21.0157   22.1468 H   0  0  0  0  0  0
  -27.1199  -18.6022   24.4451 H   0  0  0  0  0  0
  -28.5345  -19.6177   24.7009 H   0  0  0  0  0  0
  -28.6777  -17.8647   24.8094 H   0  0  0  0  0  0
  -29.2047  -15.8852   19.1018 H   0  0  0  0  0  0
  -30.1449  -17.1936   19.7888 H   0  0  0  0  0  0
  -28.5058  -16.8639   20.3722 H   0  0  0  0  0  0
  -28.0572  -17.7146   22.3490 H   0  0  0  0  0  0
  -27.9893  -19.4357   22.2606 H   0  0  0  0  0  0
  -29.2865  -16.0402   22.9605 H   0  0  0  0  0  0
  -30.8939  -15.4516   22.9505 H   0  0  0  0  0  0
  -29.6602  -24.2929   19.8390 H   0  0  0  0  0  0
  -30.2907  -25.0915   21.2661 H   0  0  0  0  0  0
  -28.2604  -22.7892   21.2648 H   0  0  0  0  0  0
  -28.8450  -23.5728   22.7068 H   0  0  0  0  0  0
  -27.9565  -25.7618   21.9105 H   0  0  0  0  0  0
  -27.3490  -24.9234   20.4999 H   0  0  0  0  0  0
  -31.1034  -22.7196   22.3518 H   0  0  0  0  0  0
  -30.6589  -22.0678   20.7665 H   0  0  0  0  0  0
  -34.7380  -18.1687   21.7927 H   0  0  0  0  0  0
  -34.6238  -19.8692   21.7823 H   0  0  0  0  0  0
  1 25  1  0  0  0
  1 30  2  0  0  0
  1 86  1  0  0  0
  2  3  1  0  0  0
  2 25  1  0  0  0
  2 88  1  0  0  0
  2 89  1  0  0  0
  3  4  1  0  0  0
  3 90  1  0  0  0
  3 91  1  0  0  0
  4  5  1  0  0  0
  4 92  1  0  0  0
  4 93  1  0  0  0
  5  6  1  0  0  0
  5 26  1  0  0  0
  5 94  1  0  0  0
  6 25  1  0  0  0
  6 95  1  0  0  0
  6 96  1  0  0  0
  7  8  2  0  0  0
  7 26  1  0  0  0
  7 29  1  0  0  0
  8  9  1  0  0  0
  8 22  1  0  0  0
  9 10  1  0  0  0
  9 27  2  0  0  0
 10 11  2  0  0  0
 10 15  1  0  0  0
 11 12  1  0  0  0
 11 97  1  0  0  0
 12 13  2  0  0  0
 12 98  1  0  0  0
 13 14  1  0  0  0
 13 31  1  0  0  0
 14 15  2  0  0  0
 14 99  1  0  0  0
 15100  1  0  0  0
 16 17  2  0  0  0
 16 21  1  0  0  0
 16 31  1  0  0  0
 17 18  1  0  0  0
 17101  1  0  0  0
 18 19  2  0  0  0
 18102  1  0  0  0
 19 20  1  0  0  0
 19 24  1  0  0  0
 20 21  2  0  0  0
 20103  1  0  0  0
 21 23  1  0  0  0
 22 28  1  0  0  0
 22 32  2  0  0  0
 26 27  1  0  0  0
 28104  1  0  0  0
 28105  1  0  0  0
 29106  1  0  0  0
 29107  1  0  0  0
 33 34  1  0  0  0
 33 66  1  0  0  0
 33 70  2  0  0  0
 34 36  1  0  0  0
 34 59  1  0  0  0
 34108  1  0  0  0
 35 44  2  0  0  0
 35 45  1  0  0  0
 35 68  1  0  0  0
 36 56  1  0  0  0
 36109  1  0  0  0
 37 39  1  0  0  0
 37 47  1  0  0  0
 37 66  1  0  0  0
 37110  1  0  0  0
 38 43  2  0  0  0
 38 46  1  0  0  0
 38 47  1  0  0  0
 39 64  1  0  0  0
 39 67  2  0  0  0
 40 52  1  0  0  0
 40 53  2  0  0  0
 40 58  1  0  0  0
 41111  1  0  0  0
 41112  1  0  0  0
 41113  1  0  0  0
 41 48  1  0  0  0
 42 43  1  0  0  0
 42 66  1  0  0  0
 42114  1  0  0  0
 42115  1  0  0  0
 43 44  1  0  0  0
 44116  1  0  0  0
 45 46  2  0  0  0
 45117  1  0  0  0
 46118  1  0  0  0
 47119  1  0  0  0
 47120  1  0  0  0
 48 56  1  0  0  0
 48 65  1  0  0  0
 48121  1  0  0  0
 49 50  1  0  0  0
 49 53  1  0  0  0
 49 64  1  0  0  0
 49122  1  0  0  0
 50 51  1  0  0  0
 50123  1  0  0  0
 50124  1  0  0  0
 51 52  1  0  0  0
 51125  1  0  0  0
 51126  1  0  0  0
 52127  1  0  0  0
 52128  1  0  0  0
 53 54  1  0  0  0
 54 55  2  0  0  0
 54129  1  0  0  0
 55 57  1  0  0  0
 55130  1  0  0  0
 56 69  2  0  0  0
 57 58  2  0  0  0
 57131  1  0  0  0
 58132  1  0  0  0
 59 60  1  0  0  0
 59 61  1  0  0  0
 59 62  1  0  0  0
 60133  1  0  0  0
 60134  1  0  0  0
 60135  1  0  0  0
 61136  1  0  0  0
 61137  1  0  0  0
 61138  1  0  0  0
 62139  1  0  0  0
 62140  1  0  0  0
 62141  1  0  0  0
 63 65  1  0  0  0
 63142  1  0  0  0
 63143  1  0  0  0
 63144  1  0  0  0
 64145  1  0  0  0
 65146  1  0  0  0
 68 83  1  0  0  0
 71 73  2  0  0  0
 71 75  1  0  0  0
 71147  1  0  0  0
 72 75  2  0  0  0
 72 76  1  0  0  0
 72148  1  0  0  0
 73 74  1  0  0  0
 73 80  1  0  0  0
 74 76  2  0  0  0
 74 79  1  0  0  0
 75 85  1  0  0  0
 76 87  1  0  0  0
 77 79  1  0  0  0
 77149  1  0  0  0
 77150  1  0  0  0
 77151  1  0  0  0
 78 86  1  0  0  0
 78152  1  0  0  0
 78153  1  0  0  0
 78154  1  0  0  0
 79155  1  0  0  0
 79156  1  0  0  0
 80 86  1  0  0  0
 80157  1  0  0  0
 80158  1  0  0  0
 81 82  1  0  0  0
 81 83  1  0  0  0
 81159  1  0  0  0
 81160  1  0  0  0
 82 84  1  0  0  0
 82161  1  0  0  0
 82162  1  0  0  0
 83163  1  0  0  0
 83164  1  0  0  0
 84 87  1  0  0  0
 84165  1  0  0  0
 84166  1  0  0  0
 85167  1  0  0  0
 85168  1  0  0  0
M  ISO  4   1 100  68 101  83 101  86 100
M  END
> <chiral flag>
0

> <version>
0

> <s_m_source_file>
/data/baiqing/PycharmProjects/Reinvent-master-3.2/result/LINK_invent/BTK/process_docking_weight1_custom_product_contain_oxygen_bond_distance_aromatic_linkinvent_7_9_3/rearranged_h_0108.sdf

> <i_m_source_file_index>
73

> <r_mmod_Potential_Energy-OPLS-2005>
82.8565521240234

> <r_mmod_Stretch_Energy-OPLS-2005>
38.6283073425293

> <r_mmod_Bend_Energy-OPLS-2005>
98.6595001220703

> <r_mmod_Torsional_Energy-OPLS-2005>
307.325775146484

> <r_mmod_Improper_Torsional_Energy-OPLS-2005>
9.49179935455322

> <r_mmod_Van_der_Waal_Energy-OPLS-2005>
154.282318115234

> <r_mmod_Electrostatic_Energy-OPLS-2005>
-334.080017089844

> <r_mmod_Solvation_Energy-OPLS-2005>
-203.345520019531

> <b_mmod_Minimization_Converged-OPLS-2005>
0

> <r_mmod_RMS_Derivative-OPLS-2005>
2.42870330810547

$$$$
74
                    3D
 Structure written by MMmdl.
162171  0  0  1  0            999 V2000
  -30.5724  -14.8177   20.4460 C   0  0  0  0  0  0
  -30.4361  -12.5059   19.4614 C   0  0  0  0  0  0
  -29.5056  -12.5128   18.2281 C   0  0  0  0  0  0
  -28.0353  -12.3216   18.6508 C   0  0  0  0  0  0
  -27.6331  -13.2318   19.8411 C   0  0  2  0  0  0
  -28.6819  -13.1972   20.9715 C   0  0  0  0  0  0
  -25.2496  -13.8185   20.5740 C   0  0  0  0  0  0
  -24.1787  -13.0428   20.9227 C   0  0  0  0  0  0
  -24.6372  -11.6904   20.8730 C   0  0  0  0  0  0
  -23.9047  -10.4287   21.0381 C   0  0  0  0  0  0
  -24.3597   -9.4217   21.9167 C   0  0  0  0  0  0
  -23.6282   -8.2250   22.0748 C   0  0  0  0  0  0
  -22.4268   -8.0275   21.3540 C   0  0  0  0  0  0
  -21.9894   -9.0241   20.4639 C   0  0  0  0  0  0
  -22.7213  -10.2124   20.3041 C   0  0  0  0  0  0
  -21.6867   -6.0731   22.5273 C   0  0  0  0  0  0
  -21.4027   -6.5636   23.8206 C   0  0  0  0  0  0
  -21.3660   -5.6785   24.9169 C   0  0  0  0  0  0
  -21.6039   -4.3046   24.7217 C   0  0  0  0  0  0
  -21.8823   -3.8140   23.4337 C   0  0  0  0  0  0
  -21.9199   -4.6959   22.3397 C   0  0  0  0  0  0
  -22.7811  -13.5218   21.1884 C   0  0  0  0  0  0
  -22.1667   -4.2140   21.0977 F   0  0  0  0  0  0
  -21.5627   -3.4534   25.7732 F   0  0  0  0  0  0
  -29.9667  -13.5781   20.3720 N   0  0  0  0  0  0
  -26.2900  -12.9382   20.3265 N   0  0  0  0  0  0
  -25.9302  -11.6520   20.5727 N   0  0  0  0  0  0
  -22.0461  -12.8197   22.0425 N   0  0  0  0  0  0
  -25.4172  -15.1916   20.4229 N   0  0  0  0  0  0
  -31.7837  -14.9038   20.2145 O   0  0  0  0  0  0
  -21.6647   -6.8863   21.4230 O   0  0  0  0  0  0
  -22.3501  -14.5533   20.6741 O   0  0  0  0  0  0
  -24.6375  -31.8512   23.1948 C   0  0  0  0  0  0
  -25.9184  -32.4726   23.8306 C   0  0  1  0  0  0
  -27.2194  -27.2117   20.1182 C   0  0  0  0  0  0
  -25.5961  -33.8524   24.2230 N   0  0  0  0  0  0
  -23.4367  -30.4738   21.5391 C   0  0  2  0  0  0
  -24.8832  -28.9174   20.1033 C   0  0  0  0  0  0
  -22.7520  -29.4587   22.4876 C   0  0  0  0  0  0
  -18.0288  -28.1390   22.8494 C   0  0  0  0  0  0
  -24.1488  -36.7265   23.2642 C   0  0  0  0  0  0
  -25.9875  -30.7457   21.3842 C   0  0  0  0  0  0
  -26.0590  -29.3652   20.7198 C   0  0  0  0  0  0
  -27.2259  -28.5247   20.7195 C   0  0  0  0  0  0
  -26.0121  -26.8427   19.4806 C   0  0  0  0  0  0
  -24.8689  -27.6654   19.4729 C   0  0  0  0  0  0
  -23.6574  -29.8117   20.1538 C   0  0  0  0  0  0
  -25.4118  -36.3044   24.0322 C   0  0  1  0  0  0
  -20.5904  -28.3697   23.1234 C   0  0  2  0  0  0
  -20.6770  -26.9401   22.5393 C   0  0  0  0  0  0
  -19.5726  -26.6344   21.5215 C   0  0  0  0  0  0
  -18.1911  -26.7925   22.1639 C   0  0  0  0  0  0
  -19.1554  -28.8856   23.2855 C   0  0  0  0  0  0
  -18.9487  -30.1450   23.8877 C   0  0  0  0  0  0
  -17.6498  -30.6599   24.0534 C   0  0  0  0  0  0
  -25.9066  -34.9423   23.5078 C   0  0  0  0  0  0
  -16.5371  -29.9109   23.6334 C   0  0  0  0  0  0
  -16.7275  -28.6516   23.0372 C   0  0  0  0  0  0
  -26.4522  -31.6566   25.0719 C   0  0  0  0  0  0
  -25.3713  -31.3743   26.1421 C   0  0  0  0  0  0
  -27.0396  -30.2971   24.6267 C   0  0  0  0  0  0
  -27.6050  -32.4331   25.7507 C   0  0  0  0  0  0
  -27.5571  -37.1786   24.8466 C   0  0  0  0  0  0
  -21.4220  -29.3056   22.3615 N   0  0  0  0  0  0
  -26.4283  -37.3752   23.9409 N   0  0  0  0  0  0
  -24.7062  -31.0434   22.0944 N   0  0  0  0  0  0
  -23.4189  -28.8127   23.3000 O   0  0  0  0  0  0
  -28.2703  -26.2489   20.2218 O   0  0  0  0  0  0
  -26.5630  -34.8907   22.4649 O   0  0  0  0  0  0
  -23.5512  -32.1365   23.7203 O   0  0  0  0  0  0
  -30.5866  -20.1465   21.5524 C   0  0  0  0  0  0
  -31.0637  -17.7314   21.6580 C   0  0  0  0  0  0
  -29.2855  -18.5829   20.2150 C   0  0  0  0  0  0
  -29.5640  -19.9916   20.5866 C   0  0  0  0  0  0
  -31.3153  -19.0567   22.0754 C   0  0  0  0  0  0
  -30.0388  -17.4218   20.7376 C   0  0  0  0  0  0
  -28.5893  -23.7063   19.5169 C   0  0  0  0  0  0
  -28.2981  -25.0798   19.3916 C   0  0  0  0  0  0
  -28.5462  -22.8268   18.2775 C   0  0  0  0  0  0
  -28.4839  -21.3384   18.7042 C   0  0  0  0  0  0
  -28.9834  -22.6605   20.6368 C   0  0  1  0  0  0
  -28.1440  -18.2916   19.2526 C   0  0  0  0  0  0
  -28.0918  -22.7990   21.8728 C   0  0  0  0  0  0
  -28.9347  -21.2340   20.0877 N   0  0  0  0  0  0
  -32.3003  -19.2922   23.0364 N   0  0  0  0  0  0
  -29.7586  -15.9616   20.4825 N   0  0  0  0  0  0
  -31.4708  -12.6583   19.1499 H   0  0  0  0  0  0
  -30.4095  -11.5363   19.9619 H   0  0  0  0  0  0
  -29.7960  -11.7284   17.5289 H   0  0  0  0  0  0
  -29.6092  -13.4586   17.6924 H   0  0  0  0  0  0
  -27.9106  -11.2746   18.9300 H   0  0  0  0  0  0
  -27.3703  -12.4903   17.8034 H   0  0  0  0  0  0
  -27.6132  -14.2469   19.4430 H   0  0  0  0  0  0
  -28.7395  -12.2044   21.4201 H   0  0  0  0  0  0
  -28.4106  -13.8858   21.7735 H   0  0  0  0  0  0
  -25.2743   -9.5714   22.4743 H   0  0  0  0  0  0
  -24.0007   -7.4647   22.7470 H   0  0  0  0  0  0
  -21.0829   -8.8738   19.8944 H   0  0  0  0  0  0
  -22.3649  -10.9658   19.6154 H   0  0  0  0  0  0
  -21.2029   -7.6145   23.9705 H   0  0  0  0  0  0
  -21.1481   -6.0519   25.9068 H   0  0  0  0  0  0
  -22.0599   -2.7603   23.2842 H   0  0  0  0  0  0
  -22.4103  -11.9861   22.4797 H   0  0  0  0  0  0
  -21.1071  -13.1192   22.2633 H   0  0  0  0  0  0
  -24.6491  -15.8406   20.5583 H   0  0  0  0  0  0
  -26.2574  -15.6398   20.0865 H   0  0  0  0  0  0
  -26.7249  -32.5344   23.1040 H   0  0  0  0  0  0
  -25.0108  -33.9648   25.0376 H   0  0  0  0  0  0
  -22.7351  -31.2982   21.3924 H   0  0  0  0  0  0
  -23.3752  -35.9595   23.3300 H   0  0  0  0  0  0
  -24.3573  -36.8895   22.2056 H   0  0  0  0  0  0
  -23.7248  -37.6463   23.6680 H   0  0  0  0  0  0
  -26.1386  -31.5065   20.6180 H   0  0  0  0  0  0
  -26.8605  -30.7886   22.0229 H   0  0  0  0  0  0
  -28.1191  -28.8580   21.2278 H   0  0  0  0  0  0
  -25.9114  -25.8723   19.0168 H   0  0  0  0  0  0
  -23.9664  -27.3132   18.9926 H   0  0  0  0  0  0
  -23.7876  -30.5925   19.4029 H   0  0  0  0  0  0
  -22.7726  -29.2525   19.8433 H   0  0  0  0  0  0
  -25.1305  -36.1868   25.0811 H   0  0  0  0  0  0
  -21.0026  -28.3270   24.1347 H   0  0  0  0  0  0
  -20.5685  -26.2307   23.3612 H   0  0  0  0  0  0
  -21.6606  -26.7415   22.1124 H   0  0  0  0  0  0
  -19.6644  -27.3152   20.6743 H   0  0  0  0  0  0
  -19.6863  -25.6233   21.1277 H   0  0  0  0  0  0
  -17.4159  -26.6719   21.4048 H   0  0  0  0  0  0
  -18.0305  -26.0077   22.9044 H   0  0  0  0  0  0
  -19.7974  -30.7258   24.2241 H   0  0  0  0  0  0
  -17.5063  -31.6293   24.5113 H   0  0  0  0  0  0
  -15.5374  -30.3032   23.7665 H   0  0  0  0  0  0
  -15.8657  -28.0841   22.7117 H   0  0  0  0  0  0
  -24.5891  -30.7099   25.7741 H   0  0  0  0  0  0
  -24.8911  -32.2925   26.4808 H   0  0  0  0  0  0
  -25.8006  -30.8934   27.0221 H   0  0  0  0  0  0
  -26.3008  -29.6684   24.1288 H   0  0  0  0  0  0
  -27.4049  -29.7274   25.4823 H   0  0  0  0  0  0
  -27.8897  -30.4233   23.9562 H   0  0  0  0  0  0
  -27.2640  -33.3644   26.2053 H   0  0  0  0  0  0
  -28.3891  -32.6878   25.0360 H   0  0  0  0  0  0
  -28.0701  -31.8481   26.5456 H   0  0  0  0  0  0
  -28.2580  -38.0084   24.7506 H   0  0  0  0  0  0
  -28.1071  -36.2614   24.6306 H   0  0  0  0  0  0
  -27.2286  -37.1453   25.8866 H   0  0  0  0  0  0
  -20.9440  -29.8732   21.6761 H   0  0  0  0  0  0
  -26.0149  -38.2818   24.1414 H   0  0  0  0  0  0
  -30.8354  -21.1370   21.9020 H   0  0  0  0  0  0
  -31.6424  -16.9305   22.0950 H   0  0  0  0  0  0
  -28.0749  -25.4066   18.3845 H   0  0  0  0  0  0
  -29.4688  -22.9960   17.7196 H   0  0  0  0  0  0
  -27.7181  -23.0964   17.6202 H   0  0  0  0  0  0
  -29.0897  -20.7221   18.0374 H   0  0  0  0  0  0
  -27.4531  -20.9897   18.6360 H   0  0  0  0  0  0
  -30.0128  -22.8866   20.9171 H   0  0  0  0  0  0
  -28.4650  -18.4637   18.2252 H   0  0  0  0  0  0
  -27.2834  -18.9252   19.4685 H   0  0  0  0  0  0
  -27.7986  -17.2618   19.3222 H   0  0  0  0  0  0
  -28.3997  -22.1112   22.6617 H   0  0  0  0  0  0
  -27.0498  -22.5867   21.6288 H   0  0  0  0  0  0
  -28.1360  -23.8108   22.2754 H   0  0  0  0  0  0
  -32.2817  -20.1799   23.5306 H   0  0  0  0  0  0
  -32.5734  -18.5245   23.6431 H   0  0  0  0  0  0
  -28.7817  -15.7389   20.3750 H   0  0  0  0  0  0
  1 25  1  0  0  0
  1 30  2  0  0  0
  1 86  1  0  0  0
  2  3  1  0  0  0
  2 25  1  0  0  0
  2 87  1  0  0  0
  2 88  1  0  0  0
  3  4  1  0  0  0
  3 89  1  0  0  0
  3 90  1  0  0  0
  4  5  1  0  0  0
  4 91  1  0  0  0
  4 92  1  0  0  0
  5  6  1  0  0  0
  5 26  1  0  0  0
  5 93  1  0  0  0
  6 25  1  0  0  0
  6 94  1  0  0  0
  6 95  1  0  0  0
  7  8  2  0  0  0
  7 26  1  0  0  0
  7 29  1  0  0  0
  8  9  1  0  0  0
  8 22  1  0  0  0
  9 10  1  0  0  0
  9 27  2  0  0  0
 10 11  2  0  0  0
 10 15  1  0  0  0
 11 12  1  0  0  0
 11 96  1  0  0  0
 12 13  2  0  0  0
 12 97  1  0  0  0
 13 14  1  0  0  0
 13 31  1  0  0  0
 14 15  2  0  0  0
 14 98  1  0  0  0
 15 99  1  0  0  0
 16 17  2  0  0  0
 16 21  1  0  0  0
 16 31  1  0  0  0
 17 18  1  0  0  0
 17100  1  0  0  0
 18 19  2  0  0  0
 18101  1  0  0  0
 19 20  1  0  0  0
 19 24  1  0  0  0
 20 21  2  0  0  0
 20102  1  0  0  0
 21 23  1  0  0  0
 22 28  1  0  0  0
 22 32  2  0  0  0
 26 27  1  0  0  0
 28103  1  0  0  0
 28104  1  0  0  0
 29105  1  0  0  0
 29106  1  0  0  0
 33 34  1  0  0  0
 33 66  1  0  0  0
 33 70  2  0  0  0
 34 36  1  0  0  0
 34 59  1  0  0  0
 34107  1  0  0  0
 35 44  2  0  0  0
 35 45  1  0  0  0
 35 68  1  0  0  0
 36 56  1  0  0  0
 36108  1  0  0  0
 37 39  1  0  0  0
 37 47  1  0  0  0
 37 66  1  0  0  0
 37109  1  0  0  0
 38 43  2  0  0  0
 38 46  1  0  0  0
 38 47  1  0  0  0
 39 64  1  0  0  0
 39 67  2  0  0  0
 40 52  1  0  0  0
 40 53  2  0  0  0
 40 58  1  0  0  0
 41110  1  0  0  0
 41111  1  0  0  0
 41112  1  0  0  0
 41 48  1  0  0  0
 42 43  1  0  0  0
 42 66  1  0  0  0
 42113  1  0  0  0
 42114  1  0  0  0
 43 44  1  0  0  0
 44115  1  0  0  0
 45 46  2  0  0  0
 45116  1  0  0  0
 46117  1  0  0  0
 47118  1  0  0  0
 47119  1  0  0  0
 48 56  1  0  0  0
 48 65  1  0  0  0
 48120  1  0  0  0
 49 50  1  0  0  0
 49 53  1  0  0  0
 49 64  1  0  0  0
 49121  1  0  0  0
 50 51  1  0  0  0
 50122  1  0  0  0
 50123  1  0  0  0
 51 52  1  0  0  0
 51124  1  0  0  0
 51125  1  0  0  0
 52126  1  0  0  0
 52127  1  0  0  0
 53 54  1  0  0  0
 54 55  2  0  0  0
 54128  1  0  0  0
 55 57  1  0  0  0
 55129  1  0  0  0
 56 69  2  0  0  0
 57 58  2  0  0  0
 57130  1  0  0  0
 58131  1  0  0  0
 59 60  1  0  0  0
 59 61  1  0  0  0
 59 62  1  0  0  0
 60132  1  0  0  0
 60133  1  0  0  0
 60134  1  0  0  0
 61135  1  0  0  0
 61136  1  0  0  0
 61137  1  0  0  0
 62138  1  0  0  0
 62139  1  0  0  0
 62140  1  0  0  0
 63 65  1  0  0  0
 63141  1  0  0  0
 63142  1  0  0  0
 63143  1  0  0  0
 64144  1  0  0  0
 65145  1  0  0  0
 68 78  1  0  0  0
 71 74  2  0  0  0
 71 75  1  0  0  0
 71146  1  0  0  0
 72 75  2  0  0  0
 72 76  1  0  0  0
 72147  1  0  0  0
 73 74  1  0  0  0
 73 76  2  0  0  0
 73 82  1  0  0  0
 74 84  1  0  0  0
 75 85  1  0  0  0
 76 86  1  0  0  0
 77 78  2  0  0  0
 77 79  1  0  0  0
 77 81  1  0  0  0
 78148  1  0  0  0
 79 80  1  0  0  0
 79149  1  0  0  0
 79150  1  0  0  0
 80 84  1  0  0  0
 80151  1  0  0  0
 80152  1  0  0  0
 81 83  1  0  0  0
 81 84  1  0  0  0
 81153  1  0  0  0
 82154  1  0  0  0
 82155  1  0  0  0
 82156  1  0  0  0
 83157  1  0  0  0
 83158  1  0  0  0
 83159  1  0  0  0
 85160  1  0  0  0
 85161  1  0  0  0
 86162  1  0  0  0
M  ISO  4   1 100  68 101  78 101  86 100
M  END
> <chiral flag>
0

> <version>
0

> <s_m_source_file>
/data/baiqing/PycharmProjects/Reinvent-master-3.2/result/LINK_invent/BTK/process_docking_weight1_custom_product_contain_oxygen_bond_distance_aromatic_linkinvent_7_9_3/rearranged_h_0108.sdf

> <i_m_source_file_index>
74

> <r_mmod_Potential_Energy-OPLS-2005>
388.114471435547

> <r_mmod_Stretch_Energy-OPLS-2005>
157.971389770508

> <r_mmod_Bend_Energy-OPLS-2005>
260.065277099609

> <r_mmod_Torsional_Energy-OPLS-2005>
256.742034912109

> <r_mmod_Improper_Torsional_Energy-OPLS-2005>
12.1729717254639

> <r_mmod_Van_der_Waal_Energy-OPLS-2005>
133.200103759766

> <r_mmod_Electrostatic_Energy-OPLS-2005>
-330.102478027344

> <r_mmod_Solvation_Energy-OPLS-2005>
-228.90087890625

> <b_mmod_Minimization_Converged-OPLS-2005>
0

> <r_mmod_RMS_Derivative-OPLS-2005>
2.3997585773468

$$$$
75
                    3D
 Structure written by MMmdl.
162171  0  0  1  0            999 V2000
  -30.6630  -14.7262   20.4488 C   0  0  0  0  0  0
  -30.4171  -12.4401   19.4791 C   0  0  0  0  0  0
  -29.5096  -12.5070   18.2348 C   0  0  0  0  0  0
  -28.0330  -12.3458   18.6414 C   0  0  0  0  0  0
  -27.6405  -13.2419   19.8489 C   0  0  2  0  0  0
  -28.6859  -13.1945   20.9851 C   0  0  0  0  0  0
  -25.2492  -13.8218   20.5697 C   0  0  0  0  0  0
  -24.1797  -13.0455   20.9213 C   0  0  0  0  0  0
  -24.6393  -11.6928   20.8739 C   0  0  0  0  0  0
  -23.9070  -10.4306   21.0389 C   0  0  0  0  0  0
  -24.3634   -9.4216   21.9163 C   0  0  0  0  0  0
  -23.6310   -8.2253   22.0743 C   0  0  0  0  0  0
  -22.4289   -8.0281   21.3540 C   0  0  0  0  0  0
  -21.9913   -9.0254   20.4638 C   0  0  0  0  0  0
  -22.7240  -10.2132   20.3039 C   0  0  0  0  0  0
  -21.6869   -6.0723   22.5279 C   0  0  0  0  0  0
  -21.4020   -6.5637   23.8198 C   0  0  0  0  0  0
  -21.3664   -5.6786   24.9169 C   0  0  0  0  0  0
  -21.6049   -4.3055   24.7218 C   0  0  0  0  0  0
  -21.8821   -3.8135   23.4346 C   0  0  0  0  0  0
  -21.9198   -4.6959   22.3394 C   0  0  0  0  0  0
  -22.7815  -13.5214   21.1874 C   0  0  0  0  0  0
  -22.1659   -4.2139   21.0973 F   0  0  0  0  0  0
  -21.5640   -3.4528   25.7733 F   0  0  0  0  0  0
  -29.9873  -13.5260   20.3955 N   0  0  0  0  0  0
  -26.2940  -12.9454   20.3287 N   0  0  0  0  0  0
  -25.9331  -11.6580   20.5736 N   0  0  0  0  0  0
  -22.0454  -12.8223   22.0432 N   0  0  0  0  0  0
  -25.4154  -15.1954   20.4121 N   0  0  0  0  0  0
  -31.8560  -14.7229   20.1472 O   0  0  0  0  0  0
  -21.6660   -6.8877   21.4233 O   0  0  0  0  0  0
  -22.3493  -14.5521   20.6709 O   0  0  0  0  0  0
  -24.6381  -31.8537   23.1961 C   0  0  0  0  0  0
  -25.9216  -32.4719   23.8317 C   0  0  1  0  0  0
  -27.2400  -27.2674   20.1424 C   0  0  0  0  0  0
  -25.5983  -33.8512   24.2269 N   0  0  0  0  0  0
  -23.4312  -30.4839   21.5317 C   0  0  2  0  0  0
  -24.8839  -28.9189   20.1098 C   0  0  0  0  0  0
  -22.7506  -29.4679   22.4811 C   0  0  0  0  0  0
  -18.0308  -28.1364   22.8486 C   0  0  0  0  0  0
  -24.1479  -36.7290   23.2652 C   0  0  0  0  0  0
  -25.9795  -30.7678   21.3776 C   0  0  0  0  0  0
  -26.0526  -29.3901   20.7228 C   0  0  0  0  0  0
  -27.2313  -28.5782   20.7281 C   0  0  0  0  0  0
  -26.0529  -26.8626   19.4948 C   0  0  0  0  0  0
  -24.8903  -27.6607   19.4838 C   0  0  0  0  0  0
  -23.6565  -29.8135   20.1499 C   0  0  0  0  0  0
  -25.4098  -36.3046   24.0338 C   0  0  1  0  0  0
  -20.5921  -28.3739   23.1200 C   0  0  2  0  0  0
  -20.6779  -26.9425   22.5401 C   0  0  0  0  0  0
  -19.5744  -26.6371   21.5214 C   0  0  0  0  0  0
  -18.1932  -26.7904   22.1626 C   0  0  0  0  0  0
  -19.1564  -28.8844   23.2862 C   0  0  0  0  0  0
  -18.9499  -30.1429   23.8898 C   0  0  0  0  0  0
  -17.6502  -30.6560   24.0555 C   0  0  0  0  0  0
  -25.9057  -34.9415   23.5105 C   0  0  0  0  0  0
  -16.5390  -29.9074   23.6300 C   0  0  0  0  0  0
  -16.7302  -28.6487   23.0340 C   0  0  0  0  0  0
  -26.4542  -31.6526   25.0718 C   0  0  0  0  0  0
  -25.3779  -31.3733   26.1469 C   0  0  0  0  0  0
  -27.0442  -30.2931   24.6271 C   0  0  0  0  0  0
  -27.6029  -32.4313   25.7529 C   0  0  0  0  0  0
  -27.5558  -37.1807   24.8460 C   0  0  0  0  0  0
  -21.4205  -29.3114   22.3563 N   0  0  0  0  0  0
  -26.4258  -37.3766   23.9416 N   0  0  0  0  0  0
  -24.7005  -31.0553   22.0895 N   0  0  0  0  0  0
  -23.4211  -28.8233   23.2917 O   0  0  0  0  0  0
  -28.3518  -26.3939   20.1756 O   0  0  0  0  0  0
  -26.5616  -34.8903   22.4670 O   0  0  0  0  0  0
  -23.5542  -32.1350   23.7280 O   0  0  0  0  0  0
  -32.1712  -18.9499   19.8537 C   0  0  0  0  0  0
  -31.7428  -17.6484   20.1513 C   0  0  0  0  0  0
  -29.5102  -18.5120   20.4849 C   0  0  0  0  0  0
  -31.2960  -20.0505   19.8349 C   0  0  0  0  0  0
  -29.9355  -19.8871   20.2142 C   0  0  0  0  0  0
  -30.3891  -17.3447   20.4302 C   0  0  0  0  0  0
  -30.0606  -22.5281   22.0145 C   0  0  0  0  0  0
  -31.4110  -22.0058   18.3004 C   0  0  0  0  0  0
  -31.8848  -21.3040   19.3428 C   0  0  0  0  0  0
  -30.8298  -23.8215   22.2026 C   0  0  0  0  0  0
  -30.6344  -24.5484   20.8733 C   0  0  0  0  0  0
  -29.4065  -23.8963   20.2062 C   0  0  2  0  0  0
  -28.9566  -21.1582   20.2586 C   0  0  0  0  0  0
  -28.1536  -24.9090   20.3616 C   0  0  0  0  0  0
  -29.3842  -22.5026   20.8534 N   0  0  0  0  0  0
  -29.9627  -15.9216   20.6304 N   0  0  0  0  0  0
  -30.1374  -21.6082   22.8335 O   0  0  0  0  0  0
  -31.4648  -12.5238   19.1810 H   0  0  0  0  0  0
  -30.3241  -11.4678   19.9663 H   0  0  0  0  0  0
  -29.7854  -11.7305   17.5214 H   0  0  0  0  0  0
  -29.6550  -13.4586   17.7210 H   0  0  0  0  0  0
  -27.8763  -11.2956   18.8918 H   0  0  0  0  0  0
  -27.3838  -12.5539   17.7903 H   0  0  0  0  0  0
  -27.6289  -14.2632   19.4695 H   0  0  0  0  0  0
  -28.7145  -12.2074   21.4489 H   0  0  0  0  0  0
  -28.4304  -13.9014   21.7759 H   0  0  0  0  0  0
  -25.2767   -9.5718   22.4744 H   0  0  0  0  0  0
  -24.0022   -7.4654   22.7482 H   0  0  0  0  0  0
  -21.0833   -8.8769   19.8965 H   0  0  0  0  0  0
  -22.3670  -10.9675   19.6167 H   0  0  0  0  0  0
  -21.1998   -7.6134   23.9707 H   0  0  0  0  0  0
  -21.1496   -6.0512   25.9075 H   0  0  0  0  0  0
  -22.0595   -2.7598   23.2844 H   0  0  0  0  0  0
  -22.4054  -11.9895   22.4864 H   0  0  0  0  0  0
  -21.1055  -13.1249   22.2594 H   0  0  0  0  0  0
  -24.6483  -15.8479   20.5287 H   0  0  0  0  0  0
  -26.2604  -15.6391   20.0782 H   0  0  0  0  0  0
  -26.7300  -32.5394   23.1075 H   0  0  0  0  0  0
  -25.0111  -33.9586   25.0408 H   0  0  0  0  0  0
  -22.7284  -31.3071   21.3819 H   0  0  0  0  0  0
  -23.3713  -35.9657   23.3319 H   0  0  0  0  0  0
  -24.3584  -36.8906   22.2069 H   0  0  0  0  0  0
  -23.7249  -37.6500   23.6677 H   0  0  0  0  0  0
  -26.1355  -31.5253   20.6081 H   0  0  0  0  0  0
  -26.8502  -30.8058   22.0217 H   0  0  0  0  0  0
  -28.1214  -28.9378   21.2251 H   0  0  0  0  0  0
  -26.0101  -25.9121   18.9858 H   0  0  0  0  0  0
  -24.0060  -27.2896   18.9846 H   0  0  0  0  0  0
  -23.7906  -30.5917   19.3974 H   0  0  0  0  0  0
  -22.7721  -29.2584   19.8364 H   0  0  0  0  0  0
  -25.1281  -36.1859   25.0826 H   0  0  0  0  0  0
  -21.0072  -28.3380   24.1299 H   0  0  0  0  0  0
  -20.5615  -26.2402   23.3668 H   0  0  0  0  0  0
  -21.6651  -26.7375   22.1230 H   0  0  0  0  0  0
  -19.6902  -25.6294   21.1220 H   0  0  0  0  0  0
  -19.6627  -27.3191   20.6750 H   0  0  0  0  0  0
  -17.4201  -26.6685   21.4022 H   0  0  0  0  0  0
  -18.0301  -26.0015   22.8988 H   0  0  0  0  0  0
  -19.7994  -30.7217   24.2279 H   0  0  0  0  0  0
  -17.5077  -31.6232   24.5177 H   0  0  0  0  0  0
  -15.5391  -30.2984   23.7591 H   0  0  0  0  0  0
  -15.8720  -28.0790   22.7050 H   0  0  0  0  0  0
  -24.5844  -30.7177   25.7876 H   0  0  0  0  0  0
  -24.9128  -32.2951   26.4974 H   0  0  0  0  0  0
  -25.8114  -30.8854   27.0211 H   0  0  0  0  0  0
  -26.3102  -29.6596   24.1278 H   0  0  0  0  0  0
  -27.4081  -29.7239   25.4843 H   0  0  0  0  0  0
  -27.8976  -30.4193   23.9599 H   0  0  0  0  0  0
  -27.2523  -33.3566   26.2123 H   0  0  0  0  0  0
  -28.3850  -32.6953   25.0398 H   0  0  0  0  0  0
  -28.0690  -31.8452   26.5464 H   0  0  0  0  0  0
  -28.2574  -38.0103   24.7475 H   0  0  0  0  0  0
  -28.1025  -36.2619   24.6284 H   0  0  0  0  0  0
  -27.2292  -37.1484   25.8868 H   0  0  0  0  0  0
  -20.9365  -29.8941   21.6870 H   0  0  0  0  0  0
  -26.0113  -38.2841   24.1376 H   0  0  0  0  0  0
  -33.2083  -19.0920   19.5867 H   0  0  0  0  0  0
  -32.5137  -16.8972   20.1234 H   0  0  0  0  0  0
  -28.4691  -18.3521   20.7217 H   0  0  0  0  0  0
  -31.8914  -22.9205   17.9827 H   0  0  0  0  0  0
  -30.5431  -21.6750   17.7494 H   0  0  0  0  0  0
  -32.7596  -21.6686   19.8646 H   0  0  0  0  0  0
  -31.8865  -23.6302   22.4005 H   0  0  0  0  0  0
  -30.4060  -24.3718   23.0429 H   0  0  0  0  0  0
  -31.5149  -24.4097   20.2442 H   0  0  0  0  0  0
  -30.5267  -25.6224   21.0199 H   0  0  0  0  0  0
  -29.6126  -23.7867   19.1418 H   0  0  0  0  0  0
  -28.0584  -20.8530   20.7972 H   0  0  0  0  0  0
  -28.6195  -21.3486   19.2410 H   0  0  0  0  0  0
  -27.7106  -24.7658   21.3480 H   0  0  0  0  0  0
  -27.4076  -24.5480   19.6582 H   0  0  0  0  0  0
  -28.9845  -15.7904   20.8379 H   0  0  0  0  0  0
  1 25  1  0  0  0
  1 30  2  0  0  0
  1 86  1  0  0  0
  2  3  1  0  0  0
  2 25  1  0  0  0
  2 88  1  0  0  0
  2 89  1  0  0  0
  3  4  1  0  0  0
  3 90  1  0  0  0
  3 91  1  0  0  0
  4  5  1  0  0  0
  4 92  1  0  0  0
  4 93  1  0  0  0
  5  6  1  0  0  0
  5 26  1  0  0  0
  5 94  1  0  0  0
  6 25  1  0  0  0
  6 95  1  0  0  0
  6 96  1  0  0  0
  7  8  2  0  0  0
  7 26  1  0  0  0
  7 29  1  0  0  0
  8  9  1  0  0  0
  8 22  1  0  0  0
  9 10  1  0  0  0
  9 27  2  0  0  0
 10 11  2  0  0  0
 10 15  1  0  0  0
 11 12  1  0  0  0
 11 97  1  0  0  0
 12 13  2  0  0  0
 12 98  1  0  0  0
 13 14  1  0  0  0
 13 31  1  0  0  0
 14 15  2  0  0  0
 14 99  1  0  0  0
 15100  1  0  0  0
 16 17  2  0  0  0
 16 21  1  0  0  0
 16 31  1  0  0  0
 17 18  1  0  0  0
 17101  1  0  0  0
 18 19  2  0  0  0
 18102  1  0  0  0
 19 20  1  0  0  0
 19 24  1  0  0  0
 20 21  2  0  0  0
 20103  1  0  0  0
 21 23  1  0  0  0
 22 28  1  0  0  0
 22 32  2  0  0  0
 26 27  1  0  0  0
 28104  1  0  0  0
 28105  1  0  0  0
 29106  1  0  0  0
 29107  1  0  0  0
 33 34  1  0  0  0
 33 66  1  0  0  0
 33 70  2  0  0  0
 34 36  1  0  0  0
 34 59  1  0  0  0
 34108  1  0  0  0
 35 44  2  0  0  0
 35 45  1  0  0  0
 35 68  1  0  0  0
 36 56  1  0  0  0
 36109  1  0  0  0
 37 39  1  0  0  0
 37 47  1  0  0  0
 37 66  1  0  0  0
 37110  1  0  0  0
 38 43  2  0  0  0
 38 46  1  0  0  0
 38 47  1  0  0  0
 39 64  1  0  0  0
 39 67  2  0  0  0
 40 52  1  0  0  0
 40 53  2  0  0  0
 40 58  1  0  0  0
 41111  1  0  0  0
 41112  1  0  0  0
 41113  1  0  0  0
 41 48  1  0  0  0
 42 43  1  0  0  0
 42 66  1  0  0  0
 42114  1  0  0  0
 42115  1  0  0  0
 43 44  1  0  0  0
 44116  1  0  0  0
 45 46  2  0  0  0
 45117  1  0  0  0
 46118  1  0  0  0
 47119  1  0  0  0
 47120  1  0  0  0
 48 56  1  0  0  0
 48 65  1  0  0  0
 48121  1  0  0  0
 49 50  1  0  0  0
 49 53  1  0  0  0
 49 64  1  0  0  0
 49122  1  0  0  0
 50 51  1  0  0  0
 50123  1  0  0  0
 50124  1  0  0  0
 51 52  1  0  0  0
 51125  1  0  0  0
 51126  1  0  0  0
 52127  1  0  0  0
 52128  1  0  0  0
 53 54  1  0  0  0
 54 55  2  0  0  0
 54129  1  0  0  0
 55 57  1  0  0  0
 55130  1  0  0  0
 56 69  2  0  0  0
 57 58  2  0  0  0
 57131  1  0  0  0
 58132  1  0  0  0
 59 60  1  0  0  0
 59 61  1  0  0  0
 59 62  1  0  0  0
 60133  1  0  0  0
 60134  1  0  0  0
 60135  1  0  0  0
 61136  1  0  0  0
 61137  1  0  0  0
 61138  1  0  0  0
 62139  1  0  0  0
 62140  1  0  0  0
 62141  1  0  0  0
 63 65  1  0  0  0
 63142  1  0  0  0
 63143  1  0  0  0
 63144  1  0  0  0
 64145  1  0  0  0
 65146  1  0  0  0
 68 84  1  0  0  0
 71 72  2  0  0  0
 71 74  1  0  0  0
 71147  1  0  0  0
 72 76  1  0  0  0
 72148  1  0  0  0
 73 75  1  0  0  0
 73 76  2  0  0  0
 73149  1  0  0  0
 74 75  2  0  0  0
 74 79  1  0  0  0
 75 83  1  0  0  0
 76 86  1  0  0  0
 77 80  1  0  0  0
 77 85  1  0  0  0
 77 87  2  0  0  0
 78 79  2  0  0  0
 78150  1  0  0  0
 78151  1  0  0  0
 79152  1  0  0  0
 80 81  1  0  0  0
 80153  1  0  0  0
 80154  1  0  0  0
 81 82  1  0  0  0
 81155  1  0  0  0
 81156  1  0  0  0
 82 84  1  0  0  0
 82 85  1  0  0  0
 82157  1  0  0  0
 83 85  1  0  0  0
 83158  1  0  0  0
 83159  1  0  0  0
 84160  1  0  0  0
 84161  1  0  0  0
 86162  1  0  0  0
M  ISO  4   1 100  68 101  84 101  86 100
M  END
> <chiral flag>
0

> <version>
0

> <s_m_source_file>
/data/baiqing/PycharmProjects/Reinvent-master-3.2/result/LINK_invent/BTK/process_docking_weight1_custom_product_contain_oxygen_bond_distance_aromatic_linkinvent_7_9_3/rearranged_h_0108.sdf

> <i_m_source_file_index>
75

> <r_mmod_Potential_Energy-OPLS-2005>
224.85075378418

> <r_mmod_Stretch_Energy-OPLS-2005>
137.308044433594

> <r_mmod_Bend_Energy-OPLS-2005>
198.177108764648

> <r_mmod_Torsional_Energy-OPLS-2005>
288.199645996094

> <r_mmod_Improper_Torsional_Energy-OPLS-2005>
5.42445802688599

> <r_mmod_Van_der_Waal_Energy-OPLS-2005>
145.000518798828

> <r_mmod_Electrostatic_Energy-OPLS-2005>
-399.280700683594

> <r_mmod_Solvation_Energy-OPLS-2005>
-229.582138061523

> <b_mmod_Minimization_Converged-OPLS-2005>
0

> <r_mmod_RMS_Derivative-OPLS-2005>
3.61925005912781

$$$$
76
                    3D
 Structure written by MMmdl.
155163  0  0  1  0            999 V2000
  -30.6484  -14.5481   20.5620 C   0  0  0  0  0  0
  -30.4344  -12.3547   19.4232 C   0  0  0  0  0  0
  -29.4952  -12.5039   18.2069 C   0  0  0  0  0  0
  -28.0187  -12.3467   18.6255 C   0  0  0  0  0  0
  -27.6549  -13.2039   19.8669 C   0  0  2  0  0  0
  -28.6992  -13.0086   20.9875 C   0  0  0  0  0  0
  -25.2570  -13.8147   20.5679 C   0  0  0  0  0  0
  -24.1822  -13.0428   20.9175 C   0  0  0  0  0  0
  -24.6373  -11.6891   20.8743 C   0  0  0  0  0  0
  -23.9043  -10.4283   21.0408 C   0  0  0  0  0  0
  -24.3598   -9.4199   21.9184 C   0  0  0  0  0  0
  -23.6279   -8.2234   22.0758 C   0  0  0  0  0  0
  -22.4265   -8.0268   21.3542 C   0  0  0  0  0  0
  -21.9892   -9.0242   20.4649 C   0  0  0  0  0  0
  -22.7219  -10.2125   20.3057 C   0  0  0  0  0  0
  -21.6850   -6.0721   22.5276 C   0  0  0  0  0  0
  -21.4011   -6.5631   23.8206 C   0  0  0  0  0  0
  -21.3656   -5.6788   24.9175 C   0  0  0  0  0  0
  -21.6046   -4.3052   24.7230 C   0  0  0  0  0  0
  -21.8819   -3.8140   23.4351 C   0  0  0  0  0  0
  -21.9193   -4.6950   22.3407 C   0  0  0  0  0  0
  -22.7850  -13.5229   21.1849 C   0  0  0  0  0  0
  -22.1661   -4.2133   21.0982 F   0  0  0  0  0  0
  -21.5633   -3.4541   25.7745 F   0  0  0  0  0  0
  -30.0167  -13.3471   20.4257 N   0  0  0  0  0  0
  -26.2987  -12.9306   20.3338 N   0  0  0  0  0  0
  -25.9297  -11.6471   20.5764 N   0  0  0  0  0  0
  -22.0499  -12.8217   22.0413 N   0  0  0  0  0  0
  -25.4310  -15.1862   20.4074 N   0  0  0  0  0  0
  -31.8049  -14.7369   20.1752 O   0  0  0  0  0  0
  -21.6634   -6.8860   21.4235 O   0  0  0  0  0  0
  -22.3539  -14.5536   20.6705 O   0  0  0  0  0  0
  -24.6189  -31.8648   23.2076 C   0  0  0  0  0  0
  -25.9061  -32.4802   23.8386 C   0  0  1  0  0  0
  -27.2325  -27.3877   20.1144 C   0  0  0  0  0  0
  -25.5908  -33.8601   24.2303 N   0  0  0  0  0  0
  -23.4099  -30.4866   21.5480 C   0  0  2  0  0  0
  -24.8587  -28.9439   20.1188 C   0  0  0  0  0  0
  -22.7435  -29.4645   22.4976 C   0  0  0  0  0  0
  -18.0273  -28.1365   22.8483 C   0  0  0  0  0  0
  -24.1492  -36.7306   23.2637 C   0  0  0  0  0  0
  -25.9416  -30.8179   21.3667 C   0  0  0  0  0  0
  -26.0214  -29.4467   20.7164 C   0  0  0  0  0  0
  -27.2145  -28.6786   20.7051 C   0  0  0  0  0  0
  -26.0524  -26.9086   19.5110 C   0  0  0  0  0  0
  -24.8705  -27.6762   19.5119 C   0  0  0  0  0  0
  -23.6230  -29.8180   20.1643 C   0  0  0  0  0  0
  -25.4112  -36.3098   24.0332 C   0  0  1  0  0  0
  -20.5872  -28.3664   23.1302 C   0  0  2  0  0  0
  -20.6769  -26.9401   22.5414 C   0  0  0  0  0  0
  -19.5745  -26.6378   21.5215 C   0  0  0  0  0  0
  -18.1920  -26.7910   22.1618 C   0  0  0  0  0  0
  -19.1528  -28.8834   23.2885 C   0  0  0  0  0  0
  -18.9456  -30.1434   23.8907 C   0  0  0  0  0  0
  -17.6461  -30.6581   24.0558 C   0  0  0  0  0  0
  -25.9044  -34.9459   23.5120 C   0  0  0  0  0  0
  -16.5350  -29.9079   23.6332 C   0  0  0  0  0  0
  -16.7268  -28.6489   23.0358 C   0  0  0  0  0  0
  -26.4485  -31.6587   25.0719 C   0  0  0  0  0  0
  -25.3740  -31.3690   26.1461 C   0  0  0  0  0  0
  -27.0322  -30.3029   24.6105 C   0  0  0  0  0  0
  -27.6063  -32.4313   25.7482 C   0  0  0  0  0  0
  -27.5577  -37.1806   24.8468 C   0  0  0  0  0  0
  -21.4160  -29.3032   22.3715 N   0  0  0  0  0  0
  -26.4298  -37.3778   23.9406 N   0  0  0  0  0  0
  -24.6749  -31.0714   22.0995 N   0  0  0  0  0  0
  -23.4183  -28.8189   23.3041 O   0  0  0  0  0  0
  -28.3817  -26.6167   20.0719 O   0  0  0  0  0  0
  -26.5612  -34.8906   22.4679 O   0  0  0  0  0  0
  -23.5375  -32.1427   23.7445 O   0  0  0  0  0  0
  -30.7475  -18.1480   19.3528 C   0  0  0  0  0  0
  -29.3903  -19.2987   21.0184 C   0  0  0  0  0  0
  -30.0638  -20.4761   18.9992 C   0  0  0  0  0  0
  -30.0900  -18.1250   20.5981 C   0  0  0  0  0  0
  -30.7380  -19.3147   18.5602 C   0  0  0  0  0  0
  -29.3798  -20.4923   20.2370 C   0  0  0  0  0  0
  -28.4185  -24.0697   20.1003 C   0  0  0  0  0  0
  -30.2569  -16.8975   21.5232 C   0  0  0  0  0  0
  -28.3966  -25.4142   20.8935 C   0  0  0  0  0  0
  -29.3302  -22.9141   20.6167 C   0  0  0  0  0  0
  -31.4141  -19.3206   17.3412 N   0  0  0  0  0  0
  -29.8714  -15.5560   21.0269 N   0  0  0  0  0  0
  -27.7316  -23.9200   19.0834 O   0  0  0  0  0  0
  -28.6719  -21.6175   20.6583 O   0  0  0  0  0  0
  -31.4740  -12.4871   19.1188 H   0  0  0  0  0  0
  -30.3704  -11.3489   19.8406 H   0  0  0  0  0  0
  -29.7463  -11.7654   17.4446 H   0  0  0  0  0  0
  -29.6415  -13.4824   17.7458 H   0  0  0  0  0  0
  -27.8496  -11.2917   18.8459 H   0  0  0  0  0  0
  -27.3597  -12.5926   17.7916 H   0  0  0  0  0  0
  -27.6888  -14.2462   19.5499 H   0  0  0  0  0  0
  -28.6999  -11.9733   21.3314 H   0  0  0  0  0  0
  -28.4529  -13.6072   21.8661 H   0  0  0  0  0  0
  -25.2744   -9.5677   22.4758 H   0  0  0  0  0  0
  -23.9988   -7.4624   22.7478 H   0  0  0  0  0  0
  -21.0825   -8.8753   19.8958 H   0  0  0  0  0  0
  -22.3673  -10.9655   19.6168 H   0  0  0  0  0  0
  -21.2000   -7.6138   23.9702 H   0  0  0  0  0  0
  -21.1481   -6.0523   25.9069 H   0  0  0  0  0  0
  -22.0603   -2.7602   23.2861 H   0  0  0  0  0  0
  -22.4120  -11.9860   22.4766 H   0  0  0  0  0  0
  -21.1129  -13.1253   22.2657 H   0  0  0  0  0  0
  -24.6671  -15.8438   20.5132 H   0  0  0  0  0  0
  -26.2804  -15.6213   20.0705 H   0  0  0  0  0  0
  -26.7111  -32.5513   23.1131 H   0  0  0  0  0  0
  -25.0093  -33.9760   25.0477 H   0  0  0  0  0  0
  -22.7020  -31.3054   21.4054 H   0  0  0  0  0  0
  -23.3741  -35.9652   23.3340 H   0  0  0  0  0  0
  -24.3579  -36.8899   22.2042 H   0  0  0  0  0  0
  -23.7262  -37.6523   23.6648 H   0  0  0  0  0  0
  -26.0547  -31.5831   20.5973 H   0  0  0  0  0  0
  -26.8275  -30.8739   21.9867 H   0  0  0  0  0  0
  -28.1144  -29.0649   21.1622 H   0  0  0  0  0  0
  -26.0469  -25.9420   19.0293 H   0  0  0  0  0  0
  -23.9778  -27.2880   19.0407 H   0  0  0  0  0  0
  -23.7349  -30.5937   19.4056 H   0  0  0  0  0  0
  -22.7451  -29.2429   19.8664 H   0  0  0  0  0  0
  -25.1281  -36.1964   25.0828 H   0  0  0  0  0  0
  -20.9947  -28.3236   24.1424 H   0  0  0  0  0  0
  -20.5681  -26.2275   23.3605 H   0  0  0  0  0  0
  -21.6635  -26.7449   22.1194 H   0  0  0  0  0  0
  -19.6927  -25.6292   21.1234 H   0  0  0  0  0  0
  -19.6691  -27.3198   20.6749 H   0  0  0  0  0  0
  -17.4195  -26.6673   21.4010 H   0  0  0  0  0  0
  -18.0310  -26.0045   22.9002 H   0  0  0  0  0  0
  -19.7944  -30.7228   24.2295 H   0  0  0  0  0  0
  -17.5027  -31.6265   24.5141 H   0  0  0  0  0  0
  -15.5349  -30.2975   23.7658 H   0  0  0  0  0  0
  -15.8669  -28.0803   22.7081 H   0  0  0  0  0  0
  -24.5935  -30.7015   25.7809 H   0  0  0  0  0  0
  -24.8892  -32.2825   26.4914 H   0  0  0  0  0  0
  -25.8077  -30.8876   27.0230 H   0  0  0  0  0  0
  -26.2857  -29.6774   24.1191 H   0  0  0  0  0  0
  -27.4131  -29.7284   25.4560 H   0  0  0  0  0  0
  -27.8681  -30.4356   23.9228 H   0  0  0  0  0  0
  -27.2697  -33.3621   26.2055 H   0  0  0  0  0  0
  -28.3864  -32.6857   25.0295 H   0  0  0  0  0  0
  -28.0722  -31.8424   26.5389 H   0  0  0  0  0  0
  -28.2604  -38.0091   24.7491 H   0  0  0  0  0  0
  -28.1056  -36.2618   24.6328 H   0  0  0  0  0  0
  -27.2288  -37.1503   25.8869 H   0  0  0  0  0  0
  -20.9345  -29.8760   21.6925 H   0  0  0  0  0  0
  -26.0193  -38.2865   24.1387 H   0  0  0  0  0  0
  -31.2904  -17.2707   19.0279 H   0  0  0  0  0  0
  -28.8819  -19.2976   21.9722 H   0  0  0  0  0  0
  -30.0533  -21.3566   18.3719 H   0  0  0  0  0  0
  -29.6773  -17.0755   22.4301 H   0  0  0  0  0  0
  -31.2975  -16.8689   21.8498 H   0  0  0  0  0  0
  -29.2820  -25.4526   21.5274 H   0  0  0  0  0  0
  -27.5397  -25.4062   21.5669 H   0  0  0  0  0  0
  -29.6642  -23.1568   21.6251 H   0  0  0  0  0  0
  -30.2242  -22.8877   19.9941 H   0  0  0  0  0  0
  -32.1326  -18.6210   17.1799 H   0  0  0  0  0  0
  -31.6334  -20.2131   16.9097 H   0  0  0  0  0  0
  -28.9199  -15.2884   21.2239 H   0  0  0  0  0  0
  1 25  1  0  0  0
  1 30  2  0  0  0
  1 82  1  0  0  0
  2  3  1  0  0  0
  2 25  1  0  0  0
  2 85  1  0  0  0
  2 86  1  0  0  0
  3  4  1  0  0  0
  3 87  1  0  0  0
  3 88  1  0  0  0
  4  5  1  0  0  0
  4 89  1  0  0  0
  4 90  1  0  0  0
  5  6  1  0  0  0
  5 26  1  0  0  0
  5 91  1  0  0  0
  6 25  1  0  0  0
  6 92  1  0  0  0
  6 93  1  0  0  0
  7  8  2  0  0  0
  7 26  1  0  0  0
  7 29  1  0  0  0
  8  9  1  0  0  0
  8 22  1  0  0  0
  9 10  1  0  0  0
  9 27  2  0  0  0
 10 11  2  0  0  0
 10 15  1  0  0  0
 11 12  1  0  0  0
 11 94  1  0  0  0
 12 13  2  0  0  0
 12 95  1  0  0  0
 13 14  1  0  0  0
 13 31  1  0  0  0
 14 15  2  0  0  0
 14 96  1  0  0  0
 15 97  1  0  0  0
 16 17  2  0  0  0
 16 21  1  0  0  0
 16 31  1  0  0  0
 17 18  1  0  0  0
 17 98  1  0  0  0
 18 19  2  0  0  0
 18 99  1  0  0  0
 19 20  1  0  0  0
 19 24  1  0  0  0
 20 21  2  0  0  0
 20100  1  0  0  0
 21 23  1  0  0  0
 22 28  1  0  0  0
 22 32  2  0  0  0
 26 27  1  0  0  0
 28101  1  0  0  0
 28102  1  0  0  0
 29103  1  0  0  0
 29104  1  0  0  0
 33 34  1  0  0  0
 33 66  1  0  0  0
 33 70  2  0  0  0
 34 36  1  0  0  0
 34 59  1  0  0  0
 34105  1  0  0  0
 35 44  2  0  0  0
 35 45  1  0  0  0
 35 68  1  0  0  0
 36 56  1  0  0  0
 36106  1  0  0  0
 37 39  1  0  0  0
 37 47  1  0  0  0
 37 66  1  0  0  0
 37107  1  0  0  0
 38 43  2  0  0  0
 38 46  1  0  0  0
 38 47  1  0  0  0
 39 64  1  0  0  0
 39 67  2  0  0  0
 40 52  1  0  0  0
 40 53  2  0  0  0
 40 58  1  0  0  0
 41108  1  0  0  0
 41109  1  0  0  0
 41110  1  0  0  0
 41 48  1  0  0  0
 42 43  1  0  0  0
 42 66  1  0  0  0
 42111  1  0  0  0
 42112  1  0  0  0
 43 44  1  0  0  0
 44113  1  0  0  0
 45 46  2  0  0  0
 45114  1  0  0  0
 46115  1  0  0  0
 47116  1  0  0  0
 47117  1  0  0  0
 48 56  1  0  0  0
 48 65  1  0  0  0
 48118  1  0  0  0
 49 50  1  0  0  0
 49 53  1  0  0  0
 49 64  1  0  0  0
 49119  1  0  0  0
 50 51  1  0  0  0
 50120  1  0  0  0
 50121  1  0  0  0
 51 52  1  0  0  0
 51122  1  0  0  0
 51123  1  0  0  0
 52124  1  0  0  0
 52125  1  0  0  0
 53 54  1  0  0  0
 54 55  2  0  0  0
 54126  1  0  0  0
 55 57  1  0  0  0
 55127  1  0  0  0
 56 69  2  0  0  0
 57 58  2  0  0  0
 57128  1  0  0  0
 58129  1  0  0  0
 59 60  1  0  0  0
 59 61  1  0  0  0
 59 62  1  0  0  0
 60130  1  0  0  0
 60131  1  0  0  0
 60132  1  0  0  0
 61133  1  0  0  0
 61134  1  0  0  0
 61135  1  0  0  0
 62136  1  0  0  0
 62137  1  0  0  0
 62138  1  0  0  0
 63 65  1  0  0  0
 63139  1  0  0  0
 63140  1  0  0  0
 63141  1  0  0  0
 64142  1  0  0  0
 65143  1  0  0  0
 68 79  1  0  0  0
 71 74  2  0  0  0
 71 75  1  0  0  0
 71144  1  0  0  0
 72 74  1  0  0  0
 72 76  2  0  0  0
 72145  1  0  0  0
 73 75  2  0  0  0
 73 76  1  0  0  0
 73146  1  0  0  0
 74 78  1  0  0  0
 75 81  1  0  0  0
 76 84  1  0  0  0
 77 79  1  0  0  0
 77 80  1  0  0  0
 77 83  2  0  0  0
 78 82  1  0  0  0
 78147  1  0  0  0
 78148  1  0  0  0
 79149  1  0  0  0
 79150  1  0  0  0
 80 84  1  0  0  0
 80151  1  0  0  0
 80152  1  0  0  0
 81153  1  0  0  0
 81154  1  0  0  0
 82155  1  0  0  0
M  ISO  4   1 100  68 101  79 101  82 100
M  END
> <chiral flag>
0

> <version>
0

> <s_m_source_file>
/data/baiqing/PycharmProjects/Reinvent-master-3.2/result/LINK_invent/BTK/process_docking_weight1_custom_product_contain_oxygen_bond_distance_aromatic_linkinvent_7_9_3/rearranged_h_0108.sdf

> <i_m_source_file_index>
76

> <r_mmod_Potential_Energy-OPLS-2005>
-46.4621276855469

> <r_mmod_Stretch_Energy-OPLS-2005>
50.7800445556641

> <r_mmod_Bend_Energy-OPLS-2005>
110.956298828125

> <r_mmod_Torsional_Energy-OPLS-2005>
254.918960571289

> <r_mmod_Improper_Torsional_Energy-OPLS-2005>
6.88043928146362

> <r_mmod_Van_der_Waal_Energy-OPLS-2005>
137.669448852539

> <r_mmod_Electrostatic_Energy-OPLS-2005>
-385.196380615234

> <r_mmod_Solvation_Energy-OPLS-2005>
-245.560821533203

> <b_mmod_Minimization_Converged-OPLS-2005>
0

> <r_mmod_RMS_Derivative-OPLS-2005>
1.74638438224792

$$$$
77
                    3D
 Structure written by MMmdl.
166174  0  0  1  0            999 V2000
  -30.7564  -14.4336   20.5411 C   0  0  0  0  0  0
  -30.3990  -12.2820   19.4251 C   0  0  0  0  0  0
  -29.4827  -12.4649   18.1997 C   0  0  0  0  0  0
  -28.0029  -12.3416   18.6095 C   0  0  0  0  0  0
  -27.6487  -13.2005   19.8520 C   0  0  2  0  0  0
  -28.6916  -13.0228   20.9797 C   0  0  0  0  0  0
  -25.2523  -13.8165   20.5552 C   0  0  0  0  0  0
  -24.1822  -13.0468   20.9154 C   0  0  0  0  0  0
  -24.6363  -11.6919   20.8750 C   0  0  0  0  0  0
  -23.9047  -10.4300   21.0417 C   0  0  0  0  0  0
  -24.3606   -9.4224   21.9190 C   0  0  0  0  0  0
  -23.6295   -8.2255   22.0759 C   0  0  0  0  0  0
  -22.4269   -8.0283   21.3552 C   0  0  0  0  0  0
  -21.9895   -9.0262   20.4642 C   0  0  0  0  0  0
  -22.7222  -10.2143   20.3060 C   0  0  0  0  0  0
  -21.6853   -6.0756   22.5271 C   0  0  0  0  0  0
  -21.4026   -6.5650   23.8213 C   0  0  0  0  0  0
  -21.3655   -5.6798   24.9162 C   0  0  0  0  0  0
  -21.6037   -4.3065   24.7206 C   0  0  0  0  0  0
  -21.8825   -3.8158   23.4325 C   0  0  0  0  0  0
  -21.9203   -4.6978   22.3382 C   0  0  0  0  0  0
  -22.7842  -13.5262   21.1861 C   0  0  0  0  0  0
  -22.1661   -4.2164   21.0967 F   0  0  0  0  0  0
  -21.5619   -3.4538   25.7723 F   0  0  0  0  0  0
  -30.0120  -13.3052   20.4073 N   0  0  0  0  0  0
  -26.2951  -12.9321   20.3266 N   0  0  0  0  0  0
  -25.9282  -11.6496   20.5754 N   0  0  0  0  0  0
  -22.0468  -12.8268   22.0382 N   0  0  0  0  0  0
  -25.4192  -15.1855   20.3724 N   0  0  0  0  0  0
  -31.9332  -14.4988   20.1957 O   0  0  0  0  0  0
  -21.6642   -6.8885   21.4231 O   0  0  0  0  0  0
  -22.3524  -14.5582   20.6708 O   0  0  0  0  0  0
  -24.6127  -31.8759   23.2158 C   0  0  0  0  0  0
  -25.9058  -32.4875   23.8417 C   0  0  1  0  0  0
  -27.2241  -27.4598   20.0882 C   0  0  0  0  0  0
  -25.5942  -33.8675   24.2358 N   0  0  0  0  0  0
  -23.3975  -30.5087   21.5548 C   0  0  2  0  0  0
  -24.8393  -28.9812   20.1132 C   0  0  0  0  0  0
  -22.7332  -29.4819   22.5019 C   0  0  0  0  0  0
  -18.0287  -28.1265   22.8485 C   0  0  0  0  0  0
  -24.1483  -36.7323   23.2640 C   0  0  0  0  0  0
  -25.9246  -30.8521   21.3608 C   0  0  0  0  0  0
  -26.0015  -29.4909   20.7041 C   0  0  0  0  0  0
  -27.2000  -28.7424   20.6808 C   0  0  0  0  0  0
  -26.0344  -26.9562   19.5106 C   0  0  0  0  0  0
  -24.8507  -27.7136   19.5143 C   0  0  0  0  0  0
  -23.5996  -29.8483   20.1668 C   0  0  0  0  0  0
  -25.4107  -36.3136   24.0340 C   0  0  1  0  0  0
  -20.5828  -28.3779   23.1334 C   0  0  2  0  0  0
  -20.6874  -26.9609   22.5209 C   0  0  0  0  0  0
  -19.5834  -26.6561   21.5093 C   0  0  0  0  0  0
  -18.2067  -26.7810   22.1622 C   0  0  0  0  0  0
  -19.1446  -28.8831   23.2896 C   0  0  0  0  0  0
  -18.9292  -30.1363   23.9017 C   0  0  0  0  0  0
  -17.6215  -30.6365   24.0694 C   0  0  0  0  0  0
  -25.9035  -34.9511   23.5130 C   0  0  0  0  0  0
  -16.5199  -29.8783   23.6433 C   0  0  0  0  0  0
  -16.7227  -28.6255   23.0360 C   0  0  0  0  0  0
  -26.4491  -31.6644   25.0715 C   0  0  0  0  0  0
  -25.3735  -31.3750   26.1445 C   0  0  0  0  0  0
  -27.0319  -30.3092   24.6080 C   0  0  0  0  0  0
  -27.6073  -32.4354   25.7482 C   0  0  0  0  0  0
  -27.5577  -37.1855   24.8482 C   0  0  0  0  0  0
  -21.4018  -29.3331   22.3903 N   0  0  0  0  0  0
  -26.4292  -37.3828   23.9417 N   0  0  0  0  0  0
  -24.6648  -31.0873   22.1059 N   0  0  0  0  0  0
  -23.4147  -28.8209   23.2910 O   0  0  0  0  0  0
  -28.4040  -26.7462   20.0877 O   0  0  0  0  0  0
  -26.5565  -34.8974   22.4673 O   0  0  0  0  0  0
  -23.5304  -32.1505   23.7562 O   0  0  0  0  0  0
  -25.8568  -19.5490   20.4259 C   0  0  0  0  0  0
  -26.2760  -20.3204   19.3326 C   0  0  0  0  0  0
  -28.4661  -19.2754   19.4505 C   0  0  0  0  0  0
  -26.7463  -18.6661   21.0730 C   0  0  0  0  0  0
  -28.0815  -18.5356   20.5955 C   0  0  0  0  0  0
  -27.5919  -20.1975   18.8435 C   0  0  0  0  0  0
  -26.2145  -17.9337   22.2918 C   0  0  0  0  0  0
  -29.4876  -18.2734   22.7045 C   0  0  0  0  0  0
  -28.3413  -24.5680   18.9140 C   0  0  0  0  0  0
  -28.0069  -23.0774   19.0907 C   0  0  0  0  0  0
  -28.9943  -16.1868   21.2842 C   0  0  0  0  0  0
  -28.3060  -25.3313   20.2577 C   0  0  0  0  0  0
  -27.6396  -22.3439   17.7819 C   0  0  0  0  0  0
  -29.1758  -17.7261   21.3067 C   0  0  1  0  0  0
  -30.1386  -15.6190   20.5778 N   0  0  0  0  0  0
  -28.0799  -20.9839   17.8224 O   0  0  0  0  0  0
  -31.4437  -12.3494   19.1184 H   0  0  0  0  0  0
  -30.2801  -11.2851   19.8538 H   0  0  0  0  0  0
  -29.7132  -11.7209   17.4373 H   0  0  0  0  0  0
  -29.6607  -13.4396   17.7456 H   0  0  0  0  0  0
  -27.7973  -11.2910   18.8186 H   0  0  0  0  0  0
  -27.3562  -12.6145   17.7746 H   0  0  0  0  0  0
  -27.6798  -14.2325   19.5084 H   0  0  0  0  0  0
  -28.6702  -12.0032   21.3673 H   0  0  0  0  0  0
  -28.4666  -13.6598   21.8338 H   0  0  0  0  0  0
  -25.2746   -9.5728   22.4757 H   0  0  0  0  0  0
  -24.0017   -7.4665   22.7483 H   0  0  0  0  0  0
  -21.0834   -8.8786   19.8945 H   0  0  0  0  0  0
  -22.3685  -10.9698   19.6173 H   0  0  0  0  0  0
  -21.2022   -7.6156   23.9719 H   0  0  0  0  0  0
  -21.1459   -6.0519   25.9072 H   0  0  0  0  0  0
  -22.0608   -2.7614   23.2815 H   0  0  0  0  0  0
  -22.4063  -11.9949   22.4817 H   0  0  0  0  0  0
  -21.1090  -13.1329   22.2552 H   0  0  0  0  0  0
  -24.6492  -15.8400   20.4468 H   0  0  0  0  0  0
  -26.2538  -15.6031   19.9841 H   0  0  0  0  0  0
  -26.7086  -32.5570   23.1141 H   0  0  0  0  0  0
  -25.0164  -33.9869   25.0552 H   0  0  0  0  0  0
  -22.6972  -31.3331   21.4192 H   0  0  0  0  0  0
  -23.3738  -35.9661   23.3312 H   0  0  0  0  0  0
  -24.3576  -36.8926   22.2052 H   0  0  0  0  0  0
  -23.7239  -37.6550   23.6613 H   0  0  0  0  0  0
  -26.0232  -31.6217   20.5913 H   0  0  0  0  0  0
  -26.8164  -30.9043   21.9736 H   0  0  0  0  0  0
  -28.1005  -29.1367   21.1331 H   0  0  0  0  0  0
  -25.9891  -25.9838   19.0503 H   0  0  0  0  0  0
  -23.9545  -27.3196   19.0539 H   0  0  0  0  0  0
  -23.7092  -30.6330   19.4155 H   0  0  0  0  0  0
  -22.7124  -29.2827   19.8690 H   0  0  0  0  0  0
  -25.1276  -36.2001   25.0824 H   0  0  0  0  0  0
  -20.9896  -28.3218   24.1468 H   0  0  0  0  0  0
  -20.6107  -26.2280   23.3254 H   0  0  0  0  0  0
  -21.6681  -26.8007   22.0738 H   0  0  0  0  0  0
  -19.7137  -25.6561   21.0972 H   0  0  0  0  0  0
  -19.6655  -27.3521   20.6729 H   0  0  0  0  0  0
  -17.4309  -26.6386   21.4046 H   0  0  0  0  0  0
  -18.0754  -25.9874   22.9017 H   0  0  0  0  0  0
  -19.7690  -30.7182   24.2547 H   0  0  0  0  0  0
  -17.4590  -31.5903   24.5477 H   0  0  0  0  0  0
  -15.5124  -30.2448   23.7876 H   0  0  0  0  0  0
  -15.8676  -28.0448   22.7152 H   0  0  0  0  0  0
  -24.5906  -30.7123   25.7740 H   0  0  0  0  0  0
  -24.8925  -32.2917   26.4869 H   0  0  0  0  0  0
  -25.8051  -30.8917   27.0226 H   0  0  0  0  0  0
  -26.2855  -29.6853   24.1157 H   0  0  0  0  0  0
  -27.4122  -29.7327   25.4529 H   0  0  0  0  0  0
  -27.8661  -30.4407   23.9182 H   0  0  0  0  0  0
  -27.2713  -33.3648   26.2101 H   0  0  0  0  0  0
  -28.3870  -32.6976   25.0305 H   0  0  0  0  0  0
  -28.0760  -31.8466   26.5389 H   0  0  0  0  0  0
  -28.2625  -38.0126   24.7502 H   0  0  0  0  0  0
  -28.1031  -36.2669   24.6297 H   0  0  0  0  0  0
  -27.2308  -37.1515   25.8894 H   0  0  0  0  0  0
  -20.9006  -29.9364   21.7516 H   0  0  0  0  0  0
  -26.0160  -38.2896   24.1436 H   0  0  0  0  0  0
  -24.8427  -19.6638   20.7786 H   0  0  0  0  0  0
  -25.5730  -21.0080   18.8882 H   0  0  0  0  0  0
  -29.4715  -19.1885   19.0612 H   0  0  0  0  0  0
  -25.1863  -17.6122   22.1277 H   0  0  0  0  0  0
  -26.2112  -18.5991   23.1566 H   0  0  0  0  0  0
  -26.7890  -17.0414   22.5239 H   0  0  0  0  0  0
  -28.6542  -18.1787   23.3980 H   0  0  0  0  0  0
  -29.7639  -19.3259   22.6381 H   0  0  0  0  0  0
  -30.3376  -17.7464   23.1378 H   0  0  0  0  0  0
  -27.6479  -25.0070   18.1995 H   0  0  0  0  0  0
  -29.3307  -24.6584   18.4655 H   0  0  0  0  0  0
  -27.1796  -22.9764   19.7946 H   0  0  0  0  0  0
  -28.8562  -22.5831   19.5631 H   0  0  0  0  0  0
  -28.9481  -15.8009   22.3010 H   0  0  0  0  0  0
  -28.0631  -15.9240   20.7909 H   0  0  0  0  0  0
  -29.1491  -25.0122   20.8726 H   0  0  0  0  0  0
  -27.4170  -25.0717   20.8394 H   0  0  0  0  0  0
  -28.1155  -22.8220   16.9249 H   0  0  0  0  0  0
  -26.5691  -22.4120   17.5845 H   0  0  0  0  0  0
  -30.0899  -17.9525   20.7512 H   0  0  0  0  0  0
  -30.8072  -16.3359   20.3407 H   0  0  0  0  0  0
  1 25  1  0  0  0
  1 30  2  0  0  0
  1 85  1  0  0  0
  2  3  1  0  0  0
  2 25  1  0  0  0
  2 87  1  0  0  0
  2 88  1  0  0  0
  3  4  1  0  0  0
  3 89  1  0  0  0
  3 90  1  0  0  0
  4  5  1  0  0  0
  4 91  1  0  0  0
  4 92  1  0  0  0
  5  6  1  0  0  0
  5 26  1  0  0  0
  5 93  1  0  0  0
  6 25  1  0  0  0
  6 94  1  0  0  0
  6 95  1  0  0  0
  7  8  2  0  0  0
  7 26  1  0  0  0
  7 29  1  0  0  0
  8  9  1  0  0  0
  8 22  1  0  0  0
  9 10  1  0  0  0
  9 27  2  0  0  0
 10 11  2  0  0  0
 10 15  1  0  0  0
 11 12  1  0  0  0
 11 96  1  0  0  0
 12 13  2  0  0  0
 12 97  1  0  0  0
 13 14  1  0  0  0
 13 31  1  0  0  0
 14 15  2  0  0  0
 14 98  1  0  0  0
 15 99  1  0  0  0
 16 17  2  0  0  0
 16 21  1  0  0  0
 16 31  1  0  0  0
 17 18  1  0  0  0
 17100  1  0  0  0
 18 19  2  0  0  0
 18101  1  0  0  0
 19 20  1  0  0  0
 19 24  1  0  0  0
 20 21  2  0  0  0
 20102  1  0  0  0
 21 23  1  0  0  0
 22 28  1  0  0  0
 22 32  2  0  0  0
 26 27  1  0  0  0
 28103  1  0  0  0
 28104  1  0  0  0
 29105  1  0  0  0
 29106  1  0  0  0
 33 34  1  0  0  0
 33 66  1  0  0  0
 33 70  2  0  0  0
 34 36  1  0  0  0
 34 59  1  0  0  0
 34107  1  0  0  0
 35 44  2  0  0  0
 35 45  1  0  0  0
 35 68  1  0  0  0
 36 56  1  0  0  0
 36108  1  0  0  0
 37 39  1  0  0  0
 37 47  1  0  0  0
 37 66  1  0  0  0
 37109  1  0  0  0
 38 43  2  0  0  0
 38 46  1  0  0  0
 38 47  1  0  0  0
 39 64  1  0  0  0
 39 67  2  0  0  0
 40 52  1  0  0  0
 40 53  2  0  0  0
 40 58  1  0  0  0
 41110  1  0  0  0
 41111  1  0  0  0
 41112  1  0  0  0
 41 48  1  0  0  0
 42 43  1  0  0  0
 42 66  1  0  0  0
 42113  1  0  0  0
 42114  1  0  0  0
 43 44  1  0  0  0
 44115  1  0  0  0
 45 46  2  0  0  0
 45116  1  0  0  0
 46117  1  0  0  0
 47118  1  0  0  0
 47119  1  0  0  0
 48 56  1  0  0  0
 48 65  1  0  0  0
 48120  1  0  0  0
 49 50  1  0  0  0
 49 53  1  0  0  0
 49 64  1  0  0  0
 49121  1  0  0  0
 50 51  1  0  0  0
 50122  1  0  0  0
 50123  1  0  0  0
 51 52  1  0  0  0
 51124  1  0  0  0
 51125  1  0  0  0
 52126  1  0  0  0
 52127  1  0  0  0
 53 54  1  0  0  0
 54 55  2  0  0  0
 54128  1  0  0  0
 55 57  1  0  0  0
 55129  1  0  0  0
 56 69  2  0  0  0
 57 58  2  0  0  0
 57130  1  0  0  0
 58131  1  0  0  0
 59 60  1  0  0  0
 59 61  1  0  0  0
 59 62  1  0  0  0
 60132  1  0  0  0
 60133  1  0  0  0
 60134  1  0  0  0
 61135  1  0  0  0
 61136  1  0  0  0
 61137  1  0  0  0
 62138  1  0  0  0
 62139  1  0  0  0
 62140  1  0  0  0
 63 65  1  0  0  0
 63141  1  0  0  0
 63142  1  0  0  0
 63143  1  0  0  0
 64144  1  0  0  0
 65145  1  0  0  0
 68 82  1  0  0  0
 71 72  2  0  0  0
 71 74  1  0  0  0
 71146  1  0  0  0
 72 76  1  0  0  0
 72147  1  0  0  0
 73 75  1  0  0  0
 73 76  2  0  0  0
 73148  1  0  0  0
 74 75  2  0  0  0
 74 77  1  0  0  0
 75 84  1  0  0  0
 76 86  1  0  0  0
 77149  1  0  0  0
 77150  1  0  0  0
 77151  1  0  0  0
 78152  1  0  0  0
 78153  1  0  0  0
 78154  1  0  0  0
 78 84  1  0  0  0
 79 80  1  0  0  0
 79 82  1  0  0  0
 79155  1  0  0  0
 79156  1  0  0  0
 80 83  1  0  0  0
 80157  1  0  0  0
 80158  1  0  0  0
 81 84  1  0  0  0
 81 85  1  0  0  0
 81159  1  0  0  0
 81160  1  0  0  0
 82161  1  0  0  0
 82162  1  0  0  0
 83 86  1  0  0  0
 83163  1  0  0  0
 83164  1  0  0  0
 84165  1  0  0  0
 85166  1  0  0  0
M  ISO  4   1 100  68 101  82 101  85 100
M  END
> <chiral flag>
0

> <version>
0

> <s_m_source_file>
/data/baiqing/PycharmProjects/Reinvent-master-3.2/result/LINK_invent/BTK/process_docking_weight1_custom_product_contain_oxygen_bond_distance_aromatic_linkinvent_7_9_3/rearranged_h_0108.sdf

> <i_m_source_file_index>
77

> <r_mmod_Potential_Energy-OPLS-2005>
30.3045139312744

> <r_mmod_Stretch_Energy-OPLS-2005>
34.3707466125488

> <r_mmod_Bend_Energy-OPLS-2005>
136.969528198242

> <r_mmod_Torsional_Energy-OPLS-2005>
290.892578125

> <r_mmod_Improper_Torsional_Energy-OPLS-2005>
17.146915435791

> <r_mmod_Van_der_Waal_Energy-OPLS-2005>
160.074020385742

> <r_mmod_Electrostatic_Energy-OPLS-2005>
-432.497863769531

> <r_mmod_Solvation_Energy-OPLS-2005>
-197.122848510742

> <b_mmod_Minimization_Converged-OPLS-2005>
0

> <r_mmod_RMS_Derivative-OPLS-2005>
5.73021936416626

$$$$
78
                    3D
 Structure written by MMmdl.
161169  0  0  1  0            999 V2000
  -30.5980  -14.7915   20.4500 C   0  0  0  0  0  0
  -30.4313  -12.4760   19.5028 C   0  0  0  0  0  0
  -29.5157  -12.4601   18.2568 C   0  0  0  0  0  0
  -28.0364  -12.3179   18.6636 C   0  0  0  0  0  0
  -27.6379  -13.2375   19.8495 C   0  0  2  0  0  0
  -28.6761  -13.1979   20.9914 C   0  0  0  0  0  0
  -25.2490  -13.8247   20.5704 C   0  0  0  0  0  0
  -24.1782  -13.0471   20.9223 C   0  0  0  0  0  0
  -24.6381  -11.6951   20.8766 C   0  0  0  0  0  0
  -23.9063  -10.4312   21.0406 C   0  0  0  0  0  0
  -24.3617   -9.4230   21.9184 C   0  0  0  0  0  0
  -23.6284   -8.2269   22.0758 C   0  0  0  0  0  0
  -22.4279   -8.0285   21.3529 C   0  0  0  0  0  0
  -21.9917   -9.0258   20.4624 C   0  0  0  0  0  0
  -22.7240  -10.2142   20.3040 C   0  0  0  0  0  0
  -21.6865   -6.0716   22.5258 C   0  0  0  0  0  0
  -21.4026   -6.5625   23.8194 C   0  0  0  0  0  0
  -21.3656   -5.6772   24.9163 C   0  0  0  0  0  0
  -21.6041   -4.3031   24.7216 C   0  0  0  0  0  0
  -21.8828   -3.8123   23.4345 C   0  0  0  0  0  0
  -21.9206   -4.6934   22.3393 C   0  0  0  0  0  0
  -22.7801  -13.5229   21.1899 C   0  0  0  0  0  0
  -22.1679   -4.2114   21.0978 F   0  0  0  0  0  0
  -21.5624   -3.4525   25.7739 F   0  0  0  0  0  0
  -29.9752  -13.5579   20.4137 N   0  0  0  0  0  0
  -26.2911  -12.9450   20.3288 N   0  0  0  0  0  0
  -25.9306  -11.6582   20.5772 N   0  0  0  0  0  0
  -22.0431  -12.8178   22.0424 N   0  0  0  0  0  0
  -25.4190  -15.1968   20.4103 N   0  0  0  0  0  0
  -31.7742  -14.8738   20.0818 O   0  0  0  0  0  0
  -21.6658   -6.8862   21.4224 O   0  0  0  0  0  0
  -22.3465  -14.5521   20.6741 O   0  0  0  0  0  0
  -24.6334  -31.8547   23.1968 C   0  0  0  0  0  0
  -25.9154  -32.4748   23.8317 C   0  0  1  0  0  0
  -27.2159  -27.2297   20.1603 C   0  0  0  0  0  0
  -25.5951  -33.8557   24.2254 N   0  0  0  0  0  0
  -23.4327  -30.4763   21.5395 C   0  0  2  0  0  0
  -24.8821  -28.9172   20.1117 C   0  0  0  0  0  0
  -22.7512  -29.4611   22.4898 C   0  0  0  0  0  0
  -18.0303  -28.1395   22.8483 C   0  0  0  0  0  0
  -24.1489  -36.7271   23.2636 C   0  0  0  0  0  0
  -25.9800  -30.7576   21.3832 C   0  0  0  0  0  0
  -26.0535  -29.3761   20.7301 C   0  0  0  0  0  0
  -27.2249  -28.5471   20.7391 C   0  0  0  0  0  0
  -26.0298  -26.8534   19.4938 C   0  0  0  0  0  0
  -24.8789  -27.6661   19.4771 C   0  0  0  0  0  0
  -23.6540  -29.8086   20.1567 C   0  0  0  0  0  0
  -25.4115  -36.3065   24.0328 C   0  0  1  0  0  0
  -20.5900  -28.3720   23.1253 C   0  0  2  0  0  0
  -20.6779  -26.9429   22.5403 C   0  0  0  0  0  0
  -19.5756  -26.6386   21.5208 C   0  0  0  0  0  0
  -18.1941  -26.7937   22.1622 C   0  0  0  0  0  0
  -19.1551  -28.8874   23.2868 C   0  0  0  0  0  0
  -18.9469  -30.1467   23.8900 C   0  0  0  0  0  0
  -17.6465  -30.6597   24.0562 C   0  0  0  0  0  0
  -25.9058  -34.9437   23.5092 C   0  0  0  0  0  0
  -16.5363  -29.9090   23.6327 C   0  0  0  0  0  0
  -16.7285  -28.6504   23.0359 C   0  0  0  0  0  0
  -26.4509  -31.6591   25.0728 C   0  0  0  0  0  0
  -25.3713  -31.3766   26.1445 C   0  0  0  0  0  0
  -27.0348  -30.2995   24.6218 C   0  0  0  0  0  0
  -27.6059  -32.4337   25.7499 C   0  0  0  0  0  0
  -27.5580  -37.1795   24.8464 C   0  0  0  0  0  0
  -21.4215  -29.3065   22.3634 N   0  0  0  0  0  0
  -26.4290  -37.3763   23.9412 N   0  0  0  0  0  0
  -24.7005  -31.0480   22.0957 N   0  0  0  0  0  0
  -23.4195  -28.8156   23.3015 O   0  0  0  0  0  0
  -28.2913  -26.3042   20.2099 O   0  0  0  0  0  0
  -26.5624  -34.8918   22.4657 O   0  0  0  0  0  0
  -23.5477  -32.1389   23.7250 O   0  0  0  0  0  0
  -28.4142  -16.9303   17.3951 C   0  0  0  0  0  0
  -29.2245  -16.3789   18.3886 C   0  0  0  0  0  0
  -27.7695  -18.7123   18.9195 C   0  0  0  0  0  0
  -27.6122  -18.0394   17.6786 C   0  0  0  0  0  0
  -29.3543  -16.9455   19.6805 C   0  0  0  0  0  0
  -28.7974  -18.3182   19.8446 C   0  0  0  0  0  0
  -26.3301  -20.7929   18.5636 C   0  0  0  0  0  0
  -26.8447  -19.8042   19.3160 C   0  0  0  0  0  0
  -26.5757  -18.4281   16.6333 C   0  0  0  0  0  0
  -28.9278  -23.5795   20.2518 C   0  0  0  0  0  0
  -28.6474  -22.0895   20.8833 C   0  0  0  0  0  0
  -28.0166  -24.8769   20.6555 C   0  0  0  0  0  0
  -29.4192  -20.7501   20.3338 C   0  0  0  0  0  0
  -29.8677  -15.9650   20.6830 N   0  0  0  0  0  0
  -29.1475  -19.3240   20.7994 O   0  0  0  0  0  0
  -31.4709  -12.6003   19.1936 H   0  0  0  0  0  0
  -30.3927  -11.5155   20.0180 H   0  0  0  0  0  0
  -29.7936  -11.6300   17.6051 H   0  0  0  0  0  0
  -29.6636  -13.3607   17.6669 H   0  0  0  0  0  0
  -27.8848  -11.2763   18.9455 H   0  0  0  0  0  0
  -27.3831  -12.4962   17.8084 H   0  0  0  0  0  0
  -27.6252  -14.2537   19.4544 H   0  0  0  0  0  0
  -28.7149  -12.2054   21.4428 H   0  0  0  0  0  0
  -28.4019  -13.8880   21.7912 H   0  0  0  0  0  0
  -25.2765   -9.5713   22.4747 H   0  0  0  0  0  0
  -23.9972   -7.4680   22.7499 H   0  0  0  0  0  0
  -21.0859   -8.8787   19.8905 H   0  0  0  0  0  0
  -22.3714  -10.9683   19.6135 H   0  0  0  0  0  0
  -21.2027   -7.6134   23.9693 H   0  0  0  0  0  0
  -21.1465   -6.0505   25.9064 H   0  0  0  0  0  0
  -22.0612   -2.7580   23.2875 H   0  0  0  0  0  0
  -22.4041  -11.9848   22.4831 H   0  0  0  0  0  0
  -21.1025  -13.1167   22.2592 H   0  0  0  0  0  0
  -24.6476  -15.8481   20.5047 H   0  0  0  0  0  0
  -26.2639  -15.6300   20.0599 H   0  0  0  0  0  0
  -26.7224  -32.5401   23.1053 H   0  0  0  0  0  0
  -25.0115  -33.9679   25.0412 H   0  0  0  0  0  0
  -22.7297  -31.2988   21.3910 H   0  0  0  0  0  0
  -23.3752  -35.9599   23.3296 H   0  0  0  0  0  0
  -24.3578  -36.8890   22.2047 H   0  0  0  0  0  0
  -23.7226  -37.6463   23.6667 H   0  0  0  0  0  0
  -26.1166  -31.5132   20.6085 H   0  0  0  0  0  0
  -26.8562  -30.8125   22.0166 H   0  0  0  0  0  0
  -28.1203  -28.8903   21.2396 H   0  0  0  0  0  0
  -25.9771  -25.8989   18.9891 H   0  0  0  0  0  0
  -23.9887  -27.3127   18.9748 H   0  0  0  0  0  0
  -23.7843  -30.5846   19.4020 H   0  0  0  0  0  0
  -22.7700  -29.2462   19.8493 H   0  0  0  0  0  0
  -25.1283  -36.1913   25.0815 H   0  0  0  0  0  0
  -20.9998  -28.3321   24.1368 H   0  0  0  0  0  0
  -20.5661  -26.2337   23.3618 H   0  0  0  0  0  0
  -21.6654  -26.7442   22.1207 H   0  0  0  0  0  0
  -19.6921  -25.6287   21.1259 H   0  0  0  0  0  0
  -19.6696  -27.3181   20.6726 H   0  0  0  0  0  0
  -17.4201  -26.6685   21.4034 H   0  0  0  0  0  0
  -18.0354  -26.0077   22.9017 H   0  0  0  0  0  0
  -19.7950  -30.7277   24.2276 H   0  0  0  0  0  0
  -17.5030  -31.6278   24.5158 H   0  0  0  0  0  0
  -15.5365  -30.2995   23.7651 H   0  0  0  0  0  0
  -15.8687  -28.0822   22.7077 H   0  0  0  0  0  0
  -24.5886  -30.7103   25.7791 H   0  0  0  0  0  0
  -24.8892  -32.2944   26.4831 H   0  0  0  0  0  0
  -25.8027  -30.8979   27.0244 H   0  0  0  0  0  0
  -26.2942  -29.6746   24.1203 H   0  0  0  0  0  0
  -27.3975  -29.7248   25.4749 H   0  0  0  0  0  0
  -27.8850  -30.4237   23.9501 H   0  0  0  0  0  0
  -27.2669  -33.3649   26.2043 H   0  0  0  0  0  0
  -28.3891  -32.6878   25.0349 H   0  0  0  0  0  0
  -28.0694  -31.8470   26.5431 H   0  0  0  0  0  0
  -28.2593  -38.0095   24.7506 H   0  0  0  0  0  0
  -28.1082  -36.2625   24.6298 H   0  0  0  0  0  0
  -27.2305  -37.1445   25.8870 H   0  0  0  0  0  0
  -20.9423  -29.8781   21.6822 H   0  0  0  0  0  0
  -26.0167  -38.2835   24.1420 H   0  0  0  0  0  0
  -28.3262  -16.4183   16.4471 H   0  0  0  0  0  0
  -29.6879  -15.4416   18.1336 H   0  0  0  0  0  0
  -25.6463  -21.5081   18.9994 H   0  0  0  0  0  0
  -26.5718  -20.9243   17.5207 H   0  0  0  0  0  0
  -26.5365  -19.7756   20.3522 H   0  0  0  0  0  0
  -26.4303  -17.6347   15.8993 H   0  0  0  0  0  0
  -26.8964  -19.3124   16.0846 H   0  0  0  0  0  0
  -25.6043  -18.6210   17.0891 H   0  0  0  0  0  0
  -28.8762  -23.4802   19.1664 H   0  0  0  0  0  0
  -29.9676  -23.8328   20.4623 H   0  0  0  0  0  0
  -27.5756  -21.9184   20.8153 H   0  0  0  0  0  0
  -28.8397  -22.1467   21.9554 H   0  0  0  0  0  0
  -28.0125  -24.9256   21.7450 H   0  0  0  0  0  0
  -26.9947  -24.6046   20.4006 H   0  0  0  0  0  0
  -30.4778  -20.9045   20.5452 H   0  0  0  0  0  0
  -29.3815  -20.7814   19.2440 H   0  0  0  0  0  0
  -29.2674  -15.8980   21.4913 H   0  0  0  0  0  0
  1 25  1  0  0  0
  1 30  2  0  0  0
  1 84  1  0  0  0
  2  3  1  0  0  0
  2 25  1  0  0  0
  2 86  1  0  0  0
  2 87  1  0  0  0
  3  4  1  0  0  0
  3 88  1  0  0  0
  3 89  1  0  0  0
  4  5  1  0  0  0
  4 90  1  0  0  0
  4 91  1  0  0  0
  5  6  1  0  0  0
  5 26  1  0  0  0
  5 92  1  0  0  0
  6 25  1  0  0  0
  6 93  1  0  0  0
  6 94  1  0  0  0
  7  8  2  0  0  0
  7 26  1  0  0  0
  7 29  1  0  0  0
  8  9  1  0  0  0
  8 22  1  0  0  0
  9 10  1  0  0  0
  9 27  2  0  0  0
 10 11  2  0  0  0
 10 15  1  0  0  0
 11 12  1  0  0  0
 11 95  1  0  0  0
 12 13  2  0  0  0
 12 96  1  0  0  0
 13 14  1  0  0  0
 13 31  1  0  0  0
 14 15  2  0  0  0
 14 97  1  0  0  0
 15 98  1  0  0  0
 16 17  2  0  0  0
 16 21  1  0  0  0
 16 31  1  0  0  0
 17 18  1  0  0  0
 17 99  1  0  0  0
 18 19  2  0  0  0
 18100  1  0  0  0
 19 20  1  0  0  0
 19 24  1  0  0  0
 20 21  2  0  0  0
 20101  1  0  0  0
 21 23  1  0  0  0
 22 28  1  0  0  0
 22 32  2  0  0  0
 26 27  1  0  0  0
 28102  1  0  0  0
 28103  1  0  0  0
 29104  1  0  0  0
 29105  1  0  0  0
 33 34  1  0  0  0
 33 66  1  0  0  0
 33 70  2  0  0  0
 34 36  1  0  0  0
 34 59  1  0  0  0
 34106  1  0  0  0
 35 44  2  0  0  0
 35 45  1  0  0  0
 35 68  1  0  0  0
 36 56  1  0  0  0
 36107  1  0  0  0
 37 39  1  0  0  0
 37 47  1  0  0  0
 37 66  1  0  0  0
 37108  1  0  0  0
 38 43  2  0  0  0
 38 46  1  0  0  0
 38 47  1  0  0  0
 39 64  1  0  0  0
 39 67  2  0  0  0
 40 52  1  0  0  0
 40 53  2  0  0  0
 40 58  1  0  0  0
 41109  1  0  0  0
 41110  1  0  0  0
 41111  1  0  0  0
 41 48  1  0  0  0
 42 43  1  0  0  0
 42 66  1  0  0  0
 42112  1  0  0  0
 42113  1  0  0  0
 43 44  1  0  0  0
 44114  1  0  0  0
 45 46  2  0  0  0
 45115  1  0  0  0
 46116  1  0  0  0
 47117  1  0  0  0
 47118  1  0  0  0
 48 56  1  0  0  0
 48 65  1  0  0  0
 48119  1  0  0  0
 49 50  1  0  0  0
 49 53  1  0  0  0
 49 64  1  0  0  0
 49120  1  0  0  0
 50 51  1  0  0  0
 50121  1  0  0  0
 50122  1  0  0  0
 51 52  1  0  0  0
 51123  1  0  0  0
 51124  1  0  0  0
 52125  1  0  0  0
 52126  1  0  0  0
 53 54  1  0  0  0
 54 55  2  0  0  0
 54127  1  0  0  0
 55 57  1  0  0  0
 55128  1  0  0  0
 56 69  2  0  0  0
 57 58  2  0  0  0
 57129  1  0  0  0
 58130  1  0  0  0
 59 60  1  0  0  0
 59 61  1  0  0  0
 59 62  1  0  0  0
 60131  1  0  0  0
 60132  1  0  0  0
 60133  1  0  0  0
 61134  1  0  0  0
 61135  1  0  0  0
 61136  1  0  0  0
 62137  1  0  0  0
 62138  1  0  0  0
 62139  1  0  0  0
 63 65  1  0  0  0
 63140  1  0  0  0
 63141  1  0  0  0
 63142  1  0  0  0
 64143  1  0  0  0
 65144  1  0  0  0
 68 82  1  0  0  0
 71 72  2  0  0  0
 71 74  1  0  0  0
 71145  1  0  0  0
 72 75  1  0  0  0
 72146  1  0  0  0
 73 74  2  0  0  0
 73 76  1  0  0  0
 73 78  1  0  0  0
 74 79  1  0  0  0
 75 76  2  0  0  0
 75 84  1  0  0  0
 76 85  1  0  0  0
 77 78  2  0  0  0
 77147  1  0  0  0
 77148  1  0  0  0
 78149  1  0  0  0
 79150  1  0  0  0
 79151  1  0  0  0
 79152  1  0  0  0
 80 81  1  0  0  0
 80 82  1  0  0  0
 80153  1  0  0  0
 80154  1  0  0  0
 81 83  1  0  0  0
 81155  1  0  0  0
 81156  1  0  0  0
 82157  1  0  0  0
 82158  1  0  0  0
 83 85  1  0  0  0
 83159  1  0  0  0
 83160  1  0  0  0
 84161  1  0  0  0
M  ISO  4   1 100  68 101  82 101  84 100
M  END
> <chiral flag>
0

> <version>
0

> <s_m_source_file>
/data/baiqing/PycharmProjects/Reinvent-master-3.2/result/LINK_invent/BTK/process_docking_weight1_custom_product_contain_oxygen_bond_distance_aromatic_linkinvent_7_9_3/rearranged_h_0108.sdf

> <i_m_source_file_index>
78

> <r_mmod_Potential_Energy-OPLS-2005>
416.809295654297

> <r_mmod_Stretch_Energy-OPLS-2005>
172.280212402344

> <r_mmod_Bend_Energy-OPLS-2005>
211.910873413086

> <r_mmod_Torsional_Energy-OPLS-2005>
360.656677246094

> <r_mmod_Improper_Torsional_Energy-OPLS-2005>
8.30072402954102

> <r_mmod_Van_der_Waal_Energy-OPLS-2005>
154.512985229492

> <r_mmod_Electrostatic_Energy-OPLS-2005>
-394.812622070312

> <r_mmod_Solvation_Energy-OPLS-2005>
-204.152633666992

> <b_mmod_Minimization_Converged-OPLS-2005>
0

> <r_mmod_RMS_Derivative-OPLS-2005>
2.39930534362793

$$$$
79
                    3D
 Structure written by MMmdl.
166175  0  0  1  0            999 V2000
  -30.6996  -14.4810   20.5120 C   0  0  0  0  0  0
  -30.4106  -12.2967   19.4347 C   0  0  0  0  0  0
  -29.4903  -12.4905   18.2124 C   0  0  0  0  0  0
  -28.0107  -12.3607   18.6218 C   0  0  0  0  0  0
  -27.6534  -13.2121   19.8706 C   0  0  2  0  0  0
  -28.6945  -13.0286   20.9971 C   0  0  0  0  0  0
  -25.2551  -13.8202   20.5691 C   0  0  0  0  0  0
  -24.1801  -13.0463   20.9189 C   0  0  0  0  0  0
  -24.6371  -11.6942   20.8752 C   0  0  0  0  0  0
  -23.9049  -10.4311   21.0399 C   0  0  0  0  0  0
  -24.3606   -9.4229   21.9172 C   0  0  0  0  0  0
  -23.6289   -8.2256   22.0741 C   0  0  0  0  0  0
  -22.4265   -8.0295   21.3551 C   0  0  0  0  0  0
  -21.9905   -9.0261   20.4645 C   0  0  0  0  0  0
  -22.7223  -10.2146   20.3051 C   0  0  0  0  0  0
  -21.6862   -6.0741   22.5278 C   0  0  0  0  0  0
  -21.4017   -6.5642   23.8215 C   0  0  0  0  0  0
  -21.3651   -5.6795   24.9177 C   0  0  0  0  0  0
  -21.6037   -4.3059   24.7224 C   0  0  0  0  0  0
  -21.8823   -3.8153   23.4341 C   0  0  0  0  0  0
  -21.9192   -4.6968   22.3398 C   0  0  0  0  0  0
  -22.7826  -13.5258   21.1850 C   0  0  0  0  0  0
  -22.1659   -4.2158   21.0979 F   0  0  0  0  0  0
  -21.5625   -3.4540   25.7733 F   0  0  0  0  0  0
  -30.0216  -13.3064   20.4333 N   0  0  0  0  0  0
  -26.2970  -12.9368   20.3369 N   0  0  0  0  0  0
  -25.9292  -11.6529   20.5781 N   0  0  0  0  0  0
  -22.0473  -12.8225   22.0406 N   0  0  0  0  0  0
  -25.4295  -15.1899   20.4036 N   0  0  0  0  0  0
  -31.8703  -14.5924   20.1405 O   0  0  0  0  0  0
  -21.6646   -6.8882   21.4242 O   0  0  0  0  0  0
  -22.3502  -14.5557   20.6710 O   0  0  0  0  0  0
  -24.6166  -31.8673   23.2121 C   0  0  0  0  0  0
  -25.9058  -32.4811   23.8412 C   0  0  1  0  0  0
  -27.2207  -27.4165   20.1155 C   0  0  0  0  0  0
  -25.5908  -33.8618   24.2330 N   0  0  0  0  0  0
  -23.4054  -30.4912   21.5497 C   0  0  2  0  0  0
  -24.8510  -28.9561   20.1134 C   0  0  0  0  0  0
  -22.7401  -29.4672   22.4969 C   0  0  0  0  0  0
  -18.0247  -28.1398   22.8510 C   0  0  0  0  0  0
  -24.1487  -36.7319   23.2635 C   0  0  0  0  0  0
  -25.9370  -30.8280   21.3666 C   0  0  0  0  0  0
  -26.0110  -29.4610   20.7163 C   0  0  0  0  0  0
  -27.2028  -28.6973   20.7155 C   0  0  0  0  0  0
  -26.0524  -26.9312   19.4968 C   0  0  0  0  0  0
  -24.8672  -27.6900   19.5013 C   0  0  0  0  0  0
  -23.6131  -29.8225   20.1637 C   0  0  0  0  0  0
  -25.4113  -36.3113   24.0327 C   0  0  1  0  0  0
  -20.5836  -28.3690   23.1278 C   0  0  2  0  0  0
  -20.6765  -26.9439   22.5375 C   0  0  0  0  0  0
  -19.5706  -26.6467   21.5168 C   0  0  0  0  0  0
  -18.1943  -26.7913   22.1720 C   0  0  0  0  0  0
  -19.1497  -28.8865   23.2887 C   0  0  0  0  0  0
  -18.9449  -30.1487   23.8876 C   0  0  0  0  0  0
  -17.6465  -30.6638   24.0559 C   0  0  0  0  0  0
  -25.9040  -34.9475   23.5128 C   0  0  0  0  0  0
  -16.5348  -29.9142   23.6357 C   0  0  0  0  0  0
  -16.7242  -28.6538   23.0395 C   0  0  0  0  0  0
  -26.4474  -31.6596   25.0756 C   0  0  0  0  0  0
  -25.3746  -31.3711   26.1505 C   0  0  0  0  0  0
  -27.0288  -30.3032   24.6146 C   0  0  0  0  0  0
  -27.6037  -32.4328   25.7518 C   0  0  0  0  0  0
  -27.5584  -37.1813   24.8465 C   0  0  0  0  0  0
  -21.4131  -29.3033   22.3655 N   0  0  0  0  0  0
  -26.4309  -37.3790   23.9390 N   0  0  0  0  0  0
  -24.6705  -31.0770   22.1010 N   0  0  0  0  0  0
  -23.4148  -28.8263   23.3071 O   0  0  0  0  0  0
  -28.3494  -26.6297   20.1008 O   0  0  0  0  0  0
  -26.5598  -34.8935   22.4686 O   0  0  0  0  0  0
  -23.5347  -32.1425   23.7513 O   0  0  0  0  0  0
  -29.4678  -18.9652   19.3161 C   0  0  0  0  0  0
  -28.8359  -20.2229   19.3879 C   0  0  0  0  0  0
  -28.8954  -18.5386   21.6335 C   0  0  0  0  0  0
  -29.5511  -18.1314   20.4517 C   0  0  0  0  0  0
  -28.2790  -20.6929   20.5965 C   0  0  0  0  0  0
  -28.2565  -19.8108   21.7138 C   0  0  0  0  0  0
  -27.8061  -24.3811   21.1504 C   0  0  0  0  0  0
  -28.3624  -23.2353   20.6457 C   0  0  0  0  0  0
  -26.4834  -24.2853   21.8393 C   0  0  0  0  0  0
  -25.8494  -22.9017   21.9982 C   0  0  0  0  0  0
  -26.2481  -21.9671   20.8522 C   0  0  0  0  0  0
  -29.7570  -23.2111   20.0347 C   0  0  0  0  0  0
  -27.0416  -19.2862   23.7022 C   0  0  0  0  0  0
  -30.4915  -16.9205   20.4205 C   0  0  0  0  0  0
  -28.5057  -25.7635   21.2426 C   0  0  0  0  0  0
  -27.6969  -21.9891   20.6600 N   0  0  0  0  0  0
  -29.9668  -15.5863   20.7626 N   0  0  0  0  0  0
  -25.8942  -25.2478   22.3390 O   0  0  0  0  0  0
  -27.6533  -20.2596   22.8696 O   0  0  0  0  0  0
  -31.4557  -12.3808   19.1283 H   0  0  0  0  0  0
  -30.3021  -11.2933   19.8507 H   0  0  0  0  0  0
  -29.7278  -11.7622   17.4364 H   0  0  0  0  0  0
  -29.6592  -13.4723   17.7705 H   0  0  0  0  0  0
  -27.8087  -11.3073   18.8189 H   0  0  0  0  0  0
  -27.3671  -12.6387   17.7868 H   0  0  0  0  0  0
  -27.6862  -14.2547   19.5549 H   0  0  0  0  0  0
  -28.6658  -12.0084   21.3816 H   0  0  0  0  0  0
  -28.4702  -13.6789   21.8444 H   0  0  0  0  0  0
  -25.2750   -9.5703   22.4751 H   0  0  0  0  0  0
  -24.0017   -7.4634   22.7437 H   0  0  0  0  0  0
  -21.0855   -8.8774   19.8927 H   0  0  0  0  0  0
  -22.3685  -10.9688   19.6157 H   0  0  0  0  0  0
  -21.2025   -7.6158   23.9729 H   0  0  0  0  0  0
  -21.1459   -6.0519   25.9081 H   0  0  0  0  0  0
  -22.0605   -2.7615   23.2843 H   0  0  0  0  0  0
  -22.4126  -11.9891   22.4770 H   0  0  0  0  0  0
  -21.1082  -13.1220   22.2635 H   0  0  0  0  0  0
  -24.6627  -15.8473   20.4960 H   0  0  0  0  0  0
  -26.2760  -15.6193   20.0500 H   0  0  0  0  0  0
  -26.7171  -32.5518   23.1201 H   0  0  0  0  0  0
  -25.0065  -33.9768   25.0483 H   0  0  0  0  0  0
  -22.6921  -31.3074   21.4107 H   0  0  0  0  0  0
  -23.3743  -35.9659   23.3320 H   0  0  0  0  0  0
  -24.3587  -36.8920   22.2051 H   0  0  0  0  0  0
  -23.7251  -37.6539   23.6634 H   0  0  0  0  0  0
  -26.0558  -31.5929   20.5982 H   0  0  0  0  0  0
  -26.8244  -30.8797   21.9865 H   0  0  0  0  0  0
  -28.1020  -29.0810   21.1796 H   0  0  0  0  0  0
  -26.0554  -25.9541   19.0345 H   0  0  0  0  0  0
  -23.9758  -27.2962   19.0338 H   0  0  0  0  0  0
  -23.7166  -30.5960   19.4024 H   0  0  0  0  0  0
  -22.7399  -29.2351   19.8748 H   0  0  0  0  0  0
  -25.1287  -36.1992   25.0820 H   0  0  0  0  0  0
  -20.9921  -28.3226   24.1410 H   0  0  0  0  0  0
  -20.5768  -26.2329   23.3603 H   0  0  0  0  0  0
  -21.6658  -26.7582   22.1184 H   0  0  0  0  0  0
  -19.6854  -25.6458   21.0988 H   0  0  0  0  0  0
  -19.6530  -27.3441   20.6805 H   0  0  0  0  0  0
  -17.4108  -26.6495   21.4269 H   0  0  0  0  0  0
  -18.0561  -26.0117   22.9233 H   0  0  0  0  0  0
  -19.7925  -30.7297   24.2245 H   0  0  0  0  0  0
  -17.5045  -31.6314   24.5171 H   0  0  0  0  0  0
  -15.5380  -30.3070   23.7790 H   0  0  0  0  0  0
  -15.8605  -28.0867   22.7201 H   0  0  0  0  0  0
  -24.5915  -30.7049   25.7865 H   0  0  0  0  0  0
  -24.8938  -32.2867   26.4961 H   0  0  0  0  0  0
  -25.8110  -30.8895   27.0263 H   0  0  0  0  0  0
  -26.2835  -29.6821   24.1172 H   0  0  0  0  0  0
  -27.4005  -29.7236   25.4603 H   0  0  0  0  0  0
  -27.8688  -30.4322   23.9323 H   0  0  0  0  0  0
  -27.2633  -33.3609   26.2112 H   0  0  0  0  0  0
  -28.3831  -32.6930   25.0350 H   0  0  0  0  0  0
  -28.0715  -31.8459   26.5427 H   0  0  0  0  0  0
  -28.2612  -38.0102   24.7498 H   0  0  0  0  0  0
  -28.1067  -36.2633   24.6301 H   0  0  0  0  0  0
  -27.2289  -37.1477   25.8866 H   0  0  0  0  0  0
  -20.9323  -29.8627   21.6758 H   0  0  0  0  0  0
  -26.0203  -38.2872   24.1384 H   0  0  0  0  0  0
  -29.9405  -18.6724   18.3895 H   0  0  0  0  0  0
  -28.8091  -20.8447   18.5059 H   0  0  0  0  0  0
  -28.9617  -17.8923   22.4969 H   0  0  0  0  0  0
  -24.7647  -22.9924   22.0652 H   0  0  0  0  0  0
  -26.1871  -22.4826   22.9457 H   0  0  0  0  0  0
  -25.7817  -22.3064   19.9241 H   0  0  0  0  0  0
  -25.8718  -20.9604   21.0406 H   0  0  0  0  0  0
  -30.1382  -24.2090   19.8289 H   0  0  0  0  0  0
  -29.7619  -22.6953   19.0767 H   0  0  0  0  0  0
  -30.4626  -22.7162   20.7035 H   0  0  0  0  0  0
  -26.4981  -19.7954   24.4973 H   0  0  0  0  0  0
  -27.7693  -18.6287   24.1782 H   0  0  0  0  0  0
  -26.3194  -18.6858   23.1430 H   0  0  0  0  0  0
  -31.3243  -17.1414   21.0895 H   0  0  0  0  0  0
  -30.9349  -16.8689   19.4224 H   0  0  0  0  0  0
  -29.5731  -25.6051   21.3845 H   0  0  0  0  0  0
  -28.2036  -26.2870   22.1511 H   0  0  0  0  0  0
  -28.9978  -15.4873   21.0213 H   0  0  0  0  0  0
  1 25  1  0  0  0
  1 30  2  0  0  0
  1 87  1  0  0  0
  2  3  1  0  0  0
  2 25  1  0  0  0
  2 90  1  0  0  0
  2 91  1  0  0  0
  3  4  1  0  0  0
  3 92  1  0  0  0
  3 93  1  0  0  0
  4  5  1  0  0  0
  4 94  1  0  0  0
  4 95  1  0  0  0
  5  6  1  0  0  0
  5 26  1  0  0  0
  5 96  1  0  0  0
  6 25  1  0  0  0
  6 97  1  0  0  0
  6 98  1  0  0  0
  7  8  2  0  0  0
  7 26  1  0  0  0
  7 29  1  0  0  0
  8  9  1  0  0  0
  8 22  1  0  0  0
  9 10  1  0  0  0
  9 27  2  0  0  0
 10 11  2  0  0  0
 10 15  1  0  0  0
 11 12  1  0  0  0
 11 99  1  0  0  0
 12 13  2  0  0  0
 12100  1  0  0  0
 13 14  1  0  0  0
 13 31  1  0  0  0
 14 15  2  0  0  0
 14101  1  0  0  0
 15102  1  0  0  0
 16 17  2  0  0  0
 16 21  1  0  0  0
 16 31  1  0  0  0
 17 18  1  0  0  0
 17103  1  0  0  0
 18 19  2  0  0  0
 18104  1  0  0  0
 19 20  1  0  0  0
 19 24  1  0  0  0
 20 21  2  0  0  0
 20105  1  0  0  0
 21 23  1  0  0  0
 22 28  1  0  0  0
 22 32  2  0  0  0
 26 27  1  0  0  0
 28106  1  0  0  0
 28107  1  0  0  0
 29108  1  0  0  0
 29109  1  0  0  0
 33 34  1  0  0  0
 33 66  1  0  0  0
 33 70  2  0  0  0
 34 36  1  0  0  0
 34 59  1  0  0  0
 34110  1  0  0  0
 35 44  2  0  0  0
 35 45  1  0  0  0
 35 68  1  0  0  0
 36 56  1  0  0  0
 36111  1  0  0  0
 37 39  1  0  0  0
 37 47  1  0  0  0
 37 66  1  0  0  0
 37112  1  0  0  0
 38 43  2  0  0  0
 38 46  1  0  0  0
 38 47  1  0  0  0
 39 64  1  0  0  0
 39 67  2  0  0  0
 40 52  1  0  0  0
 40 53  2  0  0  0
 40 58  1  0  0  0
 41113  1  0  0  0
 41114  1  0  0  0
 41115  1  0  0  0
 41 48  1  0  0  0
 42 43  1  0  0  0
 42 66  1  0  0  0
 42116  1  0  0  0
 42117  1  0  0  0
 43 44  1  0  0  0
 44118  1  0  0  0
 45 46  2  0  0  0
 45119  1  0  0  0
 46120  1  0  0  0
 47121  1  0  0  0
 47122  1  0  0  0
 48 56  1  0  0  0
 48 65  1  0  0  0
 48123  1  0  0  0
 49 50  1  0  0  0
 49 53  1  0  0  0
 49 64  1  0  0  0
 49124  1  0  0  0
 50 51  1  0  0  0
 50125  1  0  0  0
 50126  1  0  0  0
 51 52  1  0  0  0
 51127  1  0  0  0
 51128  1  0  0  0
 52129  1  0  0  0
 52130  1  0  0  0
 53 54  1  0  0  0
 54 55  2  0  0  0
 54131  1  0  0  0
 55 57  1  0  0  0
 55132  1  0  0  0
 56 69  2  0  0  0
 57 58  2  0  0  0
 57133  1  0  0  0
 58134  1  0  0  0
 59 60  1  0  0  0
 59 61  1  0  0  0
 59 62  1  0  0  0
 60135  1  0  0  0
 60136  1  0  0  0
 60137  1  0  0  0
 61138  1  0  0  0
 61139  1  0  0  0
 61140  1  0  0  0
 62141  1  0  0  0
 62142  1  0  0  0
 62143  1  0  0  0
 63 65  1  0  0  0
 63144  1  0  0  0
 63145  1  0  0  0
 63146  1  0  0  0
 64147  1  0  0  0
 65148  1  0  0  0
 68 85  1  0  0  0
 71 72  2  0  0  0
 71 74  1  0  0  0
 71149  1  0  0  0
 72 75  1  0  0  0
 72150  1  0  0  0
 73 74  2  0  0  0
 73 76  1  0  0  0
 73151  1  0  0  0
 74 84  1  0  0  0
 75 76  2  0  0  0
 75 86  1  0  0  0
 76 89  1  0  0  0
 77 78  2  0  0  0
 77 79  1  0  0  0
 77 85  1  0  0  0
 78 82  1  0  0  0
 78 86  1  0  0  0
 79 80  1  0  0  0
 79 88  2  0  0  0
 80 81  1  0  0  0
 80152  1  0  0  0
 80153  1  0  0  0
 81 86  1  0  0  0
 81154  1  0  0  0
 81155  1  0  0  0
 82156  1  0  0  0
 82157  1  0  0  0
 82158  1  0  0  0
 83 89  1  0  0  0
 83159  1  0  0  0
 83160  1  0  0  0
 83161  1  0  0  0
 84 87  1  0  0  0
 84162  1  0  0  0
 84163  1  0  0  0
 85164  1  0  0  0
 85165  1  0  0  0
 87166  1  0  0  0
M  ISO  4   1 100  68 101  85 101  87 100
M  END
> <chiral flag>
0

> <version>
0

> <s_m_source_file>
/data/baiqing/PycharmProjects/Reinvent-master-3.2/result/LINK_invent/BTK/process_docking_weight1_custom_product_contain_oxygen_bond_distance_aromatic_linkinvent_7_9_3/rearranged_h_0108.sdf

> <i_m_source_file_index>
79

> <r_mmod_Potential_Energy-OPLS-2005>
-15.9729852676392

> <r_mmod_Stretch_Energy-OPLS-2005>
46.9717140197754

> <r_mmod_Bend_Energy-OPLS-2005>
104.985061645508

> <r_mmod_Torsional_Energy-OPLS-2005>
262.062713623047

> <r_mmod_Improper_Torsional_Energy-OPLS-2005>
8.01962280273438

> <r_mmod_Van_der_Waal_Energy-OPLS-2005>
167.279708862305

> <r_mmod_Electrostatic_Energy-OPLS-2005>
-397.974822998047

> <r_mmod_Solvation_Energy-OPLS-2005>
-225.886810302734

> <b_mmod_Minimization_Converged-OPLS-2005>
0

> <r_mmod_RMS_Derivative-OPLS-2005>
3.70280647277832

$$$$
80
                    3D
 Structure written by MMmdl.
162171  0  0  1  0            999 V2000
  -30.7007  -14.5339   20.5469 C   0  0  0  0  0  0
  -30.4206  -12.3326   19.4526 C   0  0  0  0  0  0
  -29.5088  -12.5136   18.2240 C   0  0  0  0  0  0
  -28.0287  -12.3583   18.6273 C   0  0  0  0  0  0
  -27.6599  -13.2145   19.8709 C   0  0  2  0  0  0
  -28.6996  -13.0509   21.0035 C   0  0  0  0  0  0
  -25.2591  -13.8184   20.5659 C   0  0  0  0  0  0
  -24.1856  -13.0440   20.9179 C   0  0  0  0  0  0
  -24.6431  -11.6910   20.8711 C   0  0  0  0  0  0
  -23.9086  -10.4291   21.0363 C   0  0  0  0  0  0
  -24.3649   -9.4219   21.9159 C   0  0  0  0  0  0
  -23.6319   -8.2245   22.0730 C   0  0  0  0  0  0
  -22.4284   -8.0283   21.3539 C   0  0  0  0  0  0
  -21.9935   -9.0262   20.4635 C   0  0  0  0  0  0
  -22.7257  -10.2141   20.3020 C   0  0  0  0  0  0
  -21.6866   -6.0732   22.5280 C   0  0  0  0  0  0
  -21.4021   -6.5630   23.8212 C   0  0  0  0  0  0
  -21.3670   -5.6778   24.9171 C   0  0  0  0  0  0
  -21.6058   -4.3049   24.7214 C   0  0  0  0  0  0
  -21.8831   -3.8141   23.4333 C   0  0  0  0  0  0
  -21.9205   -4.6963   22.3399 C   0  0  0  0  0  0
  -22.7879  -13.5226   21.1848 C   0  0  0  0  0  0
  -22.1668   -4.2150   21.0965 F   0  0  0  0  0  0
  -21.5646   -3.4531   25.7727 F   0  0  0  0  0  0
  -30.0237  -13.3523   20.4425 N   0  0  0  0  0  0
  -26.3024  -12.9371   20.3323 N   0  0  0  0  0  0
  -25.9360  -11.6516   20.5747 N   0  0  0  0  0  0
  -22.0543  -12.8201   22.0391 N   0  0  0  0  0  0
  -25.4337  -15.1909   20.4014 N   0  0  0  0  0  0
  -31.8392  -14.6698   20.0957 O   0  0  0  0  0  0
  -21.6657   -6.8877   21.4225 O   0  0  0  0  0  0
  -22.3534  -14.5518   20.6694 O   0  0  0  0  0  0
  -24.6136  -31.8675   23.2074 C   0  0  0  0  0  0
  -25.9026  -32.4824   23.8382 C   0  0  1  0  0  0
  -27.2485  -27.4189   20.1049 C   0  0  0  0  0  0
  -25.5892  -33.8613   24.2330 N   0  0  0  0  0  0
  -23.4054  -30.4883   21.5471 C   0  0  2  0  0  0
  -24.8606  -28.9515   20.1175 C   0  0  0  0  0  0
  -22.7419  -29.4648   22.4973 C   0  0  0  0  0  0
  -18.0277  -28.1344   22.8507 C   0  0  0  0  0  0
  -24.1498  -36.7310   23.2642 C   0  0  0  0  0  0
  -25.9340  -30.8332   21.3608 C   0  0  0  0  0  0
  -26.0192  -29.4619   20.7152 C   0  0  0  0  0  0
  -27.2171  -28.7021   20.7077 C   0  0  0  0  0  0
  -26.0728  -26.9422   19.4833 C   0  0  0  0  0  0
  -24.8837  -27.6912   19.4990 C   0  0  0  0  0  0
  -23.6179  -29.8141   20.1647 C   0  0  0  0  0  0
  -25.4108  -36.3106   24.0354 C   0  0  1  0  0  0
  -20.5883  -28.3642   23.1325 C   0  0  2  0  0  0
  -20.6768  -26.9372   22.5436 C   0  0  0  0  0  0
  -19.5744  -26.6365   21.5224 C   0  0  0  0  0  0
  -18.1916  -26.7900   22.1632 C   0  0  0  0  0  0
  -19.1535  -28.8806   23.2921 C   0  0  0  0  0  0
  -18.9449  -30.1410   23.8931 C   0  0  0  0  0  0
  -17.6447  -30.6559   24.0553 C   0  0  0  0  0  0
  -25.9030  -34.9478   23.5144 C   0  0  0  0  0  0
  -16.5340  -29.9052   23.6306 C   0  0  0  0  0  0
  -16.7267  -28.6458   23.0360 C   0  0  0  0  0  0
  -26.4455  -31.6578   25.0685 C   0  0  0  0  0  0
  -25.3742  -31.3664   26.1444 C   0  0  0  0  0  0
  -27.0266  -30.3038   24.5988 C   0  0  0  0  0  0
  -27.6053  -32.4279   25.7430 C   0  0  0  0  0  0
  -27.5596  -37.1795   24.8455 C   0  0  0  0  0  0
  -21.4148  -29.3035   22.3742 N   0  0  0  0  0  0
  -26.4289  -37.3798   23.9423 N   0  0  0  0  0  0
  -24.6688  -31.0767   22.0983 N   0  0  0  0  0  0
  -23.4180  -28.8202   23.3026 O   0  0  0  0  0  0
  -28.4068  -26.6564   20.1017 O   0  0  0  0  0  0
  -26.5581  -34.8927   22.4694 O   0  0  0  0  0  0
  -23.5326  -32.1421   23.7463 O   0  0  0  0  0  0
  -30.5185  -19.4158   20.5148 C   0  0  0  0  0  0
  -28.4890  -18.3378   20.7949 C   0  0  0  0  0  0
  -29.8526  -18.1831   20.8515 C   0  0  0  0  0  0
  -29.6975  -20.4950   20.2431 C   0  0  0  0  0  0
  -30.6893  -24.8717   20.2576 C   0  0  0  0  0  0
  -29.4422  -24.3638   20.1321 C   0  0  0  0  0  0
  -31.9183  -24.1752   19.8901 C   0  0  0  0  0  0
  -31.8596  -23.2382   18.6978 C   0  0  0  0  0  0
  -31.2886  -21.8580   19.0352 C   0  0  0  0  0  0
  -29.0586  -22.8937   19.7446 C   0  0  1  0  0  0
  -28.3821  -22.8257   18.3638 C   0  0  0  0  0  0
  -30.6182  -16.9369   21.2972 C   0  0  0  0  0  0
  -28.2696  -25.2758   20.5317 C   0  0  0  0  0  0
  -30.0853  -21.8207   19.8810 N   0  0  0  0  0  0
  -30.0283  -15.5947   21.0590 N   0  0  0  0  0  0
  -32.9873  -24.3464   20.4828 O   0  0  0  0  0  0
  -28.0266  -19.9763   20.3773 S   0  0  0  0  0  0
  -31.4711  -12.4101   19.1661 H   0  0  0  0  0  0
  -30.3024  -11.3324   19.8735 H   0  0  0  0  0  0
  -29.7646  -11.7903   17.4499 H   0  0  0  0  0  0
  -29.6734  -13.5040   17.7934 H   0  0  0  0  0  0
  -27.8510  -11.3031   18.8374 H   0  0  0  0  0  0
  -27.3821  -12.6154   17.7877 H   0  0  0  0  0  0
  -27.6905  -14.2548   19.5486 H   0  0  0  0  0  0
  -28.6858  -12.0337   21.3969 H   0  0  0  0  0  0
  -28.4568  -13.6980   21.8490 H   0  0  0  0  0  0
  -25.2810   -9.5709   22.4707 H   0  0  0  0  0  0
  -24.0076   -7.4624   22.7439 H   0  0  0  0  0  0
  -21.0884   -8.8760   19.8913 H   0  0  0  0  0  0
  -22.3717  -10.9679   19.6120 H   0  0  0  0  0  0
  -21.1975   -7.6130   23.9725 H   0  0  0  0  0  0
  -21.1498   -6.0488   25.9084 H   0  0  0  0  0  0
  -22.0596   -2.7597   23.2824 H   0  0  0  0  0  0
  -22.4221  -11.9906   22.4811 H   0  0  0  0  0  0
  -21.1142  -13.1176   22.2581 H   0  0  0  0  0  0
  -24.6633  -15.8441   20.4843 H   0  0  0  0  0  0
  -26.2741  -15.6179   20.0320 H   0  0  0  0  0  0
  -26.7098  -32.5531   23.1147 H   0  0  0  0  0  0
  -25.0075  -33.9783   25.0496 H   0  0  0  0  0  0
  -22.6928  -31.3022   21.4009 H   0  0  0  0  0  0
  -23.3783  -35.9619   23.3266 H   0  0  0  0  0  0
  -24.3618  -36.8951   22.2066 H   0  0  0  0  0  0
  -23.7213  -37.6496   23.6659 H   0  0  0  0  0  0
  -26.0354  -31.5937   20.5850 H   0  0  0  0  0  0
  -26.8263  -30.9014   21.9705 H   0  0  0  0  0  0
  -28.1092  -29.0943   21.1759 H   0  0  0  0  0  0
  -26.0668  -25.9947   18.9666 H   0  0  0  0  0  0
  -23.9961  -27.2964   19.0243 H   0  0  0  0  0  0
  -23.7209  -30.5831   19.3981 H   0  0  0  0  0  0
  -22.7449  -29.2268   19.8716 H   0  0  0  0  0  0
  -25.1283  -36.1990   25.0849 H   0  0  0  0  0  0
  -20.9980  -28.3195   24.1438 H   0  0  0  0  0  0
  -20.5661  -26.2231   23.3618 H   0  0  0  0  0  0
  -21.6628  -26.7392   22.1226 H   0  0  0  0  0  0
  -19.6902  -25.6281   21.1223 H   0  0  0  0  0  0
  -19.6688  -27.3201   20.6775 H   0  0  0  0  0  0
  -17.4200  -26.6683   21.4015 H   0  0  0  0  0  0
  -18.0295  -26.0011   22.8997 H   0  0  0  0  0  0
  -19.7922  -30.7227   24.2326 H   0  0  0  0  0  0
  -17.4990  -31.6251   24.5123 H   0  0  0  0  0  0
  -15.5341  -30.2960   23.7596 H   0  0  0  0  0  0
  -15.8669  -28.0770   22.7071 H   0  0  0  0  0  0
  -24.5919  -30.6997   25.7788 H   0  0  0  0  0  0
  -24.8905  -32.2794   26.4915 H   0  0  0  0  0  0
  -25.8111  -30.8822   27.0178 H   0  0  0  0  0  0
  -26.2754  -29.6811   24.1094 H   0  0  0  0  0  0
  -27.4150  -29.7253   25.4375 H   0  0  0  0  0  0
  -27.8544  -30.4410   23.9028 H   0  0  0  0  0  0
  -27.2707  -33.3589   26.2006 H   0  0  0  0  0  0
  -28.3835  -32.6807   25.0225 H   0  0  0  0  0  0
  -28.0718  -31.8377   26.5319 H   0  0  0  0  0  0
  -28.2587  -38.0132   24.7564 H   0  0  0  0  0  0
  -28.1133  -36.2659   24.6198 H   0  0  0  0  0  0
  -27.2322  -37.1342   25.8865 H   0  0  0  0  0  0
  -20.9282  -29.8771   21.6999 H   0  0  0  0  0  0
  -26.0196  -38.2875   24.1462 H   0  0  0  0  0  0
  -31.5985  -19.4631   20.5167 H   0  0  0  0  0  0
  -27.7130  -17.6148   21.0142 H   0  0  0  0  0  0
  -30.8133  -25.8872   20.6055 H   0  0  0  0  0  0
  -32.8633  -23.1313   18.2876 H   0  0  0  0  0  0
  -31.2671  -23.7141   17.9178 H   0  0  0  0  0  0
  -32.0936  -21.3104   19.5273 H   0  0  0  0  0  0
  -31.0834  -21.3232   18.1078 H   0  0  0  0  0  0
  -28.2913  -22.6576   20.4829 H   0  0  0  0  0  0
  -29.0482  -23.1562   17.5673 H   0  0  0  0  0  0
  -27.4856  -23.4439   18.3239 H   0  0  0  0  0  0
  -28.0702  -21.8097   18.1238 H   0  0  0  0  0  0
  -30.7639  -17.0081   22.3741 H   0  0  0  0  0  0
  -31.6272  -16.9890   20.8848 H   0  0  0  0  0  0
  -28.2138  -25.2749   21.6200 H   0  0  0  0  0  0
  -27.3469  -24.8171   20.1864 H   0  0  0  0  0  0
  -29.1023  -15.4263   21.4188 H   0  0  0  0  0  0
  1 25  1  0  0  0
  1 30  2  0  0  0
  1 85  1  0  0  0
  2  3  1  0  0  0
  2 25  1  0  0  0
  2 88  1  0  0  0
  2 89  1  0  0  0
  3  4  1  0  0  0
  3 90  1  0  0  0
  3 91  1  0  0  0
  4  5  1  0  0  0
  4 92  1  0  0  0
  4 93  1  0  0  0
  5  6  1  0  0  0
  5 26  1  0  0  0
  5 94  1  0  0  0
  6 25  1  0  0  0
  6 95  1  0  0  0
  6 96  1  0  0  0
  7  8  2  0  0  0
  7 26  1  0  0  0
  7 29  1  0  0  0
  8  9  1  0  0  0
  8 22  1  0  0  0
  9 10  1  0  0  0
  9 27  2  0  0  0
 10 11  2  0  0  0
 10 15  1  0  0  0
 11 12  1  0  0  0
 11 97  1  0  0  0
 12 13  2  0  0  0
 12 98  1  0  0  0
 13 14  1  0  0  0
 13 31  1  0  0  0
 14 15  2  0  0  0
 14 99  1  0  0  0
 15100  1  0  0  0
 16 17  2  0  0  0
 16 21  1  0  0  0
 16 31  1  0  0  0
 17 18  1  0  0  0
 17101  1  0  0  0
 18 19  2  0  0  0
 18102  1  0  0  0
 19 20  1  0  0  0
 19 24  1  0  0  0
 20 21  2  0  0  0
 20103  1  0  0  0
 21 23  1  0  0  0
 22 28  1  0  0  0
 22 32  2  0  0  0
 26 27  1  0  0  0
 28104  1  0  0  0
 28105  1  0  0  0
 29106  1  0  0  0
 29107  1  0  0  0
 33 34  1  0  0  0
 33 66  1  0  0  0
 33 70  2  0  0  0
 34 36  1  0  0  0
 34 59  1  0  0  0
 34108  1  0  0  0
 35 44  2  0  0  0
 35 45  1  0  0  0
 35 68  1  0  0  0
 36 56  1  0  0  0
 36109  1  0  0  0
 37 39  1  0  0  0
 37 47  1  0  0  0
 37 66  1  0  0  0
 37110  1  0  0  0
 38 43  2  0  0  0
 38 46  1  0  0  0
 38 47  1  0  0  0
 39 64  1  0  0  0
 39 67  2  0  0  0
 40 52  1  0  0  0
 40 53  2  0  0  0
 40 58  1  0  0  0
 41111  1  0  0  0
 41112  1  0  0  0
 41113  1  0  0  0
 41 48  1  0  0  0
 42 43  1  0  0  0
 42 66  1  0  0  0
 42114  1  0  0  0
 42115  1  0  0  0
 43 44  1  0  0  0
 44116  1  0  0  0
 45 46  2  0  0  0
 45117  1  0  0  0
 46118  1  0  0  0
 47119  1  0  0  0
 47120  1  0  0  0
 48 56  1  0  0  0
 48 65  1  0  0  0
 48121  1  0  0  0
 49 50  1  0  0  0
 49 53  1  0  0  0
 49 64  1  0  0  0
 49122  1  0  0  0
 50 51  1  0  0  0
 50123  1  0  0  0
 50124  1  0  0  0
 51 52  1  0  0  0
 51125  1  0  0  0
 51126  1  0  0  0
 52127  1  0  0  0
 52128  1  0  0  0
 53 54  1  0  0  0
 54 55  2  0  0  0
 54129  1  0  0  0
 55 57  1  0  0  0
 55130  1  0  0  0
 56 69  2  0  0  0
 57 58  2  0  0  0
 57131  1  0  0  0
 58132  1  0  0  0
 59 60  1  0  0  0
 59 61  1  0  0  0
 59 62  1  0  0  0
 60133  1  0  0  0
 60134  1  0  0  0
 60135  1  0  0  0
 61136  1  0  0  0
 61137  1  0  0  0
 61138  1  0  0  0
 62139  1  0  0  0
 62140  1  0  0  0
 62141  1  0  0  0
 63 65  1  0  0  0
 63142  1  0  0  0
 63143  1  0  0  0
 63144  1  0  0  0
 64145  1  0  0  0
 65146  1  0  0  0
 68 83  1  0  0  0
 71 73  1  0  0  0
 71 74  2  0  0  0
 71147  1  0  0  0
 72 73  2  0  0  0
 72 87  1  0  0  0
 72148  1  0  0  0
 73 82  1  0  0  0
 74 84  1  0  0  0
 74 87  1  0  0  0
 75 76  2  0  0  0
 75 77  1  0  0  0
 75149  1  0  0  0
 76 80  1  0  0  0
 76 83  1  0  0  0
 77 78  1  0  0  0
 77 86  2  0  0  0
 78 79  1  0  0  0
 78150  1  0  0  0
 78151  1  0  0  0
 79 84  1  0  0  0
 79152  1  0  0  0
 79153  1  0  0  0
 80 81  1  0  0  0
 80 84  1  0  0  0
 80154  1  0  0  0
 81155  1  0  0  0
 81156  1  0  0  0
 81157  1  0  0  0
 82 85  1  0  0  0
 82158  1  0  0  0
 82159  1  0  0  0
 83160  1  0  0  0
 83161  1  0  0  0
 85162  1  0  0  0
M  ISO  4   1 100  68 101  83 101  85 100
M  END
> <chiral flag>
0

> <version>
0

> <s_m_source_file>
/data/baiqing/PycharmProjects/Reinvent-master-3.2/result/LINK_invent/BTK/process_docking_weight1_custom_product_contain_oxygen_bond_distance_aromatic_linkinvent_7_9_3/rearranged_h_0108.sdf

> <i_m_source_file_index>
80

> <r_mmod_Potential_Energy-OPLS-2005>
-143.311965942383

> <r_mmod_Stretch_Energy-OPLS-2005>
52.477481842041

> <r_mmod_Bend_Energy-OPLS-2005>
128.764282226562

> <r_mmod_Torsional_Energy-OPLS-2005>
216.008178710938

> <r_mmod_Improper_Torsional_Energy-OPLS-2005>
5.63164520263672

> <r_mmod_Van_der_Waal_Energy-OPLS-2005>
143.220245361328

> <r_mmod_Electrostatic_Energy-OPLS-2005>
-466.649749755859

> <r_mmod_Solvation_Energy-OPLS-2005>
-241.510437011719

> <b_mmod_Minimization_Converged-OPLS-2005>
0

> <r_mmod_RMS_Derivative-OPLS-2005>
3.74773764610291

$$$$
81
                    3D
 Structure written by MMmdl.
160169  0  0  1  0            999 V2000
  -30.7378  -14.4378   20.5638 C   0  0  0  0  0  0
  -30.4097  -12.2785   19.4372 C   0  0  0  0  0  0
  -29.4984  -12.4824   18.2114 C   0  0  0  0  0  0
  -28.0170  -12.3578   18.6172 C   0  0  0  0  0  0
  -27.6582  -13.2109   19.8650 C   0  0  2  0  0  0
  -28.6946  -13.0180   20.9949 C   0  0  0  0  0  0
  -25.2564  -13.8174   20.5647 C   0  0  0  0  0  0
  -24.1828  -13.0445   20.9184 C   0  0  0  0  0  0
  -24.6388  -11.6914   20.8719 C   0  0  0  0  0  0
  -23.9058  -10.4295   21.0380 C   0  0  0  0  0  0
  -24.3609   -9.4214   21.9168 C   0  0  0  0  0  0
  -23.6283   -8.2249   22.0751 C   0  0  0  0  0  0
  -22.4271   -8.0275   21.3541 C   0  0  0  0  0  0
  -21.9899   -9.0245   20.4637 C   0  0  0  0  0  0
  -22.7226  -10.2129   20.3029 C   0  0  0  0  0  0
  -21.6856   -6.0724   22.5280 C   0  0  0  0  0  0
  -21.4018   -6.5632   23.8214 C   0  0  0  0  0  0
  -21.3659   -5.6784   24.9174 C   0  0  0  0  0  0
  -21.6041   -4.3045   24.7224 C   0  0  0  0  0  0
  -21.8821   -3.8140   23.4348 C   0  0  0  0  0  0
  -21.9195   -4.6954   22.3403 C   0  0  0  0  0  0
  -22.7841  -13.5227   21.1847 C   0  0  0  0  0  0
  -22.1661   -4.2131   21.0981 F   0  0  0  0  0  0
  -21.5625   -3.4534   25.7742 F   0  0  0  0  0  0
  -30.0314  -13.2839   20.4414 N   0  0  0  0  0  0
  -26.2994  -12.9360   20.3282 N   0  0  0  0  0  0
  -25.9310  -11.6518   20.5714 N   0  0  0  0  0  0
  -22.0484  -12.8219   22.0407 N   0  0  0  0  0  0
  -25.4263  -15.1892   20.4047 N   0  0  0  0  0  0
  -31.8632  -14.5855   20.0811 O   0  0  0  0  0  0
  -21.6640   -6.8871   21.4241 O   0  0  0  0  0  0
  -22.3529  -14.5534   20.6687 O   0  0  0  0  0  0
  -24.6150  -31.8645   23.2089 C   0  0  0  0  0  0
  -25.9034  -32.4809   23.8372 C   0  0  1  0  0  0
  -27.2387  -27.4449   20.0970 C   0  0  0  0  0  0
  -25.5877  -33.8605   24.2303 N   0  0  0  0  0  0
  -23.4032  -30.4897   21.5476 C   0  0  2  0  0  0
  -24.8468  -28.9542   20.1129 C   0  0  0  0  0  0
  -22.7407  -29.4656   22.4977 C   0  0  0  0  0  0
  -18.0276  -28.1402   22.8479 C   0  0  0  0  0  0
  -24.1472  -36.7318   23.2649 C   0  0  0  0  0  0
  -25.9286  -30.8369   21.3531 C   0  0  0  0  0  0
  -26.0045  -29.4707   20.7057 C   0  0  0  0  0  0
  -27.2019  -28.7248   20.6919 C   0  0  0  0  0  0
  -26.0612  -26.9387   19.4990 C   0  0  0  0  0  0
  -24.8698  -27.6891   19.5031 C   0  0  0  0  0  0
  -23.6082  -29.8181   20.1621 C   0  0  0  0  0  0
  -25.4096  -36.3101   24.0329 C   0  0  1  0  0  0
  -20.5866  -28.3669   23.1323 C   0  0  2  0  0  0
  -20.6754  -26.9406   22.5422 C   0  0  0  0  0  0
  -19.5728  -26.6392   21.5239 C   0  0  0  0  0  0
  -18.1900  -26.7944   22.1634 C   0  0  0  0  0  0
  -19.1522  -28.8845   23.2895 C   0  0  0  0  0  0
  -18.9463  -30.1470   23.8894 C   0  0  0  0  0  0
  -17.6470  -30.6593   24.0579 C   0  0  0  0  0  0
  -25.9027  -34.9467   23.5111 C   0  0  0  0  0  0
  -16.5350  -29.9094   23.6350 C   0  0  0  0  0  0
  -16.7263  -28.6534   23.0333 C   0  0  0  0  0  0
  -26.4453  -31.6618   25.0722 C   0  0  0  0  0  0
  -25.3707  -31.3727   26.1469 C   0  0  0  0  0  0
  -27.0303  -30.3068   24.6101 C   0  0  0  0  0  0
  -27.6022  -32.4346   25.7478 C   0  0  0  0  0  0
  -27.5562  -37.1812   24.8468 C   0  0  0  0  0  0
  -21.4130  -29.3032   22.3714 N   0  0  0  0  0  0
  -26.4278  -37.3799   23.9407 N   0  0  0  0  0  0
  -24.6687  -31.0775   22.0969 N   0  0  0  0  0  0
  -23.4176  -28.8199   23.3017 O   0  0  0  0  0  0
  -28.4219  -26.7365   20.1147 O   0  0  0  0  0  0
  -26.5641  -34.8931   22.4710 O   0  0  0  0  0  0
  -23.5347  -32.1366   23.7505 O   0  0  0  0  0  0
  -27.5310  -19.0407   21.2577 C   0  0  0  0  0  0
  -28.0665  -20.2430   21.7670 C   0  0  0  0  0  0
  -28.3621  -17.9203   21.0510 C   0  0  0  0  0  0
  -30.2650  -19.2059   21.8511 C   0  0  0  0  0  0
  -29.4483  -20.3414   22.0495 C   0  0  0  0  0  0
  -29.7364  -17.9911   21.3647 C   0  0  0  0  0  0
  -29.5333  -23.1712   20.8970 C   0  0  0  0  0  0
  -30.0447  -21.5732   22.6889 C   0  0  0  0  0  0
  -30.0243  -25.2112   22.0683 C   0  0  0  0  0  0
  -30.4557  -23.9761   22.8632 C   0  0  0  0  0  0
  -29.6293  -24.6867   20.6852 C   0  0  2  0  0  0
  -30.6903  -16.8209   21.1564 C   0  0  0  0  0  0
  -28.3251  -25.3076   20.1421 C   0  0  0  0  0  0
  -29.9559  -22.8109   22.1292 N   0  0  0  0  0  0
  -30.0995  -15.4784   21.1203 N   0  0  0  0  0  0
  -29.1338  -22.4319   19.9922 O   0  0  0  0  0  0
  -30.6363  -21.4075   23.7645 O   0  0  0  0  0  0
  -31.4599  -12.3417   19.1462 H   0  0  0  0  0  0
  -30.2803  -11.2753   19.8484 H   0  0  0  0  0  0
  -29.7383  -11.7459   17.4423 H   0  0  0  0  0  0
  -29.6850  -13.4609   17.7666 H   0  0  0  0  0  0
  -27.8248  -11.3049   18.8260 H   0  0  0  0  0  0
  -27.3743  -12.6228   17.7767 H   0  0  0  0  0  0
  -27.6969  -14.2546   19.5521 H   0  0  0  0  0  0
  -28.6521  -11.9979   21.3772 H   0  0  0  0  0  0
  -28.4578  -13.6583   21.8456 H   0  0  0  0  0  0
  -25.2753   -9.5696   22.4737 H   0  0  0  0  0  0
  -23.9994   -7.4642   22.7466 H   0  0  0  0  0  0
  -21.0835   -8.8750   19.8931 H   0  0  0  0  0  0
  -22.3682  -10.9655   19.6124 H   0  0  0  0  0  0
  -21.2018   -7.6139   23.9713 H   0  0  0  0  0  0
  -21.1473   -6.0514   25.9078 H   0  0  0  0  0  0
  -22.0602   -2.7595   23.2857 H   0  0  0  0  0  0
  -22.4099  -11.9897   22.4821 H   0  0  0  0  0  0
  -21.1076  -13.1208   22.2537 H   0  0  0  0  0  0
  -24.6616  -15.8451   20.5219 H   0  0  0  0  0  0
  -26.2654  -15.6220   20.0439 H   0  0  0  0  0  0
  -26.7093  -32.5484   23.1122 H   0  0  0  0  0  0
  -24.9982  -33.9773   25.0409 H   0  0  0  0  0  0
  -22.6978  -31.3091   21.4053 H   0  0  0  0  0  0
  -23.3732  -35.9659   23.3340 H   0  0  0  0  0  0
  -24.3577  -36.8922   22.2066 H   0  0  0  0  0  0
  -23.7219  -37.6521   23.6652 H   0  0  0  0  0  0
  -26.0397  -31.6004   20.5814 H   0  0  0  0  0  0
  -26.8207  -30.8961   21.9645 H   0  0  0  0  0  0
  -28.0947  -29.1237   21.1483 H   0  0  0  0  0  0
  -26.0506  -25.9695   19.0187 H   0  0  0  0  0  0
  -23.9786  -27.2893   19.0400 H   0  0  0  0  0  0
  -23.7105  -30.5880   19.3964 H   0  0  0  0  0  0
  -22.7330  -29.2330   19.8701 H   0  0  0  0  0  0
  -25.1275  -36.1972   25.0821 H   0  0  0  0  0  0
  -20.9968  -28.3228   24.1444 H   0  0  0  0  0  0
  -20.5686  -26.2267   23.3589 H   0  0  0  0  0  0
  -21.6609  -26.7441   22.1186 H   0  0  0  0  0  0
  -19.6880  -25.6318   21.1231 H   0  0  0  0  0  0
  -19.6679  -27.3230   20.6793 H   0  0  0  0  0  0
  -17.4176  -26.6718   21.4025 H   0  0  0  0  0  0
  -18.0271  -26.0108   22.9045 H   0  0  0  0  0  0
  -19.7954  -30.7293   24.2220 H   0  0  0  0  0  0
  -17.5034  -31.6271   24.5190 H   0  0  0  0  0  0
  -15.5356  -30.3000   23.7695 H   0  0  0  0  0  0
  -15.8668  -28.0877   22.7013 H   0  0  0  0  0  0
  -24.5858  -30.7097   25.7818 H   0  0  0  0  0  0
  -24.8927  -32.2881   26.4942 H   0  0  0  0  0  0
  -25.8059  -30.8868   27.0204 H   0  0  0  0  0  0
  -26.2846  -29.6807   24.1189 H   0  0  0  0  0  0
  -27.4132  -29.7329   25.4555 H   0  0  0  0  0  0
  -27.8628  -30.4435   23.9204 H   0  0  0  0  0  0
  -27.2630  -33.3628   26.2075 H   0  0  0  0  0  0
  -28.3801  -32.6942   25.0292 H   0  0  0  0  0  0
  -28.0694  -31.8450   26.5372 H   0  0  0  0  0  0
  -28.2608  -38.0088   24.7532 H   0  0  0  0  0  0
  -28.1028  -36.2632   24.6270 H   0  0  0  0  0  0
  -27.2292  -37.1453   25.8877 H   0  0  0  0  0  0
  -20.9290  -29.8768   21.6946 H   0  0  0  0  0  0
  -26.0162  -38.2866   24.1449 H   0  0  0  0  0  0
  -26.4751  -18.9754   21.0327 H   0  0  0  0  0  0
  -27.4120  -21.0859   21.9401 H   0  0  0  0  0  0
  -27.9362  -17.0117   20.6526 H   0  0  0  0  0  0
  -31.3187  -19.2649   22.0895 H   0  0  0  0  0  0
  -30.8285  -25.9460   22.0084 H   0  0  0  0  0  0
  -29.1745  -25.6954   22.5522 H   0  0  0  0  0  0
  -30.0646  -24.0072   23.8822 H   0  0  0  0  0  0
  -31.5455  -23.9268   22.9337 H   0  0  0  0  0  0
  -30.4422  -24.8667   19.9811 H   0  0  0  0  0  0
  -31.4587  -16.8383   21.9314 H   0  0  0  0  0  0
  -31.2075  -17.0204   20.2153 H   0  0  0  0  0  0
  -27.4917  -24.9920   20.7736 H   0  0  0  0  0  0
  -28.1282  -24.9393   19.1343 H   0  0  0  0  0  0
  -29.1730  -15.3408   21.4939 H   0  0  0  0  0  0
  1 25  1  0  0  0
  1 30  2  0  0  0
  1 85  1  0  0  0
  2  3  1  0  0  0
  2 25  1  0  0  0
  2 88  1  0  0  0
  2 89  1  0  0  0
  3  4  1  0  0  0
  3 90  1  0  0  0
  3 91  1  0  0  0
  4  5  1  0  0  0
  4 92  1  0  0  0
  4 93  1  0  0  0
  5  6  1  0  0  0
  5 26  1  0  0  0
  5 94  1  0  0  0
  6 25  1  0  0  0
  6 95  1  0  0  0
  6 96  1  0  0  0
  7  8  2  0  0  0
  7 26  1  0  0  0
  7 29  1  0  0  0
  8  9  1  0  0  0
  8 22  1  0  0  0
  9 10  1  0  0  0
  9 27  2  0  0  0
 10 11  2  0  0  0
 10 15  1  0  0  0
 11 12  1  0  0  0
 11 97  1  0  0  0
 12 13  2  0  0  0
 12 98  1  0  0  0
 13 14  1  0  0  0
 13 31  1  0  0  0
 14 15  2  0  0  0
 14 99  1  0  0  0
 15100  1  0  0  0
 16 17  2  0  0  0
 16 21  1  0  0  0
 16 31  1  0  0  0
 17 18  1  0  0  0
 17101  1  0  0  0
 18 19  2  0  0  0
 18102  1  0  0  0
 19 20  1  0  0  0
 19 24  1  0  0  0
 20 21  2  0  0  0
 20103  1  0  0  0
 21 23  1  0  0  0
 22 28  1  0  0  0
 22 32  2  0  0  0
 26 27  1  0  0  0
 28104  1  0  0  0
 28105  1  0  0  0
 29106  1  0  0  0
 29107  1  0  0  0
 33 34  1  0  0  0
 33 66  1  0  0  0
 33 70  2  0  0  0
 34 36  1  0  0  0
 34 59  1  0  0  0
 34108  1  0  0  0
 35 44  2  0  0  0
 35 45  1  0  0  0
 35 68  1  0  0  0
 36 56  1  0  0  0
 36109  1  0  0  0
 37 39  1  0  0  0
 37 47  1  0  0  0
 37 66  1  0  0  0
 37110  1  0  0  0
 38 43  2  0  0  0
 38 46  1  0  0  0
 38 47  1  0  0  0
 39 64  1  0  0  0
 39 67  2  0  0  0
 40 52  1  0  0  0
 40 53  2  0  0  0
 40 58  1  0  0  0
 41111  1  0  0  0
 41112  1  0  0  0
 41113  1  0  0  0
 41 48  1  0  0  0
 42 43  1  0  0  0
 42 66  1  0  0  0
 42114  1  0  0  0
 42115  1  0  0  0
 43 44  1  0  0  0
 44116  1  0  0  0
 45 46  2  0  0  0
 45117  1  0  0  0
 46118  1  0  0  0
 47119  1  0  0  0
 47120  1  0  0  0
 48 56  1  0  0  0
 48 65  1  0  0  0
 48121  1  0  0  0
 49 50  1  0  0  0
 49 53  1  0  0  0
 49 64  1  0  0  0
 49122  1  0  0  0
 50 51  1  0  0  0
 50123  1  0  0  0
 50124  1  0  0  0
 51 52  1  0  0  0
 51125  1  0  0  0
 51126  1  0  0  0
 52127  1  0  0  0
 52128  1  0  0  0
 53 54  1  0  0  0
 54 55  2  0  0  0
 54129  1  0  0  0
 55 57  1  0  0  0
 55130  1  0  0  0
 56 69  2  0  0  0
 57 58  2  0  0  0
 57131  1  0  0  0
 58132  1  0  0  0
 59 60  1  0  0  0
 59 61  1  0  0  0
 59 62  1  0  0  0
 60133  1  0  0  0
 60134  1  0  0  0
 60135  1  0  0  0
 61136  1  0  0  0
 61137  1  0  0  0
 61138  1  0  0  0
 62139  1  0  0  0
 62140  1  0  0  0
 62141  1  0  0  0
 63 65  1  0  0  0
 63142  1  0  0  0
 63143  1  0  0  0
 63144  1  0  0  0
 64145  1  0  0  0
 65146  1  0  0  0
 68 83  1  0  0  0
 71 72  2  0  0  0
 71 73  1  0  0  0
 71147  1  0  0  0
 72 75  1  0  0  0
 72148  1  0  0  0
 73 76  2  0  0  0
 73149  1  0  0  0
 74 75  2  0  0  0
 74 76  1  0  0  0
 74150  1  0  0  0
 75 78  1  0  0  0
 76 82  1  0  0  0
 77 81  1  0  0  0
 77 84  1  0  0  0
 77 86  2  0  0  0
 78 84  1  0  0  0
 78 87  2  0  0  0
 79 80  1  0  0  0
 79 81  1  0  0  0
 79151  1  0  0  0
 79152  1  0  0  0
 80 84  1  0  0  0
 80153  1  0  0  0
 80154  1  0  0  0
 81 83  1  0  0  0
 81155  1  0  0  0
 82 85  1  0  0  0
 82156  1  0  0  0
 82157  1  0  0  0
 83158  1  0  0  0
 83159  1  0  0  0
 85160  1  0  0  0
M  ISO  4   1 100  68 101  83 101  85 100
M  END
> <chiral flag>
0

> <version>
0

> <s_m_source_file>
/data/baiqing/PycharmProjects/Reinvent-master-3.2/result/LINK_invent/BTK/process_docking_weight1_custom_product_contain_oxygen_bond_distance_aromatic_linkinvent_7_9_3/rearranged_h_0108.sdf

> <i_m_source_file_index>
81

> <r_mmod_Potential_Energy-OPLS-2005>
-46.7114219665527

> <r_mmod_Stretch_Energy-OPLS-2005>
36.0871238708496

> <r_mmod_Bend_Energy-OPLS-2005>
126.926887512207

> <r_mmod_Torsional_Energy-OPLS-2005>
252.968551635742

> <r_mmod_Improper_Torsional_Energy-OPLS-2005>
3.71675515174866

> <r_mmod_Van_der_Waal_Energy-OPLS-2005>
161.346328735352

> <r_mmod_Electrostatic_Energy-OPLS-2005>
-418.075988769531

> <r_mmod_Solvation_Energy-OPLS-2005>
-222.488098144531

> <b_mmod_Minimization_Converged-OPLS-2005>
0

> <r_mmod_RMS_Derivative-OPLS-2005>
3.1317126750946

$$$$
82
                    3D
 Structure written by MMmdl.
157165  0  0  1  0            999 V2000
  -30.7168  -14.4748   20.6011 C   0  0  0  0  0  0
  -30.4253  -12.3179   19.4312 C   0  0  0  0  0  0
  -29.4994  -12.5016   18.2105 C   0  0  0  0  0  0
  -28.0213  -12.3541   18.6246 C   0  0  0  0  0  0
  -27.6611  -13.2081   19.8686 C   0  0  2  0  0  0
  -28.6996  -13.0044   20.9944 C   0  0  0  0  0  0
  -25.2592  -13.8180   20.5674 C   0  0  0  0  0  0
  -24.1840  -13.0458   20.9172 C   0  0  0  0  0  0
  -24.6402  -11.6923   20.8734 C   0  0  0  0  0  0
  -23.9081  -10.4305   21.0407 C   0  0  0  0  0  0
  -24.3639   -9.4219   21.9177 C   0  0  0  0  0  0
  -23.6310   -8.2256   22.0755 C   0  0  0  0  0  0
  -22.4277   -8.0305   21.3565 C   0  0  0  0  0  0
  -21.9912   -9.0278   20.4664 C   0  0  0  0  0  0
  -22.7252  -10.2150   20.3063 C   0  0  0  0  0  0
  -21.6849   -6.0754   22.5286 C   0  0  0  0  0  0
  -21.4015   -6.5649   23.8227 C   0  0  0  0  0  0
  -21.3656   -5.6791   24.9175 C   0  0  0  0  0  0
  -21.6043   -4.3059   24.7227 C   0  0  0  0  0  0
  -21.8810   -3.8161   23.4344 C   0  0  0  0  0  0
  -21.9191   -4.6980   22.3403 C   0  0  0  0  0  0
  -22.7859  -13.5259   21.1845 C   0  0  0  0  0  0
  -22.1652   -4.2172   21.0981 F   0  0  0  0  0  0
  -21.5640   -3.4540   25.7744 F   0  0  0  0  0  0
  -30.0334  -13.3070   20.4480 N   0  0  0  0  0  0
  -26.3018  -12.9344   20.3323 N   0  0  0  0  0  0
  -25.9328  -11.6508   20.5752 N   0  0  0  0  0  0
  -22.0479  -12.8270   22.0400 N   0  0  0  0  0  0
  -25.4338  -15.1896   20.4133 N   0  0  0  0  0  0
  -31.8215  -14.6709   20.0895 O   0  0  0  0  0  0
  -21.6645   -6.8903   21.4256 O   0  0  0  0  0  0
  -22.3548  -14.5561   20.6692 O   0  0  0  0  0  0
  -24.6188  -31.8657   23.2092 C   0  0  0  0  0  0
  -25.9072  -32.4805   23.8393 C   0  0  1  0  0  0
  -27.2218  -27.3890   20.0954 C   0  0  0  0  0  0
  -25.5906  -33.8604   24.2324 N   0  0  0  0  0  0
  -23.4078  -30.4948   21.5490 C   0  0  2  0  0  0
  -24.8522  -28.9651   20.1078 C   0  0  0  0  0  0
  -22.7419  -29.4666   22.4932 C   0  0  0  0  0  0
  -18.0278  -28.1370   22.8483 C   0  0  0  0  0  0
  -24.1487  -36.7315   23.2634 C   0  0  0  0  0  0
  -25.9442  -30.8174   21.3731 C   0  0  0  0  0  0
  -26.0163  -29.4513   20.7148 C   0  0  0  0  0  0
  -27.2005  -28.6690   20.7107 C   0  0  0  0  0  0
  -26.0389  -26.9525   19.4489 C   0  0  0  0  0  0
  -24.8613  -27.7170   19.4707 C   0  0  0  0  0  0
  -23.6183  -29.8360   20.1609 C   0  0  0  0  0  0
  -25.4097  -36.3097   24.0339 C   0  0  1  0  0  0
  -20.5872  -28.3675   23.1278 C   0  0  2  0  0  0
  -20.6773  -26.9404   22.5394 C   0  0  0  0  0  0
  -19.5753  -26.6382   21.5190 C   0  0  0  0  0  0
  -18.1932  -26.7916   22.1613 C   0  0  0  0  0  0
  -19.1528  -28.8833   23.2889 C   0  0  0  0  0  0
  -18.9458  -30.1432   23.8912 C   0  0  0  0  0  0
  -17.6463  -30.6582   24.0556 C   0  0  0  0  0  0
  -25.9024  -34.9463   23.5126 C   0  0  0  0  0  0
  -16.5355  -29.9085   23.6318 C   0  0  0  0  0  0
  -16.7267  -28.6495   23.0351 C   0  0  0  0  0  0
  -26.4490  -31.6588   25.0732 C   0  0  0  0  0  0
  -25.3767  -31.3718   26.1495 C   0  0  0  0  0  0
  -27.0308  -30.3016   24.6137 C   0  0  0  0  0  0
  -27.6072  -32.4298   25.7483 C   0  0  0  0  0  0
  -27.5574  -37.1803   24.8458 C   0  0  0  0  0  0
  -21.4140  -29.3054   22.3678 N   0  0  0  0  0  0
  -26.4285  -37.3781   23.9405 N   0  0  0  0  0  0
  -24.6753  -31.0735   22.1016 N   0  0  0  0  0  0
  -23.4179  -28.8191   23.2970 O   0  0  0  0  0  0
  -28.3637  -26.5925   20.1539 O   0  0  0  0  0  0
  -26.5584  -34.8918   22.4685 O   0  0  0  0  0  0
  -23.5370  -32.1428   23.7461 O   0  0  0  0  0  0
  -29.1041  -17.6190   19.5575 C   0  0  0  0  0  0
  -28.6694  -19.9909   19.1622 C   0  0  0  0  0  0
  -30.0318  -19.3084   21.0515 C   0  0  0  0  0  0
  -28.4966  -18.6380   18.8011 C   0  0  0  0  0  0
  -29.8759  -17.9390   20.6923 C   0  0  0  0  0  0
  -29.4379  -20.3571   20.2946 C   0  0  0  0  0  0
  -27.6603  -18.2774   17.5919 C   0  0  0  0  0  0
  -30.5556  -16.8272   21.5108 C   0  0  0  0  0  0
  -29.2011  -24.1759   20.4741 C   0  0  0  0  0  0
  -28.2184  -25.1861   19.8135 C   0  0  0  0  0  0
  -28.9966  -22.7295   19.9260 C   0  0  0  0  0  0
  -30.0741  -15.4512   21.2725 N   0  0  0  0  0  0
  -29.6337  -21.6813   20.6890 O   0  0  0  0  0  0
  -31.4718  -12.4112   19.1357 H   0  0  0  0  0  0
  -30.3269  -11.3118   19.8410 H   0  0  0  0  0  0
  -29.7468  -11.7714   17.4397 H   0  0  0  0  0  0
  -29.6623  -13.4837   17.7627 H   0  0  0  0  0  0
  -27.8463  -11.2999   18.8431 H   0  0  0  0  0  0
  -27.3672  -12.6048   17.7894 H   0  0  0  0  0  0
  -27.7031  -14.2527   19.5583 H   0  0  0  0  0  0
  -28.6766  -11.9743   21.3527 H   0  0  0  0  0  0
  -28.4510  -13.6131   21.8627 H   0  0  0  0  0  0
  -25.2789   -9.5700   22.4746 H   0  0  0  0  0  0
  -24.0036   -7.4639   22.7457 H   0  0  0  0  0  0
  -21.0849   -8.8812   19.8963 H   0  0  0  0  0  0
  -22.3729  -10.9696   19.6181 H   0  0  0  0  0  0
  -21.2006   -7.6159   23.9737 H   0  0  0  0  0  0
  -21.1480   -6.0520   25.9083 H   0  0  0  0  0  0
  -22.0592   -2.7628   23.2827 H   0  0  0  0  0  0
  -22.4077  -11.9959   22.4839 H   0  0  0  0  0  0
  -21.1103  -13.1321   22.2614 H   0  0  0  0  0  0
  -24.6741  -15.8495   20.5402 H   0  0  0  0  0  0
  -26.2980  -15.6304   20.1265 H   0  0  0  0  0  0
  -26.7132  -32.5498   23.1137 H   0  0  0  0  0  0
  -25.0070  -33.9765   25.0481 H   0  0  0  0  0  0
  -22.6993  -31.3138   21.4096 H   0  0  0  0  0  0
  -23.3741  -35.9655   23.3287 H   0  0  0  0  0  0
  -24.3596  -36.8947   22.2052 H   0  0  0  0  0  0
  -23.7261  -37.6524   23.6660 H   0  0  0  0  0  0
  -26.0645  -31.5831   20.6053 H   0  0  0  0  0  0
  -26.8302  -30.8668   21.9947 H   0  0  0  0  0  0
  -28.0923  -29.0327   21.2011 H   0  0  0  0  0  0
  -25.9877  -26.0152   18.9160 H   0  0  0  0  0  0
  -23.9709  -27.3445   18.9825 H   0  0  0  0  0  0
  -23.7301  -30.6142   19.4049 H   0  0  0  0  0  0
  -22.7420  -29.2594   19.8608 H   0  0  0  0  0  0
  -25.1273  -36.1952   25.0835 H   0  0  0  0  0  0
  -20.9978  -28.3252   24.1390 H   0  0  0  0  0  0
  -20.5657  -26.2284   23.3587 H   0  0  0  0  0  0
  -21.6647  -26.7432   22.1200 H   0  0  0  0  0  0
  -19.6921  -25.6289   21.1229 H   0  0  0  0  0  0
  -19.6698  -27.3181   20.6710 H   0  0  0  0  0  0
  -17.4194  -26.6640   21.4029 H   0  0  0  0  0  0
  -18.0362  -26.0060   22.9015 H   0  0  0  0  0  0
  -19.7932  -30.7231   24.2309 H   0  0  0  0  0  0
  -17.5023  -31.6270   24.5142 H   0  0  0  0  0  0
  -15.5361  -30.2999   23.7627 H   0  0  0  0  0  0
  -15.8662  -28.0813   22.7082 H   0  0  0  0  0  0
  -24.5895  -30.7115   25.7839 H   0  0  0  0  0  0
  -24.9020  -32.2895   26.4977 H   0  0  0  0  0  0
  -25.8130  -30.8846   27.0226 H   0  0  0  0  0  0
  -26.2854  -29.6773   24.1200 H   0  0  0  0  0  0
  -27.4063  -29.7257   25.4602 H   0  0  0  0  0  0
  -27.8699  -30.4299   23.9299 H   0  0  0  0  0  0
  -27.2704  -33.3586   26.2090 H   0  0  0  0  0  0
  -28.3868  -32.6874   25.0304 H   0  0  0  0  0  0
  -28.0758  -31.8406   26.5376 H   0  0  0  0  0  0
  -28.2584  -38.0102   24.7487 H   0  0  0  0  0  0
  -28.1077  -36.2633   24.6288 H   0  0  0  0  0  0
  -27.2296  -37.1464   25.8864 H   0  0  0  0  0  0
  -20.9281  -29.8797   21.6925 H   0  0  0  0  0  0
  -26.0170  -38.2856   24.1412 H   0  0  0  0  0  0
  -28.9758  -16.5894   19.2509 H   0  0  0  0  0  0
  -28.1965  -20.7340   18.5390 H   0  0  0  0  0  0
  -30.6230  -19.5626   21.9211 H   0  0  0  0  0  0
  -27.3944  -17.2201   17.5945 H   0  0  0  0  0  0
  -28.2118  -18.4863   16.6743 H   0  0  0  0  0  0
  -26.7348  -18.8537   17.5790 H   0  0  0  0  0  0
  -30.4118  -17.0468   22.5692 H   0  0  0  0  0  0
  -31.6331  -16.8909   21.3443 H   0  0  0  0  0  0
  -29.0314  -24.1766   21.5509 H   0  0  0  0  0  0
  -30.2336  -24.4909   20.3200 H   0  0  0  0  0  0
  -27.2383  -24.8217   20.1219 H   0  0  0  0  0  0
  -28.2725  -25.0918   18.7278 H   0  0  0  0  0  0
  -29.3757  -22.6992   18.9034 H   0  0  0  0  0  0
  -27.9244  -22.5266   19.8791 H   0  0  0  0  0  0
  -29.1745  -15.2124   21.6603 H   0  0  0  0  0  0
  1 25  1  0  0  0
  1 30  2  0  0  0
  1 82  1  0  0  0
  2  3  1  0  0  0
  2 25  1  0  0  0
  2 84  1  0  0  0
  2 85  1  0  0  0
  3  4  1  0  0  0
  3 86  1  0  0  0
  3 87  1  0  0  0
  4  5  1  0  0  0
  4 88  1  0  0  0
  4 89  1  0  0  0
  5  6  1  0  0  0
  5 26  1  0  0  0
  5 90  1  0  0  0
  6 25  1  0  0  0
  6 91  1  0  0  0
  6 92  1  0  0  0
  7  8  2  0  0  0
  7 26  1  0  0  0
  7 29  1  0  0  0
  8  9  1  0  0  0
  8 22  1  0  0  0
  9 10  1  0  0  0
  9 27  2  0  0  0
 10 11  2  0  0  0
 10 15  1  0  0  0
 11 12  1  0  0  0
 11 93  1  0  0  0
 12 13  2  0  0  0
 12 94  1  0  0  0
 13 14  1  0  0  0
 13 31  1  0  0  0
 14 15  2  0  0  0
 14 95  1  0  0  0
 15 96  1  0  0  0
 16 17  2  0  0  0
 16 21  1  0  0  0
 16 31  1  0  0  0
 17 18  1  0  0  0
 17 97  1  0  0  0
 18 19  2  0  0  0
 18 98  1  0  0  0
 19 20  1  0  0  0
 19 24  1  0  0  0
 20 21  2  0  0  0
 20 99  1  0  0  0
 21 23  1  0  0  0
 22 28  1  0  0  0
 22 32  2  0  0  0
 26 27  1  0  0  0
 28100  1  0  0  0
 28101  1  0  0  0
 29102  1  0  0  0
 29103  1  0  0  0
 33 34  1  0  0  0
 33 66  1  0  0  0
 33 70  2  0  0  0
 34 36  1  0  0  0
 34 59  1  0  0  0
 34104  1  0  0  0
 35 44  2  0  0  0
 35 45  1  0  0  0
 35 68  1  0  0  0
 36 56  1  0  0  0
 36105  1  0  0  0
 37 39  1  0  0  0
 37 47  1  0  0  0
 37 66  1  0  0  0
 37106  1  0  0  0
 38 43  2  0  0  0
 38 46  1  0  0  0
 38 47  1  0  0  0
 39 64  1  0  0  0
 39 67  2  0  0  0
 40 52  1  0  0  0
 40 53  2  0  0  0
 40 58  1  0  0  0
 41107  1  0  0  0
 41108  1  0  0  0
 41109  1  0  0  0
 41 48  1  0  0  0
 42 43  1  0  0  0
 42 66  1  0  0  0
 42110  1  0  0  0
 42111  1  0  0  0
 43 44  1  0  0  0
 44112  1  0  0  0
 45 46  2  0  0  0
 45113  1  0  0  0
 46114  1  0  0  0
 47115  1  0  0  0
 47116  1  0  0  0
 48 56  1  0  0  0
 48 65  1  0  0  0
 48117  1  0  0  0
 49 50  1  0  0  0
 49 53  1  0  0  0
 49 64  1  0  0  0
 49118  1  0  0  0
 50 51  1  0  0  0
 50119  1  0  0  0
 50120  1  0  0  0
 51 52  1  0  0  0
 51121  1  0  0  0
 51122  1  0  0  0
 52123  1  0  0  0
 52124  1  0  0  0
 53 54  1  0  0  0
 54 55  2  0  0  0
 54125  1  0  0  0
 55 57  1  0  0  0
 55126  1  0  0  0
 56 69  2  0  0  0
 57 58  2  0  0  0
 57127  1  0  0  0
 58128  1  0  0  0
 59 60  1  0  0  0
 59 61  1  0  0  0
 59 62  1  0  0  0
 60129  1  0  0  0
 60130  1  0  0  0
 60131  1  0  0  0
 61132  1  0  0  0
 61133  1  0  0  0
 61134  1  0  0  0
 62135  1  0  0  0
 62136  1  0  0  0
 62137  1  0  0  0
 63 65  1  0  0  0
 63138  1  0  0  0
 63139  1  0  0  0
 63140  1  0  0  0
 64141  1  0  0  0
 65142  1  0  0  0
 68 80  1  0  0  0
 71 74  2  0  0  0
 71 75  1  0  0  0
 71143  1  0  0  0
 72 74  1  0  0  0
 72 76  2  0  0  0
 72144  1  0  0  0
 73 75  2  0  0  0
 73 76  1  0  0  0
 73145  1  0  0  0
 74 77  1  0  0  0
 75 78  1  0  0  0
 76 83  1  0  0  0
 77146  1  0  0  0
 77147  1  0  0  0
 77148  1  0  0  0
 78 82  1  0  0  0
 78149  1  0  0  0
 78150  1  0  0  0
 79 80  1  0  0  0
 79 81  1  0  0  0
 79151  1  0  0  0
 79152  1  0  0  0
 80153  1  0  0  0
 80154  1  0  0  0
 81 83  1  0  0  0
 81155  1  0  0  0
 81156  1  0  0  0
 82157  1  0  0  0
M  ISO  4   1 100  68 101  80 101  82 100
M  END
> <chiral flag>
0

> <version>
0

> <s_m_source_file>
/data/baiqing/PycharmProjects/Reinvent-master-3.2/result/LINK_invent/BTK/process_docking_weight1_custom_product_contain_oxygen_bond_distance_aromatic_linkinvent_7_9_3/rearranged_h_0108.sdf

> <i_m_source_file_index>
82

> <r_mmod_Potential_Energy-OPLS-2005>
-113.474624633789

> <r_mmod_Stretch_Energy-OPLS-2005>
45.9518051147461

> <r_mmod_Bend_Energy-OPLS-2005>
105.732513427734

> <r_mmod_Torsional_Energy-OPLS-2005>
183.752807617188

> <r_mmod_Improper_Torsional_Energy-OPLS-2005>
2.19540905952454

> <r_mmod_Van_der_Waal_Energy-OPLS-2005>
161.737548828125

> <r_mmod_Electrostatic_Energy-OPLS-2005>
-416.007598876953

> <r_mmod_Solvation_Energy-OPLS-2005>
-215.693206787109

> <b_mmod_Minimization_Converged-OPLS-2005>
0

> <r_mmod_RMS_Derivative-OPLS-2005>
2.68215394020081

$$$$
83
                    3D
 Structure written by MMmdl.
155163  0  0  1  0            999 V2000
  -30.4722  -14.9880   20.3983 C   0  0  0  0  0  0
  -30.4538  -12.6048   19.5040 C   0  0  0  0  0  0
  -29.5283  -12.5577   18.2589 C   0  0  0  0  0  0
  -28.0586  -12.3377   18.6624 C   0  0  0  0  0  0
  -27.6346  -13.2462   19.8403 C   0  0  2  0  0  0
  -28.6749  -13.2596   20.9796 C   0  0  0  0  0  0
  -25.2501  -13.8211   20.5693 C   0  0  0  0  0  0
  -24.1802  -13.0436   20.9174 C   0  0  0  0  0  0
  -24.6418  -11.6918   20.8764 C   0  0  0  0  0  0
  -23.9096  -10.4300   21.0436 C   0  0  0  0  0  0
  -24.3668   -9.4213   21.9195 C   0  0  0  0  0  0
  -23.6330   -8.2248   22.0786 C   0  0  0  0  0  0
  -22.4310   -8.0304   21.3563 C   0  0  0  0  0  0
  -21.9948   -9.0276   20.4649 C   0  0  0  0  0  0
  -22.7285  -10.2152   20.3056 C   0  0  0  0  0  0
  -21.6878   -6.0738   22.5275 C   0  0  0  0  0  0
  -21.4016   -6.5634   23.8213 C   0  0  0  0  0  0
  -21.3658   -5.6802   24.9170 C   0  0  0  0  0  0
  -21.6060   -4.3069   24.7231 C   0  0  0  0  0  0
  -21.8827   -3.8145   23.4360 C   0  0  0  0  0  0
  -21.9193   -4.6954   22.3406 C   0  0  0  0  0  0
  -22.7816  -13.5219   21.1825 C   0  0  0  0  0  0
  -22.1679   -4.2110   21.0991 F   0  0  0  0  0  0
  -21.5617   -3.4567   25.7743 F   0  0  0  0  0  0
  -29.9552  -13.6868   20.4001 N   0  0  0  0  0  0
  -26.2927  -12.9446   20.3221 N   0  0  0  0  0  0
  -25.9348  -11.6576   20.5708 N   0  0  0  0  0  0
  -22.0501  -12.8184   22.0401 N   0  0  0  0  0  0
  -25.4169  -15.1940   20.4193 N   0  0  0  0  0  0
  -31.6550  -15.1046   20.0552 O   0  0  0  0  0  0
  -21.6669   -6.8892   21.4252 O   0  0  0  0  0  0
  -22.3470  -14.5517   20.6679 O   0  0  0  0  0  0
  -24.6440  -31.8452   23.1922 C   0  0  0  0  0  0
  -25.9196  -32.4722   23.8302 C   0  0  1  0  0  0
  -27.2042  -27.1221   20.1309 C   0  0  0  0  0  0
  -25.5943  -33.8530   24.2218 N   0  0  0  0  0  0
  -23.4449  -30.4668   21.5410 C   0  0  2  0  0  0
  -24.8936  -28.8985   20.1033 C   0  0  0  0  0  0
  -22.7544  -29.4546   22.4880 C   0  0  0  0  0  0
  -18.0290  -28.1389   22.8491 C   0  0  0  0  0  0
  -24.1495  -36.7252   23.2640 C   0  0  0  0  0  0
  -26.0032  -30.7118   21.3950 C   0  0  0  0  0  0
  -26.0713  -29.3233   20.7304 C   0  0  0  0  0  0
  -27.2269  -28.4490   20.7327 C   0  0  0  0  0  0
  -26.0067  -26.8178   19.4467 C   0  0  0  0  0  0
  -24.8761  -27.6616   19.4447 C   0  0  0  0  0  0
  -23.6691  -29.8021   20.1581 C   0  0  0  0  0  0
  -25.4134  -36.3059   24.0321 C   0  0  1  0  0  0
  -20.5912  -28.3706   23.1249 C   0  0  2  0  0  0
  -20.6791  -26.9410   22.5401 C   0  0  0  0  0  0
  -19.5770  -26.6383   21.5204 C   0  0  0  0  0  0
  -18.1948  -26.7936   22.1619 C   0  0  0  0  0  0
  -19.1555  -28.8853   23.2872 C   0  0  0  0  0  0
  -18.9456  -30.1459   23.8895 C   0  0  0  0  0  0
  -17.6456  -30.6597   24.0543 C   0  0  0  0  0  0
  -25.9077  -34.9422   23.5085 C   0  0  0  0  0  0
  -16.5349  -29.9069   23.6343 C   0  0  0  0  0  0
  -16.7277  -28.6489   23.0375 C   0  0  0  0  0  0
  -26.4518  -31.6572   25.0735 C   0  0  0  0  0  0
  -25.3686  -31.3709   26.1404 C   0  0  0  0  0  0
  -27.0390  -30.2987   24.6284 C   0  0  0  0  0  0
  -27.6093  -32.4284   25.7502 C   0  0  0  0  0  0
  -27.5591  -37.1788   24.8463 C   0  0  0  0  0  0
  -21.4231  -29.3038   22.3614 N   0  0  0  0  0  0
  -26.4308  -37.3761   23.9405 N   0  0  0  0  0  0
  -24.7177  -31.0286   22.0979 N   0  0  0  0  0  0
  -23.4171  -28.8096   23.3036 O   0  0  0  0  0  0
  -28.2370  -26.1103   20.1955 O   0  0  0  0  0  0
  -26.5665  -34.8905   22.4662 O   0  0  0  0  0  0
  -23.5564  -32.1335   23.7121 O   0  0  0  0  0  0
  -30.8060  -18.7184   20.7393 C   0  0  0  0  0  0
  -30.5021  -20.0325   20.6059 C   0  0  0  0  0  0
  -28.7388  -18.8566   20.0967 C   0  0  0  0  0  0
  -31.4327  -21.2145   20.7808 C   0  0  0  0  0  0
  -27.0272  -21.4582   20.8712 C   0  0  0  0  0  0
  -29.5771  -16.3513   20.7767 C   0  0  0  0  0  0
  -28.8525  -23.2046   20.3009 C   0  0  0  0  0  0
  -27.9280  -24.5924   19.9546 C   0  0  0  0  0  0
  -28.3416  -21.5883   20.0694 C   0  0  1  0  0  0
  -29.7149  -17.9074   20.4392 N   0  0  0  0  0  0
  -29.1582  -20.2048   20.2426 N   0  0  0  0  0  0
  -27.6070  -18.5204   19.7403 O   0  0  0  0  0  0
  -31.4834  -12.7822   19.1938 H   0  0  0  0  0  0
  -30.4618  -11.6471   20.0230 H   0  0  0  0  0  0
  -29.8488  -11.7807   17.5629 H   0  0  0  0  0  0
  -29.6056  -13.5020   17.7176 H   0  0  0  0  0  0
  -27.9334  -11.2931   18.9354 H   0  0  0  0  0  0
  -27.4085  -12.5112   17.8048 H   0  0  0  0  0  0
  -27.5984  -14.2528   19.4210 H   0  0  0  0  0  0
  -28.7671  -12.2774   21.4430 H   0  0  0  0  0  0
  -28.3653  -13.9446   21.7735 H   0  0  0  0  0  0
  -25.2838   -9.5644   22.4752 H   0  0  0  0  0  0
  -24.0004   -7.4643   22.7544 H   0  0  0  0  0  0
  -21.0857   -8.8831   19.8961 H   0  0  0  0  0  0
  -22.3784  -10.9707   19.6153 H   0  0  0  0  0  0
  -21.2038   -7.6149   23.9677 H   0  0  0  0  0  0
  -21.1468   -6.0553   25.9065 H   0  0  0  0  0  0
  -22.0608   -2.7587   23.2884 H   0  0  0  0  0  0
  -22.4176  -11.9825   22.4708 H   0  0  0  0  0  0
  -21.1104  -13.1153   22.2655 H   0  0  0  0  0  0
  -24.6517  -15.8491   20.5331 H   0  0  0  0  0  0
  -26.2639  -15.6401   20.0920 H   0  0  0  0  0  0
  -26.7239  -32.5330   23.1009 H   0  0  0  0  0  0
  -25.0056  -33.9649   25.0338 H   0  0  0  0  0  0
  -22.7496  -31.2958   21.3937 H   0  0  0  0  0  0
  -23.3798  -35.9544   23.3290 H   0  0  0  0  0  0
  -24.3584  -36.8900   22.2062 H   0  0  0  0  0  0
  -23.7200  -37.6418   23.6685 H   0  0  0  0  0  0
  -26.1590  -31.4701   20.6261 H   0  0  0  0  0  0
  -26.8720  -30.7585   22.0398 H   0  0  0  0  0  0
  -28.1197  -28.7664   21.2520 H   0  0  0  0  0  0
  -25.9130  -25.8878   18.9097 H   0  0  0  0  0  0
  -23.9829  -27.3398   18.9256 H   0  0  0  0  0  0
  -23.7949  -30.5821   19.4067 H   0  0  0  0  0  0
  -22.7829  -29.2448   19.8506 H   0  0  0  0  0  0
  -25.1325  -36.1915   25.0819 H   0  0  0  0  0  0
  -21.0006  -28.3298   24.1370 H   0  0  0  0  0  0
  -20.5701  -26.2305   23.3600 H   0  0  0  0  0  0
  -21.6655  -26.7440   22.1197 H   0  0  0  0  0  0
  -19.6936  -25.6286   21.1243 H   0  0  0  0  0  0
  -19.6739  -27.3179   20.6724 H   0  0  0  0  0  0
  -17.4222  -26.6673   21.4014 H   0  0  0  0  0  0
  -18.0361  -26.0067   22.9015 H   0  0  0  0  0  0
  -19.7929  -30.7266   24.2285 H   0  0  0  0  0  0
  -17.5005  -31.6299   24.5115 H   0  0  0  0  0  0
  -15.5341  -30.2960   23.7683 H   0  0  0  0  0  0
  -15.8687  -28.0785   22.7116 H   0  0  0  0  0  0
  -24.5888  -30.7069   25.7652 H   0  0  0  0  0  0
  -24.8843  -32.2862   26.4811 H   0  0  0  0  0  0
  -25.7942  -30.8854   27.0191 H   0  0  0  0  0  0
  -26.3006  -29.6707   24.1295 H   0  0  0  0  0  0
  -27.4025  -29.7298   25.4848 H   0  0  0  0  0  0
  -27.8903  -30.4272   23.9599 H   0  0  0  0  0  0
  -27.2763  -33.3603   26.2066 H   0  0  0  0  0  0
  -28.3901  -32.6776   25.0308 H   0  0  0  0  0  0
  -28.0746  -31.8385   26.5403 H   0  0  0  0  0  0
  -28.2587  -38.0103   24.7554 H   0  0  0  0  0  0
  -28.1102  -36.2636   24.6259 H   0  0  0  0  0  0
  -27.2301  -37.1403   25.8856 H   0  0  0  0  0  0
  -20.9414  -29.8734   21.6791 H   0  0  0  0  0  0
  -26.0192  -38.2836   24.1402 H   0  0  0  0  0  0
  -31.7392  -18.2557   21.0249 H   0  0  0  0  0  0
  -32.4635  -20.8618   20.8618 H   0  0  0  0  0  0
  -31.1946  -21.7711   21.6885 H   0  0  0  0  0  0
  -31.3952  -21.8790   19.9180 H   0  0  0  0  0  0
  -26.3388  -22.2737   20.6541 H   0  0  0  0  0  0
  -27.2120  -21.4661   21.9485 H   0  0  0  0  0  0
  -26.4695  -20.5539   20.6347 H   0  0  0  0  0  0
  -28.5632  -16.1010   20.4697 H   0  0  0  0  0  0
  -29.5262  -16.3303   21.8628 H   0  0  0  0  0  0
  -29.1353  -23.2935   21.3507 H   0  0  0  0  0  0
  -29.7753  -23.3369   19.7417 H   0  0  0  0  0  0
  -26.9646  -24.4307   20.4333 H   0  0  0  0  0  0
  -27.7184  -24.5229   18.8865 H   0  0  0  0  0  0
  -28.0516  -21.5575   19.0182 H   0  0  0  0  0  0
  1 25  1  0  0  0
  1 30  2  0  0  0
  1 76  1  0  0  0
  2  3  1  0  0  0
  2 25  1  0  0  0
  2 83  1  0  0  0
  2 84  1  0  0  0
  3  4  1  0  0  0
  3 85  1  0  0  0
  3 86  1  0  0  0
  4  5  1  0  0  0
  4 87  1  0  0  0
  4 88  1  0  0  0
  5  6  1  0  0  0
  5 26  1  0  0  0
  5 89  1  0  0  0
  6 25  1  0  0  0
  6 90  1  0  0  0
  6 91  1  0  0  0
  7  8  2  0  0  0
  7 26  1  0  0  0
  7 29  1  0  0  0
  8  9  1  0  0  0
  8 22  1  0  0  0
  9 10  1  0  0  0
  9 27  2  0  0  0
 10 11  2  0  0  0
 10 15  1  0  0  0
 11 12  1  0  0  0
 11 92  1  0  0  0
 12 13  2  0  0  0
 12 93  1  0  0  0
 13 14  1  0  0  0
 13 31  1  0  0  0
 14 15  2  0  0  0
 14 94  1  0  0  0
 15 95  1  0  0  0
 16 17  2  0  0  0
 16 21  1  0  0  0
 16 31  1  0  0  0
 17 18  1  0  0  0
 17 96  1  0  0  0
 18 19  2  0  0  0
 18 97  1  0  0  0
 19 20  1  0  0  0
 19 24  1  0  0  0
 20 21  2  0  0  0
 20 98  1  0  0  0
 21 23  1  0  0  0
 22 28  1  0  0  0
 22 32  2  0  0  0
 26 27  1  0  0  0
 28 99  1  0  0  0
 28100  1  0  0  0
 29101  1  0  0  0
 29102  1  0  0  0
 33 34  1  0  0  0
 33 66  1  0  0  0
 33 70  2  0  0  0
 34 36  1  0  0  0
 34 59  1  0  0  0
 34103  1  0  0  0
 35 44  2  0  0  0
 35 45  1  0  0  0
 35 68  1  0  0  0
 36 56  1  0  0  0
 36104  1  0  0  0
 37 39  1  0  0  0
 37 47  1  0  0  0
 37 66  1  0  0  0
 37105  1  0  0  0
 38 43  2  0  0  0
 38 46  1  0  0  0
 38 47  1  0  0  0
 39 64  1  0  0  0
 39 67  2  0  0  0
 40 52  1  0  0  0
 40 53  2  0  0  0
 40 58  1  0  0  0
 41106  1  0  0  0
 41107  1  0  0  0
 41108  1  0  0  0
 41 48  1  0  0  0
 42 43  1  0  0  0
 42 66  1  0  0  0
 42109  1  0  0  0
 42110  1  0  0  0
 43 44  1  0  0  0
 44111  1  0  0  0
 45 46  2  0  0  0
 45112  1  0  0  0
 46113  1  0  0  0
 47114  1  0  0  0
 47115  1  0  0  0
 48 56  1  0  0  0
 48 65  1  0  0  0
 48116  1  0  0  0
 49 50  1  0  0  0
 49 53  1  0  0  0
 49 64  1  0  0  0
 49117  1  0  0  0
 50 51  1  0  0  0
 50118  1  0  0  0
 50119  1  0  0  0
 51 52  1  0  0  0
 51120  1  0  0  0
 51121  1  0  0  0
 52122  1  0  0  0
 52123  1  0  0  0
 53 54  1  0  0  0
 54 55  2  0  0  0
 54124  1  0  0  0
 55 57  1  0  0  0
 55125  1  0  0  0
 56 69  2  0  0  0
 57 58  2  0  0  0
 57126  1  0  0  0
 58127  1  0  0  0
 59 60  1  0  0  0
 59 61  1  0  0  0
 59 62  1  0  0  0
 60128  1  0  0  0
 60129  1  0  0  0
 60130  1  0  0  0
 61131  1  0  0  0
 61132  1  0  0  0
 61133  1  0  0  0
 62134  1  0  0  0
 62135  1  0  0  0
 62136  1  0  0  0
 63 65  1  0  0  0
 63137  1  0  0  0
 63138  1  0  0  0
 63139  1  0  0  0
 64140  1  0  0  0
 65141  1  0  0  0
 68 78  1  0  0  0
 71 72  2  0  0  0
 71 80  1  0  0  0
 71142  1  0  0  0
 72 74  1  0  0  0
 72 81  1  0  0  0
 73 80  1  0  0  0
 73 81  1  0  0  0
 73 82  2  0  0  0
 74143  1  0  0  0
 74144  1  0  0  0
 74145  1  0  0  0
 75146  1  0  0  0
 75147  1  0  0  0
 75148  1  0  0  0
 75 79  1  0  0  0
 76 80  1  0  0  0
 76149  1  0  0  0
 76150  1  0  0  0
 77 78  1  0  0  0
 77 79  1  0  0  0
 77151  1  0  0  0
 77152  1  0  0  0
 78153  1  0  0  0
 78154  1  0  0  0
 79 81  1  0  0  0
 79155  1  0  0  0
M  ISO  4   1 100  68 101  76 100  78 101
M  END
> <chiral flag>
0

> <version>
0

> <s_m_source_file>
/data/baiqing/PycharmProjects/Reinvent-master-3.2/result/LINK_invent/BTK/process_docking_weight1_custom_product_contain_oxygen_bond_distance_aromatic_linkinvent_7_9_3/rearranged_h_0108.sdf

> <i_m_source_file_index>
83

> <r_mmod_Potential_Energy-OPLS-2005>
714.484252929688

> <r_mmod_Stretch_Energy-OPLS-2005>
297.619567871094

> <r_mmod_Bend_Energy-OPLS-2005>
379.555541992188

> <r_mmod_Torsional_Energy-OPLS-2005>
252.753784179688

> <r_mmod_Improper_Torsional_Energy-OPLS-2005>
2.72147536277771

> <r_mmod_Van_der_Waal_Energy-OPLS-2005>
109.931358337402

> <r_mmod_Electrostatic_Energy-OPLS-2005>
-342.004119873047

> <r_mmod_Solvation_Energy-OPLS-2005>
-202.622756958008

> <b_mmod_Minimization_Converged-OPLS-2005>
0

> <r_mmod_RMS_Derivative-OPLS-2005>
4.75819301605225

$$$$
84
                    3D
 Structure written by MMmdl.
161170  0  0  1  0            999 V2000
  -30.7079  -14.4830   20.5738 C   0  0  0  0  0  0
  -30.4131  -12.3099   19.4198 C   0  0  0  0  0  0
  -29.4914  -12.4927   18.1987 C   0  0  0  0  0  0
  -28.0159  -12.3425   18.6166 C   0  0  0  0  0  0
  -27.6575  -13.2053   19.8605 C   0  0  2  0  0  0
  -28.6988  -12.9998   20.9805 C   0  0  0  0  0  0
  -25.2593  -13.8185   20.5650 C   0  0  0  0  0  0
  -24.1850  -13.0439   20.9194 C   0  0  0  0  0  0
  -24.6431  -11.6919   20.8778 C   0  0  0  0  0  0
  -23.9151  -10.4286   21.0470 C   0  0  0  0  0  0
  -24.3693   -9.4169   21.9210 C   0  0  0  0  0  0
  -23.6327   -8.2228   22.0781 C   0  0  0  0  0  0
  -22.4285   -8.0323   21.3586 C   0  0  0  0  0  0
  -21.9981   -9.0308   20.4663 C   0  0  0  0  0  0
  -22.7368  -10.2154   20.3086 C   0  0  0  0  0  0
  -21.6835   -6.0784   22.5310 C   0  0  0  0  0  0
  -21.4005   -6.5672   23.8257 C   0  0  0  0  0  0
  -21.3663   -5.6809   24.9217 C   0  0  0  0  0  0
  -21.6057   -4.3075   24.7245 C   0  0  0  0  0  0
  -21.8827   -3.8183   23.4358 C   0  0  0  0  0  0
  -21.9185   -4.7012   22.3423 C   0  0  0  0  0  0
  -22.7864  -13.5243   21.1815 C   0  0  0  0  0  0
  -22.1635   -4.2197   21.1004 F   0  0  0  0  0  0
  -21.5612   -3.4549   25.7751 F   0  0  0  0  0  0
  -30.0267  -13.3110   20.4255 N   0  0  0  0  0  0
  -26.3005  -12.9324   20.3299 N   0  0  0  0  0  0
  -25.9340  -11.6494   20.5790 N   0  0  0  0  0  0
  -22.0486  -12.8230   22.0383 N   0  0  0  0  0  0
  -25.4303  -15.1904   20.4082 N   0  0  0  0  0  0
  -31.8399  -14.6561   20.1184 O   0  0  0  0  0  0
  -21.6645   -6.8924   21.4271 O   0  0  0  0  0  0
  -22.3533  -14.5525   20.6654 O   0  0  0  0  0  0
  -24.6169  -31.8609   23.2016 C   0  0  0  0  0  0
  -25.9008  -32.4802   23.8368 C   0  0  1  0  0  0
  -27.2475  -27.3545   20.1336 C   0  0  0  0  0  0
  -25.5837  -33.8616   24.2302 N   0  0  0  0  0  0
  -23.4150  -30.4769   21.5405 C   0  0  2  0  0  0
  -24.8699  -28.9303   20.1074 C   0  0  0  0  0  0
  -22.7438  -29.4616   22.4944 C   0  0  0  0  0  0
  -18.0282  -28.1324   22.8501 C   0  0  0  0  0  0
  -24.1461  -36.7338   23.2654 C   0  0  0  0  0  0
  -25.9446  -30.7988   21.3701 C   0  0  0  0  0  0
  -26.0222  -29.4195   20.7341 C   0  0  0  0  0  0
  -27.2040  -28.6333   20.7548 C   0  0  0  0  0  0
  -26.0856  -26.9190   19.4568 C   0  0  0  0  0  0
  -24.9028  -27.6858   19.4523 C   0  0  0  0  0  0
  -23.6282  -29.7971   20.1590 C   0  0  0  0  0  0
  -25.4084  -36.3145   24.0363 C   0  0  1  0  0  0
  -20.5875  -28.3659   23.1254 C   0  0  2  0  0  0
  -20.6742  -26.9382   22.5379 C   0  0  0  0  0  0
  -19.5706  -26.6347   21.5181 C   0  0  0  0  0  0
  -18.1916  -26.7868   22.1633 C   0  0  0  0  0  0
  -19.1536  -28.8809   23.2885 C   0  0  0  0  0  0
  -18.9460  -30.1401   23.8920 C   0  0  0  0  0  0
  -17.6468  -30.6554   24.0541 C   0  0  0  0  0  0
  -25.9006  -34.9500   23.5158 C   0  0  0  0  0  0
  -16.5356  -29.9056   23.6294 C   0  0  0  0  0  0
  -16.7279  -28.6443   23.0380 C   0  0  0  0  0  0
  -26.4408  -31.6612   25.0736 C   0  0  0  0  0  0
  -25.3627  -31.3773   26.1453 C   0  0  0  0  0  0
  -27.0278  -30.3065   24.6159 C   0  0  0  0  0  0
  -27.5976  -32.4360   25.7475 C   0  0  0  0  0  0
  -27.5574  -37.1835   24.8471 C   0  0  0  0  0  0
  -21.4163  -29.3046   22.3693 N   0  0  0  0  0  0
  -26.4294  -37.3808   23.9389 N   0  0  0  0  0  0
  -24.6776  -31.0620   22.0966 N   0  0  0  0  0  0
  -23.4170  -28.8178   23.3040 O   0  0  0  0  0  0
  -28.4112  -26.5899   20.2143 O   0  0  0  0  0  0
  -26.5611  -34.8964   22.4753 O   0  0  0  0  0  0
  -23.5335  -32.1413   23.7319 O   0  0  0  0  0  0
  -29.9235  -19.3409   21.0842 C   0  0  0  0  0  0
  -29.5597  -20.1921   18.8431 C   0  0  0  0  0  0
  -29.9671  -17.8060   19.1927 C   0  0  0  0  0  0
  -29.6449  -20.4576   20.2295 C   0  0  0  0  0  0
  -30.0961  -18.0153   20.5795 C   0  0  0  0  0  0
  -29.7030  -18.8884   18.3325 C   0  0  0  0  0  0
  -29.5558  -21.8934   20.7202 C   0  0  0  0  0  0
  -26.1271  -23.0239   19.9501 C   0  0  0  0  0  0
  -26.6181  -23.9324   21.0670 C   0  0  0  0  0  0
  -27.2647  -22.0297   19.7603 C   0  0  0  0  0  0
  -28.1246  -24.0419   20.8079 C   0  0  1  0  0  0
  -30.5113  -16.8456   21.4988 C   0  0  0  0  0  0
  -28.5001  -25.1910   19.7871 C   0  0  0  0  0  0
  -28.4667  -22.6539   20.3331 N   0  0  0  0  0  0
  -30.0231  -15.4924   21.1481 N   0  0  0  0  0  0
  -29.6172  -18.6833   16.9960 F   0  0  0  0  0  0
  -30.8001  -22.4766   21.6798 S   0  0  0  0  0  0
  -31.4588  -12.3892   19.1188 H   0  0  0  0  0  0
  -30.2940  -11.3038   19.8279 H   0  0  0  0  0  0
  -29.7436  -11.7525   17.4366 H   0  0  0  0  0  0
  -29.6579  -13.4726   17.7482 H   0  0  0  0  0  0
  -27.8463  -11.2901   18.8385 H   0  0  0  0  0  0
  -27.3619  -12.5815   17.7784 H   0  0  0  0  0  0
  -27.7029  -14.2509   19.5540 H   0  0  0  0  0  0
  -28.6755  -11.9657   21.3275 H   0  0  0  0  0  0
  -28.4704  -13.6022   21.8569 H   0  0  0  0  0  0
  -25.2858   -9.5572   22.4779 H   0  0  0  0  0  0
  -24.0026   -7.4614   22.7503 H   0  0  0  0  0  0
  -21.0923   -8.8942   19.8925 H   0  0  0  0  0  0
  -22.3957  -10.9746   19.6191 H   0  0  0  0  0  0
  -21.1972   -7.6168   23.9796 H   0  0  0  0  0  0
  -21.1466   -6.0515   25.9137 H   0  0  0  0  0  0
  -22.0582   -2.7647   23.2878 H   0  0  0  0  0  0
  -22.4090  -11.9890   22.4734 H   0  0  0  0  0  0
  -21.1108  -13.1283   22.2626 H   0  0  0  0  0  0
  -24.6682  -15.8503   20.5263 H   0  0  0  0  0  0
  -26.2911  -15.6291   20.1035 H   0  0  0  0  0  0
  -26.7098  -32.5502   23.1145 H   0  0  0  0  0  0
  -24.9939  -33.9725   25.0428 H   0  0  0  0  0  0
  -22.7095  -31.2956   21.3902 H   0  0  0  0  0  0
  -23.3736  -35.9657   23.3331 H   0  0  0  0  0  0
  -24.3564  -36.8933   22.2064 H   0  0  0  0  0  0
  -23.7187  -37.6552   23.6642 H   0  0  0  0  0  0
  -26.0499  -31.5440   20.5802 H   0  0  0  0  0  0
  -26.8359  -30.8730   21.9832 H   0  0  0  0  0  0
  -28.0824  -28.9908   21.2737 H   0  0  0  0  0  0
  -26.0780  -25.9786   18.9340 H   0  0  0  0  0  0
  -24.0331  -27.3145   18.9285 H   0  0  0  0  0  0
  -23.7213  -30.5579   19.3818 H   0  0  0  0  0  0
  -22.7602  -29.1977   19.8804 H   0  0  0  0  0  0
  -25.1253  -36.2055   25.0862 H   0  0  0  0  0  0
  -20.9975  -28.3223   24.1360 H   0  0  0  0  0  0
  -20.5539  -26.2319   23.3601 H   0  0  0  0  0  0
  -21.6624  -26.7335   22.1231 H   0  0  0  0  0  0
  -19.6865  -25.6258   21.1212 H   0  0  0  0  0  0
  -19.6592  -27.3144   20.6694 H   0  0  0  0  0  0
  -17.4153  -26.6593   21.4067 H   0  0  0  0  0  0
  -18.0364  -25.9992   22.9020 H   0  0  0  0  0  0
  -19.7958  -30.7184   24.2314 H   0  0  0  0  0  0
  -17.5038  -31.6230   24.5130 H   0  0  0  0  0  0
  -15.5356  -30.2969   23.7562 H   0  0  0  0  0  0
  -15.8688  -28.0718   22.7139 H   0  0  0  0  0  0
  -24.5723  -30.7227   25.7740 H   0  0  0  0  0  0
  -24.8904  -32.2983   26.4892 H   0  0  0  0  0  0
  -25.7879  -30.8879   27.0224 H   0  0  0  0  0  0
  -26.2886  -29.6820   24.1130 H   0  0  0  0  0  0
  -27.3980  -29.7267   25.4619 H   0  0  0  0  0  0
  -27.8722  -30.4402   23.9396 H   0  0  0  0  0  0
  -27.2569  -33.3617   26.2112 H   0  0  0  0  0  0
  -28.3715  -32.7004   25.0263 H   0  0  0  0  0  0
  -28.0743  -31.8492   26.5324 H   0  0  0  0  0  0
  -28.2634  -38.0089   24.7495 H   0  0  0  0  0  0
  -28.1029  -36.2643   24.6326 H   0  0  0  0  0  0
  -27.2316  -37.1531   25.8882 H   0  0  0  0  0  0
  -20.9342  -29.8881   21.7012 H   0  0  0  0  0  0
  -26.0224  -38.2922   24.1320 H   0  0  0  0  0  0
  -30.0358  -19.5156   22.1452 H   0  0  0  0  0  0
  -29.4006  -21.0017   18.1438 H   0  0  0  0  0  0
  -30.1221  -16.8232   18.7715 H   0  0  0  0  0  0
  -26.0004  -23.5965   19.0324 H   0  0  0  0  0  0
  -25.1804  -22.5314   20.1716 H   0  0  0  0  0  0
  -26.4661  -23.4333   22.0258 H   0  0  0  0  0  0
  -26.0943  -24.8840   21.1208 H   0  0  0  0  0  0
  -27.3901  -21.8032   18.7024 H   0  0  0  0  0  0
  -27.0302  -21.0999   20.2832 H   0  0  0  0  0  0
  -28.6050  -24.2539   21.7637 H   0  0  0  0  0  0
  -31.6035  -16.8455   21.5584 H   0  0  0  0  0  0
  -30.1647  -17.0488   22.5135 H   0  0  0  0  0  0
  -28.0236  -25.0349   18.8191 H   0  0  0  0  0  0
  -29.5622  -25.0525   19.5769 H   0  0  0  0  0  0
  -29.0940  -15.2596   21.4602 H   0  0  0  0  0  0
  1 25  1  0  0  0
  1 30  2  0  0  0
  1 85  1  0  0  0
  2  3  1  0  0  0
  2 25  1  0  0  0
  2 88  1  0  0  0
  2 89  1  0  0  0
  3  4  1  0  0  0
  3 90  1  0  0  0
  3 91  1  0  0  0
  4  5  1  0  0  0
  4 92  1  0  0  0
  4 93  1  0  0  0
  5  6  1  0  0  0
  5 26  1  0  0  0
  5 94  1  0  0  0
  6 25  1  0  0  0
  6 95  1  0  0  0
  6 96  1  0  0  0
  7  8  2  0  0  0
  7 26  1  0  0  0
  7 29  1  0  0  0
  8  9  1  0  0  0
  8 22  1  0  0  0
  9 10  1  0  0  0
  9 27  2  0  0  0
 10 11  2  0  0  0
 10 15  1  0  0  0
 11 12  1  0  0  0
 11 97  1  0  0  0
 12 13  2  0  0  0
 12 98  1  0  0  0
 13 14  1  0  0  0
 13 31  1  0  0  0
 14 15  2  0  0  0
 14 99  1  0  0  0
 15100  1  0  0  0
 16 17  2  0  0  0
 16 21  1  0  0  0
 16 31  1  0  0  0
 17 18  1  0  0  0
 17101  1  0  0  0
 18 19  2  0  0  0
 18102  1  0  0  0
 19 20  1  0  0  0
 19 24  1  0  0  0
 20 21  2  0  0  0
 20103  1  0  0  0
 21 23  1  0  0  0
 22 28  1  0  0  0
 22 32  2  0  0  0
 26 27  1  0  0  0
 28104  1  0  0  0
 28105  1  0  0  0
 29106  1  0  0  0
 29107  1  0  0  0
 33 34  1  0  0  0
 33 66  1  0  0  0
 33 70  2  0  0  0
 34 36  1  0  0  0
 34 59  1  0  0  0
 34108  1  0  0  0
 35 44  2  0  0  0
 35 45  1  0  0  0
 35 68  1  0  0  0
 36 56  1  0  0  0
 36109  1  0  0  0
 37 39  1  0  0  0
 37 47  1  0  0  0
 37 66  1  0  0  0
 37110  1  0  0  0
 38 43  2  0  0  0
 38 46  1  0  0  0
 38 47  1  0  0  0
 39 64  1  0  0  0
 39 67  2  0  0  0
 40 52  1  0  0  0
 40 53  2  0  0  0
 40 58  1  0  0  0
 41111  1  0  0  0
 41112  1  0  0  0
 41113  1  0  0  0
 41 48  1  0  0  0
 42 43  1  0  0  0
 42 66  1  0  0  0
 42114  1  0  0  0
 42115  1  0  0  0
 43 44  1  0  0  0
 44116  1  0  0  0
 45 46  2  0  0  0
 45117  1  0  0  0
 46118  1  0  0  0
 47119  1  0  0  0
 47120  1  0  0  0
 48 56  1  0  0  0
 48 65  1  0  0  0
 48121  1  0  0  0
 49 50  1  0  0  0
 49 53  1  0  0  0
 49 64  1  0  0  0
 49122  1  0  0  0
 50 51  1  0  0  0
 50123  1  0  0  0
 50124  1  0  0  0
 51 52  1  0  0  0
 51125  1  0  0  0
 51126  1  0  0  0
 52127  1  0  0  0
 52128  1  0  0  0
 53 54  1  0  0  0
 54 55  2  0  0  0
 54129  1  0  0  0
 55 57  1  0  0  0
 55130  1  0  0  0
 56 69  2  0  0  0
 57 58  2  0  0  0
 57131  1  0  0  0
 58132  1  0  0  0
 59 60  1  0  0  0
 59 61  1  0  0  0
 59 62  1  0  0  0
 60133  1  0  0  0
 60134  1  0  0  0
 60135  1  0  0  0
 61136  1  0  0  0
 61137  1  0  0  0
 61138  1  0  0  0
 62139  1  0  0  0
 62140  1  0  0  0
 62141  1  0  0  0
 63 65  1  0  0  0
 63142  1  0  0  0
 63143  1  0  0  0
 63144  1  0  0  0
 64145  1  0  0  0
 65146  1  0  0  0
 68 83  1  0  0  0
 71 74  2  0  0  0
 71 75  1  0  0  0
 71147  1  0  0  0
 72 74  1  0  0  0
 72 76  2  0  0  0
 72148  1  0  0  0
 73 75  2  0  0  0
 73 76  1  0  0  0
 73149  1  0  0  0
 74 77  1  0  0  0
 75 82  1  0  0  0
 76 86  1  0  0  0
 77 84  1  0  0  0
 77 87  2  0  0  0
 78 79  1  0  0  0
 78 80  1  0  0  0
 78150  1  0  0  0
 78151  1  0  0  0
 79 81  1  0  0  0
 79152  1  0  0  0
 79153  1  0  0  0
 80 84  1  0  0  0
 80154  1  0  0  0
 80155  1  0  0  0
 81 83  1  0  0  0
 81 84  1  0  0  0
 81156  1  0  0  0
 82 85  1  0  0  0
 82157  1  0  0  0
 82158  1  0  0  0
 83159  1  0  0  0
 83160  1  0  0  0
 85161  1  0  0  0
M  ISO  4   1 100  68 101  83 101  85 100
M  END
> <chiral flag>
0

> <version>
0

> <s_m_source_file>
/data/baiqing/PycharmProjects/Reinvent-master-3.2/result/LINK_invent/BTK/process_docking_weight1_custom_product_contain_oxygen_bond_distance_aromatic_linkinvent_7_9_3/rearranged_h_0108.sdf

> <i_m_source_file_index>
84

> <r_mmod_Potential_Energy-OPLS-2005>
64.9120635986328

> <r_mmod_Stretch_Energy-OPLS-2005>
61.679931640625

> <r_mmod_Bend_Energy-OPLS-2005>
152.873626708984

> <r_mmod_Torsional_Energy-OPLS-2005>
288.426910400391

> <r_mmod_Improper_Torsional_Energy-OPLS-2005>
4.38584327697754

> <r_mmod_Van_der_Waal_Energy-OPLS-2005>
152.791381835938

> <r_mmod_Electrostatic_Energy-OPLS-2005>
-402.061096191406

> <r_mmod_Solvation_Energy-OPLS-2005>
-217.938735961914

> <b_mmod_Minimization_Converged-OPLS-2005>
0

> <r_mmod_RMS_Derivative-OPLS-2005>
5.50853586196899

$$$$
85
                    3D
 Structure written by MMmdl.
164173  0  0  1  0            999 V2000
  -30.5558  -14.8030   20.4541 C   0  0  0  0  0  0
  -30.4501  -12.4980   19.4558 C   0  0  0  0  0  0
  -29.5122  -12.5079   18.2276 C   0  0  0  0  0  0
  -28.0411  -12.3149   18.6511 C   0  0  0  0  0  0
  -27.6377  -13.2239   19.8424 C   0  0  2  0  0  0
  -28.6888  -13.1748   20.9706 C   0  0  0  0  0  0
  -25.2515  -13.8172   20.5709 C   0  0  0  0  0  0
  -24.1802  -13.0429   20.9213 C   0  0  0  0  0  0
  -24.6385  -11.6903   20.8751 C   0  0  0  0  0  0
  -23.9063  -10.4287   21.0412 C   0  0  0  0  0  0
  -24.3614   -9.4199   21.9186 C   0  0  0  0  0  0
  -23.6288   -8.2237   22.0759 C   0  0  0  0  0  0
  -22.4271   -8.0278   21.3547 C   0  0  0  0  0  0
  -21.9904   -9.0251   20.4649 C   0  0  0  0  0  0
  -22.7236  -10.2128   20.3059 C   0  0  0  0  0  0
  -21.6850   -6.0729   22.5277 C   0  0  0  0  0  0
  -21.4013   -6.5639   23.8210 C   0  0  0  0  0  0
  -21.3661   -5.6793   24.9173 C   0  0  0  0  0  0
  -21.6046   -4.3055   24.7228 C   0  0  0  0  0  0
  -21.8820   -3.8146   23.4348 C   0  0  0  0  0  0
  -21.9192   -4.6957   22.3400 C   0  0  0  0  0  0
  -22.7826  -13.5215   21.1870 C   0  0  0  0  0  0
  -22.1661   -4.2143   21.0974 F   0  0  0  0  0  0
  -21.5629   -3.4538   25.7742 F   0  0  0  0  0  0
  -29.9744  -13.5559   20.3725 N   0  0  0  0  0  0
  -26.2924  -12.9359   20.3262 N   0  0  0  0  0  0
  -25.9309  -11.6510   20.5742 N   0  0  0  0  0  0
  -22.0473  -12.8210   22.0425 N   0  0  0  0  0  0
  -25.4202  -15.1904   20.4174 N   0  0  0  0  0  0
  -31.7726  -14.9268   20.2832 O   0  0  0  0  0  0
  -21.6639   -6.8873   21.4239 O   0  0  0  0  0  0
  -22.3511  -14.5519   20.6716 O   0  0  0  0  0  0
  -24.6343  -31.8519   23.1945 C   0  0  0  0  0  0
  -25.9143  -32.4739   23.8323 C   0  0  1  0  0  0
  -27.2226  -27.2193   20.1507 C   0  0  0  0  0  0
  -25.5933  -33.8546   24.2249 N   0  0  0  0  0  0
  -23.4337  -30.4724   21.5382 C   0  0  2  0  0  0
  -24.8804  -28.9016   20.1259 C   0  0  0  0  0  0
  -22.7517  -29.4589   22.4891 C   0  0  0  0  0  0
  -18.0298  -28.1377   22.8475 C   0  0  0  0  0  0
  -24.1484  -36.7279   23.2640 C   0  0  0  0  0  0
  -25.9827  -30.7546   21.3784 C   0  0  0  0  0  0
  -26.0556  -29.3692   20.7273 C   0  0  0  0  0  0
  -27.2321  -28.5459   20.7130 C   0  0  0  0  0  0
  -26.0144  -26.8132   19.5500 C   0  0  0  0  0  0
  -24.8658  -27.6323   19.5270 C   0  0  0  0  0  0
  -23.6572  -29.7997   20.1586 C   0  0  0  0  0  0
  -25.4111  -36.3056   24.0318 C   0  0  1  0  0  0
  -20.5906  -28.3696   23.1251 C   0  0  2  0  0  0
  -20.6787  -26.9407   22.5400 C   0  0  0  0  0  0
  -19.5764  -26.6370   21.5200 C   0  0  0  0  0  0
  -18.1943  -26.7921   22.1611 C   0  0  0  0  0  0
  -19.1553  -28.8854   23.2853 C   0  0  0  0  0  0
  -18.9470  -30.1451   23.8877 C   0  0  0  0  0  0
  -17.6469  -30.6575   24.0554 C   0  0  0  0  0  0
  -25.9055  -34.9427   23.5089 C   0  0  0  0  0  0
  -16.5361  -29.9078   23.6321 C   0  0  0  0  0  0
  -16.7285  -28.6495   23.0348 C   0  0  0  0  0  0
  -26.4507  -31.6576   25.0727 C   0  0  0  0  0  0
  -25.3711  -31.3724   26.1436 C   0  0  0  0  0  0
  -27.0381  -30.2994   24.6250 C   0  0  0  0  0  0
  -27.6059  -32.4332   25.7494 C   0  0  0  0  0  0
  -27.5577  -37.1790   24.8463 C   0  0  0  0  0  0
  -21.4225  -29.3041   22.3634 N   0  0  0  0  0  0
  -26.4285  -37.3757   23.9406 N   0  0  0  0  0  0
  -24.7027  -31.0451   22.0940 N   0  0  0  0  0  0
  -23.4203  -28.8144   23.3006 O   0  0  0  0  0  0
  -28.3608  -26.3761   20.0610 O   0  0  0  0  0  0
  -26.5632  -34.8907   22.4660 O   0  0  0  0  0  0
  -23.5476  -32.1357   23.7213 O   0  0  0  0  0  0
  -28.3940  -19.5401   22.2446 C   0  0  0  0  0  0
  -28.7067  -17.1093   22.1327 C   0  0  0  0  0  0
  -29.6910  -18.5570   20.4335 C   0  0  0  0  0  0
  -28.1722  -18.2497   22.7674 C   0  0  0  0  0  0
  -29.1659  -19.7658   21.0854 C   0  0  0  0  0  0
  -29.4728  -17.1985   20.9518 C   0  0  0  0  0  0
  -28.9607  -21.9204   18.5056 C   0  0  0  0  0  0
  -28.1385  -22.7966   17.5914 C   0  0  0  0  0  0
  -27.4612  -23.7944   18.5215 C   0  0  0  0  0  0
  -27.9786  -23.5404   19.9533 C   0  0  2  0  0  0
  -25.8788  -18.4781   23.8376 C   0  0  0  0  0  0
  -27.3502  -18.0905   24.0361 C   0  0  0  0  0  0
  -29.5065  -21.3230   20.8166 C   0  0  0  0  0  0
  -28.4932  -24.9581   20.6021 C   0  0  0  0  0  0
  -28.8443  -22.2564   19.7997 N   0  0  0  0  0  0
  -29.6947  -15.8864   20.2791 N   0  0  0  0  0  0
  -29.6388  -20.9913   18.0566 O   0  0  0  0  0  0
  -31.4814  -12.6693   19.1427 H   0  0  0  0  0  0
  -30.4384  -11.5267   19.9520 H   0  0  0  0  0  0
  -29.8050  -11.7282   17.5235 H   0  0  0  0  0  0
  -29.6170  -13.4547   17.6952 H   0  0  0  0  0  0
  -27.9156  -11.2678   18.9294 H   0  0  0  0  0  0
  -27.3774  -12.4853   17.8021 H   0  0  0  0  0  0
  -27.6179  -14.2383   19.4460 H   0  0  0  0  0  0
  -28.7471  -12.1787   21.4121 H   0  0  0  0  0  0
  -28.4191  -13.8552   21.7797 H   0  0  0  0  0  0
  -25.2757   -9.5678   22.4763 H   0  0  0  0  0  0
  -23.9997   -7.4630   22.7482 H   0  0  0  0  0  0
  -21.0833   -8.8771   19.8957 H   0  0  0  0  0  0
  -22.3691  -10.9670   19.6174 H   0  0  0  0  0  0
  -21.2007   -7.6152   23.9712 H   0  0  0  0  0  0
  -21.1482   -6.0525   25.9077 H   0  0  0  0  0  0
  -22.0600   -2.7606   23.2851 H   0  0  0  0  0  0
  -22.4085  -11.9867   22.4809 H   0  0  0  0  0  0
  -21.1091  -13.1237   22.2644 H   0  0  0  0  0  0
  -24.6533  -15.8400   20.5518 H   0  0  0  0  0  0
  -26.2710  -15.6471   20.1194 H   0  0  0  0  0  0
  -26.7205  -32.5384   23.1060 H   0  0  0  0  0  0
  -25.0077  -33.9672   25.0397 H   0  0  0  0  0  0
  -22.7301  -31.2929   21.3846 H   0  0  0  0  0  0
  -23.3743  -35.9612   23.3301 H   0  0  0  0  0  0
  -24.3582  -36.8920   22.2057 H   0  0  0  0  0  0
  -23.7247  -37.6474   23.6687 H   0  0  0  0  0  0
  -26.1222  -31.5092   20.6029 H   0  0  0  0  0  0
  -26.8590  -30.8107   22.0131 H   0  0  0  0  0  0
  -28.1466  -28.9133   21.1559 H   0  0  0  0  0  0
  -25.9408  -25.8465   19.0826 H   0  0  0  0  0  0
  -23.9645  -27.2657   19.0548 H   0  0  0  0  0  0
  -23.7960  -30.5733   19.4017 H   0  0  0  0  0  0
  -22.7725  -29.2403   19.8479 H   0  0  0  0  0  0
  -25.1294  -36.1900   25.0809 H   0  0  0  0  0  0
  -20.9992  -28.3275   24.1373 H   0  0  0  0  0  0
  -20.5673  -26.2296   23.3603 H   0  0  0  0  0  0
  -21.6654  -26.7416   22.1193 H   0  0  0  0  0  0
  -19.6911  -25.6272   21.1241 H   0  0  0  0  0  0
  -19.6708  -27.3158   20.6712 H   0  0  0  0  0  0
  -17.4208  -26.6652   21.4015 H   0  0  0  0  0  0
  -18.0349  -26.0056   22.9000 H   0  0  0  0  0  0
  -19.7948  -30.7263   24.2248 H   0  0  0  0  0  0
  -17.5029  -31.6258   24.5154 H   0  0  0  0  0  0
  -15.5363  -30.2982   23.7651 H   0  0  0  0  0  0
  -15.8681  -28.0817   22.7075 H   0  0  0  0  0  0
  -24.5906  -30.7052   25.7760 H   0  0  0  0  0  0
  -24.8858  -32.2876   26.4823 H   0  0  0  0  0  0
  -25.7999  -30.8931   27.0246 H   0  0  0  0  0  0
  -26.2993  -29.6697   24.1274 H   0  0  0  0  0  0
  -27.4057  -29.7300   25.4799 H   0  0  0  0  0  0
  -27.8867  -30.4259   23.9522 H   0  0  0  0  0  0
  -27.2695  -33.3667   26.2009 H   0  0  0  0  0  0
  -28.3893  -32.6833   25.0328 H   0  0  0  0  0  0
  -28.0706  -31.8501   26.5450 H   0  0  0  0  0  0
  -28.2570  -38.0110   24.7530 H   0  0  0  0  0  0
  -28.1102  -36.2638   24.6273 H   0  0  0  0  0  0
  -27.2303  -37.1421   25.8869 H   0  0  0  0  0  0
  -20.9403  -29.8783   21.6863 H   0  0  0  0  0  0
  -26.0159  -38.2823   24.1431 H   0  0  0  0  0  0
  -27.9903  -20.3879   22.7822 H   0  0  0  0  0  0
  -28.4766  -16.1366   22.5442 H   0  0  0  0  0  0
  -30.2677  -18.6759   19.5270 H   0  0  0  0  0  0
  -27.4129  -22.1947   17.0442 H   0  0  0  0  0  0
  -28.7892  -23.2952   16.8729 H   0  0  0  0  0  0
  -26.3773  -23.6752   18.4757 H   0  0  0  0  0  0
  -27.6934  -24.8010   18.1754 H   0  0  0  0  0  0
  -27.1217  -23.2261   20.5496 H   0  0  0  0  0  0
  -25.3184  -18.3491   24.7641 H   0  0  0  0  0  0
  -25.4053  -17.8607   23.0727 H   0  0  0  0  0  0
  -25.7745  -19.5212   23.5360 H   0  0  0  0  0  0
  -27.7933  -18.7065   24.8200 H   0  0  0  0  0  0
  -27.4096  -17.0613   24.3937 H   0  0  0  0  0  0
  -30.5760  -21.3509   20.6017 H   0  0  0  0  0  0
  -29.4291  -21.8417   21.7727 H   0  0  0  0  0  0
  -28.1178  -24.9950   21.6258 H   0  0  0  0  0  0
  -29.5685  -24.8356   20.7326 H   0  0  0  0  0  0
  -28.8104  -15.4986   19.9923 H   0  0  0  0  0  0
  1 25  1  0  0  0
  1 30  2  0  0  0
  1 86  1  0  0  0
  2  3  1  0  0  0
  2 25  1  0  0  0
  2 88  1  0  0  0
  2 89  1  0  0  0
  3  4  1  0  0  0
  3 90  1  0  0  0
  3 91  1  0  0  0
  4  5  1  0  0  0
  4 92  1  0  0  0
  4 93  1  0  0  0
  5  6  1  0  0  0
  5 26  1  0  0  0
  5 94  1  0  0  0
  6 25  1  0  0  0
  6 95  1  0  0  0
  6 96  1  0  0  0
  7  8  2  0  0  0
  7 26  1  0  0  0
  7 29  1  0  0  0
  8  9  1  0  0  0
  8 22  1  0  0  0
  9 10  1  0  0  0
  9 27  2  0  0  0
 10 11  2  0  0  0
 10 15  1  0  0  0
 11 12  1  0  0  0
 11 97  1  0  0  0
 12 13  2  0  0  0
 12 98  1  0  0  0
 13 14  1  0  0  0
 13 31  1  0  0  0
 14 15  2  0  0  0
 14 99  1  0  0  0
 15100  1  0  0  0
 16 17  2  0  0  0
 16 21  1  0  0  0
 16 31  1  0  0  0
 17 18  1  0  0  0
 17101  1  0  0  0
 18 19  2  0  0  0
 18102  1  0  0  0
 19 20  1  0  0  0
 19 24  1  0  0  0
 20 21  2  0  0  0
 20103  1  0  0  0
 21 23  1  0  0  0
 22 28  1  0  0  0
 22 32  2  0  0  0
 26 27  1  0  0  0
 28104  1  0  0  0
 28105  1  0  0  0
 29106  1  0  0  0
 29107  1  0  0  0
 33 34  1  0  0  0
 33 66  1  0  0  0
 33 70  2  0  0  0
 34 36  1  0  0  0
 34 59  1  0  0  0
 34108  1  0  0  0
 35 44  2  0  0  0
 35 45  1  0  0  0
 35 68  1  0  0  0
 36 56  1  0  0  0
 36109  1  0  0  0
 37 39  1  0  0  0
 37 47  1  0  0  0
 37 66  1  0  0  0
 37110  1  0  0  0
 38 43  2  0  0  0
 38 46  1  0  0  0
 38 47  1  0  0  0
 39 64  1  0  0  0
 39 67  2  0  0  0
 40 52  1  0  0  0
 40 53  2  0  0  0
 40 58  1  0  0  0
 41111  1  0  0  0
 41112  1  0  0  0
 41113  1  0  0  0
 41 48  1  0  0  0
 42 43  1  0  0  0
 42 66  1  0  0  0
 42114  1  0  0  0
 42115  1  0  0  0
 43 44  1  0  0  0
 44116  1  0  0  0
 45 46  2  0  0  0
 45117  1  0  0  0
 46118  1  0  0  0
 47119  1  0  0  0
 47120  1  0  0  0
 48 56  1  0  0  0
 48 65  1  0  0  0
 48121  1  0  0  0
 49 50  1  0  0  0
 49 53  1  0  0  0
 49 64  1  0  0  0
 49122  1  0  0  0
 50 51  1  0  0  0
 50123  1  0  0  0
 50124  1  0  0  0
 51 52  1  0  0  0
 51125  1  0  0  0
 51126  1  0  0  0
 52127  1  0  0  0
 52128  1  0  0  0
 53 54  1  0  0  0
 54 55  2  0  0  0
 54129  1  0  0  0
 55 57  1  0  0  0
 55130  1  0  0  0
 56 69  2  0  0  0
 57 58  2  0  0  0
 57131  1  0  0  0
 58132  1  0  0  0
 59 60  1  0  0  0
 59 61  1  0  0  0
 59 62  1  0  0  0
 60133  1  0  0  0
 60134  1  0  0  0
 60135  1  0  0  0
 61136  1  0  0  0
 61137  1  0  0  0
 61138  1  0  0  0
 62139  1  0  0  0
 62140  1  0  0  0
 62141  1  0  0  0
 63 65  1  0  0  0
 63142  1  0  0  0
 63143  1  0  0  0
 63144  1  0  0  0
 64145  1  0  0  0
 65146  1  0  0  0
 68 84  1  0  0  0
 71 74  2  0  0  0
 71 75  1  0  0  0
 71147  1  0  0  0
 72 74  1  0  0  0
 72 76  2  0  0  0
 72148  1  0  0  0
 73 75  2  0  0  0
 73 76  1  0  0  0
 73149  1  0  0  0
 74 82  1  0  0  0
 75 83  1  0  0  0
 76 86  1  0  0  0
 77 78  1  0  0  0
 77 85  1  0  0  0
 77 87  2  0  0  0
 78 79  1  0  0  0
 78150  1  0  0  0
 78151  1  0  0  0
 79 80  1  0  0  0
 79152  1  0  0  0
 79153  1  0  0  0
 80 84  1  0  0  0
 80 85  1  0  0  0
 80154  1  0  0  0
 81 82  1  0  0  0
 81155  1  0  0  0
 81156  1  0  0  0
 81157  1  0  0  0
 82158  1  0  0  0
 82159  1  0  0  0
 83 85  1  0  0  0
 83160  1  0  0  0
 83161  1  0  0  0
 84162  1  0  0  0
 84163  1  0  0  0
 86164  1  0  0  0
M  ISO  4   1 100  68 101  84 101  86 100
M  END
> <chiral flag>
0

> <version>
0

> <s_m_source_file>
/data/baiqing/PycharmProjects/Reinvent-master-3.2/result/LINK_invent/BTK/process_docking_weight1_custom_product_contain_oxygen_bond_distance_aromatic_linkinvent_7_9_3/rearranged_h_0108.sdf

> <i_m_source_file_index>
85

> <r_mmod_Potential_Energy-OPLS-2005>
407.3837890625

> <r_mmod_Stretch_Energy-OPLS-2005>
157.627288818359

> <r_mmod_Bend_Energy-OPLS-2005>
282.246551513672

> <r_mmod_Torsional_Energy-OPLS-2005>
345.31103515625

> <r_mmod_Improper_Torsional_Energy-OPLS-2005>
19.1941242218018

> <r_mmod_Van_der_Waal_Energy-OPLS-2005>
117.624633789062

> <r_mmod_Electrostatic_Energy-OPLS-2005>
-393.541168212891

> <r_mmod_Solvation_Energy-OPLS-2005>
-230.295776367188

> <b_mmod_Minimization_Converged-OPLS-2005>
0

> <r_mmod_RMS_Derivative-OPLS-2005>
1.4804619550705

$$$$
86
                    3D
 Structure written by MMmdl.
157165  0  0  1  0            999 V2000
  -30.6797  -14.5380   20.5568 C   0  0  0  0  0  0
  -30.4363  -12.3325   19.4562 C   0  0  0  0  0  0
  -29.5131  -12.4651   18.2239 C   0  0  0  0  0  0
  -28.0213  -12.3688   18.6153 C   0  0  0  0  0  0
  -27.6584  -13.2044   19.8726 C   0  0  2  0  0  0
  -28.6950  -12.9721   20.9874 C   0  0  0  0  0  0
  -25.2585  -13.8153   20.5669 C   0  0  0  0  0  0
  -24.1841  -13.0433   20.9161 C   0  0  0  0  0  0
  -24.6395  -11.6895   20.8734 C   0  0  0  0  0  0
  -23.9063  -10.4289   21.0416 C   0  0  0  0  0  0
  -24.3611   -9.4205   21.9199 C   0  0  0  0  0  0
  -23.6287   -8.2240   22.0760 C   0  0  0  0  0  0
  -22.4268   -8.0287   21.3552 C   0  0  0  0  0  0
  -21.9908   -9.0261   20.4651 C   0  0  0  0  0  0
  -22.7236  -10.2138   20.3068 C   0  0  0  0  0  0
  -21.6851   -6.0735   22.5277 C   0  0  0  0  0  0
  -21.4022   -6.5641   23.8213 C   0  0  0  0  0  0
  -21.3652   -5.6793   24.9171 C   0  0  0  0  0  0
  -21.6045   -4.3057   24.7221 C   0  0  0  0  0  0
  -21.8818   -3.8148   23.4343 C   0  0  0  0  0  0
  -21.9197   -4.6966   22.3399 C   0  0  0  0  0  0
  -22.7868  -13.5230   21.1834 C   0  0  0  0  0  0
  -22.1665   -4.2153   21.0974 F   0  0  0  0  0  0
  -21.5621   -3.4537   25.7729 F   0  0  0  0  0  0
  -30.0223  -13.3357   20.4575 N   0  0  0  0  0  0
  -26.3006  -12.9310   20.3340 N   0  0  0  0  0  0
  -25.9314  -11.6473   20.5757 N   0  0  0  0  0  0
  -22.0518  -12.8229   22.0400 N   0  0  0  0  0  0
  -25.4310  -15.1883   20.4084 N   0  0  0  0  0  0
  -31.8128  -14.7010   20.0899 O   0  0  0  0  0  0
  -21.6641   -6.8878   21.4239 O   0  0  0  0  0  0
  -22.3547  -14.5535   20.6685 O   0  0  0  0  0  0
  -24.6168  -31.8648   23.2076 C   0  0  0  0  0  0
  -25.9045  -32.4806   23.8387 C   0  0  1  0  0  0
  -27.2327  -27.3964   20.1023 C   0  0  0  0  0  0
  -25.5870  -33.8611   24.2308 N   0  0  0  0  0  0
  -23.4057  -30.4883   21.5496 C   0  0  2  0  0  0
  -24.8501  -28.9478   20.1173 C   0  0  0  0  0  0
  -22.7418  -29.4646   22.4990 C   0  0  0  0  0  0
  -18.0266  -28.1367   22.8494 C   0  0  0  0  0  0
  -24.1481  -36.7323   23.2637 C   0  0  0  0  0  0
  -25.9381  -30.8194   21.3654 C   0  0  0  0  0  0
  -26.0123  -29.4505   20.7131 C   0  0  0  0  0  0
  -27.2031  -28.6837   20.6991 C   0  0  0  0  0  0
  -26.0423  -26.9122   19.5084 C   0  0  0  0  0  0
  -24.8624  -27.6806   19.5117 C   0  0  0  0  0  0
  -23.6147  -29.8183   20.1658 C   0  0  0  0  0  0
  -25.4104  -36.3120   24.0338 C   0  0  1  0  0  0
  -20.5858  -28.3664   23.1316 C   0  0  2  0  0  0
  -20.6760  -26.9397   22.5417 C   0  0  0  0  0  0
  -19.5742  -26.6375   21.5210 C   0  0  0  0  0  0
  -18.1917  -26.7916   22.1618 C   0  0  0  0  0  0
  -19.1514  -28.8833   23.2901 C   0  0  0  0  0  0
  -18.9438  -30.1436   23.8920 C   0  0  0  0  0  0
  -17.6444  -30.6579   24.0562 C   0  0  0  0  0  0
  -25.9028  -34.9474   23.5131 C   0  0  0  0  0  0
  -16.5337  -29.9077   23.6325 C   0  0  0  0  0  0
  -16.7258  -28.6485   23.0366 C   0  0  0  0  0  0
  -26.4463  -31.6604   25.0735 C   0  0  0  0  0  0
  -25.3718  -31.3718   26.1476 C   0  0  0  0  0  0
  -27.0301  -30.3045   24.6136 C   0  0  0  0  0  0
  -27.6035  -32.4334   25.7495 C   0  0  0  0  0  0
  -27.5585  -37.1818   24.8459 C   0  0  0  0  0  0
  -21.4140  -29.3036   22.3732 N   0  0  0  0  0  0
  -26.4298  -37.3797   23.9403 N   0  0  0  0  0  0
  -24.6722  -31.0725   22.0990 N   0  0  0  0  0  0
  -23.4176  -28.8181   23.3043 O   0  0  0  0  0  0
  -28.4216  -26.6807   20.1248 O   0  0  0  0  0  0
  -26.5594  -34.8932   22.4697 O   0  0  0  0  0  0
  -23.5354  -32.1412   23.7449 O   0  0  0  0  0  0
  -29.8396  -18.5879   18.4634 C   0  0  0  0  0  0
  -29.7532  -19.7320   19.2715 C   0  0  0  0  0  0
  -29.8292  -18.2960   21.2235 C   0  0  0  0  0  0
  -29.9213  -17.1018   20.4376 C   0  0  0  0  0  0
  -29.8912  -17.2886   19.0168 C   0  0  0  0  0  0
  -29.7238  -19.6007   20.6720 C   0  0  0  0  0  0
  -29.9297  -15.7564   21.1731 C   0  0  0  0  0  0
  -28.4714  -24.2807   20.8392 C   0  0  0  0  0  0
  -29.8457  -16.1495   18.0131 C   0  0  0  0  0  0
  -28.5518  -22.7693   20.5018 C   0  0  0  0  0  0
  -28.4924  -25.3027   19.6741 C   0  0  0  0  0  0
  -29.7973  -22.0330   21.0807 C   0  0  0  0  0  0
  -29.3817  -15.6827   22.3158 N   0  0  0  0  0  0
  -28.3786  -24.6541   22.0142 O   0  0  0  0  0  0
  -29.5668  -20.6792   21.5307 O   0  0  0  0  0  0
  -31.4801  -12.4418   19.1581 H   0  0  0  0  0  0
  -30.3627  -11.3302   19.8796 H   0  0  0  0  0  0
  -29.7517  -11.6874   17.4970 H   0  0  0  0  0  0
  -29.7126  -13.4029   17.7128 H   0  0  0  0  0  0
  -27.8030  -11.3168   18.8018 H   0  0  0  0  0  0
  -27.3920  -12.6626   17.7746 H   0  0  0  0  0  0
  -27.6964  -14.2546   19.5915 H   0  0  0  0  0  0
  -28.6934  -11.9211   21.2786 H   0  0  0  0  0  0
  -28.4132  -13.4917   21.8985 H   0  0  0  0  0  0
  -25.2758   -9.5669   22.4771 H   0  0  0  0  0  0
  -23.9995   -7.4623   22.7476 H   0  0  0  0  0  0
  -21.0841   -8.8778   19.8952 H   0  0  0  0  0  0
  -22.3711  -10.9673   19.6170 H   0  0  0  0  0  0
  -21.2029   -7.6153   23.9713 H   0  0  0  0  0  0
  -21.1473   -6.0527   25.9069 H   0  0  0  0  0  0
  -22.0610   -2.7613   23.2841 H   0  0  0  0  0  0
  -22.4117  -11.9868   22.4764 H   0  0  0  0  0  0
  -21.1156  -13.1280   22.2638 H   0  0  0  0  0  0
  -24.6720  -15.8489   20.5349 H   0  0  0  0  0  0
  -26.2958  -15.6304   20.1239 H   0  0  0  0  0  0
  -26.7117  -32.5501   23.1154 H   0  0  0  0  0  0
  -25.0036  -33.9777   25.0464 H   0  0  0  0  0  0
  -22.6950  -31.3056   21.4084 H   0  0  0  0  0  0
  -23.3746  -35.9653   23.3310 H   0  0  0  0  0  0
  -24.3572  -36.8922   22.2049 H   0  0  0  0  0  0
  -23.7232  -37.6527   23.6652 H   0  0  0  0  0  0
  -26.0549  -31.5843   20.5963 H   0  0  0  0  0  0
  -26.8242  -30.8714   21.9862 H   0  0  0  0  0  0
  -28.1015  -29.0717   21.1593 H   0  0  0  0  0  0
  -25.9838  -25.9436   19.0381 H   0  0  0  0  0  0
  -23.9659  -27.2869   19.0524 H   0  0  0  0  0  0
  -23.7232  -30.5897   19.4032 H   0  0  0  0  0  0
  -22.7374  -29.2392   19.8717 H   0  0  0  0  0  0
  -25.1291  -36.1983   25.0834 H   0  0  0  0  0  0
  -20.9947  -28.3224   24.1439 H   0  0  0  0  0  0
  -20.5645  -26.2272   23.3607 H   0  0  0  0  0  0
  -21.6635  -26.7431   22.1219 H   0  0  0  0  0  0
  -19.6907  -25.6282   21.1241 H   0  0  0  0  0  0
  -19.6687  -27.3186   20.6742 H   0  0  0  0  0  0
  -17.4190  -26.6671   21.4013 H   0  0  0  0  0  0
  -18.0313  -26.0046   22.9002 H   0  0  0  0  0  0
  -19.7916  -30.7238   24.2309 H   0  0  0  0  0  0
  -17.5001  -31.6264   24.5152 H   0  0  0  0  0  0
  -15.5339  -30.2993   23.7638 H   0  0  0  0  0  0
  -15.8655  -28.0805   22.7109 H   0  0  0  0  0  0
  -24.5887  -30.7071   25.7810 H   0  0  0  0  0  0
  -24.8922  -32.2873   26.4944 H   0  0  0  0  0  0
  -25.8057  -30.8867   27.0226 H   0  0  0  0  0  0
  -26.2865  -29.6801   24.1164 H   0  0  0  0  0  0
  -27.4029  -29.7283   25.4610 H   0  0  0  0  0  0
  -27.8712  -30.4369   23.9331 H   0  0  0  0  0  0
  -27.2657  -33.3620   26.2114 H   0  0  0  0  0  0
  -28.3818  -32.6909   25.0299 H   0  0  0  0  0  0
  -28.0741  -31.8431   26.5372 H   0  0  0  0  0  0
  -28.2614  -38.0105   24.7505 H   0  0  0  0  0  0
  -28.1073  -36.2642   24.6296 H   0  0  0  0  0  0
  -27.2300  -37.1462   25.8859 H   0  0  0  0  0  0
  -20.9301  -29.8773   21.6967 H   0  0  0  0  0  0
  -26.0193  -38.2879   24.1391 H   0  0  0  0  0  0
  -29.8263  -18.7226   17.3903 H   0  0  0  0  0  0
  -29.6766  -20.6952   18.7902 H   0  0  0  0  0  0
  -29.8244  -18.2248   22.3013 H   0  0  0  0  0  0
  -29.0989  -15.4187   18.3095 H   0  0  0  0  0  0
  -30.8184  -15.6709   17.9033 H   0  0  0  0  0  0
  -29.5532  -16.5005   17.0231 H   0  0  0  0  0  0
  -28.5016  -22.6366   19.4214 H   0  0  0  0  0  0
  -27.6507  -22.3083   20.9062 H   0  0  0  0  0  0
  -27.7450  -25.0419   18.9296 H   0  0  0  0  0  0
  -29.4493  -25.1817   19.1670 H   0  0  0  0  0  0
  -30.1493  -22.5661   21.9648 H   0  0  0  0  0  0
  -30.6324  -22.0785   20.3804 H   0  0  0  0  0  0
  -28.9627  -16.5682   22.5712 H   0  0  0  0  0  0
  1 25  1  0  0  0
  1 30  2  0  0  0
  1 77  1  0  0  0
  2  3  1  0  0  0
  2 25  1  0  0  0
  2 86  1  0  0  0
  2 87  1  0  0  0
  3  4  1  0  0  0
  3 88  1  0  0  0
  3 89  1  0  0  0
  4  5  1  0  0  0
  4 90  1  0  0  0
  4 91  1  0  0  0
  5  6  1  0  0  0
  5 26  1  0  0  0
  5 92  1  0  0  0
  6 25  1  0  0  0
  6 93  1  0  0  0
  6 94  1  0  0  0
  7  8  2  0  0  0
  7 26  1  0  0  0
  7 29  1  0  0  0
  8  9  1  0  0  0
  8 22  1  0  0  0
  9 10  1  0  0  0
  9 27  2  0  0  0
 10 11  2  0  0  0
 10 15  1  0  0  0
 11 12  1  0  0  0
 11 95  1  0  0  0
 12 13  2  0  0  0
 12 96  1  0  0  0
 13 14  1  0  0  0
 13 31  1  0  0  0
 14 15  2  0  0  0
 14 97  1  0  0  0
 15 98  1  0  0  0
 16 17  2  0  0  0
 16 21  1  0  0  0
 16 31  1  0  0  0
 17 18  1  0  0  0
 17 99  1  0  0  0
 18 19  2  0  0  0
 18100  1  0  0  0
 19 20  1  0  0  0
 19 24  1  0  0  0
 20 21  2  0  0  0
 20101  1  0  0  0
 21 23  1  0  0  0
 22 28  1  0  0  0
 22 32  2  0  0  0
 26 27  1  0  0  0
 28102  1  0  0  0
 28103  1  0  0  0
 29104  1  0  0  0
 29105  1  0  0  0
 33 34  1  0  0  0
 33 66  1  0  0  0
 33 70  2  0  0  0
 34 36  1  0  0  0
 34 59  1  0  0  0
 34106  1  0  0  0
 35 44  2  0  0  0
 35 45  1  0  0  0
 35 68  1  0  0  0
 36 56  1  0  0  0
 36107  1  0  0  0
 37 39  1  0  0  0
 37 47  1  0  0  0
 37 66  1  0  0  0
 37108  1  0  0  0
 38 43  2  0  0  0
 38 46  1  0  0  0
 38 47  1  0  0  0
 39 64  1  0  0  0
 39 67  2  0  0  0
 40 52  1  0  0  0
 40 53  2  0  0  0
 40 58  1  0  0  0
 41109  1  0  0  0
 41110  1  0  0  0
 41111  1  0  0  0
 41 48  1  0  0  0
 42 43  1  0  0  0
 42 66  1  0  0  0
 42112  1  0  0  0
 42113  1  0  0  0
 43 44  1  0  0  0
 44114  1  0  0  0
 45 46  2  0  0  0
 45115  1  0  0  0
 46116  1  0  0  0
 47117  1  0  0  0
 47118  1  0  0  0
 48 56  1  0  0  0
 48 65  1  0  0  0
 48119  1  0  0  0
 49 50  1  0  0  0
 49 53  1  0  0  0
 49 64  1  0  0  0
 49120  1  0  0  0
 50 51  1  0  0  0
 50121  1  0  0  0
 50122  1  0  0  0
 51 52  1  0  0  0
 51123  1  0  0  0
 51124  1  0  0  0
 52125  1  0  0  0
 52126  1  0  0  0
 53 54  1  0  0  0
 54 55  2  0  0  0
 54127  1  0  0  0
 55 57  1  0  0  0
 55128  1  0  0  0
 56 69  2  0  0  0
 57 58  2  0  0  0
 57129  1  0  0  0
 58130  1  0  0  0
 59 60  1  0  0  0
 59 61  1  0  0  0
 59 62  1  0  0  0
 60131  1  0  0  0
 60132  1  0  0  0
 60133  1  0  0  0
 61134  1  0  0  0
 61135  1  0  0  0
 61136  1  0  0  0
 62137  1  0  0  0
 62138  1  0  0  0
 62139  1  0  0  0
 63 65  1  0  0  0
 63140  1  0  0  0
 63141  1  0  0  0
 63142  1  0  0  0
 64143  1  0  0  0
 65144  1  0  0  0
 68 81  1  0  0  0
 71 72  2  0  0  0
 71 75  1  0  0  0
 71145  1  0  0  0
 72 76  1  0  0  0
 72146  1  0  0  0
 73 74  1  0  0  0
 73 76  2  0  0  0
 73147  1  0  0  0
 74 75  2  0  0  0
 74 77  1  0  0  0
 75 79  1  0  0  0
 76 85  1  0  0  0
 77 83  2  0  0  0
 78 80  1  0  0  0
 78 81  1  0  0  0
 78 84  2  0  0  0
 79148  1  0  0  0
 79149  1  0  0  0
 79150  1  0  0  0
 80 82  1  0  0  0
 80151  1  0  0  0
 80152  1  0  0  0
 81153  1  0  0  0
 81154  1  0  0  0
 82 85  1  0  0  0
 82155  1  0  0  0
 82156  1  0  0  0
 83157  1  0  0  0
M  ISO  4   1 100  68 101  77 100  81 101
M  END
> <chiral flag>
0

> <version>
0

> <s_m_source_file>
/data/baiqing/PycharmProjects/Reinvent-master-3.2/result/LINK_invent/BTK/process_docking_weight1_custom_product_contain_oxygen_bond_distance_aromatic_linkinvent_7_9_3/rearranged_h_0108.sdf

> <i_m_source_file_index>
86

> <r_mmod_Potential_Energy-OPLS-2005>
146.972625732422

> <r_mmod_Stretch_Energy-OPLS-2005>
59.2653274536133

> <r_mmod_Bend_Energy-OPLS-2005>
139.527145385742

> <r_mmod_Torsional_Energy-OPLS-2005>
201.785934448242

> <r_mmod_Improper_Torsional_Energy-OPLS-2005>
3.24754595756531

> <r_mmod_Van_der_Waal_Energy-OPLS-2005>
163.744018554688

> <r_mmod_Electrostatic_Energy-OPLS-2005>
-214.361480712891

> <r_mmod_Solvation_Energy-OPLS-2005>
-225.911712646484

> <b_mmod_Minimization_Converged-OPLS-2005>
0

> <r_mmod_RMS_Derivative-OPLS-2005>
1.56274700164795

$$$$
87
                    3D
 Structure written by MMmdl.
163171  0  0  1  0            999 V2000
  -30.6636  -14.4538   20.5950 C   0  0  0  0  0  0
  -30.4206  -12.3057   19.3890 C   0  0  0  0  0  0
  -29.4781  -12.5100   18.1838 C   0  0  0  0  0  0
  -27.9939  -12.3836   18.5943 C   0  0  0  0  0  0
  -27.6521  -13.2028   19.8669 C   0  0  2  0  0  0
  -28.6948  -12.9410   20.9738 C   0  0  0  0  0  0
  -25.2552  -13.8200   20.5657 C   0  0  0  0  0  0
  -24.1811  -13.0469   20.9190 C   0  0  0  0  0  0
  -24.6348  -11.6952   20.8748 C   0  0  0  0  0  0
  -23.9042  -10.4327   21.0401 C   0  0  0  0  0  0
  -24.3614   -9.4229   21.9159 C   0  0  0  0  0  0
  -23.6322   -8.2250   22.0716 C   0  0  0  0  0  0
  -22.4300   -8.0278   21.3516 C   0  0  0  0  0  0
  -21.9920   -9.0254   20.4618 C   0  0  0  0  0  0
  -22.7223  -10.2152   20.3045 C   0  0  0  0  0  0
  -21.6853   -6.0741   22.5281 C   0  0  0  0  0  0
  -21.4004   -6.5640   23.8220 C   0  0  0  0  0  0
  -21.3666   -5.6787   24.9183 C   0  0  0  0  0  0
  -21.6055   -4.3051   24.7217 C   0  0  0  0  0  0
  -21.8823   -3.8148   23.4339 C   0  0  0  0  0  0
  -21.9195   -4.6969   22.3403 C   0  0  0  0  0  0
  -22.7824  -13.5251   21.1839 C   0  0  0  0  0  0
  -22.1652   -4.2162   21.0970 F   0  0  0  0  0  0
  -21.5646   -3.4531   25.7720 F   0  0  0  0  0  0
  -30.0196  -13.2716   20.4240 N   0  0  0  0  0  0
  -26.2957  -12.9347   20.3311 N   0  0  0  0  0  0
  -25.9267  -11.6515   20.5764 N   0  0  0  0  0  0
  -22.0449  -12.8301   22.0416 N   0  0  0  0  0  0
  -25.4321  -15.1915   20.4036 N   0  0  0  0  0  0
  -31.7937  -14.6755   20.1424 O   0  0  0  0  0  0
  -21.6651   -6.8884   21.4235 O   0  0  0  0  0  0
  -22.3494  -14.5542   20.6649 O   0  0  0  0  0  0
  -24.6162  -31.8670   23.2082 C   0  0  0  0  0  0
  -25.9045  -32.4832   23.8382 C   0  0  1  0  0  0
  -27.2327  -27.4203   20.0929 C   0  0  0  0  0  0
  -25.5878  -33.8622   24.2346 N   0  0  0  0  0  0
  -23.4055  -30.4852   21.5563 C   0  0  2  0  0  0
  -24.8495  -28.9438   20.1201 C   0  0  0  0  0  0
  -22.7431  -29.4647   22.5095 C   0  0  0  0  0  0
  -18.0282  -28.1340   22.8545 C   0  0  0  0  0  0
  -24.1451  -36.7302   23.2660 C   0  0  0  0  0  0
  -25.9354  -30.8243   21.3631 C   0  0  0  0  0  0
  -26.0120  -29.4564   20.7126 C   0  0  0  0  0  0
  -27.2105  -28.7032   20.6902 C   0  0  0  0  0  0
  -26.0586  -26.9270   19.4901 C   0  0  0  0  0  0
  -24.8706  -27.6814   19.5007 C   0  0  0  0  0  0
  -23.6071  -29.8062   20.1755 C   0  0  0  0  0  0
  -25.4073  -36.3132   24.0381 C   0  0  1  0  0  0
  -20.5875  -28.3625   23.1370 C   0  0  2  0  0  0
  -20.6757  -26.9363   22.5466 C   0  0  0  0  0  0
  -19.5738  -26.6349   21.5257 C   0  0  0  0  0  0
  -18.1911  -26.7910   22.1637 C   0  0  0  0  0  0
  -19.1530  -28.8800   23.2955 C   0  0  0  0  0  0
  -18.9443  -30.1413   23.8950 C   0  0  0  0  0  0
  -17.6440  -30.6560   24.0560 C   0  0  0  0  0  0
  -25.9015  -34.9493   23.5177 C   0  0  0  0  0  0
  -16.5335  -29.9052   23.6316 C   0  0  0  0  0  0
  -16.7272  -28.6454   23.0384 C   0  0  0  0  0  0
  -26.4455  -31.6622   25.0722 C   0  0  0  0  0  0
  -25.3720  -31.3724   26.1492 C   0  0  0  0  0  0
  -27.0299  -30.3076   24.6096 C   0  0  0  0  0  0
  -27.6066  -32.4341   25.7426 C   0  0  0  0  0  0
  -27.5600  -37.1786   24.8458 C   0  0  0  0  0  0
  -21.4167  -29.2980   22.3789 N   0  0  0  0  0  0
  -26.4274  -37.3814   23.9453 N   0  0  0  0  0  0
  -24.6718  -31.0723   22.1015 N   0  0  0  0  0  0
  -23.4203  -28.8245   23.3182 O   0  0  0  0  0  0
  -28.3899  -26.6727   20.0648 O   0  0  0  0  0  0
  -26.5589  -34.8965   22.4745 O   0  0  0  0  0  0
  -23.5343  -32.1440   23.7470 O   0  0  0  0  0  0
  -30.8125  -18.9377   20.7703 C   0  0  0  0  0  0
  -28.5283  -18.2515   21.2210 C   0  0  0  0  0  0
  -29.9094  -17.9569   21.2245 C   0  0  0  0  0  0
  -30.3645  -20.1938   20.3077 C   0  0  0  0  0  0
  -28.0699  -19.5170   20.7778 C   0  0  0  0  0  0
  -28.9804  -20.5047   20.3221 C   0  0  0  0  0  0
  -32.1204  -22.2287   17.6046 C   0  0  0  0  0  0
  -31.3352  -21.3820   18.2881 C   0  0  0  0  0  0
  -31.3990  -21.1766   19.7853 C   0  0  0  0  0  0
  -30.4686  -16.6467   21.7903 C   0  0  0  0  0  0
  -28.2866  -24.1449   19.8980 C   0  0  0  0  0  0
  -28.3616  -25.4202   20.7803 C   0  0  0  0  0  0
  -28.4646  -22.8202   20.6949 C   0  0  0  0  0  0
  -26.7043  -19.7872   20.7741 N   0  0  0  0  0  0
  -29.9451  -15.4024   21.2239 N   0  0  0  0  0  0
  -28.5080  -21.6979   19.8054 O   0  0  0  0  0  0
  -31.4586  -12.4396   19.0740 H   0  0  0  0  0  0
  -30.3489  -11.2829   19.7642 H   0  0  0  0  0  0
  -29.7058  -11.7970   17.3896 H   0  0  0  0  0  0
  -29.6458  -13.5011   17.7605 H   0  0  0  0  0  0
  -27.7734  -11.3296   18.7641 H   0  0  0  0  0  0
  -27.3527  -12.6981   17.7682 H   0  0  0  0  0  0
  -27.7044  -14.2561   19.5907 H   0  0  0  0  0  0
  -28.6791  -11.8902   21.2642 H   0  0  0  0  0  0
  -28.4554  -13.4909   21.8862 H   0  0  0  0  0  0
  -25.2749   -9.5761   22.4742 H   0  0  0  0  0  0
  -24.0049   -7.4664   22.7465 H   0  0  0  0  0  0
  -21.0827   -8.8801   19.8959 H   0  0  0  0  0  0
  -22.3653  -10.9710   19.6194 H   0  0  0  0  0  0
  -21.1966   -7.6145   23.9743 H   0  0  0  0  0  0
  -21.1477   -6.0492   25.9099 H   0  0  0  0  0  0
  -22.0587   -2.7612   23.2823 H   0  0  0  0  0  0
  -22.4018  -11.9979   22.4895 H   0  0  0  0  0  0
  -21.1067  -13.1378   22.2569 H   0  0  0  0  0  0
  -24.6718  -15.8554   20.5107 H   0  0  0  0  0  0
  -26.2773  -15.6180   20.0456 H   0  0  0  0  0  0
  -26.7133  -32.5551   23.1164 H   0  0  0  0  0  0
  -25.0009  -33.9738   25.0483 H   0  0  0  0  0  0
  -22.6963  -31.3033   21.4152 H   0  0  0  0  0  0
  -23.3768  -35.9575   23.3241 H   0  0  0  0  0  0
  -24.3574  -36.8982   22.2092 H   0  0  0  0  0  0
  -23.7107  -37.6450   23.6698 H   0  0  0  0  0  0
  -26.0492  -31.5853   20.5893 H   0  0  0  0  0  0
  -26.8238  -30.8802   21.9811 H   0  0  0  0  0  0
  -28.1158  -29.0973   21.1318 H   0  0  0  0  0  0
  -26.0629  -25.9672   18.9948 H   0  0  0  0  0  0
  -23.9847  -27.2861   19.0238 H   0  0  0  0  0  0
  -23.6959  -30.5713   19.4026 H   0  0  0  0  0  0
  -22.7306  -29.2119   19.9050 H   0  0  0  0  0  0
  -25.1243  -36.2012   25.0874 H   0  0  0  0  0  0
  -20.9985  -28.3156   24.1483 H   0  0  0  0  0  0
  -20.5644  -26.2231   23.3658 H   0  0  0  0  0  0
  -21.6626  -26.7406   22.1250 H   0  0  0  0  0  0
  -19.6879  -25.6264   21.1257 H   0  0  0  0  0  0
  -19.6677  -27.3177   20.6802 H   0  0  0  0  0  0
  -17.4235  -26.6798   21.3968 H   0  0  0  0  0  0
  -18.0206  -25.9988   22.8941 H   0  0  0  0  0  0
  -19.7911  -30.7224   24.2347 H   0  0  0  0  0  0
  -17.4976  -31.6251   24.5138 H   0  0  0  0  0  0
  -15.5325  -30.2955   23.7566 H   0  0  0  0  0  0
  -15.8698  -28.0733   22.7108 H   0  0  0  0  0  0
  -24.5829  -30.7163   25.7803 H   0  0  0  0  0  0
  -24.8966  -32.2873   26.5028 H   0  0  0  0  0  0
  -25.8029  -30.8787   27.0214 H   0  0  0  0  0  0
  -26.2835  -29.6802   24.1212 H   0  0  0  0  0  0
  -27.4177  -29.7350   25.4531 H   0  0  0  0  0  0
  -27.8612  -30.4429   23.9178 H   0  0  0  0  0  0
  -27.2741  -33.3646   26.2036 H   0  0  0  0  0  0
  -28.3790  -32.6917   25.0170 H   0  0  0  0  0  0
  -28.0846  -31.8466   26.5275 H   0  0  0  0  0  0
  -28.2605  -38.0108   24.7609 H   0  0  0  0  0  0
  -28.1127  -36.2669   24.6128 H   0  0  0  0  0  0
  -27.2385  -37.1259   25.8879 H   0  0  0  0  0  0
  -20.9365  -29.8620   21.6924 H   0  0  0  0  0  0
  -26.0192  -38.2907   24.1465 H   0  0  0  0  0  0
  -31.8724  -18.7208   20.7807 H   0  0  0  0  0  0
  -27.8265  -17.5108   21.5817 H   0  0  0  0  0  0
  -32.0304  -22.3297   16.5334 H   0  0  0  0  0  0
  -32.8669  -22.8338   18.0987 H   0  0  0  0  0  0
  -30.6035  -20.7907   17.7562 H   0  0  0  0  0  0
  -32.4003  -20.8149   20.0262 H   0  0  0  0  0  0
  -31.2927  -22.1309   20.2979 H   0  0  0  0  0  0
  -30.2574  -16.6299   22.8598 H   0  0  0  0  0  0
  -31.5572  -16.6515   21.7189 H   0  0  0  0  0  0
  -29.0660  -24.2008   19.1388 H   0  0  0  0  0  0
  -27.3390  -24.1109   19.3588 H   0  0  0  0  0  0
  -29.2931  -25.3796   21.3465 H   0  0  0  0  0  0
  -27.5670  -25.4075   21.5284 H   0  0  0  0  0  0
  -27.6386  -22.6938   21.3977 H   0  0  0  0  0  0
  -29.3755  -22.8671   21.2928 H   0  0  0  0  0  0
  -26.0748  -19.0019   20.6526 H   0  0  0  0  0  0
  -26.4244  -20.5959   20.2289 H   0  0  0  0  0  0
  -28.9980  -15.1550   21.4683 H   0  0  0  0  0  0
  1 25  1  0  0  0
  1 30  2  0  0  0
  1 85  1  0  0  0
  2  3  1  0  0  0
  2 25  1  0  0  0
  2 87  1  0  0  0
  2 88  1  0  0  0
  3  4  1  0  0  0
  3 89  1  0  0  0
  3 90  1  0  0  0
  4  5  1  0  0  0
  4 91  1  0  0  0
  4 92  1  0  0  0
  5  6  1  0  0  0
  5 26  1  0  0  0
  5 93  1  0  0  0
  6 25  1  0  0  0
  6 94  1  0  0  0
  6 95  1  0  0  0
  7  8  2  0  0  0
  7 26  1  0  0  0
  7 29  1  0  0  0
  8  9  1  0  0  0
  8 22  1  0  0  0
  9 10  1  0  0  0
  9 27  2  0  0  0
 10 11  2  0  0  0
 10 15  1  0  0  0
 11 12  1  0  0  0
 11 96  1  0  0  0
 12 13  2  0  0  0
 12 97  1  0  0  0
 13 14  1  0  0  0
 13 31  1  0  0  0
 14 15  2  0  0  0
 14 98  1  0  0  0
 15 99  1  0  0  0
 16 17  2  0  0  0
 16 21  1  0  0  0
 16 31  1  0  0  0
 17 18  1  0  0  0
 17100  1  0  0  0
 18 19  2  0  0  0
 18101  1  0  0  0
 19 20  1  0  0  0
 19 24  1  0  0  0
 20 21  2  0  0  0
 20102  1  0  0  0
 21 23  1  0  0  0
 22 28  1  0  0  0
 22 32  2  0  0  0
 26 27  1  0  0  0
 28103  1  0  0  0
 28104  1  0  0  0
 29105  1  0  0  0
 29106  1  0  0  0
 33 34  1  0  0  0
 33 66  1  0  0  0
 33 70  2  0  0  0
 34 36  1  0  0  0
 34 59  1  0  0  0
 34107  1  0  0  0
 35 44  2  0  0  0
 35 45  1  0  0  0
 35 68  1  0  0  0
 36 56  1  0  0  0
 36108  1  0  0  0
 37 39  1  0  0  0
 37 47  1  0  0  0
 37 66  1  0  0  0
 37109  1  0  0  0
 38 43  2  0  0  0
 38 46  1  0  0  0
 38 47  1  0  0  0
 39 64  1  0  0  0
 39 67  2  0  0  0
 40 52  1  0  0  0
 40 53  2  0  0  0
 40 58  1  0  0  0
 41110  1  0  0  0
 41111  1  0  0  0
 41112  1  0  0  0
 41 48  1  0  0  0
 42 43  1  0  0  0
 42 66  1  0  0  0
 42113  1  0  0  0
 42114  1  0  0  0
 43 44  1  0  0  0
 44115  1  0  0  0
 45 46  2  0  0  0
 45116  1  0  0  0
 46117  1  0  0  0
 47118  1  0  0  0
 47119  1  0  0  0
 48 56  1  0  0  0
 48 65  1  0  0  0
 48120  1  0  0  0
 49 50  1  0  0  0
 49 53  1  0  0  0
 49 64  1  0  0  0
 49121  1  0  0  0
 50 51  1  0  0  0
 50122  1  0  0  0
 50123  1  0  0  0
 51 52  1  0  0  0
 51124  1  0  0  0
 51125  1  0  0  0
 52126  1  0  0  0
 52127  1  0  0  0
 53 54  1  0  0  0
 54 55  2  0  0  0
 54128  1  0  0  0
 55 57  1  0  0  0
 55129  1  0  0  0
 56 69  2  0  0  0
 57 58  2  0  0  0
 57130  1  0  0  0
 58131  1  0  0  0
 59 60  1  0  0  0
 59 61  1  0  0  0
 59 62  1  0  0  0
 60132  1  0  0  0
 60133  1  0  0  0
 60134  1  0  0  0
 61135  1  0  0  0
 61136  1  0  0  0
 61137  1  0  0  0
 62138  1  0  0  0
 62139  1  0  0  0
 62140  1  0  0  0
 63 65  1  0  0  0
 63141  1  0  0  0
 63142  1  0  0  0
 63143  1  0  0  0
 64144  1  0  0  0
 65145  1  0  0  0
 68 82  1  0  0  0
 71 73  2  0  0  0
 71 74  1  0  0  0
 71146  1  0  0  0
 72 73  1  0  0  0
 72 75  2  0  0  0
 72147  1  0  0  0
 73 80  1  0  0  0
 74 76  2  0  0  0
 74 79  1  0  0  0
 75 76  1  0  0  0
 75 84  1  0  0  0
 76 86  1  0  0  0
 77 78  2  0  0  0
 77148  1  0  0  0
 77149  1  0  0  0
 78 79  1  0  0  0
 78150  1  0  0  0
 79151  1  0  0  0
 79152  1  0  0  0
 80 85  1  0  0  0
 80153  1  0  0  0
 80154  1  0  0  0
 81 82  1  0  0  0
 81 83  1  0  0  0
 81155  1  0  0  0
 81156  1  0  0  0
 82157  1  0  0  0
 82158  1  0  0  0
 83 86  1  0  0  0
 83159  1  0  0  0
 83160  1  0  0  0
 84161  1  0  0  0
 84162  1  0  0  0
 85163  1  0  0  0
M  ISO  4   1 100  68 101  82 101  85 100
M  END
> <chiral flag>
0

> <version>
0

> <s_m_source_file>
/data/baiqing/PycharmProjects/Reinvent-master-3.2/result/LINK_invent/BTK/process_docking_weight1_custom_product_contain_oxygen_bond_distance_aromatic_linkinvent_7_9_3/rearranged_h_0108.sdf

> <i_m_source_file_index>
87

> <r_mmod_Potential_Energy-OPLS-2005>
-116.712242126465

> <r_mmod_Stretch_Energy-OPLS-2005>
37.8679885864258

> <r_mmod_Bend_Energy-OPLS-2005>
95.9087219238281

> <r_mmod_Torsional_Energy-OPLS-2005>
262.959197998047

> <r_mmod_Improper_Torsional_Energy-OPLS-2005>
7.28757619857788

> <r_mmod_Van_der_Waal_Energy-OPLS-2005>
141.83366394043

> <r_mmod_Electrostatic_Energy-OPLS-2005>
-459.758331298828

> <r_mmod_Solvation_Energy-OPLS-2005>
-215.884811401367

> <b_mmod_Minimization_Converged-OPLS-2005>
0

> <r_mmod_RMS_Derivative-OPLS-2005>
3.9993417263031

$$$$
88
                    3D
 Structure written by MMmdl.
167175  0  0  1  0            999 V2000
  -30.6081  -14.6285   20.5003 C   0  0  0  0  0  0
  -30.4323  -12.3860   19.4351 C   0  0  0  0  0  0
  -29.5015  -12.5316   18.2107 C   0  0  0  0  0  0
  -28.0206  -12.3750   18.6153 C   0  0  0  0  0  0
  -27.6520  -13.2139   19.8694 C   0  0  2  0  0  0
  -28.6996  -13.0389   20.9907 C   0  0  0  0  0  0
  -25.2554  -13.8157   20.5686 C   0  0  0  0  0  0
  -24.1820  -13.0419   20.9189 C   0  0  0  0  0  0
  -24.6383  -11.6899   20.8717 C   0  0  0  0  0  0
  -23.9038  -10.4290   21.0387 C   0  0  0  0  0  0
  -24.3594   -9.4218   21.9176 C   0  0  0  0  0  0
  -23.6294   -8.2245   22.0758 C   0  0  0  0  0  0
  -22.4282   -8.0268   21.3549 C   0  0  0  0  0  0
  -21.9911   -9.0219   20.4629 C   0  0  0  0  0  0
  -22.7213  -10.2113   20.3039 C   0  0  0  0  0  0
  -21.6853   -6.0727   22.5283 C   0  0  0  0  0  0
  -21.4012   -6.5645   23.8205 C   0  0  0  0  0  0
  -21.3673   -5.6806   24.9179 C   0  0  0  0  0  0
  -21.6052   -4.3064   24.7238 C   0  0  0  0  0  0
  -21.8822   -3.8144   23.4360 C   0  0  0  0  0  0
  -21.9197   -4.6960   22.3411 C   0  0  0  0  0  0
  -22.7845  -13.5203   21.1863 C   0  0  0  0  0  0
  -22.1656   -4.2144   21.0989 F   0  0  0  0  0  0
  -21.5644   -3.4548   25.7749 F   0  0  0  0  0  0
  -30.0129  -13.3948   20.4282 N   0  0  0  0  0  0
  -26.2970  -12.9330   20.3330 N   0  0  0  0  0  0
  -25.9307  -11.6485   20.5731 N   0  0  0  0  0  0
  -22.0487  -12.8158   22.0397 N   0  0  0  0  0  0
  -25.4256  -15.1875   20.4081 N   0  0  0  0  0  0
  -31.7719  -14.8013   20.1259 O   0  0  0  0  0  0
  -21.6650   -6.8868   21.4242 O   0  0  0  0  0  0
  -22.3530  -14.5518   20.6753 O   0  0  0  0  0  0
  -24.6258  -31.8619   23.2021 C   0  0  0  0  0  0
  -25.9098  -32.4806   23.8352 C   0  0  1  0  0  0
  -27.2230  -27.3202   20.1115 C   0  0  0  0  0  0
  -25.5937  -33.8606   24.2285 N   0  0  0  0  0  0
  -23.4191  -30.4813   21.5474 C   0  0  2  0  0  0
  -24.8674  -28.9402   20.1122 C   0  0  0  0  0  0
  -22.7472  -29.4616   22.4973 C   0  0  0  0  0  0
  -18.0279  -28.1399   22.8525 C   0  0  0  0  0  0
  -24.1492  -36.7266   23.2637 C   0  0  0  0  0  0
  -25.9592  -30.7927   21.3729 C   0  0  0  0  0  0
  -26.0363  -29.4186   20.7178 C   0  0  0  0  0  0
  -27.2169  -28.6174   20.7103 C   0  0  0  0  0  0
  -26.0281  -26.8979   19.4827 C   0  0  0  0  0  0
  -24.8649  -27.6869   19.4868 C   0  0  0  0  0  0
  -23.6341  -29.8166   20.1633 C   0  0  0  0  0  0
  -25.4129  -36.3092   24.0321 C   0  0  1  0  0  0
  -20.5871  -28.3697   23.1339 C   0  0  2  0  0  0
  -20.6771  -26.9435   22.5427 C   0  0  0  0  0  0
  -19.5732  -26.6408   21.5248 C   0  0  0  0  0  0
  -18.1911  -26.7948   22.1662 C   0  0  0  0  0  0
  -19.1528  -28.8865   23.2921 C   0  0  0  0  0  0
  -18.9445  -30.1479   23.8919 C   0  0  0  0  0  0
  -17.6437  -30.6615   24.0575 C   0  0  0  0  0  0
  -25.9068  -34.9469   23.5099 C   0  0  0  0  0  0
  -16.5332  -29.9106   23.6346 C   0  0  0  0  0  0
  -16.7264  -28.6519   23.0383 C   0  0  0  0  0  0
  -26.4498  -31.6597   25.0699 C   0  0  0  0  0  0
  -25.3715  -31.3647   26.1385 C   0  0  0  0  0  0
  -27.0374  -30.3057   24.6088 C   0  0  0  0  0  0
  -27.6036  -32.4335   25.7511 C   0  0  0  0  0  0
  -27.5575  -37.1809   24.8476 C   0  0  0  0  0  0
  -21.4175  -29.3050   22.3732 N   0  0  0  0  0  0
  -26.4305  -37.3796   23.9404 N   0  0  0  0  0  0
  -24.6870  -31.0603   22.0998 N   0  0  0  0  0  0
  -23.4190  -28.8161   23.3061 O   0  0  0  0  0  0
  -28.3393  -26.4662   20.1591 O   0  0  0  0  0  0
  -26.5619  -34.8928   22.4656 O   0  0  0  0  0  0
  -23.5416  -32.1438   23.7326 O   0  0  0  0  0  0
  -30.9661  -17.8489   20.2237 C   0  0  0  0  0  0
  -28.7459  -17.9086   21.1279 C   0  0  0  0  0  0
  -30.9543  -19.2764   20.1355 C   0  0  0  0  0  0
  -29.8568  -17.1214   20.7222 C   0  0  0  0  0  0
  -28.7234  -19.3422   21.0681 C   0  0  0  0  0  0
  -29.8329  -20.0648   20.5367 C   0  0  0  0  0  0
  -25.9534  -20.3963   24.9128 C   0  0  0  0  0  0
  -32.2031  -19.9664   19.6030 C   0  0  0  0  0  0
  -26.3651  -20.7346   23.4731 C   0  0  0  0  0  0
  -29.2491  -23.9654   20.3607 C   0  0  0  0  0  0
  -27.1208  -19.5864   22.7951 C   0  0  0  0  0  0
  -28.0913  -25.0077   20.0489 C   0  0  0  0  0  0
  -28.8426  -22.4271   20.5065 C   0  0  0  0  0  0
  -29.7735  -15.6632   20.8417 N   0  0  0  0  0  0
  -32.1036  -20.1936   18.1556 N   0  3  0  0  0  0
  -27.6396  -20.0380   21.5488 O   0  0  0  0  0  0
  -29.9503  -21.4738   20.4267 O   0  0  0  0  0  0
  -31.4730  -12.5125   19.1312 H   0  0  0  0  0  0
  -30.3603  -11.3806   19.8530 H   0  0  0  0  0  0
  -29.7572  -11.8006   17.4423 H   0  0  0  0  0  0
  -29.6532  -13.5131   17.7546 H   0  0  0  0  0  0
  -27.8308  -11.3181   18.8006 H   0  0  0  0  0  0
  -27.3789  -12.6552   17.7796 H   0  0  0  0  0  0
  -27.6745  -14.2567   19.5573 H   0  0  0  0  0  0
  -28.7081  -12.0069   21.3445 H   0  0  0  0  0  0
  -28.4500  -13.6439   21.8633 H   0  0  0  0  0  0
  -25.2736   -9.5722   22.4745 H   0  0  0  0  0  0
  -24.0010   -7.4661   22.7498 H   0  0  0  0  0  0
  -21.0854   -8.8715   19.8913 H   0  0  0  0  0  0
  -22.3659  -10.9649   19.6147 H   0  0  0  0  0  0
  -21.1988   -7.6158   23.9699 H   0  0  0  0  0  0
  -21.1497   -6.0547   25.9080 H   0  0  0  0  0  0
  -22.0587   -2.7602   23.2870 H   0  0  0  0  0  0
  -22.4112  -11.9794   22.4739 H   0  0  0  0  0  0
  -21.1083  -13.1126   22.2585 H   0  0  0  0  0  0
  -24.6496  -15.8350   20.5009 H   0  0  0  0  0  0
  -26.2574  -15.6222   20.0301 H   0  0  0  0  0  0
  -26.7159  -32.5495   23.1095 H   0  0  0  0  0  0
  -25.0158  -33.9782   25.0479 H   0  0  0  0  0  0
  -22.7119  -31.3005   21.4024 H   0  0  0  0  0  0
  -23.3785  -35.9562   23.3313 H   0  0  0  0  0  0
  -24.3573  -36.8881   22.2051 H   0  0  0  0  0  0
  -23.7210  -37.6444   23.6667 H   0  0  0  0  0  0
  -26.0738  -31.5544   20.6002 H   0  0  0  0  0  0
  -26.8460  -30.8554   21.9915 H   0  0  0  0  0  0
  -28.1125  -28.9733   21.1984 H   0  0  0  0  0  0
  -25.9576  -25.9420   18.9881 H   0  0  0  0  0  0
  -23.9680  -27.3173   19.0101 H   0  0  0  0  0  0
  -23.7502  -30.5929   19.4065 H   0  0  0  0  0  0
  -22.7568  -29.2411   19.8623 H   0  0  0  0  0  0
  -25.1314  -36.1948   25.0808 H   0  0  0  0  0  0
  -20.9956  -28.3252   24.1468 H   0  0  0  0  0  0
  -20.5783  -26.2271   23.3601 H   0  0  0  0  0  0
  -21.6626  -26.7521   22.1173 H   0  0  0  0  0  0
  -19.6905  -25.6329   21.1261 H   0  0  0  0  0  0
  -19.6676  -27.3238   20.6797 H   0  0  0  0  0  0
  -17.4192  -26.6752   21.4043 H   0  0  0  0  0  0
  -18.0282  -26.0081   22.9049 H   0  0  0  0  0  0
  -19.7906  -30.7313   24.2304 H   0  0  0  0  0  0
  -17.4979  -31.6299   24.5160 H   0  0  0  0  0  0
  -15.5332  -30.3013   23.7653 H   0  0  0  0  0  0
  -15.8670  -28.0838   22.7107 H   0  0  0  0  0  0
  -24.5945  -30.6972   25.7639 H   0  0  0  0  0  0
  -24.8841  -32.2775   26.4819 H   0  0  0  0  0  0
  -25.8037  -30.8795   27.0142 H   0  0  0  0  0  0
  -26.2949  -29.6801   24.1124 H   0  0  0  0  0  0
  -27.4152  -29.7308   25.4545 H   0  0  0  0  0  0
  -27.8768  -30.4409   23.9259 H   0  0  0  0  0  0
  -27.2647  -33.3668   26.2014 H   0  0  0  0  0  0
  -28.3906  -32.6833   25.0384 H   0  0  0  0  0  0
  -28.0620  -31.8487   26.5489 H   0  0  0  0  0  0
  -28.2573  -38.0130   24.7563 H   0  0  0  0  0  0
  -28.1100  -36.2655   24.6296 H   0  0  0  0  0  0
  -27.2272  -37.1438   25.8874 H   0  0  0  0  0  0
  -20.9349  -29.8748   21.6923 H   0  0  0  0  0  0
  -26.0174  -38.2850   24.1433 H   0  0  0  0  0  0
  -31.8492  -17.3154   19.9011 H   0  0  0  0  0  0
  -27.8764  -17.3937   21.5071 H   0  0  0  0  0  0
  -25.4361  -21.2378   25.3746 H   0  0  0  0  0  0
  -26.8269  -20.1718   25.5256 H   0  0  0  0  0  0
  -25.2901  -19.5316   24.9513 H   0  0  0  0  0  0
  -33.0838  -19.3599   19.8213 H   0  0  0  0  0  0
  -32.3566  -20.9160   20.1177 H   0  0  0  0  0  0
  -26.9969  -21.6233   23.4881 H   0  0  0  0  0  0
  -25.4835  -20.9924   22.8837 H   0  0  0  0  0  0
  -29.7504  -24.2698   21.2785 H   0  0  0  0  0  0
  -29.9997  -24.0550   19.5772 H   0  0  0  0  0  0
  -26.4543  -18.7357   22.6481 H   0  0  0  0  0  0
  -27.9360  -19.2625   23.4466 H   0  0  0  0  0  0
  -27.2479  -24.7612   20.6960 H   0  0  0  0  0  0
  -27.7696  -24.7977   19.0278 H   0  0  0  0  0  0
  -28.1198  -22.1681   19.7334 H   0  0  0  0  0  0
  -28.3398  -22.3218   21.4653 H   0  0  0  0  0  0
  -28.8722  -15.3281   21.1482 H   0  0  0  0  0  0
  -31.9754  -19.3253   17.6698 H   0  0  0  0  0  0
  -32.9427  -20.6292   17.8191 H   0  0  0  0  0  0
  -31.3301  -20.7995   17.9555 H   0  0  0  0  0  0
  1 25  1  0  0  0
  1 30  2  0  0  0
  1 84  1  0  0  0
  2  3  1  0  0  0
  2 25  1  0  0  0
  2 88  1  0  0  0
  2 89  1  0  0  0
  3  4  1  0  0  0
  3 90  1  0  0  0
  3 91  1  0  0  0
  4  5  1  0  0  0
  4 92  1  0  0  0
  4 93  1  0  0  0
  5  6  1  0  0  0
  5 26  1  0  0  0
  5 94  1  0  0  0
  6 25  1  0  0  0
  6 95  1  0  0  0
  6 96  1  0  0  0
  7  8  2  0  0  0
  7 26  1  0  0  0
  7 29  1  0  0  0
  8  9  1  0  0  0
  8 22  1  0  0  0
  9 10  1  0  0  0
  9 27  2  0  0  0
 10 11  2  0  0  0
 10 15  1  0  0  0
 11 12  1  0  0  0
 11 97  1  0  0  0
 12 13  2  0  0  0
 12 98  1  0  0  0
 13 14  1  0  0  0
 13 31  1  0  0  0
 14 15  2  0  0  0
 14 99  1  0  0  0
 15100  1  0  0  0
 16 17  2  0  0  0
 16 21  1  0  0  0
 16 31  1  0  0  0
 17 18  1  0  0  0
 17101  1  0  0  0
 18 19  2  0  0  0
 18102  1  0  0  0
 19 20  1  0  0  0
 19 24  1  0  0  0
 20 21  2  0  0  0
 20103  1  0  0  0
 21 23  1  0  0  0
 22 28  1  0  0  0
 22 32  2  0  0  0
 26 27  1  0  0  0
 28104  1  0  0  0
 28105  1  0  0  0
 29106  1  0  0  0
 29107  1  0  0  0
 33 34  1  0  0  0
 33 66  1  0  0  0
 33 70  2  0  0  0
 34 36  1  0  0  0
 34 59  1  0  0  0
 34108  1  0  0  0
 35 44  2  0  0  0
 35 45  1  0  0  0
 35 68  1  0  0  0
 36 56  1  0  0  0
 36109  1  0  0  0
 37 39  1  0  0  0
 37 47  1  0  0  0
 37 66  1  0  0  0
 37110  1  0  0  0
 38 43  2  0  0  0
 38 46  1  0  0  0
 38 47  1  0  0  0
 39 64  1  0  0  0
 39 67  2  0  0  0
 40 52  1  0  0  0
 40 53  2  0  0  0
 40 58  1  0  0  0
 41111  1  0  0  0
 41112  1  0  0  0
 41113  1  0  0  0
 41 48  1  0  0  0
 42 43  1  0  0  0
 42 66  1  0  0  0
 42114  1  0  0  0
 42115  1  0  0  0
 43 44  1  0  0  0
 44116  1  0  0  0
 45 46  2  0  0  0
 45117  1  0  0  0
 46118  1  0  0  0
 47119  1  0  0  0
 47120  1  0  0  0
 48 56  1  0  0  0
 48 65  1  0  0  0
 48121  1  0  0  0
 49 50  1  0  0  0
 49 53  1  0  0  0
 49 64  1  0  0  0
 49122  1  0  0  0
 50 51  1  0  0  0
 50123  1  0  0  0
 50124  1  0  0  0
 51 52  1  0  0  0
 51125  1  0  0  0
 51126  1  0  0  0
 52127  1  0  0  0
 52128  1  0  0  0
 53 54  1  0  0  0
 54 55  2  0  0  0
 54129  1  0  0  0
 55 57  1  0  0  0
 55130  1  0  0  0
 56 69  2  0  0  0
 57 58  2  0  0  0
 57131  1  0  0  0
 58132  1  0  0  0
 59 60  1  0  0  0
 59 61  1  0  0  0
 59 62  1  0  0  0
 60133  1  0  0  0
 60134  1  0  0  0
 60135  1  0  0  0
 61136  1  0  0  0
 61137  1  0  0  0
 61138  1  0  0  0
 62139  1  0  0  0
 62140  1  0  0  0
 62141  1  0  0  0
 63 65  1  0  0  0
 63142  1  0  0  0
 63143  1  0  0  0
 63144  1  0  0  0
 64145  1  0  0  0
 65146  1  0  0  0
 68 82  1  0  0  0
 71 73  2  0  0  0
 71 74  1  0  0  0
 71147  1  0  0  0
 72 74  2  0  0  0
 72 75  1  0  0  0
 72148  1  0  0  0
 73 76  1  0  0  0
 73 78  1  0  0  0
 74 84  1  0  0  0
 75 76  2  0  0  0
 75 86  1  0  0  0
 76 87  1  0  0  0
 77 79  1  0  0  0
 77149  1  0  0  0
 77150  1  0  0  0
 77151  1  0  0  0
 78 85  1  0  0  0
 78152  1  0  0  0
 78153  1  0  0  0
 79 81  1  0  0  0
 79154  1  0  0  0
 79155  1  0  0  0
 80 82  1  0  0  0
 80 83  1  0  0  0
 80156  1  0  0  0
 80157  1  0  0  0
 81 86  1  0  0  0
 81158  1  0  0  0
 81159  1  0  0  0
 82160  1  0  0  0
 82161  1  0  0  0
 83 87  1  0  0  0
 83162  1  0  0  0
 83163  1  0  0  0
 84164  1  0  0  0
 85165  1  0  0  0
 85166  1  0  0  0
 85167  1  0  0  0
M  CHG  1  85   1
M  ISO  4   1 100  68 101  82 101  84 100
M  END
> <chiral flag>
0

> <version>
0

> <s_m_source_file>
/data/baiqing/PycharmProjects/Reinvent-master-3.2/result/LINK_invent/BTK/process_docking_weight1_custom_product_contain_oxygen_bond_distance_aromatic_linkinvent_7_9_3/rearranged_h_0108.sdf

> <i_m_source_file_index>
88

> <r_mmod_Potential_Energy-OPLS-2005>
-234.552932739258

> <r_mmod_Stretch_Energy-OPLS-2005>
81.6756896972656

> <r_mmod_Bend_Energy-OPLS-2005>
153.062805175781

> <r_mmod_Torsional_Energy-OPLS-2005>
222.627243041992

> <r_mmod_Improper_Torsional_Energy-OPLS-2005>
4.46831655502319

> <r_mmod_Van_der_Waal_Energy-OPLS-2005>
149.255493164062

> <r_mmod_Electrostatic_Energy-OPLS-2005>
-408.642944335938

> <r_mmod_Solvation_Energy-OPLS-2005>
-483.057250976562

> <b_mmod_Minimization_Converged-OPLS-2005>
0

> <r_mmod_RMS_Derivative-OPLS-2005>
2.70723652839661

$$$$
89
                    3D
 Structure written by MMmdl.
164172  0  0  1  0            999 V2000
  -30.6132  -14.6329   20.5112 C   0  0  0  0  0  0
  -30.4419  -12.3918   19.4483 C   0  0  0  0  0  0
  -29.5092  -12.5146   18.2223 C   0  0  0  0  0  0
  -28.0311  -12.3505   18.6324 C   0  0  0  0  0  0
  -27.6547  -13.2139   19.8661 C   0  0  2  0  0  0
  -28.6985  -13.0523   20.9940 C   0  0  0  0  0  0
  -25.2563  -13.8162   20.5681 C   0  0  0  0  0  0
  -24.1828  -13.0429   20.9183 C   0  0  0  0  0  0
  -24.6395  -11.6899   20.8730 C   0  0  0  0  0  0
  -23.9067  -10.4285   21.0399 C   0  0  0  0  0  0
  -24.3618   -9.4202   21.9181 C   0  0  0  0  0  0
  -23.6294   -8.2239   22.0752 C   0  0  0  0  0  0
  -22.4276   -8.0276   21.3545 C   0  0  0  0  0  0
  -21.9914   -9.0249   20.4646 C   0  0  0  0  0  0
  -22.7239  -10.2128   20.3054 C   0  0  0  0  0  0
  -21.6857   -6.0734   22.5282 C   0  0  0  0  0  0
  -21.4010   -6.5637   23.8215 C   0  0  0  0  0  0
  -21.3661   -5.6792   24.9179 C   0  0  0  0  0  0
  -21.6044   -4.3057   24.7228 C   0  0  0  0  0  0
  -21.8818   -3.8148   23.4350 C   0  0  0  0  0  0
  -21.9191   -4.6963   22.3404 C   0  0  0  0  0  0
  -22.7851  -13.5226   21.1851 C   0  0  0  0  0  0
  -22.1661   -4.2151   21.0979 F   0  0  0  0  0  0
  -21.5635   -3.4539   25.7738 F   0  0  0  0  0  0
  -30.0152  -13.4020   20.4360 N   0  0  0  0  0  0
  -26.2992  -12.9338   20.3324 N   0  0  0  0  0  0
  -25.9323  -11.6492   20.5749 N   0  0  0  0  0  0
  -22.0490  -12.8220   22.0406 N   0  0  0  0  0  0
  -25.4265  -15.1887   20.4100 N   0  0  0  0  0  0
  -31.7690  -14.8148   20.1146 O   0  0  0  0  0  0
  -21.6638   -6.8875   21.4244 O   0  0  0  0  0  0
  -22.3538  -14.5532   20.6703 O   0  0  0  0  0  0
  -24.6253  -31.8602   23.2021 C   0  0  0  0  0  0
  -25.9105  -32.4780   23.8348 C   0  0  1  0  0  0
  -27.2274  -27.3331   20.1219 C   0  0  0  0  0  0
  -25.5917  -33.8580   24.2274 N   0  0  0  0  0  0
  -23.4180  -30.4822   21.5456 C   0  0  2  0  0  0
  -24.8651  -28.9346   20.1151 C   0  0  0  0  0  0
  -22.7461  -29.4626   22.4957 C   0  0  0  0  0  0
  -18.0279  -28.1389   22.8493 C   0  0  0  0  0  0
  -24.1489  -36.7294   23.2640 C   0  0  0  0  0  0
  -25.9570  -30.7966   21.3694 C   0  0  0  0  0  0
  -26.0334  -29.4235   20.7144 C   0  0  0  0  0  0
  -27.2204  -28.6356   20.7040 C   0  0  0  0  0  0
  -26.0410  -26.8910   19.4985 C   0  0  0  0  0  0
  -24.8696  -27.6729   19.4982 C   0  0  0  0  0  0
  -23.6318  -29.8126   20.1624 C   0  0  0  0  0  0
  -25.4118  -36.3085   24.0325 C   0  0  1  0  0  0
  -20.5876  -28.3691   23.1297 C   0  0  2  0  0  0
  -20.6769  -26.9416   22.5419 C   0  0  0  0  0  0
  -19.5744  -26.6389   21.5219 C   0  0  0  0  0  0
  -18.1921  -26.7934   22.1624 C   0  0  0  0  0  0
  -19.1530  -28.8856   23.2888 C   0  0  0  0  0  0
  -18.9455  -30.1461   23.8901 C   0  0  0  0  0  0
  -17.6455  -30.6592   24.0567 C   0  0  0  0  0  0
  -25.9051  -34.9453   23.5100 C   0  0  0  0  0  0
  -16.5345  -29.9091   23.6336 C   0  0  0  0  0  0
  -16.7266  -28.6507   23.0358 C   0  0  0  0  0  0
  -26.4494  -31.6592   25.0721 C   0  0  0  0  0  0
  -25.3731  -31.3723   26.1447 C   0  0  0  0  0  0
  -27.0339  -30.3017   24.6172 C   0  0  0  0  0  0
  -27.6046  -32.4340   25.7500 C   0  0  0  0  0  0
  -27.5583  -37.1802   24.8464 C   0  0  0  0  0  0
  -21.4176  -29.3043   22.3693 N   0  0  0  0  0  0
  -26.4293  -37.3780   23.9408 N   0  0  0  0  0  0
  -24.6855  -31.0624   22.0965 N   0  0  0  0  0  0
  -23.4189  -28.8173   23.3039 O   0  0  0  0  0  0
  -28.3514  -26.5012   20.1281 O   0  0  0  0  0  0
  -26.5618  -34.8921   22.4668 O   0  0  0  0  0  0
  -23.5420  -32.1394   23.7360 O   0  0  0  0  0  0
  -30.4796  -18.0061   21.5440 C   0  0  0  0  0  0
  -29.1474  -17.6689   19.5758 C   0  0  0  0  0  0
  -30.4148  -19.4240   21.3598 C   0  0  0  0  0  0
  -29.0808  -19.0807   19.3698 C   0  0  0  0  0  0
  -29.8699  -17.0923   20.6487 C   0  0  0  0  0  0
  -29.7212  -20.0053   20.2494 C   0  0  0  0  0  0
  -31.1407  -20.2742   22.3911 C   0  0  0  0  0  0
  -28.3073  -19.5917   18.1646 C   0  0  0  0  0  0
  -32.1356  -22.2159   19.7141 C   0  0  0  0  0  0
  -29.0122  -23.9530   19.9225 C   0  0  0  0  0  0
  -30.8675  -21.7356   18.9961 C   0  0  0  0  0  0
  -28.9988  -22.4997   20.5971 C   0  0  0  0  0  0
  -28.1830  -25.1153   20.6171 C   0  0  0  0  0  0
  -29.8036  -15.6599   20.9140 N   0  0  0  0  0  0
  -29.7715  -21.4073   19.9114 N   0  0  0  0  0  0
  -31.4821  -12.5257   19.1461 H   0  0  0  0  0  0
  -30.3818  -11.3917   19.8807 H   0  0  0  0  0  0
  -29.7739  -11.7696   17.4707 H   0  0  0  0  0  0
  -29.6509  -13.4879   17.7495 H   0  0  0  0  0  0
  -27.8674  -11.2959   18.8567 H   0  0  0  0  0  0
  -27.3776  -12.5869   17.7918 H   0  0  0  0  0  0
  -27.6769  -14.2520   19.5343 H   0  0  0  0  0  0
  -28.7089  -12.0238   21.3587 H   0  0  0  0  0  0
  -28.4428  -13.6686   21.8572 H   0  0  0  0  0  0
  -25.2763   -9.5682   22.4752 H   0  0  0  0  0  0
  -24.0008   -7.4632   22.7471 H   0  0  0  0  0  0
  -21.0848   -8.8764   19.8951 H   0  0  0  0  0  0
  -22.3698  -10.9665   19.6159 H   0  0  0  0  0  0
  -21.1995   -7.6141   23.9720 H   0  0  0  0  0  0
  -21.1491   -6.0520   25.9081 H   0  0  0  0  0  0
  -22.0596   -2.7610   23.2850 H   0  0  0  0  0  0
  -22.4109  -11.9883   22.4798 H   0  0  0  0  0  0
  -21.1105  -13.1245   22.2601 H   0  0  0  0  0  0
  -24.6567  -15.8398   20.5199 H   0  0  0  0  0  0
  -26.2745  -15.6332   20.0837 H   0  0  0  0  0  0
  -26.7178  -32.5453   23.1103 H   0  0  0  0  0  0
  -25.0069  -33.9731   25.0421 H   0  0  0  0  0  0
  -22.7115  -31.3019   21.4000 H   0  0  0  0  0  0
  -23.3748  -35.9628   23.3304 H   0  0  0  0  0  0
  -24.3580  -36.8919   22.2054 H   0  0  0  0  0  0
  -23.7244  -37.6496   23.6666 H   0  0  0  0  0  0
  -26.0842  -31.5599   20.6005 H   0  0  0  0  0  0
  -26.8381  -30.8475   21.9972 H   0  0  0  0  0  0
  -28.1210  -29.0091   21.1705 H   0  0  0  0  0  0
  -26.0141  -25.9266   19.0108 H   0  0  0  0  0  0
  -23.9746  -27.2927   19.0251 H   0  0  0  0  0  0
  -23.7479  -30.5861   19.4025 H   0  0  0  0  0  0
  -22.7527  -29.2392   19.8632 H   0  0  0  0  0  0
  -25.1301  -36.1933   25.0816 H   0  0  0  0  0  0
  -20.9966  -28.3263   24.1418 H   0  0  0  0  0  0
  -20.5679  -26.2297   23.3617 H   0  0  0  0  0  0
  -21.6639  -26.7454   22.1205 H   0  0  0  0  0  0
  -19.6907  -25.6298   21.1250 H   0  0  0  0  0  0
  -19.6685  -27.3202   20.6750 H   0  0  0  0  0  0
  -17.4198  -26.6700   21.4017 H   0  0  0  0  0  0
  -18.0304  -26.0070   22.9010 H   0  0  0  0  0  0
  -19.7930  -30.7282   24.2266 H   0  0  0  0  0  0
  -17.5007  -31.6273   24.5167 H   0  0  0  0  0  0
  -15.5347  -30.2994   23.7658 H   0  0  0  0  0  0
  -15.8667  -28.0830   22.7075 H   0  0  0  0  0  0
  -24.5925  -30.7047   25.7783 H   0  0  0  0  0  0
  -24.8896  -32.2882   26.4853 H   0  0  0  0  0  0
  -25.8062  -30.8928   27.0233 H   0  0  0  0  0  0
  -26.2911  -29.6768   24.1198 H   0  0  0  0  0  0
  -27.4039  -29.7276   25.4677 H   0  0  0  0  0  0
  -27.8776  -30.4303   23.9389 H   0  0  0  0  0  0
  -27.2641  -33.3641   26.2063 H   0  0  0  0  0  0
  -28.3861  -32.6903   25.0337 H   0  0  0  0  0  0
  -28.0703  -31.8477   26.5431 H   0  0  0  0  0  0
  -28.2593  -38.0106   24.7518 H   0  0  0  0  0  0
  -28.1086  -36.2633   24.6281 H   0  0  0  0  0  0
  -27.2297  -37.1445   25.8866 H   0  0  0  0  0  0
  -20.9356  -29.8757   21.6895 H   0  0  0  0  0  0
  -26.0170  -38.2854   24.1413 H   0  0  0  0  0  0
  -31.0013  -17.6154   22.4063 H   0  0  0  0  0  0
  -28.6259  -17.0149   18.8915 H   0  0  0  0  0  0
  -30.7822  -20.0383   23.3929 H   0  0  0  0  0  0
  -31.0095  -21.3425   22.2406 H   0  0  0  0  0  0
  -32.2102  -20.0661   22.3600 H   0  0  0  0  0  0
  -27.7163  -18.8026   17.7001 H   0  0  0  0  0  0
  -28.9910  -19.9865   17.4134 H   0  0  0  0  0  0
  -27.6239  -20.3887   18.4581 H   0  0  0  0  0  0
  -32.8867  -22.5307   18.9894 H   0  0  0  0  0  0
  -32.5829  -21.4206   20.3088 H   0  0  0  0  0  0
  -31.9424  -23.0626   20.3716 H   0  0  0  0  0  0
  -28.6676  -23.8660   18.8913 H   0  0  0  0  0  0
  -30.0431  -24.2985   19.8616 H   0  0  0  0  0  0
  -31.1168  -20.8683   18.3811 H   0  0  0  0  0  0
  -30.5347  -22.4981   18.2910 H   0  0  0  0  0  0
  -27.9628  -22.1669   20.6751 H   0  0  0  0  0  0
  -29.3508  -22.5932   21.6240 H   0  0  0  0  0  0
  -28.4698  -25.1389   21.6692 H   0  0  0  0  0  0
  -27.1350  -24.8166   20.6278 H   0  0  0  0  0  0
  -28.8973  -15.3345   21.2160 H   0  0  0  0  0  0
  1 25  1  0  0  0
  1 30  2  0  0  0
  1 84  1  0  0  0
  2  3  1  0  0  0
  2 25  1  0  0  0
  2 86  1  0  0  0
  2 87  1  0  0  0
  3  4  1  0  0  0
  3 88  1  0  0  0
  3 89  1  0  0  0
  4  5  1  0  0  0
  4 90  1  0  0  0
  4 91  1  0  0  0
  5  6  1  0  0  0
  5 26  1  0  0  0
  5 92  1  0  0  0
  6 25  1  0  0  0
  6 93  1  0  0  0
  6 94  1  0  0  0
  7  8  2  0  0  0
  7 26  1  0  0  0
  7 29  1  0  0  0
  8  9  1  0  0  0
  8 22  1  0  0  0
  9 10  1  0  0  0
  9 27  2  0  0  0
 10 11  2  0  0  0
 10 15  1  0  0  0
 11 12  1  0  0  0
 11 95  1  0  0  0
 12 13  2  0  0  0
 12 96  1  0  0  0
 13 14  1  0  0  0
 13 31  1  0  0  0
 14 15  2  0  0  0
 14 97  1  0  0  0
 15 98  1  0  0  0
 16 17  2  0  0  0
 16 21  1  0  0  0
 16 31  1  0  0  0
 17 18  1  0  0  0
 17 99  1  0  0  0
 18 19  2  0  0  0
 18100  1  0  0  0
 19 20  1  0  0  0
 19 24  1  0  0  0
 20 21  2  0  0  0
 20101  1  0  0  0
 21 23  1  0  0  0
 22 28  1  0  0  0
 22 32  2  0  0  0
 26 27  1  0  0  0
 28102  1  0  0  0
 28103  1  0  0  0
 29104  1  0  0  0
 29105  1  0  0  0
 33 34  1  0  0  0
 33 66  1  0  0  0
 33 70  2  0  0  0
 34 36  1  0  0  0
 34 59  1  0  0  0
 34106  1  0  0  0
 35 44  2  0  0  0
 35 45  1  0  0  0
 35 68  1  0  0  0
 36 56  1  0  0  0
 36107  1  0  0  0
 37 39  1  0  0  0
 37 47  1  0  0  0
 37 66  1  0  0  0
 37108  1  0  0  0
 38 43  2  0  0  0
 38 46  1  0  0  0
 38 47  1  0  0  0
 39 64  1  0  0  0
 39 67  2  0  0  0
 40 52  1  0  0  0
 40 53  2  0  0  0
 40 58  1  0  0  0
 41109  1  0  0  0
 41110  1  0  0  0
 41111  1  0  0  0
 41 48  1  0  0  0
 42 43  1  0  0  0
 42 66  1  0  0  0
 42112  1  0  0  0
 42113  1  0  0  0
 43 44  1  0  0  0
 44114  1  0  0  0
 45 46  2  0  0  0
 45115  1  0  0  0
 46116  1  0  0  0
 47117  1  0  0  0
 47118  1  0  0  0
 48 56  1  0  0  0
 48 65  1  0  0  0
 48119  1  0  0  0
 49 50  1  0  0  0
 49 53  1  0  0  0
 49 64  1  0  0  0
 49120  1  0  0  0
 50 51  1  0  0  0
 50121  1  0  0  0
 50122  1  0  0  0
 51 52  1  0  0  0
 51123  1  0  0  0
 51124  1  0  0  0
 52125  1  0  0  0
 52126  1  0  0  0
 53 54  1  0  0  0
 54 55  2  0  0  0
 54127  1  0  0  0
 55 57  1  0  0  0
 55128  1  0  0  0
 56 69  2  0  0  0
 57 58  2  0  0  0
 57129  1  0  0  0
 58130  1  0  0  0
 59 60  1  0  0  0
 59 61  1  0  0  0
 59 62  1  0  0  0
 60131  1  0  0  0
 60132  1  0  0  0
 60133  1  0  0  0
 61134  1  0  0  0
 61135  1  0  0  0
 61136  1  0  0  0
 62137  1  0  0  0
 62138  1  0  0  0
 62139  1  0  0  0
 63 65  1  0  0  0
 63140  1  0  0  0
 63141  1  0  0  0
 63142  1  0  0  0
 64143  1  0  0  0
 65144  1  0  0  0
 68 83  1  0  0  0
 71 73  2  0  0  0
 71 75  1  0  0  0
 71145  1  0  0  0
 72 74  1  0  0  0
 72 75  2  0  0  0
 72146  1  0  0  0
 73 76  1  0  0  0
 73 77  1  0  0  0
 74 76  2  0  0  0
 74 78  1  0  0  0
 75 84  1  0  0  0
 76 85  1  0  0  0
 77147  1  0  0  0
 77148  1  0  0  0
 77149  1  0  0  0
 78150  1  0  0  0
 78151  1  0  0  0
 78152  1  0  0  0
 79 81  1  0  0  0
 79153  1  0  0  0
 79154  1  0  0  0
 79155  1  0  0  0
 80 82  1  0  0  0
 80 83  1  0  0  0
 80156  1  0  0  0
 80157  1  0  0  0
 81 85  1  0  0  0
 81158  1  0  0  0
 81159  1  0  0  0
 82 85  1  0  0  0
 82160  1  0  0  0
 82161  1  0  0  0
 83162  1  0  0  0
 83163  1  0  0  0
 84164  1  0  0  0
M  ISO  4   1 100  68 101  83 101  84 100
M  END
> <chiral flag>
0

> <version>
0

> <s_m_source_file>
/data/baiqing/PycharmProjects/Reinvent-master-3.2/result/LINK_invent/BTK/process_docking_weight1_custom_product_contain_oxygen_bond_distance_aromatic_linkinvent_7_9_3/rearranged_h_0108.sdf

> <i_m_source_file_index>
89

> <r_mmod_Potential_Energy-OPLS-2005>
65.3837280273438

> <r_mmod_Stretch_Energy-OPLS-2005>
77.9304504394531

> <r_mmod_Bend_Energy-OPLS-2005>
138.725982666016

> <r_mmod_Torsional_Energy-OPLS-2005>
291.9111328125

> <r_mmod_Improper_Torsional_Energy-OPLS-2005>
6.08981466293335

> <r_mmod_Van_der_Waal_Energy-OPLS-2005>
139.224273681641

> <r_mmod_Electrostatic_Energy-OPLS-2005>
-425.130798339844

> <r_mmod_Solvation_Energy-OPLS-2005>
-206.595642089844

> <b_mmod_Minimization_Converged-OPLS-2005>
0

> <r_mmod_RMS_Derivative-OPLS-2005>
0.879600763320923

$$$$
90
                    3D
 Structure written by MMmdl.
165174  0  0  1  0            999 V2000
  -29.1564  -14.1044   21.5273 C   0  0  0  0  0  0
  -30.5026  -12.6531   19.7102 C   0  0  0  0  0  0
  -29.8294  -12.5925   18.2688 C   0  0  0  0  0  0
  -28.3388  -12.2077   18.2471 C   0  0  0  0  0  0
  -27.8297  -12.8402   19.4803 C   0  0  2  0  0  0
  -28.4779  -12.1307   20.6740 C   0  0  0  0  0  0
  -25.7460  -13.9743   19.5398 C   0  0  0  0  0  0
  -24.8992  -13.7394   20.4876 C   0  0  0  0  0  0
  -24.8029  -12.0849   20.2483 C   0  0  0  0  0  0
  -23.9964  -10.7331   20.7251 C   0  0  0  0  0  0
  -24.4683   -9.6737   21.6109 C   0  0  0  0  0  0
  -23.7460   -8.4637   21.9289 C   0  0  0  0  0  0
  -22.4959   -8.1858   21.3254 C   0  0  0  0  0  0
  -22.0171   -9.1821   20.4486 C   0  0  0  0  0  0
  -22.7272  -10.3913   20.1755 C   0  0  0  0  0  0
  -21.7595   -6.1513   22.5206 C   0  0  0  0  0  0
  -21.4595   -6.6137   23.8217 C   0  0  0  0  0  0
  -21.3848   -5.7111   24.9053 C   0  0  0  0  0  0
  -21.6040   -4.3353   24.7014 C   0  0  0  0  0  0
  -21.8774   -3.8598   23.4077 C   0  0  0  0  0  0
  -21.9435   -4.7579   22.3241 C   0  0  0  0  0  0
  -23.6834  -15.1001   22.4720 C   0  0  0  0  0  0
  -22.1735   -4.2687   21.0814 F   0  0  0  0  0  0
  -21.5495   -3.4717   25.7446 F   0  0  0  0  0  0
  -29.5454  -12.9716   20.8491 N   0  0  0  0  0  0
  -26.4895  -12.8460   19.6190 N   0  0  0  0  0  0
  -25.9602  -11.6895   19.9592 N   0  0  0  0  0  0
  -22.8111  -14.4781   23.3938 N   0  0  0  0  0  0
  -26.1713  -15.1128   18.9278 N   0  0  0  0  0  0
  -30.0869  -14.9573   21.2711 O   0  0  0  0  0  0
  -21.7627   -6.9999   21.4258 O   0  0  0  0  0  0
  -22.8750  -16.0333   22.3468 O   0  0  0  0  0  0
  -24.6986  -31.7852   23.1537 C   0  0  0  0  0  0
  -25.9559  -32.4330   23.8026 C   0  0  1  0  0  0
  -26.6013  -26.3444   20.2396 C   0  0  0  0  0  0
  -25.6105  -33.8193   24.1869 N   0  0  0  0  0  0
  -23.4974  -30.4304   21.5204 C   0  0  2  0  0  0
  -24.8449  -28.7678   20.0595 C   0  0  0  0  0  0
  -22.7710  -29.4321   22.4640 C   0  0  0  0  0  0
  -18.0337  -28.1421   22.8459 C   0  0  0  0  0  0
  -24.1517  -36.7088   23.2648 C   0  0  0  0  0  0
  -26.0796  -30.3736   21.4697 C   0  0  0  0  0  0
  -26.0221  -28.9305   20.7916 C   0  0  0  0  0  0
  -26.9235  -27.7231   20.8617 C   0  0  0  0  0  0
  -25.5713  -26.5217   19.3294 C   0  0  0  0  0  0
  -24.6958  -27.6202   19.2822 C   0  0  0  0  0  0
  -23.7248  -29.8035   20.1216 C   0  0  0  0  0  0
  -25.4178  -36.2821   24.0258 C   0  0  1  0  0  0
  -20.5966  -28.3777   23.1122 C   0  0  2  0  0  0
  -20.6800  -26.9437   22.5392 C   0  0  0  0  0  0
  -19.5768  -26.6365   21.5216 C   0  0  0  0  0  0
  -18.1955  -26.7951   22.1621 C   0  0  0  0  0  0
  -19.1603  -28.8924   23.2780 C   0  0  0  0  0  0
  -18.9506  -30.1508   23.8825 C   0  0  0  0  0  0
  -17.6494  -30.6597   24.0558 C   0  0  0  0  0  0
  -25.9186  -34.9215   23.4900 C   0  0  0  0  0  0
  -16.5385  -29.9083   23.6352 C   0  0  0  0  0  0
  -16.7318  -28.6510   23.0364 C   0  0  0  0  0  0
  -26.4650  -31.6482   25.0756 C   0  0  0  0  0  0
  -25.3642  -31.3889   26.1323 C   0  0  0  0  0  0
  -27.0606  -30.2773   24.6916 C   0  0  0  0  0  0
  -27.6080  -32.4405   25.7534 C   0  0  0  0  0  0
  -27.5571  -37.1711   24.8461 C   0  0  0  0  0  0
  -21.4366  -29.3027   22.3416 N   0  0  0  0  0  0
  -26.4278  -37.3609   23.9400 N   0  0  0  0  0  0
  -24.7920  -30.9088   22.0931 N   0  0  0  0  0  0
  -23.4173  -28.7858   23.2928 O   0  0  0  0  0  0
  -26.9776  -24.8061   20.3575 O   0  0  0  0  0  0
  -26.5824  -34.8820   22.4520 O   0  0  0  0  0  0
  -23.6016  -32.1140   23.6408 O   0  0  0  0  0  0
  -22.8526  -13.3719   21.1929 C   0  0  0  0  0  0
  -23.1462  -15.1505   20.1623 C   0  0  0  0  0  0
  -25.9147  -15.6371   21.5916 C   0  0  0  0  0  0
  -24.5102  -12.9141   22.5238 C   0  0  0  0  0  0
  -24.6542  -16.3919   20.5841 C   0  0  0  0  0  0
  -26.0726  -14.1290   22.4277 C   0  0  0  0  0  0
  -25.9005  -21.1658   20.3105 C   0  0  0  0  0  0
  -25.0042  -19.8133   20.2284 C   0  0  0  0  0  0
  -27.2328  -20.6717   20.6216 C   0  0  0  0  0  0
  -27.2784  -19.4716   21.5434 C   0  0  0  0  0  0
  -26.5576  -18.1791   21.0611 C   0  0  0  0  0  0
  -24.4734  -11.8706   23.6269 C   0  0  0  0  0  0
  -23.5525  -20.0588   19.8792 C   0  0  0  0  0  0
  -28.2225  -13.6693   23.8003 C   0  0  0  0  0  0
  -26.0065  -23.1728   20.1825 C   0  0  0  0  0  0
  -25.1834  -18.1034   20.4774 N   0  0  0  0  0  0
  -27.8207  -14.0008   22.4343 N   0  0  0  0  0  0
  -28.2809  -21.1852   20.2206 O   0  0  0  0  0  0
  -31.3231  -13.3708   19.7039 H   0  0  0  0  0  0
  -30.9735  -11.6929   19.9270 H   0  0  0  0  0  0
  -30.4000  -11.9360   17.6102 H   0  0  0  0  0  0
  -29.9200  -13.5863   17.8265 H   0  0  0  0  0  0
  -28.1964  -11.1256   18.2471 H   0  0  0  0  0  0
  -27.8517  -12.5968   17.3525 H   0  0  0  0  0  0
  -28.1235  -13.8786   19.3232 H   0  0  0  0  0  0
  -28.8128  -11.1246   20.4094 H   0  0  0  0  0  0
  -27.8599  -11.8857   21.5383 H   0  0  0  0  0  0
  -25.4517   -9.7899   22.0401 H   0  0  0  0  0  0
  -24.1982   -7.7351   22.5861 H   0  0  0  0  0  0
  -21.0743   -9.0167   19.9468 H   0  0  0  0  0  0
  -22.2857  -11.0817   19.4715 H   0  0  0  0  0  0
  -21.2819   -7.6659   23.9901 H   0  0  0  0  0  0
  -21.1632   -6.0761   25.8975 H   0  0  0  0  0  0
  -22.0314   -2.8047   23.2424 H   0  0  0  0  0  0
  -22.8492  -13.4778   23.5104 H   0  0  0  0  0  0
  -22.1261  -15.0368   23.8756 H   0  0  0  0  0  0
  -25.6167  -15.9574   18.8865 H   0  0  0  0  0  0
  -26.9150  -15.1119   18.2399 H   0  0  0  0  0  0
  -26.7599  -32.4611   23.0664 H   0  0  0  0  0  0
  -25.0151  -33.9221   24.9955 H   0  0  0  0  0  0
  -22.8340  -31.2864   21.3760 H   0  0  0  0  0  0
  -23.3814  -35.9377   23.3228 H   0  0  0  0  0  0
  -24.3581  -36.8849   22.2078 H   0  0  0  0  0  0
  -23.7241  -37.6220   23.6800 H   0  0  0  0  0  0
  -26.3687  -31.0817   20.6924 H   0  0  0  0  0  0
  -26.9143  -30.3756   22.1558 H   0  0  0  0  0  0
  -27.7730  -27.7808   21.5275 H   0  0  0  0  0  0
  -25.2846  -25.6656   18.7353 H   0  0  0  0  0  0
  -23.8272  -27.5359   18.6431 H   0  0  0  0  0  0
  -23.9657  -30.5942   19.4101 H   0  0  0  0  0  0
  -22.7957  -29.3596   19.7604 H   0  0  0  0  0  0
  -25.1398  -36.1555   25.0746 H   0  0  0  0  0  0
  -21.0072  -28.3414   24.1237 H   0  0  0  0  0  0
  -20.5678  -26.2405   23.3659 H   0  0  0  0  0  0
  -21.6660  -26.7389   22.1200 H   0  0  0  0  0  0
  -19.6919  -25.6255   21.1297 H   0  0  0  0  0  0
  -19.6705  -27.3134   20.6714 H   0  0  0  0  0  0
  -17.4226  -26.6710   21.4021 H   0  0  0  0  0  0
  -18.0329  -26.0113   22.9030 H   0  0  0  0  0  0
  -19.7979  -30.7350   24.2153 H   0  0  0  0  0  0
  -17.5041  -31.6267   24.5178 H   0  0  0  0  0  0
  -15.5380  -30.2956   23.7715 H   0  0  0  0  0  0
  -15.8724  -28.0803   22.7110 H   0  0  0  0  0  0
  -24.5891  -30.7171   25.7618 H   0  0  0  0  0  0
  -24.8758  -32.3128   26.4426 H   0  0  0  0  0  0
  -25.7743  -30.9263   27.0309 H   0  0  0  0  0  0
  -26.3312  -29.6242   24.2117 H   0  0  0  0  0  0
  -27.4055  -29.7423   25.5775 H   0  0  0  0  0  0
  -27.9323  -30.3792   24.0453 H   0  0  0  0  0  0
  -27.2634  -33.3835   26.1791 H   0  0  0  0  0  0
  -28.4013  -32.6759   25.0425 H   0  0  0  0  0  0
  -28.0620  -31.8766   26.5694 H   0  0  0  0  0  0
  -28.2529  -38.0061   24.7536 H   0  0  0  0  0  0
  -28.1134  -36.2583   24.6269 H   0  0  0  0  0  0
  -27.2284  -37.1309   25.8860 H   0  0  0  0  0  0
  -20.9638  -29.8743   21.6556 H   0  0  0  0  0  0
  -26.0085  -38.2646   24.1412 H   0  0  0  0  0  0
  -21.9311  -12.8087   21.1439 H   0  0  0  0  0  0
  -22.3389  -15.5222   19.5481 H   0  0  0  0  0  0
  -26.9134  -16.0197   21.6171 H   0  0  0  0  0  0
  -26.8332  -19.7971   22.4848 H   0  0  0  0  0  0
  -28.3189  -19.2383   21.7736 H   0  0  0  0  0  0
  -26.4605  -17.8043   22.0751 H   0  0  0  0  0  0
  -27.2587  -17.6068   20.4497 H   0  0  0  0  0  0
  -23.6081  -11.2155   23.5404 H   0  0  0  0  0  0
  -24.4053  -12.3698   24.5943 H   0  0  0  0  0  0
  -25.3944  -11.2904   23.6384 H   0  0  0  0  0  0
  -23.3102  -21.1219   19.9348 H   0  0  0  0  0  0
  -22.8954  -19.5303   20.5707 H   0  0  0  0  0  0
  -23.3405  -19.7169   18.8659 H   0  0  0  0  0  0
  -27.7363  -12.7430   24.1090 H   0  0  0  0  0  0
  -27.9042  -14.4584   24.4821 H   0  0  0  0  0  0
  -29.2975  -13.5303   23.9363 H   0  0  0  0  0  0
  -26.4441  -23.0526   21.1736 H   0  0  0  0  0  0
  -26.5962  -23.0222   19.2788 H   0  0  0  0  0  0
  1 25  1  0  0  0
  1 30  2  0  0  0
  1 87  1  0  0  0
  2  3  1  0  0  0
  2 25  1  0  0  0
  2 89  1  0  0  0
  2 90  1  0  0  0
  3  4  1  0  0  0
  3 91  1  0  0  0
  3 92  1  0  0  0
  4  5  1  0  0  0
  4 93  1  0  0  0
  4 94  1  0  0  0
  5  6  1  0  0  0
  5 26  1  0  0  0
  5 95  1  0  0  0
  6 25  1  0  0  0
  6 96  1  0  0  0
  6 97  1  0  0  0
  7  8  2  0  0  0
  7 26  1  0  0  0
  7 29  1  0  0  0
  8  9  1  0  0  0
  8 22  1  0  0  0
  9 10  1  0  0  0
  9 27  2  0  0  0
 10 11  2  0  0  0
 10 15  1  0  0  0
 11 12  1  0  0  0
 11 98  1  0  0  0
 12 13  2  0  0  0
 12 99  1  0  0  0
 13 14  1  0  0  0
 13 31  1  0  0  0
 14 15  2  0  0  0
 14100  1  0  0  0
 15101  1  0  0  0
 16 17  2  0  0  0
 16 21  1  0  0  0
 16 31  1  0  0  0
 17 18  1  0  0  0
 17102  1  0  0  0
 18 19  2  0  0  0
 18103  1  0  0  0
 19 20  1  0  0  0
 19 24  1  0  0  0
 20 21  2  0  0  0
 20104  1  0  0  0
 21 23  1  0  0  0
 22 28  1  0  0  0
 22 32  2  0  0  0
 26 27  1  0  0  0
 28105  1  0  0  0
 28106  1  0  0  0
 29107  1  0  0  0
 29108  1  0  0  0
 33 34  1  0  0  0
 33 66  1  0  0  0
 33 70  2  0  0  0
 34 36  1  0  0  0
 34 59  1  0  0  0
 34109  1  0  0  0
 35 44  2  0  0  0
 35 45  1  0  0  0
 35 68  1  0  0  0
 36 56  1  0  0  0
 36110  1  0  0  0
 37 39  1  0  0  0
 37 47  1  0  0  0
 37 66  1  0  0  0
 37111  1  0  0  0
 38 43  2  0  0  0
 38 46  1  0  0  0
 38 47  1  0  0  0
 39 64  1  0  0  0
 39 67  2  0  0  0
 40 52  1  0  0  0
 40 53  2  0  0  0
 40 58  1  0  0  0
 41112  1  0  0  0
 41113  1  0  0  0
 41114  1  0  0  0
 41 48  1  0  0  0
 42 43  1  0  0  0
 42 66  1  0  0  0
 42115  1  0  0  0
 42116  1  0  0  0
 43 44  1  0  0  0
 44117  1  0  0  0
 45 46  2  0  0  0
 45118  1  0  0  0
 46119  1  0  0  0
 47120  1  0  0  0
 47121  1  0  0  0
 48 56  1  0  0  0
 48 65  1  0  0  0
 48122  1  0  0  0
 49 50  1  0  0  0
 49 53  1  0  0  0
 49 64  1  0  0  0
 49123  1  0  0  0
 50 51  1  0  0  0
 50124  1  0  0  0
 50125  1  0  0  0
 51 52  1  0  0  0
 51126  1  0  0  0
 51127  1  0  0  0
 52128  1  0  0  0
 52129  1  0  0  0
 53 54  1  0  0  0
 54 55  2  0  0  0
 54130  1  0  0  0
 55 57  1  0  0  0
 55131  1  0  0  0
 56 69  2  0  0  0
 57 58  2  0  0  0
 57132  1  0  0  0
 58133  1  0  0  0
 59 60  1  0  0  0
 59 61  1  0  0  0
 59 62  1  0  0  0
 60134  1  0  0  0
 60135  1  0  0  0
 60136  1  0  0  0
 61137  1  0  0  0
 61138  1  0  0  0
 61139  1  0  0  0
 62140  1  0  0  0
 62141  1  0  0  0
 62142  1  0  0  0
 63 65  1  0  0  0
 63143  1  0  0  0
 63144  1  0  0  0
 63145  1  0  0  0
 64146  1  0  0  0
 65147  1  0  0  0
 68 85  1  0  0  0
 71 72  2  0  0  0
 71 74  1  0  0  0
 71148  1  0  0  0
 72 75  1  0  0  0
 72149  1  0  0  0
 73 75  2  0  0  0
 73 76  1  0  0  0
 73150  1  0  0  0
 74 76  2  0  0  0
 74 82  1  0  0  0
 75 86  1  0  0  0
 76 87  1  0  0  0
 77 78  2  0  0  0
 77 79  1  0  0  0
 77 85  1  0  0  0
 78 83  1  0  0  0
 78 86  1  0  0  0
 79 80  1  0  0  0
 79 88  2  0  0  0
 80 81  1  0  0  0
 80151  1  0  0  0
 80152  1  0  0  0
 81 86  1  0  0  0
 81153  1  0  0  0
 81154  1  0  0  0
 82155  1  0  0  0
 82156  1  0  0  0
 82157  1  0  0  0
 83158  1  0  0  0
 83159  1  0  0  0
 83160  1  0  0  0
 84 87  1  0  0  0
 84161  1  0  0  0
 84162  1  0  0  0
 84163  1  0  0  0
 85164  1  0  0  0
 85165  1  0  0  0
M  ISO  4   1 100  68 101  85 101  87 100
M  END
> <chiral flag>
0

> <version>
0

> <s_m_source_file>
/data/baiqing/PycharmProjects/Reinvent-master-3.2/result/LINK_invent/BTK/process_docking_weight1_custom_product_contain_oxygen_bond_distance_aromatic_linkinvent_7_9_3/rearranged_h_0108.sdf

> <i_m_source_file_index>
90

> <r_mmod_Potential_Energy-OPLS-2005>
17712.544921875

> <r_mmod_Stretch_Energy-OPLS-2005>
8618.10546875

> <r_mmod_Bend_Energy-OPLS-2005>
1481.17114257812

> <r_mmod_Torsional_Energy-OPLS-2005>
524.258850097656

> <r_mmod_Improper_Torsional_Energy-OPLS-2005>
70.9730453491211

> <r_mmod_Van_der_Waal_Energy-OPLS-2005>
3207.63012695312

> <r_mmod_Electrostatic_Energy-OPLS-2005>
-333.585601806641

> <r_mmod_Solvation_Energy-OPLS-2005>
-203.667846679688

> <b_mmod_Minimization_Converged-OPLS-2005>
0

> <r_mmod_RMS_Derivative-OPLS-2005>
3.60047674179077

$$$$
91
                    3D
 Structure written by MMmdl.
165173  0  0  1  0            999 V2000
  -30.6955  -14.4451   20.5459 C   0  0  0  0  0  0
  -30.4151  -12.2778   19.4160 C   0  0  0  0  0  0
  -29.4881  -12.4949   18.2011 C   0  0  0  0  0  0
  -28.0105  -12.3638   18.6198 C   0  0  0  0  0  0
  -27.6624  -13.2022   19.8787 C   0  0  2  0  0  0
  -28.7060  -12.9821   20.9960 C   0  0  0  0  0  0
  -25.2611  -13.8136   20.5713 C   0  0  0  0  0  0
  -24.1850  -13.0418   20.9161 C   0  0  0  0  0  0
  -24.6398  -11.6879   20.8726 C   0  0  0  0  0  0
  -23.9073  -10.4268   21.0398 C   0  0  0  0  0  0
  -24.3619   -9.4189   21.9187 C   0  0  0  0  0  0
  -23.6283   -8.2225   22.0753 C   0  0  0  0  0  0
  -22.4273   -8.0272   21.3531 C   0  0  0  0  0  0
  -21.9902   -9.0255   20.4641 C   0  0  0  0  0  0
  -22.7237  -10.2131   20.3054 C   0  0  0  0  0  0
  -21.6857   -6.0729   22.5273 C   0  0  0  0  0  0
  -21.4015   -6.5630   23.8208 C   0  0  0  0  0  0
  -21.3657   -5.6792   24.9166 C   0  0  0  0  0  0
  -21.6047   -4.3055   24.7230 C   0  0  0  0  0  0
  -21.8817   -3.8139   23.4350 C   0  0  0  0  0  0
  -21.9188   -4.6946   22.3407 C   0  0  0  0  0  0
  -22.7868  -13.5200   21.1844 C   0  0  0  0  0  0
  -22.1667   -4.2132   21.0982 F   0  0  0  0  0  0
  -21.5635   -3.4544   25.7741 F   0  0  0  0  0  0
  -30.0337  -13.2658   20.4322 N   0  0  0  0  0  0
  -26.3048  -12.9307   20.3424 N   0  0  0  0  0  0
  -25.9330  -11.6464   20.5798 N   0  0  0  0  0  0
  -22.0539  -12.8173   22.0407 N   0  0  0  0  0  0
  -25.4365  -15.1856   20.4165 N   0  0  0  0  0  0
  -31.8420  -14.6294   20.1341 O   0  0  0  0  0  0
  -21.6641   -6.8869   21.4233 O   0  0  0  0  0  0
  -22.3532  -14.5520   20.6719 O   0  0  0  0  0  0
  -24.6141  -31.8698   23.2113 C   0  0  0  0  0  0
  -25.9042  -32.4828   23.8390 C   0  0  1  0  0  0
  -27.2206  -27.4303   20.0988 C   0  0  0  0  0  0
  -25.5889  -33.8626   24.2313 N   0  0  0  0  0  0
  -23.4025  -30.4903   21.5519 C   0  0  2  0  0  0
  -24.8452  -28.9595   20.1155 C   0  0  0  0  0  0
  -22.7412  -29.4656   22.5012 C   0  0  0  0  0  0
  -18.0295  -28.1330   22.8488 C   0  0  0  0  0  0
  -24.1485  -36.7322   23.2639 C   0  0  0  0  0  0
  -25.9295  -30.8345   21.3648 C   0  0  0  0  0  0
  -26.0052  -29.4697   20.7081 C   0  0  0  0  0  0
  -27.1988  -28.7137   20.6910 C   0  0  0  0  0  0
  -26.0422  -26.9342   19.5022 C   0  0  0  0  0  0
  -24.8580  -27.6925   19.5078 C   0  0  0  0  0  0
  -23.6099  -29.8272   20.1647 C   0  0  0  0  0  0
  -25.4109  -36.3109   24.0333 C   0  0  1  0  0  0
  -20.5877  -28.3641   23.1342 C   0  0  2  0  0  0
  -20.6823  -26.9384   22.5403 C   0  0  0  0  0  0
  -19.5796  -26.6315   21.5230 C   0  0  0  0  0  0
  -18.1968  -26.7870   22.1608 C   0  0  0  0  0  0
  -19.1530  -28.8807   23.2871 C   0  0  0  0  0  0
  -18.9430  -30.1428   23.8845 C   0  0  0  0  0  0
  -17.6420  -30.6533   24.0486 C   0  0  0  0  0  0
  -25.9041  -34.9481   23.5118 C   0  0  0  0  0  0
  -16.5319  -29.9015   23.6271 C   0  0  0  0  0  0
  -16.7276  -28.6423   23.0335 C   0  0  0  0  0  0
  -26.4476  -31.6603   25.0717 C   0  0  0  0  0  0
  -25.3741  -31.3712   26.1457 C   0  0  0  0  0  0
  -27.0294  -30.3034   24.6107 C   0  0  0  0  0  0
  -27.6038  -32.4338   25.7481 C   0  0  0  0  0  0
  -27.5580  -37.1817   24.8463 C   0  0  0  0  0  0
  -21.4139  -29.3040   22.3776 N   0  0  0  0  0  0
  -26.4297  -37.3788   23.9407 N   0  0  0  0  0  0
  -24.6664  -31.0794   22.1011 N   0  0  0  0  0  0
  -23.4177  -28.8223   23.3084 O   0  0  0  0  0  0
  -28.3846  -26.6966   20.1008 O   0  0  0  0  0  0
  -26.5602  -34.8940   22.4681 O   0  0  0  0  0  0
  -23.5344  -32.1455   23.7513 O   0  0  0  0  0  0
  -27.8534  -17.3836   22.8745 C   0  0  0  0  0  0
  -29.2448  -18.5415   21.2565 C   0  0  0  0  0  0
  -26.9289  -18.4524   22.8673 C   0  0  0  0  0  0
  -29.0007  -17.4093   22.0615 C   0  0  0  0  0  0
  -28.3513  -19.6355   21.2258 C   0  0  0  0  0  0
  -27.1611  -19.5627   22.0075 C   0  0  0  0  0  0
  -25.4016  -17.4598   24.6215 C   0  0  0  0  0  0
  -25.7364  -18.4261   23.7469 C   0  0  0  0  0  0
  -25.1209  -20.2004   21.0612 C   0  0  0  0  0  0
  -29.9573  -16.2206   22.0609 C   0  0  0  0  0  0
  -28.3226  -24.3324   19.3144 C   0  0  0  0  0  0
  -28.9457  -22.9475   19.6213 C   0  0  0  0  0  0
  -28.2887  -25.3193   20.5026 C   0  0  0  0  0  0
  -28.0940  -21.9658   20.4569 C   0  0  0  0  0  0
  -29.9090  -15.4964   20.7989 N   0  0  0  0  0  0
  -26.2068  -20.5452   21.9194 O   0  0  0  0  0  0
  -28.7264  -20.6831   20.3963 O   0  0  0  0  0  0
  -31.4617  -12.3693   19.1225 H   0  0  0  0  0  0
  -30.2973  -11.2680   19.8122 H   0  0  0  0  0  0
  -29.7149  -11.7754   17.4140 H   0  0  0  0  0  0
  -29.6633  -13.4833   17.7699 H   0  0  0  0  0  0
  -27.8179  -11.3100   18.8220 H   0  0  0  0  0  0
  -27.3543  -12.6412   17.7944 H   0  0  0  0  0  0
  -27.7081  -14.2503   19.5860 H   0  0  0  0  0  0
  -28.6741  -11.9543   21.3563 H   0  0  0  0  0  0
  -28.4881  -13.6087   21.8619 H   0  0  0  0  0  0
  -25.2774   -9.5653   22.4758 H   0  0  0  0  0  0
  -23.9997   -7.4611   22.7480 H   0  0  0  0  0  0
  -21.0829   -8.8777   19.8958 H   0  0  0  0  0  0
  -22.3705  -10.9676   19.6170 H   0  0  0  0  0  0
  -21.2018   -7.6142   23.9696 H   0  0  0  0  0  0
  -21.1485   -6.0532   25.9072 H   0  0  0  0  0  0
  -22.0599   -2.7599   23.2860 H   0  0  0  0  0  0
  -22.4200  -11.9827   22.4750 H   0  0  0  0  0  0
  -21.1179  -13.1182   22.2701 H   0  0  0  0  0  0
  -24.6836  -15.8467   20.5689 H   0  0  0  0  0  0
  -26.3153  -15.6276   20.1757 H   0  0  0  0  0  0
  -26.7115  -32.5540   23.1156 H   0  0  0  0  0  0
  -24.9987  -33.9781   25.0420 H   0  0  0  0  0  0
  -22.6886  -31.3043   21.4162 H   0  0  0  0  0  0
  -23.3736  -35.9661   23.3311 H   0  0  0  0  0  0
  -24.3566  -36.8939   22.2050 H   0  0  0  0  0  0
  -23.7269  -37.6545   23.6652 H   0  0  0  0  0  0
  -26.0412  -31.6073   20.6035 H   0  0  0  0  0  0
  -26.8166  -30.8822   21.9839 H   0  0  0  0  0  0
  -28.0962  -29.1025   21.1482 H   0  0  0  0  0  0
  -26.0268  -25.9680   19.0209 H   0  0  0  0  0  0
  -23.9651  -27.2991   19.0419 H   0  0  0  0  0  0
  -23.7258  -30.6042   19.4071 H   0  0  0  0  0  0
  -22.7315  -29.2513   19.8683 H   0  0  0  0  0  0
  -25.1289  -36.1955   25.0827 H   0  0  0  0  0  0
  -20.9940  -28.3149   24.1485 H   0  0  0  0  0  0
  -20.5793  -26.2263   23.3606 H   0  0  0  0  0  0
  -21.6696  -26.7428   22.1152 H   0  0  0  0  0  0
  -19.6976  -25.6216   21.1299 H   0  0  0  0  0  0
  -19.6728  -27.3062   20.6712 H   0  0  0  0  0  0
  -17.4300  -26.6681   21.3942 H   0  0  0  0  0  0
  -18.0310  -25.9958   22.8937 H   0  0  0  0  0  0
  -19.7893  -30.7236   24.2260 H   0  0  0  0  0  0
  -17.4938  -31.6226   24.5053 H   0  0  0  0  0  0
  -15.5298  -30.2869   23.7623 H   0  0  0  0  0  0
  -15.8686  -28.0717   22.7082 H   0  0  0  0  0  0
  -24.5893  -30.7090   25.7789 H   0  0  0  0  0  0
  -24.8962  -32.2873   26.4930 H   0  0  0  0  0  0
  -25.8084  -30.8849   27.0193 H   0  0  0  0  0  0
  -26.2825  -29.6802   24.1175 H   0  0  0  0  0  0
  -27.4051  -29.7277   25.4575 H   0  0  0  0  0  0
  -27.8669  -30.4325   23.9246 H   0  0  0  0  0  0
  -27.2618  -33.3607   26.2089 H   0  0  0  0  0  0
  -28.3818  -32.6957   25.0301 H   0  0  0  0  0  0
  -28.0728  -31.8454   26.5374 H   0  0  0  0  0  0
  -28.2607  -38.0105   24.7495 H   0  0  0  0  0  0
  -28.1068  -36.2637   24.6297 H   0  0  0  0  0  0
  -27.2288  -37.1488   25.8864 H   0  0  0  0  0  0
  -20.9301  -29.8757   21.6980 H   0  0  0  0  0  0
  -26.0179  -38.2858   24.1417 H   0  0  0  0  0  0
  -27.6883  -16.5222   23.5023 H   0  0  0  0  0  0
  -30.1399  -18.5796   20.6529 H   0  0  0  0  0  0
  -24.5070  -17.5489   25.2216 H   0  0  0  0  0  0
  -25.9932  -16.5698   24.7731 H   0  0  0  0  0  0
  -25.0693  -19.2751   23.6850 H   0  0  0  0  0  0
  -24.9589  -20.9966   20.3362 H   0  0  0  0  0  0
  -24.1990  -20.0818   21.6314 H   0  0  0  0  0  0
  -25.2855  -19.2750   20.5038 H   0  0  0  0  0  0
  -29.7067  -15.5384   22.8741 H   0  0  0  0  0  0
  -30.9749  -16.5668   22.2510 H   0  0  0  0  0  0
  -28.9183  -24.7848   18.5210 H   0  0  0  0  0  0
  -27.3265  -24.2000   18.8939 H   0  0  0  0  0  0
  -29.9266  -23.0774   20.0811 H   0  0  0  0  0  0
  -29.1429  -22.4665   18.6623 H   0  0  0  0  0  0
  -29.1454  -25.1407   21.1525 H   0  0  0  0  0  0
  -27.4123  -25.1340   21.1268 H   0  0  0  0  0  0
  -28.0112  -22.3128   21.4870 H   0  0  0  0  0  0
  -27.0919  -21.9120   20.0351 H   0  0  0  0  0  0
  -29.9094  -16.1471   20.0278 H   0  0  0  0  0  0
  1 25  1  0  0  0
  1 30  2  0  0  0
  1 85  1  0  0  0
  2  3  1  0  0  0
  2 25  1  0  0  0
  2 88  1  0  0  0
  2 89  1  0  0  0
  3  4  1  0  0  0
  3 90  1  0  0  0
  3 91  1  0  0  0
  4  5  1  0  0  0
  4 92  1  0  0  0
  4 93  1  0  0  0
  5  6  1  0  0  0
  5 26  1  0  0  0
  5 94  1  0  0  0
  6 25  1  0  0  0
  6 95  1  0  0  0
  6 96  1  0  0  0
  7  8  2  0  0  0
  7 26  1  0  0  0
  7 29  1  0  0  0
  8  9  1  0  0  0
  8 22  1  0  0  0
  9 10  1  0  0  0
  9 27  2  0  0  0
 10 11  2  0  0  0
 10 15  1  0  0  0
 11 12  1  0  0  0
 11 97  1  0  0  0
 12 13  2  0  0  0
 12 98  1  0  0  0
 13 14  1  0  0  0
 13 31  1  0  0  0
 14 15  2  0  0  0
 14 99  1  0  0  0
 15100  1  0  0  0
 16 17  2  0  0  0
 16 21  1  0  0  0
 16 31  1  0  0  0
 17 18  1  0  0  0
 17101  1  0  0  0
 18 19  2  0  0  0
 18102  1  0  0  0
 19 20  1  0  0  0
 19 24  1  0  0  0
 20 21  2  0  0  0
 20103  1  0  0  0
 21 23  1  0  0  0
 22 28  1  0  0  0
 22 32  2  0  0  0
 26 27  1  0  0  0
 28104  1  0  0  0
 28105  1  0  0  0
 29106  1  0  0  0
 29107  1  0  0  0
 33 34  1  0  0  0
 33 66  1  0  0  0
 33 70  2  0  0  0
 34 36  1  0  0  0
 34 59  1  0  0  0
 34108  1  0  0  0
 35 44  2  0  0  0
 35 45  1  0  0  0
 35 68  1  0  0  0
 36 56  1  0  0  0
 36109  1  0  0  0
 37 39  1  0  0  0
 37 47  1  0  0  0
 37 66  1  0  0  0
 37110  1  0  0  0
 38 43  2  0  0  0
 38 46  1  0  0  0
 38 47  1  0  0  0
 39 64  1  0  0  0
 39 67  2  0  0  0
 40 52  1  0  0  0
 40 53  2  0  0  0
 40 58  1  0  0  0
 41111  1  0  0  0
 41112  1  0  0  0
 41113  1  0  0  0
 41 48  1  0  0  0
 42 43  1  0  0  0
 42 66  1  0  0  0
 42114  1  0  0  0
 42115  1  0  0  0
 43 44  1  0  0  0
 44116  1  0  0  0
 45 46  2  0  0  0
 45117  1  0  0  0
 46118  1  0  0  0
 47119  1  0  0  0
 47120  1  0  0  0
 48 56  1  0  0  0
 48 65  1  0  0  0
 48121  1  0  0  0
 49 50  1  0  0  0
 49 53  1  0  0  0
 49 64  1  0  0  0
 49122  1  0  0  0
 50 51  1  0  0  0
 50123  1  0  0  0
 50124  1  0  0  0
 51 52  1  0  0  0
 51125  1  0  0  0
 51126  1  0  0  0
 52127  1  0  0  0
 52128  1  0  0  0
 53 54  1  0  0  0
 54 55  2  0  0  0
 54129  1  0  0  0
 55 57  1  0  0  0
 55130  1  0  0  0
 56 69  2  0  0  0
 57 58  2  0  0  0
 57131  1  0  0  0
 58132  1  0  0  0
 59 60  1  0  0  0
 59 61  1  0  0  0
 59 62  1  0  0  0
 60133  1  0  0  0
 60134  1  0  0  0
 60135  1  0  0  0
 61136  1  0  0  0
 61137  1  0  0  0
 61138  1  0  0  0
 62139  1  0  0  0
 62140  1  0  0  0
 62141  1  0  0  0
 63 65  1  0  0  0
 63142  1  0  0  0
 63143  1  0  0  0
 63144  1  0  0  0
 64145  1  0  0  0
 65146  1  0  0  0
 68 83  1  0  0  0
 71 73  2  0  0  0
 71 74  1  0  0  0
 71147  1  0  0  0
 72 74  2  0  0  0
 72 75  1  0  0  0
 72148  1  0  0  0
 73 76  1  0  0  0
 73 78  1  0  0  0
 74 80  1  0  0  0
 75 76  2  0  0  0
 75 87  1  0  0  0
 76 86  1  0  0  0
 77 78  2  0  0  0
 77149  1  0  0  0
 77150  1  0  0  0
 78151  1  0  0  0
 79 86  1  0  0  0
 79152  1  0  0  0
 79153  1  0  0  0
 79154  1  0  0  0
 80 85  1  0  0  0
 80155  1  0  0  0
 80156  1  0  0  0
 81 82  1  0  0  0
 81 83  1  0  0  0
 81157  1  0  0  0
 81158  1  0  0  0
 82 84  1  0  0  0
 82159  1  0  0  0
 82160  1  0  0  0
 83161  1  0  0  0
 83162  1  0  0  0
 84 87  1  0  0  0
 84163  1  0  0  0
 84164  1  0  0  0
 85165  1  0  0  0
M  ISO  4   1 100  68 101  83 101  85 100
M  END
> <chiral flag>
0

> <version>
0

> <s_m_source_file>
/data/baiqing/PycharmProjects/Reinvent-master-3.2/result/LINK_invent/BTK/process_docking_weight1_custom_product_contain_oxygen_bond_distance_aromatic_linkinvent_7_9_3/rearranged_h_0108.sdf

> <i_m_source_file_index>
91

> <r_mmod_Potential_Energy-OPLS-2005>
25.3463573455811

> <r_mmod_Stretch_Energy-OPLS-2005>
36.8705062866211

> <r_mmod_Bend_Energy-OPLS-2005>
115.086700439453

> <r_mmod_Torsional_Energy-OPLS-2005>
328.496795654297

> <r_mmod_Improper_Torsional_Energy-OPLS-2005>
13.6505765914917

> <r_mmod_Van_der_Waal_Energy-OPLS-2005>
152.55696105957

> <r_mmod_Electrostatic_Energy-OPLS-2005>
-431.001312255859

> <r_mmod_Solvation_Energy-OPLS-2005>
-203.350296020508

> <b_mmod_Minimization_Converged-OPLS-2005>
0

> <r_mmod_RMS_Derivative-OPLS-2005>
3.39578437805176

$$$$
92
                    3D
 Structure written by MMmdl.
162171  0  0  1  0            999 V2000
  -30.4967  -15.0921   20.3216 C   0  0  0  0  0  0
  -30.4666  -12.6839   19.4692 C   0  0  0  0  0  0
  -29.5358  -12.4301   18.2612 C   0  0  0  0  0  0
  -28.0616  -12.2704   18.6931 C   0  0  0  0  0  0
  -27.6248  -13.2491   19.8131 C   0  0  2  0  0  0
  -28.6804  -13.3634   20.9258 C   0  0  0  0  0  0
  -25.2507  -13.8245   20.5782 C   0  0  0  0  0  0
  -24.1779  -13.0512   20.9268 C   0  0  0  0  0  0
  -24.6344  -11.6980   20.8765 C   0  0  0  0  0  0
  -23.9064  -10.4328   21.0423 C   0  0  0  0  0  0
  -24.3617   -9.4218   21.9190 C   0  0  0  0  0  0
  -23.6292   -8.2237   22.0755 C   0  0  0  0  0  0
  -22.4264   -8.0276   21.3524 C   0  0  0  0  0  0
  -21.9907   -9.0292   20.4683 C   0  0  0  0  0  0
  -22.7235  -10.2163   20.3099 C   0  0  0  0  0  0
  -21.6827   -6.0769   22.5290 C   0  0  0  0  0  0
  -21.4018   -6.5660   23.8239 C   0  0  0  0  0  0
  -21.3645   -5.6804   24.9204 C   0  0  0  0  0  0
  -21.6027   -4.3065   24.7220 C   0  0  0  0  0  0
  -21.8798   -3.8161   23.4335 C   0  0  0  0  0  0
  -21.9194   -4.7009   22.3398 C   0  0  0  0  0  0
  -22.7801  -13.5357   21.1866 C   0  0  0  0  0  0
  -22.1655   -4.2235   21.0965 F   0  0  0  0  0  0
  -21.5603   -3.4511   25.7706 F   0  0  0  0  0  0
  -29.9132  -13.8149   20.2693 N   0  0  0  0  0  0
  -26.2903  -12.9481   20.3261 N   0  0  0  0  0  0
  -25.9260  -11.6593   20.5655 N   0  0  0  0  0  0
  -22.0325  -12.8418   22.0384 N   0  0  0  0  0  0
  -25.4206  -15.1965   20.4219 N   0  0  0  0  0  0
  -31.7362  -15.1039   20.2592 O   0  0  0  0  0  0
  -21.6597   -6.8880   21.4241 O   0  0  0  0  0  0
  -22.3500  -14.5633   20.6668 O   0  0  0  0  0  0
  -24.6439  -31.8448   23.1863 C   0  0  0  0  0  0
  -25.9212  -32.4711   23.8248 C   0  0  1  0  0  0
  -27.2052  -27.1057   20.1150 C   0  0  0  0  0  0
  -25.5944  -33.8524   24.2175 N   0  0  0  0  0  0
  -23.4477  -30.4592   21.5367 C   0  0  2  0  0  0
  -24.8857  -28.8756   20.1089 C   0  0  0  0  0  0
  -22.7554  -29.4547   22.4888 C   0  0  0  0  0  0
  -18.0302  -28.1393   22.8472 C   0  0  0  0  0  0
  -24.1466  -36.7245   23.2649 C   0  0  0  0  0  0
  -26.0051  -30.6986   21.3921 C   0  0  0  0  0  0
  -26.0699  -29.3107   20.7201 C   0  0  0  0  0  0
  -27.2244  -28.4373   20.7103 C   0  0  0  0  0  0
  -25.9940  -26.7720   19.4794 C   0  0  0  0  0  0
  -24.8592  -27.6142   19.4875 C   0  0  0  0  0  0
  -23.6688  -29.7906   20.1561 C   0  0  0  0  0  0
  -25.4115  -36.3059   24.0324 C   0  0  1  0  0  0
  -20.5920  -28.3723   23.1253 C   0  0  2  0  0  0
  -20.6787  -26.9433   22.5424 C   0  0  0  0  0  0
  -19.5757  -26.6373   21.5222 C   0  0  0  0  0  0
  -18.1936  -26.7917   22.1627 C   0  0  0  0  0  0
  -19.1565  -28.8879   23.2847 C   0  0  0  0  0  0
  -18.9485  -30.1475   23.8880 C   0  0  0  0  0  0
  -17.6487  -30.6597   24.0564 C   0  0  0  0  0  0
  -25.9079  -34.9440   23.5073 C   0  0  0  0  0  0
  -16.5381  -29.9103   23.6346 C   0  0  0  0  0  0
  -16.7292  -28.6517   23.0381 C   0  0  0  0  0  0
  -26.4490  -31.6609   25.0733 C   0  0  0  0  0  0
  -25.3626  -31.3849   26.1403 C   0  0  0  0  0  0
  -27.0377  -30.2995   24.6384 C   0  0  0  0  0  0
  -27.6013  -32.4394   25.7517 C   0  0  0  0  0  0
  -27.5579  -37.1778   24.8469 C   0  0  0  0  0  0
  -21.4252  -29.3039   22.3609 N   0  0  0  0  0  0
  -26.4272  -37.3782   23.9417 N   0  0  0  0  0  0
  -24.7205  -31.0225   22.0934 N   0  0  0  0  0  0
  -23.4186  -28.8143   23.3087 O   0  0  0  0  0  0
  -28.2668  -26.1254   20.1951 O   0  0  0  0  0  0
  -26.5698  -34.8959   22.4672 O   0  0  0  0  0  0
  -23.5555  -32.1394   23.7062 O   0  0  0  0  0  0
  -29.5251  -19.2626   22.5016 C   0  0  0  0  0  0
  -29.2683  -20.4319   21.7436 C   0  0  0  0  0  0
  -29.3256  -19.0169   19.7886 C   0  0  0  0  0  0
  -29.6619  -17.9604   21.9496 C   0  0  0  0  0  0
  -29.1002  -20.4010   20.3494 C   0  0  0  0  0  0
  -29.6279  -17.7430   20.5415 C   0  0  0  0  0  0
  -27.8539  -21.5707   18.6026 C   0  0  0  0  0  0
  -28.8431  -16.7007   23.9000 C   0  0  0  0  0  0
  -29.7493  -16.8628   22.9185 C   0  0  0  0  0  0
  -26.4721  -22.1548   18.8701 C   0  0  0  0  0  0
  -26.6493  -22.8562   20.2286 C   0  0  0  0  0  0
  -28.1603  -23.1279   20.2858 C   0  0  2  0  0  0
  -29.4202  -16.2996   18.5326 C   0  0  0  0  0  0
  -28.3521  -24.6806   19.5791 C   0  0  0  0  0  0
  -28.6609  -21.7343   19.6600 N   0  0  0  0  0  0
  -29.7539  -16.2918   19.9586 N   0  0  0  0  0  0
  -28.1378  -20.9862   17.5480 O   0  0  0  0  0  0
  -31.4654  -12.9088   19.0939 H   0  0  0  0  0  0
  -30.5689  -11.7970   20.0908 H   0  0  0  0  0  0
  -29.8641  -11.5249   17.7469 H   0  0  0  0  0  0
  -29.6484  -13.2227   17.5246 H   0  0  0  0  0  0
  -27.9403  -11.2522   19.0615 H   0  0  0  0  0  0
  -27.4021  -12.3650   17.8310 H   0  0  0  0  0  0
  -27.5605  -14.2271   19.3391 H   0  0  0  0  0  0
  -28.8370  -12.4038   21.4176 H   0  0  0  0  0  0
  -28.3723  -14.0810   21.6881 H   0  0  0  0  0  0
  -25.2713   -9.5724   22.4829 H   0  0  0  0  0  0
  -23.9979   -7.4637   22.7508 H   0  0  0  0  0  0
  -21.0808   -8.8889   19.9032 H   0  0  0  0  0  0
  -22.3677  -10.9767   19.6273 H   0  0  0  0  0  0
  -21.2003   -7.6161   23.9741 H   0  0  0  0  0  0
  -21.1479   -6.0540   25.9112 H   0  0  0  0  0  0
  -22.0594   -2.7630   23.2821 H   0  0  0  0  0  0
  -22.3792  -12.0123   22.4968 H   0  0  0  0  0  0
  -21.0986  -13.1635   22.2467 H   0  0  0  0  0  0
  -24.6434  -15.8431   20.5172 H   0  0  0  0  0  0
  -26.2988  -15.6500   20.2117 H   0  0  0  0  0  0
  -26.7286  -32.5276   23.0972 H   0  0  0  0  0  0
  -24.9930  -33.9602   25.0211 H   0  0  0  0  0  0
  -22.7512  -31.2848   21.3838 H   0  0  0  0  0  0
  -23.3775  -35.9523   23.3291 H   0  0  0  0  0  0
  -24.3539  -36.8912   22.2069 H   0  0  0  0  0  0
  -23.7166  -37.6407   23.6698 H   0  0  0  0  0  0
  -26.1758  -31.4604   20.6302 H   0  0  0  0  0  0
  -26.8687  -30.7308   22.0461 H   0  0  0  0  0  0
  -28.1259  -28.7574   21.2165 H   0  0  0  0  0  0
  -25.8881  -25.8050   19.0164 H   0  0  0  0  0  0
  -23.9449  -27.2578   19.0332 H   0  0  0  0  0  0
  -23.8191  -30.5690   19.4062 H   0  0  0  0  0  0
  -22.7739  -29.2505   19.8419 H   0  0  0  0  0  0
  -25.1291  -36.1881   25.0808 H   0  0  0  0  0  0
  -20.9987  -28.3317   24.1378 H   0  0  0  0  0  0
  -20.5681  -26.2339   23.3650 H   0  0  0  0  0  0
  -21.6665  -26.7437   22.1242 H   0  0  0  0  0  0
  -19.6939  -25.6268   21.1294 H   0  0  0  0  0  0
  -19.6710  -27.3149   20.6719 H   0  0  0  0  0  0
  -17.4218  -26.6685   21.4027 H   0  0  0  0  0  0
  -18.0334  -26.0074   22.9035 H   0  0  0  0  0  0
  -19.7984  -30.7284   24.2250 H   0  0  0  0  0  0
  -17.5069  -31.6285   24.5157 H   0  0  0  0  0  0
  -15.5391  -30.3024   23.7664 H   0  0  0  0  0  0
  -15.8676  -28.0817   22.7136 H   0  0  0  0  0  0
  -24.5744  -30.7280   25.7688 H   0  0  0  0  0  0
  -24.8872  -32.3067   26.4771 H   0  0  0  0  0  0
  -25.7835  -30.9011   27.0226 H   0  0  0  0  0  0
  -26.3036  -29.6708   24.1331 H   0  0  0  0  0  0
  -27.3881  -29.7305   25.5007 H   0  0  0  0  0  0
  -27.8973  -30.4210   23.9795 H   0  0  0  0  0  0
  -27.2582  -33.3706   26.2033 H   0  0  0  0  0  0
  -28.3835  -32.6964   25.0361 H   0  0  0  0  0  0
  -28.0661  -31.8575   26.5484 H   0  0  0  0  0  0
  -28.2598  -38.0080   24.7558 H   0  0  0  0  0  0
  -28.1073  -36.2625   24.6222 H   0  0  0  0  0  0
  -27.2310  -37.1358   25.8874 H   0  0  0  0  0  0
  -20.9462  -29.8679   21.6725 H   0  0  0  0  0  0
  -26.0158  -38.2841   24.1433 H   0  0  0  0  0  0
  -29.5875  -19.3728   23.5773 H   0  0  0  0  0  0
  -29.1439  -21.3632   22.2754 H   0  0  0  0  0  0
  -29.2453  -18.9407   18.7143 H   0  0  0  0  0  0
  -28.9265  -15.9074   24.6278 H   0  0  0  0  0  0
  -27.9920  -17.3656   23.9858 H   0  0  0  0  0  0
  -30.6009  -16.1982   22.8504 H   0  0  0  0  0  0
  -25.7284  -21.3591   18.9212 H   0  0  0  0  0  0
  -26.1790  -22.8400   18.0732 H   0  0  0  0  0  0
  -26.3738  -22.1770   21.0399 H   0  0  0  0  0  0
  -26.0265  -23.7447   20.3263 H   0  0  0  0  0  0
  -28.5112  -23.2113   21.3119 H   0  0  0  0  0  0
  -28.4272  -16.7276   18.3842 H   0  0  0  0  0  0
  -29.4151  -15.3146   18.0718 H   0  0  0  0  0  0
  -30.1413  -16.9007   17.9721 H   0  0  0  0  0  0
  -27.8017  -24.7114   18.6349 H   0  0  0  0  0  0
  -29.3853  -24.6566   19.2380 H   0  0  0  0  0  0
  1 25  1  0  0  0
  1 30  2  0  0  0
  1 86  1  0  0  0
  2  3  1  0  0  0
  2 25  1  0  0  0
  2 88  1  0  0  0
  2 89  1  0  0  0
  3  4  1  0  0  0
  3 90  1  0  0  0
  3 91  1  0  0  0
  4  5  1  0  0  0
  4 92  1  0  0  0
  4 93  1  0  0  0
  5  6  1  0  0  0
  5 26  1  0  0  0
  5 94  1  0  0  0
  6 25  1  0  0  0
  6 95  1  0  0  0
  6 96  1  0  0  0
  7  8  2  0  0  0
  7 26  1  0  0  0
  7 29  1  0  0  0
  8  9  1  0  0  0
  8 22  1  0  0  0
  9 10  1  0  0  0
  9 27  2  0  0  0
 10 11  2  0  0  0
 10 15  1  0  0  0
 11 12  1  0  0  0
 11 97  1  0  0  0
 12 13  2  0  0  0
 12 98  1  0  0  0
 13 14  1  0  0  0
 13 31  1  0  0  0
 14 15  2  0  0  0
 14 99  1  0  0  0
 15100  1  0  0  0
 16 17  2  0  0  0
 16 21  1  0  0  0
 16 31  1  0  0  0
 17 18  1  0  0  0
 17101  1  0  0  0
 18 19  2  0  0  0
 18102  1  0  0  0
 19 20  1  0  0  0
 19 24  1  0  0  0
 20 21  2  0  0  0
 20103  1  0  0  0
 21 23  1  0  0  0
 22 28  1  0  0  0
 22 32  2  0  0  0
 26 27  1  0  0  0
 28104  1  0  0  0
 28105  1  0  0  0
 29106  1  0  0  0
 29107  1  0  0  0
 33 34  1  0  0  0
 33 66  1  0  0  0
 33 70  2  0  0  0
 34 36  1  0  0  0
 34 59  1  0  0  0
 34108  1  0  0  0
 35 44  2  0  0  0
 35 45  1  0  0  0
 35 68  1  0  0  0
 36 56  1  0  0  0
 36109  1  0  0  0
 37 39  1  0  0  0
 37 47  1  0  0  0
 37 66  1  0  0  0
 37110  1  0  0  0
 38 43  2  0  0  0
 38 46  1  0  0  0
 38 47  1  0  0  0
 39 64  1  0  0  0
 39 67  2  0  0  0
 40 52  1  0  0  0
 40 53  2  0  0  0
 40 58  1  0  0  0
 41111  1  0  0  0
 41112  1  0  0  0
 41113  1  0  0  0
 41 48  1  0  0  0
 42 43  1  0  0  0
 42 66  1  0  0  0
 42114  1  0  0  0
 42115  1  0  0  0
 43 44  1  0  0  0
 44116  1  0  0  0
 45 46  2  0  0  0
 45117  1  0  0  0
 46118  1  0  0  0
 47119  1  0  0  0
 47120  1  0  0  0
 48 56  1  0  0  0
 48 65  1  0  0  0
 48121  1  0  0  0
 49 50  1  0  0  0
 49 53  1  0  0  0
 49 64  1  0  0  0
 49122  1  0  0  0
 50 51  1  0  0  0
 50123  1  0  0  0
 50124  1  0  0  0
 51 52  1  0  0  0
 51125  1  0  0  0
 51126  1  0  0  0
 52127  1  0  0  0
 52128  1  0  0  0
 53 54  1  0  0  0
 54 55  2  0  0  0
 54129  1  0  0  0
 55 57  1  0  0  0
 55130  1  0  0  0
 56 69  2  0  0  0
 57 58  2  0  0  0
 57131  1  0  0  0
 58132  1  0  0  0
 59 60  1  0  0  0
 59 61  1  0  0  0
 59 62  1  0  0  0
 60133  1  0  0  0
 60134  1  0  0  0
 60135  1  0  0  0
 61136  1  0  0  0
 61137  1  0  0  0
 61138  1  0  0  0
 62139  1  0  0  0
 62140  1  0  0  0
 62141  1  0  0  0
 63 65  1  0  0  0
 63142  1  0  0  0
 63143  1  0  0  0
 63144  1  0  0  0
 64145  1  0  0  0
 65146  1  0  0  0
 68 84  1  0  0  0
 71 72  2  0  0  0
 71 74  1  0  0  0
 71147  1  0  0  0
 72 75  1  0  0  0
 72148  1  0  0  0
 73 75  2  0  0  0
 73 76  1  0  0  0
 73149  1  0  0  0
 74 76  2  0  0  0
 74 79  1  0  0  0
 75 85  1  0  0  0
 76 86  1  0  0  0
 77 80  1  0  0  0
 77 85  1  0  0  0
 77 87  2  0  0  0
 78 79  2  0  0  0
 78150  1  0  0  0
 78151  1  0  0  0
 79152  1  0  0  0
 80 81  1  0  0  0
 80153  1  0  0  0
 80154  1  0  0  0
 81 82  1  0  0  0
 81155  1  0  0  0
 81156  1  0  0  0
 82 84  1  0  0  0
 82 85  1  0  0  0
 82157  1  0  0  0
 83 86  1  0  0  0
 83158  1  0  0  0
 83159  1  0  0  0
 83160  1  0  0  0
 84161  1  0  0  0
 84162  1  0  0  0
M  ISO  4   1 100  68 101  84 101  86 100
M  END
> <chiral flag>
0

> <version>
0

> <s_m_source_file>
/data/baiqing/PycharmProjects/Reinvent-master-3.2/result/LINK_invent/BTK/process_docking_weight1_custom_product_contain_oxygen_bond_distance_aromatic_linkinvent_7_9_3/rearranged_h_0108.sdf

> <i_m_source_file_index>
92

> <r_mmod_Potential_Energy-OPLS-2005>
1022.21331787109

> <r_mmod_Stretch_Energy-OPLS-2005>
341.088562011719

> <r_mmod_Bend_Energy-OPLS-2005>
357.020721435547

> <r_mmod_Torsional_Energy-OPLS-2005>
404.089385986328

> <r_mmod_Improper_Torsional_Energy-OPLS-2005>
20.5472202301025

> <r_mmod_Van_der_Waal_Energy-OPLS-2005>
127.712982177734

> <r_mmod_Electrostatic_Energy-OPLS-2005>
-297.909423828125

> <r_mmod_Solvation_Energy-OPLS-2005>
-205.142608642578

> <b_mmod_Minimization_Converged-OPLS-2005>
0

> <r_mmod_RMS_Derivative-OPLS-2005>
7.91589546203613

$$$$
93
                    3D
 Structure written by MMmdl.
157165  0  0  1  0            999 V2000
  -30.6457  -14.6735   20.5036 C   0  0  0  0  0  0
  -30.4307  -12.4025   19.4852 C   0  0  0  0  0  0
  -29.5166  -12.4798   18.2419 C   0  0  0  0  0  0
  -28.0286  -12.3630   18.6330 C   0  0  0  0  0  0
  -27.6501  -13.2298   19.8641 C   0  0  2  0  0  0
  -28.6876  -13.0945   20.9977 C   0  0  0  0  0  0
  -25.2534  -13.8205   20.5661 C   0  0  0  0  0  0
  -24.1814  -13.0459   20.9169 C   0  0  0  0  0  0
  -24.6392  -11.6932   20.8740 C   0  0  0  0  0  0
  -23.9072  -10.4301   21.0417 C   0  0  0  0  0  0
  -24.3629   -9.4225   21.9200 C   0  0  0  0  0  0
  -23.6311   -8.2256   22.0760 C   0  0  0  0  0  0
  -22.4291   -8.0286   21.3551 C   0  0  0  0  0  0
  -21.9922   -9.0261   20.4652 C   0  0  0  0  0  0
  -22.7245  -10.2143   20.3072 C   0  0  0  0  0  0
  -21.6861   -6.0746   22.5294 C   0  0  0  0  0  0
  -21.4009   -6.5645   23.8225 C   0  0  0  0  0  0
  -21.3652   -5.6799   24.9183 C   0  0  0  0  0  0
  -21.6050   -4.3063   24.7236 C   0  0  0  0  0  0
  -21.8819   -3.8155   23.4351 C   0  0  0  0  0  0
  -21.9184   -4.6970   22.3408 C   0  0  0  0  0  0
  -22.7841  -13.5224   21.1841 C   0  0  0  0  0  0
  -22.1665   -4.2152   21.0989 F   0  0  0  0  0  0
  -21.5626   -3.4546   25.7747 F   0  0  0  0  0  0
  -30.0048  -13.4507   20.4473 N   0  0  0  0  0  0
  -26.2970  -12.9408   20.3321 N   0  0  0  0  0  0
  -25.9335  -11.6542   20.5787 N   0  0  0  0  0  0
  -22.0502  -12.8204   22.0393 N   0  0  0  0  0  0
  -25.4266  -15.1922   20.4053 N   0  0  0  0  0  0
  -31.7812  -14.8006   20.0338 O   0  0  0  0  0  0
  -21.6657   -6.8888   21.4252 O   0  0  0  0  0  0
  -22.3517  -14.5534   20.6702 O   0  0  0  0  0  0
  -24.6294  -31.8570   23.2041 C   0  0  0  0  0  0
  -25.9122  -32.4766   23.8362 C   0  0  1  0  0  0
  -27.2083  -27.2829   20.1131 C   0  0  0  0  0  0
  -25.5932  -33.8572   24.2287 N   0  0  0  0  0  0
  -23.4237  -30.4848   21.5469 C   0  0  2  0  0  0
  -24.8663  -28.9407   20.1066 C   0  0  0  0  0  0
  -22.7483  -29.4634   22.4938 C   0  0  0  0  0  0
  -18.0288  -28.1402   22.8479 C   0  0  0  0  0  0
  -24.1496  -36.7298   23.2642 C   0  0  0  0  0  0
  -25.9682  -30.7759   21.3799 C   0  0  0  0  0  0
  -26.0376  -29.4021   20.7199 C   0  0  0  0  0  0
  -27.2101  -28.5837   20.7169 C   0  0  0  0  0  0
  -26.0169  -26.8968   19.4531 C   0  0  0  0  0  0
  -24.8600  -27.6952   19.4640 C   0  0  0  0  0  0
  -23.6374  -29.8257   20.1603 C   0  0  0  0  0  0
  -25.4123  -36.3089   24.0335 C   0  0  1  0  0  0
  -20.5884  -28.3717   23.1291 C   0  0  2  0  0  0
  -20.6773  -26.9450   22.5429 C   0  0  0  0  0  0
  -19.5761  -26.6427   21.5209 C   0  0  0  0  0  0
  -18.1927  -26.7957   22.1589 C   0  0  0  0  0  0
  -19.1537  -28.8868   23.2893 C   0  0  0  0  0  0
  -18.9464  -30.1460   23.8902 C   0  0  0  0  0  0
  -17.6473  -30.6586   24.0589 C   0  0  0  0  0  0
  -25.9064  -34.9449   23.5117 C   0  0  0  0  0  0
  -16.5349  -29.9104   23.6347 C   0  0  0  0  0  0
  -16.7273  -28.6534   23.0322 C   0  0  0  0  0  0
  -26.4489  -31.6574   25.0733 C   0  0  0  0  0  0
  -25.3711  -31.3685   26.1445 C   0  0  0  0  0  0
  -27.0335  -30.2998   24.6190 C   0  0  0  0  0  0
  -27.6064  -32.4290   25.7490 C   0  0  0  0  0  0
  -27.5582  -37.1805   24.8460 C   0  0  0  0  0  0
  -21.4201  -29.3059   22.3674 N   0  0  0  0  0  0
  -26.4297  -37.3784   23.9410 N   0  0  0  0  0  0
  -24.6938  -31.0564   22.1005 N   0  0  0  0  0  0
  -23.4196  -28.8161   23.3021 O   0  0  0  0  0  0
  -28.2996  -26.3891   20.1922 O   0  0  0  0  0  0
  -26.5635  -34.8903   22.4689 O   0  0  0  0  0  0
  -23.5450  -32.1391   23.7342 O   0  0  0  0  0  0
  -29.6665  -18.5791   20.7941 C   0  0  0  0  0  0
  -28.8971  -19.5947   18.7393 C   0  0  0  0  0  0
  -29.6720  -17.2382   20.2247 C   0  0  0  0  0  0
  -28.9072  -18.3247   18.1306 C   0  0  0  0  0  0
  -29.3050  -17.1666   18.8451 C   0  0  0  0  0  0
  -29.2977  -19.7842   20.0788 C   0  0  0  0  0  0
  -29.9128  -15.9586   21.0932 C   0  0  0  0  0  0
  -28.4610  -18.2240   16.6755 C   0  0  0  0  0  0
  -28.9864  -23.7677   20.5159 C   0  0  0  0  0  0
  -28.0724  -24.9377   19.9014 C   0  0  0  0  0  0
  -28.8063  -22.2787   19.9261 C   0  0  0  0  0  0
  -29.5637  -15.9717   22.3158 N   0  0  0  0  0  0
  -29.2782  -15.9685   18.1307 N   0  0  0  0  0  0
  -29.3212  -21.0852   20.6575 O   0  0  0  0  0  0
  -31.4762  -12.5021   19.1872 H   0  0  0  0  0  0
  -30.3520  -11.4154   19.9440 H   0  0  0  0  0  0
  -29.7731  -11.6836   17.5427 H   0  0  0  0  0  0
  -29.6900  -13.4099   17.7055 H   0  0  0  0  0  0
  -27.8228  -11.3128   18.8429 H   0  0  0  0  0  0
  -27.3976  -12.6322   17.7845 H   0  0  0  0  0  0
  -27.6652  -14.2659   19.5289 H   0  0  0  0  0  0
  -28.7042  -12.0715   21.3777 H   0  0  0  0  0  0
  -28.4053  -13.7125   21.8491 H   0  0  0  0  0  0
  -25.2773   -9.5689   22.4778 H   0  0  0  0  0  0
  -24.0026   -7.4632   22.7463 H   0  0  0  0  0  0
  -21.0860   -8.8766   19.8956 H   0  0  0  0  0  0
  -22.3707  -10.9680   19.6177 H   0  0  0  0  0  0
  -21.2026   -7.6158   23.9729 H   0  0  0  0  0  0
  -21.1470   -6.0534   25.9085 H   0  0  0  0  0  0
  -22.0605   -2.7616   23.2861 H   0  0  0  0  0  0
  -22.4119  -11.9850   22.4749 H   0  0  0  0  0  0
  -21.1125  -13.1219   22.2649 H   0  0  0  0  0  0
  -24.6636  -15.8516   20.5055 H   0  0  0  0  0  0
  -26.2810  -15.6188   20.0670 H   0  0  0  0  0  0
  -26.7183  -32.5413   23.1093 H   0  0  0  0  0  0
  -25.0020  -33.9712   25.0385 H   0  0  0  0  0  0
  -22.7208  -31.3092   21.4076 H   0  0  0  0  0  0
  -23.3756  -35.9631   23.3305 H   0  0  0  0  0  0
  -24.3578  -36.8924   22.2054 H   0  0  0  0  0  0
  -23.7237  -37.6496   23.6666 H   0  0  0  0  0  0
  -26.1039  -31.5375   20.6113 H   0  0  0  0  0  0
  -26.8492  -30.8240   22.0091 H   0  0  0  0  0  0
  -28.1036  -28.9274   21.2184 H   0  0  0  0  0  0
  -25.9420  -25.9577   18.9252 H   0  0  0  0  0  0
  -23.9644  -27.3452   18.9689 H   0  0  0  0  0  0
  -23.7579  -30.6053   19.4074 H   0  0  0  0  0  0
  -22.7545  -29.2605   19.8567 H   0  0  0  0  0  0
  -25.1295  -36.1954   25.0827 H   0  0  0  0  0  0
  -20.9967  -28.3279   24.1413 H   0  0  0  0  0  0
  -20.5722  -26.2319   23.3619 H   0  0  0  0  0  0
  -21.6639  -26.7525   22.1204 H   0  0  0  0  0  0
  -19.6944  -25.6356   21.1202 H   0  0  0  0  0  0
  -19.6690  -27.3276   20.6772 H   0  0  0  0  0  0
  -17.4213  -26.6758   21.3964 H   0  0  0  0  0  0
  -18.0327  -26.0067   22.8953 H   0  0  0  0  0  0
  -19.7945  -30.7280   24.2251 H   0  0  0  0  0  0
  -17.5039  -31.6249   24.5231 H   0  0  0  0  0  0
  -15.5352  -30.3006   23.7698 H   0  0  0  0  0  0
  -15.8666  -28.0902   22.6976 H   0  0  0  0  0  0
  -24.5951  -30.6957   25.7762 H   0  0  0  0  0  0
  -24.8807  -32.2824   26.4815 H   0  0  0  0  0  0
  -25.8041  -30.8914   27.0249 H   0  0  0  0  0  0
  -26.2914  -29.6740   24.1221 H   0  0  0  0  0  0
  -27.4036  -29.7255   25.4695 H   0  0  0  0  0  0
  -27.8786  -30.4284   23.9423 H   0  0  0  0  0  0
  -27.2722  -33.3626   26.2023 H   0  0  0  0  0  0
  -28.3894  -32.6778   25.0315 H   0  0  0  0  0  0
  -28.0701  -31.8419   26.5426 H   0  0  0  0  0  0
  -28.2596  -38.0104   24.7519 H   0  0  0  0  0  0
  -28.1084  -36.2636   24.6286 H   0  0  0  0  0  0
  -27.2293  -37.1448   25.8857 H   0  0  0  0  0  0
  -20.9376  -29.8748   21.6857 H   0  0  0  0  0  0
  -26.0185  -38.2866   24.1399 H   0  0  0  0  0  0
  -29.9434  -18.6859   21.8328 H   0  0  0  0  0  0
  -28.5729  -20.4298   18.1397 H   0  0  0  0  0  0
  -28.2751  -19.2056   16.2394 H   0  0  0  0  0  0
  -27.5374  -17.6500   16.6033 H   0  0  0  0  0  0
  -29.2194  -17.7353   16.0623 H   0  0  0  0  0  0
  -28.8050  -23.7380   21.5900 H   0  0  0  0  0  0
  -30.0315  -24.0546   20.4018 H   0  0  0  0  0  0
  -27.0663  -24.6720   20.2261 H   0  0  0  0  0  0
  -28.0791  -24.8310   18.8163 H   0  0  0  0  0  0
  -29.2734  -22.2974   18.9409 H   0  0  0  0  0  0
  -27.7417  -22.1095   19.7588 H   0  0  0  0  0  0
  -29.1228  -16.8470   22.5691 H   0  0  0  0  0  0
  -30.0768  -15.3558   18.2545 H   0  0  0  0  0  0
  -29.0652  -16.0597   17.1452 H   0  0  0  0  0  0
  1 25  1  0  0  0
  1 30  2  0  0  0
  1 77  1  0  0  0
  2  3  1  0  0  0
  2 25  1  0  0  0
  2 85  1  0  0  0
  2 86  1  0  0  0
  3  4  1  0  0  0
  3 87  1  0  0  0
  3 88  1  0  0  0
  4  5  1  0  0  0
  4 89  1  0  0  0
  4 90  1  0  0  0
  5  6  1  0  0  0
  5 26  1  0  0  0
  5 91  1  0  0  0
  6 25  1  0  0  0
  6 92  1  0  0  0
  6 93  1  0  0  0
  7  8  2  0  0  0
  7 26  1  0  0  0
  7 29  1  0  0  0
  8  9  1  0  0  0
  8 22  1  0  0  0
  9 10  1  0  0  0
  9 27  2  0  0  0
 10 11  2  0  0  0
 10 15  1  0  0  0
 11 12  1  0  0  0
 11 94  1  0  0  0
 12 13  2  0  0  0
 12 95  1  0  0  0
 13 14  1  0  0  0
 13 31  1  0  0  0
 14 15  2  0  0  0
 14 96  1  0  0  0
 15 97  1  0  0  0
 16 17  2  0  0  0
 16 21  1  0  0  0
 16 31  1  0  0  0
 17 18  1  0  0  0
 17 98  1  0  0  0
 18 19  2  0  0  0
 18 99  1  0  0  0
 19 20  1  0  0  0
 19 24  1  0  0  0
 20 21  2  0  0  0
 20100  1  0  0  0
 21 23  1  0  0  0
 22 28  1  0  0  0
 22 32  2  0  0  0
 26 27  1  0  0  0
 28101  1  0  0  0
 28102  1  0  0  0
 29103  1  0  0  0
 29104  1  0  0  0
 33 34  1  0  0  0
 33 66  1  0  0  0
 33 70  2  0  0  0
 34 36  1  0  0  0
 34 59  1  0  0  0
 34105  1  0  0  0
 35 44  2  0  0  0
 35 45  1  0  0  0
 35 68  1  0  0  0
 36 56  1  0  0  0
 36106  1  0  0  0
 37 39  1  0  0  0
 37 47  1  0  0  0
 37 66  1  0  0  0
 37107  1  0  0  0
 38 43  2  0  0  0
 38 46  1  0  0  0
 38 47  1  0  0  0
 39 64  1  0  0  0
 39 67  2  0  0  0
 40 52  1  0  0  0
 40 53  2  0  0  0
 40 58  1  0  0  0
 41108  1  0  0  0
 41109  1  0  0  0
 41110  1  0  0  0
 41 48  1  0  0  0
 42 43  1  0  0  0
 42 66  1  0  0  0
 42111  1  0  0  0
 42112  1  0  0  0
 43 44  1  0  0  0
 44113  1  0  0  0
 45 46  2  0  0  0
 45114  1  0  0  0
 46115  1  0  0  0
 47116  1  0  0  0
 47117  1  0  0  0
 48 56  1  0  0  0
 48 65  1  0  0  0
 48118  1  0  0  0
 49 50  1  0  0  0
 49 53  1  0  0  0
 49 64  1  0  0  0
 49119  1  0  0  0
 50 51  1  0  0  0
 50120  1  0  0  0
 50121  1  0  0  0
 51 52  1  0  0  0
 51122  1  0  0  0
 51123  1  0  0  0
 52124  1  0  0  0
 52125  1  0  0  0
 53 54  1  0  0  0
 54 55  2  0  0  0
 54126  1  0  0  0
 55 57  1  0  0  0
 55127  1  0  0  0
 56 69  2  0  0  0
 57 58  2  0  0  0
 57128  1  0  0  0
 58129  1  0  0  0
 59 60  1  0  0  0
 59 61  1  0  0  0
 59 62  1  0  0  0
 60130  1  0  0  0
 60131  1  0  0  0
 60132  1  0  0  0
 61133  1  0  0  0
 61134  1  0  0  0
 61135  1  0  0  0
 62136  1  0  0  0
 62137  1  0  0  0
 62138  1  0  0  0
 63 65  1  0  0  0
 63139  1  0  0  0
 63140  1  0  0  0
 63141  1  0  0  0
 64142  1  0  0  0
 65143  1  0  0  0
 68 80  1  0  0  0
 71 73  2  0  0  0
 71 76  1  0  0  0
 71144  1  0  0  0
 72 74  1  0  0  0
 72 76  2  0  0  0
 72145  1  0  0  0
 73 75  1  0  0  0
 73 77  1  0  0  0
 74 75  2  0  0  0
 74 78  1  0  0  0
 75 83  1  0  0  0
 76 84  1  0  0  0
 77 82  2  0  0  0
 78146  1  0  0  0
 78147  1  0  0  0
 78148  1  0  0  0
 79 80  1  0  0  0
 79 81  1  0  0  0
 79149  1  0  0  0
 79150  1  0  0  0
 80151  1  0  0  0
 80152  1  0  0  0
 81 84  1  0  0  0
 81153  1  0  0  0
 81154  1  0  0  0
 82155  1  0  0  0
 83156  1  0  0  0
 83157  1  0  0  0
M  ISO  4   1 100  68 101  77 100  80 101
M  END
> <chiral flag>
0

> <version>
0

> <s_m_source_file>
/data/baiqing/PycharmProjects/Reinvent-master-3.2/result/LINK_invent/BTK/process_docking_weight1_custom_product_contain_oxygen_bond_distance_aromatic_linkinvent_7_9_3/rearranged_h_0108.sdf

> <i_m_source_file_index>
93

> <r_mmod_Potential_Energy-OPLS-2005>
263.856994628906

> <r_mmod_Stretch_Energy-OPLS-2005>
122.632942199707

> <r_mmod_Bend_Energy-OPLS-2005>
162.818313598633

> <r_mmod_Torsional_Energy-OPLS-2005>
220.703765869141

> <r_mmod_Improper_Torsional_Energy-OPLS-2005>
7.93119621276855

> <r_mmod_Van_der_Waal_Energy-OPLS-2005>
161.618530273438

> <r_mmod_Electrostatic_Energy-OPLS-2005>
-273.937896728516

> <r_mmod_Solvation_Energy-OPLS-2005>
-201.670944213867

> <b_mmod_Minimization_Converged-OPLS-2005>
0

> <r_mmod_RMS_Derivative-OPLS-2005>
2.49773454666138

$$$$
94
                    3D
 Structure written by MMmdl.
164173  0  0  1  0            999 V2000
  -30.7796  -14.3810   20.6788 C   0  0  0  0  0  0
  -30.4115  -12.2875   19.4222 C   0  0  0  0  0  0
  -29.4924  -12.5156   18.2062 C   0  0  0  0  0  0
  -28.0136  -12.3731   18.6102 C   0  0  0  0  0  0
  -27.6633  -13.2027   19.8714 C   0  0  2  0  0  0
  -28.6924  -12.9565   20.9932 C   0  0  0  0  0  0
  -25.2596  -13.8159   20.5648 C   0  0  0  0  0  0
  -24.1841  -13.0443   20.9147 C   0  0  0  0  0  0
  -24.6383  -11.6907   20.8704 C   0  0  0  0  0  0
  -23.9050  -10.4297   21.0393 C   0  0  0  0  0  0
  -24.3602   -9.4221   21.9180 C   0  0  0  0  0  0
  -23.6284   -8.2253   22.0758 C   0  0  0  0  0  0
  -22.4270   -8.0282   21.3544 C   0  0  0  0  0  0
  -21.9901   -9.0251   20.4644 C   0  0  0  0  0  0
  -22.7221  -10.2132   20.3047 C   0  0  0  0  0  0
  -21.6851   -6.0732   22.5278 C   0  0  0  0  0  0
  -21.4012   -6.5635   23.8212 C   0  0  0  0  0  0
  -21.3658   -5.6788   24.9175 C   0  0  0  0  0  0
  -21.6045   -4.3052   24.7226 C   0  0  0  0  0  0
  -21.8819   -3.8142   23.4347 C   0  0  0  0  0  0
  -21.9192   -4.6960   22.3402 C   0  0  0  0  0  0
  -22.7870  -13.5250   21.1829 C   0  0  0  0  0  0
  -22.1662   -4.2145   21.0977 F   0  0  0  0  0  0
  -21.5630   -3.4538   25.7739 F   0  0  0  0  0  0
  -30.0420  -13.2510   20.4756 N   0  0  0  0  0  0
  -26.3019  -12.9320   20.3304 N   0  0  0  0  0  0
  -25.9302  -11.6482   20.5714 N   0  0  0  0  0  0
  -22.0509  -12.8240   22.0381 N   0  0  0  0  0  0
  -25.4342  -15.1880   20.4082 N   0  0  0  0  0  0
  -31.8039  -14.6101   20.0247 O   0  0  0  0  0  0
  -21.6637   -6.8877   21.4241 O   0  0  0  0  0  0
  -22.3560  -14.5565   20.6696 O   0  0  0  0  0  0
  -24.6122  -31.8701   23.2124 C   0  0  0  0  0  0
  -25.9029  -32.4830   23.8411 C   0  0  1  0  0  0
  -27.2324  -27.4586   20.0897 C   0  0  0  0  0  0
  -25.5898  -33.8628   24.2345 N   0  0  0  0  0  0
  -23.3977  -30.4948   21.5527 C   0  0  2  0  0  0
  -24.8420  -28.9647   20.1145 C   0  0  0  0  0  0
  -22.7389  -29.4673   22.5007 C   0  0  0  0  0  0
  -18.0268  -28.1377   22.8495 C   0  0  0  0  0  0
  -24.1481  -36.7312   23.2638 C   0  0  0  0  0  0
  -25.9241  -30.8434   21.3609 C   0  0  0  0  0  0
  -26.0008  -29.4800   20.7079 C   0  0  0  0  0  0
  -27.1986  -28.7345   20.6913 C   0  0  0  0  0  0
  -26.0561  -26.9543   19.4862 C   0  0  0  0  0  0
  -24.8635  -27.7001   19.5021 C   0  0  0  0  0  0
  -23.6030  -29.8282   20.1665 C   0  0  0  0  0  0
  -25.4104  -36.3116   24.0341 C   0  0  1  0  0  0
  -20.5853  -28.3659   23.1326 C   0  0  2  0  0  0
  -20.6758  -26.9402   22.5414 C   0  0  0  0  0  0
  -19.5739  -26.6390   21.5209 C   0  0  0  0  0  0
  -18.1914  -26.7928   22.1616 C   0  0  0  0  0  0
  -19.1515  -28.8835   23.2908 C   0  0  0  0  0  0
  -18.9446  -30.1443   23.8915 C   0  0  0  0  0  0
  -17.6451  -30.6586   24.0567 C   0  0  0  0  0  0
  -25.9034  -34.9479   23.5140 C   0  0  0  0  0  0
  -16.5342  -29.9089   23.6327 C   0  0  0  0  0  0
  -16.7258  -28.6505   23.0347 C   0  0  0  0  0  0
  -26.4471  -31.6597   25.0725 C   0  0  0  0  0  0
  -25.3745  -31.3660   26.1467 C   0  0  0  0  0  0
  -27.0321  -30.3058   24.6072 C   0  0  0  0  0  0
  -27.6040  -32.4316   25.7497 C   0  0  0  0  0  0
  -27.5581  -37.1812   24.8466 C   0  0  0  0  0  0
  -21.4121  -29.3035   22.3740 N   0  0  0  0  0  0
  -26.4291  -37.3801   23.9414 N   0  0  0  0  0  0
  -24.6629  -31.0827   22.1010 N   0  0  0  0  0  0
  -23.4174  -28.8213   23.3038 O   0  0  0  0  0  0
  -28.4131  -26.7526   20.1063 O   0  0  0  0  0  0
  -26.5590  -34.8926   22.4697 O   0  0  0  0  0  0
  -23.5322  -32.1444   23.7535 O   0  0  0  0  0  0
  -29.7879  -20.3640   21.9178 C   0  0  0  0  0  0
  -32.1142  -21.1289   22.0690 C   0  0  0  0  0  0
  -30.2677  -19.0473   21.7828 C   0  0  0  0  0  0
  -31.6333  -18.7774   21.7662 C   0  0  0  0  0  0
  -32.5829  -19.8040   21.9210 C   0  0  0  0  0  0
  -30.7282  -21.4168   22.0526 C   0  0  0  0  0  0
  -29.4297  -24.6895   20.9028 C   0  0  0  0  0  0
  -29.4494  -17.7872   21.6260 C   0  0  0  0  0  0
  -31.9066  -17.3118   21.5506 C   0  0  0  0  0  0
  -30.5109  -16.7543   21.1625 C   0  0  1  0  0  0
  -34.0686  -19.5004   21.9228 C   0  0  0  0  0  0
  -30.0669  -15.0733   22.9357 C   0  0  0  0  0  0
  -29.2714  -23.2072   21.2680 C   0  0  0  0  0  0
  -28.3024  -25.3261   20.0841 C   0  0  0  0  0  0
  -30.3263  -22.7511   22.1730 N   0  0  0  0  0  0
  -30.2728  -15.3349   21.5028 N   0  0  0  0  0  0
  -30.4295  -25.3285   21.2587 O   0  0  0  0  0  0
  -31.4582  -12.3655   19.1230 H   0  0  0  0  0  0
  -30.2963  -11.2698   19.7987 H   0  0  0  0  0  0
  -29.7324  -11.8039   17.4153 H   0  0  0  0  0  0
  -29.6684  -13.5087   17.7898 H   0  0  0  0  0  0
  -27.8201  -11.3161   18.7966 H   0  0  0  0  0  0
  -27.3658  -12.6578   17.7801 H   0  0  0  0  0  0
  -27.7205  -14.2552   19.5921 H   0  0  0  0  0  0
  -28.6536  -11.9176   21.3236 H   0  0  0  0  0  0
  -28.4061  -13.5389   21.8625 H   0  0  0  0  0  0
  -25.2746   -9.5704   22.4753 H   0  0  0  0  0  0
  -23.9994   -7.4653   22.7484 H   0  0  0  0  0  0
  -21.0833   -8.8761   19.8952 H   0  0  0  0  0  0
  -22.3678  -10.9665   19.6151 H   0  0  0  0  0  0
  -21.2003   -7.6142   23.9714 H   0  0  0  0  0  0
  -21.1479   -6.0518   25.9076 H   0  0  0  0  0  0
  -22.0598   -2.7606   23.2850 H   0  0  0  0  0  0
  -22.4114  -11.9886   22.4748 H   0  0  0  0  0  0
  -21.1135  -13.1281   22.2598 H   0  0  0  0  0  0
  -24.6739  -15.8491   20.5248 H   0  0  0  0  0  0
  -26.2976  -15.6253   20.1112 H   0  0  0  0  0  0
  -26.7106  -32.5557   23.1183 H   0  0  0  0  0  0
  -25.0067  -33.9799   25.0501 H   0  0  0  0  0  0
  -22.6853  -31.3111   21.4155 H   0  0  0  0  0  0
  -23.3751  -35.9637   23.3298 H   0  0  0  0  0  0
  -24.3577  -36.8932   22.2053 H   0  0  0  0  0  0
  -23.7221  -37.6510   23.6656 H   0  0  0  0  0  0
  -26.0326  -31.6105   20.5931 H   0  0  0  0  0  0
  -26.8131  -30.8964   21.9774 H   0  0  0  0  0  0
  -28.0945  -29.1295   21.1500 H   0  0  0  0  0  0
  -26.0459  -25.9936   18.9918 H   0  0  0  0  0  0
  -23.9728  -27.2998   19.0374 H   0  0  0  0  0  0
  -23.7078  -30.6036   19.4067 H   0  0  0  0  0  0
  -22.7272  -29.2464   19.8726 H   0  0  0  0  0  0
  -25.1273  -36.1988   25.0833 H   0  0  0  0  0  0
  -20.9941  -28.3222   24.1448 H   0  0  0  0  0  0
  -20.5671  -26.2262   23.3593 H   0  0  0  0  0  0
  -21.6630  -26.7452   22.1206 H   0  0  0  0  0  0
  -19.6901  -25.6307   21.1227 H   0  0  0  0  0  0
  -19.6682  -27.3212   20.6749 H   0  0  0  0  0  0
  -17.4186  -26.6690   21.4013 H   0  0  0  0  0  0
  -18.0307  -26.0061   22.8998 H   0  0  0  0  0  0
  -19.7922  -30.7255   24.2294 H   0  0  0  0  0  0
  -17.5006  -31.6268   24.5167 H   0  0  0  0  0  0
  -15.5345  -30.2998   23.7645 H   0  0  0  0  0  0
  -15.8656  -28.0837   22.7050 H   0  0  0  0  0  0
  -24.5939  -30.6991   25.7787 H   0  0  0  0  0  0
  -24.8908  -32.2794   26.4938 H   0  0  0  0  0  0
  -25.8112  -30.8815   27.0207 H   0  0  0  0  0  0
  -26.2865  -29.6804   24.1148 H   0  0  0  0  0  0
  -27.4148  -29.7301   25.4508 H   0  0  0  0  0  0
  -27.8665  -30.4408   23.9183 H   0  0  0  0  0  0
  -27.2657  -33.3606   26.2096 H   0  0  0  0  0  0
  -28.3841  -32.6891   25.0321 H   0  0  0  0  0  0
  -28.0715  -31.8426   26.5396 H   0  0  0  0  0  0
  -28.2587  -38.0121   24.7540 H   0  0  0  0  0  0
  -28.1092  -36.2654   24.6266 H   0  0  0  0  0  0
  -27.2301  -37.1430   25.8869 H   0  0  0  0  0  0
  -20.9274  -29.8763   21.6972 H   0  0  0  0  0  0
  -26.0181  -38.2877   24.1426 H   0  0  0  0  0  0
  -28.7237  -20.5545   21.9190 H   0  0  0  0  0  0
  -32.8297  -21.9319   22.1804 H   0  0  0  0  0  0
  -28.6448  -17.9100   20.8996 H   0  0  0  0  0  0
  -29.0071  -17.5385   22.5907 H   0  0  0  0  0  0
  -32.2945  -16.8815   22.4736 H   0  0  0  0  0  0
  -32.6446  -17.1543   20.7629 H   0  0  0  0  0  0
  -30.4723  -16.8375   20.0728 H   0  0  0  0  0  0
  -34.6553  -20.3808   22.1864 H   0  0  0  0  0  0
  -34.3897  -19.1620   20.9374 H   0  0  0  0  0  0
  -34.2984  -18.7175   22.6463 H   0  0  0  0  0  0
  -30.6600  -15.7415   23.5595 H   0  0  0  0  0  0
  -30.3413  -14.0546   23.2159 H   0  0  0  0  0  0
  -29.0217  -15.2253   23.2051 H   0  0  0  0  0  0
  -29.2776  -22.6271   20.3436 H   0  0  0  0  0  0
  -28.2969  -23.0615   21.7358 H   0  0  0  0  0  0
  -27.3598  -24.9921   20.5195 H   0  0  0  0  0  0
  -28.3466  -24.9649   19.0563 H   0  0  0  0  0  0
  -31.0769  -23.4379   22.2325 H   0  0  0  0  0  0
  1 25  1  0  0  0
  1 30  2  0  0  0
  1 86  1  0  0  0
  2  3  1  0  0  0
  2 25  1  0  0  0
  2 88  1  0  0  0
  2 89  1  0  0  0
  3  4  1  0  0  0
  3 90  1  0  0  0
  3 91  1  0  0  0
  4  5  1  0  0  0
  4 92  1  0  0  0
  4 93  1  0  0  0
  5  6  1  0  0  0
  5 26  1  0  0  0
  5 94  1  0  0  0
  6 25  1  0  0  0
  6 95  1  0  0  0
  6 96  1  0  0  0
  7  8  2  0  0  0
  7 26  1  0  0  0
  7 29  1  0  0  0
  8  9  1  0  0  0
  8 22  1  0  0  0
  9 10  1  0  0  0
  9 27  2  0  0  0
 10 11  2  0  0  0
 10 15  1  0  0  0
 11 12  1  0  0  0
 11 97  1  0  0  0
 12 13  2  0  0  0
 12 98  1  0  0  0
 13 14  1  0  0  0
 13 31  1  0  0  0
 14 15  2  0  0  0
 14 99  1  0  0  0
 15100  1  0  0  0
 16 17  2  0  0  0
 16 21  1  0  0  0
 16 31  1  0  0  0
 17 18  1  0  0  0
 17101  1  0  0  0
 18 19  2  0  0  0
 18102  1  0  0  0
 19 20  1  0  0  0
 19 24  1  0  0  0
 20 21  2  0  0  0
 20103  1  0  0  0
 21 23  1  0  0  0
 22 28  1  0  0  0
 22 32  2  0  0  0
 26 27  1  0  0  0
 28104  1  0  0  0
 28105  1  0  0  0
 29106  1  0  0  0
 29107  1  0  0  0
 33 34  1  0  0  0
 33 66  1  0  0  0
 33 70  2  0  0  0
 34 36  1  0  0  0
 34 59  1  0  0  0
 34108  1  0  0  0
 35 44  2  0  0  0
 35 45  1  0  0  0
 35 68  1  0  0  0
 36 56  1  0  0  0
 36109  1  0  0  0
 37 39  1  0  0  0
 37 47  1  0  0  0
 37 66  1  0  0  0
 37110  1  0  0  0
 38 43  2  0  0  0
 38 46  1  0  0  0
 38 47  1  0  0  0
 39 64  1  0  0  0
 39 67  2  0  0  0
 40 52  1  0  0  0
 40 53  2  0  0  0
 40 58  1  0  0  0
 41111  1  0  0  0
 41112  1  0  0  0
 41113  1  0  0  0
 41 48  1  0  0  0
 42 43  1  0  0  0
 42 66  1  0  0  0
 42114  1  0  0  0
 42115  1  0  0  0
 43 44  1  0  0  0
 44116  1  0  0  0
 45 46  2  0  0  0
 45117  1  0  0  0
 46118  1  0  0  0
 47119  1  0  0  0
 47120  1  0  0  0
 48 56  1  0  0  0
 48 65  1  0  0  0
 48121  1  0  0  0
 49 50  1  0  0  0
 49 53  1  0  0  0
 49 64  1  0  0  0
 49122  1  0  0  0
 50 51  1  0  0  0
 50123  1  0  0  0
 50124  1  0  0  0
 51 52  1  0  0  0
 51125  1  0  0  0
 51126  1  0  0  0
 52127  1  0  0  0
 52128  1  0  0  0
 53 54  1  0  0  0
 54 55  2  0  0  0
 54129  1  0  0  0
 55 57  1  0  0  0
 55130  1  0  0  0
 56 69  2  0  0  0
 57 58  2  0  0  0
 57131  1  0  0  0
 58132  1  0  0  0
 59 60  1  0  0  0
 59 61  1  0  0  0
 59 62  1  0  0  0
 60133  1  0  0  0
 60134  1  0  0  0
 60135  1  0  0  0
 61136  1  0  0  0
 61137  1  0  0  0
 61138  1  0  0  0
 62139  1  0  0  0
 62140  1  0  0  0
 62141  1  0  0  0
 63 65  1  0  0  0
 63142  1  0  0  0
 63143  1  0  0  0
 63144  1  0  0  0
 64145  1  0  0  0
 65146  1  0  0  0
 68 84  1  0  0  0
 71 73  2  0  0  0
 71 76  1  0  0  0
 71147  1  0  0  0
 72 75  1  0  0  0
 72 76  2  0  0  0
 72148  1  0  0  0
 73 74  1  0  0  0
 73 78  1  0  0  0
 74 75  2  0  0  0
 74 79  1  0  0  0
 75 81  1  0  0  0
 76 85  1  0  0  0
 77 83  1  0  0  0
 77 84  1  0  0  0
 77 87  2  0  0  0
 78 80  1  0  0  0
 78149  1  0  0  0
 78150  1  0  0  0
 79 80  1  0  0  0
 79151  1  0  0  0
 79152  1  0  0  0
 80 86  1  0  0  0
 80153  1  0  0  0
 81154  1  0  0  0
 81155  1  0  0  0
 81156  1  0  0  0
 82 86  1  0  0  0
 82157  1  0  0  0
 82158  1  0  0  0
 82159  1  0  0  0
 83 85  1  0  0  0
 83160  1  0  0  0
 83161  1  0  0  0
 84162  1  0  0  0
 84163  1  0  0  0
 85164  1  0  0  0
M  ISO  4   1 100  68 101  84 101  86 100
M  END
> <chiral flag>
0

> <version>
0

> <s_m_source_file>
/data/baiqing/PycharmProjects/Reinvent-master-3.2/result/LINK_invent/BTK/process_docking_weight1_custom_product_contain_oxygen_bond_distance_aromatic_linkinvent_7_9_3/rearranged_h_0108.sdf

> <i_m_source_file_index>
94

> <r_mmod_Potential_Energy-OPLS-2005>
150.269683837891

> <r_mmod_Stretch_Energy-OPLS-2005>
37.4983367919922

> <r_mmod_Bend_Energy-OPLS-2005>
146.151473999023

> <r_mmod_Torsional_Energy-OPLS-2005>
287.577362060547

> <r_mmod_Improper_Torsional_Energy-OPLS-2005>
9.591139793396

> <r_mmod_Van_der_Waal_Energy-OPLS-2005>
162.802429199219

> <r_mmod_Electrostatic_Energy-OPLS-2005>
-276.235321044922

> <r_mmod_Solvation_Energy-OPLS-2005>
-225.62370300293

> <b_mmod_Minimization_Converged-OPLS-2005>
0

> <r_mmod_RMS_Derivative-OPLS-2005>
0.575778365135193

$$$$
95
                    3D
 Structure written by MMmdl.
159167  0  0  1  0            999 V2000
  -30.7150  -14.4936   20.5821 C   0  0  0  0  0  0
  -30.4149  -12.3246   19.4316 C   0  0  0  0  0  0
  -29.4911  -12.5018   18.2107 C   0  0  0  0  0  0
  -28.0139  -12.3579   18.6278 C   0  0  0  0  0  0
  -27.6558  -13.2134   19.8722 C   0  0  2  0  0  0
  -28.6982  -13.0278   20.9975 C   0  0  0  0  0  0
  -25.2554  -13.8171   20.5707 C   0  0  0  0  0  0
  -24.1818  -13.0430   20.9194 C   0  0  0  0  0  0
  -24.6386  -11.6900   20.8743 C   0  0  0  0  0  0
  -23.9061  -10.4282   21.0418 C   0  0  0  0  0  0
  -24.3608   -9.4194   21.9203 C   0  0  0  0  0  0
  -23.6280   -8.2230   22.0772 C   0  0  0  0  0  0
  -22.4259   -8.0280   21.3559 C   0  0  0  0  0  0
  -21.9887   -9.0257   20.4663 C   0  0  0  0  0  0
  -22.7224  -10.2133   20.3076 C   0  0  0  0  0  0
  -21.6842   -6.0733   22.5288 C   0  0  0  0  0  0
  -21.4011   -6.5642   23.8224 C   0  0  0  0  0  0
  -21.3656   -5.6798   24.9190 C   0  0  0  0  0  0
  -21.6037   -4.3060   24.7234 C   0  0  0  0  0  0
  -21.8812   -3.8147   23.4357 C   0  0  0  0  0  0
  -21.9185   -4.6960   22.3410 C   0  0  0  0  0  0
  -22.7844  -13.5230   21.1854 C   0  0  0  0  0  0
  -22.1654   -4.2146   21.0988 F   0  0  0  0  0  0
  -21.5624   -3.4544   25.7748 F   0  0  0  0  0  0
  -30.0241  -13.3293   20.4354 N   0  0  0  0  0  0
  -26.2989  -12.9357   20.3368 N   0  0  0  0  0  0
  -25.9317  -11.6510   20.5778 N   0  0  0  0  0  0
  -22.0468  -12.8247   22.0413 N   0  0  0  0  0  0
  -25.4270  -15.1895   20.4149 N   0  0  0  0  0  0
  -31.8435  -14.6498   20.1070 O   0  0  0  0  0  0
  -21.6626   -6.8876   21.4253 O   0  0  0  0  0  0
  -22.3534  -14.5540   20.6710 O   0  0  0  0  0  0
  -24.6166  -31.8650   23.2091 C   0  0  0  0  0  0
  -25.9048  -32.4819   23.8387 C   0  0  1  0  0  0
  -27.2320  -27.4135   20.1187 C   0  0  0  0  0  0
  -25.5872  -33.8618   24.2300 N   0  0  0  0  0  0
  -23.4059  -30.4879   21.5468 C   0  0  2  0  0  0
  -24.8567  -28.9494   20.1153 C   0  0  0  0  0  0
  -22.7426  -29.4639   22.4965 C   0  0  0  0  0  0
  -18.0263  -28.1393   22.8492 C   0  0  0  0  0  0
  -24.1482  -36.7347   23.2638 C   0  0  0  0  0  0
  -25.9348  -30.8275   21.3638 C   0  0  0  0  0  0
  -26.0150  -29.4571   20.7186 C   0  0  0  0  0  0
  -27.2087  -28.6956   20.7200 C   0  0  0  0  0  0
  -26.0646  -26.9283   19.4988 C   0  0  0  0  0  0
  -24.8767  -27.6839   19.5019 C   0  0  0  0  0  0
  -23.6184  -29.8178   20.1619 C   0  0  0  0  0  0
  -25.4104  -36.3125   24.0325 C   0  0  1  0  0  0
  -20.5857  -28.3675   23.1304 C   0  0  2  0  0  0
  -20.6741  -26.9401   22.5413 C   0  0  0  0  0  0
  -19.5718  -26.6388   21.5209 C   0  0  0  0  0  0
  -18.1902  -26.7930   22.1631 C   0  0  0  0  0  0
  -19.1511  -28.8846   23.2890 C   0  0  0  0  0  0
  -18.9452  -30.1457   23.8905 C   0  0  0  0  0  0
  -17.6453  -30.6588   24.0577 C   0  0  0  0  0  0
  -25.9026  -34.9481   23.5122 C   0  0  0  0  0  0
  -16.5344  -29.9100   23.6337 C   0  0  0  0  0  0
  -16.7251  -28.6519   23.0345 C   0  0  0  0  0  0
  -26.4492  -31.6601   25.0719 C   0  0  0  0  0  0
  -25.3774  -31.3694   26.1484 C   0  0  0  0  0  0
  -27.0320  -30.3041   24.6104 C   0  0  0  0  0  0
  -27.6073  -32.4333   25.7460 C   0  0  0  0  0  0
  -27.5571  -37.1826   24.8452 C   0  0  0  0  0  0
  -21.4144  -29.3043   22.3720 N   0  0  0  0  0  0
  -26.4293  -37.3806   23.9387 N   0  0  0  0  0  0
  -24.6701  -31.0744   22.0987 N   0  0  0  0  0  0
  -23.4184  -28.8179   23.3007 O   0  0  0  0  0  0
  -28.3678  -26.6318   20.0975 O   0  0  0  0  0  0
  -26.5615  -34.8936   22.4700 O   0  0  0  0  0  0
  -23.5357  -32.1400   23.7489 O   0  0  0  0  0  0
  -30.5268  -19.0469   20.4108 C   0  0  0  0  0  0
  -28.7761  -18.4447   21.9674 C   0  0  0  0  0  0
  -29.9655  -18.0988   21.2956 C   0  0  0  0  0  0
  -29.9448  -20.3267   20.2144 C   0  0  0  0  0  0
  -28.1916  -19.7222   21.7882 C   0  0  0  0  0  0
  -28.7722  -20.7002   20.9372 C   0  0  0  0  0  0
  -30.5965  -21.2342   19.1854 C   0  0  0  0  0  0
  -30.7081  -16.7848   21.6037 C   0  0  0  0  0  0
  -27.8852  -24.3550   21.1622 C   0  0  0  0  0  0
  -28.5450  -25.7689   21.2389 C   0  0  0  0  0  0
  -28.8025  -23.1721   20.7407 C   0  0  0  0  0  0
  -27.0228  -20.0356   22.4795 N   0  0  0  0  0  0
  -30.0755  -15.5127   21.1988 N   0  0  0  0  0  0
  -28.0979  -21.9194   20.8405 O   0  0  0  0  0  0
  -31.4609  -12.4092   19.1324 H   0  0  0  0  0  0
  -30.3088  -11.3220   19.8476 H   0  0  0  0  0  0
  -29.7325  -11.7646   17.4443 H   0  0  0  0  0  0
  -29.6568  -13.4815   17.7603 H   0  0  0  0  0  0
  -27.8350  -11.3037   18.8446 H   0  0  0  0  0  0
  -27.3571  -12.6123   17.7948 H   0  0  0  0  0  0
  -27.6915  -14.2564   19.5562 H   0  0  0  0  0  0
  -28.6794  -12.0033   21.3726 H   0  0  0  0  0  0
  -28.4567  -13.6562   21.8561 H   0  0  0  0  0  0
  -25.2751   -9.5663   22.4790 H   0  0  0  0  0  0
  -23.9978   -7.4616   22.7490 H   0  0  0  0  0  0
  -21.0813   -8.8787   19.8975 H   0  0  0  0  0  0
  -22.3686  -10.9687   19.6196 H   0  0  0  0  0  0
  -21.2019   -7.6154   23.9727 H   0  0  0  0  0  0
  -21.1482   -6.0535   25.9093 H   0  0  0  0  0  0
  -22.0591   -2.7606   23.2866 H   0  0  0  0  0  0
  -22.4041  -11.9898   22.4822 H   0  0  0  0  0  0
  -21.1113  -13.1354   22.2643 H   0  0  0  0  0  0
  -24.6628  -15.8445   20.5404 H   0  0  0  0  0  0
  -26.2818  -15.6328   20.1035 H   0  0  0  0  0  0
  -26.7123  -32.5539   23.1152 H   0  0  0  0  0  0
  -24.9962  -33.9766   25.0406 H   0  0  0  0  0  0
  -22.6954  -31.3043   21.4037 H   0  0  0  0  0  0
  -23.3721  -35.9705   23.3325 H   0  0  0  0  0  0
  -24.3556  -36.8959   22.2046 H   0  0  0  0  0  0
  -23.7274  -37.6570   23.6658 H   0  0  0  0  0  0
  -26.0421  -31.5888   20.5902 H   0  0  0  0  0  0
  -26.8243  -30.8902   21.9794 H   0  0  0  0  0  0
  -28.1036  -29.0832   21.1879 H   0  0  0  0  0  0
  -26.0751  -25.9599   19.0190 H   0  0  0  0  0  0
  -23.9868  -27.2869   19.0316 H   0  0  0  0  0  0
  -23.7281  -30.5900   19.3992 H   0  0  0  0  0  0
  -22.7431  -29.2368   19.8661 H   0  0  0  0  0  0
  -25.1287  -36.1997   25.0821 H   0  0  0  0  0  0
  -20.9944  -28.3246   24.1423 H   0  0  0  0  0  0
  -20.5619  -26.2297   23.3616 H   0  0  0  0  0  0
  -21.6617  -26.7416   22.1219 H   0  0  0  0  0  0
  -19.6876  -25.6302   21.1229 H   0  0  0  0  0  0
  -19.6655  -27.3207   20.6741 H   0  0  0  0  0  0
  -17.4164  -26.6676   21.4038 H   0  0  0  0  0  0
  -18.0305  -26.0072   22.9028 H   0  0  0  0  0  0
  -19.7930  -30.7266   24.2275 H   0  0  0  0  0  0
  -17.5012  -31.6267   24.5190 H   0  0  0  0  0  0
  -15.5348  -30.3008   23.7656 H   0  0  0  0  0  0
  -15.8650  -28.0855   22.7043 H   0  0  0  0  0  0
  -24.5947  -30.7038   25.7824 H   0  0  0  0  0  0
  -24.8975  -32.2848   26.4953 H   0  0  0  0  0  0
  -25.8135  -30.8852   27.0237 H   0  0  0  0  0  0
  -26.2857  -29.6820   24.1152 H   0  0  0  0  0  0
  -27.4068  -29.7274   25.4569 H   0  0  0  0  0  0
  -27.8711  -30.4342   23.9265 H   0  0  0  0  0  0
  -27.2688  -33.3627   26.2053 H   0  0  0  0  0  0
  -28.3855  -32.6917   25.0263 H   0  0  0  0  0  0
  -28.0774  -31.8459   26.5353 H   0  0  0  0  0  0
  -28.2607  -38.0105   24.7483 H   0  0  0  0  0  0
  -28.1050  -36.2637   24.6302 H   0  0  0  0  0  0
  -27.2279  -37.1509   25.8854 H   0  0  0  0  0  0
  -20.9317  -29.8811   21.6975 H   0  0  0  0  0  0
  -26.0188  -38.2892   24.1383 H   0  0  0  0  0  0
  -31.4347  -18.7940   19.8792 H   0  0  0  0  0  0
  -28.3328  -17.7348   22.6522 H   0  0  0  0  0  0
  -31.3397  -20.6983   18.5941 H   0  0  0  0  0  0
  -31.1064  -22.0706   19.6640 H   0  0  0  0  0  0
  -29.8499  -21.6142   18.4872 H   0  0  0  0  0  0
  -30.8509  -16.7363   22.6844 H   0  0  0  0  0  0
  -31.7167  -16.8646   21.1944 H   0  0  0  0  0  0
  -27.0002  -24.3864   20.5282 H   0  0  0  0  0  0
  -27.5129  -24.1184   22.1592 H   0  0  0  0  0  0
  -29.6154  -25.6579   21.4159 H   0  0  0  0  0  0
  -28.1690  -26.2822   22.1257 H   0  0  0  0  0  0
  -29.6928  -23.1497   21.3715 H   0  0  0  0  0  0
  -29.1165  -23.3500   19.7146 H   0  0  0  0  0  0
  -26.7647  -21.0170   22.5103 H   0  0  0  0  0  0
  -26.8035  -19.5295   23.3313 H   0  0  0  0  0  0
  -29.1307  -15.3443   21.5067 H   0  0  0  0  0  0
  1 25  1  0  0  0
  1 30  2  0  0  0
  1 83  1  0  0  0
  2  3  1  0  0  0
  2 25  1  0  0  0
  2 85  1  0  0  0
  2 86  1  0  0  0
  3  4  1  0  0  0
  3 87  1  0  0  0
  3 88  1  0  0  0
  4  5  1  0  0  0
  4 89  1  0  0  0
  4 90  1  0  0  0
  5  6  1  0  0  0
  5 26  1  0  0  0
  5 91  1  0  0  0
  6 25  1  0  0  0
  6 92  1  0  0  0
  6 93  1  0  0  0
  7  8  2  0  0  0
  7 26  1  0  0  0
  7 29  1  0  0  0
  8  9  1  0  0  0
  8 22  1  0  0  0
  9 10  1  0  0  0
  9 27  2  0  0  0
 10 11  2  0  0  0
 10 15  1  0  0  0
 11 12  1  0  0  0
 11 94  1  0  0  0
 12 13  2  0  0  0
 12 95  1  0  0  0
 13 14  1  0  0  0
 13 31  1  0  0  0
 14 15  2  0  0  0
 14 96  1  0  0  0
 15 97  1  0  0  0
 16 17  2  0  0  0
 16 21  1  0  0  0
 16 31  1  0  0  0
 17 18  1  0  0  0
 17 98  1  0  0  0
 18 19  2  0  0  0
 18 99  1  0  0  0
 19 20  1  0  0  0
 19 24  1  0  0  0
 20 21  2  0  0  0
 20100  1  0  0  0
 21 23  1  0  0  0
 22 28  1  0  0  0
 22 32  2  0  0  0
 26 27  1  0  0  0
 28101  1  0  0  0
 28102  1  0  0  0
 29103  1  0  0  0
 29104  1  0  0  0
 33 34  1  0  0  0
 33 66  1  0  0  0
 33 70  2  0  0  0
 34 36  1  0  0  0
 34 59  1  0  0  0
 34105  1  0  0  0
 35 44  2  0  0  0
 35 45  1  0  0  0
 35 68  1  0  0  0
 36 56  1  0  0  0
 36106  1  0  0  0
 37 39  1  0  0  0
 37 47  1  0  0  0
 37 66  1  0  0  0
 37107  1  0  0  0
 38 43  2  0  0  0
 38 46  1  0  0  0
 38 47  1  0  0  0
 39 64  1  0  0  0
 39 67  2  0  0  0
 40 52  1  0  0  0
 40 53  2  0  0  0
 40 58  1  0  0  0
 41108  1  0  0  0
 41109  1  0  0  0
 41110  1  0  0  0
 41 48  1  0  0  0
 42 43  1  0  0  0
 42 66  1  0  0  0
 42111  1  0  0  0
 42112  1  0  0  0
 43 44  1  0  0  0
 44113  1  0  0  0
 45 46  2  0  0  0
 45114  1  0  0  0
 46115  1  0  0  0
 47116  1  0  0  0
 47117  1  0  0  0
 48 56  1  0  0  0
 48 65  1  0  0  0
 48118  1  0  0  0
 49 50  1  0  0  0
 49 53  1  0  0  0
 49 64  1  0  0  0
 49119  1  0  0  0
 50 51  1  0  0  0
 50120  1  0  0  0
 50121  1  0  0  0
 51 52  1  0  0  0
 51122  1  0  0  0
 51123  1  0  0  0
 52124  1  0  0  0
 52125  1  0  0  0
 53 54  1  0  0  0
 54 55  2  0  0  0
 54126  1  0  0  0
 55 57  1  0  0  0
 55127  1  0  0  0
 56 69  2  0  0  0
 57 58  2  0  0  0
 57128  1  0  0  0
 58129  1  0  0  0
 59 60  1  0  0  0
 59 61  1  0  0  0
 59 62  1  0  0  0
 60130  1  0  0  0
 60131  1  0  0  0
 60132  1  0  0  0
 61133  1  0  0  0
 61134  1  0  0  0
 61135  1  0  0  0
 62136  1  0  0  0
 62137  1  0  0  0
 62138  1  0  0  0
 63 65  1  0  0  0
 63139  1  0  0  0
 63140  1  0  0  0
 63141  1  0  0  0
 64142  1  0  0  0
 65143  1  0  0  0
 68 80  1  0  0  0
 71 73  2  0  0  0
 71 74  1  0  0  0
 71144  1  0  0  0
 72 73  1  0  0  0
 72 75  2  0  0  0
 72145  1  0  0  0
 73 78  1  0  0  0
 74 76  2  0  0  0
 74 77  1  0  0  0
 75 76  1  0  0  0
 75 82  1  0  0  0
 76 84  1  0  0  0
 77146  1  0  0  0
 77147  1  0  0  0
 77148  1  0  0  0
 78 83  1  0  0  0
 78149  1  0  0  0
 78150  1  0  0  0
 79 80  1  0  0  0
 79 81  1  0  0  0
 79151  1  0  0  0
 79152  1  0  0  0
 80153  1  0  0  0
 80154  1  0  0  0
 81 84  1  0  0  0
 81155  1  0  0  0
 81156  1  0  0  0
 82157  1  0  0  0
 82158  1  0  0  0
 83159  1  0  0  0
M  ISO  4   1 100  68 101  80 101  83 100
M  END
> <chiral flag>
0

> <version>
0

> <s_m_source_file>
/data/baiqing/PycharmProjects/Reinvent-master-3.2/result/LINK_invent/BTK/process_docking_weight1_custom_product_contain_oxygen_bond_distance_aromatic_linkinvent_7_9_3/rearranged_h_0108.sdf

> <i_m_source_file_index>
95

> <r_mmod_Potential_Energy-OPLS-2005>
-108.067001342773

> <r_mmod_Stretch_Energy-OPLS-2005>
44.0062713623047

> <r_mmod_Bend_Energy-OPLS-2005>
116.890327453613

> <r_mmod_Torsional_Energy-OPLS-2005>
247.107070922852

> <r_mmod_Improper_Torsional_Energy-OPLS-2005>
5.90333318710327

> <r_mmod_Van_der_Waal_Energy-OPLS-2005>
149.513137817383

> <r_mmod_Electrostatic_Energy-OPLS-2005>
-469.732086181641

> <r_mmod_Solvation_Energy-OPLS-2005>
-217.820526123047

> <b_mmod_Minimization_Converged-OPLS-2005>
0

> <r_mmod_RMS_Derivative-OPLS-2005>
2.04946994781494

$$$$
96
                    3D
 Structure written by MMmdl.
157166  0  0  1  0            999 V2000
  -30.5515  -15.1575   20.4051 C   0  0  0  0  0  0
  -30.4360  -12.7340   19.5556 C   0  0  0  0  0  0
  -29.5542  -12.5783   18.2943 C   0  0  0  0  0  0
  -28.0910  -12.3340   18.6951 C   0  0  0  0  0  0
  -27.6252  -13.2849   19.8299 C   0  0  2  0  0  0
  -28.6514  -13.4430   20.9711 C   0  0  0  0  0  0
  -25.2453  -13.8282   20.5738 C   0  0  0  0  0  0
  -24.1797  -13.0477   20.9216 C   0  0  0  0  0  0
  -24.6448  -11.6964   20.8716 C   0  0  0  0  0  0
  -23.9136  -10.4329   21.0358 C   0  0  0  0  0  0
  -24.3672   -9.4261   21.9164 C   0  0  0  0  0  0
  -23.6332   -8.2305   22.0765 C   0  0  0  0  0  0
  -22.4314   -8.0321   21.3550 C   0  0  0  0  0  0
  -21.9944   -9.0301   20.4659 C   0  0  0  0  0  0
  -22.7282  -10.2172   20.3042 C   0  0  0  0  0  0
  -21.6884   -6.0749   22.5271 C   0  0  0  0  0  0
  -21.4031   -6.5643   23.8206 C   0  0  0  0  0  0
  -21.3666   -5.6791   24.9163 C   0  0  0  0  0  0
  -21.6047   -4.3056   24.7213 C   0  0  0  0  0  0
  -21.8824   -3.8152   23.4334 C   0  0  0  0  0  0
  -21.9209   -4.6970   22.3390 C   0  0  0  0  0  0
  -22.7811  -13.5235   21.1864 C   0  0  0  0  0  0
  -22.1674   -4.2153   21.0968 F   0  0  0  0  0  0
  -21.5633   -3.4534   25.7727 F   0  0  0  0  0  0
  -29.9144  -13.8924   20.3689 N   0  0  0  0  0  0
  -26.2904  -12.9587   20.3213 N   0  0  0  0  0  0
  -25.9404  -11.6674   20.5676 N   0  0  0  0  0  0
  -22.0447  -12.8245   22.0405 N   0  0  0  0  0  0
  -25.4072  -15.2032   20.4247 N   0  0  0  0  0  0
  -31.7717  -15.0510   20.2185 O   0  0  0  0  0  0
  -21.6686   -6.8904   21.4241 O   0  0  0  0  0  0
  -22.3483  -14.5532   20.6697 O   0  0  0  0  0  0
  -24.6602  -31.8312   23.1722 C   0  0  0  0  0  0
  -25.9316  -32.4612   23.8175 C   0  0  1  0  0  0
  -27.2091  -26.9818   20.2082 C   0  0  0  0  0  0
  -25.6009  -33.8420   24.2086 N   0  0  0  0  0  0
  -23.4711  -30.4437   21.5217 C   0  0  2  0  0  0
  -24.9201  -28.8404   20.1131 C   0  0  0  0  0  0
  -22.7660  -29.4474   22.4801 C   0  0  0  0  0  0
  -18.0318  -28.1420   22.8468 C   0  0  0  0  0  0
  -24.1506  -36.7204   23.2640 C   0  0  0  0  0  0
  -26.0368  -30.6601   21.3901 C   0  0  0  0  0  0
  -26.1039  -29.2547   20.7363 C   0  0  0  0  0  0
  -27.2504  -28.3520   20.7425 C   0  0  0  0  0  0
  -25.9933  -26.6943   19.5476 C   0  0  0  0  0  0
  -24.8875  -27.5809   19.4922 C   0  0  0  0  0  0
  -23.7072  -29.7658   20.1441 C   0  0  0  0  0  0
  -25.4138  -36.2948   24.0282 C   0  0  1  0  0  0
  -20.5950  -28.3728   23.1219 C   0  0  2  0  0  0
  -20.6802  -26.9420   22.5405 C   0  0  0  0  0  0
  -19.5776  -26.6384   21.5222 C   0  0  0  0  0  0
  -18.1957  -26.7959   22.1622 C   0  0  0  0  0  0
  -19.1586  -28.8907   23.2827 C   0  0  0  0  0  0
  -18.9488  -30.1508   23.8843 C   0  0  0  0  0  0
  -17.6477  -30.6606   24.0550 C   0  0  0  0  0  0
  -25.9096  -34.9347   23.4980 C   0  0  0  0  0  0
  -16.5366  -29.9086   23.6345 C   0  0  0  0  0  0
  -16.7301  -28.6512   23.0356 C   0  0  0  0  0  0
  -26.4574  -31.6545   25.0698 C   0  0  0  0  0  0
  -25.3715  -31.3786   26.1354 C   0  0  0  0  0  0
  -27.0450  -30.2899   24.6440 C   0  0  0  0  0  0
  -27.6064  -32.4372   25.7499 C   0  0  0  0  0  0
  -27.5558  -37.1747   24.8464 C   0  0  0  0  0  0
  -21.4336  -29.3017   22.3565 N   0  0  0  0  0  0
  -26.4276  -37.3679   23.9393 N   0  0  0  0  0  0
  -24.7434  -31.0055   22.0811 N   0  0  0  0  0  0
  -23.4238  -28.8037   23.3023 O   0  0  0  0  0  0
  -28.2456  -25.9314   20.2413 O   0  0  0  0  0  0
  -26.5693  -34.8885   22.4572 O   0  0  0  0  0  0
  -23.5680  -32.1269   23.6838 O   0  0  0  0  0  0
  -28.9664  -17.3251   21.2900 C   0  0  0  0  0  0
  -28.5517  -18.7487   21.3167 C   0  0  0  0  0  0
  -30.0842  -19.2686   19.6756 C   0  0  0  0  0  0
  -29.9625  -16.7272   20.4180 C   0  0  0  0  0  0
  -30.5059  -17.8412   19.6242 C   0  0  0  0  0  0
  -29.0485  -19.8535   20.5003 C   0  0  0  0  0  0
  -27.1801  -21.2055   19.7953 C   0  0  0  0  0  0
  -32.6195  -18.3574   18.3622 C   0  0  0  0  0  0
  -31.6035  -17.5383   18.6796 C   0  0  0  0  0  0
  -27.0367  -22.1290   18.5930 C   0  0  0  0  0  0
  -28.3661  -22.8846   18.5671 C   0  0  0  0  0  0
  -28.7902  -22.8603   20.0311 C   0  0  2  0  0  0
  -28.0535  -24.3628   20.6220 C   0  0  0  0  0  0
  -28.3775  -21.3119   20.4062 N   0  0  0  0  0  0
  -26.2725  -20.4274   20.1077 O   0  0  0  0  0  0
  -31.4733  -12.8734   19.2464 H   0  0  0  0  0  0
  -30.4298  -11.8156   20.1457 H   0  0  0  0  0  0
  -29.9247  -11.7580   17.6790 H   0  0  0  0  0  0
  -29.6277  -13.4790   17.6829 H   0  0  0  0  0  0
  -28.0136  -11.2976   19.0260 H   0  0  0  0  0  0
  -27.4422  -12.4362   17.8255 H   0  0  0  0  0  0
  -27.5529  -14.2662   19.3591 H   0  0  0  0  0  0
  -28.7872  -12.5180   21.5343 H   0  0  0  0  0  0
  -28.3034  -14.1896   21.6862 H   0  0  0  0  0  0
  -25.2820   -9.5766   22.4723 H   0  0  0  0  0  0
  -24.0051   -7.4720   22.7503 H   0  0  0  0  0  0
  -21.0865   -8.8823   19.8976 H   0  0  0  0  0  0
  -22.3727  -10.9712   19.6149 H   0  0  0  0  0  0
  -21.2019   -7.6147   23.9699 H   0  0  0  0  0  0
  -21.1479   -6.0520   25.9060 H   0  0  0  0  0  0
  -22.0591   -2.7612   23.2830 H   0  0  0  0  0  0
  -22.4081  -11.9944   22.4855 H   0  0  0  0  0  0
  -21.1043  -13.1259   22.2528 H   0  0  0  0  0  0
  -24.6364  -15.8465   20.5619 H   0  0  0  0  0  0
  -26.2575  -15.6635   20.1273 H   0  0  0  0  0  0
  -26.7396  -32.5158   23.0901 H   0  0  0  0  0  0
  -25.0141  -33.9500   25.0228 H   0  0  0  0  0  0
  -22.7779  -31.2700   21.3540 H   0  0  0  0  0  0
  -23.3759  -35.9548   23.3295 H   0  0  0  0  0  0
  -24.3572  -36.8863   22.2054 H   0  0  0  0  0  0
  -23.7293  -37.6395   23.6717 H   0  0  0  0  0  0
  -26.2221  -31.4095   20.6183 H   0  0  0  0  0  0
  -26.8954  -30.6965   22.0506 H   0  0  0  0  0  0
  -28.1618  -28.6822   21.2200 H   0  0  0  0  0  0
  -25.8773  -25.7263   19.0816 H   0  0  0  0  0  0
  -23.9870  -27.2608   18.9837 H   0  0  0  0  0  0
  -23.8531  -30.5365   19.3850 H   0  0  0  0  0  0
  -22.8194  -29.2156   19.8285 H   0  0  0  0  0  0
  -25.1348  -36.1702   25.0769 H   0  0  0  0  0  0
  -21.0023  -28.3295   24.1349 H   0  0  0  0  0  0
  -20.5712  -26.2325   23.3621 H   0  0  0  0  0  0
  -21.6664  -26.7422   22.1196 H   0  0  0  0  0  0
  -19.6919  -25.6284   21.1286 H   0  0  0  0  0  0
  -19.6733  -27.3177   20.6742 H   0  0  0  0  0  0
  -17.4230  -26.6716   21.4013 H   0  0  0  0  0  0
  -18.0312  -26.0131   22.9042 H   0  0  0  0  0  0
  -19.7954  -30.7355   24.2185 H   0  0  0  0  0  0
  -17.5010  -31.6274   24.5167 H   0  0  0  0  0  0
  -15.5366  -30.2951   23.7720 H   0  0  0  0  0  0
  -15.8697  -28.0808   22.7098 H   0  0  0  0  0  0
  -24.5928  -30.7109   25.7647 H   0  0  0  0  0  0
  -24.8897  -32.2993   26.4650 H   0  0  0  0  0  0
  -25.7968  -30.9026   27.0203 H   0  0  0  0  0  0
  -26.3098  -29.6585   24.1444 H   0  0  0  0  0  0
  -27.3944  -29.7247   25.5089 H   0  0  0  0  0  0
  -27.9062  -30.4038   23.9860 H   0  0  0  0  0  0
  -27.2615  -33.3707   26.1959 H   0  0  0  0  0  0
  -28.3935  -32.6897   25.0383 H   0  0  0  0  0  0
  -28.0695  -31.8610   26.5519 H   0  0  0  0  0  0
  -28.2557  -38.0054   24.7470 H   0  0  0  0  0  0
  -28.1065  -36.2566   24.6335 H   0  0  0  0  0  0
  -27.2271  -37.1446   25.8868 H   0  0  0  0  0  0
  -20.9576  -29.8624   21.6635 H   0  0  0  0  0  0
  -26.0107  -38.2731   24.1394 H   0  0  0  0  0  0
  -28.4956  -16.6681   22.0065 H   0  0  0  0  0  0
  -27.7618  -18.9954   22.0132 H   0  0  0  0  0  0
  -30.5513  -19.9454   18.9741 H   0  0  0  0  0  0
  -33.3657  -18.0505   17.6423 H   0  0  0  0  0  0
  -32.7342  -19.3342   18.8097 H   0  0  0  0  0  0
  -31.5683  -16.5758   18.1870 H   0  0  0  0  0  0
  -26.1704  -22.7799   18.7336 H   0  0  0  0  0  0
  -26.8911  -21.5478   17.6809 H   0  0  0  0  0  0
  -28.2647  -23.9010   18.1871 H   0  0  0  0  0  0
  -29.0952  -22.3675   17.9414 H   0  0  0  0  0  0
  -29.8748  -22.9515   20.1064 H   0  0  0  0  0  0
  -28.3122  -24.3571   21.6826 H   0  0  0  0  0  0
  -26.9759  -24.1976   20.6384 H   0  0  0  0  0  0
  1 25  1  0  0  0
  1 30  2  0  0  0
  1 74  1  0  0  0
  2  3  1  0  0  0
  2 25  1  0  0  0
  2 86  1  0  0  0
  2 87  1  0  0  0
  3  4  1  0  0  0
  3 88  1  0  0  0
  3 89  1  0  0  0
  4  5  1  0  0  0
  4 90  1  0  0  0
  4 91  1  0  0  0
  5  6  1  0  0  0
  5 26  1  0  0  0
  5 92  1  0  0  0
  6 25  1  0  0  0
  6 93  1  0  0  0
  6 94  1  0  0  0
  7  8  2  0  0  0
  7 26  1  0  0  0
  7 29  1  0  0  0
  8  9  1  0  0  0
  8 22  1  0  0  0
  9 10  1  0  0  0
  9 27  2  0  0  0
 10 11  2  0  0  0
 10 15  1  0  0  0
 11 12  1  0  0  0
 11 95  1  0  0  0
 12 13  2  0  0  0
 12 96  1  0  0  0
 13 14  1  0  0  0
 13 31  1  0  0  0
 14 15  2  0  0  0
 14 97  1  0  0  0
 15 98  1  0  0  0
 16 17  2  0  0  0
 16 21  1  0  0  0
 16 31  1  0  0  0
 17 18  1  0  0  0
 17 99  1  0  0  0
 18 19  2  0  0  0
 18100  1  0  0  0
 19 20  1  0  0  0
 19 24  1  0  0  0
 20 21  2  0  0  0
 20101  1  0  0  0
 21 23  1  0  0  0
 22 28  1  0  0  0
 22 32  2  0  0  0
 26 27  1  0  0  0
 28102  1  0  0  0
 28103  1  0  0  0
 29104  1  0  0  0
 29105  1  0  0  0
 33 34  1  0  0  0
 33 66  1  0  0  0
 33 70  2  0  0  0
 34 36  1  0  0  0
 34 59  1  0  0  0
 34106  1  0  0  0
 35 44  2  0  0  0
 35 45  1  0  0  0
 35 68  1  0  0  0
 36 56  1  0  0  0
 36107  1  0  0  0
 37 39  1  0  0  0
 37 47  1  0  0  0
 37 66  1  0  0  0
 37108  1  0  0  0
 38 43  2  0  0  0
 38 46  1  0  0  0
 38 47  1  0  0  0
 39 64  1  0  0  0
 39 67  2  0  0  0
 40 52  1  0  0  0
 40 53  2  0  0  0
 40 58  1  0  0  0
 41109  1  0  0  0
 41110  1  0  0  0
 41111  1  0  0  0
 41 48  1  0  0  0
 42 43  1  0  0  0
 42 66  1  0  0  0
 42112  1  0  0  0
 42113  1  0  0  0
 43 44  1  0  0  0
 44114  1  0  0  0
 45 46  2  0  0  0
 45115  1  0  0  0
 46116  1  0  0  0
 47117  1  0  0  0
 47118  1  0  0  0
 48 56  1  0  0  0
 48 65  1  0  0  0
 48119  1  0  0  0
 49 50  1  0  0  0
 49 53  1  0  0  0
 49 64  1  0  0  0
 49120  1  0  0  0
 50 51  1  0  0  0
 50121  1  0  0  0
 50122  1  0  0  0
 51 52  1  0  0  0
 51123  1  0  0  0
 51124  1  0  0  0
 52125  1  0  0  0
 52126  1  0  0  0
 53 54  1  0  0  0
 54 55  2  0  0  0
 54127  1  0  0  0
 55 57  1  0  0  0
 55128  1  0  0  0
 56 69  2  0  0  0
 57 58  2  0  0  0
 57129  1  0  0  0
 58130  1  0  0  0
 59 60  1  0  0  0
 59 61  1  0  0  0
 59 62  1  0  0  0
 60131  1  0  0  0
 60132  1  0  0  0
 60133  1  0  0  0
 61134  1  0  0  0
 61135  1  0  0  0
 61136  1  0  0  0
 62137  1  0  0  0
 62138  1  0  0  0
 62139  1  0  0  0
 63 65  1  0  0  0
 63140  1  0  0  0
 63141  1  0  0  0
 63142  1  0  0  0
 64143  1  0  0  0
 65144  1  0  0  0
 68 83  1  0  0  0
 71 72  2  0  0  0
 71 74  1  0  0  0
 71145  1  0  0  0
 72 76  1  0  0  0
 72146  1  0  0  0
 73 75  1  0  0  0
 73 76  2  0  0  0
 73147  1  0  0  0
 74 75  2  0  0  0
 75 79  1  0  0  0
 76 84  1  0  0  0
 77 80  1  0  0  0
 77 84  1  0  0  0
 77 85  2  0  0  0
 78 79  2  0  0  0
 78148  1  0  0  0
 78149  1  0  0  0
 79150  1  0  0  0
 80 81  1  0  0  0
 80151  1  0  0  0
 80152  1  0  0  0
 81 82  1  0  0  0
 81153  1  0  0  0
 81154  1  0  0  0
 82 83  1  0  0  0
 82 84  1  0  0  0
 82155  1  0  0  0
 83156  1  0  0  0
 83157  1  0  0  0
M  ISO  4   1 100  68 101  74 100  83 101
M  END
> <chiral flag>
0

> <version>
0

> <s_m_source_file>
/data/baiqing/PycharmProjects/Reinvent-master-3.2/result/LINK_invent/BTK/process_docking_weight1_custom_product_contain_oxygen_bond_distance_aromatic_linkinvent_7_9_3/rearranged_h_0108.sdf

> <i_m_source_file_index>
96

> <r_mmod_Potential_Energy-OPLS-2005>
1248.54516601562

> <r_mmod_Stretch_Energy-OPLS-2005>
457.289367675781

> <r_mmod_Bend_Energy-OPLS-2005>
450.687255859375

> <r_mmod_Torsional_Energy-OPLS-2005>
321.691162109375

> <r_mmod_Improper_Torsional_Energy-OPLS-2005>
8.28711986541748

> <r_mmod_Van_der_Waal_Energy-OPLS-2005>
131.253570556641

> <r_mmod_Electrostatic_Energy-OPLS-2005>
-271.242401123047

> <r_mmod_Solvation_Energy-OPLS-2005>
-203.325775146484

> <b_mmod_Minimization_Converged-OPLS-2005>
0

> <r_mmod_RMS_Derivative-OPLS-2005>
4.33398008346558

$$$$
97
                    3D
 Structure written by MMmdl.
157165  0  0  1  0            999 V2000
  -30.6856  -14.6288   20.6106 C   0  0  0  0  0  0
  -30.4251  -12.4201   19.4624 C   0  0  0  0  0  0
  -29.5034  -12.5289   18.2299 C   0  0  0  0  0  0
  -28.0301  -12.3463   18.6364 C   0  0  0  0  0  0
  -27.6461  -13.2261   19.8537 C   0  0  2  0  0  0
  -28.6784  -13.1038   20.9929 C   0  0  0  0  0  0
  -25.2523  -13.8184   20.5667 C   0  0  0  0  0  0
  -24.1808  -13.0438   20.9182 C   0  0  0  0  0  0
  -24.6386  -11.6918   20.8733 C   0  0  0  0  0  0
  -23.9063  -10.4299   21.0408 C   0  0  0  0  0  0
  -24.3612   -9.4212   21.9186 C   0  0  0  0  0  0
  -23.6290   -8.2246   22.0752 C   0  0  0  0  0  0
  -22.4274   -8.0279   21.3534 C   0  0  0  0  0  0
  -21.9909   -9.0261   20.4646 C   0  0  0  0  0  0
  -22.7238  -10.2139   20.3059 C   0  0  0  0  0  0
  -21.6851   -6.0741   22.5281 C   0  0  0  0  0  0
  -21.4017   -6.5644   23.8219 C   0  0  0  0  0  0
  -21.3656   -5.6797   24.9186 C   0  0  0  0  0  0
  -21.6048   -4.3059   24.7233 C   0  0  0  0  0  0
  -21.8815   -3.8150   23.4354 C   0  0  0  0  0  0
  -21.9191   -4.6971   22.3406 C   0  0  0  0  0  0
  -22.7834  -13.5237   21.1881 C   0  0  0  0  0  0
  -22.1653   -4.2149   21.0989 F   0  0  0  0  0  0
  -21.5628   -3.4544   25.7744 F   0  0  0  0  0  0
  -30.0078  -13.4400   20.4542 N   0  0  0  0  0  0
  -26.2945  -12.9385   20.3246 N   0  0  0  0  0  0
  -25.9321  -11.6535   20.5727 N   0  0  0  0  0  0
  -22.0494  -12.8206   22.0438 N   0  0  0  0  0  0
  -25.4264  -15.1901   20.4106 N   0  0  0  0  0  0
  -31.7617  -14.8142   20.0307 O   0  0  0  0  0  0
  -21.6635   -6.8879   21.4239 O   0  0  0  0  0  0
  -22.3517  -14.5549   20.6748 O   0  0  0  0  0  0
  -24.6285  -31.8578   23.2025 C   0  0  0  0  0  0
  -25.9130  -32.4759   23.8370 C   0  0  1  0  0  0
  -27.2240  -27.2932   20.1220 C   0  0  0  0  0  0
  -25.5936  -33.8565   24.2291 N   0  0  0  0  0  0
  -23.4236  -30.4815   21.5446 C   0  0  2  0  0  0
  -24.8714  -28.9363   20.1085 C   0  0  0  0  0  0
  -22.7496  -29.4610   22.4940 C   0  0  0  0  0  0
  -18.0286  -28.1380   22.8498 C   0  0  0  0  0  0
  -24.1487  -36.7286   23.2645 C   0  0  0  0  0  0
  -25.9670  -30.7804   21.3788 C   0  0  0  0  0  0
  -26.0403  -29.4061   20.7201 C   0  0  0  0  0  0
  -27.2161  -28.5953   20.7193 C   0  0  0  0  0  0
  -26.0356  -26.8940   19.4646 C   0  0  0  0  0  0
  -24.8726  -27.6876   19.4708 C   0  0  0  0  0  0
  -23.6405  -29.8189   20.1592 C   0  0  0  0  0  0
  -25.4111  -36.3077   24.0334 C   0  0  1  0  0  0
  -20.5890  -28.3682   23.1292 C   0  0  2  0  0  0
  -20.6775  -26.9408   22.5418 C   0  0  0  0  0  0
  -19.5744  -26.6386   21.5225 C   0  0  0  0  0  0
  -18.1927  -26.7927   22.1637 C   0  0  0  0  0  0
  -19.1542  -28.8847   23.2884 C   0  0  0  0  0  0
  -18.9466  -30.1449   23.8896 C   0  0  0  0  0  0
  -17.6462  -30.6584   24.0558 C   0  0  0  0  0  0
  -25.9047  -34.9439   23.5111 C   0  0  0  0  0  0
  -16.5353  -29.9085   23.6327 C   0  0  0  0  0  0
  -16.7271  -28.6498   23.0358 C   0  0  0  0  0  0
  -26.4497  -31.6561   25.0736 C   0  0  0  0  0  0
  -25.3727  -31.3693   26.1457 C   0  0  0  0  0  0
  -27.0340  -30.2979   24.6214 C   0  0  0  0  0  0
  -27.6049  -32.4299   25.7507 C   0  0  0  0  0  0
  -27.5575  -37.1802   24.8467 C   0  0  0  0  0  0
  -21.4201  -29.3036   22.3686 N   0  0  0  0  0  0
  -26.4291  -37.3768   23.9403 N   0  0  0  0  0  0
  -24.6914  -31.0584   22.0978 N   0  0  0  0  0  0
  -23.4208  -28.8148   23.3021 O   0  0  0  0  0  0
  -28.3338  -26.4284   20.2115 O   0  0  0  0  0  0
  -26.5626  -34.8904   22.4681 O   0  0  0  0  0  0
  -23.5435  -32.1402   23.7331 O   0  0  0  0  0  0
  -30.6660  -17.8934   20.4317 C   0  0  0  0  0  0
  -30.3756  -19.3002   20.3337 C   0  0  0  0  0  0
  -28.6616  -17.5665   21.7062 C   0  0  0  0  0  0
  -29.8377  -16.9851   21.1611 C   0  0  0  0  0  0
  -29.2405  -19.8806   20.9697 C   0  0  0  0  0  0
  -28.3841  -18.9613   21.6333 C   0  0  0  0  0  0
  -28.9658  -23.9081   20.6846 C   0  0  0  0  0  0
  -30.3275  -16.3317   23.9645 C   0  0  0  0  0  0
  -29.2039  -22.4257   20.1399 C   0  0  0  0  0  0
  -28.1998  -24.9926   19.8164 C   0  0  0  0  0  0
  -30.4784  -15.2284   22.9001 C   0  0  0  0  0  0
  -28.9275  -21.2845   21.0778 N   0  0  0  0  0  0
  -30.1872  -15.5802   21.4833 N   0  0  0  0  0  0
  -29.3628  -24.1991   21.8180 O   0  0  0  0  0  0
  -27.2754  -19.4378   22.2538 F   0  0  0  0  0  0
  -31.4662  -12.5413   19.1591 H   0  0  0  0  0  0
  -30.3633  -11.4223   19.9006 H   0  0  0  0  0  0
  -29.7817  -11.7840   17.4836 H   0  0  0  0  0  0
  -29.6343  -13.5032   17.7564 H   0  0  0  0  0  0
  -27.8807  -11.2941   18.8779 H   0  0  0  0  0  0
  -27.3723  -12.5593   17.7929 H   0  0  0  0  0  0
  -27.6634  -14.2598   19.5058 H   0  0  0  0  0  0
  -28.6840  -12.0939   21.4069 H   0  0  0  0  0  0
  -28.3698  -13.7626   21.8021 H   0  0  0  0  0  0
  -25.2763   -9.5682   22.4760 H   0  0  0  0  0  0
  -23.9996   -7.4639   22.7468 H   0  0  0  0  0  0
  -21.0844   -8.8805   19.8944 H   0  0  0  0  0  0
  -22.3720  -10.9687   19.6168 H   0  0  0  0  0  0
  -21.2006   -7.6157   23.9720 H   0  0  0  0  0  0
  -21.1479   -6.0534   25.9084 H   0  0  0  0  0  0
  -22.0589   -2.7612   23.2871 H   0  0  0  0  0  0
  -22.4107  -11.9848   22.4784 H   0  0  0  0  0  0
  -21.1109  -13.1225   22.2668 H   0  0  0  0  0  0
  -24.6645  -15.8486   20.5285 H   0  0  0  0  0  0
  -26.2845  -15.6266   20.1013 H   0  0  0  0  0  0
  -26.7185  -32.5423   23.1100 H   0  0  0  0  0  0
  -25.0057  -33.9711   25.0420 H   0  0  0  0  0  0
  -22.7170  -31.3015   21.4011 H   0  0  0  0  0  0
  -23.3744  -35.9624   23.3316 H   0  0  0  0  0  0
  -24.3572  -36.8899   22.2057 H   0  0  0  0  0  0
  -23.7247  -37.6493   23.6656 H   0  0  0  0  0  0
  -26.1068  -31.5434   20.6114 H   0  0  0  0  0  0
  -26.8445  -30.8275   22.0123 H   0  0  0  0  0  0
  -28.1095  -28.9492   21.2144 H   0  0  0  0  0  0
  -25.9638  -25.9538   18.9408 H   0  0  0  0  0  0
  -23.9790  -27.3299   18.9765 H   0  0  0  0  0  0
  -23.7590  -30.5965   19.4034 H   0  0  0  0  0  0
  -22.7598  -29.2477   19.8579 H   0  0  0  0  0  0
  -25.1286  -36.1933   25.0827 H   0  0  0  0  0  0
  -20.9971  -28.3254   24.1415 H   0  0  0  0  0  0
  -20.5692  -26.2293   23.3616 H   0  0  0  0  0  0
  -21.6641  -26.7448   22.1197 H   0  0  0  0  0  0
  -19.6907  -25.6303   21.1241 H   0  0  0  0  0  0
  -19.6676  -27.3204   20.6760 H   0  0  0  0  0  0
  -17.4200  -26.6689   21.4031 H   0  0  0  0  0  0
  -18.0312  -26.0066   22.9026 H   0  0  0  0  0  0
  -19.7934  -30.7271   24.2278 H   0  0  0  0  0  0
  -17.5007  -31.6262   24.5162 H   0  0  0  0  0  0
  -15.5348  -30.2976   23.7649 H   0  0  0  0  0  0
  -15.8676  -28.0802   22.7083 H   0  0  0  0  0  0
  -24.5894  -30.7050   25.7778 H   0  0  0  0  0  0
  -24.8924  -32.2859   26.4891 H   0  0  0  0  0  0
  -25.8046  -30.8857   27.0227 H   0  0  0  0  0  0
  -26.2934  -29.6742   24.1193 H   0  0  0  0  0  0
  -27.8824  -30.4250   23.9487 H   0  0  0  0  0  0
  -27.3965  -29.7224   25.4743 H   0  0  0  0  0  0
  -27.2642  -33.3585   26.2087 H   0  0  0  0  0  0
  -28.3846  -32.6890   25.0334 H   0  0  0  0  0  0
  -28.0732  -31.8435   26.5422 H   0  0  0  0  0  0
  -28.2598  -38.0090   24.7487 H   0  0  0  0  0  0
  -28.1063  -36.2620   24.6315 H   0  0  0  0  0  0
  -27.2289  -37.1472   25.8870 H   0  0  0  0  0  0
  -20.9398  -29.8748   21.6878 H   0  0  0  0  0  0
  -26.0176  -38.2843   24.1402 H   0  0  0  0  0  0
  -31.5804  -17.5284   19.9834 H   0  0  0  0  0  0
  -31.0761  -19.9381   19.8158 H   0  0  0  0  0  0
  -27.9741  -16.9443   22.2596 H   0  0  0  0  0  0
  -30.7055  -15.9764   24.9227 H   0  0  0  0  0  0
  -29.2844  -16.6044   24.1339 H   0  0  0  0  0  0
  -30.8910  -17.2292   23.7132 H   0  0  0  0  0  0
  -30.2427  -22.3630   19.8121 H   0  0  0  0  0  0
  -28.5922  -22.2954   19.2485 H   0  0  0  0  0  0
  -27.1630  -24.6681   19.8794 H   0  0  0  0  0  0
  -28.5045  -24.8853   18.7754 H   0  0  0  0  0  0
  -29.8744  -14.3783   23.2130 H   0  0  0  0  0  0
  -31.5111  -14.8788   22.9684 H   0  0  0  0  0  0
  -28.1236  -21.4533   21.6795 H   0  0  0  0  0  0
  1 25  1  0  0  0
  1 30  2  0  0  0
  1 83  1  0  0  0
  2  3  1  0  0  0
  2 25  1  0  0  0
  2 86  1  0  0  0
  2 87  1  0  0  0
  3  4  1  0  0  0
  3 88  1  0  0  0
  3 89  1  0  0  0
  4  5  1  0  0  0
  4 90  1  0  0  0
  4 91  1  0  0  0
  5  6  1  0  0  0
  5 26  1  0  0  0
  5 92  1  0  0  0
  6 25  1  0  0  0
  6 93  1  0  0  0
  6 94  1  0  0  0
  7  8  2  0  0  0
  7 26  1  0  0  0
  7 29  1  0  0  0
  8  9  1  0  0  0
  8 22  1  0  0  0
  9 10  1  0  0  0
  9 27  2  0  0  0
 10 11  2  0  0  0
 10 15  1  0  0  0
 11 12  1  0  0  0
 11 95  1  0  0  0
 12 13  2  0  0  0
 12 96  1  0  0  0
 13 14  1  0  0  0
 13 31  1  0  0  0
 14 15  2  0  0  0
 14 97  1  0  0  0
 15 98  1  0  0  0
 16 17  2  0  0  0
 16 21  1  0  0  0
 16 31  1  0  0  0
 17 18  1  0  0  0
 17 99  1  0  0  0
 18 19  2  0  0  0
 18100  1  0  0  0
 19 20  1  0  0  0
 19 24  1  0  0  0
 20 21  2  0  0  0
 20101  1  0  0  0
 21 23  1  0  0  0
 22 28  1  0  0  0
 22 32  2  0  0  0
 26 27  1  0  0  0
 28102  1  0  0  0
 28103  1  0  0  0
 29104  1  0  0  0
 29105  1  0  0  0
 33 34  1  0  0  0
 33 66  1  0  0  0
 33 70  2  0  0  0
 34 36  1  0  0  0
 34 59  1  0  0  0
 34106  1  0  0  0
 35 44  2  0  0  0
 35 45  1  0  0  0
 35 68  1  0  0  0
 36 56  1  0  0  0
 36107  1  0  0  0
 37 39  1  0  0  0
 37 47  1  0  0  0
 37 66  1  0  0  0
 37108  1  0  0  0
 38 43  2  0  0  0
 38 46  1  0  0  0
 38 47  1  0  0  0
 39 64  1  0  0  0
 39 67  2  0  0  0
 40 52  1  0  0  0
 40 53  2  0  0  0
 40 58  1  0  0  0
 41109  1  0  0  0
 41110  1  0  0  0
 41111  1  0  0  0
 41 48  1  0  0  0
 42 43  1  0  0  0
 42 66  1  0  0  0
 42112  1  0  0  0
 42113  1  0  0  0
 43 44  1  0  0  0
 44114  1  0  0  0
 45 46  2  0  0  0
 45115  1  0  0  0
 46116  1  0  0  0
 47117  1  0  0  0
 47118  1  0  0  0
 48 56  1  0  0  0
 48 65  1  0  0  0
 48119  1  0  0  0
 49 50  1  0  0  0
 49 53  1  0  0  0
 49 64  1  0  0  0
 49120  1  0  0  0
 50 51  1  0  0  0
 50121  1  0  0  0
 50122  1  0  0  0
 51 52  1  0  0  0
 51123  1  0  0  0
 51124  1  0  0  0
 52125  1  0  0  0
 52126  1  0  0  0
 53 54  1  0  0  0
 54 55  2  0  0  0
 54127  1  0  0  0
 55 57  1  0  0  0
 55128  1  0  0  0
 56 69  2  0  0  0
 57 58  2  0  0  0
 57129  1  0  0  0
 58130  1  0  0  0
 59 60  1  0  0  0
 59 61  1  0  0  0
 59 62  1  0  0  0
 60131  1  0  0  0
 60132  1  0  0  0
 60133  1  0  0  0
 61134  1  0  0  0
 61135  1  0  0  0
 61136  1  0  0  0
 62137  1  0  0  0
 62138  1  0  0  0
 62139  1  0  0  0
 63 65  1  0  0  0
 63140  1  0  0  0
 63141  1  0  0  0
 63142  1  0  0  0
 64143  1  0  0  0
 65144  1  0  0  0
 68 80  1  0  0  0
 71 72  2  0  0  0
 71 74  1  0  0  0
 71145  1  0  0  0
 72 75  1  0  0  0
 72146  1  0  0  0
 73 74  2  0  0  0
 73 76  1  0  0  0
 73147  1  0  0  0
 74 83  1  0  0  0
 75 76  2  0  0  0
 75 82  1  0  0  0
 76 85  1  0  0  0
 77 79  1  0  0  0
 77 80  1  0  0  0
 77 84  2  0  0  0
 78 81  1  0  0  0
 78148  1  0  0  0
 78149  1  0  0  0
 78150  1  0  0  0
 79 82  1  0  0  0
 79151  1  0  0  0
 79152  1  0  0  0
 80153  1  0  0  0
 80154  1  0  0  0
 81 83  1  0  0  0
 81155  1  0  0  0
 81156  1  0  0  0
 82157  1  0  0  0
M  ISO  4   1 100  68 101  80 101  83 100
M  END
> <chiral flag>
0

> <version>
0

> <s_m_source_file>
/data/baiqing/PycharmProjects/Reinvent-master-3.2/result/LINK_invent/BTK/process_docking_weight1_custom_product_contain_oxygen_bond_distance_aromatic_linkinvent_7_9_3/rearranged_h_0108.sdf

> <i_m_source_file_index>
97

> <r_mmod_Potential_Energy-OPLS-2005>
347.543548583984

> <r_mmod_Stretch_Energy-OPLS-2005>
98.9811248779297

> <r_mmod_Bend_Energy-OPLS-2005>
172.122055053711

> <r_mmod_Torsional_Energy-OPLS-2005>
299.903869628906

> <r_mmod_Improper_Torsional_Energy-OPLS-2005>
5.43993043899536

> <r_mmod_Van_der_Waal_Energy-OPLS-2005>
146.990951538086

> <r_mmod_Electrostatic_Energy-OPLS-2005>
-210.119049072266

> <r_mmod_Solvation_Energy-OPLS-2005>
-220.042678833008

> <b_mmod_Minimization_Converged-OPLS-2005>
0

> <r_mmod_RMS_Derivative-OPLS-2005>
2.93128561973572

$$$$
