0
                    3D
 Structure written by MMmdl.
152160  0  0  1  0            999 V2000
  -30.6086  -14.6552   20.4954 C   0  0  0  0  0  0
  -30.4411  -12.4009   19.4544 C   0  0  0  0  0  0
  -29.5100  -12.5067   18.2252 C   0  0  0  0  0  0
  -28.0327  -12.3410   18.6359 C   0  0  0  0  0  0
  -27.6524  -13.2141   19.8609 C   0  0  2  0  0  0
  -28.6965  -13.0727   20.9920 C   0  0  0  0  0  0
  -25.2557  -13.8161   20.5661 C   0  0  0  0  0  0
  -24.1831  -13.0435   20.9203 C   0  0  0  0  0  0
  -24.6393  -11.6904   20.8748 C   0  0  0  0  0  0
  -23.9061  -10.4289   21.0411 C   0  0  0  0  0  0
  -24.3615   -9.4204   21.9185 C   0  0  0  0  0  0
  -23.6290   -8.2242   22.0757 C   0  0  0  0  0  0
  -22.4272   -8.0281   21.3547 C   0  0  0  0  0  0
  -21.9905   -9.0257   20.4651 C   0  0  0  0  0  0
  -22.7234  -10.2135   20.3059 C   0  0  0  0  0  0
  -21.6853   -6.0733   22.5278 C   0  0  0  0  0  0
  -21.4015   -6.5636   23.8211 C   0  0  0  0  0  0
  -21.3659   -5.6790   24.9174 C   0  0  0  0  0  0
  -21.6044   -4.3054   24.7224 C   0  0  0  0  0  0
  -21.8820   -3.8145   23.4345 C   0  0  0  0  0  0
  -21.9193   -4.6961   22.3400 C   0  0  0  0  0  0
  -22.7854  -13.5234   21.1858 C   0  0  0  0  0  0
  -22.1663   -4.2148   21.0977 F   0  0  0  0  0  0
  -21.5627   -3.4537   25.7736 F   0  0  0  0  0  0
  -30.0110  -13.4222   20.4305 N   0  0  0  0  0  0
  -26.2979  -12.9335   20.3292 N   0  0  0  0  0  0
  -25.9317  -11.6496   20.5751 N   0  0  0  0  0  0
  -22.0488  -12.8235   22.0413 N   0  0  0  0  0  0
  -25.4253  -15.1877   20.4004 N   0  0  0  0  0  0
  -31.7739  -14.8183   20.1196 O   0  0  0  0  0  0
  -21.6638   -6.8877   21.4241 O   0  0  0  0  0  0
  -22.3547  -14.5540   20.6700 O   0  0  0  0  0  0
  -24.6256  -31.8597   23.2018 C   0  0  0  0  0  0
  -25.9104  -32.4779   23.8350 C   0  0  1  0  0  0
  -27.2262  -27.3188   20.1258 C   0  0  0  0  0  0
  -25.5919  -33.8580   24.2279 N   0  0  0  0  0  0
  -23.4198  -30.4821   21.5443 C   0  0  2  0  0  0
  -24.8675  -28.9332   20.1143 C   0  0  0  0  0  0
  -22.7472  -29.4622   22.4938 C   0  0  0  0  0  0
  -18.0287  -28.1385   22.8487 C   0  0  0  0  0  0
  -24.1490  -36.7296   23.2640 C   0  0  0  0  0  0
  -25.9599  -30.7904   21.3728 C   0  0  0  0  0  0
  -26.0355  -29.4162   20.7185 C   0  0  0  0  0  0
  -27.2195  -28.6212   20.7125 C   0  0  0  0  0  0
  -26.0399  -26.8891   19.4921 C   0  0  0  0  0  0
  -24.8712  -27.6747   19.4920 C   0  0  0  0  0  0
  -23.6353  -29.8138   20.1608 C   0  0  0  0  0  0
  -25.4115  -36.3085   24.0330 C   0  0  1  0  0  0
  -20.5886  -28.3690   23.1285 C   0  0  2  0  0  0
  -20.6776  -26.9413   22.5409 C   0  0  0  0  0  0
  -19.5750  -26.6386   21.5212 C   0  0  0  0  0  0
  -18.1932  -26.7929   22.1628 C   0  0  0  0  0  0
  -19.1538  -28.8856   23.2882 C   0  0  0  0  0  0
  -18.9461  -30.1459   23.8897 C   0  0  0  0  0  0
  -17.6461  -30.6588   24.0564 C   0  0  0  0  0  0
  -25.9049  -34.9452   23.5106 C   0  0  0  0  0  0
  -16.5353  -29.9086   23.6328 C   0  0  0  0  0  0
  -16.7274  -28.6504   23.0349 C   0  0  0  0  0  0
  -26.4491  -31.6589   25.0720 C   0  0  0  0  0  0
  -25.3727  -31.3729   26.1451 C   0  0  0  0  0  0
  -27.0332  -30.3014   24.6171 C   0  0  0  0  0  0
  -27.6056  -32.4320   25.7484 C   0  0  0  0  0  0
  -27.5577  -37.1809   24.8469 C   0  0  0  0  0  0
  -21.4186  -29.3043   22.3678 N   0  0  0  0  0  0
  -26.4298  -37.3774   23.9401 N   0  0  0  0  0  0
  -24.6871  -31.0608   22.0967 N   0  0  0  0  0  0
  -23.4196  -28.8164   23.3019 O   0  0  0  0  0  0
  -28.3470  -26.4779   20.1400 O   0  0  0  0  0  0
  -26.5619  -34.8918   22.4674 O   0  0  0  0  0  0
  -23.5420  -32.1395   23.7346 O   0  0  0  0  0  0
  -28.6324  -19.3423   20.4867 C   0  0  0  0  0  0
  -31.0039  -19.2932   20.1130 C   0  0  0  0  0  0
  -28.6626  -17.9300   20.7206 C   0  0  0  0  0  0
  -31.0316  -17.8812   20.3323 C   0  0  0  0  0  0
  -29.8048  -20.0689   20.1527 C   0  0  0  0  0  0
  -29.8518  -17.1482   20.6236 C   0  0  0  0  0  0
  -29.8183  -21.5337   19.7250 C   0  0  0  0  0  0
  -29.1110  -24.0207   19.8406 C   0  0  0  0  0  0
  -28.1585  -25.0592   20.5506 C   0  0  0  0  0  0
  -29.7816  -15.6974   20.8343 N   0  0  0  0  0  0
  -29.0930  -22.5871   20.2567 N   0  0  0  0  0  0
  -30.6359  -21.7852   18.6964 N   0  3  0  0  0  0
  -29.8615  -24.4039   18.9324 O   0  0  0  0  0  0
  -31.4816  -12.5327   19.1518 H   0  0  0  0  0  0
  -30.3830  -11.4058   19.8984 H   0  0  0  0  0  0
  -29.7776  -11.7521   17.4843 H   0  0  0  0  0  0
  -29.6494  -13.4737   17.7395 H   0  0  0  0  0  0
  -27.8727  -11.2882   18.8709 H   0  0  0  0  0  0
  -27.3787  -12.5662   17.7928 H   0  0  0  0  0  0
  -27.6687  -14.2477   19.5157 H   0  0  0  0  0  0
  -28.7114  -12.0505   21.3733 H   0  0  0  0  0  0
  -28.4382  -13.7027   21.8448 H   0  0  0  0  0  0
  -25.2762   -9.5679   22.4756 H   0  0  0  0  0  0
  -24.0000   -7.4631   22.7474 H   0  0  0  0  0  0
  -21.0836   -8.8778   19.8956 H   0  0  0  0  0  0
  -22.3695  -10.9676   19.6170 H   0  0  0  0  0  0
  -21.2009   -7.6145   23.9716 H   0  0  0  0  0  0
  -21.1477   -6.0519   25.9077 H   0  0  0  0  0  0
  -22.0600   -2.7607   23.2846 H   0  0  0  0  0  0
  -22.4095  -11.9898   22.4811 H   0  0  0  0  0  0
  -21.1108  -13.1275   22.2612 H   0  0  0  0  0  0
  -24.6411  -15.8271   20.4704 H   0  0  0  0  0  0
  -26.2378  -15.6073   19.9683 H   0  0  0  0  0  0
  -26.7173  -32.5451   23.1099 H   0  0  0  0  0  0
  -25.0065  -33.9726   25.0422 H   0  0  0  0  0  0
  -22.7135  -31.3021   21.3995 H   0  0  0  0  0  0
  -23.3742  -35.9641   23.3325 H   0  0  0  0  0  0
  -24.3577  -36.8892   22.2050 H   0  0  0  0  0  0
  -23.7259  -37.6512   23.6646 H   0  0  0  0  0  0
  -26.0900  -31.5520   20.6027 H   0  0  0  0  0  0
  -26.8408  -30.8416   22.0010 H   0  0  0  0  0  0
  -28.1173  -28.9886   21.1896 H   0  0  0  0  0  0
  -26.0049  -25.9333   18.9896 H   0  0  0  0  0  0
  -23.9782  -27.3014   19.0097 H   0  0  0  0  0  0
  -23.7544  -30.5886   19.4025 H   0  0  0  0  0  0
  -22.7553  -29.2426   19.8596 H   0  0  0  0  0  0
  -25.1297  -36.1942   25.0823 H   0  0  0  0  0  0
  -20.9980  -28.3265   24.1405 H   0  0  0  0  0  0
  -20.5677  -26.2299   23.3609 H   0  0  0  0  0  0
  -21.6645  -26.7446   22.1200 H   0  0  0  0  0  0
  -19.6911  -25.6297   21.1241 H   0  0  0  0  0  0
  -19.6683  -27.3196   20.6741 H   0  0  0  0  0  0
  -17.4198  -26.6672   21.4035 H   0  0  0  0  0  0
  -18.0336  -26.0074   22.9027 H   0  0  0  0  0  0
  -19.7938  -30.7277   24.2261 H   0  0  0  0  0  0
  -17.5014  -31.6268   24.5168 H   0  0  0  0  0  0
  -15.5353  -30.2986   23.7653 H   0  0  0  0  0  0
  -15.8675  -28.0823   22.7059 H   0  0  0  0  0  0
  -24.5894  -30.7086   25.7782 H   0  0  0  0  0  0
  -24.8927  -32.2897   26.4884 H   0  0  0  0  0  0
  -25.8053  -30.8901   27.0221 H   0  0  0  0  0  0
  -26.2904  -29.6761   24.1203 H   0  0  0  0  0  0
  -27.4042  -29.7274   25.4674 H   0  0  0  0  0  0
  -27.8767  -30.4303   23.9384 H   0  0  0  0  0  0
  -27.2677  -33.3627   26.2054 H   0  0  0  0  0  0
  -28.3866  -32.6868   25.0307 H   0  0  0  0  0  0
  -28.0720  -31.8446   26.5403 H   0  0  0  0  0  0
  -28.2617  -38.0084   24.7488 H   0  0  0  0  0  0
  -28.1051  -36.2615   24.6333 H   0  0  0  0  0  0
  -27.2291  -37.1506   25.8873 H   0  0  0  0  0  0
  -20.9361  -29.8765   21.6890 H   0  0  0  0  0  0
  -26.0182  -38.2857   24.1376 H   0  0  0  0  0  0
  -27.6811  -19.8549   20.5262 H   0  0  0  0  0  0
  -31.9402  -19.7799   19.8768 H   0  0  0  0  0  0
  -27.7286  -17.4390   20.9544 H   0  0  0  0  0  0
  -31.9804  -17.3684   20.2613 H   0  0  0  0  0  0
  -28.3455  -25.0015   21.6228 H   0  0  0  0  0  0
  -27.1366  -24.7114   20.4104 H   0  0  0  0  0  0
  -28.8787  -15.3717   21.1405 H   0  0  0  0  0  0
  -28.4998  -22.2853   21.0149 H   0  0  0  0  0  0
  -31.1241  -21.0354   18.2330 H   0  0  0  0  0  0
  -30.7101  -22.7354   18.3527 H   0  0  0  0  0  0
  1 25  1  0  0  0
  1 30  2  0  0  0
  1 80  1  0  0  0
  2  3  1  0  0  0
  2 25  1  0  0  0
  2 84  1  0  0  0
  2 85  1  0  0  0
  3  4  1  0  0  0
  3 86  1  0  0  0
  3 87  1  0  0  0
  4  5  1  0  0  0
  4 88  1  0  0  0
  4 89  1  0  0  0
  5  6  1  0  0  0
  5 26  1  0  0  0
  5 90  1  0  0  0
  6 25  1  0  0  0
  6 91  1  0  0  0
  6 92  1  0  0  0
  7  8  2  0  0  0
  7 26  1  0  0  0
  7 29  1  0  0  0
  8  9  1  0  0  0
  8 22  1  0  0  0
  9 10  1  0  0  0
  9 27  2  0  0  0
 10 11  2  0  0  0
 10 15  1  0  0  0
 11 12  1  0  0  0
 11 93  1  0  0  0
 12 13  2  0  0  0
 12 94  1  0  0  0
 13 14  1  0  0  0
 13 31  1  0  0  0
 14 15  2  0  0  0
 14 95  1  0  0  0
 15 96  1  0  0  0
 16 17  2  0  0  0
 16 21  1  0  0  0
 16 31  1  0  0  0
 17 18  1  0  0  0
 17 97  1  0  0  0
 18 19  2  0  0  0
 18 98  1  0  0  0
 19 20  1  0  0  0
 19 24  1  0  0  0
 20 21  2  0  0  0
 20 99  1  0  0  0
 21 23  1  0  0  0
 22 28  1  0  0  0
 22 32  2  0  0  0
 26 27  1  0  0  0
 28100  1  0  0  0
 28101  1  0  0  0
 29102  1  0  0  0
 29103  1  0  0  0
 33 34  1  0  0  0
 33 66  1  0  0  0
 33 70  2  0  0  0
 34 36  1  0  0  0
 34 59  1  0  0  0
 34104  1  0  0  0
 35 44  2  0  0  0
 35 45  1  0  0  0
 35 68  1  0  0  0
 36 56  1  0  0  0
 36105  1  0  0  0
 37 39  1  0  0  0
 37 47  1  0  0  0
 37 66  1  0  0  0
 37106  1  0  0  0
 38 43  2  0  0  0
 38 46  1  0  0  0
 38 47  1  0  0  0
 39 64  1  0  0  0
 39 67  2  0  0  0
 40 52  1  0  0  0
 40 53  2  0  0  0
 40 58  1  0  0  0
 41107  1  0  0  0
 41108  1  0  0  0
 41109  1  0  0  0
 41 48  1  0  0  0
 42 43  1  0  0  0
 42 66  1  0  0  0
 42110  1  0  0  0
 42111  1  0  0  0
 43 44  1  0  0  0
 44112  1  0  0  0
 45 46  2  0  0  0
 45113  1  0  0  0
 46114  1  0  0  0
 47115  1  0  0  0
 47116  1  0  0  0
 48 56  1  0  0  0
 48 65  1  0  0  0
 48117  1  0  0  0
 49 50  1  0  0  0
 49 53  1  0  0  0
 49 64  1  0  0  0
 49118  1  0  0  0
 50 51  1  0  0  0
 50119  1  0  0  0
 50120  1  0  0  0
 51 52  1  0  0  0
 51121  1  0  0  0
 51122  1  0  0  0
 52123  1  0  0  0
 52124  1  0  0  0
 53 54  1  0  0  0
 54 55  2  0  0  0
 54125  1  0  0  0
 55 57  1  0  0  0
 55126  1  0  0  0
 56 69  2  0  0  0
 57 58  2  0  0  0
 57127  1  0  0  0
 58128  1  0  0  0
 59 60  1  0  0  0
 59 61  1  0  0  0
 59 62  1  0  0  0
 60129  1  0  0  0
 60130  1  0  0  0
 60131  1  0  0  0
 61132  1  0  0  0
 61133  1  0  0  0
 61134  1  0  0  0
 62135  1  0  0  0
 62136  1  0  0  0
 62137  1  0  0  0
 63 65  1  0  0  0
 63138  1  0  0  0
 63139  1  0  0  0
 63140  1  0  0  0
 64141  1  0  0  0
 65142  1  0  0  0
 68 79  1  0  0  0
 71 73  2  0  0  0
 71 75  1  0  0  0
 71143  1  0  0  0
 72 74  1  0  0  0
 72 75  2  0  0  0
 72144  1  0  0  0
 73 76  1  0  0  0
 73145  1  0  0  0
 74 76  2  0  0  0
 74146  1  0  0  0
 75 77  1  0  0  0
 76 80  1  0  0  0
 77 81  1  0  0  0
 77 82  2  0  0  0
 78 79  1  0  0  0
 78 81  1  0  0  0
 78 83  2  0  0  0
 79147  1  0  0  0
 79148  1  0  0  0
 80149  1  0  0  0
 81150  1  0  0  0
 82151  1  0  0  0
 82152  1  0  0  0
M  CHG  1  82   1
M  ISO  4   1 100  68 101  79 101  80 100
M  END
> <chiral flag>
0

> <version>
0

> <s_m_source_file>
/data/baiqing/PycharmProjects/Reinvent-master-3.2/result/LINK_invent/BTK/process_docking_weight1_custom_product_contain_oxygen_bond_distance_aromatic_linkinvent_7_9_3/rearranged_h_0072.sdf

> <i_m_source_file_index>
1

> <r_mmod_Potential_Energy-OPLS-2005>
-213.933837890625

> <r_mmod_Stretch_Energy-OPLS-2005>
85.8899307250977

> <r_mmod_Bend_Energy-OPLS-2005>
144.363891601562

> <r_mmod_Torsional_Energy-OPLS-2005>
224.400650024414

> <r_mmod_Improper_Torsional_Energy-OPLS-2005>
5.34828853607178

> <r_mmod_Van_der_Waal_Energy-OPLS-2005>
156.283920288086

> <r_mmod_Electrostatic_Energy-OPLS-2005>
-419.147979736328

> <r_mmod_Solvation_Energy-OPLS-2005>
-461.139282226562

> <b_mmod_Minimization_Converged-OPLS-2005>
0

> <r_mmod_RMS_Derivative-OPLS-2005>
0.407842755317688

$$$$
1
                    3D
 Structure written by MMmdl.
161169  0  0  1  0            999 V2000
  -30.6993  -14.3956   20.6316 C   0  0  0  0  0  0
  -30.4254  -12.2697   19.4044 C   0  0  0  0  0  0
  -29.4888  -12.4868   18.1983 C   0  0  0  0  0  0
  -28.0114  -12.3434   18.6143 C   0  0  0  0  0  0
  -27.6616  -13.1805   19.8724 C   0  0  2  0  0  0
  -28.6971  -12.9197   20.9885 C   0  0  0  0  0  0
  -25.2634  -13.8103   20.5654 C   0  0  0  0  0  0
  -24.1856  -13.0440   20.9174 C   0  0  0  0  0  0
  -24.6349  -11.6883   20.8700 C   0  0  0  0  0  0
  -23.9014  -10.4295   21.0390 C   0  0  0  0  0  0
  -24.3595   -9.4215   21.9175 C   0  0  0  0  0  0
  -23.6259   -8.2258   22.0735 C   0  0  0  0  0  0
  -22.4241   -8.0283   21.3541 C   0  0  0  0  0  0
  -21.9867   -9.0264   20.4646 C   0  0  0  0  0  0
  -22.7179  -10.2145   20.3062 C   0  0  0  0  0  0
  -21.6849   -6.0727   22.5267 C   0  0  0  0  0  0
  -21.4029   -6.5644   23.8211 C   0  0  0  0  0  0
  -21.3674   -5.6794   24.9176 C   0  0  0  0  0  0
  -21.6028   -4.3058   24.7199 C   0  0  0  0  0  0
  -21.8822   -3.8141   23.4329 C   0  0  0  0  0  0
  -21.9202   -4.6958   22.3391 C   0  0  0  0  0  0
  -22.7896  -13.5274   21.1857 C   0  0  0  0  0  0
  -22.1654   -4.2143   21.0959 F   0  0  0  0  0  0
  -21.5623   -3.4537   25.7719 F   0  0  0  0  0  0
  -30.0305  -13.2346   20.4380 N   0  0  0  0  0  0
  -26.3013  -12.9206   20.3313 N   0  0  0  0  0  0
  -25.9264  -11.6403   20.5746 N   0  0  0  0  0  0
  -22.0600  -12.8243   22.0456 N   0  0  0  0  0  0
  -25.4389  -15.1801   20.4032 N   0  0  0  0  0  0
  -31.8146  -14.6394   20.1582 O   0  0  0  0  0  0
  -21.6632   -6.8851   21.4229 O   0  0  0  0  0  0
  -22.3558  -14.5589   20.6729 O   0  0  0  0  0  0
  -24.6116  -31.8694   23.2116 C   0  0  0  0  0  0
  -25.9017  -32.4842   23.8403 C   0  0  1  0  0  0
  -27.2616  -27.4687   20.1037 C   0  0  0  0  0  0
  -25.5853  -33.8630   24.2323 N   0  0  0  0  0  0
  -23.4007  -30.4905   21.5480 C   0  0  2  0  0  0
  -24.8559  -28.9608   20.1169 C   0  0  0  0  0  0
  -22.7396  -29.4661   22.4998 C   0  0  0  0  0  0
  -18.0269  -28.1369   22.8501 C   0  0  0  0  0  0
  -24.1460  -36.7319   23.2642 C   0  0  0  0  0  0
  -25.9237  -30.8512   21.3568 C   0  0  0  0  0  0
  -26.0097  -29.4844   20.7139 C   0  0  0  0  0  0
  -27.2145  -28.7477   20.7098 C   0  0  0  0  0  0
  -26.0941  -26.9631   19.4956 C   0  0  0  0  0  0
  -24.8916  -27.6967   19.5027 C   0  0  0  0  0  0
  -23.6110  -29.8163   20.1649 C   0  0  0  0  0  0
  -25.4079  -36.3119   24.0340 C   0  0  1  0  0  0
  -20.5858  -28.3651   23.1321 C   0  0  2  0  0  0
  -20.6740  -26.9381   22.5431 C   0  0  0  0  0  0
  -19.5723  -26.6376   21.5216 C   0  0  0  0  0  0
  -18.1907  -26.7911   22.1639 C   0  0  0  0  0  0
  -19.1519  -28.8825   23.2910 C   0  0  0  0  0  0
  -18.9458  -30.1437   23.8922 C   0  0  0  0  0  0
  -17.6456  -30.6572   24.0575 C   0  0  0  0  0  0
  -25.9015  -34.9488   23.5144 C   0  0  0  0  0  0
  -16.5348  -29.9075   23.6337 C   0  0  0  0  0  0
  -16.7258  -28.6487   23.0368 C   0  0  0  0  0  0
  -26.4452  -31.6619   25.0721 C   0  0  0  0  0  0
  -25.3731  -31.3749   26.1488 C   0  0  0  0  0  0
  -27.0252  -30.3057   24.6087 C   0  0  0  0  0  0
  -27.6048  -32.4330   25.7462 C   0  0  0  0  0  0
  -27.5564  -37.1794   24.8462 C   0  0  0  0  0  0
  -21.4130  -29.2998   22.3695 N   0  0  0  0  0  0
  -26.4271  -37.3805   23.9425 N   0  0  0  0  0  0
  -24.6636  -31.0828   22.0992 N   0  0  0  0  0  0
  -23.4172  -28.8233   23.3059 O   0  0  0  0  0  0
  -28.3861  -26.6723   20.0522 O   0  0  0  0  0  0
  -26.5606  -34.8937   22.4725 O   0  0  0  0  0  0
  -23.5312  -32.1416   23.7530 O   0  0  0  0  0  0
  -29.8452  -17.6853   21.8387 C   0  0  0  0  0  0
  -31.3286  -16.2093   23.0838 C   0  0  0  0  0  0
  -30.1615  -18.7674   22.6895 C   0  0  0  0  0  0
  -31.0355  -18.5392   23.7956 C   0  0  0  0  0  0
  -30.4207  -16.4146   22.0276 C   0  0  0  0  0  0
  -31.6203  -17.2611   23.9655 C   0  0  0  0  0  0
  -29.4891  -20.0874   22.4099 C   0  0  0  0  0  0
  -30.1452  -25.5616   21.3185 C   0  0  0  0  0  0
  -31.3246  -19.6002   24.8481 C   0  0  0  0  0  0
  -29.4334  -26.8896   21.0040 C   0  0  0  0  0  0
  -29.7810  -22.5616   22.3168 C   0  0  0  0  0  0
  -30.1860  -23.0873   20.9234 C   0  0  0  0  0  0
  -29.9656  -15.3332   21.2479 N   0  0  0  0  0  0
  -30.2351  -21.1890   22.5396 N   0  0  0  0  0  0
  -29.7154  -24.4554   20.6928 N   0  0  0  0  0  0
  -28.3255  -20.1189   22.0017 O   0  0  0  0  0  0
  -31.0619  -25.5339   22.1429 O   0  0  0  0  0  0
  -32.4528  -17.0176   25.0064 F   0  0  0  0  0  0
  -31.4713  -12.3869   19.1091 H   0  0  0  0  0  0
  -30.3348  -11.2517   19.7904 H   0  0  0  0  0  0
  -29.7163  -11.7753   17.4035 H   0  0  0  0  0  0
  -29.6568  -13.4782   17.7779 H   0  0  0  0  0  0
  -27.8184  -11.2857   18.8059 H   0  0  0  0  0  0
  -27.3602  -12.6236   17.7858 H   0  0  0  0  0  0
  -27.7204  -14.2294   19.5805 H   0  0  0  0  0  0
  -28.6743  -11.8745   21.2930 H   0  0  0  0  0  0
  -28.4539  -13.4764   21.8958 H   0  0  0  0  0  0
  -25.2772   -9.5680   22.4715 H   0  0  0  0  0  0
  -23.9978   -7.4649   22.7451 H   0  0  0  0  0  0
  -21.0799   -8.8811   19.8945 H   0  0  0  0  0  0
  -22.3659  -10.9707   19.6170 H   0  0  0  0  0  0
  -21.2054   -7.6162   23.9707 H   0  0  0  0  0  0
  -21.1469   -6.0525   25.9069 H   0  0  0  0  0  0
  -22.0585   -2.7594   23.2838 H   0  0  0  0  0  0
  -22.4245  -11.9867   22.4731 H   0  0  0  0  0  0
  -21.1282  -13.1285   22.2869 H   0  0  0  0  0  0
  -24.6776  -15.8378   20.5256 H   0  0  0  0  0  0
  -26.2800  -15.6135   20.0419 H   0  0  0  0  0  0
  -26.7110  -32.5593   23.1197 H   0  0  0  0  0  0
  -24.9925  -33.9768   25.0418 H   0  0  0  0  0  0
  -22.6891  -31.3071   21.4063 H   0  0  0  0  0  0
  -23.3710  -35.9670   23.3332 H   0  0  0  0  0  0
  -24.3545  -36.8907   22.2050 H   0  0  0  0  0  0
  -23.7221  -37.6537   23.6640 H   0  0  0  0  0  0
  -26.0195  -31.6171   20.5844 H   0  0  0  0  0  0
  -26.8166  -30.9173   21.9672 H   0  0  0  0  0  0
  -28.0989  -29.1780   21.1614 H   0  0  0  0  0  0
  -26.1198  -25.9951   19.0155 H   0  0  0  0  0  0
  -24.0085  -27.2880   19.0318 H   0  0  0  0  0  0
  -23.7032  -30.5868   19.3990 H   0  0  0  0  0  0
  -22.7394  -29.2243   19.8800 H   0  0  0  0  0  0
  -25.1248  -36.1986   25.0832 H   0  0  0  0  0  0
  -20.9958  -28.3220   24.1444 H   0  0  0  0  0  0
  -20.5596  -26.2262   23.3626 H   0  0  0  0  0  0
  -21.6619  -26.7373   22.1262 H   0  0  0  0  0  0
  -19.6872  -25.6297   21.1219 H   0  0  0  0  0  0
  -19.6657  -27.3212   20.6768 H   0  0  0  0  0  0
  -17.4165  -26.6669   21.4060 H   0  0  0  0  0  0
  -18.0314  -26.0047   22.9029 H   0  0  0  0  0  0
  -19.7939  -30.7247   24.2304 H   0  0  0  0  0  0
  -17.5016  -31.6256   24.5175 H   0  0  0  0  0  0
  -15.5356  -30.2993   23.7637 H   0  0  0  0  0  0
  -15.8660  -28.0808   22.7088 H   0  0  0  0  0  0
  -24.5901  -30.7079   25.7853 H   0  0  0  0  0  0
  -24.8921  -32.2916   26.4925 H   0  0  0  0  0  0
  -25.8103  -30.8948   27.0259 H   0  0  0  0  0  0
  -26.2771  -29.6842   24.1152 H   0  0  0  0  0  0
  -27.4004  -29.7281   25.4546 H   0  0  0  0  0  0
  -27.8621  -30.4346   23.9218 H   0  0  0  0  0  0
  -27.2683  -33.3620   26.2089 H   0  0  0  0  0  0
  -28.3834  -32.6923   25.0268 H   0  0  0  0  0  0
  -28.0754  -31.8429   26.5342 H   0  0  0  0  0  0
  -28.2616  -38.0061   24.7493 H   0  0  0  0  0  0
  -28.1020  -36.2598   24.6290 H   0  0  0  0  0  0
  -27.2293  -37.1454   25.8870 H   0  0  0  0  0  0
  -20.9295  -29.8673   21.6880 H   0  0  0  0  0  0
  -26.0157  -38.2880   24.1475 H   0  0  0  0  0  0
  -29.1445  -17.8366   21.0276 H   0  0  0  0  0  0
  -31.7668  -15.2374   23.2571 H   0  0  0  0  0  0
  -31.9167  -20.4119   24.4324 H   0  0  0  0  0  0
  -31.8811  -19.1999   25.6958 H   0  0  0  0  0  0
  -30.3941  -20.0083   25.2420 H   0  0  0  0  0  0
  -30.1523  -27.6031   20.6017 H   0  0  0  0  0  0
  -29.0613  -27.2797   21.9516 H   0  0  0  0  0  0
  -28.7012  -22.6381   22.4502 H   0  0  0  0  0  0
  -30.2221  -23.1821   23.0974 H   0  0  0  0  0  0
  -29.7583  -22.4460   20.1487 H   0  0  0  0  0  0
  -31.2714  -23.0427   20.7992 H   0  0  0  0  0  0
  -28.9915  -15.0937   21.3581 H   0  0  0  0  0  0
  -31.1847  -21.0576   22.8569 H   0  0  0  0  0  0
  -28.9828  -24.5922   20.0092 H   0  0  0  0  0  0
  1 25  1  0  0  0
  1 30  2  0  0  0
  1 83  1  0  0  0
  2  3  1  0  0  0
  2 25  1  0  0  0
  2 89  1  0  0  0
  2 90  1  0  0  0
  3  4  1  0  0  0
  3 91  1  0  0  0
  3 92  1  0  0  0
  4  5  1  0  0  0
  4 93  1  0  0  0
  4 94  1  0  0  0
  5  6  1  0  0  0
  5 26  1  0  0  0
  5 95  1  0  0  0
  6 25  1  0  0  0
  6 96  1  0  0  0
  6 97  1  0  0  0
  7  8  2  0  0  0
  7 26  1  0  0  0
  7 29  1  0  0  0
  8  9  1  0  0  0
  8 22  1  0  0  0
  9 10  1  0  0  0
  9 27  2  0  0  0
 10 11  2  0  0  0
 10 15  1  0  0  0
 11 12  1  0  0  0
 11 98  1  0  0  0
 12 13  2  0  0  0
 12 99  1  0  0  0
 13 14  1  0  0  0
 13 31  1  0  0  0
 14 15  2  0  0  0
 14100  1  0  0  0
 15101  1  0  0  0
 16 17  2  0  0  0
 16 21  1  0  0  0
 16 31  1  0  0  0
 17 18  1  0  0  0
 17102  1  0  0  0
 18 19  2  0  0  0
 18103  1  0  0  0
 19 20  1  0  0  0
 19 24  1  0  0  0
 20 21  2  0  0  0
 20104  1  0  0  0
 21 23  1  0  0  0
 22 28  1  0  0  0
 22 32  2  0  0  0
 26 27  1  0  0  0
 28105  1  0  0  0
 28106  1  0  0  0
 29107  1  0  0  0
 29108  1  0  0  0
 33 34  1  0  0  0
 33 66  1  0  0  0
 33 70  2  0  0  0
 34 36  1  0  0  0
 34 59  1  0  0  0
 34109  1  0  0  0
 35 44  2  0  0  0
 35 45  1  0  0  0
 35 68  1  0  0  0
 36 56  1  0  0  0
 36110  1  0  0  0
 37 39  1  0  0  0
 37 47  1  0  0  0
 37 66  1  0  0  0
 37111  1  0  0  0
 38 43  2  0  0  0
 38 46  1  0  0  0
 38 47  1  0  0  0
 39 64  1  0  0  0
 39 67  2  0  0  0
 40 52  1  0  0  0
 40 53  2  0  0  0
 40 58  1  0  0  0
 41112  1  0  0  0
 41113  1  0  0  0
 41114  1  0  0  0
 41 48  1  0  0  0
 42 43  1  0  0  0
 42 66  1  0  0  0
 42115  1  0  0  0
 42116  1  0  0  0
 43 44  1  0  0  0
 44117  1  0  0  0
 45 46  2  0  0  0
 45118  1  0  0  0
 46119  1  0  0  0
 47120  1  0  0  0
 47121  1  0  0  0
 48 56  1  0  0  0
 48 65  1  0  0  0
 48122  1  0  0  0
 49 50  1  0  0  0
 49 53  1  0  0  0
 49 64  1  0  0  0
 49123  1  0  0  0
 50 51  1  0  0  0
 50124  1  0  0  0
 50125  1  0  0  0
 51 52  1  0  0  0
 51126  1  0  0  0
 51127  1  0  0  0
 52128  1  0  0  0
 52129  1  0  0  0
 53 54  1  0  0  0
 54 55  2  0  0  0
 54130  1  0  0  0
 55 57  1  0  0  0
 55131  1  0  0  0
 56 69  2  0  0  0
 57 58  2  0  0  0
 57132  1  0  0  0
 58133  1  0  0  0
 59 60  1  0  0  0
 59 61  1  0  0  0
 59 62  1  0  0  0
 60134  1  0  0  0
 60135  1  0  0  0
 60136  1  0  0  0
 61137  1  0  0  0
 61138  1  0  0  0
 61139  1  0  0  0
 62140  1  0  0  0
 62141  1  0  0  0
 62142  1  0  0  0
 63 65  1  0  0  0
 63143  1  0  0  0
 63144  1  0  0  0
 63145  1  0  0  0
 64146  1  0  0  0
 65147  1  0  0  0
 68 80  1  0  0  0
 71 73  2  0  0  0
 71 75  1  0  0  0
 71148  1  0  0  0
 72 75  2  0  0  0
 72 76  1  0  0  0
 72149  1  0  0  0
 73 74  1  0  0  0
 73 77  1  0  0  0
 74 76  2  0  0  0
 74 79  1  0  0  0
 75 83  1  0  0  0
 76 88  1  0  0  0
 77 84  1  0  0  0
 77 86  2  0  0  0
 78 80  1  0  0  0
 78 85  1  0  0  0
 78 87  2  0  0  0
 79150  1  0  0  0
 79151  1  0  0  0
 79152  1  0  0  0
 80153  1  0  0  0
 80154  1  0  0  0
 81 82  1  0  0  0
 81 84  1  0  0  0
 81155  1  0  0  0
 81156  1  0  0  0
 82 85  1  0  0  0
 82157  1  0  0  0
 82158  1  0  0  0
 83159  1  0  0  0
 84160  1  0  0  0
 85161  1  0  0  0
M  ISO  4   1 100  68 101  80 101  83 100
M  END
> <chiral flag>
0

> <version>
0

> <s_m_source_file>
/data/baiqing/PycharmProjects/Reinvent-master-3.2/result/LINK_invent/BTK/process_docking_weight1_custom_product_contain_oxygen_bond_distance_aromatic_linkinvent_7_9_3/rearranged_h_0072.sdf

> <i_m_source_file_index>
2

> <r_mmod_Potential_Energy-OPLS-2005>
-210.154357910156

> <r_mmod_Stretch_Energy-OPLS-2005>
34.1962394714355

> <r_mmod_Bend_Energy-OPLS-2005>
99.7903594970703

> <r_mmod_Torsional_Energy-OPLS-2005>
234.57633972168

> <r_mmod_Improper_Torsional_Energy-OPLS-2005>
5.53677940368652

> <r_mmod_Van_der_Waal_Energy-OPLS-2005>
166.874893188477

> <r_mmod_Electrostatic_Energy-OPLS-2005>
-515.976806640625

> <r_mmod_Solvation_Energy-OPLS-2005>
-244.26985168457

> <b_mmod_Minimization_Converged-OPLS-2005>
0

> <r_mmod_RMS_Derivative-OPLS-2005>
5.13095283508301

$$$$
2
                    3D
 Structure written by MMmdl.
159167  0  0  1  0            999 V2000
  -30.5348  -14.9972   20.3968 C   0  0  0  0  0  0
  -30.4371  -12.6215   19.4991 C   0  0  0  0  0  0
  -29.5213  -12.5340   18.2567 C   0  0  0  0  0  0
  -28.0565  -12.3130   18.6775 C   0  0  0  0  0  0
  -27.6243  -13.2554   19.8311 C   0  0  2  0  0  0
  -28.6667  -13.3156   20.9668 C   0  0  0  0  0  0
  -25.2442  -13.8230   20.5718 C   0  0  0  0  0  0
  -24.1768  -13.0440   20.9230 C   0  0  0  0  0  0
  -24.6397  -11.6930   20.8752 C   0  0  0  0  0  0
  -23.9085  -10.4295   21.0405 C   0  0  0  0  0  0
  -24.3632   -9.4209   21.9183 C   0  0  0  0  0  0
  -23.6302   -8.2246   22.0754 C   0  0  0  0  0  0
  -22.4283   -8.0284   21.3545 C   0  0  0  0  0  0
  -21.9921   -9.0260   20.4647 C   0  0  0  0  0  0
  -22.7255  -10.2136   20.3056 C   0  0  0  0  0  0
  -21.6856   -6.0738   22.5279 C   0  0  0  0  0  0
  -21.4017   -6.5641   23.8212 C   0  0  0  0  0  0
  -21.3659   -5.6793   24.9174 C   0  0  0  0  0  0
  -21.6043   -4.3056   24.7224 C   0  0  0  0  0  0
  -21.8819   -3.8148   23.4346 C   0  0  0  0  0  0
  -21.9194   -4.6966   22.3402 C   0  0  0  0  0  0
  -22.7788  -13.5204   21.1886 C   0  0  0  0  0  0
  -22.1662   -4.2151   21.0980 F   0  0  0  0  0  0
  -21.5627   -3.4540   25.7737 F   0  0  0  0  0  0
  -29.9338  -13.7359   20.3566 N   0  0  0  0  0  0
  -26.2866  -12.9475   20.3226 N   0  0  0  0  0  0
  -25.9330  -11.6596   20.5730 N   0  0  0  0  0  0
  -22.0444  -12.8189   22.0444 N   0  0  0  0  0  0
  -25.4084  -15.1963   20.4162 N   0  0  0  0  0  0
  -31.7534  -15.0169   20.2031 O   0  0  0  0  0  0
  -21.6644   -6.8884   21.4242 O   0  0  0  0  0  0
  -22.3465  -14.5506   20.6731 O   0  0  0  0  0  0
  -24.6467  -31.8405   23.1848 C   0  0  0  0  0  0
  -25.9224  -32.4675   23.8252 C   0  0  1  0  0  0
  -27.2148  -27.0978   20.1672 C   0  0  0  0  0  0
  -25.5959  -33.8482   24.2168 N   0  0  0  0  0  0
  -23.4523  -30.4581   21.5313 C   0  0  2  0  0  0
  -24.9023  -28.8742   20.1150 C   0  0  0  0  0  0
  -22.7584  -29.4529   22.4849 C   0  0  0  0  0  0
  -18.0308  -28.1396   22.8476 C   0  0  0  0  0  0
  -24.1492  -36.7246   23.2643 C   0  0  0  0  0  0
  -26.0105  -30.7028   21.3886 C   0  0  0  0  0  0
  -26.0816  -29.3086   20.7343 C   0  0  0  0  0  0
  -27.2410  -28.4390   20.7374 C   0  0  0  0  0  0
  -26.0113  -26.7725   19.5073 C   0  0  0  0  0  0
  -24.8819  -27.6208   19.4841 C   0  0  0  0  0  0
  -23.6818  -29.7828   20.1529 C   0  0  0  0  0  0
  -25.4126  -36.3020   24.0312 C   0  0  1  0  0  0
  -20.5922  -28.3726   23.1226 C   0  0  2  0  0  0
  -20.6790  -26.9424   22.5404 C   0  0  0  0  0  0
  -19.5764  -26.6379   21.5212 C   0  0  0  0  0  0
  -18.1946  -26.7933   22.1623 C   0  0  0  0  0  0
  -19.1565  -28.8879   23.2842 C   0  0  0  0  0  0
  -18.9480  -30.1475   23.8869 C   0  0  0  0  0  0
  -17.6476  -30.6591   24.0558 C   0  0  0  0  0  0
  -25.9079  -34.9397   23.5052 C   0  0  0  0  0  0
  -16.5367  -29.9082   23.6336 C   0  0  0  0  0  0
  -16.7292  -28.6502   23.0356 C   0  0  0  0  0  0
  -26.4532  -31.6557   25.0709 C   0  0  0  0  0  0
  -25.3708  -31.3762   26.1399 C   0  0  0  0  0  0
  -27.0402  -30.2945   24.6320 C   0  0  0  0  0  0
  -27.6055  -32.4330   25.7499 C   0  0  0  0  0  0
  -27.5575  -37.1781   24.8466 C   0  0  0  0  0  0
  -21.4272  -29.3046   22.3596 N   0  0  0  0  0  0
  -26.4286  -37.3737   23.9408 N   0  0  0  0  0  0
  -24.7233  -31.0229   22.0898 N   0  0  0  0  0  0
  -23.4209  -28.8083   23.3018 O   0  0  0  0  0  0
  -28.2633  -26.0967   20.1837 O   0  0  0  0  0  0
  -26.5669  -34.8902   22.4634 O   0  0  0  0  0  0
  -23.5578  -32.1298   23.7046 O   0  0  0  0  0  0
  -30.1301  -22.7237   20.3015 C   0  0  0  0  0  0
  -28.9853  -19.0062   20.4285 C   0  0  0  0  0  0
  -30.4290  -21.1912   20.1641 C   0  0  0  0  0  0
  -28.1304  -21.5929   20.4323 C   0  0  0  0  0  0
  -28.6705  -23.1000   20.0246 C   0  0  1  0  0  0
  -31.9571  -17.5715   18.3279 C   0  0  0  0  0  0
  -29.5480  -17.1543   17.6432 C   0  0  0  0  0  0
  -28.0108  -24.5887   20.5717 C   0  0  0  0  0  0
  -30.0604  -17.7575   20.1186 C   0  0  2  0  0  0
  -30.4824  -17.8997   18.6168 C   0  0  0  0  0  0
  -29.1703  -20.4358   20.3281 N   0  0  0  0  0  0
  -29.7651  -16.2068   20.4206 N   0  0  0  0  0  0
  -30.9972  -23.5503   20.5956 O   0  0  0  0  0  0
  -27.8590  -18.6128   20.7392 O   0  0  0  0  0  0
  -31.4691  -12.7828   19.1839 H   0  0  0  0  0  0
  -30.4379  -11.6797   20.0501 H   0  0  0  0  0  0
  -29.8486  -11.7281   17.5985 H   0  0  0  0  0  0
  -29.6015  -13.4552   17.6775 H   0  0  0  0  0  0
  -27.9612  -11.2746   18.9970 H   0  0  0  0  0  0
  -27.3925  -12.4300   17.8202 H   0  0  0  0  0  0
  -27.5767  -14.2504   19.3874 H   0  0  0  0  0  0
  -28.7670  -12.3506   21.4656 H   0  0  0  0  0  0
  -28.3602  -14.0320   21.7307 H   0  0  0  0  0  0
  -25.2774   -9.5684   22.4762 H   0  0  0  0  0  0
  -24.0008   -7.4638   22.7475 H   0  0  0  0  0  0
  -21.0851   -8.8782   19.8954 H   0  0  0  0  0  0
  -22.3712  -10.9677   19.6168 H   0  0  0  0  0  0
  -21.2012   -7.6149   23.9717 H   0  0  0  0  0  0
  -21.1481   -6.0524   25.9077 H   0  0  0  0  0  0
  -22.0597   -2.7610   23.2846 H   0  0  0  0  0  0
  -22.4072  -11.9859   22.4836 H   0  0  0  0  0  0
  -21.1059  -13.1206   22.2652 H   0  0  0  0  0  0
  -24.6387  -15.8452   20.5387 H   0  0  0  0  0  0
  -26.2527  -15.6477   20.0896 H   0  0  0  0  0  0
  -26.7290  -32.5272   23.0978 H   0  0  0  0  0  0
  -25.0081  -33.9590   25.0299 H   0  0  0  0  0  0
  -22.7567  -31.2848   21.3727 H   0  0  0  0  0  0
  -23.3759  -35.9572   23.3290 H   0  0  0  0  0  0
  -24.3575  -36.8897   22.2061 H   0  0  0  0  0  0
  -23.7243  -37.6435   23.6693 H   0  0  0  0  0  0
  -26.1696  -31.4534   20.6133 H   0  0  0  0  0  0
  -26.8793  -30.7557   22.0330 H   0  0  0  0  0  0
  -28.1425  -28.7706   21.2329 H   0  0  0  0  0  0
  -25.9264  -25.8160   19.0119 H   0  0  0  0  0  0
  -23.9842  -27.2849   18.9833 H   0  0  0  0  0  0
  -23.8241  -30.5549   19.3959 H   0  0  0  0  0  0
  -22.7953  -29.2280   19.8404 H   0  0  0  0  0  0
  -25.1316  -36.1842   25.0804 H   0  0  0  0  0  0
  -21.0013  -28.3319   24.1348 H   0  0  0  0  0  0
  -20.5677  -26.2340   23.3627 H   0  0  0  0  0  0
  -21.6656  -26.7422   22.1207 H   0  0  0  0  0  0
  -19.6924  -25.6282   21.1260 H   0  0  0  0  0  0
  -19.6701  -27.3173   20.6729 H   0  0  0  0  0  0
  -17.4214  -26.6675   21.4028 H   0  0  0  0  0  0
  -18.0346  -26.0082   22.9026 H   0  0  0  0  0  0
  -19.7956  -30.7300   24.2224 H   0  0  0  0  0  0
  -17.5028  -31.6268   24.5165 H   0  0  0  0  0  0
  -15.5366  -30.2973   23.7675 H   0  0  0  0  0  0
  -15.8693  -28.0810   22.7085 H   0  0  0  0  0  0
  -24.5892  -30.7103   25.7722 H   0  0  0  0  0  0
  -24.8892  -32.2949   26.4756 H   0  0  0  0  0  0
  -25.7982  -30.8982   27.0222 H   0  0  0  0  0  0
  -26.3029  -29.6659   24.1314 H   0  0  0  0  0  0
  -27.3983  -29.7258   25.4911 H   0  0  0  0  0  0
  -27.8949  -30.4167   23.9663 H   0  0  0  0  0  0
  -27.2642  -33.3653   26.2011 H   0  0  0  0  0  0
  -28.3901  -32.6856   25.0354 H   0  0  0  0  0  0
  -28.0682  -31.8501   26.5474 H   0  0  0  0  0  0
  -28.2584  -38.0084   24.7508 H   0  0  0  0  0  0
  -28.1079  -36.2613   24.6296 H   0  0  0  0  0  0
  -27.2291  -37.1431   25.8868 H   0  0  0  0  0  0
  -20.9489  -29.8752   21.6764 H   0  0  0  0  0  0
  -26.0149  -38.2803   24.1410 H   0  0  0  0  0  0
  -31.1506  -20.8862   20.9222 H   0  0  0  0  0  0
  -30.8680  -21.0036   19.1852 H   0  0  0  0  0  0
  -27.2703  -21.3392   19.8117 H   0  0  0  0  0  0
  -27.7612  -21.6112   21.4588 H   0  0  0  0  0  0
  -28.6072  -23.1511   18.9379 H   0  0  0  0  0  0
  -32.2550  -17.9719   17.3581 H   0  0  0  0  0  0
  -32.1460  -16.5014   18.2888 H   0  0  0  0  0  0
  -32.6217  -18.0092   19.0734 H   0  0  0  0  0  0
  -29.7773  -17.4132   16.6090 H   0  0  0  0  0  0
  -28.5032  -17.4132   17.8182 H   0  0  0  0  0  0
  -29.6411  -16.0718   17.7302 H   0  0  0  0  0  0
  -28.1745  -24.5827   21.6495 H   0  0  0  0  0  0
  -26.9349  -24.4421   20.4903 H   0  0  0  0  0  0
  -30.9213  -18.0094   20.7389 H   0  0  0  0  0  0
  -30.3959  -18.9512   18.3446 H   0  0  0  0  0  0
  -28.7838  -16.0426   20.5867 H   0  0  0  0  0  0
  1 25  1  0  0  0
  1 30  2  0  0  0
  1 82  1  0  0  0
  2  3  1  0  0  0
  2 25  1  0  0  0
  2 85  1  0  0  0
  2 86  1  0  0  0
  3  4  1  0  0  0
  3 87  1  0  0  0
  3 88  1  0  0  0
  4  5  1  0  0  0
  4 89  1  0  0  0
  4 90  1  0  0  0
  5  6  1  0  0  0
  5 26  1  0  0  0
  5 91  1  0  0  0
  6 25  1  0  0  0
  6 92  1  0  0  0
  6 93  1  0  0  0
  7  8  2  0  0  0
  7 26  1  0  0  0
  7 29  1  0  0  0
  8  9  1  0  0  0
  8 22  1  0  0  0
  9 10  1  0  0  0
  9 27  2  0  0  0
 10 11  2  0  0  0
 10 15  1  0  0  0
 11 12  1  0  0  0
 11 94  1  0  0  0
 12 13  2  0  0  0
 12 95  1  0  0  0
 13 14  1  0  0  0
 13 31  1  0  0  0
 14 15  2  0  0  0
 14 96  1  0  0  0
 15 97  1  0  0  0
 16 17  2  0  0  0
 16 21  1  0  0  0
 16 31  1  0  0  0
 17 18  1  0  0  0
 17 98  1  0  0  0
 18 19  2  0  0  0
 18 99  1  0  0  0
 19 20  1  0  0  0
 19 24  1  0  0  0
 20 21  2  0  0  0
 20100  1  0  0  0
 21 23  1  0  0  0
 22 28  1  0  0  0
 22 32  2  0  0  0
 26 27  1  0  0  0
 28101  1  0  0  0
 28102  1  0  0  0
 29103  1  0  0  0
 29104  1  0  0  0
 33 34  1  0  0  0
 33 66  1  0  0  0
 33 70  2  0  0  0
 34 36  1  0  0  0
 34 59  1  0  0  0
 34105  1  0  0  0
 35 44  2  0  0  0
 35 45  1  0  0  0
 35 68  1  0  0  0
 36 56  1  0  0  0
 36106  1  0  0  0
 37 39  1  0  0  0
 37 47  1  0  0  0
 37 66  1  0  0  0
 37107  1  0  0  0
 38 43  2  0  0  0
 38 46  1  0  0  0
 38 47  1  0  0  0
 39 64  1  0  0  0
 39 67  2  0  0  0
 40 52  1  0  0  0
 40 53  2  0  0  0
 40 58  1  0  0  0
 41108  1  0  0  0
 41109  1  0  0  0
 41110  1  0  0  0
 41 48  1  0  0  0
 42 43  1  0  0  0
 42 66  1  0  0  0
 42111  1  0  0  0
 42112  1  0  0  0
 43 44  1  0  0  0
 44113  1  0  0  0
 45 46  2  0  0  0
 45114  1  0  0  0
 46115  1  0  0  0
 47116  1  0  0  0
 47117  1  0  0  0
 48 56  1  0  0  0
 48 65  1  0  0  0
 48118  1  0  0  0
 49 50  1  0  0  0
 49 53  1  0  0  0
 49 64  1  0  0  0
 49119  1  0  0  0
 50 51  1  0  0  0
 50120  1  0  0  0
 50121  1  0  0  0
 51 52  1  0  0  0
 51122  1  0  0  0
 51123  1  0  0  0
 52124  1  0  0  0
 52125  1  0  0  0
 53 54  1  0  0  0
 54 55  2  0  0  0
 54126  1  0  0  0
 55 57  1  0  0  0
 55127  1  0  0  0
 56 69  2  0  0  0
 57 58  2  0  0  0
 57128  1  0  0  0
 58129  1  0  0  0
 59 60  1  0  0  0
 59 61  1  0  0  0
 59 62  1  0  0  0
 60130  1  0  0  0
 60131  1  0  0  0
 60132  1  0  0  0
 61133  1  0  0  0
 61134  1  0  0  0
 61135  1  0  0  0
 62136  1  0  0  0
 62137  1  0  0  0
 62138  1  0  0  0
 63 65  1  0  0  0
 63139  1  0  0  0
 63140  1  0  0  0
 63141  1  0  0  0
 64142  1  0  0  0
 65143  1  0  0  0
 68 78  1  0  0  0
 71 73  1  0  0  0
 71 75  1  0  0  0
 71 83  2  0  0  0
 72 79  1  0  0  0
 72 81  1  0  0  0
 72 84  2  0  0  0
 73 81  1  0  0  0
 73144  1  0  0  0
 73145  1  0  0  0
 74 75  1  0  0  0
 74 81  1  0  0  0
 74146  1  0  0  0
 74147  1  0  0  0
 75 78  1  0  0  0
 75148  1  0  0  0
 76149  1  0  0  0
 76150  1  0  0  0
 76151  1  0  0  0
 76 80  1  0  0  0
 77 80  1  0  0  0
 77152  1  0  0  0
 77153  1  0  0  0
 77154  1  0  0  0
 78155  1  0  0  0
 78156  1  0  0  0
 79 80  1  0  0  0
 79 82  1  0  0  0
 79157  1  0  0  0
 80158  1  0  0  0
 82159  1  0  0  0
M  ISO  4   1 100  68 101  78 101  82 100
M  END
> <chiral flag>
0

> <version>
0

> <s_m_source_file>
/data/baiqing/PycharmProjects/Reinvent-master-3.2/result/LINK_invent/BTK/process_docking_weight1_custom_product_contain_oxygen_bond_distance_aromatic_linkinvent_7_9_3/rearranged_h_0072.sdf

> <i_m_source_file_index>
3

> <r_mmod_Potential_Energy-OPLS-2005>
510.043640136719

> <r_mmod_Stretch_Energy-OPLS-2005>
296.414306640625

> <r_mmod_Bend_Energy-OPLS-2005>
321.014923095703

> <r_mmod_Torsional_Energy-OPLS-2005>
258.410675048828

> <r_mmod_Improper_Torsional_Energy-OPLS-2005>
5.23082399368286

> <r_mmod_Van_der_Waal_Energy-OPLS-2005>
102.920425415039

> <r_mmod_Electrostatic_Energy-OPLS-2005>
-455.909576416016

> <r_mmod_Solvation_Energy-OPLS-2005>
-244.866302490234

> <b_mmod_Minimization_Converged-OPLS-2005>
0

> <r_mmod_RMS_Derivative-OPLS-2005>
0.228448122739792

$$$$
3
                    3D
 Structure written by MMmdl.
160169  0  0  1  0            999 V2000
  -30.6436  -14.7144   20.5742 C   0  0  0  0  0  0
  -30.4276  -12.4734   19.4661 C   0  0  0  0  0  0
  -29.4898  -12.5553   18.2417 C   0  0  0  0  0  0
  -28.0303  -12.3424   18.6730 C   0  0  0  0  0  0
  -27.6450  -13.2347   19.8762 C   0  0  2  0  0  0
  -28.6857  -13.1576   21.0137 C   0  0  0  0  0  0
  -25.2511  -13.8228   20.5752 C   0  0  0  0  0  0
  -24.1780  -13.0470   20.9172 C   0  0  0  0  0  0
  -24.6385  -11.6947   20.8776 C   0  0  0  0  0  0
  -23.9088  -10.4303   21.0424 C   0  0  0  0  0  0
  -24.3652   -9.4197   21.9167 C   0  0  0  0  0  0
  -23.6323   -8.2236   22.0731 C   0  0  0  0  0  0
  -22.4294   -8.0282   21.3544 C   0  0  0  0  0  0
  -21.9960   -9.0256   20.4638 C   0  0  0  0  0  0
  -22.7297  -10.2126   20.3042 C   0  0  0  0  0  0
  -21.6866   -6.0726   22.5249 C   0  0  0  0  0  0
  -21.4036   -6.5626   23.8176 C   0  0  0  0  0  0
  -21.3658   -5.6782   24.9137 C   0  0  0  0  0  0
  -21.6063   -4.3042   24.7205 C   0  0  0  0  0  0
  -21.8837   -3.8132   23.4329 C   0  0  0  0  0  0
  -21.9215   -4.6951   22.3383 C   0  0  0  0  0  0
  -22.7814  -13.5235   21.1874 C   0  0  0  0  0  0
  -22.1662   -4.2149   21.0951 F   0  0  0  0  0  0
  -21.5650   -3.4513   25.7706 F   0  0  0  0  0  0
  -29.9957  -13.5029   20.4448 N   0  0  0  0  0  0
  -26.2959  -12.9436   20.3494 N   0  0  0  0  0  0
  -25.9332  -11.6577   20.5868 N   0  0  0  0  0  0
  -22.0546  -12.8134   22.0415 N   0  0  0  0  0  0
  -25.4388  -15.1944   20.4225 N   0  0  0  0  0  0
  -31.7513  -14.8732   20.0485 O   0  0  0  0  0  0
  -21.6663   -6.8878   21.4215 O   0  0  0  0  0  0
  -22.3442  -14.5548   20.6759 O   0  0  0  0  0  0
  -24.6325  -31.8552   23.2000 C   0  0  0  0  0  0
  -25.9180  -32.4751   23.8327 C   0  0  1  0  0  0
  -27.2227  -27.2576   20.1474 C   0  0  0  0  0  0
  -25.5961  -33.8554   24.2230 N   0  0  0  0  0  0
  -23.4273  -30.4772   21.5390 C   0  0  2  0  0  0
  -24.8791  -28.9140   20.1195 C   0  0  0  0  0  0
  -22.7473  -29.4663   22.4911 C   0  0  0  0  0  0
  -18.0242  -28.1404   22.8445 C   0  0  0  0  0  0
  -24.1487  -36.7266   23.2635 C   0  0  0  0  0  0
  -25.9742  -30.7646   21.3850 C   0  0  0  0  0  0
  -26.0501  -29.3880   20.7232 C   0  0  0  0  0  0
  -27.2290  -28.5759   20.7170 C   0  0  0  0  0  0
  -26.0263  -26.8355   19.5379 C   0  0  0  0  0  0
  -24.8722  -27.6479   19.5146 C   0  0  0  0  0  0
  -23.6530  -29.8042   20.1572 C   0  0  0  0  0  0
  -25.4123  -36.3046   24.0303 C   0  0  1  0  0  0
  -20.5836  -28.3775   23.1240 C   0  0  2  0  0  0
  -20.6720  -26.9492   22.5392 C   0  0  0  0  0  0
  -19.5697  -26.6367   21.5225 C   0  0  0  0  0  0
  -18.1893  -26.7925   22.1636 C   0  0  0  0  0  0
  -19.1484  -28.8910   23.2820 C   0  0  0  0  0  0
  -18.9386  -30.1498   23.8838 C   0  0  0  0  0  0
  -17.6376  -30.6588   24.0547 C   0  0  0  0  0  0
  -25.9084  -34.9435   23.5075 C   0  0  0  0  0  0
  -16.5289  -29.9060   23.6303 C   0  0  0  0  0  0
  -16.7217  -28.6498   23.0295 C   0  0  0  0  0  0
  -26.4556  -31.6605   25.0748 C   0  0  0  0  0  0
  -25.3775  -31.3760   26.1451 C   0  0  0  0  0  0
  -27.0423  -30.2981   24.6374 C   0  0  0  0  0  0
  -27.6060  -32.4413   25.7534 C   0  0  0  0  0  0
  -27.5568  -37.1798   24.8457 C   0  0  0  0  0  0
  -21.4183  -29.3094   22.3626 N   0  0  0  0  0  0
  -26.4285  -37.3762   23.9404 N   0  0  0  0  0  0
  -24.6951  -31.0514   22.0977 N   0  0  0  0  0  0
  -23.4157  -28.8258   23.3073 O   0  0  0  0  0  0
  -28.3205  -26.3700   20.1514 O   0  0  0  0  0  0
  -26.5650  -34.8913   22.4638 O   0  0  0  0  0  0
  -23.5498  -32.1387   23.7338 O   0  0  0  0  0  0
  -28.3309  -19.1767   21.3801 C   0  0  0  0  0  0
  -30.4583  -17.9538   20.1233 C   0  0  0  0  0  0
  -29.0840  -20.0584   20.5434 C   0  0  0  0  0  0
  -28.6079  -17.7862   21.6066 C   0  0  0  0  0  0
  -29.7078  -17.1083   20.9907 C   0  0  0  0  0  0
  -30.1659  -19.3525   19.9166 C   0  0  0  0  0  0
  -27.6928  -22.3545   20.7996 C   0  0  0  0  0  0
  -29.6162  -22.6279   20.1663 C   0  0  0  0  0  0
  -28.3459  -23.5820   20.0198 C   0  0  2  0  0  0
  -27.6703  -23.6934   18.6459 C   0  0  0  0  0  0
  -30.5498  -15.5654   22.7608 C   0  0  0  0  0  0
  -28.1697  -25.0079   20.7799 C   0  0  0  0  0  0
  -28.6944  -21.4890   20.3424 N   0  0  0  0  0  0
  -27.7468  -17.0932   22.4629 N   0  0  0  0  0  0
  -30.0901  -15.7103   21.3681 N   0  0  0  0  0  0
  -26.7589  -22.1741   21.5594 O   0  0  0  0  0  0
  -30.9589  -20.0373   19.0573 F   0  0  0  0  0  0
  -31.4573  -12.6220   19.1384 H   0  0  0  0  0  0
  -30.3983  -11.4832   19.9252 H   0  0  0  0  0  0
  -29.7729  -11.8214   17.4878 H   0  0  0  0  0  0
  -29.5922  -13.5355   17.7748 H   0  0  0  0  0  0
  -27.9132  -11.2918   18.9455 H   0  0  0  0  0  0
  -27.3492  -12.5216   17.8397 H   0  0  0  0  0  0
  -27.6488  -14.2621   19.5095 H   0  0  0  0  0  0
  -28.7108  -12.1680   21.4684 H   0  0  0  0  0  0
  -28.3987  -13.8414   21.8127 H   0  0  0  0  0  0
  -25.2823   -9.5632   22.4707 H   0  0  0  0  0  0
  -24.0057   -7.4604   22.7417 H   0  0  0  0  0  0
  -21.0916   -8.8776   19.8908 H   0  0  0  0  0  0
  -22.3809  -10.9651   19.6109 H   0  0  0  0  0  0
  -21.2017   -7.6134   23.9674 H   0  0  0  0  0  0
  -21.1467   -6.0504   25.9044 H   0  0  0  0  0  0
  -22.0639   -2.7611   23.2806 H   0  0  0  0  0  0
  -22.4278  -11.9781   22.4658 H   0  0  0  0  0  0
  -21.1157  -13.1039   22.2741 H   0  0  0  0  0  0
  -24.7218  -15.8865   20.6076 H   0  0  0  0  0  0
  -26.3612  -15.6061   20.3381 H   0  0  0  0  0  0
  -26.7230  -32.5408   23.1043 H   0  0  0  0  0  0
  -24.9997  -33.9688   25.0286 H   0  0  0  0  0  0
  -22.7225  -31.2978   21.3873 H   0  0  0  0  0  0
  -23.3773  -35.9585   23.3332 H   0  0  0  0  0  0
  -24.3520  -36.8891   22.2040 H   0  0  0  0  0  0
  -23.7260  -37.6470   23.6673 H   0  0  0  0  0  0
  -26.1239  -31.5325   20.6252 H   0  0  0  0  0  0
  -26.8427  -30.8002   22.0317 H   0  0  0  0  0  0
  -28.1322  -28.9407   21.1865 H   0  0  0  0  0  0
  -25.9763  -25.8517   19.0936 H   0  0  0  0  0  0
  -23.9682  -27.2815   19.0453 H   0  0  0  0  0  0
  -23.7849  -30.5786   19.4018 H   0  0  0  0  0  0
  -22.7701  -29.2408   19.8501 H   0  0  0  0  0  0
  -25.1333  -36.1831   25.0800 H   0  0  0  0  0  0
  -20.9865  -28.3373   24.1390 H   0  0  0  0  0  0
  -20.5620  -26.2405   23.3606 H   0  0  0  0  0  0
  -21.6587  -26.7500   22.1213 H   0  0  0  0  0  0
  -19.6851  -25.6240   21.1363 H   0  0  0  0  0  0
  -19.6605  -27.3091   20.6668 H   0  0  0  0  0  0
  -17.4156  -26.6612   21.4049 H   0  0  0  0  0  0
  -18.0313  -26.0097   22.9072 H   0  0  0  0  0  0
  -19.7844  -30.7338   24.2202 H   0  0  0  0  0  0
  -17.4896  -31.6239   24.5167 H   0  0  0  0  0  0
  -15.5273  -30.2926   23.7635 H   0  0  0  0  0  0
  -15.8622  -28.0810   22.7015 H   0  0  0  0  0  0
  -24.5893  -30.7193   25.7749 H   0  0  0  0  0  0
  -24.9058  -32.2946   26.4943 H   0  0  0  0  0  0
  -25.8077  -30.8837   27.0177 H   0  0  0  0  0  0
  -26.3039  -29.6671   24.1424 H   0  0  0  0  0  0
  -27.3996  -29.7321   25.4992 H   0  0  0  0  0  0
  -27.8968  -30.4147   23.9709 H   0  0  0  0  0  0
  -27.2570  -33.3644   26.2161 H   0  0  0  0  0  0
  -28.3841  -32.7130   25.0396 H   0  0  0  0  0  0
  -28.0791  -31.8567   26.5425 H   0  0  0  0  0  0
  -28.2603  -38.0079   24.7494 H   0  0  0  0  0  0
  -28.1052  -36.2616   24.6310 H   0  0  0  0  0  0
  -27.2275  -37.1476   25.8857 H   0  0  0  0  0  0
  -20.9433  -29.8753   21.6715 H   0  0  0  0  0  0
  -26.0153  -38.2831   24.1434 H   0  0  0  0  0  0
  -27.4830  -19.5941   21.9010 H   0  0  0  0  0  0
  -31.3222  -17.5408   19.6217 H   0  0  0  0  0  0
  -30.2085  -22.8066   21.0675 H   0  0  0  0  0  0
  -30.2576  -22.5762   19.2853 H   0  0  0  0  0  0
  -26.5802  -23.6871   18.7314 H   0  0  0  0  0  0
  -27.9373  -22.8656   17.9885 H   0  0  0  0  0  0
  -27.9414  -24.6255   18.1494 H   0  0  0  0  0  0
  -30.5249  -14.5281   23.1044 H   0  0  0  0  0  0
  -31.5873  -15.9021   22.8330 H   0  0  0  0  0  0
  -29.9771  -16.1451   23.4824 H   0  0  0  0  0  0
  -28.9092  -25.0100   21.5814 H   0  0  0  0  0  0
  -27.2103  -25.0074   21.3028 H   0  0  0  0  0  0
  -27.2905  -17.6108   23.2090 H   0  0  0  0  0  0
  -28.0134  -16.1657   22.7664 H   0  0  0  0  0  0
  1 25  1  0  0  0
  1 30  2  0  0  0
  1 85  1  0  0  0
  2  3  1  0  0  0
  2 25  1  0  0  0
  2 88  1  0  0  0
  2 89  1  0  0  0
  3  4  1  0  0  0
  3 90  1  0  0  0
  3 91  1  0  0  0
  4  5  1  0  0  0
  4 92  1  0  0  0
  4 93  1  0  0  0
  5  6  1  0  0  0
  5 26  1  0  0  0
  5 94  1  0  0  0
  6 25  1  0  0  0
  6 95  1  0  0  0
  6 96  1  0  0  0
  7  8  2  0  0  0
  7 26  1  0  0  0
  7 29  1  0  0  0
  8  9  1  0  0  0
  8 22  1  0  0  0
  9 10  1  0  0  0
  9 27  2  0  0  0
 10 11  2  0  0  0
 10 15  1  0  0  0
 11 12  1  0  0  0
 11 97  1  0  0  0
 12 13  2  0  0  0
 12 98  1  0  0  0
 13 14  1  0  0  0
 13 31  1  0  0  0
 14 15  2  0  0  0
 14 99  1  0  0  0
 15100  1  0  0  0
 16 17  2  0  0  0
 16 21  1  0  0  0
 16 31  1  0  0  0
 17 18  1  0  0  0
 17101  1  0  0  0
 18 19  2  0  0  0
 18102  1  0  0  0
 19 20  1  0  0  0
 19 24  1  0  0  0
 20 21  2  0  0  0
 20103  1  0  0  0
 21 23  1  0  0  0
 22 28  1  0  0  0
 22 32  2  0  0  0
 26 27  1  0  0  0
 28104  1  0  0  0
 28105  1  0  0  0
 29106  1  0  0  0
 29107  1  0  0  0
 33 34  1  0  0  0
 33 66  1  0  0  0
 33 70  2  0  0  0
 34 36  1  0  0  0
 34 59  1  0  0  0
 34108  1  0  0  0
 35 44  2  0  0  0
 35 45  1  0  0  0
 35 68  1  0  0  0
 36 56  1  0  0  0
 36109  1  0  0  0
 37 39  1  0  0  0
 37 47  1  0  0  0
 37 66  1  0  0  0
 37110  1  0  0  0
 38 43  2  0  0  0
 38 46  1  0  0  0
 38 47  1  0  0  0
 39 64  1  0  0  0
 39 67  2  0  0  0
 40 52  1  0  0  0
 40 53  2  0  0  0
 40 58  1  0  0  0
 41111  1  0  0  0
 41112  1  0  0  0
 41113  1  0  0  0
 41 48  1  0  0  0
 42 43  1  0  0  0
 42 66  1  0  0  0
 42114  1  0  0  0
 42115  1  0  0  0
 43 44  1  0  0  0
 44116  1  0  0  0
 45 46  2  0  0  0
 45117  1  0  0  0
 46118  1  0  0  0
 47119  1  0  0  0
 47120  1  0  0  0
 48 56  1  0  0  0
 48 65  1  0  0  0
 48121  1  0  0  0
 49 50  1  0  0  0
 49 53  1  0  0  0
 49 64  1  0  0  0
 49122  1  0  0  0
 50 51  1  0  0  0
 50123  1  0  0  0
 50124  1  0  0  0
 51 52  1  0  0  0
 51125  1  0  0  0
 51126  1  0  0  0
 52127  1  0  0  0
 52128  1  0  0  0
 53 54  1  0  0  0
 54 55  2  0  0  0
 54129  1  0  0  0
 55 57  1  0  0  0
 55130  1  0  0  0
 56 69  2  0  0  0
 57 58  2  0  0  0
 57131  1  0  0  0
 58132  1  0  0  0
 59 60  1  0  0  0
 59 61  1  0  0  0
 59 62  1  0  0  0
 60133  1  0  0  0
 60134  1  0  0  0
 60135  1  0  0  0
 61136  1  0  0  0
 61137  1  0  0  0
 61138  1  0  0  0
 62139  1  0  0  0
 62140  1  0  0  0
 62141  1  0  0  0
 63 65  1  0  0  0
 63142  1  0  0  0
 63143  1  0  0  0
 63144  1  0  0  0
 64145  1  0  0  0
 65146  1  0  0  0
 68 82  1  0  0  0
 71 73  2  0  0  0
 71 74  1  0  0  0
 71147  1  0  0  0
 72 75  1  0  0  0
 72 76  2  0  0  0
 72148  1  0  0  0
 73 76  1  0  0  0
 73 83  1  0  0  0
 74 75  2  0  0  0
 74 84  1  0  0  0
 75 85  1  0  0  0
 76 87  1  0  0  0
 77 79  1  0  0  0
 77 83  1  0  0  0
 77 86  2  0  0  0
 78 79  1  0  0  0
 78 83  1  0  0  0
 78149  1  0  0  0
 78150  1  0  0  0
 79 80  1  0  0  0
 79 82  1  0  0  0
 80151  1  0  0  0
 80152  1  0  0  0
 80153  1  0  0  0
 81 85  1  0  0  0
 81154  1  0  0  0
 81155  1  0  0  0
 81156  1  0  0  0
 82157  1  0  0  0
 82158  1  0  0  0
 84159  1  0  0  0
 84160  1  0  0  0
M  ISO  4   1 100  68 101  82 101  85 100
M  END
> <chiral flag>
0

> <version>
0

> <s_m_source_file>
/data/baiqing/PycharmProjects/Reinvent-master-3.2/result/LINK_invent/BTK/process_docking_weight1_custom_product_contain_oxygen_bond_distance_aromatic_linkinvent_7_9_3/rearranged_h_0072.sdf

> <i_m_source_file_index>
4

> <r_mmod_Potential_Energy-OPLS-2005>
324.214569091797

> <r_mmod_Stretch_Energy-OPLS-2005>
123.989311218262

> <r_mmod_Bend_Energy-OPLS-2005>
212.866226196289

> <r_mmod_Torsional_Energy-OPLS-2005>
344.336853027344

> <r_mmod_Improper_Torsional_Energy-OPLS-2005>
11.2457828521729

> <r_mmod_Van_der_Waal_Energy-OPLS-2005>
136.856552124023

> <r_mmod_Electrostatic_Energy-OPLS-2005>
-385.18896484375

> <r_mmod_Solvation_Energy-OPLS-2005>
-198.181610107422

> <b_mmod_Minimization_Converged-OPLS-2005>
0

> <r_mmod_RMS_Derivative-OPLS-2005>
6.76206588745117

$$$$
4
                    3D
 Structure written by MMmdl.
160169  0  0  1  0            999 V2000
  -30.5328  -14.8835   20.3762 C   0  0  0  0  0  0
  -30.4368  -12.5460   19.4579 C   0  0  0  0  0  0
  -29.5081  -12.4741   18.2237 C   0  0  0  0  0  0
  -28.0363  -12.2980   18.6547 C   0  0  0  0  0  0
  -27.6284  -13.2318   19.8301 C   0  0  2  0  0  0
  -28.6884  -13.1772   20.9457 C   0  0  0  0  0  0
  -25.2627  -13.8190   20.6037 C   0  0  0  0  0  0
  -24.1801  -13.0383   20.9252 C   0  0  0  0  0  0
  -24.6372  -11.6860   20.8649 C   0  0  0  0  0  0
  -23.9029  -10.4259   21.0294 C   0  0  0  0  0  0
  -24.3602   -9.4197   21.9077 C   0  0  0  0  0  0
  -23.6323   -8.2196   22.0652 C   0  0  0  0  0  0
  -22.4285   -8.0234   21.3496 C   0  0  0  0  0  0
  -21.9896   -9.0172   20.4578 C   0  0  0  0  0  0
  -22.7169  -10.2102   20.2986 C   0  0  0  0  0  0
  -21.6865   -6.0701   22.5286 C   0  0  0  0  0  0
  -21.4001   -6.5610   23.8214 C   0  0  0  0  0  0
  -21.3673   -5.6776   24.9187 C   0  0  0  0  0  0
  -21.6075   -4.3027   24.7232 C   0  0  0  0  0  0
  -21.8819   -3.8116   23.4340 C   0  0  0  0  0  0
  -21.9217   -4.6939   22.3414 C   0  0  0  0  0  0
  -22.7859  -13.5203   21.1941 C   0  0  0  0  0  0
  -22.1682   -4.2120   21.0983 F   0  0  0  0  0  0
  -21.5685   -3.4511   25.7738 F   0  0  0  0  0  0
  -29.9298  -13.6343   20.3238 N   0  0  0  0  0  0
  -26.2911  -12.9346   20.3319 N   0  0  0  0  0  0
  -25.9316  -11.6489   20.5671 N   0  0  0  0  0  0
  -22.0518  -12.8145   22.0496 N   0  0  0  0  0  0
  -25.4619  -15.1905   20.5139 N   0  0  0  0  0  0
  -31.7614  -14.9251   20.2776 O   0  0  0  0  0  0
  -21.6642   -6.8818   21.4232 O   0  0  0  0  0  0
  -22.3556  -14.5488   20.6803 O   0  0  0  0  0  0
  -24.6194  -31.8552   23.2028 C   0  0  0  0  0  0
  -25.9059  -32.4763   23.8353 C   0  0  1  0  0  0
  -27.2133  -27.2582   20.1415 C   0  0  0  0  0  0
  -25.5807  -33.8572   24.2225 N   0  0  0  0  0  0
  -23.4132  -30.4684   21.5491 C   0  0  2  0  0  0
  -24.8720  -28.9206   20.1048 C   0  0  0  0  0  0
  -22.7450  -29.4452   22.5003 C   0  0  0  0  0  0
  -18.0270  -28.1455   22.8370 C   0  0  0  0  0  0
  -24.1501  -36.7308   23.2634 C   0  0  0  0  0  0
  -25.9628  -30.7675   21.3864 C   0  0  0  0  0  0
  -26.0376  -29.3939   20.7168 C   0  0  0  0  0  0
  -27.2056  -28.5703   20.7243 C   0  0  0  0  0  0
  -26.0300  -26.8501   19.4891 C   0  0  0  0  0  0
  -24.8732  -27.6600   19.4790 C   0  0  0  0  0  0
  -23.6357  -29.8013   20.1652 C   0  0  0  0  0  0
  -25.4111  -36.3070   24.0324 C   0  0  1  0  0  0
  -20.5897  -28.3514   23.1626 C   0  0  2  0  0  0
  -20.6575  -26.9132   22.6031 C   0  0  0  0  0  0
  -19.6011  -26.6524   21.5214 C   0  0  0  0  0  0
  -18.1977  -26.8240   22.1052 C   0  0  0  0  0  0
  -19.1546  -28.8749   23.3076 C   0  0  0  0  0  0
  -18.9499  -30.1306   23.9188 C   0  0  0  0  0  0
  -17.6510  -30.6531   24.0753 C   0  0  0  0  0  0
  -25.9011  -34.9439   23.5096 C   0  0  0  0  0  0
  -16.5402  -29.9079   23.6445 C   0  0  0  0  0  0
  -16.7296  -28.6534   23.0334 C   0  0  0  0  0  0
  -26.4433  -31.6634   25.0785 C   0  0  0  0  0  0
  -25.3691  -31.3783   26.1539 C   0  0  0  0  0  0
  -27.0228  -30.2996   24.6365 C   0  0  0  0  0  0
  -27.5999  -32.4400   25.7499 C   0  0  0  0  0  0
  -27.5578  -37.1797   24.8448 C   0  0  0  0  0  0
  -21.4164  -29.2789   22.3829 N   0  0  0  0  0  0
  -26.4288  -37.3765   23.9401 N   0  0  0  0  0  0
  -24.6815  -31.0496   22.0998 N   0  0  0  0  0  0
  -23.4216  -28.8053   23.3112 O   0  0  0  0  0  0
  -28.3366  -26.4084   20.2667 O   0  0  0  0  0  0
  -26.5664  -34.8902   22.4709 O   0  0  0  0  0  0
  -23.5360  -32.1335   23.7356 O   0  0  0  0  0  0
  -27.5428  -17.6379   22.4338 C   0  0  0  0  0  0
  -27.5466  -19.0032   22.1398 C   0  0  0  0  0  0
  -28.3060  -16.7420   21.6822 C   0  0  0  0  0  0
  -29.1092  -18.6166   20.3177 C   0  0  0  0  0  0
  -28.2293  -19.5662   21.0286 C   0  0  0  0  0  0
  -29.1459  -17.1628   20.6393 C   0  0  0  0  0  0
  -25.7585  -22.5150   20.3527 C   0  0  0  0  0  0
  -26.3501  -21.1130   20.6117 C   0  0  0  0  0  0
  -28.6167  -22.1654   20.2533 C   0  0  0  0  0  0
  -27.9750  -23.6492   20.5616 C   0  0  1  0  0  0
  -30.0394  -19.1978   19.2540 C   0  0  0  0  0  0
  -28.4767  -24.9889   19.7811 C   0  0  0  0  0  0
  -26.5309  -23.6011   20.3904 N   0  0  0  0  0  0
  -27.8290  -20.9588   20.7332 N   0  0  0  0  0  0
  -29.8459  -16.0354   19.9323 N   0  0  0  0  0  0
  -24.5598  -22.6293   20.1071 O   0  0  0  0  0  0
  -31.4718  -12.7046   19.1616 H   0  0  0  0  0  0
  -30.4286  -11.5955   19.9959 H   0  0  0  0  0  0
  -29.8093  -11.6439   17.5783 H   0  0  0  0  0  0
  -29.6120  -13.3849   17.6369 H   0  0  0  0  0  0
  -27.9153  -11.2581   18.9675 H   0  0  0  0  0  0
  -27.3654  -12.4416   17.8029 H   0  0  0  0  0  0
  -27.5973  -14.2501   19.4315 H   0  0  0  0  0  0
  -28.7926  -12.1517   21.3104 H   0  0  0  0  0  0
  -28.4130  -13.7557   21.8208 H   0  0  0  0  0  0
  -25.2718   -9.5718   22.4666 H   0  0  0  0  0  0
  -24.0056   -7.4567   22.7355 H   0  0  0  0  0  0
  -21.0822   -8.8649   19.8866 H   0  0  0  0  0  0
  -22.3531  -10.9634   19.6142 H   0  0  0  0  0  0
  -21.1913   -7.6106   23.9701 H   0  0  0  0  0  0
  -21.1563   -6.0495   25.9101 H   0  0  0  0  0  0
  -22.0592   -2.7573   23.2847 H   0  0  0  0  0  0
  -22.4194  -11.9796   22.4778 H   0  0  0  0  0  0
  -21.1111  -13.1063   22.2665 H   0  0  0  0  0  0
  -24.7752  -15.8268   20.9033 H   0  0  0  0  0  0
  -26.4031  -15.5682   20.5601 H   0  0  0  0  0  0
  -26.7104  -32.5358   23.1075 H   0  0  0  0  0  0
  -24.9834  -33.9712   25.0272 H   0  0  0  0  0  0
  -22.6983  -31.2834   21.4074 H   0  0  0  0  0  0
  -23.3751  -35.9638   23.3283 H   0  0  0  0  0  0
  -24.3580  -36.8952   22.2041 H   0  0  0  0  0  0
  -23.7269  -37.6520   23.6662 H   0  0  0  0  0  0
  -26.1028  -31.5398   20.6301 H   0  0  0  0  0  0
  -26.8384  -30.8033   22.0273 H   0  0  0  0  0  0
  -28.0947  -28.9287   21.2264 H   0  0  0  0  0  0
  -25.9773  -25.8865   19.0056 H   0  0  0  0  0  0
  -23.9714  -27.2902   19.0055 H   0  0  0  0  0  0
  -23.7443  -30.5768   19.4085 H   0  0  0  0  0  0
  -22.7560  -29.2333   19.8627 H   0  0  0  0  0  0
  -25.1288  -36.1927   25.0810 H   0  0  0  0  0  0
  -21.0112  -28.3092   24.1704 H   0  0  0  0  0  0
  -20.4487  -26.2297   23.4252 H   0  0  0  0  0  0
  -21.6600  -26.6570   22.2730 H   0  0  0  0  0  0
  -19.7504  -27.3603   20.7056 H   0  0  0  0  0  0
  -19.7213  -25.6504   21.0958 H   0  0  0  0  0  0
  -17.4766  -26.7604   21.2859 H   0  0  0  0  0  0
  -17.9605  -26.0143   22.8021 H   0  0  0  0  0  0
  -19.7941  -30.6861   24.2870 H   0  0  0  0  0  0
  -17.5124  -31.6185   24.5439 H   0  0  0  0  0  0
  -15.5423  -30.2967   23.7809 H   0  0  0  0  0  0
  -15.8677  -28.0863   22.7014 H   0  0  0  0  0  0
  -24.5953  -30.6983   25.7999 H   0  0  0  0  0  0
  -24.8766  -32.2910   26.4876 H   0  0  0  0  0  0
  -25.8093  -30.9143   27.0381 H   0  0  0  0  0  0
  -26.2824  -29.6828   24.1282 H   0  0  0  0  0  0
  -27.3662  -29.7221   25.4967 H   0  0  0  0  0  0
  -27.8823  -30.4191   23.9764 H   0  0  0  0  0  0
  -27.2631  -33.3773   26.1928 H   0  0  0  0  0  0
  -28.3849  -32.6842   25.0351 H   0  0  0  0  0  0
  -28.0603  -31.8636   26.5528 H   0  0  0  0  0  0
  -28.2576  -38.0109   24.7472 H   0  0  0  0  0  0
  -28.1096  -36.2640   24.6292 H   0  0  0  0  0  0
  -27.2293  -37.1460   25.8848 H   0  0  0  0  0  0
  -20.9265  -29.8493   21.7120 H   0  0  0  0  0  0
  -26.0177  -38.2845   24.1407 H   0  0  0  0  0  0
  -26.9162  -17.2424   23.2246 H   0  0  0  0  0  0
  -26.9447  -19.6299   22.7863 H   0  0  0  0  0  0
  -28.2147  -15.7056   21.9272 H   0  0  0  0  0  0
  -25.9865  -20.4553   19.8236 H   0  0  0  0  0  0
  -25.8115  -20.7996   21.5082 H   0  0  0  0  0  0
  -29.6312  -22.1011   20.6419 H   0  0  0  0  0  0
  -28.6845  -22.0603   19.1687 H   0  0  0  0  0  0
  -28.1391  -23.8362   21.6241 H   0  0  0  0  0  0
  -29.4865  -19.7188   18.4689 H   0  0  0  0  0  0
  -30.6817  -18.4495   18.7913 H   0  0  0  0  0  0
  -30.7046  -19.9325   19.7060 H   0  0  0  0  0  0
  -28.1672  -24.9415   18.7370 H   0  0  0  0  0  0
  -29.5631  -24.8857   19.7420 H   0  0  0  0  0  0
  -26.0732  -24.4902   20.2434 H   0  0  0  0  0  0
  -30.2853  -16.3619   19.0760 H   0  0  0  0  0  0
  1 25  1  0  0  0
  1 30  2  0  0  0
  1 85  1  0  0  0
  2  3  1  0  0  0
  2 25  1  0  0  0
  2 87  1  0  0  0
  2 88  1  0  0  0
  3  4  1  0  0  0
  3 89  1  0  0  0
  3 90  1  0  0  0
  4  5  1  0  0  0
  4 91  1  0  0  0
  4 92  1  0  0  0
  5  6  1  0  0  0
  5 26  1  0  0  0
  5 93  1  0  0  0
  6 25  1  0  0  0
  6 94  1  0  0  0
  6 95  1  0  0  0
  7  8  2  0  0  0
  7 26  1  0  0  0
  7 29  1  0  0  0
  8  9  1  0  0  0
  8 22  1  0  0  0
  9 10  1  0  0  0
  9 27  2  0  0  0
 10 11  2  0  0  0
 10 15  1  0  0  0
 11 12  1  0  0  0
 11 96  1  0  0  0
 12 13  2  0  0  0
 12 97  1  0  0  0
 13 14  1  0  0  0
 13 31  1  0  0  0
 14 15  2  0  0  0
 14 98  1  0  0  0
 15 99  1  0  0  0
 16 17  2  0  0  0
 16 21  1  0  0  0
 16 31  1  0  0  0
 17 18  1  0  0  0
 17100  1  0  0  0
 18 19  2  0  0  0
 18101  1  0  0  0
 19 20  1  0  0  0
 19 24  1  0  0  0
 20 21  2  0  0  0
 20102  1  0  0  0
 21 23  1  0  0  0
 22 28  1  0  0  0
 22 32  2  0  0  0
 26 27  1  0  0  0
 28103  1  0  0  0
 28104  1  0  0  0
 29105  1  0  0  0
 29106  1  0  0  0
 33 34  1  0  0  0
 33 66  1  0  0  0
 33 70  2  0  0  0
 34 36  1  0  0  0
 34 59  1  0  0  0
 34107  1  0  0  0
 35 44  2  0  0  0
 35 45  1  0  0  0
 35 68  1  0  0  0
 36 56  1  0  0  0
 36108  1  0  0  0
 37 39  1  0  0  0
 37 47  1  0  0  0
 37 66  1  0  0  0
 37109  1  0  0  0
 38 43  2  0  0  0
 38 46  1  0  0  0
 38 47  1  0  0  0
 39 64  1  0  0  0
 39 67  2  0  0  0
 40 52  1  0  0  0
 40 53  2  0  0  0
 40 58  1  0  0  0
 41110  1  0  0  0
 41111  1  0  0  0
 41112  1  0  0  0
 41 48  1  0  0  0
 42 43  1  0  0  0
 42 66  1  0  0  0
 42113  1  0  0  0
 42114  1  0  0  0
 43 44  1  0  0  0
 44115  1  0  0  0
 45 46  2  0  0  0
 45116  1  0  0  0
 46117  1  0  0  0
 47118  1  0  0  0
 47119  1  0  0  0
 48 56  1  0  0  0
 48 65  1  0  0  0
 48120  1  0  0  0
 49 50  1  0  0  0
 49 53  1  0  0  0
 49 64  1  0  0  0
 49121  1  0  0  0
 50 51  1  0  0  0
 50122  1  0  0  0
 50123  1  0  0  0
 51 52  1  0  0  0
 51124  1  0  0  0
 51125  1  0  0  0
 52126  1  0  0  0
 52127  1  0  0  0
 53 54  1  0  0  0
 54 55  2  0  0  0
 54128  1  0  0  0
 55 57  1  0  0  0
 55129  1  0  0  0
 56 69  2  0  0  0
 57 58  2  0  0  0
 57130  1  0  0  0
 58131  1  0  0  0
 59 60  1  0  0  0
 59 61  1  0  0  0
 59 62  1  0  0  0
 60132  1  0  0  0
 60133  1  0  0  0
 60134  1  0  0  0
 61135  1  0  0  0
 61136  1  0  0  0
 61137  1  0  0  0
 62138  1  0  0  0
 62139  1  0  0  0
 62140  1  0  0  0
 63 65  1  0  0  0
 63141  1  0  0  0
 63142  1  0  0  0
 63143  1  0  0  0
 64144  1  0  0  0
 65145  1  0  0  0
 68 82  1  0  0  0
 71 72  2  0  0  0
 71 73  1  0  0  0
 71146  1  0  0  0
 72 75  1  0  0  0
 72147  1  0  0  0
 73 76  2  0  0  0
 73148  1  0  0  0
 74 75  2  0  0  0
 74 76  1  0  0  0
 74 81  1  0  0  0
 75 84  1  0  0  0
 76 85  1  0  0  0
 77 78  1  0  0  0
 77 83  1  0  0  0
 77 86  2  0  0  0
 78 84  1  0  0  0
 78149  1  0  0  0
 78150  1  0  0  0
 79 80  1  0  0  0
 79 84  1  0  0  0
 79151  1  0  0  0
 79152  1  0  0  0
 80 82  1  0  0  0
 80 83  1  0  0  0
 80153  1  0  0  0
 81154  1  0  0  0
 81155  1  0  0  0
 81156  1  0  0  0
 82157  1  0  0  0
 82158  1  0  0  0
 83159  1  0  0  0
 85160  1  0  0  0
M  ISO  4   1 100  68 101  82 101  85 100
M  END
> <chiral flag>
0

> <version>
0

> <s_m_source_file>
/data/baiqing/PycharmProjects/Reinvent-master-3.2/result/LINK_invent/BTK/process_docking_weight1_custom_product_contain_oxygen_bond_distance_aromatic_linkinvent_7_9_3/rearranged_h_0072.sdf

> <i_m_source_file_index>
5

> <r_mmod_Potential_Energy-OPLS-2005>
417.247863769531

> <r_mmod_Stretch_Energy-OPLS-2005>
167.838272094727

> <r_mmod_Bend_Energy-OPLS-2005>
273.923522949219

> <r_mmod_Torsional_Energy-OPLS-2005>
319.653869628906

> <r_mmod_Improper_Torsional_Energy-OPLS-2005>
27.958194732666

> <r_mmod_Van_der_Waal_Energy-OPLS-2005>
136.46940612793

> <r_mmod_Electrostatic_Energy-OPLS-2005>
-407.285919189453

> <r_mmod_Solvation_Energy-OPLS-2005>
-235.870727539062

> <b_mmod_Minimization_Converged-OPLS-2005>
0

> <r_mmod_RMS_Derivative-OPLS-2005>
11.7616338729858

$$$$
5
                    3D
 Structure written by MMmdl.
158166  0  0  1  0            999 V2000
  -30.6930  -14.4818   20.5925 C   0  0  0  0  0  0
  -30.4265  -12.3198   19.4215 C   0  0  0  0  0  0
  -29.4951  -12.5098   18.2052 C   0  0  0  0  0  0
  -28.0185  -12.3567   18.6202 C   0  0  0  0  0  0
  -27.6602  -13.2002   19.8734 C   0  0  2  0  0  0
  -28.7008  -12.9814   20.9957 C   0  0  0  0  0  0
  -25.2599  -13.8144   20.5690 C   0  0  0  0  0  0
  -24.1842  -13.0428   20.9161 C   0  0  0  0  0  0
  -24.6383  -11.6896   20.8720 C   0  0  0  0  0  0
  -23.9047  -10.4292   21.0396 C   0  0  0  0  0  0
  -24.3610   -9.4213   21.9178 C   0  0  0  0  0  0
  -23.6295   -8.2248   22.0762 C   0  0  0  0  0  0
  -22.4277   -8.0280   21.3543 C   0  0  0  0  0  0
  -21.9907   -9.0241   20.4639 C   0  0  0  0  0  0
  -22.7222  -10.2125   20.3050 C   0  0  0  0  0  0
  -21.6842   -6.0742   22.5284 C   0  0  0  0  0  0
  -21.4007   -6.5651   23.8220 C   0  0  0  0  0  0
  -21.3658   -5.6801   24.9185 C   0  0  0  0  0  0
  -21.6044   -4.3066   24.7229 C   0  0  0  0  0  0
  -21.8819   -3.8159   23.4353 C   0  0  0  0  0  0
  -21.9192   -4.6970   22.3409 C   0  0  0  0  0  0
  -22.7871  -13.5235   21.1842 C   0  0  0  0  0  0
  -22.1659   -4.2166   21.0980 F   0  0  0  0  0  0
  -21.5629   -3.4553   25.7744 F   0  0  0  0  0  0
  -30.0308  -13.2999   20.4456 N   0  0  0  0  0  0
  -26.3016  -12.9294   20.3338 N   0  0  0  0  0  0
  -25.9304  -11.6463   20.5741 N   0  0  0  0  0  0
  -22.0503  -12.8213   22.0375 N   0  0  0  0  0  0
  -25.4346  -15.1877   20.4205 N   0  0  0  0  0  0
  -31.8213  -14.6758   20.1297 O   0  0  0  0  0  0
  -21.6631   -6.8882   21.4248 O   0  0  0  0  0  0
  -22.3567  -14.5555   20.6712 O   0  0  0  0  0  0
  -24.6149  -31.8699   23.2074 C   0  0  0  0  0  0
  -25.9048  -32.4828   23.8392 C   0  0  1  0  0  0
  -27.2465  -27.4346   20.1007 C   0  0  0  0  0  0
  -25.5921  -33.8631   24.2340 N   0  0  0  0  0  0
  -23.4041  -30.4868   21.5508 C   0  0  2  0  0  0
  -24.8537  -28.9430   20.1271 C   0  0  0  0  0  0
  -22.7413  -29.4654   22.5026 C   0  0  0  0  0  0
  -18.0283  -28.1348   22.8497 C   0  0  0  0  0  0
  -24.1484  -36.7293   23.2643 C   0  0  0  0  0  0
  -25.9327  -30.8311   21.3632 C   0  0  0  0  0  0
  -26.0132  -29.4605   20.7192 C   0  0  0  0  0  0
  -27.2135  -28.7128   20.7048 C   0  0  0  0  0  0
  -26.0724  -26.9267   19.5095 C   0  0  0  0  0  0
  -24.8754  -27.6711   19.5252 C   0  0  0  0  0  0
  -23.6145  -29.8107   20.1703 C   0  0  0  0  0  0
  -25.4111  -36.3115   24.0351 C   0  0  1  0  0  0
  -20.5865  -28.3639   23.1317 C   0  0  2  0  0  0
  -20.6754  -26.9366   22.5434 C   0  0  0  0  0  0
  -19.5730  -26.6371   21.5221 C   0  0  0  0  0  0
  -18.1905  -26.7916   22.1610 C   0  0  0  0  0  0
  -19.1529  -28.8816   23.2901 C   0  0  0  0  0  0
  -18.9462  -30.1435   23.8888 C   0  0  0  0  0  0
  -17.6463  -30.6564   24.0558 C   0  0  0  0  0  0
  -25.9053  -34.9480   23.5143 C   0  0  0  0  0  0
  -16.5358  -29.9051   23.6332 C   0  0  0  0  0  0
  -16.7277  -28.6468   23.0347 C   0  0  0  0  0  0
  -26.4468  -31.6579   25.0709 C   0  0  0  0  0  0
  -25.3715  -31.3692   26.1448 C   0  0  0  0  0  0
  -27.0292  -30.3012   24.6073 C   0  0  0  0  0  0
  -27.6060  -32.4281   25.7467 C   0  0  0  0  0  0
  -27.5595  -37.1788   24.8465 C   0  0  0  0  0  0
  -21.4149  -29.3014   22.3737 N   0  0  0  0  0  0
  -26.4295  -37.3802   23.9433 N   0  0  0  0  0  0
  -24.6687  -31.0782   22.0985 N   0  0  0  0  0  0
  -23.4179  -28.8230   23.3097 O   0  0  0  0  0  0
  -28.4116  -26.7060   20.0112 O   0  0  0  0  0  0
  -26.5607  -34.8934   22.4699 O   0  0  0  0  0  0
  -23.5331  -32.1470   23.7443 O   0  0  0  0  0  0
  -29.3701  -19.1728   21.1180 C   0  0  0  0  0  0
  -31.5312  -17.4088   21.4771 C   0  0  0  0  0  0
  -30.6462  -19.7158   21.3979 C   0  0  0  0  0  0
  -30.2524  -16.8742   21.1995 C   0  0  0  0  0  0
  -29.1780  -17.7737   21.0241 C   0  0  0  0  0  0
  -31.7263  -18.8058   21.5732 C   0  0  0  0  0  0
  -30.8289  -21.1844   21.5576 C   0  0  0  0  0  0
  -28.9321  -24.3347   20.5009 C   0  0  0  0  0  0
  -31.4130  -24.0937   20.1280 C   0  0  0  0  0  0
  -28.6433  -25.7513   21.0603 C   0  0  0  0  0  0
  -30.2176  -23.6074   20.9789 C   0  0  2  0  0  0
  -29.9724  -15.4696   21.1583 N   0  0  0  0  0  0
  -30.0880  -22.1177   20.9068 N   0  0  0  0  0  0
  -31.7667  -21.6366   22.3965 N   0  3  0  0  0  0
  -28.1563  -23.8077   19.6957 O   0  0  0  0  0  0
  -27.9406  -17.2852   20.7622 F   0  0  0  0  0  0
  -32.9698  -19.2565   21.8747 F   0  0  0  0  0  0
  -31.4715  -12.4233   19.1239 H   0  0  0  0  0  0
  -30.3297  -11.3075   19.8167 H   0  0  0  0  0  0
  -29.7402  -11.7881   17.4246 H   0  0  0  0  0  0
  -29.6503  -13.4968   17.7661 H   0  0  0  0  0  0
  -27.8437  -11.3004   18.8256 H   0  0  0  0  0  0
  -27.3628  -12.6153   17.7881 H   0  0  0  0  0  0
  -27.7036  -14.2477   19.5728 H   0  0  0  0  0  0
  -28.6819  -11.9416   21.3269 H   0  0  0  0  0  0
  -28.4564  -13.5708   21.8804 H   0  0  0  0  0  0
  -25.2761   -9.5697   22.4750 H   0  0  0  0  0  0
  -24.0008   -7.4645   22.7491 H   0  0  0  0  0  0
  -21.0850   -8.8742   19.8940 H   0  0  0  0  0  0
  -22.3675  -10.9664   19.6164 H   0  0  0  0  0  0
  -21.1994   -7.6155   23.9728 H   0  0  0  0  0  0
  -21.1476   -6.0534   25.9085 H   0  0  0  0  0  0
  -22.0597   -2.7626   23.2848 H   0  0  0  0  0  0
  -22.4119  -11.9862   22.4738 H   0  0  0  0  0  0
  -21.1124  -13.1236   22.2592 H   0  0  0  0  0  0
  -24.6734  -15.8420   20.5619 H   0  0  0  0  0  0
  -26.3052  -15.6437   20.1751 H   0  0  0  0  0  0
  -26.7130  -32.5551   23.1173 H   0  0  0  0  0  0
  -25.0122  -33.9816   25.0514 H   0  0  0  0  0  0
  -22.6940  -31.3031   21.4032 H   0  0  0  0  0  0
  -23.3787  -35.9586   23.3295 H   0  0  0  0  0  0
  -24.3595  -36.8913   22.2063 H   0  0  0  0  0  0
  -23.7165  -37.6467   23.6654 H   0  0  0  0  0  0
  -26.0445  -31.5929   20.5909 H   0  0  0  0  0  0
  -26.8209  -30.8902   21.9799 H   0  0  0  0  0  0
  -28.1130  -29.1187   21.1463 H   0  0  0  0  0  0
  -26.0901  -25.9587   19.0298 H   0  0  0  0  0  0
  -23.9832  -27.2605   19.0738 H   0  0  0  0  0  0
  -23.7247  -30.5831   19.4089 H   0  0  0  0  0  0
  -22.7381  -29.2323   19.8746 H   0  0  0  0  0  0
  -25.1264  -36.1994   25.0841 H   0  0  0  0  0  0
  -20.9963  -28.3201   24.1435 H   0  0  0  0  0  0
  -20.5626  -26.2262   23.3631 H   0  0  0  0  0  0
  -21.6620  -26.7367   22.1241 H   0  0  0  0  0  0
  -19.6901  -25.6294   21.1227 H   0  0  0  0  0  0
  -19.6671  -27.3222   20.6785 H   0  0  0  0  0  0
  -17.4191  -26.6726   21.3982 H   0  0  0  0  0  0
  -18.0237  -26.0019   22.8948 H   0  0  0  0  0  0
  -19.7939  -30.7259   24.2229 H   0  0  0  0  0  0
  -17.5008  -31.6236   24.5163 H   0  0  0  0  0  0
  -15.5355  -30.2933   23.7652 H   0  0  0  0  0  0
  -15.8688  -28.0799   22.7031 H   0  0  0  0  0  0
  -24.5961  -30.6938   25.7812 H   0  0  0  0  0  0
  -24.8811  -32.2837   26.4791 H   0  0  0  0  0  0
  -25.8078  -30.8979   27.0259 H   0  0  0  0  0  0
  -26.2835  -29.6776   24.1128 H   0  0  0  0  0  0
  -27.4073  -29.7239   25.4521 H   0  0  0  0  0  0
  -27.8658  -30.4360   23.9216 H   0  0  0  0  0  0
  -27.2739  -33.3632   26.1991 H   0  0  0  0  0  0
  -28.3891  -32.6740   25.0284 H   0  0  0  0  0  0
  -28.0669  -31.8398   26.5407 H   0  0  0  0  0  0
  -28.2579  -38.0115   24.7566 H   0  0  0  0  0  0
  -28.1121  -36.2652   24.6215 H   0  0  0  0  0  0
  -27.2336  -37.1352   25.8870 H   0  0  0  0  0  0
  -20.9335  -29.8742   21.6952 H   0  0  0  0  0  0
  -26.0191  -38.2881   24.1468 H   0  0  0  0  0  0
  -28.5179  -19.8218   20.9904 H   0  0  0  0  0  0
  -32.3734  -16.7548   21.6464 H   0  0  0  0  0  0
  -31.6793  -25.1234   20.3725 H   0  0  0  0  0  0
  -31.1879  -24.0599   19.0599 H   0  0  0  0  0  0
  -32.3053  -23.4867   20.2869 H   0  0  0  0  0  0
  -29.4957  -26.0843   21.6521 H   0  0  0  0  0  0
  -27.7900  -25.6983   21.7371 H   0  0  0  0  0  0
  -30.3896  -23.8822   22.0215 H   0  0  0  0  0  0
  -29.0229  -15.2204   21.3843 H   0  0  0  0  0  0
  -29.3675  -21.7909   20.2722 H   0  0  0  0  0  0
  -32.4271  -20.9700   22.7771 H   0  0  0  0  0  0
  -31.9303  -22.6186   22.5315 H   0  0  0  0  0  0
  1 25  1  0  0  0
  1 30  2  0  0  0
  1 82  1  0  0  0
  2  3  1  0  0  0
  2 25  1  0  0  0
  2 88  1  0  0  0
  2 89  1  0  0  0
  3  4  1  0  0  0
  3 90  1  0  0  0
  3 91  1  0  0  0
  4  5  1  0  0  0
  4 92  1  0  0  0
  4 93  1  0  0  0
  5  6  1  0  0  0
  5 26  1  0  0  0
  5 94  1  0  0  0
  6 25  1  0  0  0
  6 95  1  0  0  0
  6 96  1  0  0  0
  7  8  2  0  0  0
  7 26  1  0  0  0
  7 29  1  0  0  0
  8  9  1  0  0  0
  8 22  1  0  0  0
  9 10  1  0  0  0
  9 27  2  0  0  0
 10 11  2  0  0  0
 10 15  1  0  0  0
 11 12  1  0  0  0
 11 97  1  0  0  0
 12 13  2  0  0  0
 12 98  1  0  0  0
 13 14  1  0  0  0
 13 31  1  0  0  0
 14 15  2  0  0  0
 14 99  1  0  0  0
 15100  1  0  0  0
 16 17  2  0  0  0
 16 21  1  0  0  0
 16 31  1  0  0  0
 17 18  1  0  0  0
 17101  1  0  0  0
 18 19  2  0  0  0
 18102  1  0  0  0
 19 20  1  0  0  0
 19 24  1  0  0  0
 20 21  2  0  0  0
 20103  1  0  0  0
 21 23  1  0  0  0
 22 28  1  0  0  0
 22 32  2  0  0  0
 26 27  1  0  0  0
 28104  1  0  0  0
 28105  1  0  0  0
 29106  1  0  0  0
 29107  1  0  0  0
 33 34  1  0  0  0
 33 66  1  0  0  0
 33 70  2  0  0  0
 34 36  1  0  0  0
 34 59  1  0  0  0
 34108  1  0  0  0
 35 44  2  0  0  0
 35 45  1  0  0  0
 35 68  1  0  0  0
 36 56  1  0  0  0
 36109  1  0  0  0
 37 39  1  0  0  0
 37 47  1  0  0  0
 37 66  1  0  0  0
 37110  1  0  0  0
 38 43  2  0  0  0
 38 46  1  0  0  0
 38 47  1  0  0  0
 39 64  1  0  0  0
 39 67  2  0  0  0
 40 52  1  0  0  0
 40 53  2  0  0  0
 40 58  1  0  0  0
 41111  1  0  0  0
 41112  1  0  0  0
 41113  1  0  0  0
 41 48  1  0  0  0
 42 43  1  0  0  0
 42 66  1  0  0  0
 42114  1  0  0  0
 42115  1  0  0  0
 43 44  1  0  0  0
 44116  1  0  0  0
 45 46  2  0  0  0
 45117  1  0  0  0
 46118  1  0  0  0
 47119  1  0  0  0
 47120  1  0  0  0
 48 56  1  0  0  0
 48 65  1  0  0  0
 48121  1  0  0  0
 49 50  1  0  0  0
 49 53  1  0  0  0
 49 64  1  0  0  0
 49122  1  0  0  0
 50 51  1  0  0  0
 50123  1  0  0  0
 50124  1  0  0  0
 51 52  1  0  0  0
 51125  1  0  0  0
 51126  1  0  0  0
 52127  1  0  0  0
 52128  1  0  0  0
 53 54  1  0  0  0
 54 55  2  0  0  0
 54129  1  0  0  0
 55 57  1  0  0  0
 55130  1  0  0  0
 56 69  2  0  0  0
 57 58  2  0  0  0
 57131  1  0  0  0
 58132  1  0  0  0
 59 60  1  0  0  0
 59 61  1  0  0  0
 59 62  1  0  0  0
 60133  1  0  0  0
 60134  1  0  0  0
 60135  1  0  0  0
 61136  1  0  0  0
 61137  1  0  0  0
 61138  1  0  0  0
 62139  1  0  0  0
 62140  1  0  0  0
 62141  1  0  0  0
 63 65  1  0  0  0
 63142  1  0  0  0
 63143  1  0  0  0
 63144  1  0  0  0
 64145  1  0  0  0
 65146  1  0  0  0
 68 80  1  0  0  0
 71 73  2  0  0  0
 71 75  1  0  0  0
 71147  1  0  0  0
 72 74  1  0  0  0
 72 76  2  0  0  0
 72148  1  0  0  0
 73 76  1  0  0  0
 73 77  1  0  0  0
 74 75  2  0  0  0
 74 82  1  0  0  0
 75 86  1  0  0  0
 76 87  1  0  0  0
 77 83  1  0  0  0
 77 84  2  0  0  0
 78 80  1  0  0  0
 78 81  1  0  0  0
 78 85  2  0  0  0
 79149  1  0  0  0
 79150  1  0  0  0
 79151  1  0  0  0
 79 81  1  0  0  0
 80152  1  0  0  0
 80153  1  0  0  0
 81 83  1  0  0  0
 81154  1  0  0  0
 82155  1  0  0  0
 83156  1  0  0  0
 84157  1  0  0  0
 84158  1  0  0  0
M  CHG  1  84   1
M  ISO  4   1 100  68 101  80 101  82 100
M  END
> <chiral flag>
0

> <version>
0

> <s_m_source_file>
/data/baiqing/PycharmProjects/Reinvent-master-3.2/result/LINK_invent/BTK/process_docking_weight1_custom_product_contain_oxygen_bond_distance_aromatic_linkinvent_7_9_3/rearranged_h_0072.sdf

> <i_m_source_file_index>
6

> <r_mmod_Potential_Energy-OPLS-2005>
-323.673980712891

> <r_mmod_Stretch_Energy-OPLS-2005>
42.339672088623

> <r_mmod_Bend_Energy-OPLS-2005>
97.0869598388672

> <r_mmod_Torsional_Energy-OPLS-2005>
250.498474121094

> <r_mmod_Improper_Torsional_Energy-OPLS-2005>
4.11849784851074

> <r_mmod_Van_der_Waal_Energy-OPLS-2005>
151.291427612305

> <r_mmod_Electrostatic_Energy-OPLS-2005>
-442.146667480469

> <r_mmod_Solvation_Energy-OPLS-2005>
-439.051971435547

> <b_mmod_Minimization_Converged-OPLS-2005>
0

> <r_mmod_RMS_Derivative-OPLS-2005>
2.58677506446838

$$$$
6
                    3D
 Structure written by MMmdl.
158167  0  0  1  0            999 V2000
  -30.6145  -14.8143   20.4461 C   0  0  0  0  0  0
  -30.4360  -12.4929   19.4888 C   0  0  0  0  0  0
  -29.5370  -12.5315   18.2362 C   0  0  0  0  0  0
  -28.0555  -12.3561   18.6309 C   0  0  0  0  0  0
  -27.6500  -13.2401   19.8447 C   0  0  2  0  0  0
  -28.6914  -13.1774   20.9775 C   0  0  0  0  0  0
  -25.2571  -13.8170   20.5639 C   0  0  0  0  0  0
  -24.1875  -13.0392   20.9100 C   0  0  0  0  0  0
  -24.6457  -11.6882   20.8677 C   0  0  0  0  0  0
  -23.9089  -10.4281   21.0363 C   0  0  0  0  0  0
  -24.3645   -9.4202   21.9130 C   0  0  0  0  0  0
  -23.6298   -8.2238   22.0755 C   0  0  0  0  0  0
  -22.4263   -8.0283   21.3572 C   0  0  0  0  0  0
  -21.9917   -9.0241   20.4641 C   0  0  0  0  0  0
  -22.7267  -10.2095   20.3012 C   0  0  0  0  0  0
  -21.6855   -6.0715   22.5276 C   0  0  0  0  0  0
  -21.4025   -6.5628   23.8201 C   0  0  0  0  0  0
  -21.3668   -5.6794   24.9160 C   0  0  0  0  0  0
  -21.6035   -4.3051   24.7232 C   0  0  0  0  0  0
  -21.8835   -3.8133   23.4355 C   0  0  0  0  0  0
  -21.9195   -4.6939   22.3400 C   0  0  0  0  0  0
  -22.7882  -13.5198   21.1769 C   0  0  0  0  0  0
  -22.1683   -4.2125   21.0977 F   0  0  0  0  0  0
  -21.5607   -3.4536   25.7738 F   0  0  0  0  0  0
  -29.9840  -13.5751   20.4019 N   0  0  0  0  0  0
  -26.2999  -12.9390   20.3195 N   0  0  0  0  0  0
  -25.9377  -11.6538   20.5643 N   0  0  0  0  0  0
  -22.0524  -12.8206   22.0317 N   0  0  0  0  0  0
  -25.4328  -15.1901   20.4198 N   0  0  0  0  0  0
  -31.7838  -14.8792   20.0445 O   0  0  0  0  0  0
  -21.6648   -6.8865   21.4262 O   0  0  0  0  0  0
  -22.3556  -14.5509   20.6620 O   0  0  0  0  0  0
  -24.6490  -31.8609   23.1883 C   0  0  0  0  0  0
  -25.9318  -32.4795   23.8193 C   0  0  1  0  0  0
  -27.2105  -27.2000   20.0540 C   0  0  0  0  0  0
  -25.6179  -33.8534   24.2287 N   0  0  0  0  0  0
  -23.4401  -30.4860   21.5469 C   0  0  2  0  0  0
  -24.8747  -28.9293   20.1179 C   0  0  0  0  0  0
  -22.7543  -29.4688   22.4967 C   0  0  0  0  0  0
  -18.0348  -28.1458   22.8432 C   0  0  0  0  0  0
  -24.1516  -36.7212   23.2591 C   0  0  0  0  0  0
  -25.9875  -30.7602   21.3530 C   0  0  0  0  0  0
  -26.0657  -29.3634   20.7085 C   0  0  0  0  0  0
  -27.2302  -28.5167   20.6674 C   0  0  0  0  0  0
  -25.9643  -26.8609   19.4567 C   0  0  0  0  0  0
  -24.8314  -27.6844   19.4879 C   0  0  0  0  0  0
  -23.6418  -29.8183   20.1690 C   0  0  0  0  0  0
  -25.4142  -36.3068   24.0310 C   0  0  1  0  0  0
  -20.5932  -28.3815   23.1256 C   0  0  2  0  0  0
  -20.6905  -26.9554   22.5375 C   0  0  0  0  0  0
  -19.5874  -26.6454   21.5194 C   0  0  0  0  0  0
  -18.2028  -26.8022   22.1572 C   0  0  0  0  0  0
  -19.1580  -28.8979   23.2842 C   0  0  0  0  0  0
  -18.9461  -30.1557   23.8896 C   0  0  0  0  0  0
  -17.6452  -30.6630   24.0576 C   0  0  0  0  0  0
  -25.9103  -34.9442   23.5078 C   0  0  0  0  0  0
  -16.5363  -29.9100   23.6354 C   0  0  0  0  0  0
  -16.7321  -28.6537   23.0341 C   0  0  0  0  0  0
  -26.4624  -31.6507   25.0562 C   0  0  0  0  0  0
  -25.3769  -31.3751   26.1163 C   0  0  0  0  0  0
  -27.0373  -30.2985   24.5784 C   0  0  0  0  0  0
  -27.6276  -32.4050   25.7397 C   0  0  0  0  0  0
  -27.5606  -37.1782   24.8477 C   0  0  0  0  0  0
  -21.4259  -29.3115   22.3651 N   0  0  0  0  0  0
  -26.4361  -37.3748   23.9389 N   0  0  0  0  0  0
  -24.7167  -31.0477   22.0908 N   0  0  0  0  0  0
  -23.4208  -28.8321   23.3146 O   0  0  0  0  0  0
  -28.2738  -26.2255   20.0144 O   0  0  0  0  0  0
  -26.5515  -34.8901   22.4535 O   0  0  0  0  0  0
  -23.5652  -32.1462   23.7183 O   0  0  0  0  0  0
  -30.0323  -18.4274   17.8654 C   0  0  0  0  0  0
  -29.8717  -19.7031   18.4427 C   0  0  0  0  0  0
  -30.0157  -17.2516   18.6383 C   0  0  0  0  0  0
  -29.6094  -18.6660   20.5717 C   0  0  0  0  0  0
  -29.5639  -19.9266   19.8029 C   0  0  0  0  0  0
  -29.8673  -17.3062   20.0397 C   0  0  0  0  0  0
  -29.8773  -22.6345   20.0858 C   0  0  0  0  0  0
  -27.9432  -21.9632   19.9658 C   0  0  0  0  0  0
  -28.6073  -23.2788   19.3440 C   0  0  2  0  0  0
  -28.7934  -23.2343   17.7499 C   0  0  0  0  0  0
  -29.6277  -16.1037   22.2334 C   0  0  0  0  0  0
  -27.9042  -24.7386   19.7889 C   0  0  0  0  0  0
  -29.2627  -21.3481   20.2231 N   0  0  0  0  0  0
  -29.9312  -16.0007   20.8079 N   0  0  0  0  0  0
  -30.9594  -23.0250   20.4905 O   0  0  0  0  0  0
  -31.4861  -12.5927   19.2126 H   0  0  0  0  0  0
  -30.3589  -11.5157   19.9769 H   0  0  0  0  0  0
  -29.8342  -11.7567   17.5302 H   0  0  0  0  0  0
  -29.6797  -13.4795   17.7163 H   0  0  0  0  0  0
  -27.9030  -11.3045   18.8733 H   0  0  0  0  0  0
  -27.4149  -12.5708   17.7764 H   0  0  0  0  0  0
  -27.6443  -14.2692   19.4787 H   0  0  0  0  0  0
  -28.7444  -12.1627   21.3877 H   0  0  0  0  0  0
  -28.3943  -13.8159   21.8046 H   0  0  0  0  0  0
  -25.2797   -9.5642   22.4679 H   0  0  0  0  0  0
  -23.9977   -7.4642   22.7492 H   0  0  0  0  0  0
  -21.0815   -8.8755   19.8952 H   0  0  0  0  0  0
  -22.3735  -10.9610   19.6087 H   0  0  0  0  0  0
  -21.2066   -7.6137   23.9696 H   0  0  0  0  0  0
  -21.1467   -6.0519   25.9052 H   0  0  0  0  0  0
  -22.0619   -2.7586   23.2872 H   0  0  0  0  0  0
  -22.4175  -11.9947   22.4817 H   0  0  0  0  0  0
  -21.1071  -13.1218   22.2380 H   0  0  0  0  0  0
  -24.6792  -15.8586   20.5437 H   0  0  0  0  0  0
  -26.3057  -15.6245   20.1489 H   0  0  0  0  0  0
  -26.7387  -32.5566   23.0962 H   0  0  0  0  0  0
  -25.0718  -33.9658   25.0745 H   0  0  0  0  0  0
  -22.7374  -31.3149   21.4003 H   0  0  0  0  0  0
  -23.3816  -35.9492   23.3259 H   0  0  0  0  0  0
  -24.3638  -36.8766   22.2006 H   0  0  0  0  0  0
  -23.7141  -37.6372   23.6554 H   0  0  0  0  0  0
  -26.0679  -31.5007   20.5555 H   0  0  0  0  0  0
  -26.8932  -30.8646   21.9374 H   0  0  0  0  0  0
  -28.1493  -28.8602   21.1429 H   0  0  0  0  0  0
  -25.7871  -25.9376   18.9411 H   0  0  0  0  0  0
  -23.9280  -27.3418   19.0156 H   0  0  0  0  0  0
  -23.7509  -30.5857   19.3988 H   0  0  0  0  0  0
  -22.7651  -29.2415   19.8789 H   0  0  0  0  0  0
  -25.1291  -36.1925   25.0780 H   0  0  0  0  0  0
  -21.0017  -28.3454   24.1389 H   0  0  0  0  0  0
  -20.5966  -26.2422   23.3555 H   0  0  0  0  0  0
  -21.6761  -26.7727   22.1080 H   0  0  0  0  0  0
  -19.7078  -25.6357   21.1277 H   0  0  0  0  0  0
  -19.6850  -27.3235   20.6702 H   0  0  0  0  0  0
  -17.4328  -26.6776   21.3932 H   0  0  0  0  0  0
  -18.0434  -26.0175   22.8987 H   0  0  0  0  0  0
  -19.7926  -30.7387   24.2252 H   0  0  0  0  0  0
  -17.4993  -31.6309   24.5173 H   0  0  0  0  0  0
  -15.5382  -30.2984   23.7678 H   0  0  0  0  0  0
  -15.8714  -28.0841   22.7050 H   0  0  0  0  0  0
  -24.6180  -30.6762   25.7596 H   0  0  0  0  0  0
  -24.8660  -32.2913   26.4134 H   0  0  0  0  0  0
  -25.8034  -30.9377   27.0212 H   0  0  0  0  0  0
  -26.2891  -29.6847   24.0739 H   0  0  0  0  0  0
  -27.4152  -29.6999   25.4110 H   0  0  0  0  0  0
  -27.8695  -30.4351   23.8875 H   0  0  0  0  0  0
  -27.3130  -33.3518   26.1747 H   0  0  0  0  0  0
  -28.4333  -32.6185   25.0392 H   0  0  0  0  0  0
  -28.0547  -31.8133   26.5519 H   0  0  0  0  0  0
  -28.2627  -38.0103   24.7551 H   0  0  0  0  0  0
  -28.1104  -36.2612   24.6301 H   0  0  0  0  0  0
  -27.2314  -37.1390   25.8885 H   0  0  0  0  0  0
  -20.9556  -29.8630   21.6597 H   0  0  0  0  0  0
  -26.0245  -38.2812   24.1331 H   0  0  0  0  0  0
  -30.1795  -18.3594   16.7984 H   0  0  0  0  0  0
  -29.9876  -20.5289   17.7660 H   0  0  0  0  0  0
  -30.1419  -16.3118   18.1233 H   0  0  0  0  0  0
  -29.4416  -18.7655   21.6357 H   0  0  0  0  0  0
  -27.2588  -21.4028   19.3196 H   0  0  0  0  0  0
  -27.4326  -22.1473   20.9179 H   0  0  0  0  0  0
  -28.9518  -22.2393   17.3424 H   0  0  0  0  0  0
  -29.6293  -23.8238   17.3596 H   0  0  0  0  0  0
  -27.9190  -23.5330   17.1591 H   0  0  0  0  0  0
  -28.5552  -16.2619   22.3859 H   0  0  0  0  0  0
  -30.1712  -16.9301   22.6918 H   0  0  0  0  0  0
  -29.9200  -15.2201   22.8025 H   0  0  0  0  0  0
  -27.0283  -24.5193   20.4113 H   0  0  0  0  0  0
  -27.4763  -24.9390   18.8209 H   0  0  0  0  0  0
  1 25  1  0  0  0
  1 30  2  0  0  0
  1 84  1  0  0  0
  2  3  1  0  0  0
  2 25  1  0  0  0
  2 86  1  0  0  0
  2 87  1  0  0  0
  3  4  1  0  0  0
  3 88  1  0  0  0
  3 89  1  0  0  0
  4  5  1  0  0  0
  4 90  1  0  0  0
  4 91  1  0  0  0
  5  6  1  0  0  0
  5 26  1  0  0  0
  5 92  1  0  0  0
  6 25  1  0  0  0
  6 93  1  0  0  0
  6 94  1  0  0  0
  7  8  2  0  0  0
  7 26  1  0  0  0
  7 29  1  0  0  0
  8  9  1  0  0  0
  8 22  1  0  0  0
  9 10  1  0  0  0
  9 27  2  0  0  0
 10 11  2  0  0  0
 10 15  1  0  0  0
 11 12  1  0  0  0
 11 95  1  0  0  0
 12 13  2  0  0  0
 12 96  1  0  0  0
 13 14  1  0  0  0
 13 31  1  0  0  0
 14 15  2  0  0  0
 14 97  1  0  0  0
 15 98  1  0  0  0
 16 17  2  0  0  0
 16 21  1  0  0  0
 16 31  1  0  0  0
 17 18  1  0  0  0
 17 99  1  0  0  0
 18 19  2  0  0  0
 18100  1  0  0  0
 19 20  1  0  0  0
 19 24  1  0  0  0
 20 21  2  0  0  0
 20101  1  0  0  0
 21 23  1  0  0  0
 22 28  1  0  0  0
 22 32  2  0  0  0
 26 27  1  0  0  0
 28102  1  0  0  0
 28103  1  0  0  0
 29104  1  0  0  0
 29105  1  0  0  0
 33 34  1  0  0  0
 33 66  1  0  0  0
 33 70  2  0  0  0
 34 36  1  0  0  0
 34 59  1  0  0  0
 34106  1  0  0  0
 35 44  2  0  0  0
 35 45  1  0  0  0
 35 68  1  0  0  0
 36 56  1  0  0  0
 36107  1  0  0  0
 37 39  1  0  0  0
 37 47  1  0  0  0
 37 66  1  0  0  0
 37108  1  0  0  0
 38 43  2  0  0  0
 38 46  1  0  0  0
 38 47  1  0  0  0
 39 64  1  0  0  0
 39 67  2  0  0  0
 40 52  1  0  0  0
 40 53  2  0  0  0
 40 58  1  0  0  0
 41109  1  0  0  0
 41110  1  0  0  0
 41111  1  0  0  0
 41 48  1  0  0  0
 42 43  1  0  0  0
 42 66  1  0  0  0
 42112  1  0  0  0
 42113  1  0  0  0
 43 44  1  0  0  0
 44114  1  0  0  0
 45 46  2  0  0  0
 45115  1  0  0  0
 46116  1  0  0  0
 47117  1  0  0  0
 47118  1  0  0  0
 48 56  1  0  0  0
 48 65  1  0  0  0
 48119  1  0  0  0
 49 50  1  0  0  0
 49 53  1  0  0  0
 49 64  1  0  0  0
 49120  1  0  0  0
 50 51  1  0  0  0
 50121  1  0  0  0
 50122  1  0  0  0
 51 52  1  0  0  0
 51123  1  0  0  0
 51124  1  0  0  0
 52125  1  0  0  0
 52126  1  0  0  0
 53 54  1  0  0  0
 54 55  2  0  0  0
 54127  1  0  0  0
 55 57  1  0  0  0
 55128  1  0  0  0
 56 69  2  0  0  0
 57 58  2  0  0  0
 57129  1  0  0  0
 58130  1  0  0  0
 59 60  1  0  0  0
 59 61  1  0  0  0
 59 62  1  0  0  0
 60131  1  0  0  0
 60132  1  0  0  0
 60133  1  0  0  0
 61134  1  0  0  0
 61135  1  0  0  0
 61136  1  0  0  0
 62137  1  0  0  0
 62138  1  0  0  0
 62139  1  0  0  0
 63 65  1  0  0  0
 63140  1  0  0  0
 63141  1  0  0  0
 63142  1  0  0  0
 64143  1  0  0  0
 65144  1  0  0  0
 68 82  1  0  0  0
 71 72  2  0  0  0
 71 73  1  0  0  0
 71145  1  0  0  0
 72 75  1  0  0  0
 72146  1  0  0  0
 73 76  2  0  0  0
 73147  1  0  0  0
 74 75  2  0  0  0
 74 76  1  0  0  0
 74148  1  0  0  0
 75 83  1  0  0  0
 76 84  1  0  0  0
 77 79  1  0  0  0
 77 83  1  0  0  0
 77 85  2  0  0  0
 78 79  1  0  0  0
 78 83  1  0  0  0
 78149  1  0  0  0
 78150  1  0  0  0
 79 80  1  0  0  0
 79 82  1  0  0  0
 80151  1  0  0  0
 80152  1  0  0  0
 80153  1  0  0  0
 81 84  1  0  0  0
 81154  1  0  0  0
 81155  1  0  0  0
 81156  1  0  0  0
 82157  1  0  0  0
 82158  1  0  0  0
M  ISO  4   1 100  68 101  82 101  84 100
M  END
> <chiral flag>
0

> <version>
0

> <s_m_source_file>
/data/baiqing/PycharmProjects/Reinvent-master-3.2/result/LINK_invent/BTK/process_docking_weight1_custom_product_contain_oxygen_bond_distance_aromatic_linkinvent_7_9_3/rearranged_h_0072.sdf

> <i_m_source_file_index>
7

> <r_mmod_Potential_Energy-OPLS-2005>
643.661437988281

> <r_mmod_Stretch_Energy-OPLS-2005>
213.599670410156

> <r_mmod_Bend_Energy-OPLS-2005>
314.293640136719

> <r_mmod_Torsional_Energy-OPLS-2005>
333.125213623047

> <r_mmod_Improper_Torsional_Energy-OPLS-2005>
7.50843048095703

> <r_mmod_Van_der_Waal_Energy-OPLS-2005>
153.878570556641

> <r_mmod_Electrostatic_Energy-OPLS-2005>
-280.505279541016

> <r_mmod_Solvation_Energy-OPLS-2005>
-218.746322631836

> <b_mmod_Minimization_Converged-OPLS-2005>
0

> <r_mmod_RMS_Derivative-OPLS-2005>
15.6616973876953

$$$$
7
                    3D
 Structure written by MMmdl.
170180  0  0  1  0            999 V2000
  -30.5572  -14.7998   20.4074 C   0  0  0  0  0  0
  -30.4509  -12.4687   19.4876 C   0  0  0  0  0  0
  -29.5316  -12.4801   18.2478 C   0  0  0  0  0  0
  -28.0475  -12.3150   18.6482 C   0  0  0  0  0  0
  -27.6374  -13.2243   19.8375 C   0  0  2  0  0  0
  -28.6837  -13.1802   20.9733 C   0  0  0  0  0  0
  -25.2498  -13.8111   20.5762 C   0  0  0  0  0  0
  -24.1804  -13.0368   20.9275 C   0  0  0  0  0  0
  -24.6394  -11.6854   20.8741 C   0  0  0  0  0  0
  -23.9088  -10.4247   21.0419 C   0  0  0  0  0  0
  -24.3648   -9.4177   21.9203 C   0  0  0  0  0  0
  -23.6305   -8.2231   22.0782 C   0  0  0  0  0  0
  -22.4289   -8.0275   21.3570 C   0  0  0  0  0  0
  -21.9940   -9.0247   20.4678 C   0  0  0  0  0  0
  -22.7266  -10.2112   20.3064 C   0  0  0  0  0  0
  -21.6848   -6.0745   22.5284 C   0  0  0  0  0  0
  -21.3974   -6.5646   23.8208 C   0  0  0  0  0  0
  -21.3662   -5.6802   24.9177 C   0  0  0  0  0  0
  -21.6062   -4.3073   24.7225 C   0  0  0  0  0  0
  -21.8811   -3.8156   23.4347 C   0  0  0  0  0  0
  -21.9193   -4.6976   22.3408 C   0  0  0  0  0  0
  -22.7826  -13.5181   21.1947 C   0  0  0  0  0  0
  -22.1683   -4.2164   21.0990 F   0  0  0  0  0  0
  -21.5662   -3.4555   25.7743 F   0  0  0  0  0  0
  -29.9823  -13.5450   20.3893 N   0  0  0  0  0  0
  -26.2910  -12.9337   20.3199 N   0  0  0  0  0  0
  -25.9305  -11.6487   20.5672 N   0  0  0  0  0  0
  -22.0417  -12.8171   22.0467 N   0  0  0  0  0  0
  -25.4089  -15.1818   20.4303 N   0  0  0  0  0  0
  -31.7570  -14.9313   20.1484 O   0  0  0  0  0  0
  -21.6635   -6.8888   21.4248 O   0  0  0  0  0  0
  -22.3547  -14.5502   20.6799 O   0  0  0  0  0  0
  -24.6319  -31.8527   23.2007 C   0  0  0  0  0  0
  -25.9163  -32.4735   23.8351 C   0  0  1  0  0  0
  -27.2273  -27.2643   20.1402 C   0  0  0  0  0  0
  -25.5982  -33.8539   24.2292 N   0  0  0  0  0  0
  -23.4302  -30.4782   21.5399 C   0  0  2  0  0  0
  -24.8825  -28.9225   20.1121 C   0  0  0  0  0  0
  -22.7517  -29.4605   22.4874 C   0  0  0  0  0  0
  -18.0310  -28.1375   22.8478 C   0  0  0  0  0  0
  -24.1486  -36.7235   23.2632 C   0  0  0  0  0  0
  -25.9765  -30.7665   21.3825 C   0  0  0  0  0  0
  -26.0536  -29.3900   20.7245 C   0  0  0  0  0  0
  -27.2329  -28.5739   20.7280 C   0  0  0  0  0  0
  -26.0364  -26.8588   19.5039 C   0  0  0  0  0  0
  -24.8784  -27.6627   19.4908 C   0  0  0  0  0  0
  -23.6537  -29.8120   20.1570 C   0  0  0  0  0  0
  -25.4107  -36.3045   24.0338 C   0  0  1  0  0  0
  -20.5916  -28.3688   23.1246 C   0  0  2  0  0  0
  -20.6792  -26.9397   22.5406 C   0  0  0  0  0  0
  -19.5777  -26.6369   21.5195 C   0  0  0  0  0  0
  -18.1956  -26.7917   22.1614 C   0  0  0  0  0  0
  -19.1562  -28.8848   23.2863 C   0  0  0  0  0  0
  -18.9481  -30.1450   23.8879 C   0  0  0  0  0  0
  -17.6479  -30.6565   24.0558 C   0  0  0  0  0  0
  -25.9071  -34.9420   23.5106 C   0  0  0  0  0  0
  -16.5368  -29.9054   23.6340 C   0  0  0  0  0  0
  -16.7300  -28.6484   23.0336 C   0  0  0  0  0  0
  -26.4563  -31.6538   25.0712 C   0  0  0  0  0  0
  -25.3836  -31.3683   26.1470 C   0  0  0  0  0  0
  -27.0386  -30.2941   24.6204 C   0  0  0  0  0  0
  -27.6146  -32.4244   25.7461 C   0  0  0  0  0  0
  -27.5595  -37.1747   24.8455 C   0  0  0  0  0  0
  -21.4231  -29.3018   22.3603 N   0  0  0  0  0  0
  -26.4269  -37.3761   23.9458 N   0  0  0  0  0  0
  -24.6975  -31.0497   22.0978 N   0  0  0  0  0  0
  -23.4200  -28.8135   23.2980 O   0  0  0  0  0  0
  -28.2998  -26.3443   20.1485 O   0  0  0  0  0  0
  -26.5616  -34.8903   22.4660 O   0  0  0  0  0  0
  -23.5478  -32.1341   23.7323 O   0  0  0  0  0  0
  -30.1273  -19.5963   21.5327 C   0  0  0  0  0  0
  -30.2488  -18.1597   21.4714 C   0  0  0  0  0  0
  -29.1927  -19.6210   19.3928 C   0  0  0  0  0  0
  -29.2371  -18.1797   19.3130 C   0  0  0  0  0  0
  -29.5740  -20.4209   20.5021 C   0  0  0  0  0  0
  -29.8009  -17.3717   20.3709 C   0  0  0  0  0  0
  -28.6007  -23.8165   20.6905 C   0  0  0  0  0  0
  -29.3650  -23.0457   19.7062 C   0  0  0  0  0  0
  -28.1311  -25.1212   20.8629 C   0  0  0  0  0  0
  -28.4555  -22.5181   21.5215 C   0  0  0  0  0  0
  -26.8066  -15.9869   16.1759 C   0  0  0  0  0  0
  -29.0453  -16.3986   17.3526 C   0  0  0  0  0  0
  -26.1102  -17.1748   16.8589 C   0  0  0  0  0  0
  -28.4977  -17.6387   18.0850 C   0  0  1  0  0  0
  -28.3413  -16.1316   15.9840 C   0  0  0  0  0  0
  -28.6749  -17.2369   14.9523 C   0  0  0  0  0  0
  -28.8477  -14.8046   15.3828 C   0  0  0  0  0  0
  -29.4061  -21.9028   20.5704 N   0  0  0  0  0  0
  -29.6800  -15.8831   20.4758 N   0  0  0  0  0  0
  -29.6893  -23.3035   18.5667 O   0  0  0  0  0  0
  -26.7572  -17.4348   18.5276 S   0  0  0  0  0  0
  -31.4879  -12.6187   19.1838 H   0  0  0  0  0  0
  -30.4193  -11.5019   19.9910 H   0  0  0  0  0  0
  -29.8190  -11.6932   17.5494 H   0  0  0  0  0  0
  -29.6816  -13.4200   17.7198 H   0  0  0  0  0  0
  -27.8982  -11.2674   18.9138 H   0  0  0  0  0  0
  -27.4005  -12.4989   17.7906 H   0  0  0  0  0  0
  -27.6145  -14.2381   19.4410 H   0  0  0  0  0  0
  -28.7327  -12.1834   21.4155 H   0  0  0  0  0  0
  -28.4119  -13.8627   21.7826 H   0  0  0  0  0  0
  -25.2815   -9.5661   22.4758 H   0  0  0  0  0  0
  -24.0028   -7.4638   22.7508 H   0  0  0  0  0  0
  -21.0869   -8.8768   19.9006 H   0  0  0  0  0  0
  -22.3745  -10.9664   19.6174 H   0  0  0  0  0  0
  -21.1902   -7.6144   23.9721 H   0  0  0  0  0  0
  -21.1518   -6.0530   25.9086 H   0  0  0  0  0  0
  -22.0586   -2.7618   23.2843 H   0  0  0  0  0  0
  -22.3991  -11.9815   22.4861 H   0  0  0  0  0  0
  -21.1048  -13.1253   22.2695 H   0  0  0  0  0  0
  -24.6148  -15.8047   20.5259 H   0  0  0  0  0  0
  -26.1822  -15.6286   19.9491 H   0  0  0  0  0  0
  -26.7227  -32.5404   23.1096 H   0  0  0  0  0  0
  -25.0178  -33.9677   25.0476 H   0  0  0  0  0  0
  -22.7289  -31.3017   21.3957 H   0  0  0  0  0  0
  -23.3787  -35.9523   23.3213 H   0  0  0  0  0  0
  -24.3596  -36.8923   22.2066 H   0  0  0  0  0  0
  -23.7179  -37.6390   23.6686 H   0  0  0  0  0  0
  -26.1253  -31.5273   20.6150 H   0  0  0  0  0  0
  -26.8514  -30.8088   22.0202 H   0  0  0  0  0  0
  -28.1301  -28.9262   21.2166 H   0  0  0  0  0  0
  -25.9945  -25.8877   19.0287 H   0  0  0  0  0  0
  -23.9829  -27.2966   19.0084 H   0  0  0  0  0  0
  -23.7862  -30.5898   19.4048 H   0  0  0  0  0  0
  -22.7700  -29.2541   19.8417 H   0  0  0  0  0  0
  -25.1265  -36.1880   25.0826 H   0  0  0  0  0  0
  -21.0047  -28.3276   24.1346 H   0  0  0  0  0  0
  -20.5658  -26.2293   23.3609 H   0  0  0  0  0  0
  -21.6659  -26.7374   22.1213 H   0  0  0  0  0  0
  -19.6916  -25.6277   21.1200 H   0  0  0  0  0  0
  -19.6702  -27.3200   20.6736 H   0  0  0  0  0  0
  -17.4218  -26.6671   21.4021 H   0  0  0  0  0  0
  -18.0360  -26.0043   22.9005 H   0  0  0  0  0  0
  -19.7953  -30.7279   24.2225 H   0  0  0  0  0  0
  -17.5018  -31.6234   24.5168 H   0  0  0  0  0  0
  -15.5363  -30.2940   23.7647 H   0  0  0  0  0  0
  -15.8721  -28.0795   22.7025 H   0  0  0  0  0  0
  -24.5999  -30.7033   25.7832 H   0  0  0  0  0  0
  -24.9064  -32.2842   26.4951 H   0  0  0  0  0  0
  -25.8210  -30.8840   27.0210 H   0  0  0  0  0  0
  -26.2946  -29.6669   24.1277 H   0  0  0  0  0  0
  -27.4099  -29.7233   25.4728 H   0  0  0  0  0  0
  -27.8826  -30.4182   23.9418 H   0  0  0  0  0  0
  -27.2814  -33.3572   26.2020 H   0  0  0  0  0  0
  -28.3973  -32.6736   25.0281 H   0  0  0  0  0  0
  -28.0788  -31.8355   26.5389 H   0  0  0  0  0  0
  -28.2535  -38.0123   24.7611 H   0  0  0  0  0  0
  -28.1164  -36.2657   24.6112 H   0  0  0  0  0  0
  -27.2336  -37.1186   25.8859 H   0  0  0  0  0  0
  -20.9408  -29.8720   21.6798 H   0  0  0  0  0  0
  -26.0127  -38.2804   24.1557 H   0  0  0  0  0  0
  -30.4701  -20.0820   22.4352 H   0  0  0  0  0  0
  -30.6420  -17.6512   22.3393 H   0  0  0  0  0  0
  -28.7540  -20.1609   18.5643 H   0  0  0  0  0  0
  -27.5425  -25.3157   21.7494 H   0  0  0  0  0  0
  -27.4852  -22.0186   21.4962 H   0  0  0  0  0  0
  -28.8419  -22.5261   22.5415 H   0  0  0  0  0  0
  -26.3303  -15.8173   15.2093 H   0  0  0  0  0  0
  -26.5955  -15.0927   16.7658 H   0  0  0  0  0  0
  -28.9284  -15.5278   17.9899 H   0  0  0  0  0  0
  -30.1178  -16.5239   17.1965 H   0  0  0  0  0  0
  -25.0377  -16.9859   16.9309 H   0  0  0  0  0  0
  -26.2287  -18.0904   16.2780 H   0  0  0  0  0  0
  -28.5164  -18.4431   17.3538 H   0  0  0  0  0  0
  -28.2664  -18.2125   15.2125 H   0  0  0  0  0  0
  -28.2762  -16.9899   13.9677 H   0  0  0  0  0  0
  -29.7535  -17.3585   14.8390 H   0  0  0  0  0  0
  -28.5098  -13.9439   15.9572 H   0  0  0  0  0  0
  -29.9360  -14.7687   15.3301 H   0  0  0  0  0  0
  -28.4655  -14.6595   14.3708 H   0  0  0  0  0  0
  -28.7265  -15.5718   20.5745 H   0  0  0  0  0  0
  1 25  1  0  0  0
  1 30  2  0  0  0
  1 89  1  0  0  0
  2  3  1  0  0  0
  2 25  1  0  0  0
  2 92  1  0  0  0
  2 93  1  0  0  0
  3  4  1  0  0  0
  3 94  1  0  0  0
  3 95  1  0  0  0
  4  5  1  0  0  0
  4 96  1  0  0  0
  4 97  1  0  0  0
  5  6  1  0  0  0
  5 26  1  0  0  0
  5 98  1  0  0  0
  6 25  1  0  0  0
  6 99  1  0  0  0
  6100  1  0  0  0
  7  8  2  0  0  0
  7 26  1  0  0  0
  7 29  1  0  0  0
  8  9  1  0  0  0
  8 22  1  0  0  0
  9 10  1  0  0  0
  9 27  2  0  0  0
 10 11  2  0  0  0
 10 15  1  0  0  0
 11 12  1  0  0  0
 11101  1  0  0  0
 12 13  2  0  0  0
 12102  1  0  0  0
 13 14  1  0  0  0
 13 31  1  0  0  0
 14 15  2  0  0  0
 14103  1  0  0  0
 15104  1  0  0  0
 16 17  2  0  0  0
 16 21  1  0  0  0
 16 31  1  0  0  0
 17 18  1  0  0  0
 17105  1  0  0  0
 18 19  2  0  0  0
 18106  1  0  0  0
 19 20  1  0  0  0
 19 24  1  0  0  0
 20 21  2  0  0  0
 20107  1  0  0  0
 21 23  1  0  0  0
 22 28  1  0  0  0
 22 32  2  0  0  0
 26 27  1  0  0  0
 28108  1  0  0  0
 28109  1  0  0  0
 29110  1  0  0  0
 29111  1  0  0  0
 33 34  1  0  0  0
 33 66  1  0  0  0
 33 70  2  0  0  0
 34 36  1  0  0  0
 34 59  1  0  0  0
 34112  1  0  0  0
 35 44  2  0  0  0
 35 45  1  0  0  0
 35 68  1  0  0  0
 36 56  1  0  0  0
 36113  1  0  0  0
 37 39  1  0  0  0
 37 47  1  0  0  0
 37 66  1  0  0  0
 37114  1  0  0  0
 38 43  2  0  0  0
 38 46  1  0  0  0
 38 47  1  0  0  0
 39 64  1  0  0  0
 39 67  2  0  0  0
 40 52  1  0  0  0
 40 53  2  0  0  0
 40 58  1  0  0  0
 41115  1  0  0  0
 41116  1  0  0  0
 41117  1  0  0  0
 41 48  1  0  0  0
 42 43  1  0  0  0
 42 66  1  0  0  0
 42118  1  0  0  0
 42119  1  0  0  0
 43 44  1  0  0  0
 44120  1  0  0  0
 45 46  2  0  0  0
 45121  1  0  0  0
 46122  1  0  0  0
 47123  1  0  0  0
 47124  1  0  0  0
 48 56  1  0  0  0
 48 65  1  0  0  0
 48125  1  0  0  0
 49 50  1  0  0  0
 49 53  1  0  0  0
 49 64  1  0  0  0
 49126  1  0  0  0
 50 51  1  0  0  0
 50127  1  0  0  0
 50128  1  0  0  0
 51 52  1  0  0  0
 51129  1  0  0  0
 51130  1  0  0  0
 52131  1  0  0  0
 52132  1  0  0  0
 53 54  1  0  0  0
 54 55  2  0  0  0
 54133  1  0  0  0
 55 57  1  0  0  0
 55134  1  0  0  0
 56 69  2  0  0  0
 57 58  2  0  0  0
 57135  1  0  0  0
 58136  1  0  0  0
 59 60  1  0  0  0
 59 61  1  0  0  0
 59 62  1  0  0  0
 60137  1  0  0  0
 60138  1  0  0  0
 60139  1  0  0  0
 61140  1  0  0  0
 61141  1  0  0  0
 61142  1  0  0  0
 62143  1  0  0  0
 62144  1  0  0  0
 62145  1  0  0  0
 63 65  1  0  0  0
 63146  1  0  0  0
 63147  1  0  0  0
 63148  1  0  0  0
 64149  1  0  0  0
 65150  1  0  0  0
 68 79  1  0  0  0
 71 72  2  0  0  0
 71 75  1  0  0  0
 71151  1  0  0  0
 72 76  1  0  0  0
 72152  1  0  0  0
 73 74  1  0  0  0
 73 75  2  0  0  0
 73153  1  0  0  0
 74 76  2  0  0  0
 74 84  1  0  0  0
 75 88  1  0  0  0
 76 89  1  0  0  0
 77 78  1  0  0  0
 77 79  2  0  0  0
 77 80  1  0  0  0
 78 88  1  0  0  0
 78 90  2  0  0  0
 79154  1  0  0  0
 80 88  1  0  0  0
 80155  1  0  0  0
 80156  1  0  0  0
 81 83  1  0  0  0
 81 85  1  0  0  0
 81157  1  0  0  0
 81158  1  0  0  0
 82 84  1  0  0  0
 82 85  1  0  0  0
 82159  1  0  0  0
 82160  1  0  0  0
 83 91  1  0  0  0
 83161  1  0  0  0
 83162  1  0  0  0
 84 91  1  0  0  0
 84163  1  0  0  0
 85 86  1  0  0  0
 85 87  1  0  0  0
 86164  1  0  0  0
 86165  1  0  0  0
 86166  1  0  0  0
 87167  1  0  0  0
 87168  1  0  0  0
 87169  1  0  0  0
 89170  1  0  0  0
M  ISO  4   1 100  68 101  79 101  89 100
M  END
> <chiral flag>
0

> <version>
0

> <s_m_source_file>
/data/baiqing/PycharmProjects/Reinvent-master-3.2/result/LINK_invent/BTK/process_docking_weight1_custom_product_contain_oxygen_bond_distance_aromatic_linkinvent_7_9_3/rearranged_h_0072.sdf

> <i_m_source_file_index>
8

> <r_mmod_Potential_Energy-OPLS-2005>
318.492858886719

> <r_mmod_Stretch_Energy-OPLS-2005>
116.814331054688

> <r_mmod_Bend_Energy-OPLS-2005>
263.14208984375

> <r_mmod_Torsional_Energy-OPLS-2005>
293.052917480469

> <r_mmod_Improper_Torsional_Energy-OPLS-2005>
12.5478620529175

> <r_mmod_Van_der_Waal_Energy-OPLS-2005>
116.914733886719

> <r_mmod_Electrostatic_Energy-OPLS-2005>
-374.892059326172

> <r_mmod_Solvation_Energy-OPLS-2005>
-213.195755004883

> <b_mmod_Minimization_Converged-OPLS-2005>
0

> <r_mmod_RMS_Derivative-OPLS-2005>
3.58689284324646

$$$$
8
                    3D
 Structure written by MMmdl.
163172  0  0  1  0            999 V2000
  -30.6304  -14.6086   20.4609 C   0  0  0  0  0  0
  -30.4361  -12.3591   19.4654 C   0  0  0  0  0  0
  -29.5135  -12.4732   18.2308 C   0  0  0  0  0  0
  -28.0342  -12.3311   18.6394 C   0  0  0  0  0  0
  -27.6561  -13.2103   19.8622 C   0  0  2  0  0  0
  -28.6966  -13.0719   20.9973 C   0  0  0  0  0  0
  -25.2599  -13.8166   20.5679 C   0  0  0  0  0  0
  -24.1845  -13.0455   20.9170 C   0  0  0  0  0  0
  -24.6388  -11.6922   20.8717 C   0  0  0  0  0  0
  -23.9072  -10.4289   21.0386 C   0  0  0  0  0  0
  -24.3623   -9.4201   21.9170 C   0  0  0  0  0  0
  -23.6287   -8.2240   22.0755 C   0  0  0  0  0  0
  -22.4256   -8.0290   21.3544 C   0  0  0  0  0  0
  -21.9890   -9.0277   20.4661 C   0  0  0  0  0  0
  -22.7236  -10.2146   20.3063 C   0  0  0  0  0  0
  -21.6851   -6.0733   22.5273 C   0  0  0  0  0  0
  -21.4013   -6.5625   23.8206 C   0  0  0  0  0  0
  -21.3658   -5.6781   24.9167 C   0  0  0  0  0  0
  -21.6038   -4.3044   24.7211 C   0  0  0  0  0  0
  -21.8818   -3.8149   23.4332 C   0  0  0  0  0  0
  -21.9193   -4.6972   22.3392 C   0  0  0  0  0  0
  -22.7856  -13.5269   21.1842 C   0  0  0  0  0  0
  -22.1655   -4.2158   21.0964 F   0  0  0  0  0  0
  -21.5643   -3.4523   25.7724 F   0  0  0  0  0  0
  -30.0162  -13.3899   20.4342 N   0  0  0  0  0  0
  -26.2997  -12.9330   20.3291 N   0  0  0  0  0  0
  -25.9311  -11.6492   20.5725 N   0  0  0  0  0  0
  -22.0514  -12.8284   22.0423 N   0  0  0  0  0  0
  -25.4407  -15.1870   20.4107 N   0  0  0  0  0  0
  -31.7993  -14.7514   20.0841 O   0  0  0  0  0  0
  -21.6644   -6.8874   21.4228 O   0  0  0  0  0  0
  -22.3530  -14.5562   20.6687 O   0  0  0  0  0  0
  -24.6267  -31.8620   23.2067 C   0  0  0  0  0  0
  -25.9115  -32.4791   23.8385 C   0  0  1  0  0  0
  -27.2130  -27.3259   20.1094 C   0  0  0  0  0  0
  -25.5939  -33.8597   24.2314 N   0  0  0  0  0  0
  -23.4196  -30.4887   21.5496 C   0  0  2  0  0  0
  -24.8642  -28.9570   20.1067 C   0  0  0  0  0  0
  -22.7488  -29.4629   22.4947 C   0  0  0  0  0  0
  -18.0288  -28.1387   22.8487 C   0  0  0  0  0  0
  -24.1487  -36.7297   23.2632 C   0  0  0  0  0  0
  -25.9618  -30.7964   21.3784 C   0  0  0  0  0  0
  -26.0348  -29.4276   20.7153 C   0  0  0  0  0  0
  -27.2135  -28.6225   20.7109 C   0  0  0  0  0  0
  -26.0220  -26.9269   19.4532 C   0  0  0  0  0  0
  -24.8611  -27.7142   19.4639 C   0  0  0  0  0  0
  -23.6318  -29.8329   20.1616 C   0  0  0  0  0  0
  -25.4103  -36.3087   24.0335 C   0  0  1  0  0  0
  -20.5891  -28.3689   23.1292 C   0  0  2  0  0  0
  -20.6778  -26.9412   22.5417 C   0  0  0  0  0  0
  -19.5747  -26.6390   21.5220 C   0  0  0  0  0  0
  -18.1926  -26.7939   22.1625 C   0  0  0  0  0  0
  -19.1542  -28.8853   23.2888 C   0  0  0  0  0  0
  -18.9461  -30.1462   23.8897 C   0  0  0  0  0  0
  -17.6459  -30.6587   24.0563 C   0  0  0  0  0  0
  -25.9039  -34.9455   23.5112 C   0  0  0  0  0  0
  -16.5356  -29.9084   23.6336 C   0  0  0  0  0  0
  -16.7274  -28.6509   23.0352 C   0  0  0  0  0  0
  -26.4506  -31.6599   25.0746 C   0  0  0  0  0  0
  -25.3752  -31.3785   26.1494 C   0  0  0  0  0  0
  -27.0318  -30.3003   24.6217 C   0  0  0  0  0  0
  -27.6096  -32.4320   25.7483 C   0  0  0  0  0  0
  -27.5582  -37.1784   24.8453 C   0  0  0  0  0  0
  -21.4195  -29.3050   22.3687 N   0  0  0  0  0  0
  -26.4285  -37.3778   23.9413 N   0  0  0  0  0  0
  -24.6877  -31.0639   22.1015 N   0  0  0  0  0  0
  -23.4212  -28.8148   23.3005 O   0  0  0  0  0  0
  -28.2994  -26.4391   20.1899 O   0  0  0  0  0  0
  -26.5598  -34.8919   22.4675 O   0  0  0  0  0  0
  -23.5428  -32.1416   23.7396 O   0  0  0  0  0  0
  -29.2783  -19.1125   18.1876 C   0  0  0  0  0  0
  -29.5686  -18.2240   20.4329 C   0  0  0  0  0  0
  -29.6236  -16.7168   18.5084 C   0  0  0  0  0  0
  -29.3688  -19.3748   19.5775 C   0  0  0  0  0  0
  -29.3944  -17.8153   17.6643 C   0  0  0  0  0  0
  -29.7213  -16.8875   19.9099 C   0  0  0  0  0  0
  -28.6173  -21.1954   21.1498 C   0  0  0  0  0  0
  -27.9776  -22.6186   21.1542 C   0  0  0  0  0  0
  -29.8856  -23.2570   19.6562 C   0  0  0  0  0  0
  -29.4879  -21.8795   19.0228 C   0  0  0  0  0  0
  -28.8744  -23.8308   20.6979 C   0  0  2  0  0  0
  -29.6336  -24.3777   21.9233 C   0  0  0  0  0  0
  -27.9565  -24.9981   20.1161 C   0  0  0  0  0  0
  -29.2189  -20.7840   19.9992 N   0  0  0  0  0  0
  -29.2439  -17.6178   16.2962 N   0  0  0  0  0  0
  -29.8513  -15.6957   20.7396 N   0  0  0  0  0  0
  -28.5247  -20.5007   22.1667 O   0  0  0  0  0  0
  -31.4807  -12.4652   19.1680 H   0  0  0  0  0  0
  -30.3568  -11.3689   19.9161 H   0  0  0  0  0  0
  -29.7711  -11.7068   17.4987 H   0  0  0  0  0  0
  -29.6677  -13.4312   17.7319 H   0  0  0  0  0  0
  -27.8584  -11.2802   18.8771 H   0  0  0  0  0  0
  -27.3862  -12.5617   17.7929 H   0  0  0  0  0  0
  -27.6766  -14.2431   19.5146 H   0  0  0  0  0  0
  -28.6974  -12.0549   21.3921 H   0  0  0  0  0  0
  -28.4504  -13.7203   21.8406 H   0  0  0  0  0  0
  -25.2775   -9.5679   22.4737 H   0  0  0  0  0  0
  -24.0013   -7.4613   22.7458 H   0  0  0  0  0  0
  -21.0816   -8.8805   19.8954 H   0  0  0  0  0  0
  -22.3691  -10.9696   19.6184 H   0  0  0  0  0  0
  -21.2004   -7.6134   23.9700 H   0  0  0  0  0  0
  -21.1478   -6.0515   25.9065 H   0  0  0  0  0  0
  -22.0605   -2.7620   23.2829 H   0  0  0  0  0  0
  -22.4141  -11.9982   22.4858 H   0  0  0  0  0  0
  -21.1147  -13.1346   22.2663 H   0  0  0  0  0  0
  -24.6909  -15.8568   20.5434 H   0  0  0  0  0  0
  -26.3031  -15.6148   20.0984 H   0  0  0  0  0  0
  -26.7183  -32.5463   23.1134 H   0  0  0  0  0  0
  -25.0106  -33.9759   25.0470 H   0  0  0  0  0  0
  -22.7126  -31.3092   21.4119 H   0  0  0  0  0  0
  -23.3753  -35.9624   23.3285 H   0  0  0  0  0  0
  -24.3587  -36.8928   22.2048 H   0  0  0  0  0  0
  -23.7245  -37.6500   23.6661 H   0  0  0  0  0  0
  -26.0952  -31.5641   20.6147 H   0  0  0  0  0  0
  -26.8407  -30.8400   22.0099 H   0  0  0  0  0  0
  -28.1082  -28.9712   21.2065 H   0  0  0  0  0  0
  -25.9469  -25.9837   18.9345 H   0  0  0  0  0  0
  -23.9682  -27.3536   18.9714 H   0  0  0  0  0  0
  -23.7470  -30.6120   19.4072 H   0  0  0  0  0  0
  -22.7523  -29.2610   19.8594 H   0  0  0  0  0  0
  -25.1278  -36.1933   25.0827 H   0  0  0  0  0  0
  -20.9990  -28.3258   24.1412 H   0  0  0  0  0  0
  -20.5688  -26.2291   23.3613 H   0  0  0  0  0  0
  -21.6646  -26.7446   22.1207 H   0  0  0  0  0  0
  -19.6901  -25.6302   21.1248 H   0  0  0  0  0  0
  -19.6679  -27.3208   20.6757 H   0  0  0  0  0  0
  -17.4200  -26.6710   21.4018 H   0  0  0  0  0  0
  -18.0298  -26.0082   22.9017 H   0  0  0  0  0  0
  -19.7932  -30.7283   24.2265 H   0  0  0  0  0  0
  -17.5010  -31.6268   24.5171 H   0  0  0  0  0  0
  -15.5351  -30.2977   23.7663 H   0  0  0  0  0  0
  -15.8684  -28.0825   22.7066 H   0  0  0  0  0  0
  -24.5904  -30.7140   25.7861 H   0  0  0  0  0  0
  -24.8966  -32.2974   26.4892 H   0  0  0  0  0  0
  -25.8081  -30.8996   27.0283 H   0  0  0  0  0  0
  -26.2876  -29.6766   24.1248 H   0  0  0  0  0  0
  -27.3992  -29.7264   25.4735 H   0  0  0  0  0  0
  -27.8772  -30.4257   23.9448 H   0  0  0  0  0  0
  -27.2732  -33.3617   26.2090 H   0  0  0  0  0  0
  -28.3869  -32.6890   25.0272 H   0  0  0  0  0  0
  -28.0806  -31.8430   26.5363 H   0  0  0  0  0  0
  -28.2600  -38.0082   24.7515 H   0  0  0  0  0  0
  -28.1082  -36.2622   24.6242 H   0  0  0  0  0  0
  -27.2323  -37.1406   25.8864 H   0  0  0  0  0  0
  -20.9364  -29.8777   21.6909 H   0  0  0  0  0  0
  -26.0168  -38.2850   24.1442 H   0  0  0  0  0  0
  -29.0864  -19.9112   17.4852 H   0  0  0  0  0  0
  -29.6226  -18.3604   21.5025 H   0  0  0  0  0  0
  -29.6852  -15.7307   18.0710 H   0  0  0  0  0  0
  -27.5405  -22.8104   22.1348 H   0  0  0  0  0  0
  -27.1249  -22.5361   20.4789 H   0  0  0  0  0  0
  -30.0651  -23.9887   18.8709 H   0  0  0  0  0  0
  -30.8591  -23.1131   20.1303 H   0  0  0  0  0  0
  -30.2950  -21.5833   18.3521 H   0  0  0  0  0  0
  -28.6013  -22.0134   18.3994 H   0  0  0  0  0  0
  -30.2839  -23.6209   22.3653 H   0  0  0  0  0  0
  -28.9433  -24.7102   22.6994 H   0  0  0  0  0  0
  -30.2561  -25.2329   21.6575 H   0  0  0  0  0  0
  -27.0083  -24.8869   20.6457 H   0  0  0  0  0  0
  -27.7423  -24.7520   19.0756 H   0  0  0  0  0  0
  -28.7399  -18.3407   15.7907 H   0  0  0  0  0  0
  -28.9911  -16.6840   15.9892 H   0  0  0  0  0  0
  -29.0372  -15.4867   21.2996 H   0  0  0  0  0  0
  1 25  1  0  0  0
  1 30  2  0  0  0
  1 86  1  0  0  0
  2  3  1  0  0  0
  2 25  1  0  0  0
  2 88  1  0  0  0
  2 89  1  0  0  0
  3  4  1  0  0  0
  3 90  1  0  0  0
  3 91  1  0  0  0
  4  5  1  0  0  0
  4 92  1  0  0  0
  4 93  1  0  0  0
  5  6  1  0  0  0
  5 26  1  0  0  0
  5 94  1  0  0  0
  6 25  1  0  0  0
  6 95  1  0  0  0
  6 96  1  0  0  0
  7  8  2  0  0  0
  7 26  1  0  0  0
  7 29  1  0  0  0
  8  9  1  0  0  0
  8 22  1  0  0  0
  9 10  1  0  0  0
  9 27  2  0  0  0
 10 11  2  0  0  0
 10 15  1  0  0  0
 11 12  1  0  0  0
 11 97  1  0  0  0
 12 13  2  0  0  0
 12 98  1  0  0  0
 13 14  1  0  0  0
 13 31  1  0  0  0
 14 15  2  0  0  0
 14 99  1  0  0  0
 15100  1  0  0  0
 16 17  2  0  0  0
 16 21  1  0  0  0
 16 31  1  0  0  0
 17 18  1  0  0  0
 17101  1  0  0  0
 18 19  2  0  0  0
 18102  1  0  0  0
 19 20  1  0  0  0
 19 24  1  0  0  0
 20 21  2  0  0  0
 20103  1  0  0  0
 21 23  1  0  0  0
 22 28  1  0  0  0
 22 32  2  0  0  0
 26 27  1  0  0  0
 28104  1  0  0  0
 28105  1  0  0  0
 29106  1  0  0  0
 29107  1  0  0  0
 33 34  1  0  0  0
 33 66  1  0  0  0
 33 70  2  0  0  0
 34 36  1  0  0  0
 34 59  1  0  0  0
 34108  1  0  0  0
 35 44  2  0  0  0
 35 45  1  0  0  0
 35 68  1  0  0  0
 36 56  1  0  0  0
 36109  1  0  0  0
 37 39  1  0  0  0
 37 47  1  0  0  0
 37 66  1  0  0  0
 37110  1  0  0  0
 38 43  2  0  0  0
 38 46  1  0  0  0
 38 47  1  0  0  0
 39 64  1  0  0  0
 39 67  2  0  0  0
 40 52  1  0  0  0
 40 53  2  0  0  0
 40 58  1  0  0  0
 41111  1  0  0  0
 41112  1  0  0  0
 41113  1  0  0  0
 41 48  1  0  0  0
 42 43  1  0  0  0
 42 66  1  0  0  0
 42114  1  0  0  0
 42115  1  0  0  0
 43 44  1  0  0  0
 44116  1  0  0  0
 45 46  2  0  0  0
 45117  1  0  0  0
 46118  1  0  0  0
 47119  1  0  0  0
 47120  1  0  0  0
 48 56  1  0  0  0
 48 65  1  0  0  0
 48121  1  0  0  0
 49 50  1  0  0  0
 49 53  1  0  0  0
 49 64  1  0  0  0
 49122  1  0  0  0
 50 51  1  0  0  0
 50123  1  0  0  0
 50124  1  0  0  0
 51 52  1  0  0  0
 51125  1  0  0  0
 51126  1  0  0  0
 52127  1  0  0  0
 52128  1  0  0  0
 53 54  1  0  0  0
 54 55  2  0  0  0
 54129  1  0  0  0
 55 57  1  0  0  0
 55130  1  0  0  0
 56 69  2  0  0  0
 57 58  2  0  0  0
 57131  1  0  0  0
 58132  1  0  0  0
 59 60  1  0  0  0
 59 61  1  0  0  0
 59 62  1  0  0  0
 60133  1  0  0  0
 60134  1  0  0  0
 60135  1  0  0  0
 61136  1  0  0  0
 61137  1  0  0  0
 61138  1  0  0  0
 62139  1  0  0  0
 62140  1  0  0  0
 62141  1  0  0  0
 63 65  1  0  0  0
 63142  1  0  0  0
 63143  1  0  0  0
 63144  1  0  0  0
 64145  1  0  0  0
 65146  1  0  0  0
 68 83  1  0  0  0
 71 74  2  0  0  0
 71 75  1  0  0  0
 71147  1  0  0  0
 72 74  1  0  0  0
 72 76  2  0  0  0
 72148  1  0  0  0
 73 75  2  0  0  0
 73 76  1  0  0  0
 73149  1  0  0  0
 74 84  1  0  0  0
 75 85  1  0  0  0
 76 86  1  0  0  0
 77 78  1  0  0  0
 77 84  1  0  0  0
 77 87  2  0  0  0
 78 81  1  0  0  0
 78150  1  0  0  0
 78151  1  0  0  0
 79 80  1  0  0  0
 79 81  1  0  0  0
 79152  1  0  0  0
 79153  1  0  0  0
 80 84  1  0  0  0
 80154  1  0  0  0
 80155  1  0  0  0
 81 82  1  0  0  0
 81 83  1  0  0  0
 82156  1  0  0  0
 82157  1  0  0  0
 82158  1  0  0  0
 83159  1  0  0  0
 83160  1  0  0  0
 85161  1  0  0  0
 85162  1  0  0  0
 86163  1  0  0  0
M  ISO  4   1 100  68 101  83 101  86 100
M  END
> <chiral flag>
0

> <version>
0

> <s_m_source_file>
/data/baiqing/PycharmProjects/Reinvent-master-3.2/result/LINK_invent/BTK/process_docking_weight1_custom_product_contain_oxygen_bond_distance_aromatic_linkinvent_7_9_3/rearranged_h_0072.sdf

> <i_m_source_file_index>
9

> <r_mmod_Potential_Energy-OPLS-2005>
228.698974609375

> <r_mmod_Stretch_Energy-OPLS-2005>
84.2985229492188

> <r_mmod_Bend_Energy-OPLS-2005>
139.152297973633

> <r_mmod_Torsional_Energy-OPLS-2005>
326.771728515625

> <r_mmod_Improper_Torsional_Energy-OPLS-2005>
10.9017276763916

> <r_mmod_Van_der_Waal_Energy-OPLS-2005>
174.23551940918

> <r_mmod_Electrostatic_Energy-OPLS-2005>
-321.700042724609

> <r_mmod_Solvation_Energy-OPLS-2005>
-233.967193603516

> <b_mmod_Minimization_Converged-OPLS-2005>
0

> <r_mmod_RMS_Derivative-OPLS-2005>
3.35323333740234

$$$$
9
                    3D
 Structure written by MMmdl.
161170  0  0  1  0            999 V2000
  -30.6084  -14.7594   20.4537 C   0  0  0  0  0  0
  -30.4324  -12.4638   19.4705 C   0  0  0  0  0  0
  -29.5143  -12.5111   18.2289 C   0  0  0  0  0  0
  -28.0384  -12.3295   18.6406 C   0  0  0  0  0  0
  -27.6387  -13.2310   19.8400 C   0  0  2  0  0  0
  -28.6854  -13.1791   20.9753 C   0  0  0  0  0  0
  -25.2492  -13.8177   20.5668 C   0  0  0  0  0  0
  -24.1793  -13.0422   20.9210 C   0  0  0  0  0  0
  -24.6387  -11.6900   20.8732 C   0  0  0  0  0  0
  -23.9057  -10.4281   21.0409 C   0  0  0  0  0  0
  -24.3624   -9.4200   21.9192 C   0  0  0  0  0  0
  -23.6303   -8.2229   22.0747 C   0  0  0  0  0  0
  -22.4285   -8.0268   21.3534 C   0  0  0  0  0  0
  -21.9919   -9.0239   20.4646 C   0  0  0  0  0  0
  -22.7233  -10.2124   20.3050 C   0  0  0  0  0  0
  -21.6844   -6.0732   22.5292 C   0  0  0  0  0  0
  -21.4018   -6.5635   23.8226 C   0  0  0  0  0  0
  -21.3652   -5.6788   24.9191 C   0  0  0  0  0  0
  -21.6038   -4.3050   24.7240 C   0  0  0  0  0  0
  -21.8810   -3.8144   23.4355 C   0  0  0  0  0  0
  -21.9183   -4.6963   22.3415 C   0  0  0  0  0  0
  -22.7812  -13.5211   21.1862 C   0  0  0  0  0  0
  -22.1652   -4.2145   21.0996 F   0  0  0  0  0  0
  -21.5631   -3.4538   25.7751 F   0  0  0  0  0  0
  -29.9808  -13.5349   20.3861 N   0  0  0  0  0  0
  -26.2926  -12.9390   20.3225 N   0  0  0  0  0  0
  -25.9314  -11.6532   20.5716 N   0  0  0  0  0  0
  -22.0435  -12.8227   22.0430 N   0  0  0  0  0  0
  -25.4161  -15.1902   20.4085 N   0  0  0  0  0  0
  -31.8110  -14.8361   20.1859 O   0  0  0  0  0  0
  -21.6626   -6.8880   21.4251 O   0  0  0  0  0  0
  -22.3503  -14.5505   20.6675 O   0  0  0  0  0  0
  -24.6284  -31.8551   23.1990 C   0  0  0  0  0  0
  -25.9120  -32.4761   23.8324 C   0  0  1  0  0  0
  -27.2267  -27.2654   20.1203 C   0  0  0  0  0  0
  -25.5922  -33.8560   24.2242 N   0  0  0  0  0  0
  -23.4266  -30.4760   21.5400 C   0  0  2  0  0  0
  -24.8755  -28.9254   20.1039 C   0  0  0  0  0  0
  -22.7491  -29.4587   22.4895 C   0  0  0  0  0  0
  -18.0282  -28.1379   22.8481 C   0  0  0  0  0  0
  -24.1482  -36.7283   23.2642 C   0  0  0  0  0  0
  -25.9707  -30.7668   21.3811 C   0  0  0  0  0  0
  -26.0417  -29.3889   20.7228 C   0  0  0  0  0  0
  -27.2141  -28.5672   20.7279 C   0  0  0  0  0  0
  -26.0365  -26.8686   19.4728 C   0  0  0  0  0  0
  -24.8778  -27.6730   19.4679 C   0  0  0  0  0  0
  -23.6449  -29.8116   20.1540 C   0  0  0  0  0  0
  -25.4109  -36.3068   24.0321 C   0  0  1  0  0  0
  -20.5887  -28.3684   23.1276 C   0  0  2  0  0  0
  -20.6775  -26.9401   22.5416 C   0  0  0  0  0  0
  -19.5757  -26.6365   21.5212 C   0  0  0  0  0  0
  -18.1928  -26.7923   22.1613 C   0  0  0  0  0  0
  -19.1540  -28.8847   23.2875 C   0  0  0  0  0  0
  -18.9464  -30.1449   23.8887 C   0  0  0  0  0  0
  -17.6468  -30.6585   24.0554 C   0  0  0  0  0  0
  -25.9048  -34.9444   23.5081 C   0  0  0  0  0  0
  -16.5353  -29.9082   23.6330 C   0  0  0  0  0  0
  -16.7274  -28.6497   23.0356 C   0  0  0  0  0  0
  -26.4497  -31.6601   25.0724 C   0  0  0  0  0  0
  -25.3722  -31.3768   26.1451 C   0  0  0  0  0  0
  -27.0368  -30.3021   24.6236 C   0  0  0  0  0  0
  -27.6023  -32.4370   25.7516 C   0  0  0  0  0  0
  -27.5571  -37.1794   24.8457 C   0  0  0  0  0  0
  -21.4200  -29.3029   22.3654 N   0  0  0  0  0  0
  -26.4280  -37.3771   23.9402 N   0  0  0  0  0  0
  -24.6939  -31.0519   22.0963 N   0  0  0  0  0  0
  -23.4197  -28.8123   23.2994 O   0  0  0  0  0  0
  -28.3401  -26.3958   20.2102 O   0  0  0  0  0  0
  -26.5623  -34.8921   22.4651 O   0  0  0  0  0  0
  -23.5441  -32.1386   23.7280 O   0  0  0  0  0  0
  -31.7132  -19.0023   21.6992 C   0  0  0  0  0  0
  -30.9031  -20.0827   21.2925 C   0  0  0  0  0  0
  -31.3601  -17.6667   21.4243 C   0  0  0  0  0  0
  -29.3476  -18.4828   20.3346 C   0  0  0  0  0  0
  -29.6934  -19.8870   20.5904 C   0  0  0  0  0  0
  -30.1705  -17.3424   20.7376 C   0  0  0  0  0  0
  -27.8096  -21.1830   19.4602 C   0  0  0  0  0  0
  -29.3515  -22.5639   20.4396 C   0  0  0  0  0  0
  -28.1780  -23.5772   20.0386 C   0  0  2  0  0  0
  -27.3833  -22.6294   19.0791 C   0  0  0  0  0  0
  -27.7525  -22.8165   17.5849 C   0  0  0  0  0  0
  -25.8571  -22.7871   19.2596 C   0  0  0  0  0  0
  -28.4709  -25.0923   19.4756 C   0  0  0  0  0  0
  -28.9352  -21.1249   20.1978 N   0  0  0  0  0  0
  -29.8194  -15.9051   20.5482 N   0  0  0  0  0  0
  -27.1511  -20.2072   19.0862 O   0  0  0  0  0  0
  -31.4769  -12.5820   19.1790 H   0  0  0  0  0  0
  -30.3667  -11.4915   19.9606 H   0  0  0  0  0  0
  -29.8073  -11.7413   17.5125 H   0  0  0  0  0  0
  -29.6370  -13.4666   17.7148 H   0  0  0  0  0  0
  -27.8977  -11.2821   18.9080 H   0  0  0  0  0  0
  -27.3809  -12.5136   17.7893 H   0  0  0  0  0  0
  -27.6257  -14.2494   19.4520 H   0  0  0  0  0  0
  -28.7245  -12.1838   21.4200 H   0  0  0  0  0  0
  -28.4199  -13.8665   21.7812 H   0  0  0  0  0  0
  -25.2773   -9.5673   22.4762 H   0  0  0  0  0  0
  -24.0009   -7.4611   22.7462 H   0  0  0  0  0  0
  -21.0840   -8.8748   19.8958 H   0  0  0  0  0  0
  -22.3687  -10.9654   19.6148 H   0  0  0  0  0  0
  -21.2016   -7.6145   23.9737 H   0  0  0  0  0  0
  -21.1487   -6.0519   25.9092 H   0  0  0  0  0  0
  -22.0593   -2.7600   23.2858 H   0  0  0  0  0  0
  -22.4044  -11.9915   22.4887 H   0  0  0  0  0  0
  -21.1032  -13.1244   22.2555 H   0  0  0  0  0  0
  -24.6426  -15.8388   20.5163 H   0  0  0  0  0  0
  -26.2591  -15.6321   20.0653 H   0  0  0  0  0  0
  -26.7191  -32.5404   23.1059 H   0  0  0  0  0  0
  -25.0066  -33.9708   25.0391 H   0  0  0  0  0  0
  -22.7219  -31.2973   21.3953 H   0  0  0  0  0  0
  -23.3748  -35.9613   23.3299 H   0  0  0  0  0  0
  -24.3568  -36.8917   22.2059 H   0  0  0  0  0  0
  -23.7235  -37.6475   23.6684 H   0  0  0  0  0  0
  -26.1135  -31.5285   20.6129 H   0  0  0  0  0  0
  -26.8474  -30.8135   22.0164 H   0  0  0  0  0  0
  -28.1042  -28.9155   21.2333 H   0  0  0  0  0  0
  -25.9665  -25.9130   18.9825 H   0  0  0  0  0  0
  -23.9853  -27.3143   18.9742 H   0  0  0  0  0  0
  -23.7657  -30.5896   19.3993 H   0  0  0  0  0  0
  -22.7643  -29.2430   19.8496 H   0  0  0  0  0  0
  -25.1296  -36.1906   25.0814 H   0  0  0  0  0  0
  -20.9988  -28.3268   24.1399 H   0  0  0  0  0  0
  -20.5666  -26.2293   23.3622 H   0  0  0  0  0  0
  -21.6646  -26.7415   22.1225 H   0  0  0  0  0  0
  -19.6916  -25.6272   21.1256 H   0  0  0  0  0  0
  -19.6707  -27.3166   20.6738 H   0  0  0  0  0  0
  -17.4208  -26.6680   21.4004 H   0  0  0  0  0  0
  -18.0310  -26.0064   22.9008 H   0  0  0  0  0  0
  -19.7946  -30.7254   24.2264 H   0  0  0  0  0  0
  -17.5028  -31.6273   24.5149 H   0  0  0  0  0  0
  -15.5359  -30.2980   23.7661 H   0  0  0  0  0  0
  -15.8674  -28.0810   22.7080 H   0  0  0  0  0  0
  -24.5861  -30.7164   25.7781 H   0  0  0  0  0  0
  -24.8967  -32.2959   26.4884 H   0  0  0  0  0  0
  -25.8033  -30.8925   27.0223 H   0  0  0  0  0  0
  -26.2979  -29.6753   24.1238 H   0  0  0  0  0  0
  -27.4024  -29.7296   25.4768 H   0  0  0  0  0  0
  -27.8857  -30.4293   23.9517 H   0  0  0  0  0  0
  -27.2584  -33.3647   26.2100 H   0  0  0  0  0  0
  -28.3837  -32.6977   25.0369 H   0  0  0  0  0  0
  -28.0703  -31.8515   26.5438 H   0  0  0  0  0  0
  -28.2579  -38.0102   24.7502 H   0  0  0  0  0  0
  -28.1072  -36.2622   24.6276 H   0  0  0  0  0  0
  -27.2290  -37.1448   25.8864 H   0  0  0  0  0  0
  -20.9368  -29.8761   21.6874 H   0  0  0  0  0  0
  -26.0149  -38.2837   24.1418 H   0  0  0  0  0  0
  -32.6278  -19.2020   22.2399 H   0  0  0  0  0  0
  -31.2407  -21.0800   21.5374 H   0  0  0  0  0  0
  -32.0199  -16.8844   21.7729 H   0  0  0  0  0  0
  -28.4317  -18.2615   19.8085 H   0  0  0  0  0  0
  -29.6248  -22.7123   21.4859 H   0  0  0  0  0  0
  -30.2397  -22.7671   19.8391 H   0  0  0  0  0  0
  -27.5674  -23.7078   20.9335 H   0  0  0  0  0  0
  -28.8310  -22.9043   17.4472 H   0  0  0  0  0  0
  -27.2882  -23.6999   17.1474 H   0  0  0  0  0  0
  -27.4205  -21.9723   16.9782 H   0  0  0  0  0  0
  -25.5511  -22.5684   20.2841 H   0  0  0  0  0  0
  -25.3051  -22.1135   18.6015 H   0  0  0  0  0  0
  -25.5247  -23.7970   19.0299 H   0  0  0  0  0  0
  -27.9453  -25.2379   18.5375 H   0  0  0  0  0  0
  -29.5105  -25.0806   19.1487 H   0  0  0  0  0  0
  -28.8312  -15.7161   20.4889 H   0  0  0  0  0  0
  1 25  1  0  0  0
  1 30  2  0  0  0
  1 85  1  0  0  0
  2  3  1  0  0  0
  2 25  1  0  0  0
  2 87  1  0  0  0
  2 88  1  0  0  0
  3  4  1  0  0  0
  3 89  1  0  0  0
  3 90  1  0  0  0
  4  5  1  0  0  0
  4 91  1  0  0  0
  4 92  1  0  0  0
  5  6  1  0  0  0
  5 26  1  0  0  0
  5 93  1  0  0  0
  6 25  1  0  0  0
  6 94  1  0  0  0
  6 95  1  0  0  0
  7  8  2  0  0  0
  7 26  1  0  0  0
  7 29  1  0  0  0
  8  9  1  0  0  0
  8 22  1  0  0  0
  9 10  1  0  0  0
  9 27  2  0  0  0
 10 11  2  0  0  0
 10 15  1  0  0  0
 11 12  1  0  0  0
 11 96  1  0  0  0
 12 13  2  0  0  0
 12 97  1  0  0  0
 13 14  1  0  0  0
 13 31  1  0  0  0
 14 15  2  0  0  0
 14 98  1  0  0  0
 15 99  1  0  0  0
 16 17  2  0  0  0
 16 21  1  0  0  0
 16 31  1  0  0  0
 17 18  1  0  0  0
 17100  1  0  0  0
 18 19  2  0  0  0
 18101  1  0  0  0
 19 20  1  0  0  0
 19 24  1  0  0  0
 20 21  2  0  0  0
 20102  1  0  0  0
 21 23  1  0  0  0
 22 28  1  0  0  0
 22 32  2  0  0  0
 26 27  1  0  0  0
 28103  1  0  0  0
 28104  1  0  0  0
 29105  1  0  0  0
 29106  1  0  0  0
 33 34  1  0  0  0
 33 66  1  0  0  0
 33 70  2  0  0  0
 34 36  1  0  0  0
 34 59  1  0  0  0
 34107  1  0  0  0
 35 44  2  0  0  0
 35 45  1  0  0  0
 35 68  1  0  0  0
 36 56  1  0  0  0
 36108  1  0  0  0
 37 39  1  0  0  0
 37 47  1  0  0  0
 37 66  1  0  0  0
 37109  1  0  0  0
 38 43  2  0  0  0
 38 46  1  0  0  0
 38 47  1  0  0  0
 39 64  1  0  0  0
 39 67  2  0  0  0
 40 52  1  0  0  0
 40 53  2  0  0  0
 40 58  1  0  0  0
 41110  1  0  0  0
 41111  1  0  0  0
 41112  1  0  0  0
 41 48  1  0  0  0
 42 43  1  0  0  0
 42 66  1  0  0  0
 42113  1  0  0  0
 42114  1  0  0  0
 43 44  1  0  0  0
 44115  1  0  0  0
 45 46  2  0  0  0
 45116  1  0  0  0
 46117  1  0  0  0
 47118  1  0  0  0
 47119  1  0  0  0
 48 56  1  0  0  0
 48 65  1  0  0  0
 48120  1  0  0  0
 49 50  1  0  0  0
 49 53  1  0  0  0
 49 64  1  0  0  0
 49121  1  0  0  0
 50 51  1  0  0  0
 50122  1  0  0  0
 50123  1  0  0  0
 51 52  1  0  0  0
 51124  1  0  0  0
 51125  1  0  0  0
 52126  1  0  0  0
 52127  1  0  0  0
 53 54  1  0  0  0
 54 55  2  0  0  0
 54128  1  0  0  0
 55 57  1  0  0  0
 55129  1  0  0  0
 56 69  2  0  0  0
 57 58  2  0  0  0
 57130  1  0  0  0
 58131  1  0  0  0
 59 60  1  0  0  0
 59 61  1  0  0  0
 59 62  1  0  0  0
 60132  1  0  0  0
 60133  1  0  0  0
 60134  1  0  0  0
 61135  1  0  0  0
 61136  1  0  0  0
 61137  1  0  0  0
 62138  1  0  0  0
 62139  1  0  0  0
 62140  1  0  0  0
 63 65  1  0  0  0
 63141  1  0  0  0
 63142  1  0  0  0
 63143  1  0  0  0
 64144  1  0  0  0
 65145  1  0  0  0
 68 83  1  0  0  0
 71 72  2  0  0  0
 71 73  1  0  0  0
 71146  1  0  0  0
 72 75  1  0  0  0
 72147  1  0  0  0
 73 76  2  0  0  0
 73148  1  0  0  0
 74 75  2  0  0  0
 74 76  1  0  0  0
 74149  1  0  0  0
 75 84  1  0  0  0
 76 85  1  0  0  0
 77 80  1  0  0  0
 77 84  1  0  0  0
 77 86  2  0  0  0
 78 79  1  0  0  0
 78 84  1  0  0  0
 78150  1  0  0  0
 78151  1  0  0  0
 79 80  1  0  0  0
 79 83  1  0  0  0
 79152  1  0  0  0
 80 81  1  0  0  0
 80 82  1  0  0  0
 81153  1  0  0  0
 81154  1  0  0  0
 81155  1  0  0  0
 82156  1  0  0  0
 82157  1  0  0  0
 82158  1  0  0  0
 83159  1  0  0  0
 83160  1  0  0  0
 85161  1  0  0  0
M  ISO  4   1 100  68 101  83 101  85 100
M  END
> <chiral flag>
0

> <version>
0

> <s_m_source_file>
/data/baiqing/PycharmProjects/Reinvent-master-3.2/result/LINK_invent/BTK/process_docking_weight1_custom_product_contain_oxygen_bond_distance_aromatic_linkinvent_7_9_3/rearranged_h_0072.sdf

> <i_m_source_file_index>
10

> <r_mmod_Potential_Energy-OPLS-2005>
322.895935058594

> <r_mmod_Stretch_Energy-OPLS-2005>
137.120162963867

> <r_mmod_Bend_Energy-OPLS-2005>
217.221496582031

> <r_mmod_Torsional_Energy-OPLS-2005>
281.599853515625

> <r_mmod_Improper_Torsional_Energy-OPLS-2005>
6.66490125656128

> <r_mmod_Van_der_Waal_Energy-OPLS-2005>
143.310668945312

> <r_mmod_Electrostatic_Energy-OPLS-2005>
-338.196014404297

> <r_mmod_Solvation_Energy-OPLS-2005>
-213.411575317383

> <b_mmod_Minimization_Converged-OPLS-2005>
0

> <r_mmod_RMS_Derivative-OPLS-2005>
2.56106781959534

$$$$
10
                    3D
 Structure written by MMmdl.
160169  0  0  1  0            999 V2000
  -30.6174  -14.6339   20.5202 C   0  0  0  0  0  0
  -30.4452  -12.3926   19.4499 C   0  0  0  0  0  0
  -29.5124  -12.5123   18.2234 C   0  0  0  0  0  0
  -28.0335  -12.3525   18.6318 C   0  0  0  0  0  0
  -27.6570  -13.2141   19.8665 C   0  0  2  0  0  0
  -28.7011  -13.0523   20.9954 C   0  0  0  0  0  0
  -25.2570  -13.8163   20.5665 C   0  0  0  0  0  0
  -24.1840  -13.0439   20.9200 C   0  0  0  0  0  0
  -24.6398  -11.6908   20.8739 C   0  0  0  0  0  0
  -23.9062  -10.4297   21.0406 C   0  0  0  0  0  0
  -24.3613   -9.4209   21.9180 C   0  0  0  0  0  0
  -23.6288   -8.2246   22.0756 C   0  0  0  0  0  0
  -22.4268   -8.0282   21.3551 C   0  0  0  0  0  0
  -21.9900   -9.0260   20.4658 C   0  0  0  0  0  0
  -22.7232  -10.2136   20.3059 C   0  0  0  0  0  0
  -21.6854   -6.0729   22.5275 C   0  0  0  0  0  0
  -21.4018   -6.5632   23.8208 C   0  0  0  0  0  0
  -21.3660   -5.6789   24.9171 C   0  0  0  0  0  0
  -21.6041   -4.3051   24.7225 C   0  0  0  0  0  0
  -21.8821   -3.8144   23.4347 C   0  0  0  0  0  0
  -21.9196   -4.6958   22.3402 C   0  0  0  0  0  0
  -22.7863  -13.5242   21.1853 C   0  0  0  0  0  0
  -22.1663   -4.2141   21.0978 F   0  0  0  0  0  0
  -21.5627   -3.4535   25.7740 F   0  0  0  0  0  0
  -30.0195  -13.4029   20.4388 N   0  0  0  0  0  0
  -26.3002  -12.9337   20.3312 N   0  0  0  0  0  0
  -25.9326  -11.6498   20.5750 N   0  0  0  0  0  0
  -22.0485  -12.8251   22.0410 N   0  0  0  0  0  0
  -25.4274  -15.1874   20.3999 N   0  0  0  0  0  0
  -31.7715  -14.8187   20.1193 O   0  0  0  0  0  0
  -21.6641   -6.8872   21.4237 O   0  0  0  0  0  0
  -22.3557  -14.5548   20.6690 O   0  0  0  0  0  0
  -24.6282  -31.8588   23.2026 C   0  0  0  0  0  0
  -25.9122  -32.4778   23.8355 C   0  0  1  0  0  0
  -27.2272  -27.3141   20.1136 C   0  0  0  0  0  0
  -25.5925  -33.8576   24.2280 N   0  0  0  0  0  0
  -23.4217  -30.4839   21.5458 C   0  0  2  0  0  0
  -24.8679  -28.9398   20.1129 C   0  0  0  0  0  0
  -22.7482  -29.4628   22.4935 C   0  0  0  0  0  0
  -18.0291  -28.1392   22.8489 C   0  0  0  0  0  0
  -24.1480  -36.7291   23.2629 C   0  0  0  0  0  0
  -25.9640  -30.7895   21.3731 C   0  0  0  0  0  0
  -26.0389  -29.4168   20.7151 C   0  0  0  0  0  0
  -27.2217  -28.6173   20.7029 C   0  0  0  0  0  0
  -26.0261  -26.8905   19.4952 C   0  0  0  0  0  0
  -24.8639  -27.6819   19.4951 C   0  0  0  0  0  0
  -23.6362  -29.8196   20.1613 C   0  0  0  0  0  0
  -25.4098  -36.3083   24.0331 C   0  0  1  0  0  0
  -20.5892  -28.3700   23.1279 C   0  0  2  0  0  0
  -20.6781  -26.9421   22.5407 C   0  0  0  0  0  0
  -19.5756  -26.6392   21.5208 C   0  0  0  0  0  0
  -18.1938  -26.7936   22.1626 C   0  0  0  0  0  0
  -19.1544  -28.8863   23.2881 C   0  0  0  0  0  0
  -18.9464  -30.1461   23.8908 C   0  0  0  0  0  0
  -17.6462  -30.6592   24.0565 C   0  0  0  0  0  0
  -25.9044  -34.9453   23.5110 C   0  0  0  0  0  0
  -16.5357  -29.9090   23.6325 C   0  0  0  0  0  0
  -16.7279  -28.6506   23.0356 C   0  0  0  0  0  0
  -26.4495  -31.6590   25.0729 C   0  0  0  0  0  0
  -25.3723  -31.3734   26.1456 C   0  0  0  0  0  0
  -27.0319  -30.3011   24.6180 C   0  0  0  0  0  0
  -27.6068  -32.4312   25.7497 C   0  0  0  0  0  0
  -27.5590  -37.1776   24.8445 C   0  0  0  0  0  0
  -21.4199  -29.3050   22.3674 N   0  0  0  0  0  0
  -26.4269  -37.3792   23.9439 N   0  0  0  0  0  0
  -24.6905  -31.0601   22.0976 N   0  0  0  0  0  0
  -23.4199  -28.8156   23.3013 O   0  0  0  0  0  0
  -28.3472  -26.4623   20.1552 O   0  0  0  0  0  0
  -26.5620  -34.8927   22.4682 O   0  0  0  0  0  0
  -23.5445  -32.1381   23.7357 O   0  0  0  0  0  0
  -30.8614  -19.3278   20.4198 C   0  0  0  0  0  0
  -30.9636  -17.9111   20.5749 C   0  0  0  0  0  0
  -28.5749  -17.7921   20.7424 C   0  0  0  0  0  0
  -28.4536  -19.2072   20.5618 C   0  0  0  0  0  0
  -29.6181  -20.0345   20.4119 C   0  0  0  0  0  0
  -29.8132  -17.1012   20.7383 C   0  0  0  0  0  0
  -28.9122  -22.5036   20.8187 C   0  0  0  0  0  0
  -27.0670  -19.7304   20.3980 C   0  0  0  0  0  0
  -30.1172  -23.5939   19.0905 C   0  0  0  0  0  0
  -30.5827  -22.1341   19.2974 C   0  0  0  0  0  0
  -29.2814  -23.9469   20.3285 C   0  0  1  0  0  0
  -26.0102  -19.2069   21.3634 C   0  0  0  0  0  0
  -28.1033  -24.9983   20.0854 C   0  0  0  0  0  0
  -29.6146  -21.5027   20.1944 N   0  0  0  0  0  0
  -29.7966  -15.6510   20.9276 N   0  0  0  0  0  0
  -28.0886  -22.3289   21.7221 O   0  0  0  0  0  0
  -26.7416  -20.5468   19.5323 O   0  0  0  0  0  0
  -31.4855  -12.5264   19.1475 H   0  0  0  0  0  0
  -30.3874  -11.3929   19.8822 H   0  0  0  0  0  0
  -29.7764  -11.7632   17.4750 H   0  0  0  0  0  0
  -29.6593  -13.4821   17.7459 H   0  0  0  0  0  0
  -27.8627  -11.2981   18.8524 H   0  0  0  0  0  0
  -27.3833  -12.5957   17.7902 H   0  0  0  0  0  0
  -27.6808  -14.2528   19.5359 H   0  0  0  0  0  0
  -28.7102  -12.0252   21.3620 H   0  0  0  0  0  0
  -28.4428  -13.6677   21.8588 H   0  0  0  0  0  0
  -25.2758   -9.5688   22.4754 H   0  0  0  0  0  0
  -24.0000   -7.4636   22.7470 H   0  0  0  0  0  0
  -21.0831   -8.8782   19.8963 H   0  0  0  0  0  0
  -22.3689  -10.9675   19.6170 H   0  0  0  0  0  0
  -21.2009   -7.6143   23.9709 H   0  0  0  0  0  0
  -21.1477   -6.0520   25.9075 H   0  0  0  0  0  0
  -22.0599   -2.7604   23.2852 H   0  0  0  0  0  0
  -22.4085  -11.9923   22.4830 H   0  0  0  0  0  0
  -21.1103  -13.1293   22.2590 H   0  0  0  0  0  0
  -24.6404  -15.8241   20.4628 H   0  0  0  0  0  0
  -26.2395  -15.5988   19.9614 H   0  0  0  0  0  0
  -26.7194  -32.5440   23.1105 H   0  0  0  0  0  0
  -25.0064  -33.9713   25.0423 H   0  0  0  0  0  0
  -22.7166  -31.3052   21.4027 H   0  0  0  0  0  0
  -23.3764  -35.9596   23.3237 H   0  0  0  0  0  0
  -24.3593  -36.8968   22.2056 H   0  0  0  0  0  0
  -23.7197  -37.6463   23.6681 H   0  0  0  0  0  0
  -26.0929  -31.5512   20.6026 H   0  0  0  0  0  0
  -26.8459  -30.8406   22.0001 H   0  0  0  0  0  0
  -28.1206  -28.9802   21.1813 H   0  0  0  0  0  0
  -25.9452  -25.9310   19.0093 H   0  0  0  0  0  0
  -23.9662  -27.3096   19.0211 H   0  0  0  0  0  0
  -23.7564  -30.5939   19.4031 H   0  0  0  0  0  0
  -22.7562  -29.2484   19.8599 H   0  0  0  0  0  0
  -25.1266  -36.1923   25.0818 H   0  0  0  0  0  0
  -20.9988  -28.3275   24.1397 H   0  0  0  0  0  0
  -20.5682  -26.2303   23.3604 H   0  0  0  0  0  0
  -21.6649  -26.7452   22.1200 H   0  0  0  0  0  0
  -19.6912  -25.6300   21.1244 H   0  0  0  0  0  0
  -19.6690  -27.3195   20.6729 H   0  0  0  0  0  0
  -17.4201  -26.6687   21.4035 H   0  0  0  0  0  0
  -18.0345  -26.0079   22.9024 H   0  0  0  0  0  0
  -19.7934  -30.7277   24.2288 H   0  0  0  0  0  0
  -17.5013  -31.6274   24.5164 H   0  0  0  0  0  0
  -15.5358  -30.2997   23.7638 H   0  0  0  0  0  0
  -15.8677  -28.0816   22.7082 H   0  0  0  0  0  0
  -24.5901  -30.7080   25.7787 H   0  0  0  0  0  0
  -24.8902  -32.2898   26.4873 H   0  0  0  0  0  0
  -25.8041  -30.8920   27.0240 H   0  0  0  0  0  0
  -26.2885  -29.6787   24.1186 H   0  0  0  0  0  0
  -27.3991  -29.7248   25.4683 H   0  0  0  0  0  0
  -27.8770  -30.4294   23.9412 H   0  0  0  0  0  0
  -27.2700  -33.3616   26.2083 H   0  0  0  0  0  0
  -28.3874  -32.6868   25.0316 H   0  0  0  0  0  0
  -28.0741  -31.8424   26.5404 H   0  0  0  0  0  0
  -28.2534  -38.0148   24.7616 H   0  0  0  0  0  0
  -28.1164  -36.2694   24.6103 H   0  0  0  0  0  0
  -27.2341  -37.1223   25.8849 H   0  0  0  0  0  0
  -20.9380  -29.8764   21.6873 H   0  0  0  0  0  0
  -26.0146  -38.2847   24.1523 H   0  0  0  0  0  0
  -31.7842  -19.8777   20.3043 H   0  0  0  0  0  0
  -31.9439  -17.4548   20.5759 H   0  0  0  0  0  0
  -27.6754  -17.2014   20.8440 H   0  0  0  0  0  0
  -29.5014  -23.6506   18.1914 H   0  0  0  0  0  0
  -30.9585  -24.2732   18.9493 H   0  0  0  0  0  0
  -31.5681  -22.1198   19.7654 H   0  0  0  0  0  0
  -30.6560  -21.5968   18.3509 H   0  0  0  0  0  0
  -29.9383  -24.3474   21.1010 H   0  0  0  0  0  0
  -26.4589  -18.9522   22.3233 H   0  0  0  0  0  0
  -25.5307  -18.3195   20.9527 H   0  0  0  0  0  0
  -25.2474  -19.9658   21.5342 H   0  0  0  0  0  0
  -27.3088  -24.7733   20.7992 H   0  0  0  0  0  0
  -27.6946  -24.7688   19.1016 H   0  0  0  0  0  0
  -28.9102  -15.2911   21.2462 H   0  0  0  0  0  0
  1 25  1  0  0  0
  1 30  2  0  0  0
  1 85  1  0  0  0
  2  3  1  0  0  0
  2 25  1  0  0  0
  2 88  1  0  0  0
  2 89  1  0  0  0
  3  4  1  0  0  0
  3 90  1  0  0  0
  3 91  1  0  0  0
  4  5  1  0  0  0
  4 92  1  0  0  0
  4 93  1  0  0  0
  5  6  1  0  0  0
  5 26  1  0  0  0
  5 94  1  0  0  0
  6 25  1  0  0  0
  6 95  1  0  0  0
  6 96  1  0  0  0
  7  8  2  0  0  0
  7 26  1  0  0  0
  7 29  1  0  0  0
  8  9  1  0  0  0
  8 22  1  0  0  0
  9 10  1  0  0  0
  9 27  2  0  0  0
 10 11  2  0  0  0
 10 15  1  0  0  0
 11 12  1  0  0  0
 11 97  1  0  0  0
 12 13  2  0  0  0
 12 98  1  0  0  0
 13 14  1  0  0  0
 13 31  1  0  0  0
 14 15  2  0  0  0
 14 99  1  0  0  0
 15100  1  0  0  0
 16 17  2  0  0  0
 16 21  1  0  0  0
 16 31  1  0  0  0
 17 18  1  0  0  0
 17101  1  0  0  0
 18 19  2  0  0  0
 18102  1  0  0  0
 19 20  1  0  0  0
 19 24  1  0  0  0
 20 21  2  0  0  0
 20103  1  0  0  0
 21 23  1  0  0  0
 22 28  1  0  0  0
 22 32  2  0  0  0
 26 27  1  0  0  0
 28104  1  0  0  0
 28105  1  0  0  0
 29106  1  0  0  0
 29107  1  0  0  0
 33 34  1  0  0  0
 33 66  1  0  0  0
 33 70  2  0  0  0
 34 36  1  0  0  0
 34 59  1  0  0  0
 34108  1  0  0  0
 35 44  2  0  0  0
 35 45  1  0  0  0
 35 68  1  0  0  0
 36 56  1  0  0  0
 36109  1  0  0  0
 37 39  1  0  0  0
 37 47  1  0  0  0
 37 66  1  0  0  0
 37110  1  0  0  0
 38 43  2  0  0  0
 38 46  1  0  0  0
 38 47  1  0  0  0
 39 64  1  0  0  0
 39 67  2  0  0  0
 40 52  1  0  0  0
 40 53  2  0  0  0
 40 58  1  0  0  0
 41111  1  0  0  0
 41112  1  0  0  0
 41113  1  0  0  0
 41 48  1  0  0  0
 42 43  1  0  0  0
 42 66  1  0  0  0
 42114  1  0  0  0
 42115  1  0  0  0
 43 44  1  0  0  0
 44116  1  0  0  0
 45 46  2  0  0  0
 45117  1  0  0  0
 46118  1  0  0  0
 47119  1  0  0  0
 47120  1  0  0  0
 48 56  1  0  0  0
 48 65  1  0  0  0
 48121  1  0  0  0
 49 50  1  0  0  0
 49 53  1  0  0  0
 49 64  1  0  0  0
 49122  1  0  0  0
 50 51  1  0  0  0
 50123  1  0  0  0
 50124  1  0  0  0
 51 52  1  0  0  0
 51125  1  0  0  0
 51126  1  0  0  0
 52127  1  0  0  0
 52128  1  0  0  0
 53 54  1  0  0  0
 54 55  2  0  0  0
 54129  1  0  0  0
 55 57  1  0  0  0
 55130  1  0  0  0
 56 69  2  0  0  0
 57 58  2  0  0  0
 57131  1  0  0  0
 58132  1  0  0  0
 59 60  1  0  0  0
 59 61  1  0  0  0
 59 62  1  0  0  0
 60133  1  0  0  0
 60134  1  0  0  0
 60135  1  0  0  0
 61136  1  0  0  0
 61137  1  0  0  0
 61138  1  0  0  0
 62139  1  0  0  0
 62140  1  0  0  0
 62141  1  0  0  0
 63 65  1  0  0  0
 63142  1  0  0  0
 63143  1  0  0  0
 63144  1  0  0  0
 64145  1  0  0  0
 65146  1  0  0  0
 68 83  1  0  0  0
 71 72  2  0  0  0
 71 75  1  0  0  0
 71147  1  0  0  0
 72 76  1  0  0  0
 72148  1  0  0  0
 73 74  1  0  0  0
 73 76  2  0  0  0
 73149  1  0  0  0
 74 75  2  0  0  0
 74 78  1  0  0  0
 75 84  1  0  0  0
 76 85  1  0  0  0
 77 81  1  0  0  0
 77 84  1  0  0  0
 77 86  2  0  0  0
 78 82  1  0  0  0
 78 87  2  0  0  0
 79 80  1  0  0  0
 79 81  1  0  0  0
 79150  1  0  0  0
 79151  1  0  0  0
 80 84  1  0  0  0
 80152  1  0  0  0
 80153  1  0  0  0
 81 83  1  0  0  0
 81154  1  0  0  0
 82155  1  0  0  0
 82156  1  0  0  0
 82157  1  0  0  0
 83158  1  0  0  0
 83159  1  0  0  0
 85160  1  0  0  0
M  ISO  4   1 100  68 101  83 101  85 100
M  END
> <chiral flag>
0

> <version>
0

> <s_m_source_file>
/data/baiqing/PycharmProjects/Reinvent-master-3.2/result/LINK_invent/BTK/process_docking_weight1_custom_product_contain_oxygen_bond_distance_aromatic_linkinvent_7_9_3/rearranged_h_0072.sdf

> <i_m_source_file_index>
11

> <r_mmod_Potential_Energy-OPLS-2005>
162.902236938477

> <r_mmod_Stretch_Energy-OPLS-2005>
85.0196762084961

> <r_mmod_Bend_Energy-OPLS-2005>
170.368041992188

> <r_mmod_Torsional_Energy-OPLS-2005>
310.187866210938

> <r_mmod_Improper_Torsional_Energy-OPLS-2005>
5.60397577285767

> <r_mmod_Van_der_Waal_Energy-OPLS-2005>
144.776565551758

> <r_mmod_Electrostatic_Energy-OPLS-2005>
-370.57177734375

> <r_mmod_Solvation_Energy-OPLS-2005>
-230.463180541992

> <b_mmod_Minimization_Converged-OPLS-2005>
0

> <r_mmod_RMS_Derivative-OPLS-2005>
1.1115665435791

$$$$
11
                    3D
 Structure written by MMmdl.
159168  0  0  1  0            999 V2000
  -30.6731  -14.4917   20.5952 C   0  0  0  0  0  0
  -30.4379  -12.3251   19.4248 C   0  0  0  0  0  0
  -29.5025  -12.5140   18.2109 C   0  0  0  0  0  0
  -28.0227  -12.3681   18.6217 C   0  0  0  0  0  0
  -27.6674  -13.2017   19.8812 C   0  0  2  0  0  0
  -28.7064  -12.9641   21.0006 C   0  0  0  0  0  0
  -25.2619  -13.8148   20.5678 C   0  0  0  0  0  0
  -24.1854  -13.0436   20.9163 C   0  0  0  0  0  0
  -24.6394  -11.6902   20.8727 C   0  0  0  0  0  0
  -23.9053  -10.4294   21.0400 C   0  0  0  0  0  0
  -24.3610   -9.4213   21.9179 C   0  0  0  0  0  0
  -23.6290   -8.2243   22.0753 C   0  0  0  0  0  0
  -22.4270   -8.0279   21.3543 C   0  0  0  0  0  0
  -21.9898   -9.0254   20.4649 C   0  0  0  0  0  0
  -22.7223  -10.2134   20.3057 C   0  0  0  0  0  0
  -21.6856   -6.0732   22.5278 C   0  0  0  0  0  0
  -21.4011   -6.5637   23.8211 C   0  0  0  0  0  0
  -21.3659   -5.6790   24.9174 C   0  0  0  0  0  0
  -21.6042   -4.3053   24.7222 C   0  0  0  0  0  0
  -21.8822   -3.8144   23.4344 C   0  0  0  0  0  0
  -21.9193   -4.6960   22.3401 C   0  0  0  0  0  0
  -22.7879  -13.5245   21.1829 C   0  0  0  0  0  0
  -22.1664   -4.2148   21.0978 F   0  0  0  0  0  0
  -21.5628   -3.4533   25.7732 F   0  0  0  0  0  0
  -30.0416  -13.2908   20.4630 N   0  0  0  0  0  0
  -26.3050  -12.9305   20.3381 N   0  0  0  0  0  0
  -25.9323  -11.6469   20.5765 N   0  0  0  0  0  0
  -22.0509  -12.8252   22.0387 N   0  0  0  0  0  0
  -25.4355  -15.1865   20.4094 N   0  0  0  0  0  0
  -31.7574  -14.7415   20.0582 O   0  0  0  0  0  0
  -21.6639   -6.8875   21.4239 O   0  0  0  0  0  0
  -22.3580  -14.5557   20.6686 O   0  0  0  0  0  0
  -24.6162  -31.8664   23.2085 C   0  0  0  0  0  0
  -25.9052  -32.4817   23.8384 C   0  0  1  0  0  0
  -27.2382  -27.4176   20.0850 C   0  0  0  0  0  0
  -25.5908  -33.8613   24.2316 N   0  0  0  0  0  0
  -23.4045  -30.4905   21.5489 C   0  0  2  0  0  0
  -24.8486  -28.9503   20.1150 C   0  0  0  0  0  0
  -22.7420  -29.4658   22.4976 C   0  0  0  0  0  0
  -18.0276  -28.1384   22.8491 C   0  0  0  0  0  0
  -24.1485  -36.7307   23.2633 C   0  0  0  0  0  0
  -25.9349  -30.8237   21.3645 C   0  0  0  0  0  0
  -26.0092  -29.4557   20.7127 C   0  0  0  0  0  0
  -27.2011  -28.6934   20.7005 C   0  0  0  0  0  0
  -26.0520  -26.9260   19.4912 C   0  0  0  0  0  0
  -24.8649  -27.6839   19.5062 C   0  0  0  0  0  0
  -23.6130  -29.8213   20.1640 C   0  0  0  0  0  0
  -25.4105  -36.3107   24.0337 C   0  0  1  0  0  0
  -20.5868  -28.3672   23.1316 C   0  0  2  0  0  0
  -20.6767  -26.9405   22.5427 C   0  0  0  0  0  0
  -19.5753  -26.6391   21.5217 C   0  0  0  0  0  0
  -18.1924  -26.7938   22.1612 C   0  0  0  0  0  0
  -19.1526  -28.8843   23.2903 C   0  0  0  0  0  0
  -18.9453  -30.1446   23.8920 C   0  0  0  0  0  0
  -17.6457  -30.6588   24.0570 C   0  0  0  0  0  0
  -25.9040  -34.9474   23.5124 C   0  0  0  0  0  0
  -16.5347  -29.9097   23.6322 C   0  0  0  0  0  0
  -16.7265  -28.6510   23.0346 C   0  0  0  0  0  0
  -26.4474  -31.6606   25.0719 C   0  0  0  0  0  0
  -25.3742  -31.3758   26.1483 C   0  0  0  0  0  0
  -27.0273  -30.3032   24.6111 C   0  0  0  0  0  0
  -27.6075  -32.4315   25.7452 C   0  0  0  0  0  0
  -27.5596  -37.1790   24.8449 C   0  0  0  0  0  0
  -21.4146  -29.3034   22.3714 N   0  0  0  0  0  0
  -26.4287  -37.3802   23.9428 N   0  0  0  0  0  0
  -24.6703  -31.0754   22.0987 N   0  0  0  0  0  0
  -23.4188  -28.8205   23.3025 O   0  0  0  0  0  0
  -28.4264  -26.7050   20.1007 O   0  0  0  0  0  0
  -26.5600  -34.8931   22.4684 O   0  0  0  0  0  0
  -23.5351  -32.1417   23.7477 O   0  0  0  0  0  0
  -29.4151  -18.9142   22.4497 C   0  0  0  0  0  0
  -30.4506  -17.6196   20.1839 C   0  0  0  0  0  0
  -29.8515  -19.7049   21.3615 C   0  0  0  0  0  0
  -30.0182  -16.8360   21.2852 C   0  0  0  0  0  0
  -29.4845  -17.5063   22.4062 C   0  0  0  0  0  0
  -30.3647  -19.0380   20.2189 C   0  0  0  0  0  0
  -29.1240  -23.5253   20.9187 C   0  0  0  0  0  0
  -29.8611  -21.1814   21.5301 C   0  0  0  0  0  0
  -27.9030  -23.0424   18.9316 C   0  0  0  0  0  0
  -28.2775  -21.7259   19.6369 C   0  0  0  0  0  0
  -28.1238  -24.1715   19.9506 C   0  0  2  0  0  0
  -28.5841  -25.5151   19.3005 C   0  0  0  0  0  0
  -29.1787  -22.0820   20.7477 N   0  0  0  0  0  0
  -30.0016  -15.4025   21.3248 N   0  0  0  0  0  0
  -30.5668  -21.6269   22.5765 N   0  3  0  0  0  0
  -29.7748  -24.1482   21.7654 O   0  0  0  0  0  0
  -29.0378  -16.7840   23.4624 F   0  0  0  0  0  0
  -30.8140  -19.7516   19.1585 F   0  0  0  0  0  0
  -31.4795  -12.4477   19.1217 H   0  0  0  0  0  0
  -30.3612  -11.3085   19.8133 H   0  0  0  0  0  0
  -29.7468  -11.7882   17.4343 H   0  0  0  0  0  0
  -29.6658  -13.4983   17.7694 H   0  0  0  0  0  0
  -27.8350  -11.3114   18.8145 H   0  0  0  0  0  0
  -27.3720  -12.6439   17.7913 H   0  0  0  0  0  0
  -27.7177  -14.2524   19.5946 H   0  0  0  0  0  0
  -28.6889  -11.9201   21.3169 H   0  0  0  0  0  0
  -28.4492  -13.5331   21.8948 H   0  0  0  0  0  0
  -25.2757   -9.5684   22.4745 H   0  0  0  0  0  0
  -24.0002   -7.4633   22.7468 H   0  0  0  0  0  0
  -21.0823   -8.8772   19.8960 H   0  0  0  0  0  0
  -22.3682  -10.9670   19.6162 H   0  0  0  0  0  0
  -21.2005   -7.6146   23.9712 H   0  0  0  0  0  0
  -21.1476   -6.0519   25.9077 H   0  0  0  0  0  0
  -22.0601   -2.7606   23.2842 H   0  0  0  0  0  0
  -22.4109  -11.9907   22.4774 H   0  0  0  0  0  0
  -21.1131  -13.1299   22.2586 H   0  0  0  0  0  0
  -24.6688  -15.8417   20.5178 H   0  0  0  0  0  0
  -26.2883  -15.6241   20.0853 H   0  0  0  0  0  0
  -26.7115  -32.5517   23.1142 H   0  0  0  0  0  0
  -25.0084  -33.9770   25.0481 H   0  0  0  0  0  0
  -22.6944  -31.3084   21.4099 H   0  0  0  0  0  0
  -23.3760  -35.9626   23.3276 H   0  0  0  0  0  0
  -24.3594  -36.8936   22.2052 H   0  0  0  0  0  0
  -23.7215  -37.6499   23.6655 H   0  0  0  0  0  0
  -26.0502  -31.5881   20.5944 H   0  0  0  0  0  0
  -26.8221  -30.8761   21.9837 H   0  0  0  0  0  0
  -28.0974  -29.0831   21.1624 H   0  0  0  0  0  0
  -26.0175  -25.9555   19.0195 H   0  0  0  0  0  0
  -23.9697  -27.2862   19.0470 H   0  0  0  0  0  0
  -23.7265  -30.5952   19.4040 H   0  0  0  0  0  0
  -22.7352  -29.2448   19.8669 H   0  0  0  0  0  0
  -25.1279  -36.1960   25.0829 H   0  0  0  0  0  0
  -20.9967  -28.3241   24.1436 H   0  0  0  0  0  0
  -20.5658  -26.2287   23.3620 H   0  0  0  0  0  0
  -21.6639  -26.7444   22.1230 H   0  0  0  0  0  0
  -19.6919  -25.6305   21.1235 H   0  0  0  0  0  0
  -19.6704  -27.3207   20.6752 H   0  0  0  0  0  0
  -17.4211  -26.6705   21.3994 H   0  0  0  0  0  0
  -18.0304  -26.0066   22.8987 H   0  0  0  0  0  0
  -19.7929  -30.7251   24.2303 H   0  0  0  0  0  0
  -17.5015  -31.6265   24.5176 H   0  0  0  0  0  0
  -15.5348  -30.3009   23.7634 H   0  0  0  0  0  0
  -15.8663  -28.0839   22.7052 H   0  0  0  0  0  0
  -24.5899  -30.7109   25.7853 H   0  0  0  0  0  0
  -24.8954  -32.2933   26.4913 H   0  0  0  0  0  0
  -25.8094  -30.8953   27.0255 H   0  0  0  0  0  0
  -26.2798  -29.6808   24.1178 H   0  0  0  0  0  0
  -27.4030  -29.7266   25.4574 H   0  0  0  0  0  0
  -27.8653  -30.4324   23.9258 H   0  0  0  0  0  0
  -27.2726  -33.3623   26.2044 H   0  0  0  0  0  0
  -28.3864  -32.6856   25.0248 H   0  0  0  0  0  0
  -28.0766  -31.8426   26.5345 H   0  0  0  0  0  0
  -28.2586  -38.0116   24.7551 H   0  0  0  0  0  0
  -28.1115  -36.2655   24.6183 H   0  0  0  0  0  0
  -27.2339  -37.1333   25.8856 H   0  0  0  0  0  0
  -20.9313  -29.8749   21.6928 H   0  0  0  0  0  0
  -26.0171  -38.2870   24.1478 H   0  0  0  0  0  0
  -29.0256  -19.3861   23.3403 H   0  0  0  0  0  0
  -30.8465  -17.1464   19.2979 H   0  0  0  0  0  0
  -26.8674  -23.0244   18.5900 H   0  0  0  0  0  0
  -28.5299  -23.1791   18.0488 H   0  0  0  0  0  0
  -28.7343  -21.0357   18.9278 H   0  0  0  0  0  0
  -27.3849  -21.2410   20.0379 H   0  0  0  0  0  0
  -27.1980  -24.3312   20.5031 H   0  0  0  0  0  0
  -28.1091  -25.6534   18.3287 H   0  0  0  0  0  0
  -29.6469  -25.4405   19.0656 H   0  0  0  0  0  0
  -29.2839  -15.0169   21.9195 H   0  0  0  0  0  0
  -31.1050  -20.9991   23.1528 H   0  0  0  0  0  0
  -30.6019  -22.6255   22.7476 H   0  0  0  0  0  0
  1 25  1  0  0  0
  1 30  2  0  0  0
  1 84  1  0  0  0
  2  3  1  0  0  0
  2 25  1  0  0  0
  2 89  1  0  0  0
  2 90  1  0  0  0
  3  4  1  0  0  0
  3 91  1  0  0  0
  3 92  1  0  0  0
  4  5  1  0  0  0
  4 93  1  0  0  0
  4 94  1  0  0  0
  5  6  1  0  0  0
  5 26  1  0  0  0
  5 95  1  0  0  0
  6 25  1  0  0  0
  6 96  1  0  0  0
  6 97  1  0  0  0
  7  8  2  0  0  0
  7 26  1  0  0  0
  7 29  1  0  0  0
  8  9  1  0  0  0
  8 22  1  0  0  0
  9 10  1  0  0  0
  9 27  2  0  0  0
 10 11  2  0  0  0
 10 15  1  0  0  0
 11 12  1  0  0  0
 11 98  1  0  0  0
 12 13  2  0  0  0
 12 99  1  0  0  0
 13 14  1  0  0  0
 13 31  1  0  0  0
 14 15  2  0  0  0
 14100  1  0  0  0
 15101  1  0  0  0
 16 17  2  0  0  0
 16 21  1  0  0  0
 16 31  1  0  0  0
 17 18  1  0  0  0
 17102  1  0  0  0
 18 19  2  0  0  0
 18103  1  0  0  0
 19 20  1  0  0  0
 19 24  1  0  0  0
 20 21  2  0  0  0
 20104  1  0  0  0
 21 23  1  0  0  0
 22 28  1  0  0  0
 22 32  2  0  0  0
 26 27  1  0  0  0
 28105  1  0  0  0
 28106  1  0  0  0
 29107  1  0  0  0
 29108  1  0  0  0
 33 34  1  0  0  0
 33 66  1  0  0  0
 33 70  2  0  0  0
 34 36  1  0  0  0
 34 59  1  0  0  0
 34109  1  0  0  0
 35 44  2  0  0  0
 35 45  1  0  0  0
 35 68  1  0  0  0
 36 56  1  0  0  0
 36110  1  0  0  0
 37 39  1  0  0  0
 37 47  1  0  0  0
 37 66  1  0  0  0
 37111  1  0  0  0
 38 43  2  0  0  0
 38 46  1  0  0  0
 38 47  1  0  0  0
 39 64  1  0  0  0
 39 67  2  0  0  0
 40 52  1  0  0  0
 40 53  2  0  0  0
 40 58  1  0  0  0
 41112  1  0  0  0
 41113  1  0  0  0
 41114  1  0  0  0
 41 48  1  0  0  0
 42 43  1  0  0  0
 42 66  1  0  0  0
 42115  1  0  0  0
 42116  1  0  0  0
 43 44  1  0  0  0
 44117  1  0  0  0
 45 46  2  0  0  0
 45118  1  0  0  0
 46119  1  0  0  0
 47120  1  0  0  0
 47121  1  0  0  0
 48 56  1  0  0  0
 48 65  1  0  0  0
 48122  1  0  0  0
 49 50  1  0  0  0
 49 53  1  0  0  0
 49 64  1  0  0  0
 49123  1  0  0  0
 50 51  1  0  0  0
 50124  1  0  0  0
 50125  1  0  0  0
 51 52  1  0  0  0
 51126  1  0  0  0
 51127  1  0  0  0
 52128  1  0  0  0
 52129  1  0  0  0
 53 54  1  0  0  0
 54 55  2  0  0  0
 54130  1  0  0  0
 55 57  1  0  0  0
 55131  1  0  0  0
 56 69  2  0  0  0
 57 58  2  0  0  0
 57132  1  0  0  0
 58133  1  0  0  0
 59 60  1  0  0  0
 59 61  1  0  0  0
 59 62  1  0  0  0
 60134  1  0  0  0
 60135  1  0  0  0
 60136  1  0  0  0
 61137  1  0  0  0
 61138  1  0  0  0
 61139  1  0  0  0
 62140  1  0  0  0
 62141  1  0  0  0
 62142  1  0  0  0
 63 65  1  0  0  0
 63143  1  0  0  0
 63144  1  0  0  0
 63145  1  0  0  0
 64146  1  0  0  0
 65147  1  0  0  0
 68 82  1  0  0  0
 71 73  2  0  0  0
 71 75  1  0  0  0
 71148  1  0  0  0
 72 74  1  0  0  0
 72 76  2  0  0  0
 72149  1  0  0  0
 73 76  1  0  0  0
 73 78  1  0  0  0
 74 75  2  0  0  0
 74 84  1  0  0  0
 75 87  1  0  0  0
 76 88  1  0  0  0
 77 81  1  0  0  0
 77 83  1  0  0  0
 77 86  2  0  0  0
 78 83  1  0  0  0
 78 85  2  0  0  0
 79 80  1  0  0  0
 79 81  1  0  0  0
 79150  1  0  0  0
 79151  1  0  0  0
 80 83  1  0  0  0
 80152  1  0  0  0
 80153  1  0  0  0
 81 82  1  0  0  0
 81154  1  0  0  0
 82155  1  0  0  0
 82156  1  0  0  0
 84157  1  0  0  0
 85158  1  0  0  0
 85159  1  0  0  0
M  CHG  1  85   1
M  ISO  4   1 100  68 101  82 101  84 100
M  END
> <chiral flag>
0

> <version>
0

> <s_m_source_file>
/data/baiqing/PycharmProjects/Reinvent-master-3.2/result/LINK_invent/BTK/process_docking_weight1_custom_product_contain_oxygen_bond_distance_aromatic_linkinvent_7_9_3/rearranged_h_0072.sdf

> <i_m_source_file_index>
12

> <r_mmod_Potential_Energy-OPLS-2005>
-257.703186035156

> <r_mmod_Stretch_Energy-OPLS-2005>
45.0210304260254

> <r_mmod_Bend_Energy-OPLS-2005>
147.570388793945

> <r_mmod_Torsional_Energy-OPLS-2005>
240.899047851562

> <r_mmod_Improper_Torsional_Energy-OPLS-2005>
3.29234170913696

> <r_mmod_Van_der_Waal_Energy-OPLS-2005>
159.396438598633

> <r_mmod_Electrostatic_Energy-OPLS-2005>
-445.388671875

> <r_mmod_Solvation_Energy-OPLS-2005>
-422.965270996094

> <b_mmod_Minimization_Converged-OPLS-2005>
0

> <r_mmod_RMS_Derivative-OPLS-2005>
0.943760216236115

$$$$
12
                    3D
 Structure written by MMmdl.
164173  0  0  1  0            999 V2000
  -30.5835  -14.7469   20.4683 C   0  0  0  0  0  0
  -30.4377  -12.4532   19.4951 C   0  0  0  0  0  0
  -29.5231  -12.5183   18.2500 C   0  0  0  0  0  0
  -28.0460  -12.3407   18.6536 C   0  0  0  0  0  0
  -27.6471  -13.2287   19.8632 C   0  0  2  0  0  0
  -28.6839  -13.1404   21.0049 C   0  0  0  0  0  0
  -25.2516  -13.8200   20.5693 C   0  0  0  0  0  0
  -24.1794  -13.0454   20.9179 C   0  0  0  0  0  0
  -24.6378  -11.6932   20.8739 C   0  0  0  0  0  0
  -23.9055  -10.4309   21.0418 C   0  0  0  0  0  0
  -24.3613   -9.4228   21.9190 C   0  0  0  0  0  0
  -23.6281   -8.2265   22.0753 C   0  0  0  0  0  0
  -22.4263   -8.0297   21.3546 C   0  0  0  0  0  0
  -21.9894   -9.0270   20.4658 C   0  0  0  0  0  0
  -22.7222  -10.2144   20.3071 C   0  0  0  0  0  0
  -21.6852   -6.0731   22.5278 C   0  0  0  0  0  0
  -21.4018   -6.5636   23.8206 C   0  0  0  0  0  0
  -21.3653   -5.6783   24.9172 C   0  0  0  0  0  0
  -21.6038   -4.3042   24.7213 C   0  0  0  0  0  0
  -21.8828   -3.8138   23.4332 C   0  0  0  0  0  0
  -21.9190   -4.6963   22.3386 C   0  0  0  0  0  0
  -22.7818  -13.5258   21.1843 C   0  0  0  0  0  0
  -22.1668   -4.2159   21.0964 F   0  0  0  0  0  0
  -21.5615   -3.4518   25.7717 F   0  0  0  0  0  0
  -29.9916  -13.5023   20.4436 N   0  0  0  0  0  0
  -26.2953  -12.9397   20.3303 N   0  0  0  0  0  0
  -25.9310  -11.6547   20.5748 N   0  0  0  0  0  0
  -22.0461  -12.8264   22.0413 N   0  0  0  0  0  0
  -25.4208  -15.1928   20.4162 N   0  0  0  0  0  0
  -31.7376  -14.8841   20.0516 O   0  0  0  0  0  0
  -21.6642   -6.8886   21.4240 O   0  0  0  0  0  0
  -22.3527  -14.5566   20.6685 O   0  0  0  0  0  0
  -24.6346  -31.8540   23.1966 C   0  0  0  0  0  0
  -25.9159  -32.4746   23.8322 C   0  0  1  0  0  0
  -27.2001  -27.2218   20.1301 C   0  0  0  0  0  0
  -25.5935  -33.8547   24.2228 N   0  0  0  0  0  0
  -23.4316  -30.4768   21.5436 C   0  0  2  0  0  0
  -24.8735  -28.9245   20.1073 C   0  0  0  0  0  0
  -22.7517  -29.4590   22.4920 C   0  0  0  0  0  0
  -18.0287  -28.1398   22.8477 C   0  0  0  0  0  0
  -24.1475  -36.7268   23.2643 C   0  0  0  0  0  0
  -25.9815  -30.7524   21.3829 C   0  0  0  0  0  0
  -26.0496  -29.3743   20.7208 C   0  0  0  0  0  0
  -27.2161  -28.5355   20.7215 C   0  0  0  0  0  0
  -26.0034  -26.8621   19.4678 C   0  0  0  0  0  0
  -24.8579  -27.6778   19.4687 C   0  0  0  0  0  0
  -23.6475  -29.8162   20.1586 C   0  0  0  0  0  0
  -25.4109  -36.3060   24.0315 C   0  0  1  0  0  0
  -20.5896  -28.3703   23.1257 C   0  0  2  0  0  0
  -20.6770  -26.9415   22.5408 C   0  0  0  0  0  0
  -19.5745  -26.6381   21.5212 C   0  0  0  0  0  0
  -18.1927  -26.7933   22.1626 C   0  0  0  0  0  0
  -19.1544  -28.8869   23.2858 C   0  0  0  0  0  0
  -18.9474  -30.1467   23.8883 C   0  0  0  0  0  0
  -17.6476  -30.6595   24.0568 C   0  0  0  0  0  0
  -25.9065  -34.9437   23.5080 C   0  0  0  0  0  0
  -16.5366  -29.9093   23.6339 C   0  0  0  0  0  0
  -16.7274  -28.6510   23.0358 C   0  0  0  0  0  0
  -26.4496  -31.6590   25.0737 C   0  0  0  0  0  0
  -25.3693  -31.3800   26.1451 C   0  0  0  0  0  0
  -27.0356  -30.2989   24.6288 C   0  0  0  0  0  0
  -27.6037  -32.4358   25.7519 C   0  0  0  0  0  0
  -27.5568  -37.1783   24.8454 C   0  0  0  0  0  0
  -21.4225  -29.3034   22.3640 N   0  0  0  0  0  0
  -26.4273  -37.3769   23.9419 N   0  0  0  0  0  0
  -24.7022  -31.0468   22.0962 N   0  0  0  0  0  0
  -23.4194  -28.8142   23.3045 O   0  0  0  0  0  0
  -28.2592  -26.2733   20.2154 O   0  0  0  0  0  0
  -26.5659  -34.8922   22.4667 O   0  0  0  0  0  0
  -23.5487  -32.1399   23.7229 O   0  0  0  0  0  0
  -28.9938  -16.9190   18.8261 C   0  0  0  0  0  0
  -29.5286  -18.4629   20.6173 C   0  0  0  0  0  0
  -28.4913  -17.9904   18.0560 C   0  0  0  0  0  0
  -28.4773  -19.3281   18.5686 C   0  0  0  0  0  0
  -29.0272  -19.6118   19.8606 C   0  0  0  0  0  0
  -29.5124  -17.0907   20.1190 C   0  0  0  0  0  0
  -28.2275  -22.0432   20.4842 C   0  0  0  0  0  0
  -28.1573  -18.0449   14.2912 C   0  0  0  0  0  0
  -28.6100  -18.2413   15.5427 C   0  0  0  0  0  0
  -27.9821  -17.5929   16.7107 C   0  0  0  0  0  0
  -30.1799  -23.2435   19.9486 C   0  0  0  0  0  0
  -30.4594  -21.7221   20.1522 C   0  0  0  0  0  0
  -28.8075  -23.5229   20.5775 C   0  0  1  0  0  0
  -27.8393  -20.4683   17.7605 C   0  0  0  0  0  0
  -27.9476  -24.7968   20.0106 C   0  0  0  0  0  0
  -29.1688  -21.0480   20.2781 N   0  0  0  0  0  0
  -29.8303  -15.8457   20.8661 N   0  0  0  0  0  0
  -27.0200  -21.8294   20.6299 O   0  0  0  0  0  0
  -27.1249  -16.7117   16.5877 O   0  0  0  0  0  0
  -31.4832  -12.5741   19.2049 H   0  0  0  0  0  0
  -30.3753  -11.4719   19.9666 H   0  0  0  0  0  0
  -29.8134  -11.7519   17.5305 H   0  0  0  0  0  0
  -29.6534  -13.4763   17.7448 H   0  0  0  0  0  0
  -27.8986  -11.2883   18.9023 H   0  0  0  0  0  0
  -27.3942  -12.5441   17.8031 H   0  0  0  0  0  0
  -27.6476  -14.2568   19.5050 H   0  0  0  0  0  0
  -28.7127  -12.1310   21.4171 H   0  0  0  0  0  0
  -28.4092  -13.7971   21.8315 H   0  0  0  0  0  0
  -25.2775   -9.5682   22.4748 H   0  0  0  0  0  0
  -23.9976   -7.4652   22.7464 H   0  0  0  0  0  0
  -21.0816   -8.8793   19.8974 H   0  0  0  0  0  0
  -22.3692  -10.9669   19.6172 H   0  0  0  0  0  0
  -21.2035   -7.6148   23.9707 H   0  0  0  0  0  0
  -21.1461   -6.0520   25.9066 H   0  0  0  0  0  0
  -22.0616   -2.7606   23.2831 H   0  0  0  0  0  0
  -22.4045  -11.9910   22.4809 H   0  0  0  0  0  0
  -21.1105  -13.1313   22.2648 H   0  0  0  0  0  0
  -24.6512  -15.8415   20.5386 H   0  0  0  0  0  0
  -26.2709  -15.6422   20.0990 H   0  0  0  0  0  0
  -26.7226  -32.5370   23.1059 H   0  0  0  0  0  0
  -25.0019  -33.9669   25.0331 H   0  0  0  0  0  0
  -22.7295  -31.3007   21.4005 H   0  0  0  0  0  0
  -23.3739  -35.9594   23.3296 H   0  0  0  0  0  0
  -24.3566  -36.8911   22.2059 H   0  0  0  0  0  0
  -23.7212  -37.6458   23.6686 H   0  0  0  0  0  0
  -26.1290  -31.5108   20.6130 H   0  0  0  0  0  0
  -26.8559  -30.7974   22.0204 H   0  0  0  0  0  0
  -28.1116  -28.8687   21.2267 H   0  0  0  0  0  0
  -25.9085  -25.9151   18.9579 H   0  0  0  0  0  0
  -23.9579  -27.3301   18.9796 H   0  0  0  0  0  0
  -23.7739  -30.5952   19.4060 H   0  0  0  0  0  0
  -22.7618  -29.2557   19.8530 H   0  0  0  0  0  0
  -25.1279  -36.1905   25.0801 H   0  0  0  0  0  0
  -20.9981  -28.3296   24.1385 H   0  0  0  0  0  0
  -20.5663  -26.2322   23.3623 H   0  0  0  0  0  0
  -21.6644  -26.7430   22.1220 H   0  0  0  0  0  0
  -19.6913  -25.6290   21.1246 H   0  0  0  0  0  0
  -19.6679  -27.3182   20.6735 H   0  0  0  0  0  0
  -17.4193  -26.6668   21.4038 H   0  0  0  0  0  0
  -18.0329  -26.0085   22.9030 H   0  0  0  0  0  0
  -19.7958  -30.7277   24.2249 H   0  0  0  0  0  0
  -17.5039  -31.6273   24.5174 H   0  0  0  0  0  0
  -15.5371  -30.3000   23.7672 H   0  0  0  0  0  0
  -15.8668  -28.0823   22.7096 H   0  0  0  0  0  0
  -24.5829  -30.7188   25.7783 H   0  0  0  0  0  0
  -24.8932  -32.3003   26.4848 H   0  0  0  0  0  0
  -25.7969  -30.8987   27.0251 H   0  0  0  0  0  0
  -26.2968  -29.6734   24.1256 H   0  0  0  0  0  0
  -27.3933  -29.7266   25.4856 H   0  0  0  0  0  0
  -27.8884  -30.4229   23.9612 H   0  0  0  0  0  0
  -27.2605  -33.3648   26.2087 H   0  0  0  0  0  0
  -28.3844  -32.6948   25.0354 H   0  0  0  0  0  0
  -28.0704  -31.8506   26.5451 H   0  0  0  0  0  0
  -28.2574  -38.0093   24.7535 H   0  0  0  0  0  0
  -28.1079  -36.2631   24.6234 H   0  0  0  0  0  0
  -27.2301  -37.1369   25.8862 H   0  0  0  0  0  0
  -20.9431  -29.8745   21.6820 H   0  0  0  0  0  0
  -26.0141  -38.2832   24.1472 H   0  0  0  0  0  0
  -28.9487  -15.9210   18.4081 H   0  0  0  0  0  0
  -29.9294  -18.6392   21.6055 H   0  0  0  0  0  0
  -28.6232  -18.5344   13.4481 H   0  0  0  0  0  0
  -27.3156  -17.3976   14.0858 H   0  0  0  0  0  0
  -29.4538  -18.8926   15.7206 H   0  0  0  0  0  0
  -30.1467  -23.4725   18.8826 H   0  0  0  0  0  0
  -30.9658  -23.8595   20.3859 H   0  0  0  0  0  0
  -31.0279  -21.5491   21.0677 H   0  0  0  0  0  0
  -31.0353  -21.3103   19.3219 H   0  0  0  0  0  0
  -28.9514  -23.6933   21.6442 H   0  0  0  0  0  0
  -28.4791  -21.3503   17.7351 H   0  0  0  0  0  0
  -26.8873  -20.7476   18.2130 H   0  0  0  0  0  0
  -27.6083  -20.2395   16.7245 H   0  0  0  0  0  0
  -26.9586  -24.6366   20.4419 H   0  0  0  0  0  0
  -27.8225  -24.6447   18.9381 H   0  0  0  0  0  0
  -29.0795  -15.5655   21.4810 H   0  0  0  0  0  0
  1 25  1  0  0  0
  1 30  2  0  0  0
  1 87  1  0  0  0
  2  3  1  0  0  0
  2 25  1  0  0  0
  2 90  1  0  0  0
  2 91  1  0  0  0
  3  4  1  0  0  0
  3 92  1  0  0  0
  3 93  1  0  0  0
  4  5  1  0  0  0
  4 94  1  0  0  0
  4 95  1  0  0  0
  5  6  1  0  0  0
  5 26  1  0  0  0
  5 96  1  0  0  0
  6 25  1  0  0  0
  6 97  1  0  0  0
  6 98  1  0  0  0
  7  8  2  0  0  0
  7 26  1  0  0  0
  7 29  1  0  0  0
  8  9  1  0  0  0
  8 22  1  0  0  0
  9 10  1  0  0  0
  9 27  2  0  0  0
 10 11  2  0  0  0
 10 15  1  0  0  0
 11 12  1  0  0  0
 11 99  1  0  0  0
 12 13  2  0  0  0
 12100  1  0  0  0
 13 14  1  0  0  0
 13 31  1  0  0  0
 14 15  2  0  0  0
 14101  1  0  0  0
 15102  1  0  0  0
 16 17  2  0  0  0
 16 21  1  0  0  0
 16 31  1  0  0  0
 17 18  1  0  0  0
 17103  1  0  0  0
 18 19  2  0  0  0
 18104  1  0  0  0
 19 20  1  0  0  0
 19 24  1  0  0  0
 20 21  2  0  0  0
 20105  1  0  0  0
 21 23  1  0  0  0
 22 28  1  0  0  0
 22 32  2  0  0  0
 26 27  1  0  0  0
 28106  1  0  0  0
 28107  1  0  0  0
 29108  1  0  0  0
 29109  1  0  0  0
 33 34  1  0  0  0
 33 66  1  0  0  0
 33 70  2  0  0  0
 34 36  1  0  0  0
 34 59  1  0  0  0
 34110  1  0  0  0
 35 44  2  0  0  0
 35 45  1  0  0  0
 35 68  1  0  0  0
 36 56  1  0  0  0
 36111  1  0  0  0
 37 39  1  0  0  0
 37 47  1  0  0  0
 37 66  1  0  0  0
 37112  1  0  0  0
 38 43  2  0  0  0
 38 46  1  0  0  0
 38 47  1  0  0  0
 39 64  1  0  0  0
 39 67  2  0  0  0
 40 52  1  0  0  0
 40 53  2  0  0  0
 40 58  1  0  0  0
 41113  1  0  0  0
 41114  1  0  0  0
 41115  1  0  0  0
 41 48  1  0  0  0
 42 43  1  0  0  0
 42 66  1  0  0  0
 42116  1  0  0  0
 42117  1  0  0  0
 43 44  1  0  0  0
 44118  1  0  0  0
 45 46  2  0  0  0
 45119  1  0  0  0
 46120  1  0  0  0
 47121  1  0  0  0
 47122  1  0  0  0
 48 56  1  0  0  0
 48 65  1  0  0  0
 48123  1  0  0  0
 49 50  1  0  0  0
 49 53  1  0  0  0
 49 64  1  0  0  0
 49124  1  0  0  0
 50 51  1  0  0  0
 50125  1  0  0  0
 50126  1  0  0  0
 51 52  1  0  0  0
 51127  1  0  0  0
 51128  1  0  0  0
 52129  1  0  0  0
 52130  1  0  0  0
 53 54  1  0  0  0
 54 55  2  0  0  0
 54131  1  0  0  0
 55 57  1  0  0  0
 55132  1  0  0  0
 56 69  2  0  0  0
 57 58  2  0  0  0
 57133  1  0  0  0
 58134  1  0  0  0
 59 60  1  0  0  0
 59 61  1  0  0  0
 59 62  1  0  0  0
 60135  1  0  0  0
 60136  1  0  0  0
 60137  1  0  0  0
 61138  1  0  0  0
 61139  1  0  0  0
 61140  1  0  0  0
 62141  1  0  0  0
 62142  1  0  0  0
 62143  1  0  0  0
 63 65  1  0  0  0
 63144  1  0  0  0
 63145  1  0  0  0
 63146  1  0  0  0
 64147  1  0  0  0
 65148  1  0  0  0
 68 85  1  0  0  0
 71 73  2  0  0  0
 71 76  1  0  0  0
 71149  1  0  0  0
 72 75  1  0  0  0
 72 76  2  0  0  0
 72150  1  0  0  0
 73 74  1  0  0  0
 73 80  1  0  0  0
 74 75  2  0  0  0
 74 84  1  0  0  0
 75 86  1  0  0  0
 76 87  1  0  0  0
 77 83  1  0  0  0
 77 86  1  0  0  0
 77 88  2  0  0  0
 78 79  2  0  0  0
 78151  1  0  0  0
 78152  1  0  0  0
 79 80  1  0  0  0
 79153  1  0  0  0
 80 89  2  0  0  0
 81 82  1  0  0  0
 81 83  1  0  0  0
 81154  1  0  0  0
 81155  1  0  0  0
 82 86  1  0  0  0
 82156  1  0  0  0
 82157  1  0  0  0
 83 85  1  0  0  0
 83158  1  0  0  0
 84159  1  0  0  0
 84160  1  0  0  0
 84161  1  0  0  0
 85162  1  0  0  0
 85163  1  0  0  0
 87164  1  0  0  0
M  ISO  4   1 100  68 101  85 101  87 100
M  END
> <chiral flag>
0

> <version>
0

> <s_m_source_file>
/data/baiqing/PycharmProjects/Reinvent-master-3.2/result/LINK_invent/BTK/process_docking_weight1_custom_product_contain_oxygen_bond_distance_aromatic_linkinvent_7_9_3/rearranged_h_0072.sdf

> <i_m_source_file_index>
13

> <r_mmod_Potential_Energy-OPLS-2005>
378.8056640625

> <r_mmod_Stretch_Energy-OPLS-2005>
142.970169067383

> <r_mmod_Bend_Energy-OPLS-2005>
208.338302612305

> <r_mmod_Torsional_Energy-OPLS-2005>
352.865051269531

> <r_mmod_Improper_Torsional_Energy-OPLS-2005>
7.46081018447876

> <r_mmod_Van_der_Waal_Energy-OPLS-2005>
140.992965698242

> <r_mmod_Electrostatic_Energy-OPLS-2005>
-342.144775390625

> <r_mmod_Solvation_Energy-OPLS-2005>
-233.143493652344

> <b_mmod_Minimization_Converged-OPLS-2005>
0

> <r_mmod_RMS_Derivative-OPLS-2005>
2.58939909934998

$$$$
13
                    3D
 Structure written by MMmdl.
163172  0  0  1  0            999 V2000
  -30.6343  -14.7774   20.5148 C   0  0  0  0  0  0
  -30.4394  -12.4846   19.5070 C   0  0  0  0  0  0
  -29.5269  -12.5342   18.2606 C   0  0  0  0  0  0
  -28.0550  -12.3295   18.6613 C   0  0  0  0  0  0
  -27.6417  -13.2316   19.8507 C   0  0  2  0  0  0
  -28.6815  -13.1884   21.0020 C   0  0  0  0  0  0
  -25.2294  -13.8049   20.5515 C   0  0  0  0  0  0
  -24.1701  -13.0294   20.9213 C   0  0  0  0  0  0
  -24.6392  -11.6827   20.8772 C   0  0  0  0  0  0
  -23.9092  -10.4226   21.0426 C   0  0  0  0  0  0
  -24.3637   -9.4155   21.9206 C   0  0  0  0  0  0
  -23.6288   -8.2215   22.0788 C   0  0  0  0  0  0
  -22.4270   -8.0276   21.3563 C   0  0  0  0  0  0
  -21.9910   -9.0249   20.4659 C   0  0  0  0  0  0
  -22.7269  -10.2101   20.3065 C   0  0  0  0  0  0
  -21.6847   -6.0714   22.5262 C   0  0  0  0  0  0
  -21.4011   -6.5611   23.8194 C   0  0  0  0  0  0
  -21.3655   -5.6767   24.9159 C   0  0  0  0  0  0
  -21.6052   -4.3033   24.7206 C   0  0  0  0  0  0
  -21.8831   -3.8121   23.4327 C   0  0  0  0  0  0
  -21.9198   -4.6941   22.3384 C   0  0  0  0  0  0
  -22.7728  -13.5102   21.1883 C   0  0  0  0  0  0
  -22.1670   -4.2134   21.0957 F   0  0  0  0  0  0
  -21.5643   -3.4519   25.7721 F   0  0  0  0  0  0
  -30.0032  -13.5454   20.4547 N   0  0  0  0  0  0
  -26.2883  -12.9376   20.3218 N   0  0  0  0  0  0
  -25.9334  -11.6515   20.5771 N   0  0  0  0  0  0
  -22.0383  -12.8147   22.0466 N   0  0  0  0  0  0
  -25.3414  -15.1729   20.3641 N   0  0  0  0  0  0
  -31.7464  -14.9155   19.9983 O   0  0  0  0  0  0
  -21.6638   -6.8873   21.4234 O   0  0  0  0  0  0
  -22.3430  -14.5421   20.6730 O   0  0  0  0  0  0
  -24.6304  -31.8569   23.1982 C   0  0  0  0  0  0
  -25.9140  -32.4763   23.8322 C   0  0  1  0  0  0
  -27.2321  -27.2740   20.1281 C   0  0  0  0  0  0
  -25.5938  -33.8566   24.2257 N   0  0  0  0  0  0
  -23.4282  -30.4787   21.5407 C   0  0  2  0  0  0
  -24.8781  -28.9270   20.1102 C   0  0  0  0  0  0
  -22.7507  -29.4613   22.4911 C   0  0  0  0  0  0
  -18.0296  -28.1423   22.8483 C   0  0  0  0  0  0
  -24.1488  -36.7283   23.2629 C   0  0  0  0  0  0
  -25.9721  -30.7749   21.3755 C   0  0  0  0  0  0
  -26.0482  -29.3966   20.7205 C   0  0  0  0  0  0
  -27.2255  -28.5821   20.7195 C   0  0  0  0  0  0
  -26.0370  -26.8753   19.4829 C   0  0  0  0  0  0
  -24.8776  -27.6734   19.4818 C   0  0  0  0  0  0
  -23.6480  -29.8123   20.1564 C   0  0  0  0  0  0
  -25.4113  -36.3070   24.0320 C   0  0  1  0  0  0
  -20.5897  -28.3730   23.1273 C   0  0  2  0  0  0
  -20.6788  -26.9449   22.5413 C   0  0  0  0  0  0
  -19.5761  -26.6411   21.5222 C   0  0  0  0  0  0
  -18.1937  -26.7966   22.1628 C   0  0  0  0  0  0
  -19.1550  -28.8893   23.2873 C   0  0  0  0  0  0
  -18.9471  -30.1492   23.8897 C   0  0  0  0  0  0
  -17.6469  -30.6612   24.0580 C   0  0  0  0  0  0
  -25.9061  -34.9443   23.5087 C   0  0  0  0  0  0
  -16.5359  -29.9117   23.6337 C   0  0  0  0  0  0
  -16.7281  -28.6541   23.0338 C   0  0  0  0  0  0
  -26.4508  -31.6583   25.0707 C   0  0  0  0  0  0
  -25.3742  -31.3747   26.1440 C   0  0  0  0  0  0
  -27.0332  -30.2987   24.6183 C   0  0  0  0  0  0
  -27.6066  -32.4309   25.7477 C   0  0  0  0  0  0
  -27.5589  -37.1779   24.8454 C   0  0  0  0  0  0
  -21.4214  -29.3066   22.3657 N   0  0  0  0  0  0
  -26.4274  -37.3783   23.9428 N   0  0  0  0  0  0
  -24.6958  -31.0546   22.0955 N   0  0  0  0  0  0
  -23.4204  -28.8164   23.3018 O   0  0  0  0  0  0
  -28.3345  -26.3878   20.1987 O   0  0  0  0  0  0
  -26.5627  -34.8924   22.4656 O   0  0  0  0  0  0
  -23.5456  -32.1378   23.7290 O   0  0  0  0  0  0
  -27.1784  -17.9535   20.0814 C   0  0  0  0  0  0
  -28.0253  -16.9132   20.4726 C   0  0  0  0  0  0
  -29.8450  -18.4878   20.6250 C   0  0  0  0  0  0
  -27.6272  -19.2784   19.9415 C   0  0  0  0  0  0
  -28.9757  -19.6336   20.2802 C   0  0  0  0  0  0
  -29.3897  -17.0940   20.6878 C   0  0  0  0  0  0
  -31.0773  -22.6898   19.1423 C   0  0  0  0  0  0
  -30.6059  -21.2357   19.4096 C   0  0  0  0  0  0
  -28.5156  -22.2496   20.3053 C   0  0  0  0  0  0
  -29.1472  -23.7247   20.3968 C   0  0  2  0  0  0
  -26.5707  -20.2234   19.3767 C   0  0  0  0  0  0
  -31.0033  -25.1115   19.4968 C   0  0  0  0  0  0
  -28.1115  -24.9152   19.9803 C   0  0  0  0  0  0
  -29.4218  -21.0354   20.2474 N   0  0  0  0  0  0
  -30.4171  -23.7721   19.6411 N   0  0  0  0  0  0
  -30.0345  -15.8416   21.1778 N   0  0  0  0  0  0
  -32.0942  -22.8184   18.4539 O   0  0  0  0  0  0
  -31.4827  -12.6010   19.2102 H   0  0  0  0  0  0
  -30.3825  -11.5081   19.9893 H   0  0  0  0  0  0
  -29.8310  -11.7750   17.5389 H   0  0  0  0  0  0
  -29.6419  -13.4964   17.7598 H   0  0  0  0  0  0
  -27.9260  -11.2818   18.9322 H   0  0  0  0  0  0
  -27.4059  -12.5095   17.8037 H   0  0  0  0  0  0
  -27.6261  -14.2351   19.4342 H   0  0  0  0  0  0
  -28.7149  -12.1942   21.4501 H   0  0  0  0  0  0
  -28.3864  -13.8664   21.8034 H   0  0  0  0  0  0
  -25.2786   -9.5617   22.4778 H   0  0  0  0  0  0
  -23.9982   -7.4620   22.7536 H   0  0  0  0  0  0
  -21.0830   -8.8782   19.8973 H   0  0  0  0  0  0
  -22.3758  -10.9648   19.6171 H   0  0  0  0  0  0
  -21.1998   -7.6119   23.9683 H   0  0  0  0  0  0
  -21.1468   -6.0501   25.9058 H   0  0  0  0  0  0
  -22.0617   -2.7581   23.2835 H   0  0  0  0  0  0
  -22.3939  -11.9793   22.4870 H   0  0  0  0  0  0
  -21.1020  -13.1238   22.2657 H   0  0  0  0  0  0
  -24.5266  -15.7712   20.4494 H   0  0  0  0  0  0
  -26.1213  -15.6270   19.9088 H   0  0  0  0  0  0
  -26.7210  -32.5437   23.1073 H   0  0  0  0  0  0
  -25.0103  -33.9696   25.0410 H   0  0  0  0  0  0
  -22.7230  -31.2992   21.3927 H   0  0  0  0  0  0
  -23.3761  -35.9600   23.3256 H   0  0  0  0  0  0
  -24.3593  -36.8942   22.2052 H   0  0  0  0  0  0
  -23.7221  -37.6464   23.6680 H   0  0  0  0  0  0
  -26.1032  -31.5354   20.6041 H   0  0  0  0  0  0
  -26.8512  -30.8300   22.0056 H   0  0  0  0  0  0
  -28.1188  -28.9349   21.2167 H   0  0  0  0  0  0
  -25.9652  -25.9208   18.9834 H   0  0  0  0  0  0
  -23.9831  -27.3106   18.9940 H   0  0  0  0  0  0
  -23.7739  -30.5876   19.3996 H   0  0  0  0  0  0
  -22.7673  -29.2454   19.8503 H   0  0  0  0  0  0
  -25.1285  -36.1906   25.0805 H   0  0  0  0  0  0
  -20.9981  -28.3323   24.1398 H   0  0  0  0  0  0
  -20.5712  -26.2340   23.3619 H   0  0  0  0  0  0
  -21.6658  -26.7497   22.1195 H   0  0  0  0  0  0
  -19.6919  -25.6321   21.1254 H   0  0  0  0  0  0
  -19.6692  -27.3221   20.6750 H   0  0  0  0  0  0
  -17.4207  -26.6712   21.4031 H   0  0  0  0  0  0
  -18.0330  -26.0119   22.9031 H   0  0  0  0  0  0
  -19.7945  -30.7315   24.2256 H   0  0  0  0  0  0
  -17.5022  -31.6286   24.5204 H   0  0  0  0  0  0
  -15.5360  -30.3013   23.7676 H   0  0  0  0  0  0
  -15.8677  -28.0874   22.7032 H   0  0  0  0  0  0
  -24.5931  -30.7064   25.7811 H   0  0  0  0  0  0
  -24.8923  -32.2922   26.4827 H   0  0  0  0  0  0
  -25.8078  -30.8983   27.0240 H   0  0  0  0  0  0
  -26.2900  -29.6741   24.1217 H   0  0  0  0  0  0
  -27.4016  -29.7252   25.4702 H   0  0  0  0  0  0
  -27.8779  -30.4246   23.9406 H   0  0  0  0  0  0
  -27.2687  -33.3625   26.2032 H   0  0  0  0  0  0
  -28.3891  -32.6840   25.0311 H   0  0  0  0  0  0
  -28.0710  -31.8443   26.5418 H   0  0  0  0  0  0
  -28.2560  -38.0124   24.7579 H   0  0  0  0  0  0
  -28.1122  -36.2662   24.6160 H   0  0  0  0  0  0
  -27.2325  -37.1295   25.8856 H   0  0  0  0  0  0
  -20.9413  -29.8768   21.6833 H   0  0  0  0  0  0
  -26.0146  -38.2832   24.1500 H   0  0  0  0  0  0
  -26.1412  -17.7229   19.8890 H   0  0  0  0  0  0
  -27.6137  -15.9406   20.6484 H   0  0  0  0  0  0
  -30.8718  -18.6893   20.8934 H   0  0  0  0  0  0
  -31.4495  -20.7083   19.8540 H   0  0  0  0  0  0
  -30.4305  -20.7715   18.4365 H   0  0  0  0  0  0
  -27.9683  -22.2949   19.3693 H   0  0  0  0  0  0
  -27.7904  -22.1298   21.1117 H   0  0  0  0  0  0
  -29.4178  -23.8802   21.4417 H   0  0  0  0  0  0
  -25.6748  -19.6889   19.0617 H   0  0  0  0  0  0
  -26.9352  -20.7188   18.4774 H   0  0  0  0  0  0
  -26.2305  -20.9512   20.1112 H   0  0  0  0  0  0
  -30.6131  -25.6028   18.6048 H   0  0  0  0  0  0
  -32.0916  -25.0988   19.4241 H   0  0  0  0  0  0
  -30.7721  -25.7383   20.3575 H   0  0  0  0  0  0
  -27.1837  -24.6696   20.4992 H   0  0  0  0  0  0
  -27.8973  -24.7879   18.9188 H   0  0  0  0  0  0
  -29.4286  -15.4154   21.8632 H   0  0  0  0  0  0
  1 25  1  0  0  0
  1 30  2  0  0  0
  1 86  1  0  0  0
  2  3  1  0  0  0
  2 25  1  0  0  0
  2 88  1  0  0  0
  2 89  1  0  0  0
  3  4  1  0  0  0
  3 90  1  0  0  0
  3 91  1  0  0  0
  4  5  1  0  0  0
  4 92  1  0  0  0
  4 93  1  0  0  0
  5  6  1  0  0  0
  5 26  1  0  0  0
  5 94  1  0  0  0
  6 25  1  0  0  0
  6 95  1  0  0  0
  6 96  1  0  0  0
  7  8  2  0  0  0
  7 26  1  0  0  0
  7 29  1  0  0  0
  8  9  1  0  0  0
  8 22  1  0  0  0
  9 10  1  0  0  0
  9 27  2  0  0  0
 10 11  2  0  0  0
 10 15  1  0  0  0
 11 12  1  0  0  0
 11 97  1  0  0  0
 12 13  2  0  0  0
 12 98  1  0  0  0
 13 14  1  0  0  0
 13 31  1  0  0  0
 14 15  2  0  0  0
 14 99  1  0  0  0
 15100  1  0  0  0
 16 17  2  0  0  0
 16 21  1  0  0  0
 16 31  1  0  0  0
 17 18  1  0  0  0
 17101  1  0  0  0
 18 19  2  0  0  0
 18102  1  0  0  0
 19 20  1  0  0  0
 19 24  1  0  0  0
 20 21  2  0  0  0
 20103  1  0  0  0
 21 23  1  0  0  0
 22 28  1  0  0  0
 22 32  2  0  0  0
 26 27  1  0  0  0
 28104  1  0  0  0
 28105  1  0  0  0
 29106  1  0  0  0
 29107  1  0  0  0
 33 34  1  0  0  0
 33 66  1  0  0  0
 33 70  2  0  0  0
 34 36  1  0  0  0
 34 59  1  0  0  0
 34108  1  0  0  0
 35 44  2  0  0  0
 35 45  1  0  0  0
 35 68  1  0  0  0
 36 56  1  0  0  0
 36109  1  0  0  0
 37 39  1  0  0  0
 37 47  1  0  0  0
 37 66  1  0  0  0
 37110  1  0  0  0
 38 43  2  0  0  0
 38 46  1  0  0  0
 38 47  1  0  0  0
 39 64  1  0  0  0
 39 67  2  0  0  0
 40 52  1  0  0  0
 40 53  2  0  0  0
 40 58  1  0  0  0
 41111  1  0  0  0
 41112  1  0  0  0
 41113  1  0  0  0
 41 48  1  0  0  0
 42 43  1  0  0  0
 42 66  1  0  0  0
 42114  1  0  0  0
 42115  1  0  0  0
 43 44  1  0  0  0
 44116  1  0  0  0
 45 46  2  0  0  0
 45117  1  0  0  0
 46118  1  0  0  0
 47119  1  0  0  0
 47120  1  0  0  0
 48 56  1  0  0  0
 48 65  1  0  0  0
 48121  1  0  0  0
 49 50  1  0  0  0
 49 53  1  0  0  0
 49 64  1  0  0  0
 49122  1  0  0  0
 50 51  1  0  0  0
 50123  1  0  0  0
 50124  1  0  0  0
 51 52  1  0  0  0
 51125  1  0  0  0
 51126  1  0  0  0
 52127  1  0  0  0
 52128  1  0  0  0
 53 54  1  0  0  0
 54 55  2  0  0  0
 54129  1  0  0  0
 55 57  1  0  0  0
 55130  1  0  0  0
 56 69  2  0  0  0
 57 58  2  0  0  0
 57131  1  0  0  0
 58132  1  0  0  0
 59 60  1  0  0  0
 59 61  1  0  0  0
 59 62  1  0  0  0
 60133  1  0  0  0
 60134  1  0  0  0
 60135  1  0  0  0
 61136  1  0  0  0
 61137  1  0  0  0
 61138  1  0  0  0
 62139  1  0  0  0
 62140  1  0  0  0
 62141  1  0  0  0
 63 65  1  0  0  0
 63142  1  0  0  0
 63143  1  0  0  0
 63144  1  0  0  0
 64145  1  0  0  0
 65146  1  0  0  0
 68 83  1  0  0  0
 71 72  2  0  0  0
 71 74  1  0  0  0
 71147  1  0  0  0
 72 76  1  0  0  0
 72148  1  0  0  0
 73 75  1  0  0  0
 73 76  2  0  0  0
 73149  1  0  0  0
 74 75  2  0  0  0
 74 81  1  0  0  0
 75 84  1  0  0  0
 76 86  1  0  0  0
 77 78  1  0  0  0
 77 85  1  0  0  0
 77 87  2  0  0  0
 78 84  1  0  0  0
 78150  1  0  0  0
 78151  1  0  0  0
 79 80  1  0  0  0
 79 84  1  0  0  0
 79152  1  0  0  0
 79153  1  0  0  0
 80 83  1  0  0  0
 80 85  1  0  0  0
 80154  1  0  0  0
 81155  1  0  0  0
 81156  1  0  0  0
 81157  1  0  0  0
 82 85  1  0  0  0
 82158  1  0  0  0
 82159  1  0  0  0
 82160  1  0  0  0
 83161  1  0  0  0
 83162  1  0  0  0
 86163  1  0  0  0
M  ISO  4   1 100  68 101  83 101  86 100
M  END
> <chiral flag>
0

> <version>
0

> <s_m_source_file>
/data/baiqing/PycharmProjects/Reinvent-master-3.2/result/LINK_invent/BTK/process_docking_weight1_custom_product_contain_oxygen_bond_distance_aromatic_linkinvent_7_9_3/rearranged_h_0072.sdf

> <i_m_source_file_index>
14

> <r_mmod_Potential_Energy-OPLS-2005>
368.640502929688

> <r_mmod_Stretch_Energy-OPLS-2005>
143.386322021484

> <r_mmod_Bend_Energy-OPLS-2005>
224.498138427734

> <r_mmod_Torsional_Energy-OPLS-2005>
304.668395996094

> <r_mmod_Improper_Torsional_Energy-OPLS-2005>
11.4899120330811

> <r_mmod_Van_der_Waal_Energy-OPLS-2005>
174.414260864258

> <r_mmod_Electrostatic_Energy-OPLS-2005>
-329.145080566406

> <r_mmod_Solvation_Energy-OPLS-2005>
-252.138961791992

> <b_mmod_Minimization_Converged-OPLS-2005>
0

> <r_mmod_RMS_Derivative-OPLS-2005>
2.30637288093567

$$$$
14
                    3D
 Structure written by MMmdl.
143150  0  0  1  0            999 V2000
  -30.4000  -15.3426   20.3541 C   0  0  0  0  0  0
  -30.4377  -12.8586   19.5428 C   0  0  0  0  0  0
  -29.5425  -12.5964   18.3031 C   0  0  0  0  0  0
  -28.0939  -12.3041   18.7280 C   0  0  0  0  0  0
  -27.6103  -13.2827   19.8260 C   0  0  2  0  0  0
  -28.6380  -13.4831   20.9622 C   0  0  0  0  0  0
  -25.2374  -13.8257   20.5753 C   0  0  0  0  0  0
  -24.1735  -13.0437   20.9261 C   0  0  0  0  0  0
  -24.6401  -11.6937   20.8759 C   0  0  0  0  0  0
  -23.9098  -10.4293   21.0402 C   0  0  0  0  0  0
  -24.3640   -9.4207   21.9181 C   0  0  0  0  0  0
  -23.6306   -8.2246   22.0754 C   0  0  0  0  0  0
  -22.4287   -8.0285   21.3545 C   0  0  0  0  0  0
  -21.9929   -9.0259   20.4645 C   0  0  0  0  0  0
  -22.7266  -10.2134   20.3053 C   0  0  0  0  0  0
  -21.6857   -6.0739   22.5278 C   0  0  0  0  0  0
  -21.4017   -6.5641   23.8212 C   0  0  0  0  0  0
  -21.3660   -5.6793   24.9174 C   0  0  0  0  0  0
  -21.6044   -4.3056   24.7224 C   0  0  0  0  0  0
  -21.8818   -3.8148   23.4345 C   0  0  0  0  0  0
  -21.9194   -4.6966   22.3401 C   0  0  0  0  0  0
  -22.7751  -13.5184   21.1906 C   0  0  0  0  0  0
  -22.1662   -4.2152   21.0979 F   0  0  0  0  0  0
  -21.5628   -3.4539   25.7736 F   0  0  0  0  0  0
  -29.8645  -14.0130   20.3405 N   0  0  0  0  0  0
  -26.2810  -12.9545   20.3228 N   0  0  0  0  0  0
  -25.9341  -11.6642   20.5717 N   0  0  0  0  0  0
  -22.0412  -12.8164   22.0460 N   0  0  0  0  0  0
  -25.3995  -15.1994   20.4185 N   0  0  0  0  0  0
  -31.6122  -15.3489   20.0908 O   0  0  0  0  0  0
  -21.6646   -6.8884   21.4241 O   0  0  0  0  0  0
  -22.3429  -14.5485   20.6746 O   0  0  0  0  0  0
  -24.6673  -31.8178   23.1657 C   0  0  0  0  0  0
  -25.9331  -32.4557   23.8142 C   0  0  1  0  0  0
  -27.2223  -26.8754   20.1896 C   0  0  0  0  0  0
  -25.5979  -33.8375   24.2042 N   0  0  0  0  0  0
  -23.4852  -30.4263   21.5153 C   0  0  2  0  0  0
  -24.9414  -28.8037   20.1091 C   0  0  0  0  0  0
  -22.7690  -29.4406   22.4758 C   0  0  0  0  0  0
  -18.0326  -28.1412   22.8463 C   0  0  0  0  0  0
  -24.1494  -36.7193   23.2649 C   0  0  0  0  0  0
  -26.0566  -30.6058   21.4059 C   0  0  0  0  0  0
  -26.1239  -29.1902   20.7511 C   0  0  0  0  0  0
  -27.2540  -28.2466   20.7690 C   0  0  0  0  0  0
  -26.0148  -26.6591   19.4858 C   0  0  0  0  0  0
  -24.9156  -27.5604   19.4553 C   0  0  0  0  0  0
  -23.7287  -29.7370   20.1431 C   0  0  0  0  0  0
  -25.4137  -36.2949   24.0295 C   0  0  1  0  0  0
  -20.5953  -28.3760   23.1175 C   0  0  2  0  0  0
  -20.6798  -26.9435   22.5403 C   0  0  0  0  0  0
  -19.5774  -26.6375   21.5214 C   0  0  0  0  0  0
  -18.1956  -26.7943   22.1621 C   0  0  0  0  0  0
  -19.1589  -28.8908   23.2805 C   0  0  0  0  0  0
  -18.9498  -30.1495   23.8843 C   0  0  0  0  0  0
  -17.6490  -30.6599   24.0554 C   0  0  0  0  0  0
  -25.9106  -34.9333   23.4994 C   0  0  0  0  0  0
  -16.5381  -29.9085   23.6345 C   0  0  0  0  0  0
  -16.7308  -28.6506   23.0363 C   0  0  0  0  0  0
  -26.4566  -31.6527   25.0696 C   0  0  0  0  0  0
  -25.3676  -31.3796   26.1342 C   0  0  0  0  0  0
  -27.0476  -30.2887   24.6479 C   0  0  0  0  0  0
  -27.6043  -32.4354   25.7504 C   0  0  0  0  0  0
  -27.5569  -37.1753   24.8465 C   0  0  0  0  0  0
  -21.4354  -29.3038   22.3514 N   0  0  0  0  0  0
  -26.4277  -37.3692   23.9408 N   0  0  0  0  0  0
  -24.7579  -30.9787   22.0821 N   0  0  0  0  0  0
  -23.4213  -28.7987   23.3029 O   0  0  0  0  0  0
  -28.2056  -25.7389   20.3098 O   0  0  0  0  0  0
  -26.5727  -34.8880   22.4597 O   0  0  0  0  0  0
  -23.5731  -32.1176   23.6715 O   0  0  0  0  0  0
  -28.7517  -22.6593   20.6397 C   0  0  0  0  0  0
  -29.1911  -19.8873   20.8015 C   0  0  0  0  0  0
  -28.0504  -24.1184   19.9013 C   0  0  0  0  0  0
  -29.6535  -18.2855   20.1188 C   0  0  0  0  0  0
  -28.8955  -21.2211   20.1787 N   0  0  0  0  0  0
  -29.6131  -16.6144   20.4685 N   0  0  0  0  0  0
  -29.1929  -22.9287   21.7623 O   0  0  0  0  0  0
  -29.0578  -19.7594   22.4713 S   0  0  0  0  0  0
  -31.4547  -13.0696   19.2100 H   0  0  0  0  0  0
  -30.5172  -11.9614   20.1589 H   0  0  0  0  0  0
  -29.9373  -11.7671   17.7146 H   0  0  0  0  0  0
  -29.5617  -13.4718   17.6522 H   0  0  0  0  0  0
  -28.0613  -11.2827   19.1092 H   0  0  0  0  0  0
  -27.4272  -12.3313   17.8653 H   0  0  0  0  0  0
  -27.5178  -14.2432   19.3177 H   0  0  0  0  0  0
  -28.8196  -12.5557   21.5074 H   0  0  0  0  0  0
  -28.2607  -14.2022   21.6909 H   0  0  0  0  0  0
  -25.2781   -9.5683   22.4762 H   0  0  0  0  0  0
  -24.0010   -7.4637   22.7477 H   0  0  0  0  0  0
  -21.0860   -8.8784   19.8951 H   0  0  0  0  0  0
  -22.3724  -10.9675   19.6165 H   0  0  0  0  0  0
  -21.2011   -7.6149   23.9716 H   0  0  0  0  0  0
  -21.1482   -6.0523   25.9077 H   0  0  0  0  0  0
  -22.0596   -2.7610   23.2844 H   0  0  0  0  0  0
  -22.4050  -11.9838   22.4854 H   0  0  0  0  0  0
  -21.1022  -13.1166   22.2664 H   0  0  0  0  0  0
  -24.6264  -15.8465   20.5298 H   0  0  0  0  0  0
  -26.2348  -15.6406   20.0575 H   0  0  0  0  0  0
  -26.7402  -32.5078   23.0855 H   0  0  0  0  0  0
  -25.0061  -33.9444   25.0149 H   0  0  0  0  0  0
  -22.8012  -31.2592   21.3397 H   0  0  0  0  0  0
  -23.3771  -35.9508   23.3272 H   0  0  0  0  0  0
  -24.3568  -36.8884   22.2071 H   0  0  0  0  0  0
  -23.7237  -37.6362   23.6736 H   0  0  0  0  0  0
  -26.2437  -31.3433   20.6243 H   0  0  0  0  0  0
  -26.9138  -30.6646   22.0645 H   0  0  0  0  0  0
  -28.1428  -28.5378   21.3109 H   0  0  0  0  0  0
  -25.8784  -25.7125   18.9840 H   0  0  0  0  0  0
  -24.0196  -27.2598   18.9297 H   0  0  0  0  0  0
  -23.8872  -30.5036   19.3839 H   0  0  0  0  0  0
  -22.8377  -29.1932   19.8247 H   0  0  0  0  0  0
  -25.1338  -36.1736   25.0785 H   0  0  0  0  0  0
  -21.0041  -28.3374   24.1299 H   0  0  0  0  0  0
  -20.5671  -26.2382   23.3651 H   0  0  0  0  0  0
  -21.6662  -26.7400   22.1215 H   0  0  0  0  0  0
  -19.6932  -25.6271   21.1280 H   0  0  0  0  0  0
  -19.6714  -27.3154   20.6720 H   0  0  0  0  0  0
  -17.4225  -26.6686   21.4025 H   0  0  0  0  0  0
  -18.0349  -26.0098   22.9030 H   0  0  0  0  0  0
  -19.7974  -30.7325   24.2189 H   0  0  0  0  0  0
  -17.5042  -31.6273   24.5167 H   0  0  0  0  0  0
  -15.5378  -30.2969   23.7699 H   0  0  0  0  0  0
  -15.8709  -28.0806   22.7110 H   0  0  0  0  0  0
  -24.5876  -30.7126   25.7649 H   0  0  0  0  0  0
  -24.8845  -32.3003   26.4622 H   0  0  0  0  0  0
  -25.7892  -30.9059   27.0215 H   0  0  0  0  0  0
  -26.3160  -29.6541   24.1465 H   0  0  0  0  0  0
  -27.3962  -29.7278   25.5161 H   0  0  0  0  0  0
  -27.9118  -30.4053   23.9936 H   0  0  0  0  0  0
  -27.2600  -33.3704   26.1936 H   0  0  0  0  0  0
  -28.3929  -32.6838   25.0388 H   0  0  0  0  0  0
  -28.0630  -31.8582   26.5543 H   0  0  0  0  0  0
  -28.2561  -38.0072   24.7516 H   0  0  0  0  0  0
  -28.1090  -36.2597   24.6288 H   0  0  0  0  0  0
  -27.2285  -37.1386   25.8867 H   0  0  0  0  0  0
  -20.9622  -29.8718   21.6624 H   0  0  0  0  0  0
  -26.0119  -38.2746   24.1421 H   0  0  0  0  0  0
  -26.9792  -23.9208   19.9180 H   0  0  0  0  0  0
  -28.3212  -24.0623   18.8471 H   0  0  0  0  0  0
  -30.5129  -18.2043   20.7856 H   0  0  0  0  0  0
  -28.6102  -18.0128   20.2812 H   0  0  0  0  0  0
  -28.7371  -21.1478   19.1854 H   0  0  0  0  0  0
  -28.6770  -16.3719   20.7591 H   0  0  0  0  0  0
  1 25  1  0  0  0
  1 30  2  0  0  0
  1 76  1  0  0  0
  2  3  1  0  0  0
  2 25  1  0  0  0
  2 79  1  0  0  0
  2 80  1  0  0  0
  3  4  1  0  0  0
  3 81  1  0  0  0
  3 82  1  0  0  0
  4  5  1  0  0  0
  4 83  1  0  0  0
  4 84  1  0  0  0
  5  6  1  0  0  0
  5 26  1  0  0  0
  5 85  1  0  0  0
  6 25  1  0  0  0
  6 86  1  0  0  0
  6 87  1  0  0  0
  7  8  2  0  0  0
  7 26  1  0  0  0
  7 29  1  0  0  0
  8  9  1  0  0  0
  8 22  1  0  0  0
  9 10  1  0  0  0
  9 27  2  0  0  0
 10 11  2  0  0  0
 10 15  1  0  0  0
 11 12  1  0  0  0
 11 88  1  0  0  0
 12 13  2  0  0  0
 12 89  1  0  0  0
 13 14  1  0  0  0
 13 31  1  0  0  0
 14 15  2  0  0  0
 14 90  1  0  0  0
 15 91  1  0  0  0
 16 17  2  0  0  0
 16 21  1  0  0  0
 16 31  1  0  0  0
 17 18  1  0  0  0
 17 92  1  0  0  0
 18 19  2  0  0  0
 18 93  1  0  0  0
 19 20  1  0  0  0
 19 24  1  0  0  0
 20 21  2  0  0  0
 20 94  1  0  0  0
 21 23  1  0  0  0
 22 28  1  0  0  0
 22 32  2  0  0  0
 26 27  1  0  0  0
 28 95  1  0  0  0
 28 96  1  0  0  0
 29 97  1  0  0  0
 29 98  1  0  0  0
 33 34  1  0  0  0
 33 66  1  0  0  0
 33 70  2  0  0  0
 34 36  1  0  0  0
 34 59  1  0  0  0
 34 99  1  0  0  0
 35 44  2  0  0  0
 35 45  1  0  0  0
 35 68  1  0  0  0
 36 56  1  0  0  0
 36100  1  0  0  0
 37 39  1  0  0  0
 37 47  1  0  0  0
 37 66  1  0  0  0
 37101  1  0  0  0
 38 43  2  0  0  0
 38 46  1  0  0  0
 38 47  1  0  0  0
 39 64  1  0  0  0
 39 67  2  0  0  0
 40 52  1  0  0  0
 40 53  2  0  0  0
 40 58  1  0  0  0
 41102  1  0  0  0
 41103  1  0  0  0
 41104  1  0  0  0
 41 48  1  0  0  0
 42 43  1  0  0  0
 42 66  1  0  0  0
 42105  1  0  0  0
 42106  1  0  0  0
 43 44  1  0  0  0
 44107  1  0  0  0
 45 46  2  0  0  0
 45108  1  0  0  0
 46109  1  0  0  0
 47110  1  0  0  0
 47111  1  0  0  0
 48 56  1  0  0  0
 48 65  1  0  0  0
 48112  1  0  0  0
 49 50  1  0  0  0
 49 53  1  0  0  0
 49 64  1  0  0  0
 49113  1  0  0  0
 50 51  1  0  0  0
 50114  1  0  0  0
 50115  1  0  0  0
 51 52  1  0  0  0
 51116  1  0  0  0
 51117  1  0  0  0
 52118  1  0  0  0
 52119  1  0  0  0
 53 54  1  0  0  0
 54 55  2  0  0  0
 54120  1  0  0  0
 55 57  1  0  0  0
 55121  1  0  0  0
 56 69  2  0  0  0
 57 58  2  0  0  0
 57122  1  0  0  0
 58123  1  0  0  0
 59 60  1  0  0  0
 59 61  1  0  0  0
 59 62  1  0  0  0
 60124  1  0  0  0
 60125  1  0  0  0
 60126  1  0  0  0
 61127  1  0  0  0
 61128  1  0  0  0
 61129  1  0  0  0
 62130  1  0  0  0
 62131  1  0  0  0
 62132  1  0  0  0
 63 65  1  0  0  0
 63133  1  0  0  0
 63134  1  0  0  0
 63135  1  0  0  0
 64136  1  0  0  0
 65137  1  0  0  0
 68 73  1  0  0  0
 71 73  1  0  0  0
 71 75  1  0  0  0
 71 77  2  0  0  0
 72 74  1  0  0  0
 72 75  1  0  0  0
 72 78  2  0  0  0
 73138  1  0  0  0
 73139  1  0  0  0
 74 76  1  0  0  0
 74140  1  0  0  0
 74141  1  0  0  0
 75142  1  0  0  0
 76143  1  0  0  0
M  ISO  4   1 100  68 101  73 101  76 100
M  END
> <chiral flag>
0

> <version>
0

> <s_m_source_file>
/data/baiqing/PycharmProjects/Reinvent-master-3.2/result/LINK_invent/BTK/process_docking_weight1_custom_product_contain_oxygen_bond_distance_aromatic_linkinvent_7_9_3/rearranged_h_0072.sdf

> <i_m_source_file_index>
15

> <r_mmod_Potential_Energy-OPLS-2005>
1499.15698242188

> <r_mmod_Stretch_Energy-OPLS-2005>
697.365356445312

> <r_mmod_Bend_Energy-OPLS-2005>
668.781372070312

> <r_mmod_Torsional_Energy-OPLS-2005>
213.525161743164

> <r_mmod_Improper_Torsional_Energy-OPLS-2005>
4.24735879898071

> <r_mmod_Van_der_Waal_Energy-OPLS-2005>
121.64729309082

> <r_mmod_Electrostatic_Energy-OPLS-2005>
-451.380126953125

> <r_mmod_Solvation_Energy-OPLS-2005>
-300.593536376953

> <b_mmod_Minimization_Converged-OPLS-2005>
0

> <r_mmod_RMS_Derivative-OPLS-2005>
0.135043650865555

$$$$
15
                    3D
 Structure written by MMmdl.
161170  0  0  1  0            999 V2000
  -30.6049  -14.7348   20.4752 C   0  0  0  0  0  0
  -30.4348  -12.4498   19.4892 C   0  0  0  0  0  0
  -29.5174  -12.5271   18.2469 C   0  0  0  0  0  0
  -28.0400  -12.3554   18.6496 C   0  0  0  0  0  0
  -27.6476  -13.2365   19.8652 C   0  0  2  0  0  0
  -28.6861  -13.1465   21.0052 C   0  0  0  0  0  0
  -25.2524  -13.8217   20.5713 C   0  0  0  0  0  0
  -24.1803  -13.0458   20.9199 C   0  0  0  0  0  0
  -24.6394  -11.6933   20.8751 C   0  0  0  0  0  0
  -23.9089  -10.4304   21.0418 C   0  0  0  0  0  0
  -24.3642   -9.4214   21.9184 C   0  0  0  0  0  0
  -23.6302   -8.2249   22.0744 C   0  0  0  0  0  0
  -22.4274   -8.0298   21.3539 C   0  0  0  0  0  0
  -21.9914   -9.0279   20.4643 C   0  0  0  0  0  0
  -22.7264  -10.2140   20.3067 C   0  0  0  0  0  0
  -21.6857   -6.0744   22.5277 C   0  0  0  0  0  0
  -21.4016   -6.5636   23.8211 C   0  0  0  0  0  0
  -21.3654   -5.6782   24.9168 C   0  0  0  0  0  0
  -21.6040   -4.3050   24.7207 C   0  0  0  0  0  0
  -21.8818   -3.8157   23.4326 C   0  0  0  0  0  0
  -21.9191   -4.6978   22.3384 C   0  0  0  0  0  0
  -22.7812  -13.5232   21.1848 C   0  0  0  0  0  0
  -22.1664   -4.2175   21.0958 F   0  0  0  0  0  0
  -21.5625   -3.4531   25.7714 F   0  0  0  0  0  0
  -29.9980  -13.4984   20.4441 N   0  0  0  0  0  0
  -26.2950  -12.9425   20.3313 N   0  0  0  0  0  0
  -25.9328  -11.6567   20.5749 N   0  0  0  0  0  0
  -22.0462  -12.8236   22.0421 N   0  0  0  0  0  0
  -25.4250  -15.1928   20.4164 N   0  0  0  0  0  0
  -31.7617  -14.8578   20.0591 O   0  0  0  0  0  0
  -21.6642   -6.8892   21.4237 O   0  0  0  0  0  0
  -22.3490  -14.5550   20.6704 O   0  0  0  0  0  0
  -24.6366  -31.8530   23.1960 C   0  0  0  0  0  0
  -25.9171  -32.4745   23.8318 C   0  0  1  0  0  0
  -27.2080  -27.2191   20.1306 C   0  0  0  0  0  0
  -25.5945  -33.8550   24.2227 N   0  0  0  0  0  0
  -23.4338  -30.4755   21.5432 C   0  0  2  0  0  0
  -24.8772  -28.9213   20.1072 C   0  0  0  0  0  0
  -22.7533  -29.4584   22.4926 C   0  0  0  0  0  0
  -18.0289  -28.1404   22.8486 C   0  0  0  0  0  0
  -24.1474  -36.7267   23.2638 C   0  0  0  0  0  0
  -25.9833  -30.7513   21.3831 C   0  0  0  0  0  0
  -26.0522  -29.3716   20.7225 C   0  0  0  0  0  0
  -27.2189  -28.5332   20.7238 C   0  0  0  0  0  0
  -26.0112  -26.8577   19.4689 C   0  0  0  0  0  0
  -24.8646  -27.6735   19.4692 C   0  0  0  0  0  0
  -23.6512  -29.8134   20.1584 C   0  0  0  0  0  0
  -25.4105  -36.3059   24.0320 C   0  0  1  0  0  0
  -20.5902  -28.3707   23.1274 C   0  0  2  0  0  0
  -20.6777  -26.9420   22.5424 C   0  0  0  0  0  0
  -19.5746  -26.6386   21.5235 C   0  0  0  0  0  0
  -18.1925  -26.7943   22.1635 C   0  0  0  0  0  0
  -19.1544  -28.8876   23.2870 C   0  0  0  0  0  0
  -18.9470  -30.1478   23.8885 C   0  0  0  0  0  0
  -17.6467  -30.6597   24.0569 C   0  0  0  0  0  0
  -25.9068  -34.9441   23.5082 C   0  0  0  0  0  0
  -16.5359  -29.9094   23.6335 C   0  0  0  0  0  0
  -16.7281  -28.6518   23.0353 C   0  0  0  0  0  0
  -26.4506  -31.6598   25.0738 C   0  0  0  0  0  0
  -25.3697  -31.3797   26.1446 C   0  0  0  0  0  0
  -27.0360  -30.2999   24.6282 C   0  0  0  0  0  0
  -27.6039  -32.4365   25.7519 C   0  0  0  0  0  0
  -27.5576  -37.1772   24.8456 C   0  0  0  0  0  0
  -21.4237  -29.3040   22.3661 N   0  0  0  0  0  0
  -26.4267  -37.3775   23.9434 N   0  0  0  0  0  0
  -24.7043  -31.0454   22.0965 N   0  0  0  0  0  0
  -23.4211  -28.8130   23.3049 O   0  0  0  0  0  0
  -28.2735  -26.2766   20.2178 O   0  0  0  0  0  0
  -26.5660  -34.8936   22.4663 O   0  0  0  0  0  0
  -23.5507  -32.1391   23.7224 O   0  0  0  0  0  0
  -28.8815  -18.0101   17.9408 C   0  0  0  0  0  0
  -29.2686  -16.9236   18.7394 C   0  0  0  0  0  0
  -29.5619  -18.4702   20.5951 C   0  0  0  0  0  0
  -28.8247  -19.3359   18.4277 C   0  0  0  0  0  0
  -29.1743  -19.6337   19.7875 C   0  0  0  0  0  0
  -29.6189  -17.0955   20.0909 C   0  0  0  0  0  0
  -28.2931  -22.0400   20.3736 C   0  0  0  0  0  0
  -28.3987  -20.3218   17.4202 C   0  0  0  0  0  0
  -30.2636  -23.2788   20.0765 C   0  0  0  0  0  0
  -30.5498  -21.7592   20.2809 C   0  0  0  0  0  0
  -28.8296  -23.5243   20.5710 C   0  0  1  0  0  0
  -28.0042  -24.7997   19.9546 C   0  0  0  0  0  0
  -29.2629  -21.0655   20.2373 N   0  0  0  0  0  0
  -29.0573  -20.4281   16.2674 N   0  0  0  0  0  0
  -29.8680  -15.8476   20.8564 N   0  0  0  0  0  0
  -27.3101  -21.0657   17.5942 N   0  3  0  0  0  0
  -27.0840  -21.7916   20.3443 O   0  0  0  0  0  0
  -31.4783  -12.5674   19.1907 H   0  0  0  0  0  0
  -30.3732  -11.4657   19.9550 H   0  0  0  0  0  0
  -29.7989  -11.7672   17.5166 H   0  0  0  0  0  0
  -29.6499  -13.4884   17.7467 H   0  0  0  0  0  0
  -27.8768  -11.3039   18.8891 H   0  0  0  0  0  0
  -27.3909  -12.5785   17.8014 H   0  0  0  0  0  0
  -27.6523  -14.2648   19.5045 H   0  0  0  0  0  0
  -28.7101  -12.1410   21.4240 H   0  0  0  0  0  0
  -28.4166  -13.8113   21.8282 H   0  0  0  0  0  0
  -25.2789   -9.5693   22.4757 H   0  0  0  0  0  0
  -24.0019   -7.4633   22.7444 H   0  0  0  0  0  0
  -21.0836   -8.8834   19.8936 H   0  0  0  0  0  0
  -22.3749  -10.9701   19.6189 H   0  0  0  0  0  0
  -21.2032   -7.6142   23.9731 H   0  0  0  0  0  0
  -21.1465   -6.0499   25.9070 H   0  0  0  0  0  0
  -22.0608   -2.7624   23.2812 H   0  0  0  0  0  0
  -22.4058  -11.9892   22.4811 H   0  0  0  0  0  0
  -21.1079  -13.1284   22.2649 H   0  0  0  0  0  0
  -24.6641  -15.8529   20.5358 H   0  0  0  0  0  0
  -26.2797  -15.6329   20.1044 H   0  0  0  0  0  0
  -26.7244  -32.5369   23.1064 H   0  0  0  0  0  0
  -25.0049  -33.9673   25.0345 H   0  0  0  0  0  0
  -22.7314  -31.2988   21.3998 H   0  0  0  0  0  0
  -23.3757  -35.9571   23.3266 H   0  0  0  0  0  0
  -24.3567  -36.8940   22.2062 H   0  0  0  0  0  0
  -23.7207  -37.6443   23.6696 H   0  0  0  0  0  0
  -26.1305  -31.5084   20.6116 H   0  0  0  0  0  0
  -26.8587  -30.7975   22.0193 H   0  0  0  0  0  0
  -28.1140  -28.8676   21.2293 H   0  0  0  0  0  0
  -25.9190  -25.9112   18.9577 H   0  0  0  0  0  0
  -23.9668  -27.3254   18.9770 H   0  0  0  0  0  0
  -23.7785  -30.5925   19.4059 H   0  0  0  0  0  0
  -22.7661  -29.2531   19.8518 H   0  0  0  0  0  0
  -25.1280  -36.1884   25.0806 H   0  0  0  0  0  0
  -20.9984  -28.3294   24.1400 H   0  0  0  0  0  0
  -20.5690  -26.2320   23.3636 H   0  0  0  0  0  0
  -21.6644  -26.7445   22.1214 H   0  0  0  0  0  0
  -19.6898  -25.6295   21.1272 H   0  0  0  0  0  0
  -19.6674  -27.3194   20.6763 H   0  0  0  0  0  0
  -17.4196  -26.6703   21.4034 H   0  0  0  0  0  0
  -18.0297  -26.0098   22.9037 H   0  0  0  0  0  0
  -19.7952  -30.7301   24.2242 H   0  0  0  0  0  0
  -17.5027  -31.6277   24.5175 H   0  0  0  0  0  0
  -15.5362  -30.2991   23.7672 H   0  0  0  0  0  0
  -15.8681  -28.0838   22.7066 H   0  0  0  0  0  0
  -24.5837  -30.7187   25.7778 H   0  0  0  0  0  0
  -24.8925  -32.2993   26.4846 H   0  0  0  0  0  0
  -25.7974  -30.8979   27.0247 H   0  0  0  0  0  0
  -26.2971  -29.6752   24.1251 H   0  0  0  0  0  0
  -27.3954  -29.7274   25.4846 H   0  0  0  0  0  0
  -27.8885  -30.4257   23.9602 H   0  0  0  0  0  0
  -27.2610  -33.3662   26.2081 H   0  0  0  0  0  0
  -28.3843  -32.6952   25.0347 H   0  0  0  0  0  0
  -28.0715  -31.8519   26.5456 H   0  0  0  0  0  0
  -28.2553  -38.0108   24.7572 H   0  0  0  0  0  0
  -28.1109  -36.2651   24.6172 H   0  0  0  0  0  0
  -27.2319  -37.1308   25.8861 H   0  0  0  0  0  0
  -20.9439  -29.8745   21.6838 H   0  0  0  0  0  0
  -26.0133  -38.2829   24.1492 H   0  0  0  0  0  0
  -28.5976  -17.8048   16.9167 H   0  0  0  0  0  0
  -29.2473  -15.9366   18.2993 H   0  0  0  0  0  0
  -29.8292  -18.6393   21.6285 H   0  0  0  0  0  0
  -30.3298  -23.5218   19.0145 H   0  0  0  0  0  0
  -30.9936  -23.9005   20.5973 H   0  0  0  0  0  0
  -31.0051  -21.5808   21.2568 H   0  0  0  0  0  0
  -31.2347  -21.3759   19.5231 H   0  0  0  0  0  0
  -28.8632  -23.6592   21.6526 H   0  0  0  0  0  0
  -26.9867  -24.6024   20.2921 H   0  0  0  0  0  0
  -27.9801  -24.6778   18.8705 H   0  0  0  0  0  0
  -29.8846  -19.8677   16.1210 H   0  0  0  0  0  0
  -28.7936  -21.0737   15.5406 H   0  0  0  0  0  0
  -29.1211  -15.6240   21.4968 H   0  0  0  0  0  0
  -26.8572  -21.0594   18.5040 H   0  0  0  0  0  0
  -26.8914  -21.6036   16.8533 H   0  0  0  0  0  0
  1 25  1  0  0  0
  1 30  2  0  0  0
  1 85  1  0  0  0
  2  3  1  0  0  0
  2 25  1  0  0  0
  2 88  1  0  0  0
  2 89  1  0  0  0
  3  4  1  0  0  0
  3 90  1  0  0  0
  3 91  1  0  0  0
  4  5  1  0  0  0
  4 92  1  0  0  0
  4 93  1  0  0  0
  5  6  1  0  0  0
  5 26  1  0  0  0
  5 94  1  0  0  0
  6 25  1  0  0  0
  6 95  1  0  0  0
  6 96  1  0  0  0
  7  8  2  0  0  0
  7 26  1  0  0  0
  7 29  1  0  0  0
  8  9  1  0  0  0
  8 22  1  0  0  0
  9 10  1  0  0  0
  9 27  2  0  0  0
 10 11  2  0  0  0
 10 15  1  0  0  0
 11 12  1  0  0  0
 11 97  1  0  0  0
 12 13  2  0  0  0
 12 98  1  0  0  0
 13 14  1  0  0  0
 13 31  1  0  0  0
 14 15  2  0  0  0
 14 99  1  0  0  0
 15100  1  0  0  0
 16 17  2  0  0  0
 16 21  1  0  0  0
 16 31  1  0  0  0
 17 18  1  0  0  0
 17101  1  0  0  0
 18 19  2  0  0  0
 18102  1  0  0  0
 19 20  1  0  0  0
 19 24  1  0  0  0
 20 21  2  0  0  0
 20103  1  0  0  0
 21 23  1  0  0  0
 22 28  1  0  0  0
 22 32  2  0  0  0
 26 27  1  0  0  0
 28104  1  0  0  0
 28105  1  0  0  0
 29106  1  0  0  0
 29107  1  0  0  0
 33 34  1  0  0  0
 33 66  1  0  0  0
 33 70  2  0  0  0
 34 36  1  0  0  0
 34 59  1  0  0  0
 34108  1  0  0  0
 35 44  2  0  0  0
 35 45  1  0  0  0
 35 68  1  0  0  0
 36 56  1  0  0  0
 36109  1  0  0  0
 37 39  1  0  0  0
 37 47  1  0  0  0
 37 66  1  0  0  0
 37110  1  0  0  0
 38 43  2  0  0  0
 38 46  1  0  0  0
 38 47  1  0  0  0
 39 64  1  0  0  0
 39 67  2  0  0  0
 40 52  1  0  0  0
 40 53  2  0  0  0
 40 58  1  0  0  0
 41111  1  0  0  0
 41112  1  0  0  0
 41113  1  0  0  0
 41 48  1  0  0  0
 42 43  1  0  0  0
 42 66  1  0  0  0
 42114  1  0  0  0
 42115  1  0  0  0
 43 44  1  0  0  0
 44116  1  0  0  0
 45 46  2  0  0  0
 45117  1  0  0  0
 46118  1  0  0  0
 47119  1  0  0  0
 47120  1  0  0  0
 48 56  1  0  0  0
 48 65  1  0  0  0
 48121  1  0  0  0
 49 50  1  0  0  0
 49 53  1  0  0  0
 49 64  1  0  0  0
 49122  1  0  0  0
 50 51  1  0  0  0
 50123  1  0  0  0
 50124  1  0  0  0
 51 52  1  0  0  0
 51125  1  0  0  0
 51126  1  0  0  0
 52127  1  0  0  0
 52128  1  0  0  0
 53 54  1  0  0  0
 54 55  2  0  0  0
 54129  1  0  0  0
 55 57  1  0  0  0
 55130  1  0  0  0
 56 69  2  0  0  0
 57 58  2  0  0  0
 57131  1  0  0  0
 58132  1  0  0  0
 59 60  1  0  0  0
 59 61  1  0  0  0
 59 62  1  0  0  0
 60133  1  0  0  0
 60134  1  0  0  0
 60135  1  0  0  0
 61136  1  0  0  0
 61137  1  0  0  0
 61138  1  0  0  0
 62139  1  0  0  0
 62140  1  0  0  0
 62141  1  0  0  0
 63 65  1  0  0  0
 63142  1  0  0  0
 63143  1  0  0  0
 63144  1  0  0  0
 64145  1  0  0  0
 65146  1  0  0  0
 68 82  1  0  0  0
 71 72  2  0  0  0
 71 74  1  0  0  0
 71147  1  0  0  0
 72 76  1  0  0  0
 72148  1  0  0  0
 73 75  1  0  0  0
 73 76  2  0  0  0
 73149  1  0  0  0
 74 75  2  0  0  0
 74 78  1  0  0  0
 75 83  1  0  0  0
 76 85  1  0  0  0
 77 81  1  0  0  0
 77 83  1  0  0  0
 77 87  2  0  0  0
 78 84  1  0  0  0
 78 86  2  0  0  0
 79 80  1  0  0  0
 79 81  1  0  0  0
 79150  1  0  0  0
 79151  1  0  0  0
 80 83  1  0  0  0
 80152  1  0  0  0
 80153  1  0  0  0
 81 82  1  0  0  0
 81154  1  0  0  0
 82155  1  0  0  0
 82156  1  0  0  0
 84157  1  0  0  0
 84158  1  0  0  0
 85159  1  0  0  0
 86160  1  0  0  0
 86161  1  0  0  0
M  CHG  1  86   1
M  ISO  4   1 100  68 101  82 101  85 100
M  END
> <chiral flag>
0

> <version>
0

> <s_m_source_file>
/data/baiqing/PycharmProjects/Reinvent-master-3.2/result/LINK_invent/BTK/process_docking_weight1_custom_product_contain_oxygen_bond_distance_aromatic_linkinvent_7_9_3/rearranged_h_0072.sdf

> <i_m_source_file_index>
16

> <r_mmod_Potential_Energy-OPLS-2005>
117.944526672363

> <r_mmod_Stretch_Energy-OPLS-2005>
142.559234619141

> <r_mmod_Bend_Energy-OPLS-2005>
209.821212768555

> <r_mmod_Torsional_Energy-OPLS-2005>
336.643402099609

> <r_mmod_Improper_Torsional_Energy-OPLS-2005>
7.07531356811523

> <r_mmod_Van_der_Waal_Energy-OPLS-2005>
139.692321777344

> <r_mmod_Electrostatic_Energy-OPLS-2005>
-368.174407958984

> <r_mmod_Solvation_Energy-OPLS-2005>
-447.225769042969

> <b_mmod_Minimization_Converged-OPLS-2005>
0

> <r_mmod_RMS_Derivative-OPLS-2005>
2.58648085594177

$$$$
16
                    3D
 Structure written by MMmdl.
165174  0  0  1  0            999 V2000
  -30.6282  -14.6321   20.4977 C   0  0  0  0  0  0
  -30.4383  -12.3880   19.4504 C   0  0  0  0  0  0
  -29.5083  -12.5088   18.2228 C   0  0  0  0  0  0
  -28.0303  -12.3490   18.6334 C   0  0  0  0  0  0
  -27.6545  -13.2172   19.8638 C   0  0  2  0  0  0
  -28.6994  -13.0684   20.9928 C   0  0  0  0  0  0
  -25.2569  -13.8172   20.5648 C   0  0  0  0  0  0
  -24.1845  -13.0451   20.9205 C   0  0  0  0  0  0
  -24.6405  -11.6918   20.8758 C   0  0  0  0  0  0
  -23.9067  -10.4305   21.0417 C   0  0  0  0  0  0
  -24.3618   -9.4215   21.9192 C   0  0  0  0  0  0
  -23.6295   -8.2249   22.0758 C   0  0  0  0  0  0
  -22.4275   -8.0289   21.3547 C   0  0  0  0  0  0
  -21.9909   -9.0267   20.4654 C   0  0  0  0  0  0
  -22.7236  -10.2148   20.3068 C   0  0  0  0  0  0
  -21.6858   -6.0733   22.5275 C   0  0  0  0  0  0
  -21.4017   -6.5636   23.8206 C   0  0  0  0  0  0
  -21.3662   -5.6792   24.9170 C   0  0  0  0  0  0
  -21.6044   -4.3055   24.7223 C   0  0  0  0  0  0
  -21.8821   -3.8144   23.4345 C   0  0  0  0  0  0
  -21.9196   -4.6961   22.3400 C   0  0  0  0  0  0
  -22.7874  -13.5264   21.1852 C   0  0  0  0  0  0
  -22.1664   -4.2144   21.0978 F   0  0  0  0  0  0
  -21.5628   -3.4538   25.7736 F   0  0  0  0  0  0
  -30.0168  -13.4081   20.4300 N   0  0  0  0  0  0
  -26.3003  -12.9353   20.3323 N   0  0  0  0  0  0
  -25.9336  -11.6513   20.5779 N   0  0  0  0  0  0
  -22.0500  -12.8265   22.0404 N   0  0  0  0  0  0
  -25.4253  -15.1874   20.3906 N   0  0  0  0  0  0
  -31.7894  -14.7910   20.1119 O   0  0  0  0  0  0
  -21.6648   -6.8877   21.4236 O   0  0  0  0  0  0
  -22.3587  -14.5577   20.6693 O   0  0  0  0  0  0
  -24.6248  -31.8610   23.2044 C   0  0  0  0  0  0
  -25.9104  -32.4782   23.8366 C   0  0  1  0  0  0
  -27.2240  -27.3290   20.1170 C   0  0  0  0  0  0
  -25.5924  -33.8582   24.2294 N   0  0  0  0  0  0
  -23.4179  -30.4853   21.5468 C   0  0  2  0  0  0
  -24.8646  -28.9419   20.1141 C   0  0  0  0  0  0
  -22.7466  -29.4629   22.4944 C   0  0  0  0  0  0
  -18.0284  -28.1382   22.8483 C   0  0  0  0  0  0
  -24.1489  -36.7299   23.2638 C   0  0  0  0  0  0
  -25.9586  -30.7941   21.3756 C   0  0  0  0  0  0
  -26.0332  -29.4221   20.7187 C   0  0  0  0  0  0
  -27.2170  -28.6274   20.7108 C   0  0  0  0  0  0
  -26.0361  -26.9050   19.4792 C   0  0  0  0  0  0
  -24.8674  -27.6878   19.4860 C   0  0  0  0  0  0
  -23.6323  -29.8207   20.1621 C   0  0  0  0  0  0
  -25.4111  -36.3086   24.0330 C   0  0  1  0  0  0
  -20.5883  -28.3684   23.1283 C   0  0  2  0  0  0
  -20.6775  -26.9407   22.5410 C   0  0  0  0  0  0
  -19.5754  -26.6382   21.5207 C   0  0  0  0  0  0
  -18.1931  -26.7925   22.1619 C   0  0  0  0  0  0
  -19.1536  -28.8849   23.2879 C   0  0  0  0  0  0
  -18.9462  -30.1453   23.8894 C   0  0  0  0  0  0
  -17.6462  -30.6585   24.0562 C   0  0  0  0  0  0
  -25.9045  -34.9452   23.5112 C   0  0  0  0  0  0
  -16.5353  -29.9083   23.6328 C   0  0  0  0  0  0
  -16.7272  -28.6501   23.0347 C   0  0  0  0  0  0
  -26.4493  -31.6586   25.0733 C   0  0  0  0  0  0
  -25.3731  -31.3725   26.1465 C   0  0  0  0  0  0
  -27.0332  -30.3008   24.6183 C   0  0  0  0  0  0
  -27.6057  -32.4316   25.7500 C   0  0  0  0  0  0
  -27.5578  -37.1805   24.8463 C   0  0  0  0  0  0
  -21.4182  -29.3043   22.3682 N   0  0  0  0  0  0
  -26.4293  -37.3777   23.9402 N   0  0  0  0  0  0
  -24.6856  -31.0631   22.0992 N   0  0  0  0  0  0
  -23.4194  -28.8162   23.3016 O   0  0  0  0  0  0
  -28.3453  -26.4884   20.1351 O   0  0  0  0  0  0
  -26.5614  -34.8915   22.4678 O   0  0  0  0  0  0
  -23.5415  -32.1405   23.7378 O   0  0  0  0  0  0
  -30.9089  -19.2009   19.7660 C   0  0  0  0  0  0
  -30.8725  -17.7830   19.8882 C   0  0  0  0  0  0
  -29.0479  -19.4077   21.2689 C   0  0  0  0  0  0
  -30.0259  -20.0669   20.4781 C   0  0  0  0  0  0
  -29.9309  -17.1295   20.7227 C   0  0  0  0  0  0
  -28.9975  -17.9782   21.3922 C   0  0  0  0  0  0
  -31.4047  -22.1025   20.5844 C   0  0  0  0  0  0
  -26.1007  -16.6579   23.4240 C   0  0  0  0  0  0
  -26.7830  -17.6978   22.5030 C   0  0  0  0  0  0
  -31.5700  -23.6360   20.4951 C   0  0  0  0  0  0
  -28.9867  -22.4752   20.5022 C   0  0  0  0  0  0
  -29.2684  -24.0084   20.1615 C   0  0  1  0  0  0
  -24.5915  -16.7741   23.5902 C   0  0  0  0  0  0
  -28.1281  -25.0644   20.4846 C   0  0  0  0  0  0
  -30.1682  -21.5406   20.4422 N   0  0  0  0  0  0
  -28.0537  -17.3509   22.2485 N   0  0  0  0  0  0
  -29.8235  -15.6742   20.8713 N   0  0  0  0  0  0
  -32.4333  -21.4439   20.7784 O   0  0  0  0  0  0
  -26.7340  -15.7595   23.9936 O   0  0  0  0  0  0
  -26.2036  -18.6990   22.0666 O   0  0  0  0  0  0
  -30.4120  -24.3510   20.9222 O   0  0  0  0  0  0
  -31.4802  -12.5103   19.1485 H   0  0  0  0  0  0
  -30.3701  -11.3922   19.8902 H   0  0  0  0  0  0
  -29.7714  -11.7589   17.4754 H   0  0  0  0  0  0
  -29.6534  -13.4796   17.7456 H   0  0  0  0  0  0
  -27.8636  -11.2956   18.8611 H   0  0  0  0  0  0
  -27.3775  -12.5847   17.7922 H   0  0  0  0  0  0
  -27.6736  -14.2533   19.5257 H   0  0  0  0  0  0
  -28.7087  -12.0464   21.3741 H   0  0  0  0  0  0
  -28.4445  -13.6989   21.8462 H   0  0  0  0  0  0
  -25.2763   -9.5696   22.4766 H   0  0  0  0  0  0
  -24.0010   -7.4638   22.7470 H   0  0  0  0  0  0
  -21.0843   -8.8788   19.8955 H   0  0  0  0  0  0
  -22.3694  -10.9690   19.6182 H   0  0  0  0  0  0
  -21.2009   -7.6145   23.9707 H   0  0  0  0  0  0
  -21.1481   -6.0522   25.9072 H   0  0  0  0  0  0
  -22.0598   -2.7606   23.2846 H   0  0  0  0  0  0
  -22.4094  -11.9921   22.4801 H   0  0  0  0  0  0
  -21.1115  -13.1297   22.2574 H   0  0  0  0  0  0
  -24.6026  -15.7775   20.3367 H   0  0  0  0  0  0
  -26.2070  -15.5644   19.8709 H   0  0  0  0  0  0
  -26.7169  -32.5456   23.1111 H   0  0  0  0  0  0
  -25.0065  -33.9728   25.0436 H   0  0  0  0  0  0
  -22.7112  -31.3057   21.4050 H   0  0  0  0  0  0
  -23.3742  -35.9641   23.3314 H   0  0  0  0  0  0
  -24.3581  -36.8906   22.2051 H   0  0  0  0  0  0
  -23.7255  -37.6511   23.6653 H   0  0  0  0  0  0
  -26.0895  -31.5578   20.6078 H   0  0  0  0  0  0
  -26.8393  -30.8424   22.0042 H   0  0  0  0  0  0
  -28.1146  -28.9925   21.1902 H   0  0  0  0  0  0
  -25.9893  -25.9615   18.9573 H   0  0  0  0  0  0
  -23.9747  -27.3191   18.9998 H   0  0  0  0  0  0
  -23.7518  -30.5975   19.4063 H   0  0  0  0  0  0
  -22.7528  -29.2499   19.8590 H   0  0  0  0  0  0
  -25.1290  -36.1942   25.0823 H   0  0  0  0  0  0
  -20.9973  -28.3260   24.1404 H   0  0  0  0  0  0
  -20.5672  -26.2291   23.3608 H   0  0  0  0  0  0
  -21.6647  -26.7439   22.1207 H   0  0  0  0  0  0
  -19.6918  -25.6292   21.1239 H   0  0  0  0  0  0
  -19.6692  -27.3188   20.6732 H   0  0  0  0  0  0
  -17.4200  -26.6666   21.4022 H   0  0  0  0  0  0
  -18.0339  -26.0066   22.9015 H   0  0  0  0  0  0
  -19.7938  -30.7268   24.2260 H   0  0  0  0  0  0
  -17.5019  -31.6262   24.5168 H   0  0  0  0  0  0
  -15.5356  -30.2986   23.7652 H   0  0  0  0  0  0
  -15.8672  -28.0821   22.7062 H   0  0  0  0  0  0
  -24.5899  -30.7079   25.7801 H   0  0  0  0  0  0
  -24.8928  -32.2892   26.4896 H   0  0  0  0  0  0
  -25.8060  -30.8902   27.0238 H   0  0  0  0  0  0
  -26.2904  -29.6762   24.1206 H   0  0  0  0  0  0
  -27.4026  -29.7258   25.4684 H   0  0  0  0  0  0
  -27.8776  -30.4289   23.9406 H   0  0  0  0  0  0
  -27.2670  -33.3610   26.2088 H   0  0  0  0  0  0
  -28.3861  -32.6885   25.0326 H   0  0  0  0  0  0
  -28.0733  -31.8436   26.5407 H   0  0  0  0  0  0
  -28.2602  -38.0095   24.7496 H   0  0  0  0  0  0
  -28.1067  -36.2625   24.6305 H   0  0  0  0  0  0
  -27.2298  -37.1479   25.8868 H   0  0  0  0  0  0
  -20.9356  -29.8768   21.6897 H   0  0  0  0  0  0
  -26.0176  -38.2854   24.1395 H   0  0  0  0  0  0
  -31.6647  -19.6266   19.1203 H   0  0  0  0  0  0
  -31.5879  -17.2056   19.3205 H   0  0  0  0  0  0
  -28.3581  -20.0149   21.8365 H   0  0  0  0  0  0
  -31.8255  -23.9075   19.4699 H   0  0  0  0  0  0
  -32.4107  -23.9427   21.1180 H   0  0  0  0  0  0
  -28.2066  -22.0972   19.8410 H   0  0  0  0  0  0
  -28.5817  -22.4162   21.5128 H   0  0  0  0  0  0
  -29.5003  -24.0975   19.0979 H   0  0  0  0  0  0
  -24.1077  -16.7710   22.6140 H   0  0  0  0  0  0
  -24.3414  -17.7045   24.0988 H   0  0  0  0  0  0
  -24.2053  -15.9385   24.1727 H   0  0  0  0  0  0
  -27.9149  -25.0259   21.5534 H   0  0  0  0  0  0
  -27.2348  -24.6735   20.0046 H   0  0  0  0  0  0
  -28.3247  -16.4806   22.6867 H   0  0  0  0  0  0
  -28.9312  -15.3572   21.2122 H   0  0  0  0  0  0
  1 25  1  0  0  0
  1 30  2  0  0  0
  1 87  1  0  0  0
  2  3  1  0  0  0
  2 25  1  0  0  0
  2 92  1  0  0  0
  2 93  1  0  0  0
  3  4  1  0  0  0
  3 94  1  0  0  0
  3 95  1  0  0  0
  4  5  1  0  0  0
  4 96  1  0  0  0
  4 97  1  0  0  0
  5  6  1  0  0  0
  5 26  1  0  0  0
  5 98  1  0  0  0
  6 25  1  0  0  0
  6 99  1  0  0  0
  6100  1  0  0  0
  7  8  2  0  0  0
  7 26  1  0  0  0
  7 29  1  0  0  0
  8  9  1  0  0  0
  8 22  1  0  0  0
  9 10  1  0  0  0
  9 27  2  0  0  0
 10 11  2  0  0  0
 10 15  1  0  0  0
 11 12  1  0  0  0
 11101  1  0  0  0
 12 13  2  0  0  0
 12102  1  0  0  0
 13 14  1  0  0  0
 13 31  1  0  0  0
 14 15  2  0  0  0
 14103  1  0  0  0
 15104  1  0  0  0
 16 17  2  0  0  0
 16 21  1  0  0  0
 16 31  1  0  0  0
 17 18  1  0  0  0
 17105  1  0  0  0
 18 19  2  0  0  0
 18106  1  0  0  0
 19 20  1  0  0  0
 19 24  1  0  0  0
 20 21  2  0  0  0
 20107  1  0  0  0
 21 23  1  0  0  0
 22 28  1  0  0  0
 22 32  2  0  0  0
 26 27  1  0  0  0
 28108  1  0  0  0
 28109  1  0  0  0
 29110  1  0  0  0
 29111  1  0  0  0
 33 34  1  0  0  0
 33 66  1  0  0  0
 33 70  2  0  0  0
 34 36  1  0  0  0
 34 59  1  0  0  0
 34112  1  0  0  0
 35 44  2  0  0  0
 35 45  1  0  0  0
 35 68  1  0  0  0
 36 56  1  0  0  0
 36113  1  0  0  0
 37 39  1  0  0  0
 37 47  1  0  0  0
 37 66  1  0  0  0
 37114  1  0  0  0
 38 43  2  0  0  0
 38 46  1  0  0  0
 38 47  1  0  0  0
 39 64  1  0  0  0
 39 67  2  0  0  0
 40 52  1  0  0  0
 40 53  2  0  0  0
 40 58  1  0  0  0
 41115  1  0  0  0
 41116  1  0  0  0
 41117  1  0  0  0
 41 48  1  0  0  0
 42 43  1  0  0  0
 42 66  1  0  0  0
 42118  1  0  0  0
 42119  1  0  0  0
 43 44  1  0  0  0
 44120  1  0  0  0
 45 46  2  0  0  0
 45121  1  0  0  0
 46122  1  0  0  0
 47123  1  0  0  0
 47124  1  0  0  0
 48 56  1  0  0  0
 48 65  1  0  0  0
 48125  1  0  0  0
 49 50  1  0  0  0
 49 53  1  0  0  0
 49 64  1  0  0  0
 49126  1  0  0  0
 50 51  1  0  0  0
 50127  1  0  0  0
 50128  1  0  0  0
 51 52  1  0  0  0
 51129  1  0  0  0
 51130  1  0  0  0
 52131  1  0  0  0
 52132  1  0  0  0
 53 54  1  0  0  0
 54 55  2  0  0  0
 54133  1  0  0  0
 55 57  1  0  0  0
 55134  1  0  0  0
 56 69  2  0  0  0
 57 58  2  0  0  0
 57135  1  0  0  0
 58136  1  0  0  0
 59 60  1  0  0  0
 59 61  1  0  0  0
 59 62  1  0  0  0
 60137  1  0  0  0
 60138  1  0  0  0
 60139  1  0  0  0
 61140  1  0  0  0
 61141  1  0  0  0
 61142  1  0  0  0
 62143  1  0  0  0
 62144  1  0  0  0
 62145  1  0  0  0
 63 65  1  0  0  0
 63146  1  0  0  0
 63147  1  0  0  0
 63148  1  0  0  0
 64149  1  0  0  0
 65150  1  0  0  0
 68 84  1  0  0  0
 71 72  2  0  0  0
 71 74  1  0  0  0
 71151  1  0  0  0
 72 75  1  0  0  0
 72152  1  0  0  0
 73 74  2  0  0  0
 73 76  1  0  0  0
 73153  1  0  0  0
 74 85  1  0  0  0
 75 76  2  0  0  0
 75 87  1  0  0  0
 76 86  1  0  0  0
 77 80  1  0  0  0
 77 85  1  0  0  0
 77 88  2  0  0  0
 78 79  1  0  0  0
 78 83  1  0  0  0
 78 89  2  0  0  0
 79 86  1  0  0  0
 79 90  2  0  0  0
 80 91  1  0  0  0
 80154  1  0  0  0
 80155  1  0  0  0
 81 82  1  0  0  0
 81 85  1  0  0  0
 81156  1  0  0  0
 81157  1  0  0  0
 82 84  1  0  0  0
 82 91  1  0  0  0
 82158  1  0  0  0
 83159  1  0  0  0
 83160  1  0  0  0
 83161  1  0  0  0
 84162  1  0  0  0
 84163  1  0  0  0
 86164  1  0  0  0
 87165  1  0  0  0
M  ISO  4   1 100  68 101  84 101  87 100
M  END
> <chiral flag>
0

> <version>
0

> <s_m_source_file>
/data/baiqing/PycharmProjects/Reinvent-master-3.2/result/LINK_invent/BTK/process_docking_weight1_custom_product_contain_oxygen_bond_distance_aromatic_linkinvent_7_9_3/rearranged_h_0072.sdf

> <i_m_source_file_index>
17

> <r_mmod_Potential_Energy-OPLS-2005>
76.2607650756836

> <r_mmod_Stretch_Energy-OPLS-2005>
86.8244552612305

> <r_mmod_Bend_Energy-OPLS-2005>
138.204727172852

> <r_mmod_Torsional_Energy-OPLS-2005>
289.99951171875

> <r_mmod_Improper_Torsional_Energy-OPLS-2005>
6.59180927276611

> <r_mmod_Van_der_Waal_Energy-OPLS-2005>
157.742462158203

> <r_mmod_Electrostatic_Energy-OPLS-2005>
-398.873229980469

> <r_mmod_Solvation_Energy-OPLS-2005>
-248.58642578125

> <b_mmod_Minimization_Converged-OPLS-2005>
0

> <r_mmod_RMS_Derivative-OPLS-2005>
0.744328618049622

$$$$
17
                    3D
 Structure written by MMmdl.
160169  0  0  1  0            999 V2000
  -30.6054  -14.7495   20.4663 C   0  0  0  0  0  0
  -30.4358  -12.4557   19.4951 C   0  0  0  0  0  0
  -29.5227  -12.5258   18.2502 C   0  0  0  0  0  0
  -28.0450  -12.3502   18.6509 C   0  0  0  0  0  0
  -27.6479  -13.2379   19.8613 C   0  0  2  0  0  0
  -28.6865  -13.1597   21.0023 C   0  0  0  0  0  0
  -25.2521  -13.8212   20.5700 C   0  0  0  0  0  0
  -24.1806  -13.0449   20.9181 C   0  0  0  0  0  0
  -24.6404  -11.6932   20.8720 C   0  0  0  0  0  0
  -23.9090  -10.4303   21.0397 C   0  0  0  0  0  0
  -24.3636   -9.4216   21.9175 C   0  0  0  0  0  0
  -23.6303   -8.2258   22.0756 C   0  0  0  0  0  0
  -22.4280   -8.0292   21.3556 C   0  0  0  0  0  0
  -21.9912   -9.0268   20.4656 C   0  0  0  0  0  0
  -22.7256  -10.2138   20.3058 C   0  0  0  0  0  0
  -21.6853   -6.0739   22.5281 C   0  0  0  0  0  0
  -21.4015   -6.5636   23.8215 C   0  0  0  0  0  0
  -21.3664   -5.6781   24.9173 C   0  0  0  0  0  0
  -21.6054   -4.3049   24.7215 C   0  0  0  0  0  0
  -21.8817   -3.8149   23.4331 C   0  0  0  0  0  0
  -21.9189   -4.6972   22.3389 C   0  0  0  0  0  0
  -22.7823  -13.5232   21.1851 C   0  0  0  0  0  0
  -22.1660   -4.2162   21.0968 F   0  0  0  0  0  0
  -21.5633   -3.4530   25.7726 F   0  0  0  0  0  0
  -29.9974  -13.5117   20.4400 N   0  0  0  0  0  0
  -26.2966  -12.9433   20.3309 N   0  0  0  0  0  0
  -25.9344  -11.6568   20.5739 N   0  0  0  0  0  0
  -22.0461  -12.8235   22.0413 N   0  0  0  0  0  0
  -25.4214  -15.1932   20.4149 N   0  0  0  0  0  0
  -31.7619  -14.8683   20.0518 O   0  0  0  0  0  0
  -21.6648   -6.8886   21.4245 O   0  0  0  0  0  0
  -22.3512  -14.5549   20.6712 O   0  0  0  0  0  0
  -24.6325  -31.8535   23.1981 C   0  0  0  0  0  0
  -25.9141  -32.4748   23.8324 C   0  0  1  0  0  0
  -27.2170  -27.2363   20.1305 C   0  0  0  0  0  0
  -25.5932  -33.8548   24.2246 N   0  0  0  0  0  0
  -23.4308  -30.4762   21.5425 C   0  0  2  0  0  0
  -24.8807  -28.9271   20.1063 C   0  0  0  0  0  0
  -22.7511  -29.4583   22.4901 C   0  0  0  0  0  0
  -18.0289  -28.1397   22.8477 C   0  0  0  0  0  0
  -24.1484  -36.7265   23.2641 C   0  0  0  0  0  0
  -25.9801  -30.7573   21.3859 C   0  0  0  0  0  0
  -26.0526  -29.3800   20.7246 C   0  0  0  0  0  0
  -27.2218  -28.5467   20.7281 C   0  0  0  0  0  0
  -26.0276  -26.8762   19.4543 C   0  0  0  0  0  0
  -24.8756  -27.6852   19.4583 C   0  0  0  0  0  0
  -23.6507  -29.8139   20.1574 C   0  0  0  0  0  0
  -25.4114  -36.3058   24.0323 C   0  0  1  0  0  0
  -20.5898  -28.3703   23.1266 C   0  0  2  0  0  0
  -20.6778  -26.9411   22.5416 C   0  0  0  0  0  0
  -19.5754  -26.6382   21.5219 C   0  0  0  0  0  0
  -18.1935  -26.7940   22.1625 C   0  0  0  0  0  0
  -19.1544  -28.8871   23.2869 C   0  0  0  0  0  0
  -18.9468  -30.1472   23.8890 C   0  0  0  0  0  0
  -17.6464  -30.6594   24.0567 C   0  0  0  0  0  0
  -25.9058  -34.9432   23.5089 C   0  0  0  0  0  0
  -16.5356  -29.9086   23.6338 C   0  0  0  0  0  0
  -16.7276  -28.6511   23.0348 C   0  0  0  0  0  0
  -26.4509  -31.6582   25.0718 C   0  0  0  0  0  0
  -25.3711  -31.3756   26.1421 C   0  0  0  0  0  0
  -27.0360  -30.2986   24.6241 C   0  0  0  0  0  0
  -27.6057  -32.4331   25.7490 C   0  0  0  0  0  0
  -27.5578  -37.1781   24.8459 C   0  0  0  0  0  0
  -21.4218  -29.3036   22.3645 N   0  0  0  0  0  0
  -26.4286  -37.3763   23.9411 N   0  0  0  0  0  0
  -24.7003  -31.0469   22.0981 N   0  0  0  0  0  0
  -23.4196  -28.8115   23.3002 O   0  0  0  0  0  0
  -28.2895  -26.3044   20.2272 O   0  0  0  0  0  0
  -26.5635  -34.8919   22.4659 O   0  0  0  0  0  0
  -23.5473  -32.1371   23.7262 O   0  0  0  0  0  0
  -28.8084  -18.0779   18.0044 C   0  0  0  0  0  0
  -29.2202  -16.9773   18.7723 C   0  0  0  0  0  0
  -29.6151  -18.5001   20.6311 C   0  0  0  0  0  0
  -28.7823  -19.3990   18.5114 C   0  0  0  0  0  0
  -29.2061  -19.6748   19.8518 C   0  0  0  0  0  0
  -29.6280  -17.1295   20.1098 C   0  0  0  0  0  0
  -28.2913  -22.0837   20.3630 C   0  0  0  0  0  0
  -28.3726  -20.4489   17.5332 C   0  0  0  0  0  0
  -30.2919  -23.3140   20.2931 C   0  0  0  0  0  0
  -30.5462  -21.7881   20.5136 C   0  0  0  0  0  0
  -28.8143  -23.5608   20.6287 C   0  0  1  0  0  0
  -27.0608  -20.2040   16.7973 C   0  0  0  0  0  0
  -28.0497  -24.8312   19.9385 C   0  0  0  0  0  0
  -29.2679  -21.1028   20.3239 N   0  0  0  0  0  0
  -29.8735  -15.8663   20.8551 N   0  0  0  0  0  0
  -27.0867  -21.8546   20.2257 O   0  0  0  0  0  0
  -29.0093  -21.4848   17.3204 O   0  0  0  0  0  0
  -31.4819  -12.5675   19.2040 H   0  0  0  0  0  0
  -30.3661  -11.4751   19.9678 H   0  0  0  0  0  0
  -29.8094  -11.7608   17.5268 H   0  0  0  0  0  0
  -29.6560  -13.4853   17.7487 H   0  0  0  0  0  0
  -27.8923  -11.2982   18.8954 H   0  0  0  0  0  0
  -27.3978  -12.5635   17.7996 H   0  0  0  0  0  0
  -27.6462  -14.2648   19.4938 H   0  0  0  0  0  0
  -28.7117  -12.1583   21.4342 H   0  0  0  0  0  0
  -28.4139  -13.8318   21.8175 H   0  0  0  0  0  0
  -25.2777   -9.5693   22.4755 H   0  0  0  0  0  0
  -24.0008   -7.4647   22.7470 H   0  0  0  0  0  0
  -21.0841   -8.8802   19.8956 H   0  0  0  0  0  0
  -22.3720  -10.9682   19.6175 H   0  0  0  0  0  0
  -21.2014   -7.6141   23.9717 H   0  0  0  0  0  0
  -21.1492   -6.0515   25.9078 H   0  0  0  0  0  0
  -22.0595   -2.7612   23.2826 H   0  0  0  0  0  0
  -22.4050  -11.9880   22.4800 H   0  0  0  0  0  0
  -21.1101  -13.1307   22.2641 H   0  0  0  0  0  0
  -24.6546  -15.8468   20.5290 H   0  0  0  0  0  0
  -26.2790  -15.6390   20.1159 H   0  0  0  0  0  0
  -26.7192  -32.5399   23.1051 H   0  0  0  0  0  0
  -25.0057  -33.9679   25.0379 H   0  0  0  0  0  0
  -22.7285  -31.2996   21.3972 H   0  0  0  0  0  0
  -23.3761  -35.9579   23.3293 H   0  0  0  0  0  0
  -24.3582  -36.8903   22.2060 H   0  0  0  0  0  0
  -23.7224  -37.6454   23.6679 H   0  0  0  0  0  0
  -26.1248  -31.5191   20.6191 H   0  0  0  0  0  0
  -26.8554  -30.8042   22.0214 H   0  0  0  0  0  0
  -28.1138  -28.8832   21.2381 H   0  0  0  0  0  0
  -25.9480  -25.9402   18.9237 H   0  0  0  0  0  0
  -23.9827  -27.3404   18.9558 H   0  0  0  0  0  0
  -23.7737  -30.5917   19.4030 H   0  0  0  0  0  0
  -22.7695  -29.2460   19.8530 H   0  0  0  0  0  0
  -25.1298  -36.1903   25.0815 H   0  0  0  0  0  0
  -20.9995  -28.3292   24.1385 H   0  0  0  0  0  0
  -20.5677  -26.2304   23.3620 H   0  0  0  0  0  0
  -21.6646  -26.7429   22.1216 H   0  0  0  0  0  0
  -19.6910  -25.6290   21.1253 H   0  0  0  0  0  0
  -19.6700  -27.3188   20.6748 H   0  0  0  0  0  0
  -17.4199  -26.6685   21.4032 H   0  0  0  0  0  0
  -18.0330  -26.0093   22.9033 H   0  0  0  0  0  0
  -19.7941  -30.7293   24.2255 H   0  0  0  0  0  0
  -17.5014  -31.6276   24.5166 H   0  0  0  0  0  0
  -15.5357  -30.2980   23.7675 H   0  0  0  0  0  0
  -15.8677  -28.0830   22.7059 H   0  0  0  0  0  0
  -24.5885  -30.7112   25.7739 H   0  0  0  0  0  0
  -24.8900  -32.2938   26.4801 H   0  0  0  0  0  0
  -25.7996  -30.8952   27.0224 H   0  0  0  0  0  0
  -26.2960  -29.6724   24.1247 H   0  0  0  0  0  0
  -27.4001  -29.7269   25.4790 H   0  0  0  0  0  0
  -27.8857  -30.4242   23.9524 H   0  0  0  0  0  0
  -27.2662  -33.3641   26.2047 H   0  0  0  0  0  0
  -28.3874  -32.6884   25.0319 H   0  0  0  0  0  0
  -28.0716  -31.8468   26.5424 H   0  0  0  0  0  0
  -28.2580  -38.0092   24.7533 H   0  0  0  0  0  0
  -28.1093  -36.2630   24.6252 H   0  0  0  0  0  0
  -27.2303  -37.1392   25.8862 H   0  0  0  0  0  0
  -20.9404  -29.8736   21.6833 H   0  0  0  0  0  0
  -26.0162  -38.2828   24.1444 H   0  0  0  0  0  0
  -28.5115  -17.8867   16.9823 H   0  0  0  0  0  0
  -29.1869  -15.9976   18.3160 H   0  0  0  0  0  0
  -29.9188  -18.6567   21.6561 H   0  0  0  0  0  0
  -30.4762  -23.5700   19.2486 H   0  0  0  0  0  0
  -30.9578  -23.9260   20.9026 H   0  0  0  0  0  0
  -30.8938  -21.5949   21.5299 H   0  0  0  0  0  0
  -31.3051  -21.4076   19.8284 H   0  0  0  0  0  0
  -28.7337  -23.6924   21.7081 H   0  0  0  0  0  0
  -26.3441  -19.7139   17.4572 H   0  0  0  0  0  0
  -27.2261  -19.5708   15.9266 H   0  0  0  0  0  0
  -26.6266  -21.1454   16.4629 H   0  0  0  0  0  0
  -27.0106  -24.6299   20.1933 H   0  0  0  0  0  0
  -28.1133  -24.7099   18.8564 H   0  0  0  0  0  0
  -29.1106  -15.6199   21.4677 H   0  0  0  0  0  0
  1 25  1  0  0  0
  1 30  2  0  0  0
  1 85  1  0  0  0
  2  3  1  0  0  0
  2 25  1  0  0  0
  2 88  1  0  0  0
  2 89  1  0  0  0
  3  4  1  0  0  0
  3 90  1  0  0  0
  3 91  1  0  0  0
  4  5  1  0  0  0
  4 92  1  0  0  0
  4 93  1  0  0  0
  5  6  1  0  0  0
  5 26  1  0  0  0
  5 94  1  0  0  0
  6 25  1  0  0  0
  6 95  1  0  0  0
  6 96  1  0  0  0
  7  8  2  0  0  0
  7 26  1  0  0  0
  7 29  1  0  0  0
  8  9  1  0  0  0
  8 22  1  0  0  0
  9 10  1  0  0  0
  9 27  2  0  0  0
 10 11  2  0  0  0
 10 15  1  0  0  0
 11 12  1  0  0  0
 11 97  1  0  0  0
 12 13  2  0  0  0
 12 98  1  0  0  0
 13 14  1  0  0  0
 13 31  1  0  0  0
 14 15  2  0  0  0
 14 99  1  0  0  0
 15100  1  0  0  0
 16 17  2  0  0  0
 16 21  1  0  0  0
 16 31  1  0  0  0
 17 18  1  0  0  0
 17101  1  0  0  0
 18 19  2  0  0  0
 18102  1  0  0  0
 19 20  1  0  0  0
 19 24  1  0  0  0
 20 21  2  0  0  0
 20103  1  0  0  0
 21 23  1  0  0  0
 22 28  1  0  0  0
 22 32  2  0  0  0
 26 27  1  0  0  0
 28104  1  0  0  0
 28105  1  0  0  0
 29106  1  0  0  0
 29107  1  0  0  0
 33 34  1  0  0  0
 33 66  1  0  0  0
 33 70  2  0  0  0
 34 36  1  0  0  0
 34 59  1  0  0  0
 34108  1  0  0  0
 35 44  2  0  0  0
 35 45  1  0  0  0
 35 68  1  0  0  0
 36 56  1  0  0  0
 36109  1  0  0  0
 37 39  1  0  0  0
 37 47  1  0  0  0
 37 66  1  0  0  0
 37110  1  0  0  0
 38 43  2  0  0  0
 38 46  1  0  0  0
 38 47  1  0  0  0
 39 64  1  0  0  0
 39 67  2  0  0  0
 40 52  1  0  0  0
 40 53  2  0  0  0
 40 58  1  0  0  0
 41111  1  0  0  0
 41112  1  0  0  0
 41113  1  0  0  0
 41 48  1  0  0  0
 42 43  1  0  0  0
 42 66  1  0  0  0
 42114  1  0  0  0
 42115  1  0  0  0
 43 44  1  0  0  0
 44116  1  0  0  0
 45 46  2  0  0  0
 45117  1  0  0  0
 46118  1  0  0  0
 47119  1  0  0  0
 47120  1  0  0  0
 48 56  1  0  0  0
 48 65  1  0  0  0
 48121  1  0  0  0
 49 50  1  0  0  0
 49 53  1  0  0  0
 49 64  1  0  0  0
 49122  1  0  0  0
 50 51  1  0  0  0
 50123  1  0  0  0
 50124  1  0  0  0
 51 52  1  0  0  0
 51125  1  0  0  0
 51126  1  0  0  0
 52127  1  0  0  0
 52128  1  0  0  0
 53 54  1  0  0  0
 54 55  2  0  0  0
 54129  1  0  0  0
 55 57  1  0  0  0
 55130  1  0  0  0
 56 69  2  0  0  0
 57 58  2  0  0  0
 57131  1  0  0  0
 58132  1  0  0  0
 59 60  1  0  0  0
 59 61  1  0  0  0
 59 62  1  0  0  0
 60133  1  0  0  0
 60134  1  0  0  0
 60135  1  0  0  0
 61136  1  0  0  0
 61137  1  0  0  0
 61138  1  0  0  0
 62139  1  0  0  0
 62140  1  0  0  0
 62141  1  0  0  0
 63 65  1  0  0  0
 63142  1  0  0  0
 63143  1  0  0  0
 63144  1  0  0  0
 64145  1  0  0  0
 65146  1  0  0  0
 68 83  1  0  0  0
 71 72  2  0  0  0
 71 74  1  0  0  0
 71147  1  0  0  0
 72 76  1  0  0  0
 72148  1  0  0  0
 73 75  1  0  0  0
 73 76  2  0  0  0
 73149  1  0  0  0
 74 75  2  0  0  0
 74 78  1  0  0  0
 75 84  1  0  0  0
 76 85  1  0  0  0
 77 81  1  0  0  0
 77 84  1  0  0  0
 77 86  2  0  0  0
 78 82  1  0  0  0
 78 87  2  0  0  0
 79 80  1  0  0  0
 79 81  1  0  0  0
 79150  1  0  0  0
 79151  1  0  0  0
 80 84  1  0  0  0
 80152  1  0  0  0
 80153  1  0  0  0
 81 83  1  0  0  0
 81154  1  0  0  0
 82155  1  0  0  0
 82156  1  0  0  0
 82157  1  0  0  0
 83158  1  0  0  0
 83159  1  0  0  0
 85160  1  0  0  0
M  ISO  4   1 100  68 101  83 101  85 100
M  END
> <chiral flag>
0

> <version>
0

> <s_m_source_file>
/data/baiqing/PycharmProjects/Reinvent-master-3.2/result/LINK_invent/BTK/process_docking_weight1_custom_product_contain_oxygen_bond_distance_aromatic_linkinvent_7_9_3/rearranged_h_0072.sdf

> <i_m_source_file_index>
18

> <r_mmod_Potential_Energy-OPLS-2005>
371.262115478516

> <r_mmod_Stretch_Energy-OPLS-2005>
141.637451171875

> <r_mmod_Bend_Energy-OPLS-2005>
205.13542175293

> <r_mmod_Torsional_Energy-OPLS-2005>
361.551971435547

> <r_mmod_Improper_Torsional_Energy-OPLS-2005>
6.38744592666626

> <r_mmod_Van_der_Waal_Energy-OPLS-2005>
135.477569580078

> <r_mmod_Electrostatic_Energy-OPLS-2005>
-345.109588623047

> <r_mmod_Solvation_Energy-OPLS-2005>
-229.867858886719

> <b_mmod_Minimization_Converged-OPLS-2005>
0

> <r_mmod_RMS_Derivative-OPLS-2005>
1.70080125331879

$$$$
18
                    3D
 Structure written by MMmdl.
160169  0  0  1  0            999 V2000
  -30.7832  -14.6807   20.4853 C   0  0  0  0  0  0
  -30.3780  -12.4520   19.4286 C   0  0  0  0  0  0
  -29.4782  -12.5179   18.1868 C   0  0  0  0  0  0
  -28.0199  -12.3357   18.6268 C   0  0  0  0  0  0
  -27.6353  -13.2365   19.8345 C   0  0  2  0  0  0
  -28.6963  -13.2350   20.9572 C   0  0  0  0  0  0
  -25.2512  -13.8198   20.5646 C   0  0  0  0  0  0
  -24.1843  -13.0462   20.9271 C   0  0  0  0  0  0
  -24.6412  -11.6951   20.8801 C   0  0  0  0  0  0
  -23.9100  -10.4345   21.0428 C   0  0  0  0  0  0
  -24.3665   -9.4240   21.9155 C   0  0  0  0  0  0
  -23.6367   -8.2252   22.0708 C   0  0  0  0  0  0
  -22.4335   -8.0308   21.3506 C   0  0  0  0  0  0
  -21.9985   -9.0258   20.4575 C   0  0  0  0  0  0
  -22.7310  -10.2163   20.3029 C   0  0  0  0  0  0
  -21.6847   -6.0783   22.5291 C   0  0  0  0  0  0
  -21.3994   -6.5663   23.8234 C   0  0  0  0  0  0
  -21.3681   -5.6802   24.9186 C   0  0  0  0  0  0
  -21.6078   -4.3064   24.7215 C   0  0  0  0  0  0
  -21.8829   -3.8169   23.4321 C   0  0  0  0  0  0
  -21.9198   -4.7006   22.3404 C   0  0  0  0  0  0
  -22.7855  -13.5245   21.1936 C   0  0  0  0  0  0
  -22.1670   -4.2199   21.0964 F   0  0  0  0  0  0
  -21.5640   -3.4541   25.7709 F   0  0  0  0  0  0
  -29.9744  -13.5685   20.3248 N   0  0  0  0  0  0
  -26.2958  -12.9417   20.3328 N   0  0  0  0  0  0
  -25.9347  -11.6553   20.5815 N   0  0  0  0  0  0
  -22.0486  -12.8196   22.0464 N   0  0  0  0  0  0
  -25.4163  -15.1890   20.3749 N   0  0  0  0  0  0
  -31.9671  -14.5823   20.1828 O   0  0  0  0  0  0
  -21.6659   -6.8918   21.4254 O   0  0  0  0  0  0
  -22.3571  -14.5596   20.6852 O   0  0  0  0  0  0
  -24.6332  -31.8530   23.2043 C   0  0  0  0  0  0
  -25.9154  -32.4750   23.8360 C   0  0  1  0  0  0
  -27.1897  -27.2234   20.1103 C   0  0  0  0  0  0
  -25.5942  -33.8555   24.2268 N   0  0  0  0  0  0
  -23.4297  -30.4854   21.5455 C   0  0  2  0  0  0
  -24.8705  -28.9389   20.1104 C   0  0  0  0  0  0
  -22.7506  -29.4613   22.4881 C   0  0  0  0  0  0
  -18.0280  -28.1420   22.8476 C   0  0  0  0  0  0
  -24.1470  -36.7275   23.2649 C   0  0  0  0  0  0
  -25.9863  -30.7514   21.3965 C   0  0  0  0  0  0
  -26.0506  -29.3758   20.7261 C   0  0  0  0  0  0
  -27.2138  -28.5321   20.7157 C   0  0  0  0  0  0
  -25.9777  -26.8734   19.4733 C   0  0  0  0  0  0
  -24.8421  -27.6964   19.4729 C   0  0  0  0  0  0
  -23.6525  -29.8376   20.1565 C   0  0  0  0  0  0
  -25.4118  -36.3069   24.0325 C   0  0  1  0  0  0
  -20.5886  -28.3746   23.1242 C   0  0  2  0  0  0
  -20.6794  -26.9458   22.5407 C   0  0  0  0  0  0
  -19.5763  -26.6414   21.5216 C   0  0  0  0  0  0
  -18.1930  -26.7959   22.1619 C   0  0  0  0  0  0
  -19.1531  -28.8895   23.2863 C   0  0  0  0  0  0
  -18.9461  -30.1497   23.8894 C   0  0  0  0  0  0
  -17.6463  -30.6610   24.0572 C   0  0  0  0  0  0
  -25.9062  -34.9435   23.5096 C   0  0  0  0  0  0
  -16.5355  -29.9114   23.6340 C   0  0  0  0  0  0
  -16.7276  -28.6534   23.0351 C   0  0  0  0  0  0
  -26.4499  -31.6596   25.0783 C   0  0  0  0  0  0
  -25.3722  -31.3724   26.1506 C   0  0  0  0  0  0
  -27.0377  -30.3005   24.6358 C   0  0  0  0  0  0
  -27.6033  -32.4359   25.7565 C   0  0  0  0  0  0
  -27.5567  -37.1813   24.8462 C   0  0  0  0  0  0
  -21.4206  -29.3073   22.3613 N   0  0  0  0  0  0
  -26.4284  -37.3785   23.9394 N   0  0  0  0  0  0
  -24.7025  -31.0474   22.1041 N   0  0  0  0  0  0
  -23.4211  -28.8126   23.2955 O   0  0  0  0  0  0
  -28.2598  -26.2830   20.1417 O   0  0  0  0  0  0
  -26.5646  -34.8897   22.4672 O   0  0  0  0  0  0
  -23.5473  -32.1363   23.7326 O   0  0  0  0  0  0
  -31.3127  -20.1934   21.7703 C   0  0  0  0  0  0
  -30.5146  -21.2381   21.2807 C   0  0  0  0  0  0
  -29.0532  -19.5713   20.3136 C   0  0  0  0  0  0
  -29.8517  -18.4425   20.8126 C   0  0  0  0  0  0
  -31.0173  -18.8310   21.5623 C   0  0  0  0  0  0
  -29.3490  -20.9918   20.5304 C   0  0  0  0  0  0
  -27.9021  -24.5076   18.3709 C   0  0  0  0  0  0
  -29.4755  -16.9255   20.5652 C   0  0  0  0  0  0
  -27.3909  -23.1140   18.0101 C   0  0  0  0  0  0
  -28.2668  -21.9843   18.5943 C   0  0  0  0  0  0
  -28.8849  -23.5885   20.4772 C   0  0  0  0  0  0
  -27.9890  -24.8031   19.8767 C   0  0  1  0  0  0
  -32.0413  -17.8730   22.1761 C   0  0  0  0  0  0
  -28.6066  -22.1471   20.0187 N   0  0  0  0  0  0
  -30.4327  -15.9742   20.8278 N   0  0  0  0  0  0
  -28.1874  -25.3374   17.5000 O   0  0  0  0  0  0
  -28.3738  -16.6353   20.0928 O   0  0  0  0  0  0
  -31.4227  -12.4820   19.1241 H   0  0  0  0  0  0
  -30.2372  -11.4870   19.9185 H   0  0  0  0  0  0
  -29.7519  -11.7316   17.4836 H   0  0  0  0  0  0
  -29.6094  -13.4623   17.6508 H   0  0  0  0  0  0
  -27.9101  -11.2833   18.8936 H   0  0  0  0  0  0
  -27.3445  -12.5197   17.7896 H   0  0  0  0  0  0
  -27.6153  -14.2452   19.4241 H   0  0  0  0  0  0
  -28.7510  -12.2626   21.4550 H   0  0  0  0  0  0
  -28.4478  -13.9689   21.7226 H   0  0  0  0  0  0
  -25.2821   -9.5718   22.4691 H   0  0  0  0  0  0
  -24.0120   -7.4634   22.7388 H   0  0  0  0  0  0
  -21.0958   -8.8793   19.8811 H   0  0  0  0  0  0
  -22.3823  -10.9706   19.6109 H   0  0  0  0  0  0
  -21.1955   -7.6154   23.9761 H   0  0  0  0  0  0
  -21.1487   -6.0503   25.9108 H   0  0  0  0  0  0
  -22.0569   -2.7634   23.2805 H   0  0  0  0  0  0
  -22.4199  -11.9991   22.5062 H   0  0  0  0  0  0
  -21.0978  -13.1029   22.2404 H   0  0  0  0  0  0
  -24.6223  -15.8197   20.3498 H   0  0  0  0  0  0
  -26.2725  -15.6086   20.0215 H   0  0  0  0  0  0
  -26.7225  -32.5368   23.1089 H   0  0  0  0  0  0
  -25.0036  -33.9680   25.0380 H   0  0  0  0  0  0
  -22.7283  -31.3121   21.4073 H   0  0  0  0  0  0
  -23.3735  -35.9593   23.3309 H   0  0  0  0  0  0
  -24.3544  -36.8920   22.2061 H   0  0  0  0  0  0
  -23.7215  -37.6471   23.6692 H   0  0  0  0  0  0
  -26.1465  -31.5163   20.6352 H   0  0  0  0  0  0
  -26.8530  -30.7821   22.0459 H   0  0  0  0  0  0
  -28.1132  -28.8629   21.2175 H   0  0  0  0  0  0
  -25.8414  -25.9332   18.9699 H   0  0  0  0  0  0
  -23.9419  -27.3591   18.9779 H   0  0  0  0  0  0
  -23.8041  -30.6253   19.4176 H   0  0  0  0  0  0
  -22.7637  -29.2937   19.8324 H   0  0  0  0  0  0
  -25.1296  -36.1902   25.0823 H   0  0  0  0  0  0
  -20.9983  -28.3355   24.1364 H   0  0  0  0  0  0
  -20.5714  -26.2359   23.3630 H   0  0  0  0  0  0
  -21.6657  -26.7506   22.1185 H   0  0  0  0  0  0
  -19.6938  -25.6319   21.1266 H   0  0  0  0  0  0
  -19.6701  -27.3209   20.6732 H   0  0  0  0  0  0
  -17.4216  -26.6705   21.4021 H   0  0  0  0  0  0
  -18.0334  -26.0105   22.9017 H   0  0  0  0  0  0
  -19.7937  -30.7310   24.2267 H   0  0  0  0  0  0
  -17.5018  -31.6285   24.5185 H   0  0  0  0  0  0
  -15.5359  -30.3029   23.7661 H   0  0  0  0  0  0
  -15.8676  -28.0872   22.7064 H   0  0  0  0  0  0
  -24.5856  -30.7150   25.7786 H   0  0  0  0  0  0
  -24.8994  -32.2901   26.5022 H   0  0  0  0  0  0
  -25.8037  -30.8796   27.0238 H   0  0  0  0  0  0
  -26.3019  -29.6745   24.1331 H   0  0  0  0  0  0
  -27.3933  -29.7277   25.4928 H   0  0  0  0  0  0
  -27.8931  -30.4222   23.9718 H   0  0  0  0  0  0
  -27.2612  -33.3631   26.2162 H   0  0  0  0  0  0
  -28.3847  -32.6985   25.0425 H   0  0  0  0  0  0
  -28.0726  -31.8518   26.5492 H   0  0  0  0  0  0
  -28.2580  -38.0113   24.7509 H   0  0  0  0  0  0
  -28.1061  -36.2645   24.6278 H   0  0  0  0  0  0
  -27.2282  -37.1458   25.8867 H   0  0  0  0  0  0
  -20.9393  -29.8805   21.6825 H   0  0  0  0  0  0
  -26.0137  -38.2839   24.1427 H   0  0  0  0  0  0
  -32.2003  -20.4691   22.3247 H   0  0  0  0  0  0
  -30.8526  -22.2404   21.4875 H   0  0  0  0  0  0
  -28.1657  -19.3283   19.7462 H   0  0  0  0  0  0
  -27.3385  -23.0182   16.9257 H   0  0  0  0  0  0
  -26.3654  -23.0216   18.3742 H   0  0  0  0  0  0
  -29.1837  -21.8924   18.0037 H   0  0  0  0  0  0
  -27.7161  -21.0535   18.4523 H   0  0  0  0  0  0
  -28.7531  -23.5999   21.5600 H   0  0  0  0  0  0
  -29.9343  -23.8191   20.2937 H   0  0  0  0  0  0
  -26.9923  -24.6186   20.2768 H   0  0  0  0  0  0
  -32.5412  -17.2805   21.4112 H   0  0  0  0  0  0
  -31.5978  -17.2222   22.9302 H   0  0  0  0  0  0
  -32.8466  -18.4135   22.6783 H   0  0  0  0  0  0
  -31.2682  -16.4613   21.1123 H   0  0  0  0  0  0
  1 25  1  0  0  0
  1 30  2  0  0  0
  1 85  1  0  0  0
  2  3  1  0  0  0
  2 25  1  0  0  0
  2 88  1  0  0  0
  2 89  1  0  0  0
  3  4  1  0  0  0
  3 90  1  0  0  0
  3 91  1  0  0  0
  4  5  1  0  0  0
  4 92  1  0  0  0
  4 93  1  0  0  0
  5  6  1  0  0  0
  5 26  1  0  0  0
  5 94  1  0  0  0
  6 25  1  0  0  0
  6 95  1  0  0  0
  6 96  1  0  0  0
  7  8  2  0  0  0
  7 26  1  0  0  0
  7 29  1  0  0  0
  8  9  1  0  0  0
  8 22  1  0  0  0
  9 10  1  0  0  0
  9 27  2  0  0  0
 10 11  2  0  0  0
 10 15  1  0  0  0
 11 12  1  0  0  0
 11 97  1  0  0  0
 12 13  2  0  0  0
 12 98  1  0  0  0
 13 14  1  0  0  0
 13 31  1  0  0  0
 14 15  2  0  0  0
 14 99  1  0  0  0
 15100  1  0  0  0
 16 17  2  0  0  0
 16 21  1  0  0  0
 16 31  1  0  0  0
 17 18  1  0  0  0
 17101  1  0  0  0
 18 19  2  0  0  0
 18102  1  0  0  0
 19 20  1  0  0  0
 19 24  1  0  0  0
 20 21  2  0  0  0
 20103  1  0  0  0
 21 23  1  0  0  0
 22 28  1  0  0  0
 22 32  2  0  0  0
 26 27  1  0  0  0
 28104  1  0  0  0
 28105  1  0  0  0
 29106  1  0  0  0
 29107  1  0  0  0
 33 34  1  0  0  0
 33 66  1  0  0  0
 33 70  2  0  0  0
 34 36  1  0  0  0
 34 59  1  0  0  0
 34108  1  0  0  0
 35 44  2  0  0  0
 35 45  1  0  0  0
 35 68  1  0  0  0
 36 56  1  0  0  0
 36109  1  0  0  0
 37 39  1  0  0  0
 37 47  1  0  0  0
 37 66  1  0  0  0
 37110  1  0  0  0
 38 43  2  0  0  0
 38 46  1  0  0  0
 38 47  1  0  0  0
 39 64  1  0  0  0
 39 67  2  0  0  0
 40 52  1  0  0  0
 40 53  2  0  0  0
 40 58  1  0  0  0
 41111  1  0  0  0
 41112  1  0  0  0
 41113  1  0  0  0
 41 48  1  0  0  0
 42 43  1  0  0  0
 42 66  1  0  0  0
 42114  1  0  0  0
 42115  1  0  0  0
 43 44  1  0  0  0
 44116  1  0  0  0
 45 46  2  0  0  0
 45117  1  0  0  0
 46118  1  0  0  0
 47119  1  0  0  0
 47120  1  0  0  0
 48 56  1  0  0  0
 48 65  1  0  0  0
 48121  1  0  0  0
 49 50  1  0  0  0
 49 53  1  0  0  0
 49 64  1  0  0  0
 49122  1  0  0  0
 50 51  1  0  0  0
 50123  1  0  0  0
 50124  1  0  0  0
 51 52  1  0  0  0
 51125  1  0  0  0
 51126  1  0  0  0
 52127  1  0  0  0
 52128  1  0  0  0
 53 54  1  0  0  0
 54 55  2  0  0  0
 54129  1  0  0  0
 55 57  1  0  0  0
 55130  1  0  0  0
 56 69  2  0  0  0
 57 58  2  0  0  0
 57131  1  0  0  0
 58132  1  0  0  0
 59 60  1  0  0  0
 59 61  1  0  0  0
 59 62  1  0  0  0
 60133  1  0  0  0
 60134  1  0  0  0
 60135  1  0  0  0
 61136  1  0  0  0
 61137  1  0  0  0
 61138  1  0  0  0
 62139  1  0  0  0
 62140  1  0  0  0
 62141  1  0  0  0
 63 65  1  0  0  0
 63142  1  0  0  0
 63143  1  0  0  0
 63144  1  0  0  0
 64145  1  0  0  0
 65146  1  0  0  0
 68 82  1  0  0  0
 71 72  2  0  0  0
 71 75  1  0  0  0
 71147  1  0  0  0
 72 76  1  0  0  0
 72148  1  0  0  0
 73 74  1  0  0  0
 73 76  2  0  0  0
 73149  1  0  0  0
 74 75  2  0  0  0
 74 78  1  0  0  0
 75 83  1  0  0  0
 76 84  1  0  0  0
 77 79  1  0  0  0
 77 82  1  0  0  0
 77 86  2  0  0  0
 78 85  1  0  0  0
 78 87  2  0  0  0
 79 80  1  0  0  0
 79150  1  0  0  0
 79151  1  0  0  0
 80 84  1  0  0  0
 80152  1  0  0  0
 80153  1  0  0  0
 81 82  1  0  0  0
 81 84  1  0  0  0
 81154  1  0  0  0
 81155  1  0  0  0
 82156  1  0  0  0
 83157  1  0  0  0
 83158  1  0  0  0
 83159  1  0  0  0
 85160  1  0  0  0
M  ISO  4   1 100  68 101  82 101  85 100
M  END
> <chiral flag>
0

> <version>
0

> <s_m_source_file>
/data/baiqing/PycharmProjects/Reinvent-master-3.2/result/LINK_invent/BTK/process_docking_weight1_custom_product_contain_oxygen_bond_distance_aromatic_linkinvent_7_9_3/rearranged_h_0072.sdf

> <i_m_source_file_index>
19

> <r_mmod_Potential_Energy-OPLS-2005>
219.552169799805

> <r_mmod_Stretch_Energy-OPLS-2005>
147.346206665039

> <r_mmod_Bend_Energy-OPLS-2005>
264.304595947266

> <r_mmod_Torsional_Energy-OPLS-2005>
219.804946899414

> <r_mmod_Improper_Torsional_Energy-OPLS-2005>
8.14489459991455

> <r_mmod_Van_der_Waal_Energy-OPLS-2005>
164.162094116211

> <r_mmod_Electrostatic_Energy-OPLS-2005>
-457.676177978516

> <r_mmod_Solvation_Energy-OPLS-2005>
-227.521209716797

> <b_mmod_Minimization_Converged-OPLS-2005>
0

> <r_mmod_RMS_Derivative-OPLS-2005>
6.05881214141846

$$$$
19
                    3D
 Structure written by MMmdl.
163172  0  0  1  0            999 V2000
  -30.6068  -14.6523   20.5164 C   0  0  0  0  0  0
  -30.4435  -12.4045   19.4524 C   0  0  0  0  0  0
  -29.5090  -12.5171   18.2261 C   0  0  0  0  0  0
  -28.0321  -12.3494   18.6373 C   0  0  0  0  0  0
  -27.6557  -13.2156   19.8686 C   0  0  2  0  0  0
  -28.6999  -13.0572   20.9967 C   0  0  0  0  0  0
  -25.2566  -13.8167   20.5688 C   0  0  0  0  0  0
  -24.1827  -13.0433   20.9180 C   0  0  0  0  0  0
  -24.6395  -11.6906   20.8736 C   0  0  0  0  0  0
  -23.9063  -10.4289   21.0403 C   0  0  0  0  0  0
  -24.3614   -9.4206   21.9181 C   0  0  0  0  0  0
  -23.6288   -8.2242   22.0754 C   0  0  0  0  0  0
  -22.4272   -8.0280   21.3543 C   0  0  0  0  0  0
  -21.9907   -9.0254   20.4645 C   0  0  0  0  0  0
  -22.7235  -10.2131   20.3052 C   0  0  0  0  0  0
  -21.6852   -6.0734   22.5278 C   0  0  0  0  0  0
  -21.4011   -6.5639   23.8211 C   0  0  0  0  0  0
  -21.3657   -5.6791   24.9173 C   0  0  0  0  0  0
  -21.6044   -4.3054   24.7223 C   0  0  0  0  0  0
  -21.8820   -3.8146   23.4345 C   0  0  0  0  0  0
  -21.9194   -4.6962   22.3402 C   0  0  0  0  0  0
  -22.7850  -13.5229   21.1847 C   0  0  0  0  0  0
  -22.1662   -4.2148   21.0978 F   0  0  0  0  0  0
  -21.5630   -3.4538   25.7737 F   0  0  0  0  0  0
  -30.0149  -13.4163   20.4395 N   0  0  0  0  0  0
  -26.3001  -12.9348   20.3342 N   0  0  0  0  0  0
  -25.9326  -11.6501   20.5765 N   0  0  0  0  0  0
  -22.0494  -12.8224   22.0407 N   0  0  0  0  0  0
  -25.4285  -15.1888   20.4111 N   0  0  0  0  0  0
  -31.7500  -14.8441   20.0902 O   0  0  0  0  0  0
  -21.6638   -6.8877   21.4240 O   0  0  0  0  0  0
  -22.3534  -14.5539   20.6700 O   0  0  0  0  0  0
  -24.6269  -31.8588   23.2016 C   0  0  0  0  0  0
  -25.9113  -32.4773   23.8346 C   0  0  1  0  0  0
  -27.2269  -27.3130   20.1142 C   0  0  0  0  0  0
  -25.5920  -33.8573   24.2270 N   0  0  0  0  0  0
  -23.4211  -30.4825   21.5440 C   0  0  2  0  0  0
  -24.8676  -28.9366   20.1095 C   0  0  0  0  0  0
  -22.7482  -29.4620   22.4928 C   0  0  0  0  0  0
  -18.0288  -28.1389   22.8492 C   0  0  0  0  0  0
  -24.1478  -36.7277   23.2644 C   0  0  0  0  0  0
  -25.9628  -30.7863   21.3749 C   0  0  0  0  0  0
  -26.0362  -29.4137   20.7159 C   0  0  0  0  0  0
  -27.2169  -28.6128   20.7097 C   0  0  0  0  0  0
  -26.0341  -26.8913   19.4815 C   0  0  0  0  0  0
  -24.8690  -27.6807   19.4841 C   0  0  0  0  0  0
  -23.6357  -29.8171   20.1592 C   0  0  0  0  0  0
  -25.4105  -36.3076   24.0335 C   0  0  1  0  0  0
  -20.5892  -28.3688   23.1280 C   0  0  2  0  0  0
  -20.6774  -26.9409   22.5412 C   0  0  0  0  0  0
  -19.5746  -26.6383   21.5217 C   0  0  0  0  0  0
  -18.1926  -26.7932   22.1628 C   0  0  0  0  0  0
  -19.1542  -28.8856   23.2883 C   0  0  0  0  0  0
  -18.9470  -30.1460   23.8898 C   0  0  0  0  0  0
  -17.6469  -30.6592   24.0569 C   0  0  0  0  0  0
  -25.9047  -34.9450   23.5103 C   0  0  0  0  0  0
  -16.5356  -29.9092   23.6338 C   0  0  0  0  0  0
  -16.7275  -28.6509   23.0357 C   0  0  0  0  0  0
  -26.4493  -31.6593   25.0725 C   0  0  0  0  0  0
  -25.3725  -31.3736   26.1453 C   0  0  0  0  0  0
  -27.0349  -30.3021   24.6189 C   0  0  0  0  0  0
  -27.6042  -32.4341   25.7498 C   0  0  0  0  0  0
  -27.5572  -37.1788   24.8468 C   0  0  0  0  0  0
  -21.4195  -29.3041   22.3673 N   0  0  0  0  0  0
  -26.4276  -37.3779   23.9423 N   0  0  0  0  0  0
  -24.6890  -31.0596   22.0966 N   0  0  0  0  0  0
  -23.4202  -28.8163   23.3012 O   0  0  0  0  0  0
  -28.3490  -26.4676   20.1754 O   0  0  0  0  0  0
  -26.5624  -34.8925   22.4673 O   0  0  0  0  0  0
  -23.5428  -32.1387   23.7339 O   0  0  0  0  0  0
  -29.7817  -19.3271   22.0571 C   0  0  0  0  0  0
  -29.6292  -19.2659   19.6657 C   0  0  0  0  0  0
  -29.8969  -17.9053   22.1014 C   0  0  0  0  0  0
  -29.6211  -20.0655   20.8484 C   0  0  0  0  0  0
  -29.8985  -17.1193   20.9170 C   0  0  0  0  0  0
  -29.7642  -17.8380   19.6953 C   0  0  0  0  0  0
  -29.0581  -22.4359   19.9289 C   0  0  0  0  0  0
  -30.6900  -24.3660   19.6598 C   0  0  0  0  0  0
  -29.4717  -23.7905   21.8148 C   0  0  0  0  0  0
  -29.8733  -22.3193   22.0660 C   0  0  0  0  0  0
  -29.3291  -23.9552   20.2918 C   0  0  2  0  0  0
  -29.9962  -17.2225   23.4554 C   0  0  0  0  0  0
  -31.2063  -25.7774   19.9244 C   0  0  0  0  0  0
  -28.1975  -25.0174   19.8719 C   0  0  0  0  0  0
  -29.4976  -21.5463   20.8775 N   0  0  0  0  0  0
  -29.8187  -15.6593   21.0038 N   0  0  0  0  0  0
  -28.4773  -22.1104   18.8865 O   0  0  0  0  0  0
  -31.3856  -23.6033   18.9791 O   0  0  0  0  0  0
  -29.7074  -17.1486   18.5299 F   0  0  0  0  0  0
  -31.4829  -12.5417   19.1491 H   0  0  0  0  0  0
  -30.3902  -11.4056   19.8875 H   0  0  0  0  0  0
  -29.7757  -11.7691   17.4784 H   0  0  0  0  0  0
  -29.6457  -13.4888   17.7486 H   0  0  0  0  0  0
  -27.8701  -11.2953   18.8648 H   0  0  0  0  0  0
  -27.3764  -12.5819   17.7975 H   0  0  0  0  0  0
  -27.6779  -14.2537   19.5357 H   0  0  0  0  0  0
  -28.7162  -12.0284   21.3590 H   0  0  0  0  0  0
  -28.4381  -13.6668   21.8625 H   0  0  0  0  0  0
  -25.2761   -9.5681   22.4755 H   0  0  0  0  0  0
  -23.9997   -7.4635   22.7473 H   0  0  0  0  0  0
  -21.0838   -8.8768   19.8951 H   0  0  0  0  0  0
  -22.3693  -10.9668   19.6159 H   0  0  0  0  0  0
  -21.2000   -7.6146   23.9714 H   0  0  0  0  0  0
  -21.1477   -6.0521   25.9076 H   0  0  0  0  0  0
  -22.0602   -2.7608   23.2846 H   0  0  0  0  0  0
  -22.4108  -11.9881   22.4789 H   0  0  0  0  0  0
  -21.1118  -13.1256   22.2628 H   0  0  0  0  0  0
  -24.6602  -15.8428   20.5153 H   0  0  0  0  0  0
  -26.2809  -15.6291   20.0887 H   0  0  0  0  0  0
  -26.7181  -32.5438   23.1093 H   0  0  0  0  0  0
  -25.0068  -33.9712   25.0416 H   0  0  0  0  0  0
  -22.7153  -31.3034   21.4004 H   0  0  0  0  0  0
  -23.3754  -35.9597   23.3304 H   0  0  0  0  0  0
  -24.3566  -36.8896   22.2059 H   0  0  0  0  0  0
  -23.7213  -37.6470   23.6666 H   0  0  0  0  0  0
  -26.0979  -31.5497   20.6077 H   0  0  0  0  0  0
  -26.8419  -30.8321   22.0060 H   0  0  0  0  0  0
  -28.1123  -28.9739   21.1965 H   0  0  0  0  0  0
  -25.9698  -25.9346   18.9858 H   0  0  0  0  0  0
  -23.9745  -27.3089   19.0038 H   0  0  0  0  0  0
  -23.7545  -30.5938   19.4028 H   0  0  0  0  0  0
  -22.7557  -29.2466   19.8566 H   0  0  0  0  0  0
  -25.1282  -36.1922   25.0828 H   0  0  0  0  0  0
  -20.9986  -28.3260   24.1400 H   0  0  0  0  0  0
  -20.5672  -26.2299   23.3615 H   0  0  0  0  0  0
  -21.6639  -26.7431   22.1202 H   0  0  0  0  0  0
  -19.6905  -25.6296   21.1244 H   0  0  0  0  0  0
  -19.6687  -27.3201   20.6755 H   0  0  0  0  0  0
  -17.4197  -26.6694   21.4028 H   0  0  0  0  0  0
  -18.0315  -26.0070   22.9018 H   0  0  0  0  0  0
  -19.7949  -30.7278   24.2257 H   0  0  0  0  0  0
  -17.5028  -31.6274   24.5171 H   0  0  0  0  0  0
  -15.5360  -30.2996   23.7668 H   0  0  0  0  0  0
  -15.8672  -28.0833   22.7068 H   0  0  0  0  0  0
  -24.5900  -30.7082   25.7784 H   0  0  0  0  0  0
  -24.8922  -32.2907   26.4872 H   0  0  0  0  0  0
  -25.8051  -30.8920   27.0231 H   0  0  0  0  0  0
  -26.2931  -29.6761   24.1213 H   0  0  0  0  0  0
  -27.4052  -29.7283   25.4695 H   0  0  0  0  0  0
  -27.8793  -30.4314   23.9415 H   0  0  0  0  0  0
  -27.2644  -33.3647   26.2052 H   0  0  0  0  0  0
  -28.3863  -32.6889   25.0334 H   0  0  0  0  0  0
  -28.0699  -31.8486   26.5434 H   0  0  0  0  0  0
  -28.2581  -38.0094   24.7531 H   0  0  0  0  0  0
  -28.1073  -36.2625   24.6268 H   0  0  0  0  0  0
  -27.2296  -37.1402   25.8873 H   0  0  0  0  0  0
  -20.9372  -29.8763   21.6884 H   0  0  0  0  0  0
  -26.0155  -38.2847   24.1452 H   0  0  0  0  0  0
  -29.7933  -19.8489   23.0020 H   0  0  0  0  0  0
  -29.5239  -19.7411   18.7017 H   0  0  0  0  0  0
  -30.1961  -24.4716   22.2624 H   0  0  0  0  0  0
  -28.5160  -23.9993   22.2982 H   0  0  0  0  0  0
  -29.3769  -21.9578   22.9662 H   0  0  0  0  0  0
  -30.9503  -22.2317   22.2169 H   0  0  0  0  0  0
  -30.1054  -17.9432   24.2661 H   0  0  0  0  0  0
  -30.8583  -16.5555   23.4862 H   0  0  0  0  0  0
  -29.1000  -16.6332   23.6504 H   0  0  0  0  0  0
  -30.8717  -26.1451   20.8934 H   0  0  0  0  0  0
  -30.8426  -26.4571   19.1541 H   0  0  0  0  0  0
  -32.2955  -25.7923   19.9101 H   0  0  0  0  0  0
  -27.2697  -24.6708   20.3294 H   0  0  0  0  0  0
  -28.0449  -24.9313   18.7947 H   0  0  0  0  0  0
  -28.9696  -15.3197   21.4277 H   0  0  0  0  0  0
  1 25  1  0  0  0
  1 30  2  0  0  0
  1 86  1  0  0  0
  2  3  1  0  0  0
  2 25  1  0  0  0
  2 90  1  0  0  0
  2 91  1  0  0  0
  3  4  1  0  0  0
  3 92  1  0  0  0
  3 93  1  0  0  0
  4  5  1  0  0  0
  4 94  1  0  0  0
  4 95  1  0  0  0
  5  6  1  0  0  0
  5 26  1  0  0  0
  5 96  1  0  0  0
  6 25  1  0  0  0
  6 97  1  0  0  0
  6 98  1  0  0  0
  7  8  2  0  0  0
  7 26  1  0  0  0
  7 29  1  0  0  0
  8  9  1  0  0  0
  8 22  1  0  0  0
  9 10  1  0  0  0
  9 27  2  0  0  0
 10 11  2  0  0  0
 10 15  1  0  0  0
 11 12  1  0  0  0
 11 99  1  0  0  0
 12 13  2  0  0  0
 12100  1  0  0  0
 13 14  1  0  0  0
 13 31  1  0  0  0
 14 15  2  0  0  0
 14101  1  0  0  0
 15102  1  0  0  0
 16 17  2  0  0  0
 16 21  1  0  0  0
 16 31  1  0  0  0
 17 18  1  0  0  0
 17103  1  0  0  0
 18 19  2  0  0  0
 18104  1  0  0  0
 19 20  1  0  0  0
 19 24  1  0  0  0
 20 21  2  0  0  0
 20105  1  0  0  0
 21 23  1  0  0  0
 22 28  1  0  0  0
 22 32  2  0  0  0
 26 27  1  0  0  0
 28106  1  0  0  0
 28107  1  0  0  0
 29108  1  0  0  0
 29109  1  0  0  0
 33 34  1  0  0  0
 33 66  1  0  0  0
 33 70  2  0  0  0
 34 36  1  0  0  0
 34 59  1  0  0  0
 34110  1  0  0  0
 35 44  2  0  0  0
 35 45  1  0  0  0
 35 68  1  0  0  0
 36 56  1  0  0  0
 36111  1  0  0  0
 37 39  1  0  0  0
 37 47  1  0  0  0
 37 66  1  0  0  0
 37112  1  0  0  0
 38 43  2  0  0  0
 38 46  1  0  0  0
 38 47  1  0  0  0
 39 64  1  0  0  0
 39 67  2  0  0  0
 40 52  1  0  0  0
 40 53  2  0  0  0
 40 58  1  0  0  0
 41113  1  0  0  0
 41114  1  0  0  0
 41115  1  0  0  0
 41 48  1  0  0  0
 42 43  1  0  0  0
 42 66  1  0  0  0
 42116  1  0  0  0
 42117  1  0  0  0
 43 44  1  0  0  0
 44118  1  0  0  0
 45 46  2  0  0  0
 45119  1  0  0  0
 46120  1  0  0  0
 47121  1  0  0  0
 47122  1  0  0  0
 48 56  1  0  0  0
 48 65  1  0  0  0
 48123  1  0  0  0
 49 50  1  0  0  0
 49 53  1  0  0  0
 49 64  1  0  0  0
 49124  1  0  0  0
 50 51  1  0  0  0
 50125  1  0  0  0
 50126  1  0  0  0
 51 52  1  0  0  0
 51127  1  0  0  0
 51128  1  0  0  0
 52129  1  0  0  0
 52130  1  0  0  0
 53 54  1  0  0  0
 54 55  2  0  0  0
 54131  1  0  0  0
 55 57  1  0  0  0
 55132  1  0  0  0
 56 69  2  0  0  0
 57 58  2  0  0  0
 57133  1  0  0  0
 58134  1  0  0  0
 59 60  1  0  0  0
 59 61  1  0  0  0
 59 62  1  0  0  0
 60135  1  0  0  0
 60136  1  0  0  0
 60137  1  0  0  0
 61138  1  0  0  0
 61139  1  0  0  0
 61140  1  0  0  0
 62141  1  0  0  0
 62142  1  0  0  0
 62143  1  0  0  0
 63 65  1  0  0  0
 63144  1  0  0  0
 63145  1  0  0  0
 63146  1  0  0  0
 64147  1  0  0  0
 65148  1  0  0  0
 68 84  1  0  0  0
 71 73  2  0  0  0
 71 74  1  0  0  0
 71149  1  0  0  0
 72 74  2  0  0  0
 72 76  1  0  0  0
 72150  1  0  0  0
 73 75  1  0  0  0
 73 82  1  0  0  0
 74 85  1  0  0  0
 75 76  2  0  0  0
 75 86  1  0  0  0
 76 89  1  0  0  0
 77 81  1  0  0  0
 77 85  1  0  0  0
 77 87  2  0  0  0
 78 83  1  0  0  0
 78 88  2  0  0  0
 78 81  1  0  0  0
 79 80  1  0  0  0
 79 81  1  0  0  0
 79151  1  0  0  0
 79152  1  0  0  0
 80 85  1  0  0  0
 80153  1  0  0  0
 80154  1  0  0  0
 81 84  1  0  0  0
 82155  1  0  0  0
 82156  1  0  0  0
 82157  1  0  0  0
 83158  1  0  0  0
 83159  1  0  0  0
 83160  1  0  0  0
 84161  1  0  0  0
 84162  1  0  0  0
 86163  1  0  0  0
M  ISO  4   1 100  68 101  84 101  86 100
M  END
> <chiral flag>
0

> <version>
0

> <s_m_source_file>
/data/baiqing/PycharmProjects/Reinvent-master-3.2/result/LINK_invent/BTK/process_docking_weight1_custom_product_contain_oxygen_bond_distance_aromatic_linkinvent_7_9_3/rearranged_h_0072.sdf

> <i_m_source_file_index>
20

> <r_mmod_Potential_Energy-OPLS-2005>
133.083374023438

> <r_mmod_Stretch_Energy-OPLS-2005>
91.4077911376953

> <r_mmod_Bend_Energy-OPLS-2005>
167.587173461914

> <r_mmod_Torsional_Energy-OPLS-2005>
280.616394042969

> <r_mmod_Improper_Torsional_Energy-OPLS-2005>
4.03526592254639

> <r_mmod_Van_der_Waal_Energy-OPLS-2005>
148.666213989258

> <r_mmod_Electrostatic_Energy-OPLS-2005>
-379.189697265625

> <r_mmod_Solvation_Energy-OPLS-2005>
-231.713562011719

> <b_mmod_Minimization_Converged-OPLS-2005>
0

> <r_mmod_RMS_Derivative-OPLS-2005>
0.58155757188797

$$$$
20
                    3D
 Structure written by MMmdl.
162171  0  0  1  0            999 V2000
  -30.6116  -14.7331   20.4424 C   0  0  0  0  0  0
  -30.4235  -12.4552   19.4524 C   0  0  0  0  0  0
  -29.5110  -12.5911   18.2164 C   0  0  0  0  0  0
  -28.0309  -12.4098   18.6075 C   0  0  0  0  0  0
  -27.6491  -13.2496   19.8582 C   0  0  2  0  0  0
  -28.6963  -13.1354   20.9873 C   0  0  0  0  0  0
  -25.2486  -13.8226   20.5537 C   0  0  0  0  0  0
  -24.1805  -13.0438   20.9042 C   0  0  0  0  0  0
  -24.6422  -11.6928   20.8627 C   0  0  0  0  0  0
  -23.9061  -10.4305   21.0304 C   0  0  0  0  0  0
  -24.3610   -9.4251   21.9106 C   0  0  0  0  0  0
  -23.6284   -8.2282   22.0722 C   0  0  0  0  0  0
  -22.4257   -8.0312   21.3536 C   0  0  0  0  0  0
  -21.9871   -9.0251   20.4598 C   0  0  0  0  0  0
  -22.7222  -10.2124   20.2973 C   0  0  0  0  0  0
  -21.6880   -6.0740   22.5257 C   0  0  0  0  0  0
  -21.4099   -6.5624   23.8232 C   0  0  0  0  0  0
  -21.3692   -5.6757   24.9167 C   0  0  0  0  0  0
  -21.6048   -4.3035   24.7231 C   0  0  0  0  0  0
  -21.8792   -3.8132   23.4335 C   0  0  0  0  0  0
  -21.9199   -4.6955   22.3379 C   0  0  0  0  0  0
  -22.7838  -13.5225   21.1777 C   0  0  0  0  0  0
  -22.1620   -4.2131   21.0972 F   0  0  0  0  0  0
  -21.5618   -3.4525   25.7736 F   0  0  0  0  0  0
  -30.0018  -13.4969   20.4212 N   0  0  0  0  0  0
  -26.2995  -12.9467   20.3287 N   0  0  0  0  0  0
  -25.9380  -11.6576   20.5672 N   0  0  0  0  0  0
  -22.0544  -12.8136   22.0325 N   0  0  0  0  0  0
  -25.4103  -15.1921   20.3738 N   0  0  0  0  0  0
  -31.7825  -14.8405   20.0675 O   0  0  0  0  0  0
  -21.6651   -6.8886   21.4238 O   0  0  0  0  0  0
  -22.3500  -14.5560   20.6719 O   0  0  0  0  0  0
  -24.6405  -31.8573   23.1996 C   0  0  0  0  0  0
  -25.9244  -32.4751   23.8361 C   0  0  1  0  0  0
  -27.2073  -27.2266   20.1289 C   0  0  0  0  0  0
  -25.6108  -33.8571   24.2296 N   0  0  0  0  0  0
  -23.4359  -30.4871   21.5414 C   0  0  2  0  0  0
  -24.8843  -28.9410   20.0987 C   0  0  0  0  0  0
  -22.7558  -29.4654   22.4842 C   0  0  0  0  0  0
  -18.0312  -28.1439   22.8445 C   0  0  0  0  0  0
  -24.1526  -36.7301   23.2632 C   0  0  0  0  0  0
  -25.9903  -30.7515   21.3968 C   0  0  0  0  0  0
  -26.0557  -29.3782   20.7285 C   0  0  0  0  0  0
  -27.2181  -28.5327   20.7373 C   0  0  0  0  0  0
  -26.0215  -26.8920   19.4265 C   0  0  0  0  0  0
  -24.8777  -27.7140   19.4270 C   0  0  0  0  0  0
  -23.6619  -29.8374   20.1532 C   0  0  0  0  0  0
  -25.4150  -36.3065   24.0318 C   0  0  1  0  0  0
  -20.5926  -28.3795   23.1187 C   0  0  2  0  0  0
  -20.6840  -26.9497   22.5361 C   0  0  0  0  0  0
  -19.5807  -26.6370   21.5201 C   0  0  0  0  0  0
  -18.1957  -26.7978   22.1561 C   0  0  0  0  0  0
  -19.1570  -28.8921   23.2813 C   0  0  0  0  0  0
  -18.9501  -30.1514   23.8851 C   0  0  0  0  0  0
  -17.6503  -30.6633   24.0555 C   0  0  0  0  0  0
  -25.9089  -34.9444   23.5066 C   0  0  0  0  0  0
  -16.5395  -29.9125   23.6342 C   0  0  0  0  0  0
  -16.7297  -28.6552   23.0341 C   0  0  0  0  0  0
  -26.4592  -31.6600   25.0779 C   0  0  0  0  0  0
  -25.3766  -31.3755   26.1448 C   0  0  0  0  0  0
  -27.0529  -30.3034   24.6329 C   0  0  0  0  0  0
  -27.6110  -32.4378   25.7592 C   0  0  0  0  0  0
  -27.5596  -37.1826   24.8444 C   0  0  0  0  0  0
  -21.4256  -29.3154   22.3598 N   0  0  0  0  0  0
  -26.4309  -37.3772   23.9387 N   0  0  0  0  0  0
  -24.7057  -31.0532   22.1001 N   0  0  0  0  0  0
  -23.4228  -28.8127   23.2900 O   0  0  0  0  0  0
  -28.2467  -26.2545   20.2355 O   0  0  0  0  0  0
  -26.5542  -34.8900   22.4558 O   0  0  0  0  0  0
  -23.5531  -32.1448   23.7264 O   0  0  0  0  0  0
  -29.1969  -19.4790   18.4252 C   0  0  0  0  0  0
  -29.5453  -17.0626   18.6225 C   0  0  0  0  0  0
  -29.6898  -18.4956   20.5920 C   0  0  0  0  0  0
  -29.2317  -18.1937   17.8323 C   0  0  0  0  0  0
  -29.4243  -19.7076   19.8087 C   0  0  0  0  0  0
  -29.7646  -17.1541   20.0159 C   0  0  0  0  0  0
  -29.2897  -23.1306   21.4929 C   0  0  0  0  0  0
  -28.7253  -23.5098   20.3331 C   0  0  0  0  0  0
  -29.6717  -21.7035   21.4650 C   0  0  0  0  0  0
  -28.7590  -22.2537   19.4424 C   0  0  0  0  0  0
  -27.3530  -18.3568   16.1398 C   0  0  0  0  0  0
  -29.7265  -18.8164   15.3845 C   0  0  0  0  0  0
  -27.8773  -24.8117   19.9354 C   0  0  0  0  0  0
  -28.8367  -18.0181   16.3530 C   0  0  0  0  0  0
  -29.3035  -21.1343   20.2790 N   0  0  0  0  0  0
  -29.8677  -15.8652   20.7536 N   0  0  0  0  0  0
  -30.2317  -21.1026   22.3861 O   0  0  0  0  0  0
  -28.9724  -16.7422   15.9896 F   0  0  0  0  0  0
  -31.4688  -12.5673   19.1545 H   0  0  0  0  0  0
  -30.3323  -11.4628   19.8845 H   0  0  0  0  0  0
  -29.7984  -11.8888   17.4362 H   0  0  0  0  0  0
  -29.6541  -13.5837   17.7794 H   0  0  0  0  0  0
  -27.8427  -11.3502   18.7777 H   0  0  0  0  0  0
  -27.3982  -12.6947   17.7660 H   0  0  0  0  0  0
  -27.6505  -14.2871   19.5273 H   0  0  0  0  0  0
  -28.7239  -12.1170   21.3812 H   0  0  0  0  0  0
  -28.4388  -13.7850   21.8241 H   0  0  0  0  0  0
  -25.2802   -9.5765   22.4645 H   0  0  0  0  0  0
  -24.0012   -7.4671   22.7422 H   0  0  0  0  0  0
  -21.0821   -8.8780   19.8870 H   0  0  0  0  0  0
  -22.3691  -10.9627   19.6043 H   0  0  0  0  0  0
  -21.2137   -7.6142   23.9741 H   0  0  0  0  0  0
  -21.1551   -6.0500   25.9084 H   0  0  0  0  0  0
  -22.0536   -2.7588   23.2855 H   0  0  0  0  0  0
  -22.4214  -11.9791   22.4648 H   0  0  0  0  0  0
  -21.1217  -13.1201   22.2636 H   0  0  0  0  0  0
  -24.6025  -15.7991   20.2835 H   0  0  0  0  0  0
  -26.2435  -15.5888   19.9586 H   0  0  0  0  0  0
  -26.7330  -32.5364   23.1110 H   0  0  0  0  0  0
  -25.0649  -33.9802   25.0691 H   0  0  0  0  0  0
  -22.7340  -31.3140   21.4002 H   0  0  0  0  0  0
  -23.3798  -35.9612   23.3191 H   0  0  0  0  0  0
  -24.3650  -36.9040   22.2071 H   0  0  0  0  0  0
  -23.7288  -37.6466   23.6740 H   0  0  0  0  0  0
  -26.1554  -31.5156   20.6337 H   0  0  0  0  0  0
  -26.8570  -30.7901   22.0438 H   0  0  0  0  0  0
  -28.0999  -28.8679   21.2654 H   0  0  0  0  0  0
  -25.9377  -25.9624   18.8823 H   0  0  0  0  0  0
  -23.9916  -27.3985   18.8946 H   0  0  0  0  0  0
  -23.8113  -30.6308   19.4202 H   0  0  0  0  0  0
  -22.7744  -29.2985   19.8181 H   0  0  0  0  0  0
  -25.1331  -36.1914   25.0817 H   0  0  0  0  0  0
  -20.9985  -28.3422   24.1325 H   0  0  0  0  0  0
  -20.5788  -26.2436   23.3608 H   0  0  0  0  0  0
  -21.6706  -26.7583   22.1116 H   0  0  0  0  0  0
  -19.6985  -25.6222   21.1370 H   0  0  0  0  0  0
  -19.6775  -27.3082   20.6640 H   0  0  0  0  0  0
  -17.4254  -26.6788   21.3908 H   0  0  0  0  0  0
  -18.0288  -26.0128   22.8942 H   0  0  0  0  0  0
  -19.7986  -30.7347   24.2199 H   0  0  0  0  0  0
  -17.5077  -31.6314   24.5155 H   0  0  0  0  0  0
  -15.5409  -30.3032   23.7697 H   0  0  0  0  0  0
  -15.8690  -28.0898   22.7038 H   0  0  0  0  0  0
  -24.6008  -30.7060   25.7730 H   0  0  0  0  0  0
  -24.8901  -32.2927   26.4765 H   0  0  0  0  0  0
  -25.8056  -30.9014   27.0282 H   0  0  0  0  0  0
  -26.3201  -29.6698   24.1329 H   0  0  0  0  0  0
  -27.4211  -29.7399   25.4909 H   0  0  0  0  0  0
  -27.9024  -30.4343   23.9632 H   0  0  0  0  0  0
  -27.2736  -33.3739   26.2039 H   0  0  0  0  0  0
  -28.3991  -32.6837   25.0468 H   0  0  0  0  0  0
  -28.0668  -31.8588   26.5633 H   0  0  0  0  0  0
  -28.2503  -38.0208   24.7560 H   0  0  0  0  0  0
  -28.1220  -36.2758   24.6188 H   0  0  0  0  0  0
  -27.2335  -37.1342   25.8841 H   0  0  0  0  0  0
  -20.9445  -29.9039   21.6955 H   0  0  0  0  0  0
  -26.0171  -38.2838   24.1353 H   0  0  0  0  0  0
  -28.9507  -20.3134   17.7816 H   0  0  0  0  0  0
  -29.5511  -16.0888   18.1605 H   0  0  0  0  0  0
  -29.8199  -18.5925   21.6594 H   0  0  0  0  0  0
  -29.3623  -23.7504   22.3754 H   0  0  0  0  0  0
  -29.4109  -22.4427   18.5882 H   0  0  0  0  0  0
  -27.7502  -22.0210   19.1012 H   0  0  0  0  0  0
  -27.1336  -19.3816   16.4289 H   0  0  0  0  0  0
  -26.7113  -17.7090   16.7373 H   0  0  0  0  0  0
  -27.0562  -18.2355   15.0960 H   0  0  0  0  0  0
  -29.7177  -19.8824   15.6093 H   0  0  0  0  0  0
  -29.3914  -18.6957   14.3523 H   0  0  0  0  0  0
  -30.7593  -18.4684   15.4169 H   0  0  0  0  0  0
  -26.8767  -24.5950   20.3299 H   0  0  0  0  0  0
  -27.7706  -24.7436   18.8484 H   0  0  0  0  0  0
  -29.0566  -15.6655   21.3196 H   0  0  0  0  0  0
  1 25  1  0  0  0
  1 30  2  0  0  0
  1 86  1  0  0  0
  2  3  1  0  0  0
  2 25  1  0  0  0
  2 89  1  0  0  0
  2 90  1  0  0  0
  3  4  1  0  0  0
  3 91  1  0  0  0
  3 92  1  0  0  0
  4  5  1  0  0  0
  4 93  1  0  0  0
  4 94  1  0  0  0
  5  6  1  0  0  0
  5 26  1  0  0  0
  5 95  1  0  0  0
  6 25  1  0  0  0
  6 96  1  0  0  0
  6 97  1  0  0  0
  7  8  2  0  0  0
  7 26  1  0  0  0
  7 29  1  0  0  0
  8  9  1  0  0  0
  8 22  1  0  0  0
  9 10  1  0  0  0
  9 27  2  0  0  0
 10 11  2  0  0  0
 10 15  1  0  0  0
 11 12  1  0  0  0
 11 98  1  0  0  0
 12 13  2  0  0  0
 12 99  1  0  0  0
 13 14  1  0  0  0
 13 31  1  0  0  0
 14 15  2  0  0  0
 14100  1  0  0  0
 15101  1  0  0  0
 16 17  2  0  0  0
 16 21  1  0  0  0
 16 31  1  0  0  0
 17 18  1  0  0  0
 17102  1  0  0  0
 18 19  2  0  0  0
 18103  1  0  0  0
 19 20  1  0  0  0
 19 24  1  0  0  0
 20 21  2  0  0  0
 20104  1  0  0  0
 21 23  1  0  0  0
 22 28  1  0  0  0
 22 32  2  0  0  0
 26 27  1  0  0  0
 28105  1  0  0  0
 28106  1  0  0  0
 29107  1  0  0  0
 29108  1  0  0  0
 33 34  1  0  0  0
 33 66  1  0  0  0
 33 70  2  0  0  0
 34 36  1  0  0  0
 34 59  1  0  0  0
 34109  1  0  0  0
 35 44  2  0  0  0
 35 45  1  0  0  0
 35 68  1  0  0  0
 36 56  1  0  0  0
 36110  1  0  0  0
 37 39  1  0  0  0
 37 47  1  0  0  0
 37 66  1  0  0  0
 37111  1  0  0  0
 38 43  2  0  0  0
 38 46  1  0  0  0
 38 47  1  0  0  0
 39 64  1  0  0  0
 39 67  2  0  0  0
 40 52  1  0  0  0
 40 53  2  0  0  0
 40 58  1  0  0  0
 41112  1  0  0  0
 41113  1  0  0  0
 41114  1  0  0  0
 41 48  1  0  0  0
 42 43  1  0  0  0
 42 66  1  0  0  0
 42115  1  0  0  0
 42116  1  0  0  0
 43 44  1  0  0  0
 44117  1  0  0  0
 45 46  2  0  0  0
 45118  1  0  0  0
 46119  1  0  0  0
 47120  1  0  0  0
 47121  1  0  0  0
 48 56  1  0  0  0
 48 65  1  0  0  0
 48122  1  0  0  0
 49 50  1  0  0  0
 49 53  1  0  0  0
 49 64  1  0  0  0
 49123  1  0  0  0
 50 51  1  0  0  0
 50124  1  0  0  0
 50125  1  0  0  0
 51 52  1  0  0  0
 51126  1  0  0  0
 51127  1  0  0  0
 52128  1  0  0  0
 52129  1  0  0  0
 53 54  1  0  0  0
 54 55  2  0  0  0
 54130  1  0  0  0
 55 57  1  0  0  0
 55131  1  0  0  0
 56 69  2  0  0  0
 57 58  2  0  0  0
 57132  1  0  0  0
 58133  1  0  0  0
 59 60  1  0  0  0
 59 61  1  0  0  0
 59 62  1  0  0  0
 60134  1  0  0  0
 60135  1  0  0  0
 60136  1  0  0  0
 61137  1  0  0  0
 61138  1  0  0  0
 61139  1  0  0  0
 62140  1  0  0  0
 62141  1  0  0  0
 62142  1  0  0  0
 63 65  1  0  0  0
 63143  1  0  0  0
 63144  1  0  0  0
 63145  1  0  0  0
 64146  1  0  0  0
 65147  1  0  0  0
 68 83  1  0  0  0
 71 74  2  0  0  0
 71 75  1  0  0  0
 71148  1  0  0  0
 72 74  1  0  0  0
 72 76  2  0  0  0
 72149  1  0  0  0
 73 75  2  0  0  0
 73 76  1  0  0  0
 73150  1  0  0  0
 74 84  1  0  0  0
 75 85  1  0  0  0
 76 86  1  0  0  0
 77 78  2  0  0  0
 77 79  1  0  0  0
 77151  1  0  0  0
 78 80  1  0  0  0
 78 83  1  0  0  0
 79 85  1  0  0  0
 79 87  2  0  0  0
 80 85  1  0  0  0
 80152  1  0  0  0
 80153  1  0  0  0
 81154  1  0  0  0
 81155  1  0  0  0
 81156  1  0  0  0
 81 84  1  0  0  0
 82 84  1  0  0  0
 82157  1  0  0  0
 82158  1  0  0  0
 82159  1  0  0  0
 83160  1  0  0  0
 83161  1  0  0  0
 84 88  1  0  0  0
 86162  1  0  0  0
M  ISO  4   1 100  68 101  83 101  86 100
M  END
> <chiral flag>
0

> <version>
0

> <s_m_source_file>
/data/baiqing/PycharmProjects/Reinvent-master-3.2/result/LINK_invent/BTK/process_docking_weight1_custom_product_contain_oxygen_bond_distance_aromatic_linkinvent_7_9_3/rearranged_h_0072.sdf

> <i_m_source_file_index>
21

> <r_mmod_Potential_Energy-OPLS-2005>
299.630645751953

> <r_mmod_Stretch_Energy-OPLS-2005>
137.978393554688

> <r_mmod_Bend_Energy-OPLS-2005>
228.13835144043

> <r_mmod_Torsional_Energy-OPLS-2005>
290.944274902344

> <r_mmod_Improper_Torsional_Energy-OPLS-2005>
8.17099380493164

> <r_mmod_Van_der_Waal_Energy-OPLS-2005>
140.48908996582

> <r_mmod_Electrostatic_Energy-OPLS-2005>
-384.686004638672

> <r_mmod_Solvation_Energy-OPLS-2005>
-222.561172485352

> <b_mmod_Minimization_Converged-OPLS-2005>
0

> <r_mmod_RMS_Derivative-OPLS-2005>
7.17033767700195

$$$$
21
                    3D
 Structure written by MMmdl.
156165  0  0  1  0            999 V2000
  -30.6107  -14.7346   20.4526 C   0  0  0  0  0  0
  -30.4322  -12.4377   19.4958 C   0  0  0  0  0  0
  -29.5183  -12.4954   18.2506 C   0  0  0  0  0  0
  -28.0422  -12.3274   18.6582 C   0  0  0  0  0  0
  -27.6477  -13.2305   19.8565 C   0  0  2  0  0  0
  -28.6857  -13.1606   20.9996 C   0  0  0  0  0  0
  -25.2529  -13.8212   20.5702 C   0  0  0  0  0  0
  -24.1802  -13.0460   20.9185 C   0  0  0  0  0  0
  -24.6386  -11.6938   20.8736 C   0  0  0  0  0  0
  -23.9059  -10.4311   21.0416 C   0  0  0  0  0  0
  -24.3617   -9.4220   21.9186 C   0  0  0  0  0  0
  -23.6305   -8.2241   22.0751 C   0  0  0  0  0  0
  -22.4275   -8.0286   21.3555 C   0  0  0  0  0  0
  -21.9902   -9.0251   20.4656 C   0  0  0  0  0  0
  -22.7226  -10.2135   20.3072 C   0  0  0  0  0  0
  -21.6843   -6.0738   22.5276 C   0  0  0  0  0  0
  -21.4008   -6.5636   23.8212 C   0  0  0  0  0  0
  -21.3659   -5.6793   24.9168 C   0  0  0  0  0  0
  -21.6044   -4.3054   24.7227 C   0  0  0  0  0  0
  -21.8810   -3.8149   23.4343 C   0  0  0  0  0  0
  -21.9184   -4.6964   22.3403 C   0  0  0  0  0  0
  -22.7817  -13.5243   21.1857 C   0  0  0  0  0  0
  -22.1658   -4.2156   21.0978 F   0  0  0  0  0  0
  -21.5640   -3.4541   25.7737 F   0  0  0  0  0  0
  -29.9943  -13.5014   20.4304 N   0  0  0  0  0  0
  -26.2957  -12.9418   20.3278 N   0  0  0  0  0  0
  -25.9318  -11.6562   20.5750 N   0  0  0  0  0  0
  -22.0446  -12.8247   22.0415 N   0  0  0  0  0  0
  -25.4260  -15.1929   20.4162 N   0  0  0  0  0  0
  -31.7810  -14.8383   20.0738 O   0  0  0  0  0  0
  -21.6636   -6.8882   21.4248 O   0  0  0  0  0  0
  -22.3504  -14.5546   20.6709 O   0  0  0  0  0  0
  -24.6351  -31.8552   23.1985 C   0  0  0  0  0  0
  -25.9157  -32.4752   23.8338 C   0  0  1  0  0  0
  -27.2041  -27.2297   20.1295 C   0  0  0  0  0  0
  -25.5950  -33.8557   24.2248 N   0  0  0  0  0  0
  -23.4319  -30.4816   21.5424 C   0  0  2  0  0  0
  -24.8776  -28.9355   20.1069 C   0  0  0  0  0  0
  -22.7520  -29.4603   22.4887 C   0  0  0  0  0  0
  -18.0294  -28.1380   22.8474 C   0  0  0  0  0  0
  -24.1495  -36.7278   23.2635 C   0  0  0  0  0  0
  -25.9849  -30.7558   21.3893 C   0  0  0  0  0  0
  -26.0529  -29.3792   20.7268 C   0  0  0  0  0  0
  -27.2180  -28.5383   20.7330 C   0  0  0  0  0  0
  -26.0076  -26.8864   19.4531 C   0  0  0  0  0  0
  -24.8629  -27.6970   19.4590 C   0  0  0  0  0  0
  -23.6521  -29.8255   20.1559 C   0  0  0  0  0  0
  -25.4121  -36.3061   24.0318 C   0  0  1  0  0  0
  -20.5907  -28.3694   23.1256 C   0  0  2  0  0  0
  -20.6786  -26.9411   22.5399 C   0  0  0  0  0  0
  -19.5758  -26.6378   21.5200 C   0  0  0  0  0  0
  -18.1938  -26.7918   22.1613 C   0  0  0  0  0  0
  -19.1554  -28.8852   23.2860 C   0  0  0  0  0  0
  -18.9474  -30.1454   23.8886 C   0  0  0  0  0  0
  -17.6477  -30.6584   24.0553 C   0  0  0  0  0  0
  -25.9064  -34.9436   23.5088 C   0  0  0  0  0  0
  -16.5366  -29.9082   23.6335 C   0  0  0  0  0  0
  -16.7283  -28.6496   23.0358 C   0  0  0  0  0  0
  -26.4504  -31.6589   25.0747 C   0  0  0  0  0  0
  -25.3707  -31.3783   26.1456 C   0  0  0  0  0  0
  -27.0346  -30.2988   24.6287 C   0  0  0  0  0  0
  -27.6051  -32.4341   25.7511 C   0  0  0  0  0  0
  -27.5583  -37.1789   24.8458 C   0  0  0  0  0  0
  -21.4219  -29.3043   22.3635 N   0  0  0  0  0  0
  -26.4288  -37.3765   23.9408 N   0  0  0  0  0  0
  -24.7027  -31.0503   22.0980 N   0  0  0  0  0  0
  -23.4218  -28.8126   23.2978 O   0  0  0  0  0  0
  -28.2528  -26.2669   20.2213 O   0  0  0  0  0  0
  -26.5641  -34.8916   22.4654 O   0  0  0  0  0  0
  -23.5494  -32.1382   23.7258 O   0  0  0  0  0  0
  -29.7048  -18.2879   17.8691 C   0  0  0  0  0  0
  -29.4672  -19.5428   18.4593 C   0  0  0  0  0  0
  -29.8809  -17.1314   18.6482 C   0  0  0  0  0  0
  -29.5801  -18.4905   20.6506 C   0  0  0  0  0  0
  -29.4122  -19.7135   19.8620 C   0  0  0  0  0  0
  -29.8152  -17.1717   20.0584 C   0  0  0  0  0  0
  -29.6492  -23.2433   21.1998 C   0  0  0  0  0  0
  -28.6895  -23.5032   20.2971 C   0  0  0  0  0  0
  -29.9790  -21.7976   21.2276 C   0  0  0  0  0  0
  -28.3305  -22.1392   19.6710 C   0  0  0  0  0  0
  -30.3480  -24.2427   22.1021 C   0  0  0  0  0  0
  -27.8935  -24.8317   19.8925 C   0  0  0  0  0  0
  -29.1969  -21.1147   20.3449 N   0  0  0  0  0  0
  -29.8647  -15.8634   20.7647 N   0  0  0  0  0  0
  -30.8320  -21.2691   21.9479 O   0  0  0  0  0  0
  -31.4779  -12.5449   19.2011 H   0  0  0  0  0  0
  -30.3648  -11.4619   19.9817 H   0  0  0  0  0  0
  -29.8003  -11.7143   17.5434 H   0  0  0  0  0  0
  -29.6552  -13.4441   17.7295 H   0  0  0  0  0  0
  -27.8942  -11.2804   18.9235 H   0  0  0  0  0  0
  -27.3875  -12.5198   17.8086 H   0  0  0  0  0  0
  -27.6505  -14.2520   19.4736 H   0  0  0  0  0  0
  -28.7092  -12.1640   21.4439 H   0  0  0  0  0  0
  -28.4175  -13.8462   21.8039 H   0  0  0  0  0  0
  -25.2763   -9.5699   22.4753 H   0  0  0  0  0  0
  -24.0025   -7.4619   22.7458 H   0  0  0  0  0  0
  -21.0831   -8.8767   19.8961 H   0  0  0  0  0  0
  -22.3684  -10.9670   19.6188 H   0  0  0  0  0  0
  -21.2001   -7.6140   23.9721 H   0  0  0  0  0  0
  -21.1496   -6.0517   25.9073 H   0  0  0  0  0  0
  -22.0595   -2.7614   23.2829 H   0  0  0  0  0  0
  -22.4079  -11.9938   22.4847 H   0  0  0  0  0  0
  -21.1068  -13.1292   22.2638 H   0  0  0  0  0  0
  -24.6687  -15.8549   20.5449 H   0  0  0  0  0  0
  -26.2831  -15.6281   20.1017 H   0  0  0  0  0  0
  -26.7223  -32.5386   23.1071 H   0  0  0  0  0  0
  -25.0060  -33.9689   25.0373 H   0  0  0  0  0  0
  -22.7290  -31.3053   21.3987 H   0  0  0  0  0  0
  -23.3758  -35.9608   23.3285 H   0  0  0  0  0  0
  -24.3586  -36.8920   22.2054 H   0  0  0  0  0  0
  -23.7253  -37.6475   23.6675 H   0  0  0  0  0  0
  -26.1406  -31.5182   20.6246 H   0  0  0  0  0  0
  -26.8553  -30.7953   22.0321 H   0  0  0  0  0  0
  -28.1084  -28.8656   21.2505 H   0  0  0  0  0  0
  -25.8977  -25.9554   18.9195 H   0  0  0  0  0  0
  -23.9673  -27.3541   18.9592 H   0  0  0  0  0  0
  -23.7822  -30.6057   19.4051 H   0  0  0  0  0  0
  -22.7690  -29.2638   19.8446 H   0  0  0  0  0  0
  -25.1303  -36.1892   25.0810 H   0  0  0  0  0  0
  -21.0006  -28.3274   24.1371 H   0  0  0  0  0  0
  -20.5677  -26.2305   23.3604 H   0  0  0  0  0  0
  -21.6658  -26.7418   22.1207 H   0  0  0  0  0  0
  -19.6922  -25.6283   21.1244 H   0  0  0  0  0  0
  -19.6703  -27.3177   20.6724 H   0  0  0  0  0  0
  -17.4207  -26.6658   21.4020 H   0  0  0  0  0  0
  -18.0346  -26.0070   22.9023 H   0  0  0  0  0  0
  -19.7955  -30.7261   24.2269 H   0  0  0  0  0  0
  -17.5034  -31.6273   24.5139 H   0  0  0  0  0  0
  -15.5366  -30.2979   23.7666 H   0  0  0  0  0  0
  -15.8682  -28.0808   22.7092 H   0  0  0  0  0  0
  -24.5857  -30.7161   25.7785 H   0  0  0  0  0  0
  -24.8934  -32.2982   26.4853 H   0  0  0  0  0  0
  -25.8007  -30.8969   27.0249 H   0  0  0  0  0  0
  -26.2952  -29.6734   24.1277 H   0  0  0  0  0  0
  -27.3944  -29.7268   25.4847 H   0  0  0  0  0  0
  -27.8873  -30.4221   23.9605 H   0  0  0  0  0  0
  -27.2631  -33.3620   26.2107 H   0  0  0  0  0  0
  -28.3841  -32.6943   25.0331 H   0  0  0  0  0  0
  -28.0740  -31.8465   26.5410 H   0  0  0  0  0  0
  -28.2589  -38.0096   24.7515 H   0  0  0  0  0  0
  -28.1091  -36.2631   24.6262 H   0  0  0  0  0  0
  -27.2310  -37.1417   25.8863 H   0  0  0  0  0  0
  -20.9399  -29.8786   21.6860 H   0  0  0  0  0  0
  -26.0162  -38.2831   24.1421 H   0  0  0  0  0  0
  -29.7417  -18.2056   16.7917 H   0  0  0  0  0  0
  -29.3521  -20.3878   17.7967 H   0  0  0  0  0  0
  -30.0282  -16.1922   18.1333 H   0  0  0  0  0  0
  -29.5142  -18.5658   21.7263 H   0  0  0  0  0  0
  -28.4899  -22.1913   18.5941 H   0  0  0  0  0  0
  -27.2805  -21.9062   19.8521 H   0  0  0  0  0  0
  -29.8878  -25.2283   22.0439 H   0  0  0  0  0  0
  -31.3942  -24.3347   21.8076 H   0  0  0  0  0  0
  -30.3171  -23.9122   23.1405 H   0  0  0  0  0  0
  -26.9056  -24.6287   20.3103 H   0  0  0  0  0  0
  -27.7923  -24.7813   18.8078 H   0  0  0  0  0  0
  -29.0520  -15.6651   21.3307 H   0  0  0  0  0  0
  1 25  1  0  0  0
  1 30  2  0  0  0
  1 84  1  0  0  0
  2  3  1  0  0  0
  2 25  1  0  0  0
  2 86  1  0  0  0
  2 87  1  0  0  0
  3  4  1  0  0  0
  3 88  1  0  0  0
  3 89  1  0  0  0
  4  5  1  0  0  0
  4 90  1  0  0  0
  4 91  1  0  0  0
  5  6  1  0  0  0
  5 26  1  0  0  0
  5 92  1  0  0  0
  6 25  1  0  0  0
  6 93  1  0  0  0
  6 94  1  0  0  0
  7  8  2  0  0  0
  7 26  1  0  0  0
  7 29  1  0  0  0
  8  9  1  0  0  0
  8 22  1  0  0  0
  9 10  1  0  0  0
  9 27  2  0  0  0
 10 11  2  0  0  0
 10 15  1  0  0  0
 11 12  1  0  0  0
 11 95  1  0  0  0
 12 13  2  0  0  0
 12 96  1  0  0  0
 13 14  1  0  0  0
 13 31  1  0  0  0
 14 15  2  0  0  0
 14 97  1  0  0  0
 15 98  1  0  0  0
 16 17  2  0  0  0
 16 21  1  0  0  0
 16 31  1  0  0  0
 17 18  1  0  0  0
 17 99  1  0  0  0
 18 19  2  0  0  0
 18100  1  0  0  0
 19 20  1  0  0  0
 19 24  1  0  0  0
 20 21  2  0  0  0
 20101  1  0  0  0
 21 23  1  0  0  0
 22 28  1  0  0  0
 22 32  2  0  0  0
 26 27  1  0  0  0
 28102  1  0  0  0
 28103  1  0  0  0
 29104  1  0  0  0
 29105  1  0  0  0
 33 34  1  0  0  0
 33 66  1  0  0  0
 33 70  2  0  0  0
 34 36  1  0  0  0
 34 59  1  0  0  0
 34106  1  0  0  0
 35 44  2  0  0  0
 35 45  1  0  0  0
 35 68  1  0  0  0
 36 56  1  0  0  0
 36107  1  0  0  0
 37 39  1  0  0  0
 37 47  1  0  0  0
 37 66  1  0  0  0
 37108  1  0  0  0
 38 43  2  0  0  0
 38 46  1  0  0  0
 38 47  1  0  0  0
 39 64  1  0  0  0
 39 67  2  0  0  0
 40 52  1  0  0  0
 40 53  2  0  0  0
 40 58  1  0  0  0
 41109  1  0  0  0
 41110  1  0  0  0
 41111  1  0  0  0
 41 48  1  0  0  0
 42 43  1  0  0  0
 42 66  1  0  0  0
 42112  1  0  0  0
 42113  1  0  0  0
 43 44  1  0  0  0
 44114  1  0  0  0
 45 46  2  0  0  0
 45115  1  0  0  0
 46116  1  0  0  0
 47117  1  0  0  0
 47118  1  0  0  0
 48 56  1  0  0  0
 48 65  1  0  0  0
 48119  1  0  0  0
 49 50  1  0  0  0
 49 53  1  0  0  0
 49 64  1  0  0  0
 49120  1  0  0  0
 50 51  1  0  0  0
 50121  1  0  0  0
 50122  1  0  0  0
 51 52  1  0  0  0
 51123  1  0  0  0
 51124  1  0  0  0
 52125  1  0  0  0
 52126  1  0  0  0
 53 54  1  0  0  0
 54 55  2  0  0  0
 54127  1  0  0  0
 55 57  1  0  0  0
 55128  1  0  0  0
 56 69  2  0  0  0
 57 58  2  0  0  0
 57129  1  0  0  0
 58130  1  0  0  0
 59 60  1  0  0  0
 59 61  1  0  0  0
 59 62  1  0  0  0
 60131  1  0  0  0
 60132  1  0  0  0
 60133  1  0  0  0
 61134  1  0  0  0
 61135  1  0  0  0
 61136  1  0  0  0
 62137  1  0  0  0
 62138  1  0  0  0
 62139  1  0  0  0
 63 65  1  0  0  0
 63140  1  0  0  0
 63141  1  0  0  0
 63142  1  0  0  0
 64143  1  0  0  0
 65144  1  0  0  0
 68 82  1  0  0  0
 71 72  2  0  0  0
 71 73  1  0  0  0
 71145  1  0  0  0
 72 75  1  0  0  0
 72146  1  0  0  0
 73 76  2  0  0  0
 73147  1  0  0  0
 74 75  2  0  0  0
 74 76  1  0  0  0
 74148  1  0  0  0
 75 83  1  0  0  0
 76 84  1  0  0  0
 77 78  2  0  0  0
 77 79  1  0  0  0
 77 81  1  0  0  0
 78 80  1  0  0  0
 78 82  1  0  0  0
 79 83  1  0  0  0
 79 85  2  0  0  0
 80 83  1  0  0  0
 80149  1  0  0  0
 80150  1  0  0  0
 81151  1  0  0  0
 81152  1  0  0  0
 81153  1  0  0  0
 82154  1  0  0  0
 82155  1  0  0  0
 84156  1  0  0  0
M  ISO  4   1 100  68 101  82 101  84 100
M  END
> <chiral flag>
0

> <version>
0

> <s_m_source_file>
/data/baiqing/PycharmProjects/Reinvent-master-3.2/result/LINK_invent/BTK/process_docking_weight1_custom_product_contain_oxygen_bond_distance_aromatic_linkinvent_7_9_3/rearranged_h_0072.sdf

> <i_m_source_file_index>
22

> <r_mmod_Potential_Energy-OPLS-2005>
332.748870849609

> <r_mmod_Stretch_Energy-OPLS-2005>
129.805328369141

> <r_mmod_Bend_Energy-OPLS-2005>
224.906005859375

> <r_mmod_Torsional_Energy-OPLS-2005>
281.692108154297

> <r_mmod_Improper_Torsional_Energy-OPLS-2005>
5.53366851806641

> <r_mmod_Van_der_Waal_Energy-OPLS-2005>
140.008651733398

> <r_mmod_Electrostatic_Energy-OPLS-2005>
-322.332000732422

> <r_mmod_Solvation_Energy-OPLS-2005>
-225.608795166016

> <b_mmod_Minimization_Converged-OPLS-2005>
0

> <r_mmod_RMS_Derivative-OPLS-2005>
2.42052388191223

$$$$
22
                    3D
 Structure written by MMmdl.
159168  0  0  1  0            999 V2000
  -30.6189  -14.7441   20.3973 C   0  0  0  0  0  0
  -30.4562  -12.4217   19.4868 C   0  0  0  0  0  0
  -29.5287  -12.3699   18.2508 C   0  0  0  0  0  0
  -28.0369  -12.2967   18.6531 C   0  0  0  0  0  0
  -27.6418  -13.2079   19.8519 C   0  0  2  0  0  0
  -28.7004  -13.1575   20.9703 C   0  0  0  0  0  0
  -25.2519  -13.8079   20.5668 C   0  0  0  0  0  0
  -24.1803  -13.0377   20.9258 C   0  0  0  0  0  0
  -24.6362  -11.6850   20.8802 C   0  0  0  0  0  0
  -23.9021  -10.4249   21.0447 C   0  0  0  0  0  0
  -24.3586   -9.4162   21.9209 C   0  0  0  0  0  0
  -23.6261   -8.2194   22.0757 C   0  0  0  0  0  0
  -22.4243   -8.0249   21.3546 C   0  0  0  0  0  0
  -21.9895   -9.0224   20.4647 C   0  0  0  0  0  0
  -22.7214  -10.2105   20.3073 C   0  0  0  0  0  0
  -21.6841   -6.0710   22.5279 C   0  0  0  0  0  0
  -21.4018   -6.5615   23.8211 C   0  0  0  0  0  0
  -21.3673   -5.6771   24.9181 C   0  0  0  0  0  0
  -21.6047   -4.3038   24.7237 C   0  0  0  0  0  0
  -21.8811   -3.8119   23.4357 C   0  0  0  0  0  0
  -21.9191   -4.6929   22.3409 C   0  0  0  0  0  0
  -22.7836  -13.5201   21.1876 C   0  0  0  0  0  0
  -22.1655   -4.2109   21.0987 F   0  0  0  0  0  0
  -21.5640   -3.4528   25.7756 F   0  0  0  0  0  0
  -29.9890  -13.5171   20.3618 N   0  0  0  0  0  0
  -26.2951  -12.9240   20.3364 N   0  0  0  0  0  0
  -25.9291  -11.6410   20.5828 N   0  0  0  0  0  0
  -22.0473  -12.8210   22.0448 N   0  0  0  0  0  0
  -25.4141  -15.1753   20.3829 N   0  0  0  0  0  0
  -31.8463  -14.7987   20.2710 O   0  0  0  0  0  0
  -21.6618   -6.8847   21.4234 O   0  0  0  0  0  0
  -22.3551  -14.5509   20.6708 O   0  0  0  0  0  0
  -24.6275  -31.8602   23.2034 C   0  0  0  0  0  0
  -25.9119  -32.4786   23.8368 C   0  0  1  0  0  0
  -27.2213  -27.2983   20.1287 C   0  0  0  0  0  0
  -25.5936  -33.8587   24.2300 N   0  0  0  0  0  0
  -23.4224  -30.4851   21.5457 C   0  0  2  0  0  0
  -24.8716  -28.9418   20.1082 C   0  0  0  0  0  0
  -22.7484  -29.4635   22.4934 C   0  0  0  0  0  0
  -18.0290  -28.1390   22.8492 C   0  0  0  0  0  0
  -24.1489  -36.7290   23.2635 C   0  0  0  0  0  0
  -25.9664  -30.7851   21.3801 C   0  0  0  0  0  0
  -26.0399  -29.4118   20.7216 C   0  0  0  0  0  0
  -27.2166  -28.6006   20.7249 C   0  0  0  0  0  0
  -26.0342  -26.8983   19.4705 C   0  0  0  0  0  0
  -24.8731  -27.6922   19.4724 C   0  0  0  0  0  0
  -23.6389  -29.8226   20.1595 C   0  0  0  0  0  0
  -25.4110  -36.3091   24.0337 C   0  0  1  0  0  0
  -20.5893  -28.3705   23.1273 C   0  0  2  0  0  0
  -20.6791  -26.9429   22.5402 C   0  0  0  0  0  0
  -19.5762  -26.6397   21.5215 C   0  0  0  0  0  0
  -18.1943  -26.7931   22.1628 C   0  0  0  0  0  0
  -19.1543  -28.8867   23.2880 C   0  0  0  0  0  0
  -18.9464  -30.1464   23.8901 C   0  0  0  0  0  0
  -17.6462  -30.6594   24.0567 C   0  0  0  0  0  0
  -25.9048  -34.9461   23.5126 C   0  0  0  0  0  0
  -16.5354  -29.9091   23.6333 C   0  0  0  0  0  0
  -16.7277  -28.6509   23.0360 C   0  0  0  0  0  0
  -26.4503  -31.6584   25.0730 C   0  0  0  0  0  0
  -25.3734  -31.3722   26.1455 C   0  0  0  0  0  0
  -27.0353  -30.3004   24.6196 C   0  0  0  0  0  0
  -27.6068  -32.4317   25.7502 C   0  0  0  0  0  0
  -27.5585  -37.1792   24.8465 C   0  0  0  0  0  0
  -21.4198  -29.3052   22.3665 N   0  0  0  0  0  0
  -26.4287  -37.3785   23.9420 N   0  0  0  0  0  0
  -24.6914  -31.0592   22.0999 N   0  0  0  0  0  0
  -23.4193  -28.8181   23.3028 O   0  0  0  0  0  0
  -28.3232  -26.4204   20.2101 O   0  0  0  0  0  0
  -26.5612  -34.8927   22.4684 O   0  0  0  0  0  0
  -23.5432  -32.1425   23.7334 O   0  0  0  0  0  0
  -30.5631  -19.6085   19.8272 C   0  0  0  0  0  0
  -30.7491  -18.1938   19.7615 C   0  0  0  0  0  0
  -28.8020  -19.3087   21.3576 C   0  0  0  0  0  0
  -28.9539  -17.8766   21.3088 C   0  0  0  0  0  0
  -29.5467  -20.2560   20.5877 C   0  0  0  0  0  0
  -29.9234  -17.2594   20.4516 C   0  0  0  0  0  0
  -29.6936  -22.7758   19.7166 C   0  0  0  0  0  0
  -28.4001  -22.5695   21.2557 C   0  0  0  0  0  0
  -28.0830  -17.0633   22.2003 C   0  0  0  0  0  0
  -29.0686  -23.8567   20.6607 C   0  0  0  0  0  0
  -26.6490  -17.5415   22.4041 C   0  0  0  0  0  0
  -29.6678  -15.8382   18.5158 C   0  0  0  0  0  0
  -28.0896  -24.9532   20.0295 C   0  0  0  0  0  0
  -29.3074  -21.7187   20.5801 N   0  0  0  0  0  0
  -29.8689  -15.8472   19.9802 N   0  0  0  0  0  0
  -30.2850  -22.7684   18.6550 O   0  0  0  0  0  0
  -27.4773  -22.3200   22.0062 O   0  0  0  0  0  0
  -28.4715  -16.0512   22.7865 O   0  0  0  0  0  0
  -31.4920  -12.5603   19.1727 H   0  0  0  0  0  0
  -30.4367  -11.4757   20.0317 H   0  0  0  0  0  0
  -29.7777  -11.4892   17.6566 H   0  0  0  0  0  0
  -29.7270  -13.2095   17.5896 H   0  0  0  0  0  0
  -27.8465  -11.2574   18.9240 H   0  0  0  0  0  0
  -27.3977  -12.4997   17.7927 H   0  0  0  0  0  0
  -27.6114  -14.2272   19.4891 H   0  0  0  0  0  0
  -28.7464  -12.1613   21.4107 H   0  0  0  0  0  0
  -28.4390  -13.8331   21.7802 H   0  0  0  0  0  0
  -25.2733   -9.5606   22.4802 H   0  0  0  0  0  0
  -23.9955   -7.4574   22.7463 H   0  0  0  0  0  0
  -21.0834   -8.8736   19.8945 H   0  0  0  0  0  0
  -22.3683  -10.9646   19.6182 H   0  0  0  0  0  0
  -21.2010   -7.6119   23.9700 H   0  0  0  0  0  0
  -21.1519   -6.0518   25.9087 H   0  0  0  0  0  0
  -22.0587   -2.7574   23.2876 H   0  0  0  0  0  0
  -22.4108  -11.9851   22.4787 H   0  0  0  0  0  0
  -21.1099  -13.1235   22.2692 H   0  0  0  0  0  0
  -24.6092  -15.7912   20.4018 H   0  0  0  0  0  0
  -26.2085  -15.5754   19.9028 H   0  0  0  0  0  0
  -26.7193  -32.5461   23.1118 H   0  0  0  0  0  0
  -25.0102  -33.9743   25.0465 H   0  0  0  0  0  0
  -22.7168  -31.3061   21.4033 H   0  0  0  0  0  0
  -23.3762  -35.9610   23.3294 H   0  0  0  0  0  0
  -24.3585  -36.8906   22.2051 H   0  0  0  0  0  0
  -23.7230  -37.6488   23.6652 H   0  0  0  0  0  0
  -26.1010  -31.5484   20.6113 H   0  0  0  0  0  0
  -26.8449  -30.8325   22.0122 H   0  0  0  0  0  0
  -28.1087  -28.9523   21.2265 H   0  0  0  0  0  0
  -25.9696  -25.9507   18.9554 H   0  0  0  0  0  0
  -23.9805  -27.3296   18.9798 H   0  0  0  0  0  0
  -23.7573  -30.6022   19.4065 H   0  0  0  0  0  0
  -22.7587  -29.2530   19.8566 H   0  0  0  0  0  0
  -25.1285  -36.1951   25.0827 H   0  0  0  0  0  0
  -20.9986  -28.3296   24.1394 H   0  0  0  0  0  0
  -20.5730  -26.2319   23.3611 H   0  0  0  0  0  0
  -21.6658  -26.7492   22.1175 H   0  0  0  0  0  0
  -19.6934  -25.6313   21.1248 H   0  0  0  0  0  0
  -19.6690  -27.3213   20.6753 H   0  0  0  0  0  0
  -17.4214  -26.6681   21.4030 H   0  0  0  0  0  0
  -18.0341  -26.0071   22.9026 H   0  0  0  0  0  0
  -19.7939  -30.7279   24.2276 H   0  0  0  0  0  0
  -17.5017  -31.6273   24.5166 H   0  0  0  0  0  0
  -15.5356  -30.2994   23.7653 H   0  0  0  0  0  0
  -15.8677  -28.0822   22.7074 H   0  0  0  0  0  0
  -24.5891  -30.7097   25.7775 H   0  0  0  0  0  0
  -24.8946  -32.2892   26.4902 H   0  0  0  0  0  0
  -25.8041  -30.8872   27.0222 H   0  0  0  0  0  0
  -26.2939  -29.6738   24.1217 H   0  0  0  0  0  0
  -27.4051  -29.7268   25.4706 H   0  0  0  0  0  0
  -27.8817  -30.4286   23.9439 H   0  0  0  0  0  0
  -27.2687  -33.3623   26.2073 H   0  0  0  0  0  0
  -28.3882  -32.6856   25.0327 H   0  0  0  0  0  0
  -28.0735  -31.8443   26.5420 H   0  0  0  0  0  0
  -28.2581  -38.0111   24.7544 H   0  0  0  0  0  0
  -28.1103  -36.2643   24.6252 H   0  0  0  0  0  0
  -27.2308  -37.1399   25.8867 H   0  0  0  0  0  0
  -20.9383  -29.8751   21.6848 H   0  0  0  0  0  0
  -26.0177  -38.2860   24.1419 H   0  0  0  0  0  0
  -31.2166  -20.2168   19.2208 H   0  0  0  0  0  0
  -31.5005  -17.8221   19.0799 H   0  0  0  0  0  0
  -28.0392  -19.7162   22.0053 H   0  0  0  0  0  0
  -29.7887  -24.2971   21.3479 H   0  0  0  0  0  0
  -26.0001  -16.6957   22.6249 H   0  0  0  0  0  0
  -26.2738  -18.0306   21.5050 H   0  0  0  0  0  0
  -26.5963  -18.2439   23.2345 H   0  0  0  0  0  0
  -30.6100  -15.6824   17.9844 H   0  0  0  0  0  0
  -29.2522  -16.7750   18.1444 H   0  0  0  0  0  0
  -28.9677  -15.0854   18.1798 H   0  0  0  0  0  0
  -27.0943  -24.7298   20.4153 H   0  0  0  0  0  0
  -28.0197  -24.7882   18.9533 H   0  0  0  0  0  0
  1 25  1  0  0  0
  1 30  2  0  0  0
  1 85  1  0  0  0
  2  3  1  0  0  0
  2 25  1  0  0  0
  2 89  1  0  0  0
  2 90  1  0  0  0
  3  4  1  0  0  0
  3 91  1  0  0  0
  3 92  1  0  0  0
  4  5  1  0  0  0
  4 93  1  0  0  0
  4 94  1  0  0  0
  5  6  1  0  0  0
  5 26  1  0  0  0
  5 95  1  0  0  0
  6 25  1  0  0  0
  6 96  1  0  0  0
  6 97  1  0  0  0
  7  8  2  0  0  0
  7 26  1  0  0  0
  7 29  1  0  0  0
  8  9  1  0  0  0
  8 22  1  0  0  0
  9 10  1  0  0  0
  9 27  2  0  0  0
 10 11  2  0  0  0
 10 15  1  0  0  0
 11 12  1  0  0  0
 11 98  1  0  0  0
 12 13  2  0  0  0
 12 99  1  0  0  0
 13 14  1  0  0  0
 13 31  1  0  0  0
 14 15  2  0  0  0
 14100  1  0  0  0
 15101  1  0  0  0
 16 17  2  0  0  0
 16 21  1  0  0  0
 16 31  1  0  0  0
 17 18  1  0  0  0
 17102  1  0  0  0
 18 19  2  0  0  0
 18103  1  0  0  0
 19 20  1  0  0  0
 19 24  1  0  0  0
 20 21  2  0  0  0
 20104  1  0  0  0
 21 23  1  0  0  0
 22 28  1  0  0  0
 22 32  2  0  0  0
 26 27  1  0  0  0
 28105  1  0  0  0
 28106  1  0  0  0
 29107  1  0  0  0
 29108  1  0  0  0
 33 34  1  0  0  0
 33 66  1  0  0  0
 33 70  2  0  0  0
 34 36  1  0  0  0
 34 59  1  0  0  0
 34109  1  0  0  0
 35 44  2  0  0  0
 35 45  1  0  0  0
 35 68  1  0  0  0
 36 56  1  0  0  0
 36110  1  0  0  0
 37 39  1  0  0  0
 37 47  1  0  0  0
 37 66  1  0  0  0
 37111  1  0  0  0
 38 43  2  0  0  0
 38 46  1  0  0  0
 38 47  1  0  0  0
 39 64  1  0  0  0
 39 67  2  0  0  0
 40 52  1  0  0  0
 40 53  2  0  0  0
 40 58  1  0  0  0
 41112  1  0  0  0
 41113  1  0  0  0
 41114  1  0  0  0
 41 48  1  0  0  0
 42 43  1  0  0  0
 42 66  1  0  0  0
 42115  1  0  0  0
 42116  1  0  0  0
 43 44  1  0  0  0
 44117  1  0  0  0
 45 46  2  0  0  0
 45118  1  0  0  0
 46119  1  0  0  0
 47120  1  0  0  0
 47121  1  0  0  0
 48 56  1  0  0  0
 48 65  1  0  0  0
 48122  1  0  0  0
 49 50  1  0  0  0
 49 53  1  0  0  0
 49 64  1  0  0  0
 49123  1  0  0  0
 50 51  1  0  0  0
 50124  1  0  0  0
 50125  1  0  0  0
 51 52  1  0  0  0
 51126  1  0  0  0
 51127  1  0  0  0
 52128  1  0  0  0
 52129  1  0  0  0
 53 54  1  0  0  0
 54 55  2  0  0  0
 54130  1  0  0  0
 55 57  1  0  0  0
 55131  1  0  0  0
 56 69  2  0  0  0
 57 58  2  0  0  0
 57132  1  0  0  0
 58133  1  0  0  0
 59 60  1  0  0  0
 59 61  1  0  0  0
 59 62  1  0  0  0
 60134  1  0  0  0
 60135  1  0  0  0
 60136  1  0  0  0
 61137  1  0  0  0
 61138  1  0  0  0
 61139  1  0  0  0
 62140  1  0  0  0
 62141  1  0  0  0
 62142  1  0  0  0
 63 65  1  0  0  0
 63143  1  0  0  0
 63144  1  0  0  0
 63145  1  0  0  0
 64146  1  0  0  0
 65147  1  0  0  0
 68 83  1  0  0  0
 71 72  2  0  0  0
 71 75  1  0  0  0
 71148  1  0  0  0
 72 76  1  0  0  0
 72149  1  0  0  0
 73 74  1  0  0  0
 73 75  2  0  0  0
 73150  1  0  0  0
 74 76  2  0  0  0
 74 79  1  0  0  0
 75 84  1  0  0  0
 76 85  1  0  0  0
 77 80  1  0  0  0
 77 84  1  0  0  0
 77 86  2  0  0  0
 78 80  1  0  0  0
 78 84  1  0  0  0
 78 87  2  0  0  0
 79 81  1  0  0  0
 79 88  2  0  0  0
 80 83  1  0  0  0
 80151  1  0  0  0
 81152  1  0  0  0
 81153  1  0  0  0
 81154  1  0  0  0
 82 85  1  0  0  0
 82155  1  0  0  0
 82156  1  0  0  0
 82157  1  0  0  0
 83158  1  0  0  0
 83159  1  0  0  0
M  ISO  4   1 100  68 101  83 101  85 100
M  END
> <chiral flag>
0

> <version>
0

> <s_m_source_file>
/data/baiqing/PycharmProjects/Reinvent-master-3.2/result/LINK_invent/BTK/process_docking_weight1_custom_product_contain_oxygen_bond_distance_aromatic_linkinvent_7_9_3/rearranged_h_0072.sdf

> <i_m_source_file_index>
23

> <r_mmod_Potential_Energy-OPLS-2005>
290.165130615234

> <r_mmod_Stretch_Energy-OPLS-2005>
104.361015319824

> <r_mmod_Bend_Energy-OPLS-2005>
179.486511230469

> <r_mmod_Torsional_Energy-OPLS-2005>
358.237854003906

> <r_mmod_Improper_Torsional_Energy-OPLS-2005>
28.6901683807373

> <r_mmod_Van_der_Waal_Energy-OPLS-2005>
147.25993347168

> <r_mmod_Electrostatic_Energy-OPLS-2005>
-394.506988525391

> <r_mmod_Solvation_Energy-OPLS-2005>
-219.876998901367

> <b_mmod_Minimization_Converged-OPLS-2005>
0

> <r_mmod_RMS_Derivative-OPLS-2005>
3.00108551979065

$$$$
23
                    3D
 Structure written by MMmdl.
160169  0  0  1  0            999 V2000
  -30.5996  -14.6926   20.4992 C   0  0  0  0  0  0
  -30.4454  -12.4296   19.4572 C   0  0  0  0  0  0
  -29.5156  -12.5235   18.2248 C   0  0  0  0  0  0
  -28.0382  -12.3484   18.6337 C   0  0  0  0  0  0
  -27.6515  -13.2210   19.8580 C   0  0  2  0  0  0
  -28.6949  -13.0927   20.9893 C   0  0  0  0  0  0
  -25.2536  -13.8176   20.5657 C   0  0  0  0  0  0
  -24.1810  -13.0438   20.9175 C   0  0  0  0  0  0
  -24.6391  -11.6911   20.8734 C   0  0  0  0  0  0
  -23.9066  -10.4292   21.0405 C   0  0  0  0  0  0
  -24.3624   -9.4211   21.9183 C   0  0  0  0  0  0
  -23.6297   -8.2251   22.0764 C   0  0  0  0  0  0
  -22.4271   -8.0294   21.3562 C   0  0  0  0  0  0
  -21.9901   -9.0264   20.4658 C   0  0  0  0  0  0
  -22.7236  -10.2138   20.3056 C   0  0  0  0  0  0
  -21.6854   -6.0737   22.5282 C   0  0  0  0  0  0
  -21.4023   -6.5641   23.8219 C   0  0  0  0  0  0
  -21.3652   -5.6795   24.9180 C   0  0  0  0  0  0
  -21.6033   -4.3059   24.7222 C   0  0  0  0  0  0
  -21.8824   -3.8152   23.4345 C   0  0  0  0  0  0
  -21.9194   -4.6966   22.3401 C   0  0  0  0  0  0
  -22.7829  -13.5226   21.1840 C   0  0  0  0  0  0
  -22.1660   -4.2154   21.0980 F   0  0  0  0  0  0
  -21.5612   -3.4544   25.7736 F   0  0  0  0  0  0
  -30.0067  -13.4539   20.4289 N   0  0  0  0  0  0
  -26.2970  -12.9364   20.3274 N   0  0  0  0  0  0
  -25.9319  -11.6520   20.5718 N   0  0  0  0  0  0
  -22.0478  -12.8234   22.0419 N   0  0  0  0  0  0
  -25.4231  -15.1904   20.4083 N   0  0  0  0  0  0
  -31.7615  -14.8619   20.1174 O   0  0  0  0  0  0
  -21.6641   -6.8887   21.4250 O   0  0  0  0  0  0
  -22.3507  -14.5525   20.6682 O   0  0  0  0  0  0
  -24.6297  -31.8553   23.2013 C   0  0  0  0  0  0
  -25.9135  -32.4754   23.8340 C   0  0  1  0  0  0
  -27.2263  -27.2849   20.1244 C   0  0  0  0  0  0
  -25.5931  -33.8557   24.2255 N   0  0  0  0  0  0
  -23.4246  -30.4795   21.5472 C   0  0  2  0  0  0
  -24.8701  -28.9338   20.1133 C   0  0  0  0  0  0
  -22.7486  -29.4591   22.4936 C   0  0  0  0  0  0
  -18.0290  -28.1385   22.8479 C   0  0  0  0  0  0
  -24.1491  -36.7294   23.2638 C   0  0  0  0  0  0
  -25.9694  -30.7770   21.3774 C   0  0  0  0  0  0
  -26.0431  -29.4032   20.7179 C   0  0  0  0  0  0
  -27.2230  -28.5931   20.7124 C   0  0  0  0  0  0
  -26.0237  -26.8805   19.4942 C   0  0  0  0  0  0
  -24.8653  -27.6777   19.4934 C   0  0  0  0  0  0
  -23.6400  -29.8152   20.1626 C   0  0  0  0  0  0
  -25.4112  -36.3061   24.0318 C   0  0  1  0  0  0
  -20.5887  -28.3670   23.1282 C   0  0  2  0  0  0
  -20.6776  -26.9388   22.5407 C   0  0  0  0  0  0
  -19.5752  -26.6371   21.5212 C   0  0  0  0  0  0
  -18.1936  -26.7922   22.1624 C   0  0  0  0  0  0
  -19.1540  -28.8850   23.2873 C   0  0  0  0  0  0
  -18.9463  -30.1453   23.8880 C   0  0  0  0  0  0
  -17.6460  -30.6579   24.0564 C   0  0  0  0  0  0
  -25.9046  -34.9435   23.5083 C   0  0  0  0  0  0
  -16.5355  -29.9068   23.6343 C   0  0  0  0  0  0
  -16.7272  -28.6500   23.0344 C   0  0  0  0  0  0
  -26.4498  -31.6587   25.0732 C   0  0  0  0  0  0
  -25.3723  -31.3753   26.1461 C   0  0  0  0  0  0
  -27.0339  -30.2994   24.6230 C   0  0  0  0  0  0
  -27.6045  -32.4327   25.7515 C   0  0  0  0  0  0
  -27.5569  -37.1797   24.8451 C   0  0  0  0  0  0
  -21.4193  -29.3027   22.3678 N   0  0  0  0  0  0
  -26.4277  -37.3763   23.9402 N   0  0  0  0  0  0
  -24.6936  -31.0537   22.0989 N   0  0  0  0  0  0
  -23.4187  -28.8131   23.3039 O   0  0  0  0  0  0
  -28.3313  -26.4049   20.1840 O   0  0  0  0  0  0
  -26.5627  -34.8914   22.4658 O   0  0  0  0  0  0
  -23.5461  -32.1366   23.7336 O   0  0  0  0  0  0
  -30.0704  -19.5191   21.5230 C   0  0  0  0  0  0
  -30.2678  -18.1048   21.6471 C   0  0  0  0  0  0
  -29.1872  -17.7979   19.5519 C   0  0  0  0  0  0
  -28.9967  -19.2178   19.4333 C   0  0  0  0  0  0
  -29.4228  -20.1738   20.4279 C   0  0  0  0  0  0
  -29.8293  -17.1889   20.6588 C   0  0  0  0  0  0
  -28.9868  -22.7097   21.3072 C   0  0  0  0  0  0
  -28.2241  -19.6324   18.2402 C   0  0  0  0  0  0
  -29.0716  -22.5059   19.2424 C   0  0  0  0  0  0
  -29.1931  -23.7868   20.1493 C   0  0  2  0  0  0
  -28.9260  -19.4597   16.9024 C   0  0  0  0  0  0
  -30.5855  -24.4150   20.2480 C   0  0  0  0  0  0
  -28.0857  -24.9394   19.9828 C   0  0  0  0  0  0
  -29.2819  -21.6580   20.4207 N   0  0  0  0  0  0
  -29.7813  -15.7339   20.8776 N   0  0  0  0  0  0
  -28.6808  -22.7070   22.4804 O   0  0  0  0  0  0
  -27.0835  -20.0999   18.2868 O   0  0  0  0  0  0
  -31.4863  -12.5717   19.1579 H   0  0  0  0  0  0
  -30.3960  -11.4381   19.9079 H   0  0  0  0  0  0
  -29.7915  -11.7729   17.4830 H   0  0  0  0  0  0
  -29.6460  -13.4926   17.7396 H   0  0  0  0  0  0
  -27.8808  -11.2944   18.8628 H   0  0  0  0  0  0
  -27.3852  -12.5778   17.7910 H   0  0  0  0  0  0
  -27.6624  -14.2536   19.5111 H   0  0  0  0  0  0
  -28.7183  -12.0724   21.3737 H   0  0  0  0  0  0
  -28.4282  -13.7245   21.8382 H   0  0  0  0  0  0
  -25.2786   -9.5670   22.4733 H   0  0  0  0  0  0
  -24.0009   -7.4636   22.7469 H   0  0  0  0  0  0
  -21.0832   -8.8777   19.8965 H   0  0  0  0  0  0
  -22.3713  -10.9665   19.6141 H   0  0  0  0  0  0
  -21.2045   -7.6154   23.9719 H   0  0  0  0  0  0
  -21.1449   -6.0530   25.9078 H   0  0  0  0  0  0
  -22.0610   -2.7611   23.2847 H   0  0  0  0  0  0
  -22.4103  -11.9909   22.4817 H   0  0  0  0  0  0
  -21.1092  -13.1249   22.2616 H   0  0  0  0  0  0
  -24.6554  -15.8435   20.5200 H   0  0  0  0  0  0
  -26.2679  -15.6333   20.0704 H   0  0  0  0  0  0
  -26.7201  -32.5400   23.1086 H   0  0  0  0  0  0
  -25.0051  -33.9690   25.0383 H   0  0  0  0  0  0
  -22.7200  -31.3008   21.4043 H   0  0  0  0  0  0
  -23.3734  -35.9639   23.3292 H   0  0  0  0  0  0
  -24.3587  -36.8933   22.2051 H   0  0  0  0  0  0
  -23.7263  -37.6501   23.6682 H   0  0  0  0  0  0
  -26.1047  -31.5390   20.6090 H   0  0  0  0  0  0
  -26.8481  -30.8237   22.0090 H   0  0  0  0  0  0
  -28.1184  -28.9503   21.2014 H   0  0  0  0  0  0
  -25.9320  -25.9247   19.0057 H   0  0  0  0  0  0
  -23.9676  -27.3074   19.0196 H   0  0  0  0  0  0
  -23.7609  -30.5937   19.4087 H   0  0  0  0  0  0
  -22.7588  -29.2460   19.8592 H   0  0  0  0  0  0
  -25.1294  -36.1900   25.0805 H   0  0  0  0  0  0
  -20.9973  -28.3253   24.1404 H   0  0  0  0  0  0
  -20.5682  -26.2268   23.3608 H   0  0  0  0  0  0
  -21.6645  -26.7422   22.1204 H   0  0  0  0  0  0
  -19.6914  -25.6281   21.1245 H   0  0  0  0  0  0
  -19.6709  -27.3178   20.6745 H   0  0  0  0  0  0
  -17.4199  -26.6657   21.4036 H   0  0  0  0  0  0
  -18.0341  -26.0072   22.9030 H   0  0  0  0  0  0
  -19.7934  -30.7286   24.2225 H   0  0  0  0  0  0
  -17.5011  -31.6264   24.5155 H   0  0  0  0  0  0
  -15.5351  -30.2958   23.7690 H   0  0  0  0  0  0
  -15.8676  -28.0824   22.7045 H   0  0  0  0  0  0
  -24.5871  -30.7126   25.7803 H   0  0  0  0  0  0
  -24.8949  -32.2935   26.4889 H   0  0  0  0  0  0
  -25.8033  -30.8923   27.0239 H   0  0  0  0  0  0
  -26.2924  -29.6743   24.1229 H   0  0  0  0  0  0
  -27.3981  -29.7257   25.4767 H   0  0  0  0  0  0
  -27.8829  -30.4259   23.9502 H   0  0  0  0  0  0
  -27.2633  -33.3611   26.2108 H   0  0  0  0  0  0
  -28.3856  -32.6906   25.0351 H   0  0  0  0  0  0
  -28.0715  -31.8443   26.5426 H   0  0  0  0  0  0
  -28.2573  -38.0106   24.7500 H   0  0  0  0  0  0
  -28.1081  -36.2635   24.6272 H   0  0  0  0  0  0
  -27.2297  -37.1444   25.8858 H   0  0  0  0  0  0
  -20.9367  -29.8739   21.6887 H   0  0  0  0  0  0
  -26.0150  -38.2829   24.1420 H   0  0  0  0  0  0
  -30.4353  -20.1351   22.3328 H   0  0  0  0  0  0
  -30.7289  -17.7255   22.5476 H   0  0  0  0  0  0
  -28.7771  -17.1527   18.7860 H   0  0  0  0  0  0
  -29.8502  -22.4192   18.4824 H   0  0  0  0  0  0
  -28.0751  -22.4074   18.8073 H   0  0  0  0  0  0
  -29.9949  -19.6357   17.0191 H   0  0  0  0  0  0
  -28.5382  -20.1686   16.1705 H   0  0  0  0  0  0
  -28.7753  -18.4484   16.5273 H   0  0  0  0  0  0
  -31.3595  -23.6663   20.4284 H   0  0  0  0  0  0
  -30.6428  -25.1413   21.0590 H   0  0  0  0  0  0
  -30.8483  -24.9272   19.3237 H   0  0  0  0  0  0
  -27.2290  -24.6731   20.6052 H   0  0  0  0  0  0
  -27.7379  -24.8451   18.9546 H   0  0  0  0  0  0
  -28.8779  -15.3983   21.1747 H   0  0  0  0  0  0
  1 25  1  0  0  0
  1 30  2  0  0  0
  1 85  1  0  0  0
  2  3  1  0  0  0
  2 25  1  0  0  0
  2 88  1  0  0  0
  2 89  1  0  0  0
  3  4  1  0  0  0
  3 90  1  0  0  0
  3 91  1  0  0  0
  4  5  1  0  0  0
  4 92  1  0  0  0
  4 93  1  0  0  0
  5  6  1  0  0  0
  5 26  1  0  0  0
  5 94  1  0  0  0
  6 25  1  0  0  0
  6 95  1  0  0  0
  6 96  1  0  0  0
  7  8  2  0  0  0
  7 26  1  0  0  0
  7 29  1  0  0  0
  8  9  1  0  0  0
  8 22  1  0  0  0
  9 10  1  0  0  0
  9 27  2  0  0  0
 10 11  2  0  0  0
 10 15  1  0  0  0
 11 12  1  0  0  0
 11 97  1  0  0  0
 12 13  2  0  0  0
 12 98  1  0  0  0
 13 14  1  0  0  0
 13 31  1  0  0  0
 14 15  2  0  0  0
 14 99  1  0  0  0
 15100  1  0  0  0
 16 17  2  0  0  0
 16 21  1  0  0  0
 16 31  1  0  0  0
 17 18  1  0  0  0
 17101  1  0  0  0
 18 19  2  0  0  0
 18102  1  0  0  0
 19 20  1  0  0  0
 19 24  1  0  0  0
 20 21  2  0  0  0
 20103  1  0  0  0
 21 23  1  0  0  0
 22 28  1  0  0  0
 22 32  2  0  0  0
 26 27  1  0  0  0
 28104  1  0  0  0
 28105  1  0  0  0
 29106  1  0  0  0
 29107  1  0  0  0
 33 34  1  0  0  0
 33 66  1  0  0  0
 33 70  2  0  0  0
 34 36  1  0  0  0
 34 59  1  0  0  0
 34108  1  0  0  0
 35 44  2  0  0  0
 35 45  1  0  0  0
 35 68  1  0  0  0
 36 56  1  0  0  0
 36109  1  0  0  0
 37 39  1  0  0  0
 37 47  1  0  0  0
 37 66  1  0  0  0
 37110  1  0  0  0
 38 43  2  0  0  0
 38 46  1  0  0  0
 38 47  1  0  0  0
 39 64  1  0  0  0
 39 67  2  0  0  0
 40 52  1  0  0  0
 40 53  2  0  0  0
 40 58  1  0  0  0
 41111  1  0  0  0
 41112  1  0  0  0
 41113  1  0  0  0
 41 48  1  0  0  0
 42 43  1  0  0  0
 42 66  1  0  0  0
 42114  1  0  0  0
 42115  1  0  0  0
 43 44  1  0  0  0
 44116  1  0  0  0
 45 46  2  0  0  0
 45117  1  0  0  0
 46118  1  0  0  0
 47119  1  0  0  0
 47120  1  0  0  0
 48 56  1  0  0  0
 48 65  1  0  0  0
 48121  1  0  0  0
 49 50  1  0  0  0
 49 53  1  0  0  0
 49 64  1  0  0  0
 49122  1  0  0  0
 50 51  1  0  0  0
 50123  1  0  0  0
 50124  1  0  0  0
 51 52  1  0  0  0
 51125  1  0  0  0
 51126  1  0  0  0
 52127  1  0  0  0
 52128  1  0  0  0
 53 54  1  0  0  0
 54 55  2  0  0  0
 54129  1  0  0  0
 55 57  1  0  0  0
 55130  1  0  0  0
 56 69  2  0  0  0
 57 58  2  0  0  0
 57131  1  0  0  0
 58132  1  0  0  0
 59 60  1  0  0  0
 59 61  1  0  0  0
 59 62  1  0  0  0
 60133  1  0  0  0
 60134  1  0  0  0
 60135  1  0  0  0
 61136  1  0  0  0
 61137  1  0  0  0
 61138  1  0  0  0
 62139  1  0  0  0
 62140  1  0  0  0
 62141  1  0  0  0
 63 65  1  0  0  0
 63142  1  0  0  0
 63143  1  0  0  0
 63144  1  0  0  0
 64145  1  0  0  0
 65146  1  0  0  0
 68 83  1  0  0  0
 71 72  2  0  0  0
 71 75  1  0  0  0
 71147  1  0  0  0
 72 76  1  0  0  0
 72148  1  0  0  0
 73 74  1  0  0  0
 73 76  2  0  0  0
 73149  1  0  0  0
 74 75  2  0  0  0
 74 78  1  0  0  0
 75 84  1  0  0  0
 76 85  1  0  0  0
 77 80  1  0  0  0
 77 84  1  0  0  0
 77 86  2  0  0  0
 78 81  1  0  0  0
 78 87  2  0  0  0
 79 80  1  0  0  0
 79 84  1  0  0  0
 79150  1  0  0  0
 79151  1  0  0  0
 80 82  1  0  0  0
 80 83  1  0  0  0
 81152  1  0  0  0
 81153  1  0  0  0
 81154  1  0  0  0
 82155  1  0  0  0
 82156  1  0  0  0
 82157  1  0  0  0
 83158  1  0  0  0
 83159  1  0  0  0
 85160  1  0  0  0
M  ISO  4   1 100  68 101  83 101  85 100
M  END
> <chiral flag>
0

> <version>
0

> <s_m_source_file>
/data/baiqing/PycharmProjects/Reinvent-master-3.2/result/LINK_invent/BTK/process_docking_weight1_custom_product_contain_oxygen_bond_distance_aromatic_linkinvent_7_9_3/rearranged_h_0072.sdf

> <i_m_source_file_index>
24

> <r_mmod_Potential_Energy-OPLS-2005>
202.19938659668

> <r_mmod_Stretch_Energy-OPLS-2005>
101.130928039551

> <r_mmod_Bend_Energy-OPLS-2005>
194.713760375977

> <r_mmod_Torsional_Energy-OPLS-2005>
316.894622802734

> <r_mmod_Improper_Torsional_Energy-OPLS-2005>
6.54934597015381

> <r_mmod_Van_der_Waal_Energy-OPLS-2005>
139.695205688477

> <r_mmod_Electrostatic_Energy-OPLS-2005>
-387.072967529297

> <r_mmod_Solvation_Energy-OPLS-2005>
-236.357131958008

> <b_mmod_Minimization_Converged-OPLS-2005>
0

> <r_mmod_RMS_Derivative-OPLS-2005>
2.35640358924866

$$$$
24
                    3D
 Structure written by MMmdl.
162171  0  0  1  0            999 V2000
  -30.6648  -14.6110   20.6055 C   0  0  0  0  0  0
  -30.4371  -12.4079   19.4490 C   0  0  0  0  0  0
  -29.5069  -12.5440   18.2226 C   0  0  0  0  0  0
  -28.0296  -12.3666   18.6242 C   0  0  0  0  0  0
  -27.6573  -13.2132   19.8676 C   0  0  2  0  0  0
  -28.6922  -13.0133   20.9918 C   0  0  0  0  0  0
  -25.2571  -13.8163   20.5659 C   0  0  0  0  0  0
  -24.1835  -13.0429   20.9158 C   0  0  0  0  0  0
  -24.6398  -11.6895   20.8711 C   0  0  0  0  0  0
  -23.9068  -10.4284   21.0399 C   0  0  0  0  0  0
  -24.3619   -9.4203   21.9179 C   0  0  0  0  0  0
  -23.6290   -8.2241   22.0755 C   0  0  0  0  0  0
  -22.4272   -8.0281   21.3547 C   0  0  0  0  0  0
  -21.9907   -9.0252   20.4650 C   0  0  0  0  0  0
  -22.7239  -10.2127   20.3050 C   0  0  0  0  0  0
  -21.6849   -6.0734   22.5274 C   0  0  0  0  0  0
  -21.4015   -6.5639   23.8208 C   0  0  0  0  0  0
  -21.3659   -5.6792   24.9170 C   0  0  0  0  0  0
  -21.6042   -4.3055   24.7220 C   0  0  0  0  0  0
  -21.8822   -3.8146   23.4345 C   0  0  0  0  0  0
  -21.9192   -4.6963   22.3400 C   0  0  0  0  0  0
  -22.7860  -13.5224   21.1841 C   0  0  0  0  0  0
  -22.1660   -4.2150   21.0979 F   0  0  0  0  0  0
  -21.5627   -3.4542   25.7738 F   0  0  0  0  0  0
  -30.0181  -13.3980   20.4682 N   0  0  0  0  0  0
  -26.3002  -12.9334   20.3292 N   0  0  0  0  0  0
  -25.9320  -11.6489   20.5702 N   0  0  0  0  0  0
  -22.0518  -12.8215   22.0411 N   0  0  0  0  0  0
  -25.4287  -15.1885   20.4100 N   0  0  0  0  0  0
  -31.7249  -14.8348   20.0092 O   0  0  0  0  0  0
  -21.6634   -6.8878   21.4238 O   0  0  0  0  0  0
  -22.3535  -14.5529   20.6693 O   0  0  0  0  0  0
  -24.6253  -31.8604   23.2042 C   0  0  0  0  0  0
  -25.9104  -32.4781   23.8372 C   0  0  1  0  0  0
  -27.2261  -27.3322   20.1201 C   0  0  0  0  0  0
  -25.5923  -33.8587   24.2292 N   0  0  0  0  0  0
  -23.4188  -30.4825   21.5476 C   0  0  2  0  0  0
  -24.8658  -28.9369   20.1147 C   0  0  0  0  0  0
  -22.7470  -29.4623   22.4963 C   0  0  0  0  0  0
  -18.0283  -28.1392   22.8507 C   0  0  0  0  0  0
  -24.1477  -36.7281   23.2643 C   0  0  0  0  0  0
  -25.9586  -30.7930   21.3752 C   0  0  0  0  0  0
  -26.0335  -29.4212   20.7188 C   0  0  0  0  0  0
  -27.2197  -28.6310   20.7105 C   0  0  0  0  0  0
  -26.0405  -26.8962   19.4901 C   0  0  0  0  0  0
  -24.8692  -27.6778   19.4924 C   0  0  0  0  0  0
  -23.6336  -29.8171   20.1630 C   0  0  0  0  0  0
  -25.4107  -36.3086   24.0332 C   0  0  1  0  0  0
  -20.5885  -28.3691   23.1300 C   0  0  2  0  0  0
  -20.6774  -26.9422   22.5415 C   0  0  0  0  0  0
  -19.5745  -26.6394   21.5228 C   0  0  0  0  0  0
  -18.1921  -26.7940   22.1635 C   0  0  0  0  0  0
  -19.1535  -28.8860   23.2889 C   0  0  0  0  0  0
  -18.9458  -30.1466   23.8905 C   0  0  0  0  0  0
  -17.6458  -30.6598   24.0573 C   0  0  0  0  0  0
  -25.9048  -34.9456   23.5111 C   0  0  0  0  0  0
  -16.5348  -29.9098   23.6347 C   0  0  0  0  0  0
  -16.7269  -28.6511   23.0376 C   0  0  0  0  0  0
  -26.4503  -31.6599   25.0739 C   0  0  0  0  0  0
  -25.3745  -31.3701   26.1465 C   0  0  0  0  0  0
  -27.0378  -30.3036   24.6190 C   0  0  0  0  0  0
  -27.6068  -32.4346   25.7495 C   0  0  0  0  0  0
  -27.5571  -37.1778   24.8464 C   0  0  0  0  0  0
  -21.4187  -29.3038   22.3697 N   0  0  0  0  0  0
  -26.4274  -37.3785   23.9421 N   0  0  0  0  0  0
  -24.6865  -31.0618   22.0995 N   0  0  0  0  0  0
  -23.4196  -28.8177   23.3057 O   0  0  0  0  0  0
  -28.3454  -26.4929   20.1281 O   0  0  0  0  0  0
  -26.5617  -34.8921   22.4679 O   0  0  0  0  0  0
  -23.5425  -32.1406   23.7371 O   0  0  0  0  0  0
  -30.0051  -17.6887   19.9063 C   0  0  0  0  0  0
  -29.8023  -19.0624   19.5572 C   0  0  0  0  0  0
  -29.4374  -19.5970   21.8479 C   0  0  0  0  0  0
  -29.9220  -17.1960   21.2420 C   0  0  0  0  0  0
  -29.6051  -18.2220   22.2141 C   0  0  0  0  0  0
  -29.5113  -20.0739   20.5173 C   0  0  0  0  0  0
  -29.1576  -22.6134   20.9201 C   0  0  0  0  0  0
  -28.3449  -18.1342   24.1403 C   0  0  0  0  0  0
  -30.1013  -15.6799   21.6116 C   0  0  0  0  0  0
  -28.7810  -23.3890   18.7148 C   0  0  0  0  0  0
  -29.2483  -21.9137   18.7380 C   0  0  0  0  0  0
  -29.1008  -23.9466   20.1043 C   0  0  1  0  0  0
  -28.0890  -17.8451   25.5979 C   0  0  0  0  0  0
  -28.1507  -25.1137   20.6268 C   0  0  0  0  0  0
  -29.8579  -15.2803   22.7905 N   0  0  0  0  0  0
  -29.4728  -17.9331   23.5830 N   0  0  0  0  0  0
  -29.2975  -21.4919   20.1403 N   0  0  0  0  0  0
  -29.0914  -22.6298   22.1524 O   0  0  0  0  0  0
  -31.4780  -12.5369   19.1469 H   0  0  0  0  0  0
  -30.3803  -11.3978   19.8590 H   0  0  0  0  0  0
  -29.7779  -11.8134   17.4595 H   0  0  0  0  0  0
  -29.6473  -13.5263   17.7680 H   0  0  0  0  0  0
  -27.8654  -11.3090   18.8341 H   0  0  0  0  0  0
  -27.3774  -12.6163   17.7868 H   0  0  0  0  0  0
  -27.6932  -14.2596   19.5639 H   0  0  0  0  0  0
  -28.7090  -11.9681   21.3043 H   0  0  0  0  0  0
  -28.3747  -13.5590   21.8750 H   0  0  0  0  0  0
  -25.2768   -9.5669   22.4750 H   0  0  0  0  0  0
  -23.9993   -7.4632   22.7477 H   0  0  0  0  0  0
  -21.0836   -8.8779   19.8957 H   0  0  0  0  0  0
  -22.3707  -10.9668   19.6157 H   0  0  0  0  0  0
  -21.2011   -7.6148   23.9710 H   0  0  0  0  0  0
  -21.1477   -6.0526   25.9074 H   0  0  0  0  0  0
  -22.0601   -2.7610   23.2845 H   0  0  0  0  0  0
  -22.4147  -11.9875   22.4785 H   0  0  0  0  0  0
  -21.1147  -13.1248   22.2650 H   0  0  0  0  0  0
  -24.6640  -15.8450   20.5223 H   0  0  0  0  0  0
  -26.2892  -15.6309   20.1127 H   0  0  0  0  0  0
  -26.7173  -32.5457   23.1128 H   0  0  0  0  0  0
  -25.0092  -33.9751   25.0451 H   0  0  0  0  0  0
  -22.7116  -31.3018   21.4048 H   0  0  0  0  0  0
  -23.3751  -35.9598   23.3303 H   0  0  0  0  0  0
  -24.3573  -36.8926   22.2061 H   0  0  0  0  0  0
  -23.7215  -37.6472   23.6678 H   0  0  0  0  0  0
  -26.0905  -31.5555   20.6071 H   0  0  0  0  0  0
  -26.8386  -30.8409   22.0048 H   0  0  0  0  0  0
  -28.1181  -28.9984   21.1866 H   0  0  0  0  0  0
  -26.0118  -25.9376   18.9924 H   0  0  0  0  0  0
  -23.9754  -27.3036   19.0121 H   0  0  0  0  0  0
  -23.7529  -30.5938   19.4063 H   0  0  0  0  0  0
  -22.7531  -29.2454   19.8643 H   0  0  0  0  0  0
  -25.1286  -36.1934   25.0821 H   0  0  0  0  0  0
  -20.9969  -28.3269   24.1423 H   0  0  0  0  0  0
  -20.5712  -26.2304   23.3614 H   0  0  0  0  0  0
  -21.6638  -26.7474   22.1187 H   0  0  0  0  0  0
  -19.6907  -25.6306   21.1261 H   0  0  0  0  0  0
  -19.6684  -27.3205   20.6762 H   0  0  0  0  0  0
  -17.4200  -26.6722   21.4018 H   0  0  0  0  0  0
  -18.0286  -26.0069   22.9012 H   0  0  0  0  0  0
  -19.7931  -30.7280   24.2278 H   0  0  0  0  0  0
  -17.5014  -31.6286   24.5159 H   0  0  0  0  0  0
  -15.5351  -30.3001   23.7665 H   0  0  0  0  0  0
  -15.8668  -28.0827   22.7100 H   0  0  0  0  0  0
  -24.5943  -30.7030   25.7780 H   0  0  0  0  0  0
  -24.8898  -32.2846   26.4894 H   0  0  0  0  0  0
  -25.8082  -30.8883   27.0237 H   0  0  0  0  0  0
  -26.2958  -29.6739   24.1265 H   0  0  0  0  0  0
  -27.4162  -29.7337   25.4687 H   0  0  0  0  0  0
  -27.8782  -30.4358   23.9374 H   0  0  0  0  0  0
  -27.2703  -33.3671   26.2037 H   0  0  0  0  0  0
  -28.3880  -32.6871   25.0312 H   0  0  0  0  0  0
  -28.0731  -31.8496   26.5435 H   0  0  0  0  0  0
  -28.2569  -38.0092   24.7567 H   0  0  0  0  0  0
  -28.1098  -36.2637   24.6236 H   0  0  0  0  0  0
  -27.2302  -37.1364   25.8867 H   0  0  0  0  0  0
  -20.9371  -29.8744   21.6886 H   0  0  0  0  0  0
  -26.0160  -38.2854   24.1459 H   0  0  0  0  0  0
  -30.2220  -16.9968   19.1052 H   0  0  0  0  0  0
  -29.8821  -19.3269   18.5123 H   0  0  0  0  0  0
  -29.2306  -20.3000   22.6399 H   0  0  0  0  0  0
  -27.4775  -18.5226   23.5970 H   0  0  0  0  0  0
  -27.7059  -23.4323   18.5336 H   0  0  0  0  0  0
  -29.2650  -23.9580   17.9204 H   0  0  0  0  0  0
  -30.2466  -21.8240   18.3078 H   0  0  0  0  0  0
  -28.5752  -21.2825   18.1561 H   0  0  0  0  0  0
  -30.1243  -24.3221   20.1082 H   0  0  0  0  0  0
  -29.0261  -17.7326   26.1433 H   0  0  0  0  0  0
  -27.5110  -16.9269   25.6995 H   0  0  0  0  0  0
  -27.5226  -18.6610   26.0458 H   0  0  0  0  0  0
  -28.2838  -25.1867   21.7066 H   0  0  0  0  0  0
  -27.1204  -24.7811   20.5091 H   0  0  0  0  0  0
  -29.5654  -16.0838   23.3436 H   0  0  0  0  0  0
  1 25  1  0  0  0
  1 30  2  0  0  0
  1 79  1  0  0  0
  2  3  1  0  0  0
  2 25  1  0  0  0
  2 89  1  0  0  0
  2 90  1  0  0  0
  3  4  1  0  0  0
  3 91  1  0  0  0
  3 92  1  0  0  0
  4  5  1  0  0  0
  4 93  1  0  0  0
  4 94  1  0  0  0
  5  6  1  0  0  0
  5 26  1  0  0  0
  5 95  1  0  0  0
  6 25  1  0  0  0
  6 96  1  0  0  0
  6 97  1  0  0  0
  7  8  2  0  0  0
  7 26  1  0  0  0
  7 29  1  0  0  0
  8  9  1  0  0  0
  8 22  1  0  0  0
  9 10  1  0  0  0
  9 27  2  0  0  0
 10 11  2  0  0  0
 10 15  1  0  0  0
 11 12  1  0  0  0
 11 98  1  0  0  0
 12 13  2  0  0  0
 12 99  1  0  0  0
 13 14  1  0  0  0
 13 31  1  0  0  0
 14 15  2  0  0  0
 14100  1  0  0  0
 15101  1  0  0  0
 16 17  2  0  0  0
 16 21  1  0  0  0
 16 31  1  0  0  0
 17 18  1  0  0  0
 17102  1  0  0  0
 18 19  2  0  0  0
 18103  1  0  0  0
 19 20  1  0  0  0
 19 24  1  0  0  0
 20 21  2  0  0  0
 20104  1  0  0  0
 21 23  1  0  0  0
 22 28  1  0  0  0
 22 32  2  0  0  0
 26 27  1  0  0  0
 28105  1  0  0  0
 28106  1  0  0  0
 29107  1  0  0  0
 29108  1  0  0  0
 33 34  1  0  0  0
 33 66  1  0  0  0
 33 70  2  0  0  0
 34 36  1  0  0  0
 34 59  1  0  0  0
 34109  1  0  0  0
 35 44  2  0  0  0
 35 45  1  0  0  0
 35 68  1  0  0  0
 36 56  1  0  0  0
 36110  1  0  0  0
 37 39  1  0  0  0
 37 47  1  0  0  0
 37 66  1  0  0  0
 37111  1  0  0  0
 38 43  2  0  0  0
 38 46  1  0  0  0
 38 47  1  0  0  0
 39 64  1  0  0  0
 39 67  2  0  0  0
 40 52  1  0  0  0
 40 53  2  0  0  0
 40 58  1  0  0  0
 41112  1  0  0  0
 41113  1  0  0  0
 41114  1  0  0  0
 41 48  1  0  0  0
 42 43  1  0  0  0
 42 66  1  0  0  0
 42115  1  0  0  0
 42116  1  0  0  0
 43 44  1  0  0  0
 44117  1  0  0  0
 45 46  2  0  0  0
 45118  1  0  0  0
 46119  1  0  0  0
 47120  1  0  0  0
 47121  1  0  0  0
 48 56  1  0  0  0
 48 65  1  0  0  0
 48122  1  0  0  0
 49 50  1  0  0  0
 49 53  1  0  0  0
 49 64  1  0  0  0
 49123  1  0  0  0
 50 51  1  0  0  0
 50124  1  0  0  0
 50125  1  0  0  0
 51 52  1  0  0  0
 51126  1  0  0  0
 51127  1  0  0  0
 52128  1  0  0  0
 52129  1  0  0  0
 53 54  1  0  0  0
 54 55  2  0  0  0
 54130  1  0  0  0
 55 57  1  0  0  0
 55131  1  0  0  0
 56 69  2  0  0  0
 57 58  2  0  0  0
 57132  1  0  0  0
 58133  1  0  0  0
 59 60  1  0  0  0
 59 61  1  0  0  0
 59 62  1  0  0  0
 60134  1  0  0  0
 60135  1  0  0  0
 60136  1  0  0  0
 61137  1  0  0  0
 61138  1  0  0  0
 61139  1  0  0  0
 62140  1  0  0  0
 62141  1  0  0  0
 62142  1  0  0  0
 63 65  1  0  0  0
 63143  1  0  0  0
 63144  1  0  0  0
 63145  1  0  0  0
 64146  1  0  0  0
 65147  1  0  0  0
 68 84  1  0  0  0
 71 72  2  0  0  0
 71 74  1  0  0  0
 71148  1  0  0  0
 72 76  1  0  0  0
 72149  1  0  0  0
 73 75  1  0  0  0
 73 76  2  0  0  0
 73150  1  0  0  0
 74 75  2  0  0  0
 74 79  1  0  0  0
 75 86  1  0  0  0
 76 87  1  0  0  0
 77 82  1  0  0  0
 77 87  1  0  0  0
 77 88  2  0  0  0
 78 83  1  0  0  0
 78 86  2  0  0  0
 78151  1  0  0  0
 79 85  2  0  0  0
 80 81  1  0  0  0
 80 82  1  0  0  0
 80152  1  0  0  0
 80153  1  0  0  0
 81 87  1  0  0  0
 81154  1  0  0  0
 81155  1  0  0  0
 82 84  1  0  0  0
 82156  1  0  0  0
 83157  1  0  0  0
 83158  1  0  0  0
 83159  1  0  0  0
 84160  1  0  0  0
 84161  1  0  0  0
 85162  1  0  0  0
M  ISO  4   1 100  68 101  79 100  84 101
M  END
> <chiral flag>
0

> <version>
0

> <s_m_source_file>
/data/baiqing/PycharmProjects/Reinvent-master-3.2/result/LINK_invent/BTK/process_docking_weight1_custom_product_contain_oxygen_bond_distance_aromatic_linkinvent_7_9_3/rearranged_h_0072.sdf

> <i_m_source_file_index>
25

> <r_mmod_Potential_Energy-OPLS-2005>
341.895080566406

> <r_mmod_Stretch_Energy-OPLS-2005>
100.294097900391

> <r_mmod_Bend_Energy-OPLS-2005>
178.418365478516

> <r_mmod_Torsional_Energy-OPLS-2005>
267.636138916016

> <r_mmod_Improper_Torsional_Energy-OPLS-2005>
2.84515166282654

> <r_mmod_Van_der_Waal_Energy-OPLS-2005>
168.371887207031

> <r_mmod_Electrostatic_Energy-OPLS-2005>
-202.864379882812

> <r_mmod_Solvation_Energy-OPLS-2005>
-212.695190429688

> <b_mmod_Minimization_Converged-OPLS-2005>
0

> <r_mmod_RMS_Derivative-OPLS-2005>
1.22954976558685

$$$$
25
                    3D
 Structure written by MMmdl.
154162  0  0  1  0            999 V2000
  -30.6855  -14.4677   20.6607 C   0  0  0  0  0  0
  -30.4415  -12.3351   19.4175 C   0  0  0  0  0  0
  -29.4984  -12.5167   18.2092 C   0  0  0  0  0  0
  -28.0227  -12.3669   18.6244 C   0  0  0  0  0  0
  -27.6651  -13.1987   19.8824 C   0  0  2  0  0  0
  -28.7032  -12.9426   20.9969 C   0  0  0  0  0  0
  -25.2583  -13.8098   20.5669 C   0  0  0  0  0  0
  -24.1813  -13.0388   20.9136 C   0  0  0  0  0  0
  -24.6373  -11.6861   20.8733 C   0  0  0  0  0  0
  -23.9064  -10.4257   21.0400 C   0  0  0  0  0  0
  -24.3610   -9.4167   21.9163 C   0  0  0  0  0  0
  -23.6258   -8.2225   22.0774 C   0  0  0  0  0  0
  -22.4239   -8.0282   21.3560 C   0  0  0  0  0  0
  -21.9869   -9.0261   20.4675 C   0  0  0  0  0  0
  -22.7240  -10.2103   20.3055 C   0  0  0  0  0  0
  -21.6844   -6.0682   22.5266 C   0  0  0  0  0  0
  -21.4020   -6.5586   23.8198 C   0  0  0  0  0  0
  -21.3677   -5.6756   24.9162 C   0  0  0  0  0  0
  -21.6057   -4.3021   24.7227 C   0  0  0  0  0  0
  -21.8819   -3.8102   23.4361 C   0  0  0  0  0  0
  -21.9204   -4.6913   22.3401 C   0  0  0  0  0  0
  -22.7862  -13.5244   21.1834 C   0  0  0  0  0  0
  -22.1677   -4.2097   21.0975 F   0  0  0  0  0  0
  -21.5639   -3.4516   25.7751 F   0  0  0  0  0  0
  -30.0389  -13.2859   20.4653 N   0  0  0  0  0  0
  -26.3036  -12.9281   20.3385 N   0  0  0  0  0  0
  -25.9304  -11.6449   20.5772 N   0  0  0  0  0  0
  -22.0492  -12.8293   22.0414 N   0  0  0  0  0  0
  -25.4285  -15.1831   20.4214 N   0  0  0  0  0  0
  -31.7610  -14.7465   20.1135 O   0  0  0  0  0  0
  -21.6641   -6.8849   21.4234 O   0  0  0  0  0  0
  -22.3589  -14.5563   20.6697 O   0  0  0  0  0  0
  -24.6175  -31.8650   23.2085 C   0  0  0  0  0  0
  -25.9059  -32.4804   23.8394 C   0  0  1  0  0  0
  -27.2230  -27.3995   20.1214 C   0  0  0  0  0  0
  -25.5907  -33.8604   24.2321 N   0  0  0  0  0  0
  -23.4086  -30.4867   21.5470 C   0  0  2  0  0  0
  -24.8586  -28.9534   20.1083 C   0  0  0  0  0  0
  -22.7444  -29.4624   22.4949 C   0  0  0  0  0  0
  -18.0270  -28.1380   22.8477 C   0  0  0  0  0  0
  -24.1487  -36.7314   23.2624 C   0  0  0  0  0  0
  -25.9413  -30.8205   21.3712 C   0  0  0  0  0  0
  -26.0192  -29.4544   20.7158 C   0  0  0  0  0  0
  -27.2096  -28.6838   20.7219 C   0  0  0  0  0  0
  -26.0553  -26.9256   19.4949 C   0  0  0  0  0  0
  -24.8739  -27.6918   19.4892 C   0  0  0  0  0  0
  -23.6226  -29.8240   20.1591 C   0  0  0  0  0  0
  -25.4090  -36.3099   24.0342 C   0  0  1  0  0  0
  -20.5864  -28.3666   23.1299 C   0  0  2  0  0  0
  -20.6750  -26.9388   22.5426 C   0  0  0  0  0  0
  -19.5738  -26.6375   21.5213 C   0  0  0  0  0  0
  -18.1916  -26.7932   22.1609 C   0  0  0  0  0  0
  -19.1522  -28.8841   23.2888 C   0  0  0  0  0  0
  -18.9453  -30.1441   23.8910 C   0  0  0  0  0  0
  -17.6452  -30.6580   24.0570 C   0  0  0  0  0  0
  -25.9033  -34.9467   23.5127 C   0  0  0  0  0  0
  -16.5342  -29.9080   23.6317 C   0  0  0  0  0  0
  -16.7265  -28.6498   23.0344 C   0  0  0  0  0  0
  -26.4468  -31.6607   25.0751 C   0  0  0  0  0  0
  -25.3729  -31.3798   26.1528 C   0  0  0  0  0  0
  -27.0252  -30.3010   24.6183 C   0  0  0  0  0  0
  -27.6071  -32.4318   25.7476 C   0  0  0  0  0  0
  -27.5601  -37.1764   24.8416 C   0  0  0  0  0  0
  -21.4161  -29.3019   22.3700 N   0  0  0  0  0  0
  -26.4259  -37.3796   23.9442 N   0  0  0  0  0  0
  -24.6732  -31.0719   22.1009 N   0  0  0  0  0  0
  -23.4192  -28.8142   23.3001 O   0  0  0  0  0  0
  -28.3226  -26.5710   20.1697 O   0  0  0  0  0  0
  -26.5595  -34.8916   22.4690 O   0  0  0  0  0  0
  -23.5364  -32.1402   23.7467 O   0  0  0  0  0  0
  -31.0581  -18.8450   22.3023 C   0  0  0  0  0  0
  -31.1776  -17.4558   22.0428 C   0  0  0  0  0  0
  -28.7560  -18.8081   21.5196 C   0  0  0  0  0  0
  -29.8422  -19.5348   22.0597 C   0  0  0  0  0  0
  -30.0690  -16.7270   21.5530 C   0  0  0  0  0  0
  -28.8679  -17.4195   21.2804 C   0  0  0  0  0  0
  -29.6770  -20.9502   22.4669 C   0  0  0  0  0  0
  -28.8263  -23.2694   21.9594 C   0  0  0  0  0  0
  -28.5968  -24.2493   20.7772 C   0  0  0  0  0  0
  -30.0410  -15.3050   21.4932 N   0  0  0  0  0  0
  -29.1401  -21.8899   21.6382 N   0  0  0  0  0  0
  -28.1186  -25.5825   21.2361 N   0  0  0  0  0  0
  -30.0875  -21.2661   23.7026 N   0  3  0  0  0  0
  -28.7895  -23.6690   23.1323 O   0  0  0  0  0  0
  -27.7977  -16.7280   20.8182 F   0  0  0  0  0  0
  -31.4793  -12.4733   19.1104 H   0  0  0  0  0  0
  -30.3843  -11.3177   19.8046 H   0  0  0  0  0  0
  -29.7410  -11.7907   17.4325 H   0  0  0  0  0  0
  -29.6588  -13.5034   17.7676 H   0  0  0  0  0  0
  -27.8358  -11.3115   18.8201 H   0  0  0  0  0  0
  -27.3718  -12.6389   17.7945 H   0  0  0  0  0  0
  -27.7194  -14.2500   19.6020 H   0  0  0  0  0  0
  -28.6916  -11.8910   21.2814 H   0  0  0  0  0  0
  -28.4346  -13.4751   21.9088 H   0  0  0  0  0  0
  -25.2745   -9.5605   22.4750 H   0  0  0  0  0  0
  -23.9961   -7.4611   22.7474 H   0  0  0  0  0  0
  -21.0803   -8.8803   19.8982 H   0  0  0  0  0  0
  -22.3722  -10.9655   19.6185 H   0  0  0  0  0  0
  -21.1995   -7.6095   23.9681 H   0  0  0  0  0  0
  -21.1517   -6.0485   25.9058 H   0  0  0  0  0  0
  -22.0587   -2.7570   23.2887 H   0  0  0  0  0  0
  -22.4046  -11.9933   22.4838 H   0  0  0  0  0  0
  -21.1148  -13.1431   22.2628 H   0  0  0  0  0  0
  -24.6636  -15.8346   20.5494 H   0  0  0  0  0  0
  -26.3191  -15.6467   20.2765 H   0  0  0  0  0  0
  -26.7142  -32.5512   23.1156 H   0  0  0  0  0  0
  -25.0054  -33.9764   25.0466 H   0  0  0  0  0  0
  -22.6993  -31.3056   21.4054 H   0  0  0  0  0  0
  -23.3765  -35.9630   23.3224 H   0  0  0  0  0  0
  -24.3612  -36.8988   22.2052 H   0  0  0  0  0  0
  -23.7215  -37.6487   23.6678 H   0  0  0  0  0  0
  -26.0662  -31.5905   20.6089 H   0  0  0  0  0  0
  -26.8225  -30.8690   21.9976 H   0  0  0  0  0  0
  -28.1014  -29.0522   21.2095 H   0  0  0  0  0  0
  -26.0574  -25.9448   19.0385 H   0  0  0  0  0  0
  -23.9851  -27.3006   19.0133 H   0  0  0  0  0  0
  -23.7352  -30.6010   19.4026 H   0  0  0  0  0  0
  -22.7467  -29.2466   19.8578 H   0  0  0  0  0  0
  -25.1248  -36.1947   25.0835 H   0  0  0  0  0  0
  -20.9946  -28.3244   24.1428 H   0  0  0  0  0  0
  -20.5596  -26.2286   23.3628 H   0  0  0  0  0  0
  -21.6635  -26.7398   22.1255 H   0  0  0  0  0  0
  -19.6891  -25.6291   21.1240 H   0  0  0  0  0  0
  -19.6686  -27.3182   20.6741 H   0  0  0  0  0  0
  -17.4192  -26.6685   21.4013 H   0  0  0  0  0  0
  -18.0292  -26.0069   22.8993 H   0  0  0  0  0  0
  -19.7941  -30.7243   24.2292 H   0  0  0  0  0  0
  -17.5020  -31.6262   24.5161 H   0  0  0  0  0  0
  -15.5348  -30.2983   23.7633 H   0  0  0  0  0  0
  -15.8672  -28.0818   22.7055 H   0  0  0  0  0  0
  -24.5897  -30.7119   25.7928 H   0  0  0  0  0  0
  -24.8946  -32.3003   26.4891 H   0  0  0  0  0  0
  -25.8103  -30.9062   27.0321 H   0  0  0  0  0  0
  -26.2804  -29.6817   24.1177 H   0  0  0  0  0  0
  -27.3887  -29.7231   25.4680 H   0  0  0  0  0  0
  -27.8709  -30.4270   23.9422 H   0  0  0  0  0  0
  -27.2708  -33.3590   26.2116 H   0  0  0  0  0  0
  -28.3815  -32.6909   25.0251 H   0  0  0  0  0  0
  -28.0793  -31.8407   26.5320 H   0  0  0  0  0  0
  -28.2516  -38.0159   24.7642 H   0  0  0  0  0  0
  -28.1204  -36.2731   24.5982 H   0  0  0  0  0  0
  -27.2392  -37.1096   25.8822 H   0  0  0  0  0  0
  -20.9317  -29.8806   21.6981 H   0  0  0  0  0  0
  -26.0155  -38.2842   24.1584 H   0  0  0  0  0  0
  -31.8996  -19.3732   22.7311 H   0  0  0  0  0  0
  -32.0995  -16.9472   22.2851 H   0  0  0  0  0  0
  -27.8033  -19.2878   21.3481 H   0  0  0  0  0  0
  -27.8799  -23.8175   20.0757 H   0  0  0  0  0  0
  -29.5492  -24.3548   20.2579 H   0  0  0  0  0  0
  -29.1797  -14.9036   21.8307 H   0  0  0  0  0  0
  -29.0597  -21.5486   20.6936 H   0  0  0  0  0  0
  -28.6744  -25.9008   22.0237 H   0  0  0  0  0  0
  -30.5094  -20.5739   24.3012 H   0  0  0  0  0  0
  -29.8917  -22.1902   24.0698 H   0  0  0  0  0  0
  1 25  1  0  0  0
  1 30  2  0  0  0
  1 80  1  0  0  0
  2  3  1  0  0  0
  2 25  1  0  0  0
  2 86  1  0  0  0
  2 87  1  0  0  0
  3  4  1  0  0  0
  3 88  1  0  0  0
  3 89  1  0  0  0
  4  5  1  0  0  0
  4 90  1  0  0  0
  4 91  1  0  0  0
  5  6  1  0  0  0
  5 26  1  0  0  0
  5 92  1  0  0  0
  6 25  1  0  0  0
  6 93  1  0  0  0
  6 94  1  0  0  0
  7  8  2  0  0  0
  7 26  1  0  0  0
  7 29  1  0  0  0
  8  9  1  0  0  0
  8 22  1  0  0  0
  9 10  1  0  0  0
  9 27  2  0  0  0
 10 11  2  0  0  0
 10 15  1  0  0  0
 11 12  1  0  0  0
 11 95  1  0  0  0
 12 13  2  0  0  0
 12 96  1  0  0  0
 13 14  1  0  0  0
 13 31  1  0  0  0
 14 15  2  0  0  0
 14 97  1  0  0  0
 15 98  1  0  0  0
 16 17  2  0  0  0
 16 21  1  0  0  0
 16 31  1  0  0  0
 17 18  1  0  0  0
 17 99  1  0  0  0
 18 19  2  0  0  0
 18100  1  0  0  0
 19 20  1  0  0  0
 19 24  1  0  0  0
 20 21  2  0  0  0
 20101  1  0  0  0
 21 23  1  0  0  0
 22 28  1  0  0  0
 22 32  2  0  0  0
 26 27  1  0  0  0
 28102  1  0  0  0
 28103  1  0  0  0
 29104  1  0  0  0
 29105  1  0  0  0
 33 34  1  0  0  0
 33 66  1  0  0  0
 33 70  2  0  0  0
 34 36  1  0  0  0
 34 59  1  0  0  0
 34106  1  0  0  0
 35 44  2  0  0  0
 35 45  1  0  0  0
 35 68  1  0  0  0
 36 56  1  0  0  0
 36107  1  0  0  0
 37 39  1  0  0  0
 37 47  1  0  0  0
 37 66  1  0  0  0
 37108  1  0  0  0
 38 43  2  0  0  0
 38 46  1  0  0  0
 38 47  1  0  0  0
 39 64  1  0  0  0
 39 67  2  0  0  0
 40 52  1  0  0  0
 40 53  2  0  0  0
 40 58  1  0  0  0
 41109  1  0  0  0
 41110  1  0  0  0
 41111  1  0  0  0
 41 48  1  0  0  0
 42 43  1  0  0  0
 42 66  1  0  0  0
 42112  1  0  0  0
 42113  1  0  0  0
 43 44  1  0  0  0
 44114  1  0  0  0
 45 46  2  0  0  0
 45115  1  0  0  0
 46116  1  0  0  0
 47117  1  0  0  0
 47118  1  0  0  0
 48 56  1  0  0  0
 48 65  1  0  0  0
 48119  1  0  0  0
 49 50  1  0  0  0
 49 53  1  0  0  0
 49 64  1  0  0  0
 49120  1  0  0  0
 50 51  1  0  0  0
 50121  1  0  0  0
 50122  1  0  0  0
 51 52  1  0  0  0
 51123  1  0  0  0
 51124  1  0  0  0
 52125  1  0  0  0
 52126  1  0  0  0
 53 54  1  0  0  0
 54 55  2  0  0  0
 54127  1  0  0  0
 55 57  1  0  0  0
 55128  1  0  0  0
 56 69  2  0  0  0
 57 58  2  0  0  0
 57129  1  0  0  0
 58130  1  0  0  0
 59 60  1  0  0  0
 59 61  1  0  0  0
 59 62  1  0  0  0
 60131  1  0  0  0
 60132  1  0  0  0
 60133  1  0  0  0
 61134  1  0  0  0
 61135  1  0  0  0
 61136  1  0  0  0
 62137  1  0  0  0
 62138  1  0  0  0
 62139  1  0  0  0
 63 65  1  0  0  0
 63140  1  0  0  0
 63141  1  0  0  0
 63142  1  0  0  0
 64143  1  0  0  0
 65144  1  0  0  0
 68 82  1  0  0  0
 71 72  2  0  0  0
 71 74  1  0  0  0
 71145  1  0  0  0
 72 75  1  0  0  0
 72146  1  0  0  0
 73 74  2  0  0  0
 73 76  1  0  0  0
 73147  1  0  0  0
 74 77  1  0  0  0
 75 76  2  0  0  0
 75 80  1  0  0  0
 76 85  1  0  0  0
 77 81  1  0  0  0
 77 83  2  0  0  0
 78 79  1  0  0  0
 78 81  1  0  0  0
 78 84  2  0  0  0
 79 82  1  0  0  0
 79148  1  0  0  0
 79149  1  0  0  0
 80150  1  0  0  0
 81151  1  0  0  0
 82152  1  0  0  0
 83153  1  0  0  0
 83154  1  0  0  0
M  CHG  1  83   1
M  ISO  4   1 100  68 101  80 100  82 101
M  END
> <chiral flag>
0

> <version>
0

> <s_m_source_file>
/data/baiqing/PycharmProjects/Reinvent-master-3.2/result/LINK_invent/BTK/process_docking_weight1_custom_product_contain_oxygen_bond_distance_aromatic_linkinvent_7_9_3/rearranged_h_0072.sdf

> <i_m_source_file_index>
26

> <r_mmod_Potential_Energy-OPLS-2005>
-421.300231933594

> <r_mmod_Stretch_Energy-OPLS-2005>
42.2476577758789

> <r_mmod_Bend_Energy-OPLS-2005>
108.639831542969

> <r_mmod_Torsional_Energy-OPLS-2005>
231.647125244141

> <r_mmod_Improper_Torsional_Energy-OPLS-2005>
5.19088506698608

> <r_mmod_Van_der_Waal_Energy-OPLS-2005>
156.371810913086

> <r_mmod_Electrostatic_Energy-OPLS-2005>
-515.681945800781

> <r_mmod_Solvation_Energy-OPLS-2005>
-469.051910400391

> <b_mmod_Minimization_Converged-OPLS-2005>
0

> <r_mmod_RMS_Derivative-OPLS-2005>
4.517493724823

$$$$
26
                    3D
 Structure written by MMmdl.
159167  0  0  1  0            999 V2000
  -30.7212  -14.5658   20.4725 C   0  0  0  0  0  0
  -30.4302  -12.3432   19.4506 C   0  0  0  0  0  0
  -29.5080  -12.4727   18.2206 C   0  0  0  0  0  0
  -28.0330  -12.3300   18.6354 C   0  0  0  0  0  0
  -27.6570  -13.2204   19.8506 C   0  0  2  0  0  0
  -28.7077  -13.1133   20.9817 C   0  0  0  0  0  0
  -25.2574  -13.8177   20.5682 C   0  0  0  0  0  0
  -24.1818  -13.0459   20.9195 C   0  0  0  0  0  0
  -24.6376  -11.6941   20.8727 C   0  0  0  0  0  0
  -23.9044  -10.4317   21.0381 C   0  0  0  0  0  0
  -24.3583   -9.4227   21.9173 C   0  0  0  0  0  0
  -23.6248   -8.2260   22.0759 C   0  0  0  0  0  0
  -22.4243   -8.0283   21.3546 C   0  0  0  0  0  0
  -21.9869   -9.0267   20.4667 C   0  0  0  0  0  0
  -22.7205  -10.2130   20.3068 C   0  0  0  0  0  0
  -21.6847   -6.0708   22.5272 C   0  0  0  0  0  0
  -21.4024   -6.5607   23.8205 C   0  0  0  0  0  0
  -21.3672   -5.6752   24.9168 C   0  0  0  0  0  0
  -21.6033   -4.3023   24.7191 C   0  0  0  0  0  0
  -21.8830   -3.8119   23.4321 C   0  0  0  0  0  0
  -21.9202   -4.6947   22.3392 C   0  0  0  0  0  0
  -22.7843  -13.5292   21.1821 C   0  0  0  0  0  0
  -22.1667   -4.2142   21.0957 F   0  0  0  0  0  0
  -21.5625   -3.4509   25.7704 F   0  0  0  0  0  0
  -30.0338  -13.3886   20.4058 N   0  0  0  0  0  0
  -26.3013  -12.9393   20.3267 N   0  0  0  0  0  0
  -25.9303  -11.6548   20.5695 N   0  0  0  0  0  0
  -22.0466  -12.8315   22.0389 N   0  0  0  0  0  0
  -25.4262  -15.1906   20.4097 N   0  0  0  0  0  0
  -31.9080  -14.6567   20.1504 O   0  0  0  0  0  0
  -21.6625   -6.8855   21.4240 O   0  0  0  0  0  0
  -22.3541  -14.5587   20.6649 O   0  0  0  0  0  0
  -24.6125  -31.8675   23.2120 C   0  0  0  0  0  0
  -25.9034  -32.4845   23.8411 C   0  0  1  0  0  0
  -27.2398  -27.4320   20.1052 C   0  0  0  0  0  0
  -25.5892  -33.8638   24.2344 N   0  0  0  0  0  0
  -23.4036  -30.4908   21.5493 C   0  0  2  0  0  0
  -24.8541  -28.9547   20.1173 C   0  0  0  0  0  0
  -22.7396  -29.4664   22.4982 C   0  0  0  0  0  0
  -18.0269  -28.1385   22.8495 C   0  0  0  0  0  0
  -24.1483  -36.7322   23.2628 C   0  0  0  0  0  0
  -25.9326  -30.8313   21.3673 C   0  0  0  0  0  0
  -26.0113  -29.4660   20.7160 C   0  0  0  0  0  0
  -27.2074  -28.7120   20.7053 C   0  0  0  0  0  0
  -26.0634  -26.9330   19.5016 C   0  0  0  0  0  0
  -24.8742  -27.6869   19.5075 C   0  0  0  0  0  0
  -23.6161  -29.8221   20.1644 C   0  0  0  0  0  0
  -25.4093  -36.3127   24.0352 C   0  0  1  0  0  0
  -20.5848  -28.3657   23.1323 C   0  0  2  0  0  0
  -20.6756  -26.9401   22.5411 C   0  0  0  0  0  0
  -19.5731  -26.6391   21.5207 C   0  0  0  0  0  0
  -18.1910  -26.7928   22.1624 C   0  0  0  0  0  0
  -19.1517  -28.8842   23.2900 C   0  0  0  0  0  0
  -18.9453  -30.1442   23.8929 C   0  0  0  0  0  0
  -17.6453  -30.6582   24.0575 C   0  0  0  0  0  0
  -25.9026  -34.9501   23.5143 C   0  0  0  0  0  0
  -16.5342  -29.9098   23.6321 C   0  0  0  0  0  0
  -16.7255  -28.6510   23.0349 C   0  0  0  0  0  0
  -26.4436  -31.6645   25.0761 C   0  0  0  0  0  0
  -25.3717  -31.3781   26.1526 C   0  0  0  0  0  0
  -27.0264  -30.3092   24.6180 C   0  0  0  0  0  0
  -27.6033  -32.4345   25.7477 C   0  0  0  0  0  0
  -27.5606  -37.1774   24.8428 C   0  0  0  0  0  0
  -21.4121  -29.3035   22.3737 N   0  0  0  0  0  0
  -26.4266  -37.3835   23.9457 N   0  0  0  0  0  0
  -24.6687  -31.0765   22.1027 N   0  0  0  0  0  0
  -23.4170  -28.8180   23.3002 O   0  0  0  0  0  0
  -28.4150  -26.7085   20.0938 O   0  0  0  0  0  0
  -26.5571  -34.8940   22.4693 O   0  0  0  0  0  0
  -23.5324  -32.1439   23.7512 O   0  0  0  0  0  0
  -29.7408  -19.2727   19.5339 C   0  0  0  0  0  0
  -31.7249  -19.0494   20.8917 C   0  0  0  0  0  0
  -29.4814  -17.8889   19.6917 C   0  0  0  0  0  0
  -31.4783  -17.6584   21.0419 C   0  0  0  0  0  0
  -30.8518  -19.8908   20.1526 C   0  0  0  0  0  0
  -30.3373  -17.0557   20.4506 C   0  0  0  0  0  0
  -31.0592  -21.3883   20.0566 C   0  0  0  0  0  0
  -30.0407  -23.5649   19.5467 C   0  0  0  0  0  0
  -28.7682  -24.3821   19.3279 C   0  0  0  0  0  0
  -31.9711  -24.2899   18.0435 C   0  0  0  0  0  0
  -31.2873  -24.4577   19.4122 C   0  0  0  0  0  0
  -28.3259  -25.3197   20.4671 C   0  0  0  0  0  0
  -30.0411  -22.2760   19.7467 N   0  0  0  0  0  0
  -29.9731  -15.6778   20.6656 N   0  0  0  0  0  0
  -32.2620  -21.8110   20.3131 N   0  3  0  0  0  0
  -28.1031  -24.3072   18.2862 O   0  0  0  0  0  0
  -31.4774  -12.4235   19.1522 H   0  0  0  0  0  0
  -30.3176  -11.3580   19.9082 H   0  0  0  0  0  0
  -29.7602  -11.7139   17.4805 H   0  0  0  0  0  0
  -29.6687  -13.4371   17.7351 H   0  0  0  0  0  0
  -27.8605  -11.2817   18.8825 H   0  0  0  0  0  0
  -27.3834  -12.5524   17.7889 H   0  0  0  0  0  0
  -27.6691  -14.2459   19.4804 H   0  0  0  0  0  0
  -28.6976  -12.1191   21.4338 H   0  0  0  0  0  0
  -28.4735  -13.8115   21.7884 H   0  0  0  0  0  0
  -25.2717   -9.5693   22.4749 H   0  0  0  0  0  0
  -23.9973   -7.4646   22.7455 H   0  0  0  0  0  0
  -21.0811   -8.8772   19.8944 H   0  0  0  0  0  0
  -22.3665  -10.9660   19.6171 H   0  0  0  0  0  0
  -21.2030   -7.6124   23.9703 H   0  0  0  0  0  0
  -21.1484   -6.0482   25.9059 H   0  0  0  0  0  0
  -22.0607   -2.7584   23.2825 H   0  0  0  0  0  0
  -22.4012  -11.9972   22.4831 H   0  0  0  0  0  0
  -21.1102  -13.1399   22.2572 H   0  0  0  0  0  0
  -24.6582  -15.8430   20.5240 H   0  0  0  0  0  0
  -26.2590  -15.6274   20.0419 H   0  0  0  0  0  0
  -26.7110  -32.5551   23.1168 H   0  0  0  0  0  0
  -25.0081  -33.9795   25.0522 H   0  0  0  0  0  0
  -22.6922  -31.3075   21.4090 H   0  0  0  0  0  0
  -23.3785  -35.9610   23.3228 H   0  0  0  0  0  0
  -24.3617  -36.8996   22.2062 H   0  0  0  0  0  0
  -23.7180  -37.6488   23.6669 H   0  0  0  0  0  0
  -26.0452  -31.5997   20.6017 H   0  0  0  0  0  0
  -26.8168  -30.8852   21.9901 H   0  0  0  0  0  0
  -28.0991  -29.1011   21.1758 H   0  0  0  0  0  0
  -26.0625  -25.9651   19.0202 H   0  0  0  0  0  0
  -23.9832  -27.2918   19.0387 H   0  0  0  0  0  0
  -23.7269  -30.5956   19.4025 H   0  0  0  0  0  0
  -22.7402  -29.2415   19.8664 H   0  0  0  0  0  0
  -25.1251  -36.1980   25.0841 H   0  0  0  0  0  0
  -20.9938  -28.3232   24.1442 H   0  0  0  0  0  0
  -20.5649  -26.2274   23.3595 H   0  0  0  0  0  0
  -21.6632  -26.7439   22.1219 H   0  0  0  0  0  0
  -19.6881  -25.6300   21.1245 H   0  0  0  0  0  0
  -19.6660  -27.3197   20.6734 H   0  0  0  0  0  0
  -17.4167  -26.6665   21.4033 H   0  0  0  0  0  0
  -18.0315  -26.0069   22.9022 H   0  0  0  0  0  0
  -19.7929  -30.7241   24.2329 H   0  0  0  0  0  0
  -17.5016  -31.6267   24.5163 H   0  0  0  0  0  0
  -15.5347  -30.3005   23.7641 H   0  0  0  0  0  0
  -15.8650  -28.0830   22.7068 H   0  0  0  0  0  0
  -24.5846  -30.7168   25.7880 H   0  0  0  0  0  0
  -24.8954  -32.2959   26.4991 H   0  0  0  0  0  0
  -25.8067  -30.8929   27.0280 H   0  0  0  0  0  0
  -26.2840  -29.6861   24.1205 H   0  0  0  0  0  0
  -27.3977  -29.7312   25.4646 H   0  0  0  0  0  0
  -27.8677  -30.4366   23.9377 H   0  0  0  0  0  0
  -27.2704  -33.3631   26.2097 H   0  0  0  0  0  0
  -28.3804  -32.6941   25.0288 H   0  0  0  0  0  0
  -28.0769  -31.8486   26.5354 H   0  0  0  0  0  0
  -28.2500  -38.0196   24.7717 H   0  0  0  0  0  0
  -28.1228  -36.2767   24.5930 H   0  0  0  0  0  0
  -27.2383  -37.1043   25.8829 H   0  0  0  0  0  0
  -20.9287  -29.8783   21.6978 H   0  0  0  0  0  0
  -26.0157  -38.2882   24.1597 H   0  0  0  0  0  0
  -29.0624  -19.8753   18.9521 H   0  0  0  0  0  0
  -32.5838  -19.4723   21.3863 H   0  0  0  0  0  0
  -28.5963  -17.4783   19.2226 H   0  0  0  0  0  0
  -32.1548  -17.0733   21.6475 H   0  0  0  0  0  0
  -32.9154  -24.8341   18.0085 H   0  0  0  0  0  0
  -31.3423  -24.6781   17.2393 H   0  0  0  0  0  0
  -32.1789  -23.2437   17.8158 H   0  0  0  0  0  0
  -31.9819  -24.2988   20.2328 H   0  0  0  0  0  0
  -31.0114  -25.5096   19.5152 H   0  0  0  0  0  0
  -28.9714  -25.1490   21.3287 H   0  0  0  0  0  0
  -27.3193  -25.0460   20.7860 H   0  0  0  0  0  0
  -28.9882  -15.4959   20.7571 H   0  0  0  0  0  0
  -33.0329  -21.1692   20.4912 H   0  0  0  0  0  0
  -32.5086  -22.7907   20.4150 H   0  0  0  0  0  0
  1 25  1  0  0  0
  1 30  2  0  0  0
  1 84  1  0  0  0
  2  3  1  0  0  0
  2 25  1  0  0  0
  2 87  1  0  0  0
  2 88  1  0  0  0
  3  4  1  0  0  0
  3 89  1  0  0  0
  3 90  1  0  0  0
  4  5  1  0  0  0
  4 91  1  0  0  0
  4 92  1  0  0  0
  5  6  1  0  0  0
  5 26  1  0  0  0
  5 93  1  0  0  0
  6 25  1  0  0  0
  6 94  1  0  0  0
  6 95  1  0  0  0
  7  8  2  0  0  0
  7 26  1  0  0  0
  7 29  1  0  0  0
  8  9  1  0  0  0
  8 22  1  0  0  0
  9 10  1  0  0  0
  9 27  2  0  0  0
 10 11  2  0  0  0
 10 15  1  0  0  0
 11 12  1  0  0  0
 11 96  1  0  0  0
 12 13  2  0  0  0
 12 97  1  0  0  0
 13 14  1  0  0  0
 13 31  1  0  0  0
 14 15  2  0  0  0
 14 98  1  0  0  0
 15 99  1  0  0  0
 16 17  2  0  0  0
 16 21  1  0  0  0
 16 31  1  0  0  0
 17 18  1  0  0  0
 17100  1  0  0  0
 18 19  2  0  0  0
 18101  1  0  0  0
 19 20  1  0  0  0
 19 24  1  0  0  0
 20 21  2  0  0  0
 20102  1  0  0  0
 21 23  1  0  0  0
 22 28  1  0  0  0
 22 32  2  0  0  0
 26 27  1  0  0  0
 28103  1  0  0  0
 28104  1  0  0  0
 29105  1  0  0  0
 29106  1  0  0  0
 33 34  1  0  0  0
 33 66  1  0  0  0
 33 70  2  0  0  0
 34 36  1  0  0  0
 34 59  1  0  0  0
 34107  1  0  0  0
 35 44  2  0  0  0
 35 45  1  0  0  0
 35 68  1  0  0  0
 36 56  1  0  0  0
 36108  1  0  0  0
 37 39  1  0  0  0
 37 47  1  0  0  0
 37 66  1  0  0  0
 37109  1  0  0  0
 38 43  2  0  0  0
 38 46  1  0  0  0
 38 47  1  0  0  0
 39 64  1  0  0  0
 39 67  2  0  0  0
 40 52  1  0  0  0
 40 53  2  0  0  0
 40 58  1  0  0  0
 41110  1  0  0  0
 41111  1  0  0  0
 41112  1  0  0  0
 41 48  1  0  0  0
 42 43  1  0  0  0
 42 66  1  0  0  0
 42113  1  0  0  0
 42114  1  0  0  0
 43 44  1  0  0  0
 44115  1  0  0  0
 45 46  2  0  0  0
 45116  1  0  0  0
 46117  1  0  0  0
 47118  1  0  0  0
 47119  1  0  0  0
 48 56  1  0  0  0
 48 65  1  0  0  0
 48120  1  0  0  0
 49 50  1  0  0  0
 49 53  1  0  0  0
 49 64  1  0  0  0
 49121  1  0  0  0
 50 51  1  0  0  0
 50122  1  0  0  0
 50123  1  0  0  0
 51 52  1  0  0  0
 51124  1  0  0  0
 51125  1  0  0  0
 52126  1  0  0  0
 52127  1  0  0  0
 53 54  1  0  0  0
 54 55  2  0  0  0
 54128  1  0  0  0
 55 57  1  0  0  0
 55129  1  0  0  0
 56 69  2  0  0  0
 57 58  2  0  0  0
 57130  1  0  0  0
 58131  1  0  0  0
 59 60  1  0  0  0
 59 61  1  0  0  0
 59 62  1  0  0  0
 60132  1  0  0  0
 60133  1  0  0  0
 60134  1  0  0  0
 61135  1  0  0  0
 61136  1  0  0  0
 61137  1  0  0  0
 62138  1  0  0  0
 62139  1  0  0  0
 62140  1  0  0  0
 63 65  1  0  0  0
 63141  1  0  0  0
 63142  1  0  0  0
 63143  1  0  0  0
 64144  1  0  0  0
 65145  1  0  0  0
 68 82  1  0  0  0
 71 73  2  0  0  0
 71 75  1  0  0  0
 71146  1  0  0  0
 72 74  1  0  0  0
 72 75  2  0  0  0
 72147  1  0  0  0
 73 76  1  0  0  0
 73148  1  0  0  0
 74 76  2  0  0  0
 74149  1  0  0  0
 75 77  1  0  0  0
 76 84  1  0  0  0
 77 83  1  0  0  0
 77 85  2  0  0  0
 78 79  1  0  0  0
 78 81  1  0  0  0
 78 83  2  0  0  0
 79 82  1  0  0  0
 79 86  2  0  0  0
 80 81  1  0  0  0
 80150  1  0  0  0
 80151  1  0  0  0
 80152  1  0  0  0
 81153  1  0  0  0
 81154  1  0  0  0
 82155  1  0  0  0
 82156  1  0  0  0
 84157  1  0  0  0
 85158  1  0  0  0
 85159  1  0  0  0
M  CHG  1  85   1
M  ISO  4   1 100  68 101  82 101  84 100
M  END
> <chiral flag>
0

> <version>
0

> <s_m_source_file>
/data/baiqing/PycharmProjects/Reinvent-master-3.2/result/LINK_invent/BTK/process_docking_weight1_custom_product_contain_oxygen_bond_distance_aromatic_linkinvent_7_9_3/rearranged_h_0072.sdf

> <i_m_source_file_index>
27

> <r_mmod_Potential_Energy-OPLS-2005>
116.627548217773

> <r_mmod_Stretch_Energy-OPLS-2005>
55.8604583740234

> <r_mmod_Bend_Energy-OPLS-2005>
128.63948059082

> <r_mmod_Torsional_Energy-OPLS-2005>
283.227966308594

> <r_mmod_Improper_Torsional_Energy-OPLS-2005>
7.03705787658691

> <r_mmod_Van_der_Waal_Energy-OPLS-2005>
159.110305786133

> <r_mmod_Electrostatic_Energy-OPLS-2005>
-60.0750999450684

> <r_mmod_Solvation_Energy-OPLS-2005>
-484.725860595703

> <b_mmod_Minimization_Converged-OPLS-2005>
0

> <r_mmod_RMS_Derivative-OPLS-2005>
5.26860189437866

$$$$
27
                    3D
 Structure written by MMmdl.
157166  0  0  1  0            999 V2000
  -30.7104  -14.5524   20.5068 C   0  0  0  0  0  0
  -30.4132  -12.3251   19.4770 C   0  0  0  0  0  0
  -29.5009  -12.4810   18.2427 C   0  0  0  0  0  0
  -28.0243  -12.3353   18.6537 C   0  0  0  0  0  0
  -27.6490  -13.2230   19.8723 C   0  0  2  0  0  0
  -28.6953  -13.0955   21.0062 C   0  0  0  0  0  0
  -25.2446  -13.8142   20.5647 C   0  0  0  0  0  0
  -24.1720  -13.0390   20.9094 C   0  0  0  0  0  0
  -24.6345  -11.6888   20.8711 C   0  0  0  0  0  0
  -23.9064  -10.4272   21.0416 C   0  0  0  0  0  0
  -24.3623   -9.4189   21.9186 C   0  0  0  0  0  0
  -23.6290   -8.2244   22.0772 C   0  0  0  0  0  0
  -22.4264   -8.0302   21.3588 C   0  0  0  0  0  0
  -21.9896   -9.0243   20.4655 C   0  0  0  0  0  0
  -22.7247  -10.2110   20.3065 C   0  0  0  0  0  0
  -21.6865   -6.0748   22.5281 C   0  0  0  0  0  0
  -21.4006   -6.5661   23.8198 C   0  0  0  0  0  0
  -21.3654   -5.6813   24.9164 C   0  0  0  0  0  0
  -21.6044   -4.3073   24.7201 C   0  0  0  0  0  0
  -21.8819   -3.8158   23.4330 C   0  0  0  0  0  0
  -21.9185   -4.6978   22.3391 C   0  0  0  0  0  0
  -22.7758  -13.5178   21.1848 C   0  0  0  0  0  0
  -22.1636   -4.2149   21.0975 F   0  0  0  0  0  0
  -21.5626   -3.4575   25.7727 F   0  0  0  0  0  0
  -30.0220  -13.3740   20.4357 N   0  0  0  0  0  0
  -26.2956  -12.9370   20.3416 N   0  0  0  0  0  0
  -25.9286  -11.6496   20.5777 N   0  0  0  0  0  0
  -22.0489  -12.8133   22.0439 N   0  0  0  0  0  0
  -25.4001  -15.1828   20.4141 N   0  0  0  0  0  0
  -31.8839  -14.6162   20.1329 O   0  0  0  0  0  0
  -21.6626   -6.8924   21.4281 O   0  0  0  0  0  0
  -22.3412  -14.5517   20.6792 O   0  0  0  0  0  0
  -24.6181  -31.8666   23.2086 C   0  0  0  0  0  0
  -25.9060  -32.4812   23.8386 C   0  0  1  0  0  0
  -27.2307  -27.4008   20.1021 C   0  0  0  0  0  0
  -25.5913  -33.8613   24.2321 N   0  0  0  0  0  0
  -23.4059  -30.4939   21.5501 C   0  0  2  0  0  0
  -24.8486  -28.9525   20.1202 C   0  0  0  0  0  0
  -22.7419  -29.4679   22.4985 C   0  0  0  0  0  0
  -18.0295  -28.1393   22.8507 C   0  0  0  0  0  0
  -24.1487  -36.7285   23.2646 C   0  0  0  0  0  0
  -25.9382  -30.8264   21.3628 C   0  0  0  0  0  0
  -26.0126  -29.4570   20.7101 C   0  0  0  0  0  0
  -27.2037  -28.6899   20.6946 C   0  0  0  0  0  0
  -26.0346  -26.9087   19.5297 C   0  0  0  0  0  0
  -24.8557  -27.6774   19.5311 C   0  0  0  0  0  0
  -23.6135  -29.8251   20.1653 C   0  0  0  0  0  0
  -25.4110  -36.3092   24.0338 C   0  0  1  0  0  0
  -20.5874  -28.3670   23.1333 C   0  0  2  0  0  0
  -20.6762  -26.9398   22.5450 C   0  0  0  0  0  0
  -19.5753  -26.6387   21.5251 C   0  0  0  0  0  0
  -18.1940  -26.7935   22.1669 C   0  0  0  0  0  0
  -19.1540  -28.8861   23.2914 C   0  0  0  0  0  0
  -18.9467  -30.1470   23.8933 C   0  0  0  0  0  0
  -17.6477  -30.6593   24.0581 C   0  0  0  0  0  0
  -25.9030  -34.9466   23.5123 C   0  0  0  0  0  0
  -16.5374  -29.9096   23.6350 C   0  0  0  0  0  0
  -16.7276  -28.6504   23.0359 C   0  0  0  0  0  0
  -26.4503  -31.6607   25.0725 C   0  0  0  0  0  0
  -25.3773  -31.3683   26.1464 C   0  0  0  0  0  0
  -27.0357  -30.3054   24.6122 C   0  0  0  0  0  0
  -27.6103  -32.4321   25.7477 C   0  0  0  0  0  0
  -27.5571  -37.1793   24.8479 C   0  0  0  0  0  0
  -21.4144  -29.3038   22.3718 N   0  0  0  0  0  0
  -26.4292  -37.3767   23.9409 N   0  0  0  0  0  0
  -24.6730  -31.0752   22.0989 N   0  0  0  0  0  0
  -23.4205  -28.8213   23.3028 O   0  0  0  0  0  0
  -28.4257  -26.6918   20.1164 O   0  0  0  0  0  0
  -26.5587  -34.8911   22.4683 O   0  0  0  0  0  0
  -23.5367  -32.1437   23.7458 O   0  0  0  0  0  0
  -27.2540  -20.0440   20.9951 C   0  0  0  0  0  0
  -26.9264  -18.6914   21.1525 C   0  0  0  0  0  0
  -29.6053  -19.4427   20.7883 C   0  0  0  0  0  0
  -29.2849  -18.0479   20.9046 C   0  0  0  0  0  0
  -28.5961  -20.4542   20.8394 C   0  0  0  0  0  0
  -27.9268  -17.7057   21.1242 C   0  0  0  0  0  0
  -28.1329  -22.8219   20.2018 C   0  0  0  0  0  0
  -30.3667  -16.9715   20.7926 C   0  0  0  0  0  0
  -29.7013  -24.0099   21.5703 C   0  0  0  0  0  0
  -29.8833  -22.4743   21.6954 C   0  0  0  0  0  0
  -28.4243  -24.2354   20.7289 C   0  0  1  0  0  0
  -28.5200  -25.3352   19.6202 C   0  0  0  0  0  0
  -28.8841  -21.8698   20.8149 N   0  0  0  0  0  0
  -29.9788  -15.6610   20.7961 N   0  0  0  0  0  0
  -27.2911  -22.6167   19.3202 O   0  0  0  0  0  0
  -31.5426  -17.3374   20.6815 O   0  0  0  0  0  0
  -27.5574  -16.4169   21.3045 F   0  0  0  0  0  0
  -31.4667  -12.3795   19.1929 H   0  0  0  0  0  0
  -30.2804  -11.3350   19.9173 H   0  0  0  0  0  0
  -29.7446  -11.7226   17.4997 H   0  0  0  0  0  0
  -29.6676  -13.4501   17.7735 H   0  0  0  0  0  0
  -27.8587  -11.2872   18.9030 H   0  0  0  0  0  0
  -27.3692  -12.5561   17.8125 H   0  0  0  0  0  0
  -27.6606  -14.2524   19.5161 H   0  0  0  0  0  0
  -28.6841  -12.0887   21.4245 H   0  0  0  0  0  0
  -28.4661  -13.7689   21.8354 H   0  0  0  0  0  0
  -25.2767   -9.5603   22.4765 H   0  0  0  0  0  0
  -23.9975   -7.4637   22.7471 H   0  0  0  0  0  0
  -21.0837   -8.8779   19.8944 H   0  0  0  0  0  0
  -22.3724  -10.9662   19.6173 H   0  0  0  0  0  0
  -21.2005   -7.6159   23.9699 H   0  0  0  0  0  0
  -21.1471   -6.0547   25.9074 H   0  0  0  0  0  0
  -22.0592   -2.7617   23.2833 H   0  0  0  0  0  0
  -22.4127  -11.9684   22.4587 H   0  0  0  0  0  0
  -21.1169  -13.1152   22.2901 H   0  0  0  0  0  0
  -24.6408  -15.7936   20.6937 H   0  0  0  0  0  0
  -26.3105  -15.5889   20.6206 H   0  0  0  0  0  0
  -26.7152  -32.5507   23.1158 H   0  0  0  0  0  0
  -25.0109  -33.9783   25.0499 H   0  0  0  0  0  0
  -22.6966  -31.3121   21.4110 H   0  0  0  0  0  0
  -23.3741  -35.9621   23.3352 H   0  0  0  0  0  0
  -24.3573  -36.8853   22.2049 H   0  0  0  0  0  0
  -23.7254  -37.6511   23.6630 H   0  0  0  0  0  0
  -26.0518  -31.5956   20.5985 H   0  0  0  0  0  0
  -26.8240  -30.8774   21.9834 H   0  0  0  0  0  0
  -28.1028  -29.0857   21.1469 H   0  0  0  0  0  0
  -25.9655  -25.9300   19.0837 H   0  0  0  0  0  0
  -23.9523  -27.2770   19.0897 H   0  0  0  0  0  0
  -23.7250  -30.6004   19.4048 H   0  0  0  0  0  0
  -22.7368  -29.2471   19.8684 H   0  0  0  0  0  0
  -25.1290  -36.1951   25.0827 H   0  0  0  0  0  0
  -20.9984  -28.3255   24.1434 H   0  0  0  0  0  0
  -20.5618  -26.2309   23.3648 H   0  0  0  0  0  0
  -21.6622  -26.7386   22.1252 H   0  0  0  0  0  0
  -19.6912  -25.6308   21.1296 H   0  0  0  0  0  0
  -19.6697  -27.3199   20.6790 H   0  0  0  0  0  0
  -17.4165  -26.6641   21.4107 H   0  0  0  0  0  0
  -18.0354  -26.0144   22.9140 H   0  0  0  0  0  0
  -19.7932  -30.7280   24.2364 H   0  0  0  0  0  0
  -17.5026  -31.6244   24.5221 H   0  0  0  0  0  0
  -15.5385  -30.2996   23.7696 H   0  0  0  0  0  0
  -15.8671  -28.0858   22.7053 H   0  0  0  0  0  0
  -24.5956  -30.7034   25.7774 H   0  0  0  0  0  0
  -24.8946  -32.2818   26.4941 H   0  0  0  0  0  0
  -25.8116  -30.8826   27.0207 H   0  0  0  0  0  0
  -26.2905  -29.6769   24.1230 H   0  0  0  0  0  0
  -27.4204  -29.7338   25.4582 H   0  0  0  0  0  0
  -27.8700  -30.4395   23.9233 H   0  0  0  0  0  0
  -27.2771  -33.3632   26.2064 H   0  0  0  0  0  0
  -28.3894  -32.6854   25.0281 H   0  0  0  0  0  0
  -28.0786  -31.8431   26.5369 H   0  0  0  0  0  0
  -28.2616  -38.0062   24.7472 H   0  0  0  0  0  0
  -28.1043  -36.2588   24.6377 H   0  0  0  0  0  0
  -27.2280  -37.1522   25.8882 H   0  0  0  0  0  0
  -20.9307  -29.8732   21.6932 H   0  0  0  0  0  0
  -26.0191  -38.2849   24.1389 H   0  0  0  0  0  0
  -26.4520  -20.7682   21.0405 H   0  0  0  0  0  0
  -25.8937  -18.4085   21.3005 H   0  0  0  0  0  0
  -30.6364  -19.7378   20.6452 H   0  0  0  0  0  0
  -30.5775  -24.4508   21.0911 H   0  0  0  0  0  0
  -29.6117  -24.4725   22.5545 H   0  0  0  0  0  0
  -29.7025  -22.1594   22.7276 H   0  0  0  0  0  0
  -30.8978  -22.1649   21.4298 H   0  0  0  0  0  0
  -27.5836  -24.4685   21.3858 H   0  0  0  0  0  0
  -27.8290  -25.1418   18.8027 H   0  0  0  0  0  0
  -29.4950  -25.2522   19.1410 H   0  0  0  0  0  0
  -28.9954  -15.5219   20.9761 H   0  0  0  0  0  0
  1 25  1  0  0  0
  1 30  2  0  0  0
  1 84  1  0  0  0
  2  3  1  0  0  0
  2 25  1  0  0  0
  2 88  1  0  0  0
  2 89  1  0  0  0
  3  4  1  0  0  0
  3 90  1  0  0  0
  3 91  1  0  0  0
  4  5  1  0  0  0
  4 92  1  0  0  0
  4 93  1  0  0  0
  5  6  1  0  0  0
  5 26  1  0  0  0
  5 94  1  0  0  0
  6 25  1  0  0  0
  6 95  1  0  0  0
  6 96  1  0  0  0
  7  8  2  0  0  0
  7 26  1  0  0  0
  7 29  1  0  0  0
  8  9  1  0  0  0
  8 22  1  0  0  0
  9 10  1  0  0  0
  9 27  2  0  0  0
 10 11  2  0  0  0
 10 15  1  0  0  0
 11 12  1  0  0  0
 11 97  1  0  0  0
 12 13  2  0  0  0
 12 98  1  0  0  0
 13 14  1  0  0  0
 13 31  1  0  0  0
 14 15  2  0  0  0
 14 99  1  0  0  0
 15100  1  0  0  0
 16 17  2  0  0  0
 16 21  1  0  0  0
 16 31  1  0  0  0
 17 18  1  0  0  0
 17101  1  0  0  0
 18 19  2  0  0  0
 18102  1  0  0  0
 19 20  1  0  0  0
 19 24  1  0  0  0
 20 21  2  0  0  0
 20103  1  0  0  0
 21 23  1  0  0  0
 22 28  1  0  0  0
 22 32  2  0  0  0
 26 27  1  0  0  0
 28104  1  0  0  0
 28105  1  0  0  0
 29106  1  0  0  0
 29107  1  0  0  0
 33 34  1  0  0  0
 33 66  1  0  0  0
 33 70  2  0  0  0
 34 36  1  0  0  0
 34 59  1  0  0  0
 34108  1  0  0  0
 35 44  2  0  0  0
 35 45  1  0  0  0
 35 68  1  0  0  0
 36 56  1  0  0  0
 36109  1  0  0  0
 37 39  1  0  0  0
 37 47  1  0  0  0
 37 66  1  0  0  0
 37110  1  0  0  0
 38 43  2  0  0  0
 38 46  1  0  0  0
 38 47  1  0  0  0
 39 64  1  0  0  0
 39 67  2  0  0  0
 40 52  1  0  0  0
 40 53  2  0  0  0
 40 58  1  0  0  0
 41111  1  0  0  0
 41112  1  0  0  0
 41113  1  0  0  0
 41 48  1  0  0  0
 42 43  1  0  0  0
 42 66  1  0  0  0
 42114  1  0  0  0
 42115  1  0  0  0
 43 44  1  0  0  0
 44116  1  0  0  0
 45 46  2  0  0  0
 45117  1  0  0  0
 46118  1  0  0  0
 47119  1  0  0  0
 47120  1  0  0  0
 48 56  1  0  0  0
 48 65  1  0  0  0
 48121  1  0  0  0
 49 50  1  0  0  0
 49 53  1  0  0  0
 49 64  1  0  0  0
 49122  1  0  0  0
 50 51  1  0  0  0
 50123  1  0  0  0
 50124  1  0  0  0
 51 52  1  0  0  0
 51125  1  0  0  0
 51126  1  0  0  0
 52127  1  0  0  0
 52128  1  0  0  0
 53 54  1  0  0  0
 54 55  2  0  0  0
 54129  1  0  0  0
 55 57  1  0  0  0
 55130  1  0  0  0
 56 69  2  0  0  0
 57 58  2  0  0  0
 57131  1  0  0  0
 58132  1  0  0  0
 59 60  1  0  0  0
 59 61  1  0  0  0
 59 62  1  0  0  0
 60133  1  0  0  0
 60134  1  0  0  0
 60135  1  0  0  0
 61136  1  0  0  0
 61137  1  0  0  0
 61138  1  0  0  0
 62139  1  0  0  0
 62140  1  0  0  0
 62141  1  0  0  0
 63 65  1  0  0  0
 63142  1  0  0  0
 63143  1  0  0  0
 63144  1  0  0  0
 64145  1  0  0  0
 65146  1  0  0  0
 68 82  1  0  0  0
 71 72  2  0  0  0
 71 75  1  0  0  0
 71147  1  0  0  0
 72 76  1  0  0  0
 72148  1  0  0  0
 73 74  1  0  0  0
 73 75  2  0  0  0
 73149  1  0  0  0
 74 76  2  0  0  0
 74 78  1  0  0  0
 75 83  1  0  0  0
 76 87  1  0  0  0
 77 81  1  0  0  0
 77 83  1  0  0  0
 77 85  2  0  0  0
 78 84  1  0  0  0
 78 86  2  0  0  0
 79 80  1  0  0  0
 79 81  1  0  0  0
 79150  1  0  0  0
 79151  1  0  0  0
 80 83  1  0  0  0
 80152  1  0  0  0
 80153  1  0  0  0
 81 82  1  0  0  0
 81154  1  0  0  0
 82155  1  0  0  0
 82156  1  0  0  0
 84157  1  0  0  0
M  ISO  4   1 100  68 101  82 101  84 100
M  END
> <chiral flag>
0

> <version>
0

> <s_m_source_file>
/data/baiqing/PycharmProjects/Reinvent-master-3.2/result/LINK_invent/BTK/process_docking_weight1_custom_product_contain_oxygen_bond_distance_aromatic_linkinvent_7_9_3/rearranged_h_0072.sdf

> <i_m_source_file_index>
28

> <r_mmod_Potential_Energy-OPLS-2005>
25.0601367950439

> <r_mmod_Stretch_Energy-OPLS-2005>
51.6978569030762

> <r_mmod_Bend_Energy-OPLS-2005>
131.155975341797

> <r_mmod_Torsional_Energy-OPLS-2005>
284.326080322266

> <r_mmod_Improper_Torsional_Energy-OPLS-2005>
8.49665355682373

> <r_mmod_Van_der_Waal_Energy-OPLS-2005>
167.050567626953

> <r_mmod_Electrostatic_Energy-OPLS-2005>
-422.388427734375

> <r_mmod_Solvation_Energy-OPLS-2005>
-221.642303466797

> <b_mmod_Minimization_Converged-OPLS-2005>
0

> <r_mmod_RMS_Derivative-OPLS-2005>
6.03197813034058

$$$$
28
                    3D
 Structure written by MMmdl.
159168  0  0  1  0            999 V2000
  -30.6089  -14.8133   20.4508 C   0  0  0  0  0  0
  -30.4354  -12.5044   19.4707 C   0  0  0  0  0  0
  -29.5097  -12.5063   18.2341 C   0  0  0  0  0  0
  -28.0401  -12.3184   18.6551 C   0  0  0  0  0  0
  -27.6364  -13.2367   19.8389 C   0  0  2  0  0  0
  -28.6857  -13.2166   20.9719 C   0  0  0  0  0  0
  -25.2497  -13.8196   20.5698 C   0  0  0  0  0  0
  -24.1797  -13.0439   20.9223 C   0  0  0  0  0  0
  -24.6402  -11.6920   20.8755 C   0  0  0  0  0  0
  -23.9083  -10.4295   21.0405 C   0  0  0  0  0  0
  -24.3630   -9.4206   21.9186 C   0  0  0  0  0  0
  -23.6299   -8.2242   22.0754 C   0  0  0  0  0  0
  -22.4274   -8.0283   21.3545 C   0  0  0  0  0  0
  -21.9922   -9.0258   20.4646 C   0  0  0  0  0  0
  -22.7253  -10.2136   20.3053 C   0  0  0  0  0  0
  -21.6852   -6.0742   22.5283 C   0  0  0  0  0  0
  -21.4016   -6.5644   23.8219 C   0  0  0  0  0  0
  -21.3660   -5.6795   24.9180 C   0  0  0  0  0  0
  -21.6040   -4.3054   24.7228 C   0  0  0  0  0  0
  -21.8818   -3.8151   23.4348 C   0  0  0  0  0  0
  -21.9196   -4.6969   22.3406 C   0  0  0  0  0  0
  -22.7820  -13.5216   21.1868 C   0  0  0  0  0  0
  -22.1659   -4.2152   21.0985 F   0  0  0  0  0  0
  -21.5630   -3.4539   25.7739 F   0  0  0  0  0  0
  -29.9735  -13.5870   20.3749 N   0  0  0  0  0  0
  -26.2923  -12.9421   20.3254 N   0  0  0  0  0  0
  -25.9333  -11.6561   20.5753 N   0  0  0  0  0  0
  -22.0459  -12.8209   22.0422 N   0  0  0  0  0  0
  -25.4151  -15.1926   20.4100 N   0  0  0  0  0  0
  -31.8110  -14.8645   20.1757 O   0  0  0  0  0  0
  -21.6637   -6.8879   21.4238 O   0  0  0  0  0  0
  -22.3513  -14.5525   20.6715 O   0  0  0  0  0  0
  -24.6367  -31.8523   23.1961 C   0  0  0  0  0  0
  -25.9179  -32.4741   23.8325 C   0  0  1  0  0  0
  -27.2115  -27.2067   20.1374 C   0  0  0  0  0  0
  -25.5954  -33.8542   24.2243 N   0  0  0  0  0  0
  -23.4396  -30.4731   21.5396 C   0  0  2  0  0  0
  -24.8934  -28.9254   20.1010 C   0  0  0  0  0  0
  -22.7543  -29.4578   22.4866 C   0  0  0  0  0  0
  -18.0299  -28.1413   22.8485 C   0  0  0  0  0  0
  -24.1479  -36.7267   23.2640 C   0  0  0  0  0  0
  -25.9911  -30.7445   21.3925 C   0  0  0  0  0  0
  -26.0666  -29.3645   20.7310 C   0  0  0  0  0  0
  -27.2295  -28.5142   20.7497 C   0  0  0  0  0  0
  -26.0312  -26.8796   19.4313 C   0  0  0  0  0  0
  -24.8838  -27.6921   19.4369 C   0  0  0  0  0  0
  -23.6650  -29.8145   20.1540 C   0  0  0  0  0  0
  -25.4108  -36.3053   24.0312 C   0  0  1  0  0  0
  -20.5906  -28.3727   23.1223 C   0  0  2  0  0  0
  -20.6777  -26.9437   22.5393 C   0  0  0  0  0  0
  -19.5753  -26.6403   21.5206 C   0  0  0  0  0  0
  -18.1936  -26.7956   22.1625 C   0  0  0  0  0  0
  -19.1558  -28.8883   23.2856 C   0  0  0  0  0  0
  -18.9484  -30.1486   23.8884 C   0  0  0  0  0  0
  -17.6480  -30.6611   24.0571 C   0  0  0  0  0  0
  -25.9058  -34.9429   23.5070 C   0  0  0  0  0  0
  -16.5367  -29.9103   23.6353 C   0  0  0  0  0  0
  -16.7289  -28.6523   23.0364 C   0  0  0  0  0  0
  -26.4539  -31.6568   25.0724 C   0  0  0  0  0  0
  -25.3757  -31.3730   26.1427 C   0  0  0  0  0  0
  -27.0377  -30.2967   24.6266 C   0  0  0  0  0  0
  -27.6090  -32.4304   25.7508 C   0  0  0  0  0  0
  -27.5566  -37.1778   24.8472 C   0  0  0  0  0  0
  -21.4247  -29.3054   22.3601 N   0  0  0  0  0  0
  -26.4292  -37.3748   23.9408 N   0  0  0  0  0  0
  -24.7086  -31.0402   22.0991 N   0  0  0  0  0  0
  -23.4205  -28.8139   23.3012 O   0  0  0  0  0  0
  -28.1841  -26.1635   20.2561 O   0  0  0  0  0  0
  -26.5635  -34.8910   22.4650 O   0  0  0  0  0  0
  -23.5500  -32.1389   23.7196 O   0  0  0  0  0  0
  -31.5327  -17.7094   21.2690 C   0  0  0  0  0  0
  -29.4120  -18.6286   20.4786 C   0  0  0  0  0  0
  -31.9203  -19.0393   21.5108 C   0  0  0  0  0  0
  -31.1209  -20.1552   21.2463 C   0  0  0  0  0  0
  -30.2507  -17.4353   20.7371 C   0  0  0  0  0  0
  -29.8139  -20.0356   20.7076 C   0  0  0  0  0  0
  -33.1327  -19.4992   22.1517 C   0  0  0  0  0  0
  -27.6401  -24.8984   20.6936 C   0  0  0  0  0  0
  -27.9053  -23.5106   20.7563 C   0  0  0  0  0  0
  -29.0942  -22.6313   20.3962 C   0  0  0  0  0  0
  -31.8617  -21.3908   21.7292 C   0  0  0  0  0  0
  -26.7412  -22.6941   21.3385 C   0  0  0  0  0  0
  -33.0985  -20.8245   22.3022 N   0  3  0  0  0  0
  -34.1417  -18.7365   22.5581 N   0  0  0  0  0  0
  -28.9159  -21.2404   20.5666 N   0  0  0  0  0  0
  -29.8494  -15.9885   20.5779 N   0  0  0  0  0  0
  -30.1513  -23.0879   19.9644 O   0  0  0  0  0  0
  -31.4728  -12.6379   19.1598 H   0  0  0  0  0  0
  -30.3995  -11.5404   19.9802 H   0  0  0  0  0  0
  -29.8044  -11.7178   17.5399 H   0  0  0  0  0  0
  -29.6192  -13.4475   17.6926 H   0  0  0  0  0  0
  -27.9137  -11.2741   18.9411 H   0  0  0  0  0  0
  -27.3788  -12.4814   17.8035 H   0  0  0  0  0  0
  -27.6142  -14.2483   19.4328 H   0  0  0  0  0  0
  -28.7441  -12.2305   21.4348 H   0  0  0  0  0  0
  -28.4151  -13.9146   21.7658 H   0  0  0  0  0  0
  -25.2774   -9.5686   22.4766 H   0  0  0  0  0  0
  -24.0010   -7.4632   22.7474 H   0  0  0  0  0  0
  -21.0856   -8.8777   19.8948 H   0  0  0  0  0  0
  -22.3712  -10.9676   19.6164 H   0  0  0  0  0  0
  -21.2003   -7.6150   23.9724 H   0  0  0  0  0  0
  -21.1482   -6.0522   25.9083 H   0  0  0  0  0  0
  -22.0597   -2.7609   23.2848 H   0  0  0  0  0  0
  -22.4077  -11.9875   22.4820 H   0  0  0  0  0  0
  -21.1065  -13.1226   22.2592 H   0  0  0  0  0  0
  -24.6378  -15.8362   20.5095 H   0  0  0  0  0  0
  -26.2468  -15.6335   20.0418 H   0  0  0  0  0  0
  -26.7233  -32.5397   23.1058 H   0  0  0  0  0  0
  -25.0121  -33.9687   25.0391 H   0  0  0  0  0  0
  -22.7404  -31.2981   21.3913 H   0  0  0  0  0  0
  -23.3756  -35.9588   23.3320 H   0  0  0  0  0  0
  -24.3575  -36.8884   22.2056 H   0  0  0  0  0  0
  -23.7210  -37.6459   23.6660 H   0  0  0  0  0  0
  -26.1306  -31.5061   20.6234 H   0  0  0  0  0  0
  -26.8670  -30.7979   22.0276 H   0  0  0  0  0  0
  -28.1106  -28.8235   21.2941 H   0  0  0  0  0  0
  -25.9642  -25.9284   18.9215 H   0  0  0  0  0  0
  -23.9910  -27.3564   18.9282 H   0  0  0  0  0  0
  -23.7938  -30.5972   19.4058 H   0  0  0  0  0  0
  -22.7824  -29.2523   19.8438 H   0  0  0  0  0  0
  -25.1273  -36.1912   25.0800 H   0  0  0  0  0  0
  -20.9985  -28.3349   24.1347 H   0  0  0  0  0  0
  -20.5665  -26.2372   23.3630 H   0  0  0  0  0  0
  -21.6649  -26.7459   22.1182 H   0  0  0  0  0  0
  -19.6925  -25.6311   21.1252 H   0  0  0  0  0  0
  -19.6680  -27.3214   20.6743 H   0  0  0  0  0  0
  -17.4193  -26.6726   21.4042 H   0  0  0  0  0  0
  -18.0347  -26.0105   22.9029 H   0  0  0  0  0  0
  -19.7959  -30.7302   24.2266 H   0  0  0  0  0  0
  -17.5032  -31.6289   24.5172 H   0  0  0  0  0  0
  -15.5360  -30.2989   23.7667 H   0  0  0  0  0  0
  -15.8712  -28.0822   22.7066 H   0  0  0  0  0  0
  -24.5976  -30.7022   25.7759 H   0  0  0  0  0  0
  -24.8915  -32.2899   26.4785 H   0  0  0  0  0  0
  -25.8075  -30.8975   27.0244 H   0  0  0  0  0  0
  -26.2961  -29.6704   24.1296 H   0  0  0  0  0  0
  -27.4013  -29.7235   25.4809 H   0  0  0  0  0  0
  -27.8866  -30.4190   23.9538 H   0  0  0  0  0  0
  -27.2709  -33.3629   26.2038 H   0  0  0  0  0  0
  -28.3942  -32.6818   25.0361 H   0  0  0  0  0  0
  -28.0727  -31.8468   26.5473 H   0  0  0  0  0  0
  -28.2569  -38.0083   24.7491 H   0  0  0  0  0  0
  -28.1059  -36.2603   24.6316 H   0  0  0  0  0  0
  -27.2290  -37.1436   25.8878 H   0  0  0  0  0  0
  -20.9469  -29.8776   21.6784 H   0  0  0  0  0  0
  -26.0173  -38.2814   24.1457 H   0  0  0  0  0  0
  -32.2102  -16.9142   21.5412 H   0  0  0  0  0  0
  -28.4140  -18.4544   20.1051 H   0  0  0  0  0  0
  -26.6786  -25.1380   21.1234 H   0  0  0  0  0  0
  -31.2806  -21.9352   22.4755 H   0  0  0  0  0  0
  -32.1207  -22.0532   20.9043 H   0  0  0  0  0  0
  -25.8607  -23.2901   21.5814 H   0  0  0  0  0  0
  -27.0388  -22.1941   22.2611 H   0  0  0  0  0  0
  -26.4009  -21.9401   20.6269 H   0  0  0  0  0  0
  -33.8101  -21.4008   22.7310 H   0  0  0  0  0  0
  -34.1056  -17.7377   22.4260 H   0  0  0  0  0  0
  -34.9609  -19.1277   22.9986 H   0  0  0  0  0  0
  -27.9403  -21.0225   20.7139 H   0  0  0  0  0  0
  -28.8550  -15.8225   20.5732 H   0  0  0  0  0  0
  1 25  1  0  0  0
  1 30  2  0  0  0
  1 86  1  0  0  0
  2  3  1  0  0  0
  2 25  1  0  0  0
  2 88  1  0  0  0
  2 89  1  0  0  0
  3  4  1  0  0  0
  3 90  1  0  0  0
  3 91  1  0  0  0
  4  5  1  0  0  0
  4 92  1  0  0  0
  4 93  1  0  0  0
  5  6  1  0  0  0
  5 26  1  0  0  0
  5 94  1  0  0  0
  6 25  1  0  0  0
  6 95  1  0  0  0
  6 96  1  0  0  0
  7  8  2  0  0  0
  7 26  1  0  0  0
  7 29  1  0  0  0
  8  9  1  0  0  0
  8 22  1  0  0  0
  9 10  1  0  0  0
  9 27  2  0  0  0
 10 11  2  0  0  0
 10 15  1  0  0  0
 11 12  1  0  0  0
 11 97  1  0  0  0
 12 13  2  0  0  0
 12 98  1  0  0  0
 13 14  1  0  0  0
 13 31  1  0  0  0
 14 15  2  0  0  0
 14 99  1  0  0  0
 15100  1  0  0  0
 16 17  2  0  0  0
 16 21  1  0  0  0
 16 31  1  0  0  0
 17 18  1  0  0  0
 17101  1  0  0  0
 18 19  2  0  0  0
 18102  1  0  0  0
 19 20  1  0  0  0
 19 24  1  0  0  0
 20 21  2  0  0  0
 20103  1  0  0  0
 21 23  1  0  0  0
 22 28  1  0  0  0
 22 32  2  0  0  0
 26 27  1  0  0  0
 28104  1  0  0  0
 28105  1  0  0  0
 29106  1  0  0  0
 29107  1  0  0  0
 33 34  1  0  0  0
 33 66  1  0  0  0
 33 70  2  0  0  0
 34 36  1  0  0  0
 34 59  1  0  0  0
 34108  1  0  0  0
 35 44  2  0  0  0
 35 45  1  0  0  0
 35 68  1  0  0  0
 36 56  1  0  0  0
 36109  1  0  0  0
 37 39  1  0  0  0
 37 47  1  0  0  0
 37 66  1  0  0  0
 37110  1  0  0  0
 38 43  2  0  0  0
 38 46  1  0  0  0
 38 47  1  0  0  0
 39 64  1  0  0  0
 39 67  2  0  0  0
 40 52  1  0  0  0
 40 53  2  0  0  0
 40 58  1  0  0  0
 41111  1  0  0  0
 41112  1  0  0  0
 41113  1  0  0  0
 41 48  1  0  0  0
 42 43  1  0  0  0
 42 66  1  0  0  0
 42114  1  0  0  0
 42115  1  0  0  0
 43 44  1  0  0  0
 44116  1  0  0  0
 45 46  2  0  0  0
 45117  1  0  0  0
 46118  1  0  0  0
 47119  1  0  0  0
 47120  1  0  0  0
 48 56  1  0  0  0
 48 65  1  0  0  0
 48121  1  0  0  0
 49 50  1  0  0  0
 49 53  1  0  0  0
 49 64  1  0  0  0
 49122  1  0  0  0
 50 51  1  0  0  0
 50123  1  0  0  0
 50124  1  0  0  0
 51 52  1  0  0  0
 51125  1  0  0  0
 51126  1  0  0  0
 52127  1  0  0  0
 52128  1  0  0  0
 53 54  1  0  0  0
 54 55  2  0  0  0
 54129  1  0  0  0
 55 57  1  0  0  0
 55130  1  0  0  0
 56 69  2  0  0  0
 57 58  2  0  0  0
 57131  1  0  0  0
 58132  1  0  0  0
 59 60  1  0  0  0
 59 61  1  0  0  0
 59 62  1  0  0  0
 60133  1  0  0  0
 60134  1  0  0  0
 60135  1  0  0  0
 61136  1  0  0  0
 61137  1  0  0  0
 61138  1  0  0  0
 62139  1  0  0  0
 62140  1  0  0  0
 62141  1  0  0  0
 63 65  1  0  0  0
 63142  1  0  0  0
 63143  1  0  0  0
 63144  1  0  0  0
 64145  1  0  0  0
 65146  1  0  0  0
 68 78  1  0  0  0
 71 73  2  0  0  0
 71 75  1  0  0  0
 71147  1  0  0  0
 72 75  2  0  0  0
 72 76  1  0  0  0
 72148  1  0  0  0
 73 74  1  0  0  0
 73 77  1  0  0  0
 74 76  2  0  0  0
 74 81  1  0  0  0
 75 86  1  0  0  0
 76 85  1  0  0  0
 77 83  2  0  0  0
 77 84  1  0  0  0
 78 79  2  0  0  0
 78149  1  0  0  0
 79 80  1  0  0  0
 79 82  1  0  0  0
 80 85  1  0  0  0
 80 87  2  0  0  0
 81 83  1  0  0  0
 81150  1  0  0  0
 81151  1  0  0  0
 82152  1  0  0  0
 82153  1  0  0  0
 82154  1  0  0  0
 83155  1  0  0  0
 84156  1  0  0  0
 84157  1  0  0  0
 85158  1  0  0  0
 86159  1  0  0  0
M  CHG  1  83   1
M  ISO  4   1 100  68 101  78 101  86 100
M  END
> <chiral flag>
0

> <version>
0

> <s_m_source_file>
/data/baiqing/PycharmProjects/Reinvent-master-3.2/result/LINK_invent/BTK/process_docking_weight1_custom_product_contain_oxygen_bond_distance_aromatic_linkinvent_7_9_3/rearranged_h_0072.sdf

> <i_m_source_file_index>
29

> <r_mmod_Potential_Energy-OPLS-2005>
187.527313232422

> <r_mmod_Stretch_Energy-OPLS-2005>
171.615371704102

> <r_mmod_Bend_Energy-OPLS-2005>
329.848541259766

> <r_mmod_Torsional_Energy-OPLS-2005>
254.903167724609

> <r_mmod_Improper_Torsional_Energy-OPLS-2005>
7.75423622131348

> <r_mmod_Van_der_Waal_Energy-OPLS-2005>
158.438278198242

> <r_mmod_Electrostatic_Energy-OPLS-2005>
-438.827331542969

> <r_mmod_Solvation_Energy-OPLS-2005>
-435.130249023438

> <b_mmod_Minimization_Converged-OPLS-2005>
0

> <r_mmod_RMS_Derivative-OPLS-2005>
2.43231010437012

$$$$
29
                    3D
 Structure written by MMmdl.
158167  0  0  1  0            999 V2000
  -30.5602  -14.7835   20.4582 C   0  0  0  0  0  0
  -30.4345  -12.4739   19.4612 C   0  0  0  0  0  0
  -29.4998  -12.4715   18.2261 C   0  0  0  0  0  0
  -28.0407  -12.2423   18.6761 C   0  0  0  0  0  0
  -27.6394  -13.1962   19.8282 C   0  0  2  0  0  0
  -28.6794  -13.1787   20.9643 C   0  0  0  0  0  0
  -25.2654  -13.8053   20.5726 C   0  0  0  0  0  0
  -24.1873  -13.0405   20.9138 C   0  0  0  0  0  0
  -24.6428  -11.6870   20.8800 C   0  0  0  0  0  0
  -23.9136  -10.4295   21.0520 C   0  0  0  0  0  0
  -24.3669   -9.4164   21.9284 C   0  0  0  0  0  0
  -23.6269   -8.2275   22.0898 C   0  0  0  0  0  0
  -22.4274   -8.0353   21.3635 C   0  0  0  0  0  0
  -21.9905   -9.0389   20.4784 C   0  0  0  0  0  0
  -22.7323  -10.2193   20.3143 C   0  0  0  0  0  0
  -21.6791   -6.0766   22.5288 C   0  0  0  0  0  0
  -21.4001   -6.5694   23.8232 C   0  0  0  0  0  0
  -21.3628   -5.6852   24.9183 C   0  0  0  0  0  0
  -21.5982   -4.3134   24.7248 C   0  0  0  0  0  0
  -21.8783   -3.8186   23.4383 C   0  0  0  0  0  0
  -21.9167   -4.7004   22.3421 C   0  0  0  0  0  0
  -22.7939  -13.5357   21.1733 C   0  0  0  0  0  0
  -22.1587   -4.2147   21.1014 F   0  0  0  0  0  0
  -21.5613   -3.4637   25.7777 F   0  0  0  0  0  0
  -29.9694  -13.5435   20.3713 N   0  0  0  0  0  0
  -26.2983  -12.9175   20.3200 N   0  0  0  0  0  0
  -25.9330  -11.6375   20.5771 N   0  0  0  0  0  0
  -22.0543  -12.8474   22.0301 N   0  0  0  0  0  0
  -25.4565  -15.1796   20.4516 N   0  0  0  0  0  0
  -31.7653  -14.9052   20.2183 O   0  0  0  0  0  0
  -21.6629   -6.8958   21.4284 O   0  0  0  0  0  0
  -22.3712  -14.5694   20.6615 O   0  0  0  0  0  0
  -24.6365  -31.8594   23.2025 C   0  0  0  0  0  0
  -25.9136  -32.4777   23.8456 C   0  0  1  0  0  0
  -27.1706  -27.2282   20.0956 C   0  0  0  0  0  0
  -25.5935  -33.8583   24.2343 N   0  0  0  0  0  0
  -23.4295  -30.4927   21.5474 C   0  0  2  0  0  0
  -24.8681  -28.9509   20.0992 C   0  0  0  0  0  0
  -22.7534  -29.4627   22.4881 C   0  0  0  0  0  0
  -18.0301  -28.1346   22.8527 C   0  0  0  0  0  0
  -24.1475  -36.7261   23.2649 C   0  0  0  0  0  0
  -25.9834  -30.7595   21.3948 C   0  0  0  0  0  0
  -26.0466  -29.3814   20.7228 C   0  0  0  0  0  0
  -27.2051  -28.5298   20.7151 C   0  0  0  0  0  0
  -25.9848  -26.8948   19.4162 C   0  0  0  0  0  0
  -24.8476  -27.7158   19.4365 C   0  0  0  0  0  0
  -23.6454  -29.8463   20.1593 C   0  0  0  0  0  0
  -25.4095  -36.3091   24.0354 C   0  0  1  0  0  0
  -20.5946  -28.3584   23.1342 C   0  0  2  0  0  0
  -20.6736  -26.9288   22.5496 C   0  0  0  0  0  0
  -19.5739  -26.6559   21.5229 C   0  0  0  0  0  0
  -18.1915  -26.7943   22.1576 C   0  0  0  0  0  0
  -19.1566  -28.8743   23.2936 C   0  0  0  0  0  0
  -18.9483  -30.1398   23.8929 C   0  0  0  0  0  0
  -17.6449  -30.6471   24.0627 C   0  0  0  0  0  0
  -25.9011  -34.9439   23.5158 C   0  0  0  0  0  0
  -16.5326  -29.9009   23.6384 C   0  0  0  0  0  0
  -16.7301  -28.6455   23.0335 C   0  0  0  0  0  0
  -26.4448  -31.6620   25.0859 C   0  0  0  0  0  0
  -25.3626  -31.3865   26.1567 C   0  0  0  0  0  0
  -27.0269  -30.3043   24.6355 C   0  0  0  0  0  0
  -27.6004  -32.4411   25.7579 C   0  0  0  0  0  0
  -27.5584  -37.1820   24.8465 C   0  0  0  0  0  0
  -21.4205  -29.2933   22.3677 N   0  0  0  0  0  0
  -26.4281  -37.3805   23.9418 N   0  0  0  0  0  0
  -24.7045  -31.0546   22.1028 N   0  0  0  0  0  0
  -23.4255  -28.8227   23.2981 O   0  0  0  0  0  0
  -28.1940  -26.2480   20.1059 O   0  0  0  0  0  0
  -26.5574  -34.8907   22.4724 O   0  0  0  0  0  0
  -23.5488  -32.1456   23.7165 O   0  0  0  0  0  0
  -30.0680  -19.9049   22.1744 C   0  0  0  0  0  0
  -30.4778  -17.4752   22.2407 C   0  0  0  0  0  0
  -29.3233  -18.5048   20.3341 C   0  0  0  0  0  0
  -30.5781  -18.7525   22.8347 C   0  0  0  0  0  0
  -29.4201  -19.8541   20.9060 C   0  0  0  0  0  0
  -29.8708  -17.2974   20.9722 C   0  0  0  0  0  0
  -28.9179  -22.4690   20.8193 C   0  0  0  0  0  0
  -28.3243  -23.4483   20.0557 C   0  0  0  0  0  0
  -27.8801  -22.6955   18.8831 C   0  0  0  0  0  0
  -27.2751  -23.2097   17.7903 C   0  0  0  0  0  0
  -28.2120  -21.1968   19.0404 C   0  0  0  0  0  0
  -31.2147  -18.8875   24.2252 C   0  0  0  0  0  0
  -27.7839  -24.8696   20.5870 C   0  0  0  0  0  0
  -28.9388  -21.1202   20.3227 N   0  0  0  0  0  0
  -29.7048  -15.8928   20.4906 N   0  0  0  0  0  0
  -31.4718  -12.6050   19.1487 H   0  0  0  0  0  0
  -30.3929  -11.5166   19.9817 H   0  0  0  0  0  0
  -29.8019  -11.6977   17.5170 H   0  0  0  0  0  0
  -29.5738  -13.4157   17.6815 H   0  0  0  0  0  0
  -27.9735  -11.2072   19.0248 H   0  0  0  0  0  0
  -27.3423  -12.3336   17.8391 H   0  0  0  0  0  0
  -27.6253  -14.1922   19.3818 H   0  0  0  0  0  0
  -28.7378  -12.2081   21.4604 H   0  0  0  0  0  0
  -28.3906  -13.9047   21.7274 H   0  0  0  0  0  0
  -25.2873   -9.5494   22.4797 H   0  0  0  0  0  0
  -23.9866   -7.4652   22.7656 H   0  0  0  0  0  0
  -21.0769   -8.9034   19.9144 H   0  0  0  0  0  0
  -22.3934  -10.9773   19.6200 H   0  0  0  0  0  0
  -21.2009   -7.6216   23.9678 H   0  0  0  0  0  0
  -21.1416   -6.0654   25.9068 H   0  0  0  0  0  0
  -22.0551   -2.7652   23.2923 H   0  0  0  0  0  0
  -22.4141  -12.0106   22.4580 H   0  0  0  0  0  0
  -21.1301  -13.1779   22.2660 H   0  0  0  0  0  0
  -24.7460  -15.8272   20.7765 H   0  0  0  0  0  0
  -26.3735  -15.6020   20.4125 H   0  0  0  0  0  0
  -26.7168  -32.5422   23.1193 H   0  0  0  0  0  0
  -25.0124  -33.9755   25.0507 H   0  0  0  0  0  0
  -22.7347  -31.3213   21.4148 H   0  0  0  0  0  0
  -23.3789  -35.9563   23.3301 H   0  0  0  0  0  0
  -24.3573  -36.8853   22.2072 H   0  0  0  0  0  0
  -23.7155  -37.6433   23.6648 H   0  0  0  0  0  0
  -26.1431  -31.5263   20.6316 H   0  0  0  0  0  0
  -26.8528  -30.8012   22.0412 H   0  0  0  0  0  0
  -28.1054  -28.8380   21.2213 H   0  0  0  0  0  0
  -25.9275  -25.9750   18.8521 H   0  0  0  0  0  0
  -23.9550  -27.4073   18.9117 H   0  0  0  0  0  0
  -23.7484  -30.6391   19.4174 H   0  0  0  0  0  0
  -22.7647  -29.2892   19.8446 H   0  0  0  0  0  0
  -25.1285  -36.1984   25.0859 H   0  0  0  0  0  0
  -21.0049  -28.3058   24.1426 H   0  0  0  0  0  0
  -20.5524  -26.2217   23.3740 H   0  0  0  0  0  0
  -21.6596  -26.7372   22.1189 H   0  0  0  0  0  0
  -19.7028  -25.6698   21.0797 H   0  0  0  0  0  0
  -19.6460  -27.3839   20.7161 H   0  0  0  0  0  0
  -17.4258  -26.6889   21.3877 H   0  0  0  0  0  0
  -18.0204  -26.0017   22.8888 H   0  0  0  0  0  0
  -19.8024  -30.7138   24.2206 H   0  0  0  0  0  0
  -17.4998  -31.6195   24.5188 H   0  0  0  0  0  0
  -15.5262  -30.2813   23.7651 H   0  0  0  0  0  0
  -15.8747  -28.0755   22.7002 H   0  0  0  0  0  0
  -24.5788  -30.7189   25.8001 H   0  0  0  0  0  0
  -24.8802  -32.3043   26.4939 H   0  0  0  0  0  0
  -25.7878  -30.9160   27.0414 H   0  0  0  0  0  0
  -26.2875  -29.6880   24.1237 H   0  0  0  0  0  0
  -27.3787  -29.7252   25.4892 H   0  0  0  0  0  0
  -27.8815  -30.4370   23.9721 H   0  0  0  0  0  0
  -27.2599  -33.3749   26.2087 H   0  0  0  0  0  0
  -28.3767  -32.6938   25.0341 H   0  0  0  0  0  0
  -28.0705  -31.8621   26.5530 H   0  0  0  0  0  0
  -28.2628  -38.0104   24.7525 H   0  0  0  0  0  0
  -28.1046  -36.2648   24.6245 H   0  0  0  0  0  0
  -27.2316  -37.1386   25.8873 H   0  0  0  0  0  0
  -20.9277  -29.8668   21.7000 H   0  0  0  0  0  0
  -26.0170  -38.2902   24.1407 H   0  0  0  0  0  0
  -30.1847  -20.8507   22.6851 H   0  0  0  0  0  0
  -30.8464  -16.6147   22.7944 H   0  0  0  0  0  0
  -28.8062  -18.3928   19.3860 H   0  0  0  0  0  0
  -29.2504  -22.6370   21.8337 H   0  0  0  0  0  0
  -27.0713  -24.2655   17.6668 H   0  0  0  0  0  0
  -26.9893  -22.5745   16.9577 H   0  0  0  0  0  0
  -28.8244  -20.8473   18.2098 H   0  0  0  0  0  0
  -27.2963  -20.6037   19.0385 H   0  0  0  0  0  0
  -30.5380  -19.3726   24.9321 H   0  0  0  0  0  0
  -32.1401  -19.4647   24.2115 H   0  0  0  0  0  0
  -31.4739  -17.9211   24.6559 H   0  0  0  0  0  0
  -28.0435  -24.8785   21.6463 H   0  0  0  0  0  0
  -26.6971  -24.7606   20.5970 H   0  0  0  0  0  0
  -28.7481  -15.6398   20.3070 H   0  0  0  0  0  0
  1 25  1  0  0  0
  1 30  2  0  0  0
  1 85  1  0  0  0
  2  3  1  0  0  0
  2 25  1  0  0  0
  2 86  1  0  0  0
  2 87  1  0  0  0
  3  4  1  0  0  0
  3 88  1  0  0  0
  3 89  1  0  0  0
  4  5  1  0  0  0
  4 90  1  0  0  0
  4 91  1  0  0  0
  5  6  1  0  0  0
  5 26  1  0  0  0
  5 92  1  0  0  0
  6 25  1  0  0  0
  6 93  1  0  0  0
  6 94  1  0  0  0
  7  8  2  0  0  0
  7 26  1  0  0  0
  7 29  1  0  0  0
  8  9  1  0  0  0
  8 22  1  0  0  0
  9 10  1  0  0  0
  9 27  2  0  0  0
 10 11  2  0  0  0
 10 15  1  0  0  0
 11 12  1  0  0  0
 11 95  1  0  0  0
 12 13  2  0  0  0
 12 96  1  0  0  0
 13 14  1  0  0  0
 13 31  1  0  0  0
 14 15  2  0  0  0
 14 97  1  0  0  0
 15 98  1  0  0  0
 16 17  2  0  0  0
 16 21  1  0  0  0
 16 31  1  0  0  0
 17 18  1  0  0  0
 17 99  1  0  0  0
 18 19  2  0  0  0
 18100  1  0  0  0
 19 20  1  0  0  0
 19 24  1  0  0  0
 20 21  2  0  0  0
 20101  1  0  0  0
 21 23  1  0  0  0
 22 28  1  0  0  0
 22 32  2  0  0  0
 26 27  1  0  0  0
 28102  1  0  0  0
 28103  1  0  0  0
 29104  1  0  0  0
 29105  1  0  0  0
 33 34  1  0  0  0
 33 66  1  0  0  0
 33 70  2  0  0  0
 34 36  1  0  0  0
 34 59  1  0  0  0
 34106  1  0  0  0
 35 44  2  0  0  0
 35 45  1  0  0  0
 35 68  1  0  0  0
 36 56  1  0  0  0
 36107  1  0  0  0
 37 39  1  0  0  0
 37 47  1  0  0  0
 37 66  1  0  0  0
 37108  1  0  0  0
 38 43  2  0  0  0
 38 46  1  0  0  0
 38 47  1  0  0  0
 39 64  1  0  0  0
 39 67  2  0  0  0
 40 52  1  0  0  0
 40 53  2  0  0  0
 40 58  1  0  0  0
 41109  1  0  0  0
 41110  1  0  0  0
 41111  1  0  0  0
 41 48  1  0  0  0
 42 43  1  0  0  0
 42 66  1  0  0  0
 42112  1  0  0  0
 42113  1  0  0  0
 43 44  1  0  0  0
 44114  1  0  0  0
 45 46  2  0  0  0
 45115  1  0  0  0
 46116  1  0  0  0
 47117  1  0  0  0
 47118  1  0  0  0
 48 56  1  0  0  0
 48 65  1  0  0  0
 48119  1  0  0  0
 49 50  1  0  0  0
 49 53  1  0  0  0
 49 64  1  0  0  0
 49120  1  0  0  0
 50 51  1  0  0  0
 50121  1  0  0  0
 50122  1  0  0  0
 51 52  1  0  0  0
 51123  1  0  0  0
 51124  1  0  0  0
 52125  1  0  0  0
 52126  1  0  0  0
 53 54  1  0  0  0
 54 55  2  0  0  0
 54127  1  0  0  0
 55 57  1  0  0  0
 55128  1  0  0  0
 56 69  2  0  0  0
 57 58  2  0  0  0
 57129  1  0  0  0
 58130  1  0  0  0
 59 60  1  0  0  0
 59 61  1  0  0  0
 59 62  1  0  0  0
 60131  1  0  0  0
 60132  1  0  0  0
 60133  1  0  0  0
 61134  1  0  0  0
 61135  1  0  0  0
 61136  1  0  0  0
 62137  1  0  0  0
 62138  1  0  0  0
 62139  1  0  0  0
 63 65  1  0  0  0
 63140  1  0  0  0
 63141  1  0  0  0
 63142  1  0  0  0
 64143  1  0  0  0
 65144  1  0  0  0
 68 83  1  0  0  0
 71 74  2  0  0  0
 71 75  1  0  0  0
 71145  1  0  0  0
 72 74  1  0  0  0
 72 76  2  0  0  0
 72146  1  0  0  0
 73 75  2  0  0  0
 73 76  1  0  0  0
 73147  1  0  0  0
 74 82  1  0  0  0
 75 84  1  0  0  0
 76 85  1  0  0  0
 77 78  2  0  0  0
 77 84  1  0  0  0
 77148  1  0  0  0
 78 79  1  0  0  0
 78 83  1  0  0  0
 79 80  2  0  0  0
 79 81  1  0  0  0
 80149  1  0  0  0
 80150  1  0  0  0
 81 84  1  0  0  0
 81151  1  0  0  0
 81152  1  0  0  0
 82153  1  0  0  0
 82154  1  0  0  0
 82155  1  0  0  0
 83156  1  0  0  0
 83157  1  0  0  0
 85158  1  0  0  0
M  ISO  4   1 100  68 101  83 101  85 100
M  END
> <chiral flag>
0

> <version>
0

> <s_m_source_file>
/data/baiqing/PycharmProjects/Reinvent-master-3.2/result/LINK_invent/BTK/process_docking_weight1_custom_product_contain_oxygen_bond_distance_aromatic_linkinvent_7_9_3/rearranged_h_0072.sdf

> <i_m_source_file_index>
30

> <r_mmod_Potential_Energy-OPLS-2005>
392.217041015625

> <r_mmod_Stretch_Energy-OPLS-2005>
143.512451171875

> <r_mmod_Bend_Energy-OPLS-2005>
268.172302246094

> <r_mmod_Torsional_Energy-OPLS-2005>
251.808898925781

> <r_mmod_Improper_Torsional_Energy-OPLS-2005>
12.4836359024048

> <r_mmod_Van_der_Waal_Energy-OPLS-2005>
131.932540893555

> <r_mmod_Electrostatic_Energy-OPLS-2005>
-320.711334228516

> <r_mmod_Solvation_Energy-OPLS-2005>
-216.085388183594

> <b_mmod_Minimization_Converged-OPLS-2005>
0

> <r_mmod_RMS_Derivative-OPLS-2005>
11.8052234649658

$$$$
30
                    3D
 Structure written by MMmdl.
157166  0  0  1  0            999 V2000
  -30.4883  -15.0353   20.5347 C   0  0  0  0  0  0
  -30.3831  -12.6329   19.5346 C   0  0  0  0  0  0
  -29.5000  -12.5733   18.2630 C   0  0  0  0  0  0
  -28.0257  -12.3699   18.6469 C   0  0  0  0  0  0
  -27.6116  -13.2624   19.8437 C   0  0  2  0  0  0
  -28.6351  -13.2768   20.9928 C   0  0  0  0  0  0
  -25.2294  -13.8257   20.5611 C   0  0  0  0  0  0
  -24.1638  -13.0412   20.9223 C   0  0  0  0  0  0
  -24.6357  -11.6942   20.8756 C   0  0  0  0  0  0
  -23.9058  -10.4294   21.0387 C   0  0  0  0  0  0
  -24.3606   -9.4243   21.9178 C   0  0  0  0  0  0
  -23.6307   -8.2248   22.0743 C   0  0  0  0  0  0
  -22.4295   -8.0291   21.3546 C   0  0  0  0  0  0
  -21.9924   -9.0242   20.4621 C   0  0  0  0  0  0
  -22.7230  -10.2126   20.3052 C   0  0  0  0  0  0
  -21.6861   -6.0761   22.5298 C   0  0  0  0  0  0
  -21.4041   -6.5665   23.8234 C   0  0  0  0  0  0
  -21.3694   -5.6815   24.9223 C   0  0  0  0  0  0
  -21.6037   -4.3059   24.7241 C   0  0  0  0  0  0
  -21.8807   -3.8167   23.4363 C   0  0  0  0  0  0
  -21.9199   -4.6979   22.3433 C   0  0  0  0  0  0
  -22.7728  -13.5200   21.1972 C   0  0  0  0  0  0
  -22.1647   -4.2176   21.0993 F   0  0  0  0  0  0
  -21.5627   -3.4559   25.7749 F   0  0  0  0  0  0
  -29.8906  -13.7588   20.4052 N   0  0  0  0  0  0
  -26.2737  -12.9504   20.3219 N   0  0  0  0  0  0
  -25.9285  -11.6598   20.5734 N   0  0  0  0  0  0
  -22.0418  -12.8075   22.0492 N   0  0  0  0  0  0
  -25.3912  -15.1915   20.3986 N   0  0  0  0  0  0
  -31.6966  -15.0600   20.2555 O   0  0  0  0  0  0
  -21.6659   -6.8865   21.4253 O   0  0  0  0  0  0
  -22.3368  -14.5558   20.6994 O   0  0  0  0  0  0
  -24.6558  -31.8357   23.1797 C   0  0  0  0  0  0
  -25.9249  -32.4683   23.8207 C   0  0  1  0  0  0
  -27.2040  -27.0233   20.1843 C   0  0  0  0  0  0
  -25.5914  -33.8505   24.2142 N   0  0  0  0  0  0
  -23.4674  -30.4581   21.5251 C   0  0  2  0  0  0
  -24.9167  -28.8682   20.0913 C   0  0  0  0  0  0
  -22.7716  -29.4460   22.4727 C   0  0  0  0  0  0
  -18.0440  -28.1186   22.8625 C   0  0  0  0  0  0
  -24.1450  -36.7291   23.2661 C   0  0  0  0  0  0
  -26.0247  -30.6788   21.3844 C   0  0  0  0  0  0
  -26.0880  -29.2749   20.7361 C   0  0  0  0  0  0
  -27.2272  -28.3712   20.7666 C   0  0  0  0  0  0
  -26.0176  -26.7462   19.4768 C   0  0  0  0  0  0
  -24.9018  -27.6235   19.4355 C   0  0  0  0  0  0
  -23.7030  -29.7975   20.1374 C   0  0  0  0  0  0
  -25.4065  -36.3071   24.0340 C   0  0  1  0  0  0
  -20.6016  -28.3908   23.1301 C   0  0  2  0  0  0
  -20.7073  -26.9473   22.5871 C   0  0  0  0  0  0
  -19.6146  -26.6280   21.5580 C   0  0  0  0  0  0
  -18.2285  -26.7593   22.2143 C   0  0  0  0  0  0
  -19.1564  -28.8951   23.2733 C   0  0  0  0  0  0
  -18.9221  -30.1756   23.8257 C   0  0  0  0  0  0
  -17.6119  -30.6719   23.9742 C   0  0  0  0  0  0
  -25.9046  -34.9450   23.5046 C   0  0  0  0  0  0
  -16.5159  -29.8823   23.5871 C   0  0  0  0  0  0
  -16.7342  -28.6107   23.0384 C   0  0  0  0  0  0
  -26.4523  -31.6538   25.0651 C   0  0  0  0  0  0
  -25.3752  -31.3674   26.1368 C   0  0  0  0  0  0
  -27.0398  -30.2958   24.6146 C   0  0  0  0  0  0
  -27.6035  -32.4317   25.7420 C   0  0  0  0  0  0
  -27.5513  -37.1819   24.8465 C   0  0  0  0  0  0
  -21.4355  -29.3165   22.3616 N   0  0  0  0  0  0
  -26.4207  -37.3779   23.9442 N   0  0  0  0  0  0
  -24.7389  -31.0120   22.0900 N   0  0  0  0  0  0
  -23.4356  -28.7979   23.2839 O   0  0  0  0  0  0
  -28.2037  -25.9740   20.4022 O   0  0  0  0  0  0
  -26.5678  -34.8960   22.4654 O   0  0  0  0  0  0
  -23.5659  -32.1223   23.6944 O   0  0  0  0  0  0
  -29.7654  -19.7310   22.8188 C   0  0  0  0  0  0
  -30.6278  -19.2788   23.8138 C   0  0  0  0  0  0
  -31.1383  -17.4060   22.3636 C   0  0  0  0  0  0
  -29.5099  -19.1128   21.5577 C   0  0  0  0  0  0
  -30.0708  -17.6484   21.4496 C   0  0  0  0  0  0
  -31.4105  -18.1681   23.5162 C   0  0  0  0  0  0
  -26.9940  -22.3412   19.5926 C   0  0  0  0  0  0
  -28.0573  -22.9117   20.1920 C   0  0  0  0  0  0
  -26.6141  -20.8443   19.5790 C   0  0  0  0  0  0
  -28.9561  -21.7403   20.9300 C   0  0  0  0  0  0
  -27.3424  -19.8410   20.5178 C   0  0  0  0  0  0
  -28.4005  -24.5281   19.7423 C   0  0  0  0  0  0
  -28.7591  -20.1511   20.7408 N   0  0  0  0  0  0
  -29.7353  -16.2815   20.7418 N   0  0  0  0  0  0
  -32.3840  -17.7890   24.3752 F   0  0  0  0  0  0
  -31.4341  -12.7249   19.2543 H   0  0  0  0  0  0
  -30.2917  -11.6762   20.0579 H   0  0  0  0  0  0
  -29.8179  -11.7791   17.5908 H   0  0  0  0  0  0
  -29.6059  -13.5040   17.7089 H   0  0  0  0  0  0
  -27.8725  -11.3201   18.8859 H   0  0  0  0  0  0
  -27.3789  -12.5741   17.7907 H   0  0  0  0  0  0
  -27.5912  -14.2784   19.4510 H   0  0  0  0  0  0
  -28.7342  -12.2797   21.4325 H   0  0  0  0  0  0
  -28.3046  -13.9325   21.7951 H   0  0  0  0  0  0
  -25.2749   -9.5785   22.4730 H   0  0  0  0  0  0
  -24.0074   -7.4664   22.7483 H   0  0  0  0  0  0
  -21.0844   -8.8736   19.8907 H   0  0  0  0  0  0
  -22.3656  -10.9665   19.6150 H   0  0  0  0  0  0
  -21.2027   -7.6176   23.9763 H   0  0  0  0  0  0
  -21.1527   -6.0549   25.9114 H   0  0  0  0  0  0
  -22.0538   -2.7634   23.2875 H   0  0  0  0  0  0
  -22.4120  -11.9687   22.4680 H   0  0  0  0  0  0
  -21.1112  -13.1120   22.2929 H   0  0  0  0  0  0
  -24.6071  -15.8310   20.5026 H   0  0  0  0  0  0
  -26.2088  -15.6249   19.9889 H   0  0  0  0  0  0
  -26.7306  -32.5281   23.0931 H   0  0  0  0  0  0
  -24.9925  -33.9588   25.0185 H   0  0  0  0  0  0
  -22.7719  -31.2863   21.3718 H   0  0  0  0  0  0
  -23.3718  -35.9617   23.3321 H   0  0  0  0  0  0
  -24.3518  -36.8942   22.2088 H   0  0  0  0  0  0
  -23.7218  -37.6475   23.6722 H   0  0  0  0  0  0
  -26.1448  -31.4092   20.5870 H   0  0  0  0  0  0
  -26.9129  -30.7771   21.9985 H   0  0  0  0  0  0
  -28.1089  -28.6747   21.3180 H   0  0  0  0  0  0
  -25.9027  -25.7865   18.9972 H   0  0  0  0  0  0
  -24.0168  -27.3193   18.8982 H   0  0  0  0  0  0
  -23.8847  -30.5957   19.4116 H   0  0  0  0  0  0
  -22.8041  -29.2894   19.7828 H   0  0  0  0  0  0
  -25.1251  -36.1825   25.0828 H   0  0  0  0  0  0
  -20.9948  -28.3788   24.1477 H   0  0  0  0  0  0
  -20.5935  -26.2502   23.4165 H   0  0  0  0  0  0
  -21.7114  -26.7313   22.2166 H   0  0  0  0  0  0
  -19.7711  -25.6267   21.1704 H   0  0  0  0  0  0
  -19.7012  -27.3140   20.7139 H   0  0  0  0  0  0
  -17.4343  -26.5896   21.4806 H   0  0  0  0  0  0
  -18.0922  -25.9974   22.9833 H   0  0  0  0  0  0
  -19.7586  -30.7907   24.1221 H   0  0  0  0  0  0
  -17.4297  -31.6647   24.3610 H   0  0  0  0  0  0
  -15.4981  -30.2375   23.6950 H   0  0  0  0  0  0
  -15.8966  -27.9994   22.7412 H   0  0  0  0  0  0
  -24.5989  -30.6876   25.7765 H   0  0  0  0  0  0
  -24.8836  -32.2849   26.4664 H   0  0  0  0  0  0
  -25.8151  -30.9007   27.0179 H   0  0  0  0  0  0
  -26.2983  -29.6631   24.1199 H   0  0  0  0  0  0
  -27.4181  -29.7231   25.4600 H   0  0  0  0  0  0
  -27.8824  -30.4261   23.9334 H   0  0  0  0  0  0
  -27.2611  -33.3685   26.1761 H   0  0  0  0  0  0
  -28.3935  -32.6687   25.0316 H   0  0  0  0  0  0
  -28.0537  -31.8538   26.5481 H   0  0  0  0  0  0
  -28.2524  -38.0112   24.7451 H   0  0  0  0  0  0
  -28.1013  -36.2638   24.6326 H   0  0  0  0  0  0
  -27.2255  -37.1513   25.8873 H   0  0  0  0  0  0
  -20.9439  -29.9032   21.7077 H   0  0  0  0  0  0
  -26.0072  -38.2814   24.1474 H   0  0  0  0  0  0
  -29.2697  -20.6296   23.1290 H   0  0  0  0  0  0
  -30.7248  -19.8325   24.7518 H   0  0  0  0  0  0
  -31.7940  -16.5650   22.2069 H   0  0  0  0  0  0
  -26.3808  -22.9495   18.9486 H   0  0  0  0  0  0
  -26.7803  -20.5034   18.5556 H   0  0  0  0  0  0
  -25.5388  -20.7746   19.7337 H   0  0  0  0  0  0
  -28.7131  -22.0434   21.9438 H   0  0  0  0  0  0
  -30.0226  -21.9579   20.8784 H   0  0  0  0  0  0
  -27.2586  -18.8570   20.0495 H   0  0  0  0  0  0
  -26.7986  -19.7610   21.4714 H   0  0  0  0  0  0
  -27.8846  -24.6283   18.7911 H   0  0  0  0  0  0
  -29.4428  -24.5019   19.4303 H   0  0  0  0  0  0
  -28.7429  -16.1106   20.6836 H   0  0  0  0  0  0
  1 25  1  0  0  0
  1 30  2  0  0  0
  1 84  1  0  0  0
  2  3  1  0  0  0
  2 25  1  0  0  0
  2 86  1  0  0  0
  2 87  1  0  0  0
  3  4  1  0  0  0
  3 88  1  0  0  0
  3 89  1  0  0  0
  4  5  1  0  0  0
  4 90  1  0  0  0
  4 91  1  0  0  0
  5  6  1  0  0  0
  5 26  1  0  0  0
  5 92  1  0  0  0
  6 25  1  0  0  0
  6 93  1  0  0  0
  6 94  1  0  0  0
  7  8  2  0  0  0
  7 26  1  0  0  0
  7 29  1  0  0  0
  8  9  1  0  0  0
  8 22  1  0  0  0
  9 10  1  0  0  0
  9 27  2  0  0  0
 10 11  2  0  0  0
 10 15  1  0  0  0
 11 12  1  0  0  0
 11 95  1  0  0  0
 12 13  2  0  0  0
 12 96  1  0  0  0
 13 14  1  0  0  0
 13 31  1  0  0  0
 14 15  2  0  0  0
 14 97  1  0  0  0
 15 98  1  0  0  0
 16 17  2  0  0  0
 16 21  1  0  0  0
 16 31  1  0  0  0
 17 18  1  0  0  0
 17 99  1  0  0  0
 18 19  2  0  0  0
 18100  1  0  0  0
 19 20  1  0  0  0
 19 24  1  0  0  0
 20 21  2  0  0  0
 20101  1  0  0  0
 21 23  1  0  0  0
 22 28  1  0  0  0
 22 32  2  0  0  0
 26 27  1  0  0  0
 28102  1  0  0  0
 28103  1  0  0  0
 29104  1  0  0  0
 29105  1  0  0  0
 33 34  1  0  0  0
 33 66  1  0  0  0
 33 70  2  0  0  0
 34 36  1  0  0  0
 34 59  1  0  0  0
 34106  1  0  0  0
 35 44  2  0  0  0
 35 45  1  0  0  0
 35 68  1  0  0  0
 36 56  1  0  0  0
 36107  1  0  0  0
 37 39  1  0  0  0
 37 47  1  0  0  0
 37 66  1  0  0  0
 37108  1  0  0  0
 38 43  2  0  0  0
 38 46  1  0  0  0
 38 47  1  0  0  0
 39 64  1  0  0  0
 39 67  2  0  0  0
 40 52  1  0  0  0
 40 53  2  0  0  0
 40 58  1  0  0  0
 41109  1  0  0  0
 41110  1  0  0  0
 41111  1  0  0  0
 41 48  1  0  0  0
 42 43  1  0  0  0
 42 66  1  0  0  0
 42112  1  0  0  0
 42113  1  0  0  0
 43 44  1  0  0  0
 44114  1  0  0  0
 45 46  2  0  0  0
 45115  1  0  0  0
 46116  1  0  0  0
 47117  1  0  0  0
 47118  1  0  0  0
 48 56  1  0  0  0
 48 65  1  0  0  0
 48119  1  0  0  0
 49 50  1  0  0  0
 49 53  1  0  0  0
 49 64  1  0  0  0
 49120  1  0  0  0
 50 51  1  0  0  0
 50121  1  0  0  0
 50122  1  0  0  0
 51 52  1  0  0  0
 51123  1  0  0  0
 51124  1  0  0  0
 52125  1  0  0  0
 52126  1  0  0  0
 53 54  1  0  0  0
 54 55  2  0  0  0
 54127  1  0  0  0
 55 57  1  0  0  0
 55128  1  0  0  0
 56 69  2  0  0  0
 57 58  2  0  0  0
 57129  1  0  0  0
 58130  1  0  0  0
 59 60  1  0  0  0
 59 61  1  0  0  0
 59 62  1  0  0  0
 60131  1  0  0  0
 60132  1  0  0  0
 60133  1  0  0  0
 61134  1  0  0  0
 61135  1  0  0  0
 61136  1  0  0  0
 62137  1  0  0  0
 62138  1  0  0  0
 62139  1  0  0  0
 63 65  1  0  0  0
 63140  1  0  0  0
 63141  1  0  0  0
 63142  1  0  0  0
 64143  1  0  0  0
 65144  1  0  0  0
 68 82  1  0  0  0
 71 72  2  0  0  0
 71 74  1  0  0  0
 71145  1  0  0  0
 72 76  1  0  0  0
 72146  1  0  0  0
 73 75  1  0  0  0
 73 76  2  0  0  0
 73147  1  0  0  0
 74 75  2  0  0  0
 74 83  1  0  0  0
 75 84  1  0  0  0
 76 85  1  0  0  0
 77 78  2  0  0  0
 77 79  1  0  0  0
 77148  1  0  0  0
 78 80  1  0  0  0
 78 82  1  0  0  0
 79 81  1  0  0  0
 79149  1  0  0  0
 79150  1  0  0  0
 80 83  1  0  0  0
 80151  1  0  0  0
 80152  1  0  0  0
 81 83  1  0  0  0
 81153  1  0  0  0
 81154  1  0  0  0
 82155  1  0  0  0
 82156  1  0  0  0
 84157  1  0  0  0
M  ISO  4   1 100  68 101  82 101  84 100
M  END
> <chiral flag>
0

> <version>
0

> <s_m_source_file>
/data/baiqing/PycharmProjects/Reinvent-master-3.2/result/LINK_invent/BTK/process_docking_weight1_custom_product_contain_oxygen_bond_distance_aromatic_linkinvent_7_9_3/rearranged_h_0072.sdf

> <i_m_source_file_index>
31

> <r_mmod_Potential_Energy-OPLS-2005>
1043.83483886719

> <r_mmod_Stretch_Energy-OPLS-2005>
437.350189208984

> <r_mmod_Bend_Energy-OPLS-2005>
488.156402587891

> <r_mmod_Torsional_Energy-OPLS-2005>
293.596710205078

> <r_mmod_Improper_Torsional_Energy-OPLS-2005>
12.284125328064

> <r_mmod_Van_der_Waal_Energy-OPLS-2005>
152.86686706543

> <r_mmod_Electrostatic_Energy-OPLS-2005>
-399.775054931641

> <r_mmod_Solvation_Energy-OPLS-2005>
-229.302261352539

> <b_mmod_Minimization_Converged-OPLS-2005>
0

> <r_mmod_RMS_Derivative-OPLS-2005>
15.6430521011353

$$$$
31
                    3D
 Structure written by MMmdl.
159168  0  0  1  0            999 V2000
  -30.5906  -14.7901   20.4344 C   0  0  0  0  0  0
  -30.4292  -12.4818   19.4900 C   0  0  0  0  0  0
  -29.5142  -12.5071   18.2458 C   0  0  0  0  0  0
  -28.0411  -12.3245   18.6561 C   0  0  0  0  0  0
  -27.6360  -13.2365   19.8450 C   0  0  2  0  0  0
  -28.6749  -13.1995   20.9861 C   0  0  0  0  0  0
  -25.2492  -13.8207   20.5690 C   0  0  0  0  0  0
  -24.1791  -13.0438   20.9209 C   0  0  0  0  0  0
  -24.6393  -11.6924   20.8753 C   0  0  0  0  0  0
  -23.9079  -10.4294   21.0408 C   0  0  0  0  0  0
  -24.3627   -9.4211   21.9186 C   0  0  0  0  0  0
  -23.6295   -8.2247   22.0762 C   0  0  0  0  0  0
  -22.4280   -8.0287   21.3545 C   0  0  0  0  0  0
  -21.9920   -9.0259   20.4646 C   0  0  0  0  0  0
  -22.7256  -10.2136   20.3049 C   0  0  0  0  0  0
  -21.6851   -6.0738   22.5275 C   0  0  0  0  0  0
  -21.4014   -6.5642   23.8211 C   0  0  0  0  0  0
  -21.3656   -5.6795   24.9173 C   0  0  0  0  0  0
  -21.6040   -4.3054   24.7222 C   0  0  0  0  0  0
  -21.8822   -3.8147   23.4343 C   0  0  0  0  0  0
  -21.9195   -4.6966   22.3400 C   0  0  0  0  0  0
  -22.7813  -13.5218   21.1856 C   0  0  0  0  0  0
  -22.1662   -4.2153   21.0976 F   0  0  0  0  0  0
  -21.5628   -3.4540   25.7738 F   0  0  0  0  0  0
  -29.9706  -13.5582   20.4032 N   0  0  0  0  0  0
  -26.2904  -12.9419   20.3237 N   0  0  0  0  0  0
  -25.9317  -11.6559   20.5731 N   0  0  0  0  0  0
  -22.0459  -12.8205   22.0419 N   0  0  0  0  0  0
  -25.4171  -15.1934   20.4144 N   0  0  0  0  0  0
  -31.7928  -14.8406   20.1586 O   0  0  0  0  0  0
  -21.6639   -6.8882   21.4241 O   0  0  0  0  0  0
  -22.3503  -14.5521   20.6707 O   0  0  0  0  0  0
  -24.6275  -31.8578   23.1923 C   0  0  0  0  0  0
  -25.9086  -32.4783   23.8308 C   0  0  1  0  0  0
  -27.2241  -27.2571   20.1487 C   0  0  0  0  0  0
  -25.5869  -33.8577   24.2242 N   0  0  0  0  0  0
  -23.4242  -30.4703   21.5405 C   0  0  2  0  0  0
  -24.8748  -28.9107   20.1102 C   0  0  0  0  0  0
  -22.7497  -29.4570   22.4964 C   0  0  0  0  0  0
  -18.0274  -28.1376   22.8497 C   0  0  0  0  0  0
  -24.1460  -36.7303   23.2641 C   0  0  0  0  0  0
  -25.9634  -30.7738   21.3622 C   0  0  0  0  0  0
  -26.0404  -29.3873   20.7215 C   0  0  0  0  0  0
  -27.2135  -28.5697   20.7327 C   0  0  0  0  0  0
  -26.0344  -26.8416   19.5115 C   0  0  0  0  0  0
  -24.8768  -27.6479   19.4935 C   0  0  0  0  0  0
  -23.6407  -29.7920   20.1594 C   0  0  0  0  0  0
  -25.4085  -36.3099   24.0335 C   0  0  1  0  0  0
  -20.5873  -28.3675   23.1309 C   0  0  2  0  0  0
  -20.6752  -26.9401   22.5430 C   0  0  0  0  0  0
  -19.5731  -26.6373   21.5228 C   0  0  0  0  0  0
  -18.1906  -26.7917   22.1636 C   0  0  0  0  0  0
  -19.1527  -28.8845   23.2883 C   0  0  0  0  0  0
  -18.9459  -30.1443   23.8904 C   0  0  0  0  0  0
  -17.6462  -30.6591   24.0559 C   0  0  0  0  0  0
  -25.9036  -34.9469   23.5113 C   0  0  0  0  0  0
  -16.5352  -29.9098   23.6316 C   0  0  0  0  0  0
  -16.7262  -28.6499   23.0371 C   0  0  0  0  0  0
  -26.4438  -31.6608   25.0704 C   0  0  0  0  0  0
  -25.3630  -31.3783   26.1418 C   0  0  0  0  0  0
  -27.0270  -30.3039   24.6121 C   0  0  0  0  0  0
  -27.5989  -32.4346   25.7495 C   0  0  0  0  0  0
  -27.5571  -37.1802   24.8462 C   0  0  0  0  0  0
  -21.4206  -29.3033   22.3739 N   0  0  0  0  0  0
  -26.4265  -37.3803   23.9426 N   0  0  0  0  0  0
  -24.6915  -31.0524   22.0900 N   0  0  0  0  0  0
  -23.4221  -28.8125   23.3057 O   0  0  0  0  0  0
  -28.3445  -26.4030   20.2586 O   0  0  0  0  0  0
  -26.5654  -34.8951   22.4708 O   0  0  0  0  0  0
  -23.5421  -32.1413   23.7207 O   0  0  0  0  0  0
  -31.4063  -18.8239   18.6541 C   0  0  0  0  0  0
  -31.0544  -17.5524   19.1286 C   0  0  0  0  0  0
  -29.4225  -18.6028   20.5837 C   0  0  0  0  0  0
  -30.8178  -20.0086   19.1359 C   0  0  0  0  0  0
  -29.7387  -19.9508   20.0771 C   0  0  0  0  0  0
  -30.0939  -17.3676   20.1442 C   0  0  0  0  0  0
  -28.5222  -22.2426   19.7283 C   0  0  0  0  0  0
  -31.4206  -21.2884   18.6171 C   0  0  0  0  0  0
  -29.1102  -23.3414   21.7197 C   0  0  0  0  0  0
  -29.2167  -21.7889   21.8486 C   0  0  0  0  0  0
  -28.2436  -23.6117   20.4788 C   0  0  1  0  0  0
  -28.4571  -25.0178   19.6803 C   0  0  0  0  0  0
  -29.0811  -21.2377   20.5004 N   0  0  0  0  0  0
  -31.8777  -22.1326   19.5324 N   0  0  0  0  0  0
  -29.8264  -15.9578   20.5971 N   0  0  0  0  0  0
  -28.2244  -22.1063   18.5385 O   0  0  0  0  0  0
  -31.5568  -21.4956   17.4128 O   0  0  0  0  0  0
  -31.4706  -12.6061   19.1880 H   0  0  0  0  0  0
  -30.3794  -11.5147   19.9913 H   0  0  0  0  0  0
  -29.8091  -11.7235   17.5464 H   0  0  0  0  0  0
  -29.6367  -13.4545   17.7175 H   0  0  0  0  0  0
  -27.9059  -11.2781   18.9304 H   0  0  0  0  0  0
  -27.3869  -12.5011   17.8017 H   0  0  0  0  0  0
  -27.6217  -14.2526   19.4496 H   0  0  0  0  0  0
  -28.7203  -12.2093   21.4434 H   0  0  0  0  0  0
  -28.3997  -13.8953   21.7807 H   0  0  0  0  0  0
  -25.2770   -9.5684   22.4767 H   0  0  0  0  0  0
  -23.9996   -7.4643   22.7492 H   0  0  0  0  0  0
  -21.0847   -8.8783   19.8949 H   0  0  0  0  0  0
  -22.3717  -10.9675   19.6156 H   0  0  0  0  0  0
  -21.2008   -7.6152   23.9715 H   0  0  0  0  0  0
  -21.1471   -6.0525   25.9077 H   0  0  0  0  0  0
  -22.0604   -2.7609   23.2845 H   0  0  0  0  0  0
  -22.4079  -11.9859   22.4788 H   0  0  0  0  0  0
  -21.1077  -13.1225   22.2620 H   0  0  0  0  0  0
  -24.6479  -15.8444   20.5317 H   0  0  0  0  0  0
  -26.2611  -15.6374   20.0747 H   0  0  0  0  0  0
  -26.7158  -32.5470   23.1074 H   0  0  0  0  0  0
  -24.9917  -33.9701   25.0319 H   0  0  0  0  0  0
  -22.7170  -31.2881   21.3897 H   0  0  0  0  0  0
  -23.3739  -35.9619   23.3277 H   0  0  0  0  0  0
  -24.3531  -36.8968   22.2059 H   0  0  0  0  0  0
  -23.7188  -37.6480   23.6689 H   0  0  0  0  0  0
  -26.0678  -31.5184   20.5713 H   0  0  0  0  0  0
  -26.8531  -30.8577   21.9745 H   0  0  0  0  0  0
  -28.1028  -28.9242   21.2353 H   0  0  0  0  0  0
  -25.9606  -25.8651   19.0570 H   0  0  0  0  0  0
  -23.9808  -27.2736   19.0174 H   0  0  0  0  0  0
  -23.7467  -30.5612   19.3933 H   0  0  0  0  0  0
  -22.7652  -29.2077   19.8707 H   0  0  0  0  0  0
  -25.1250  -36.1960   25.0826 H   0  0  0  0  0  0
  -20.9918  -28.3250   24.1450 H   0  0  0  0  0  0
  -20.5626  -26.2299   23.3635 H   0  0  0  0  0  0
  -21.6624  -26.7424   22.1244 H   0  0  0  0  0  0
  -19.6882  -25.6277   21.1276 H   0  0  0  0  0  0
  -19.6653  -27.3171   20.6742 H   0  0  0  0  0  0
  -17.4174  -26.6661   21.4039 H   0  0  0  0  0  0
  -18.0280  -26.0055   22.9023 H   0  0  0  0  0  0
  -19.7941  -30.7230   24.2300 H   0  0  0  0  0  0
  -17.5032  -31.6271   24.5166 H   0  0  0  0  0  0
  -15.5356  -30.3021   23.7610 H   0  0  0  0  0  0
  -15.8657  -28.0810   22.7122 H   0  0  0  0  0  0
  -24.5839  -30.7084   25.7767 H   0  0  0  0  0  0
  -24.8747  -32.2949   26.4740 H   0  0  0  0  0  0
  -25.7898  -30.9067   27.0278 H   0  0  0  0  0  0
  -26.2843  -29.6835   24.1090 H   0  0  0  0  0  0
  -27.3947  -29.7250   25.4598 H   0  0  0  0  0  0
  -27.8710  -30.4356   23.9344 H   0  0  0  0  0  0
  -27.2617  -33.3703   26.1974 H   0  0  0  0  0  0
  -28.3855  -32.6819   25.0353 H   0  0  0  0  0  0
  -28.0578  -31.8523   26.5500 H   0  0  0  0  0  0
  -28.2581  -38.0116   24.7553 H   0  0  0  0  0  0
  -28.1080  -36.2647   24.6224 H   0  0  0  0  0  0
  -27.2298  -37.1400   25.8873 H   0  0  0  0  0  0
  -20.9406  -29.8802   21.6975 H   0  0  0  0  0  0
  -26.0158  -38.2882   24.1450 H   0  0  0  0  0  0
  -32.1887  -18.8914   17.9100 H   0  0  0  0  0  0
  -31.5671  -16.7161   18.6782 H   0  0  0  0  0  0
  -28.6414  -18.5202   21.3269 H   0  0  0  0  0  0
  -30.1019  -23.7745   21.5773 H   0  0  0  0  0  0
  -28.6914  -23.7896   22.6210 H   0  0  0  0  0  0
  -28.3961  -21.4064   22.4577 H   0  0  0  0  0  0
  -30.1513  -21.4853   22.3221 H   0  0  0  0  0  0
  -27.1965  -23.5717   20.7798 H   0  0  0  0  0  0
  -27.8779  -24.9717   18.7607 H   0  0  0  0  0  0
  -29.4863  -24.9883   19.3222 H   0  0  0  0  0  0
  -31.8268  -21.8884   20.5095 H   0  0  0  0  0  0
  -32.3575  -22.9737   19.2491 H   0  0  0  0  0  0
  -28.9010  -15.7957   20.9648 H   0  0  0  0  0  0
  1 25  1  0  0  0
  1 30  2  0  0  0
  1 85  1  0  0  0
  2  3  1  0  0  0
  2 25  1  0  0  0
  2 88  1  0  0  0
  2 89  1  0  0  0
  3  4  1  0  0  0
  3 90  1  0  0  0
  3 91  1  0  0  0
  4  5  1  0  0  0
  4 92  1  0  0  0
  4 93  1  0  0  0
  5  6  1  0  0  0
  5 26  1  0  0  0
  5 94  1  0  0  0
  6 25  1  0  0  0
  6 95  1  0  0  0
  6 96  1  0  0  0
  7  8  2  0  0  0
  7 26  1  0  0  0
  7 29  1  0  0  0
  8  9  1  0  0  0
  8 22  1  0  0  0
  9 10  1  0  0  0
  9 27  2  0  0  0
 10 11  2  0  0  0
 10 15  1  0  0  0
 11 12  1  0  0  0
 11 97  1  0  0  0
 12 13  2  0  0  0
 12 98  1  0  0  0
 13 14  1  0  0  0
 13 31  1  0  0  0
 14 15  2  0  0  0
 14 99  1  0  0  0
 15100  1  0  0  0
 16 17  2  0  0  0
 16 21  1  0  0  0
 16 31  1  0  0  0
 17 18  1  0  0  0
 17101  1  0  0  0
 18 19  2  0  0  0
 18102  1  0  0  0
 19 20  1  0  0  0
 19 24  1  0  0  0
 20 21  2  0  0  0
 20103  1  0  0  0
 21 23  1  0  0  0
 22 28  1  0  0  0
 22 32  2  0  0  0
 26 27  1  0  0  0
 28104  1  0  0  0
 28105  1  0  0  0
 29106  1  0  0  0
 29107  1  0  0  0
 33 34  1  0  0  0
 33 66  1  0  0  0
 33 70  2  0  0  0
 34 36  1  0  0  0
 34 59  1  0  0  0
 34108  1  0  0  0
 35 44  2  0  0  0
 35 45  1  0  0  0
 35 68  1  0  0  0
 36 56  1  0  0  0
 36109  1  0  0  0
 37 39  1  0  0  0
 37 47  1  0  0  0
 37 66  1  0  0  0
 37110  1  0  0  0
 38 43  2  0  0  0
 38 46  1  0  0  0
 38 47  1  0  0  0
 39 64  1  0  0  0
 39 67  2  0  0  0
 40 52  1  0  0  0
 40 53  2  0  0  0
 40 58  1  0  0  0
 41111  1  0  0  0
 41112  1  0  0  0
 41113  1  0  0  0
 41 48  1  0  0  0
 42 43  1  0  0  0
 42 66  1  0  0  0
 42114  1  0  0  0
 42115  1  0  0  0
 43 44  1  0  0  0
 44116  1  0  0  0
 45 46  2  0  0  0
 45117  1  0  0  0
 46118  1  0  0  0
 47119  1  0  0  0
 47120  1  0  0  0
 48 56  1  0  0  0
 48 65  1  0  0  0
 48121  1  0  0  0
 49 50  1  0  0  0
 49 53  1  0  0  0
 49 64  1  0  0  0
 49122  1  0  0  0
 50 51  1  0  0  0
 50123  1  0  0  0
 50124  1  0  0  0
 51 52  1  0  0  0
 51125  1  0  0  0
 51126  1  0  0  0
 52127  1  0  0  0
 52128  1  0  0  0
 53 54  1  0  0  0
 54 55  2  0  0  0
 54129  1  0  0  0
 55 57  1  0  0  0
 55130  1  0  0  0
 56 69  2  0  0  0
 57 58  2  0  0  0
 57131  1  0  0  0
 58132  1  0  0  0
 59 60  1  0  0  0
 59 61  1  0  0  0
 59 62  1  0  0  0
 60133  1  0  0  0
 60134  1  0  0  0
 60135  1  0  0  0
 61136  1  0  0  0
 61137  1  0  0  0
 61138  1  0  0  0
 62139  1  0  0  0
 62140  1  0  0  0
 62141  1  0  0  0
 63 65  1  0  0  0
 63142  1  0  0  0
 63143  1  0  0  0
 63144  1  0  0  0
 64145  1  0  0  0
 65146  1  0  0  0
 68 82  1  0  0  0
 71 72  2  0  0  0
 71 74  1  0  0  0
 71147  1  0  0  0
 72 76  1  0  0  0
 72148  1  0  0  0
 73 75  1  0  0  0
 73 76  2  0  0  0
 73149  1  0  0  0
 74 75  2  0  0  0
 74 78  1  0  0  0
 75 83  1  0  0  0
 76 85  1  0  0  0
 77 81  1  0  0  0
 77 83  1  0  0  0
 77 86  2  0  0  0
 78 84  1  0  0  0
 78 87  2  0  0  0
 79 80  1  0  0  0
 79 81  1  0  0  0
 79150  1  0  0  0
 79151  1  0  0  0
 80 83  1  0  0  0
 80152  1  0  0  0
 80153  1  0  0  0
 81 82  1  0  0  0
 81154  1  0  0  0
 82155  1  0  0  0
 82156  1  0  0  0
 84157  1  0  0  0
 84158  1  0  0  0
 85159  1  0  0  0
M  ISO  4   1 100  68 101  82 101  85 100
M  END
> <chiral flag>
0

> <version>
0

> <s_m_source_file>
/data/baiqing/PycharmProjects/Reinvent-master-3.2/result/LINK_invent/BTK/process_docking_weight1_custom_product_contain_oxygen_bond_distance_aromatic_linkinvent_7_9_3/rearranged_h_0072.sdf

> <i_m_source_file_index>
32

> <r_mmod_Potential_Energy-OPLS-2005>
213.158004760742

> <r_mmod_Stretch_Energy-OPLS-2005>
144.383331298828

> <r_mmod_Bend_Energy-OPLS-2005>
218.198623657227

> <r_mmod_Torsional_Energy-OPLS-2005>
312.226593017578

> <r_mmod_Improper_Torsional_Energy-OPLS-2005>
5.51549816131592

> <r_mmod_Van_der_Waal_Energy-OPLS-2005>
138.909194946289

> <r_mmod_Electrostatic_Energy-OPLS-2005>
-436.118865966797

> <r_mmod_Solvation_Energy-OPLS-2005>
-268.147277832031

> <b_mmod_Minimization_Converged-OPLS-2005>
0

> <r_mmod_RMS_Derivative-OPLS-2005>
2.28632974624634

$$$$
32
                    3D
 Structure written by MMmdl.
159167  0  0  1  0            999 V2000
  -30.7360  -14.5056   20.5083 C   0  0  0  0  0  0
  -30.4355  -12.2915   19.4518 C   0  0  0  0  0  0
  -29.5127  -12.4385   18.2267 C   0  0  0  0  0  0
  -28.0379  -12.3089   18.6499 C   0  0  0  0  0  0
  -27.6716  -13.2071   19.8622 C   0  0  2  0  0  0
  -28.7158  -13.0690   20.9947 C   0  0  0  0  0  0
  -25.2706  -13.8194   20.5746 C   0  0  0  0  0  0
  -24.1913  -13.0419   20.9197 C   0  0  0  0  0  0
  -24.6445  -11.6891   20.8690 C   0  0  0  0  0  0
  -23.9087  -10.4287   21.0383 C   0  0  0  0  0  0
  -24.3646   -9.4207   21.9184 C   0  0  0  0  0  0
  -23.6291   -8.2259   22.0768 C   0  0  0  0  0  0
  -22.4278   -8.0275   21.3561 C   0  0  0  0  0  0
  -21.9920   -9.0250   20.4664 C   0  0  0  0  0  0
  -22.7243  -10.2133   20.3043 C   0  0  0  0  0  0
  -21.6850   -6.0711   22.5272 C   0  0  0  0  0  0
  -21.4024   -6.5638   23.8182 C   0  0  0  0  0  0
  -21.3652   -5.6809   24.9161 C   0  0  0  0  0  0
  -21.6049   -4.3069   24.7236 C   0  0  0  0  0  0
  -21.8805   -3.8129   23.4363 C   0  0  0  0  0  0
  -21.9207   -4.6950   22.3396 C   0  0  0  0  0  0
  -22.7948  -13.5237   21.1815 C   0  0  0  0  0  0
  -22.1662   -4.2112   21.0989 F   0  0  0  0  0  0
  -21.5631   -3.4549   25.7752 F   0  0  0  0  0  0
  -30.0513  -13.3289   20.4263 N   0  0  0  0  0  0
  -26.3106  -12.9332   20.3340 N   0  0  0  0  0  0
  -25.9388  -11.6485   20.5769 N   0  0  0  0  0  0
  -22.0541  -12.8230   22.0363 N   0  0  0  0  0  0
  -25.4515  -15.1906   20.4296 N   0  0  0  0  0  0
  -31.8806  -14.6429   20.0713 O   0  0  0  0  0  0
  -21.6655   -6.8861   21.4205 O   0  0  0  0  0  0
  -22.3618  -14.5508   20.6633 O   0  0  0  0  0  0
  -24.6176  -31.8641   23.2185 C   0  0  0  0  0  0
  -25.9006  -32.4820   23.8488 C   0  0  1  0  0  0
  -27.2751  -27.4539   20.0779 C   0  0  0  0  0  0
  -25.5809  -33.8651   24.2329 N   0  0  0  0  0  0
  -23.4178  -30.4833   21.5638 C   0  0  2  0  0  0
  -24.8598  -28.9490   20.1292 C   0  0  0  0  0  0
  -22.7577  -29.4598   22.5168 C   0  0  0  0  0  0
  -18.0446  -28.1265   22.8396 C   0  0  0  0  0  0
  -24.1452  -36.7321   23.2663 C   0  0  0  0  0  0
  -25.9522  -30.8178   21.3904 C   0  0  0  0  0  0
  -26.0237  -29.4661   20.7161 C   0  0  0  0  0  0
  -27.2274  -28.7247   20.6904 C   0  0  0  0  0  0
  -26.0897  -26.9802   19.4509 C   0  0  0  0  0  0
  -24.8864  -27.6962   19.5001 C   0  0  0  0  0  0
  -23.6171  -29.8011   20.1847 C   0  0  0  0  0  0
  -25.4099  -36.3185   24.0354 C   0  0  1  0  0  0
  -20.6023  -28.3569   23.1486 C   0  0  2  0  0  0
  -20.7040  -26.9448   22.5253 C   0  0  0  0  0  0
  -19.6141  -26.6783   21.4791 C   0  0  0  0  0  0
  -18.2183  -26.8079   22.0954 C   0  0  0  0  0  0
  -19.1644  -28.8662   23.3036 C   0  0  0  0  0  0
  -18.9496  -30.1217   23.9117 C   0  0  0  0  0  0
  -17.6478  -30.6316   24.0606 C   0  0  0  0  0  0
  -25.9039  -34.9522   23.5165 C   0  0  0  0  0  0
  -16.5389  -29.8834   23.6293 C   0  0  0  0  0  0
  -16.7390  -28.6296   23.0303 C   0  0  0  0  0  0
  -26.4332  -31.6754   25.0935 C   0  0  0  0  0  0
  -25.3559  -31.3989   26.1691 C   0  0  0  0  0  0
  -27.0150  -30.3161   24.6532 C   0  0  0  0  0  0
  -27.5925  -32.4537   25.7615 C   0  0  0  0  0  0
  -27.5576  -37.1835   24.8441 C   0  0  0  0  0  0
  -21.4296  -29.3190   22.4165 N   0  0  0  0  0  0
  -26.4291  -37.3849   23.9393 N   0  0  0  0  0  0
  -24.6795  -31.0740   22.1088 N   0  0  0  0  0  0
  -23.4435  -28.7932   23.2986 O   0  0  0  0  0  0
  -28.4649  -26.7368   20.1190 O   0  0  0  0  0  0
  -26.5654  -34.8958   22.4762 O   0  0  0  0  0  0
  -23.5363  -32.1422   23.7561 O   0  0  0  0  0  0
  -31.0438  -18.9894   19.6645 C   0  0  0  0  0  0
  -30.1144  -19.1990   21.8961 C   0  0  0  0  0  0
  -30.9191  -17.5787   19.7463 C   0  0  0  0  0  0
  -29.9809  -17.7945   21.9751 C   0  0  0  0  0  0
  -30.5867  -19.8228   20.7163 C   0  0  0  0  0  0
  -30.3561  -16.9612   20.8989 C   0  0  0  0  0  0
  -30.6416  -21.3323   20.6053 C   0  0  0  0  0  0
  -28.9746  -23.8785   22.2850 C   0  0  0  0  0  0
  -29.9957  -23.8311   18.3566 C   0  0  0  0  0  0
  -28.5103  -25.5012   19.4021 C   0  0  0  0  0  0
  -29.1181  -23.4039   20.8282 C   0  0  1  0  0  0
  -29.6233  -24.4466   19.7292 C   0  0  1  0  0  0
  -30.0448  -15.5617   20.9824 N   0  0  0  0  0  0
  -29.4713  -21.9698   20.7732 N   0  0  0  0  0  0
  -29.4379  -24.9825   22.6440 O   0  5  0  0  0  0
  -31.7023  -21.9055   20.3455 O   0  0  0  0  0  0
  -28.3702  -23.1228   23.0734 O   0  0  0  0  0  0
  -31.4816  -12.3523   19.1471 H   0  0  0  0  0  0
  -30.3236  -11.3000   19.8922 H   0  0  0  0  0  0
  -29.7506  -11.6635   17.4907 H   0  0  0  0  0  0
  -29.6962  -13.3980   17.7417 H   0  0  0  0  0  0
  -27.8850  -11.2654   18.9228 H   0  0  0  0  0  0
  -27.3780  -12.5076   17.8041 H   0  0  0  0  0  0
  -27.7014  -14.2393   19.5055 H   0  0  0  0  0  0
  -28.6827  -12.0759   21.4398 H   0  0  0  0  0  0
  -28.4807  -13.7599   21.8037 H   0  0  0  0  0  0
  -25.2767   -9.5696   22.4800 H   0  0  0  0  0  0
  -23.9946   -7.4676   22.7551 H   0  0  0  0  0  0
  -21.0818   -8.8798   19.9030 H   0  0  0  0  0  0
  -22.3662  -10.9701   19.6207 H   0  0  0  0  0  0
  -21.1992   -7.6151   23.9661 H   0  0  0  0  0  0
  -21.1510   -6.0569   25.9076 H   0  0  0  0  0  0
  -22.0590   -2.7592   23.2880 H   0  0  0  0  0  0
  -22.4072  -11.9871   22.4764 H   0  0  0  0  0  0
  -21.1182  -13.1329   22.2578 H   0  0  0  0  0  0
  -24.7090  -15.8634   20.5796 H   0  0  0  0  0  0
  -26.3201  -15.6294   20.1420 H   0  0  0  0  0  0
  -26.7136  -32.5481   23.1312 H   0  0  0  0  0  0
  -24.9727  -33.9791   25.0314 H   0  0  0  0  0  0
  -22.7119  -31.3013   21.4264 H   0  0  0  0  0  0
  -23.3726  -35.9611   23.3345 H   0  0  0  0  0  0
  -24.3537  -36.8927   22.2061 H   0  0  0  0  0  0
  -23.7144  -37.6532   23.6635 H   0  0  0  0  0  0
  -26.1233  -31.5942   20.6430 H   0  0  0  0  0  0
  -26.8232  -30.8316   22.0345 H   0  0  0  0  0  0
  -28.1260  -29.1453   21.1221 H   0  0  0  0  0  0
  -26.0503  -26.0637   18.8851 H   0  0  0  0  0  0
  -23.9983  -27.2908   19.0288 H   0  0  0  0  0  0
  -23.7010  -30.5605   19.4110 H   0  0  0  0  0  0
  -22.7493  -29.1902   19.9224 H   0  0  0  0  0  0
  -25.1277  -36.2101   25.0843 H   0  0  0  0  0  0
  -21.0108  -28.2945   24.1595 H   0  0  0  0  0  0
  -20.5932  -26.2025   23.3153 H   0  0  0  0  0  0
  -21.7011  -26.7783   22.1119 H   0  0  0  0  0  0
  -19.7204  -27.4037   20.6699 H   0  0  0  0  0  0
  -19.7472  -25.6932   21.0328 H   0  0  0  0  0  0
  -17.4764  -26.7384   21.3008 H   0  0  0  0  0  0
  -18.0246  -25.9746   22.7715 H   0  0  0  0  0  0
  -19.7910  -30.7063   24.2593 H   0  0  0  0  0  0
  -17.4969  -31.6013   24.5114 H   0  0  0  0  0  0
  -15.5381  -30.2693   23.7529 H   0  0  0  0  0  0
  -15.8812  -28.0597   22.7037 H   0  0  0  0  0  0
  -24.5669  -30.7367   25.8110 H   0  0  0  0  0  0
  -24.8755  -32.3177   26.5100 H   0  0  0  0  0  0
  -25.7861  -30.9241   27.0523 H   0  0  0  0  0  0
  -26.2808  -29.7003   24.1333 H   0  0  0  0  0  0
  -27.3475  -29.7392   25.5169 H   0  0  0  0  0  0
  -27.8820  -30.4381   24.0047 H   0  0  0  0  0  0
  -27.2534  -33.3829   26.2208 H   0  0  0  0  0  0
  -28.3632  -32.7168   25.0365 H   0  0  0  0  0  0
  -28.0670  -31.8698   26.5510 H   0  0  0  0  0  0
  -28.2667  -38.0084   24.7520 H   0  0  0  0  0  0
  -28.1034  -36.2640   24.6244 H   0  0  0  0  0  0
  -27.2299  -37.1471   25.8854 H   0  0  0  0  0  0
  -20.9430  -29.9534   21.7994 H   0  0  0  0  0  0
  -26.0218  -38.2949   24.1363 H   0  0  0  0  0  0
  -31.4839  -19.4374   18.7812 H   0  0  0  0  0  0
  -29.8695  -19.8011   22.7603 H   0  0  0  0  0  0
  -31.2151  -16.9864   18.8896 H   0  0  0  0  0  0
  -29.5640  -17.3460   22.8668 H   0  0  0  0  0  0
  -30.2890  -24.6156   17.6543 H   0  0  0  0  0  0
  -29.1596  -23.2916   17.9086 H   0  0  0  0  0  0
  -30.8430  -23.1555   18.3927 H   0  0  0  0  0  0
  -27.5747  -24.9723   19.5306 H   0  0  0  0  0  0
  -28.5501  -25.7922   18.3488 H   0  0  0  0  0  0
  -28.0733  -23.2687   20.5753 H   0  0  0  0  0  0
  -30.5159  -24.9700   20.0840 H   0  0  0  0  0  0
  -29.1471  -15.3234   21.3775 H   0  0  0  0  0  0
  -28.6829  -21.3808   21.0328 H   0  0  0  0  0  0
  1 25  1  0  0  0
  1 30  2  0  0  0
  1 83  1  0  0  0
  2  3  1  0  0  0
  2 25  1  0  0  0
  2 88  1  0  0  0
  2 89  1  0  0  0
  3  4  1  0  0  0
  3 90  1  0  0  0
  3 91  1  0  0  0
  4  5  1  0  0  0
  4 92  1  0  0  0
  4 93  1  0  0  0
  5  6  1  0  0  0
  5 26  1  0  0  0
  5 94  1  0  0  0
  6 25  1  0  0  0
  6 95  1  0  0  0
  6 96  1  0  0  0
  7  8  2  0  0  0
  7 26  1  0  0  0
  7 29  1  0  0  0
  8  9  1  0  0  0
  8 22  1  0  0  0
  9 10  1  0  0  0
  9 27  2  0  0  0
 10 11  2  0  0  0
 10 15  1  0  0  0
 11 12  1  0  0  0
 11 97  1  0  0  0
 12 13  2  0  0  0
 12 98  1  0  0  0
 13 14  1  0  0  0
 13 31  1  0  0  0
 14 15  2  0  0  0
 14 99  1  0  0  0
 15100  1  0  0  0
 16 17  2  0  0  0
 16 21  1  0  0  0
 16 31  1  0  0  0
 17 18  1  0  0  0
 17101  1  0  0  0
 18 19  2  0  0  0
 18102  1  0  0  0
 19 20  1  0  0  0
 19 24  1  0  0  0
 20 21  2  0  0  0
 20103  1  0  0  0
 21 23  1  0  0  0
 22 28  1  0  0  0
 22 32  2  0  0  0
 26 27  1  0  0  0
 28104  1  0  0  0
 28105  1  0  0  0
 29106  1  0  0  0
 29107  1  0  0  0
 33 34  1  0  0  0
 33 66  1  0  0  0
 33 70  2  0  0  0
 34 36  1  0  0  0
 34 59  1  0  0  0
 34108  1  0  0  0
 35 44  2  0  0  0
 35 45  1  0  0  0
 35 68  1  0  0  0
 36 56  1  0  0  0
 36109  1  0  0  0
 37 39  1  0  0  0
 37 47  1  0  0  0
 37 66  1  0  0  0
 37110  1  0  0  0
 38 43  2  0  0  0
 38 46  1  0  0  0
 38 47  1  0  0  0
 39 64  1  0  0  0
 39 67  2  0  0  0
 40 52  1  0  0  0
 40 53  2  0  0  0
 40 58  1  0  0  0
 41111  1  0  0  0
 41112  1  0  0  0
 41113  1  0  0  0
 41 48  1  0  0  0
 42 43  1  0  0  0
 42 66  1  0  0  0
 42114  1  0  0  0
 42115  1  0  0  0
 43 44  1  0  0  0
 44116  1  0  0  0
 45 46  2  0  0  0
 45117  1  0  0  0
 46118  1  0  0  0
 47119  1  0  0  0
 47120  1  0  0  0
 48 56  1  0  0  0
 48 65  1  0  0  0
 48121  1  0  0  0
 49 50  1  0  0  0
 49 53  1  0  0  0
 49 64  1  0  0  0
 49122  1  0  0  0
 50 51  1  0  0  0
 50123  1  0  0  0
 50124  1  0  0  0
 51 52  1  0  0  0
 51125  1  0  0  0
 51126  1  0  0  0
 52127  1  0  0  0
 52128  1  0  0  0
 53 54  1  0  0  0
 54 55  2  0  0  0
 54129  1  0  0  0
 55 57  1  0  0  0
 55130  1  0  0  0
 56 69  2  0  0  0
 57 58  2  0  0  0
 57131  1  0  0  0
 58132  1  0  0  0
 59 60  1  0  0  0
 59 61  1  0  0  0
 59 62  1  0  0  0
 60133  1  0  0  0
 60134  1  0  0  0
 60135  1  0  0  0
 61136  1  0  0  0
 61137  1  0  0  0
 61138  1  0  0  0
 62139  1  0  0  0
 62140  1  0  0  0
 62141  1  0  0  0
 63 65  1  0  0  0
 63142  1  0  0  0
 63143  1  0  0  0
 63144  1  0  0  0
 64145  1  0  0  0
 65146  1  0  0  0
 68 80  1  0  0  0
 71 73  2  0  0  0
 71 75  1  0  0  0
 71147  1  0  0  0
 72 74  1  0  0  0
 72 75  2  0  0  0
 72148  1  0  0  0
 73 76  1  0  0  0
 73149  1  0  0  0
 74 76  2  0  0  0
 74150  1  0  0  0
 75 77  1  0  0  0
 76 83  1  0  0  0
 77 84  1  0  0  0
 77 86  2  0  0  0
 78 81  1  0  0  0
 78 85  1  0  0  0
 78 87  2  0  0  0
 79151  1  0  0  0
 79152  1  0  0  0
 79153  1  0  0  0
 79 82  1  0  0  0
 80 82  1  0  0  0
 80154  1  0  0  0
 80155  1  0  0  0
 81 82  1  0  0  0
 81 84  1  0  0  0
 81156  1  0  0  0
 82157  1  0  0  0
 83158  1  0  0  0
 84159  1  0  0  0
M  CHG  1  85  -1
M  ISO  4   1 100  68 101  80 101  83 100
M  END
> <chiral flag>
0

> <version>
0

> <s_m_source_file>
/data/baiqing/PycharmProjects/Reinvent-master-3.2/result/LINK_invent/BTK/process_docking_weight1_custom_product_contain_oxygen_bond_distance_aromatic_linkinvent_7_9_3/rearranged_h_0072.sdf

> <i_m_source_file_index>
33

> <r_mmod_Potential_Energy-OPLS-2005>
-389.114044189453

> <r_mmod_Stretch_Energy-OPLS-2005>
47.8621788024902

> <r_mmod_Bend_Energy-OPLS-2005>
160.369186401367

> <r_mmod_Torsional_Energy-OPLS-2005>
238.865539550781

> <r_mmod_Improper_Torsional_Energy-OPLS-2005>
3.6043393611908

> <r_mmod_Van_der_Waal_Energy-OPLS-2005>
162.749542236328

> <r_mmod_Electrostatic_Energy-OPLS-2005>
-488.746063232422

> <r_mmod_Solvation_Energy-OPLS-2005>
-538.261291503906

> <b_mmod_Minimization_Converged-OPLS-2005>
0

> <r_mmod_RMS_Derivative-OPLS-2005>
11.2651863098145

$$$$
33
                    3D
 Structure written by MMmdl.
159167  0  0  1  0            999 V2000
  -30.6565  -14.6171   20.3044 C   0  0  0  0  0  0
  -30.4219  -12.3405   19.4324 C   0  0  0  0  0  0
  -29.4903  -12.4102   18.2043 C   0  0  0  0  0  0
  -28.0118  -12.2971   18.6362 C   0  0  0  0  0  0
  -27.6429  -13.1919   19.8559 C   0  0  2  0  0  0
  -28.7091  -13.1309   20.9651 C   0  0  0  0  0  0
  -25.2588  -13.8092   20.5760 C   0  0  0  0  0  0
  -24.1811  -13.0395   20.9202 C   0  0  0  0  0  0
  -24.6349  -11.6861   20.8776 C   0  0  0  0  0  0
  -23.9018  -10.4256   21.0432 C   0  0  0  0  0  0
  -24.3579   -9.4160   21.9199 C   0  0  0  0  0  0
  -23.6252   -8.2196   22.0741 C   0  0  0  0  0  0
  -22.4232   -8.0249   21.3531 C   0  0  0  0  0  0
  -21.9876   -9.0218   20.4637 C   0  0  0  0  0  0
  -22.7202  -10.2096   20.3065 C   0  0  0  0  0  0
  -21.6824   -6.0721   22.5289 C   0  0  0  0  0  0
  -21.4003   -6.5627   23.8225 C   0  0  0  0  0  0
  -21.3644   -5.6788   24.9190 C   0  0  0  0  0  0
  -21.6029   -4.3051   24.7244 C   0  0  0  0  0  0
  -21.8820   -3.8144   23.4369 C   0  0  0  0  0  0
  -21.9178   -4.6956   22.3420 C   0  0  0  0  0  0
  -22.7856  -13.5230   21.1845 C   0  0  0  0  0  0
  -22.1655   -4.2141   21.1002 F   0  0  0  0  0  0
  -21.5619   -3.4537   25.7756 F   0  0  0  0  0  0
  -29.9987  -13.4236   20.3302 N   0  0  0  0  0  0
  -26.2972  -12.9211   20.3412 N   0  0  0  0  0  0
  -25.9275  -11.6393   20.5853 N   0  0  0  0  0  0
  -22.0484  -12.8195   22.0382 N   0  0  0  0  0  0
  -25.4353  -15.1804   20.4221 N   0  0  0  0  0  0
  -31.8840  -14.6471   20.4172 O   0  0  0  0  0  0
  -21.6595   -6.8847   21.4238 O   0  0  0  0  0  0
  -22.3569  -14.5561   20.6738 O   0  0  0  0  0  0
  -24.6186  -31.8642   23.2074 C   0  0  0  0  0  0
  -25.9061  -32.4784   23.8387 C   0  0  1  0  0  0
  -27.2243  -27.3724   20.1148 C   0  0  0  0  0  0
  -25.5904  -33.8586   24.2315 N   0  0  0  0  0  0
  -23.4092  -30.4906   21.5466 C   0  0  2  0  0  0
  -24.8537  -28.9485   20.1130 C   0  0  0  0  0  0
  -22.7430  -29.4653   22.4943 C   0  0  0  0  0  0
  -18.0275  -28.1368   22.8493 C   0  0  0  0  0  0
  -24.1486  -36.7305   23.2640 C   0  0  0  0  0  0
  -25.9458  -30.8094   21.3714 C   0  0  0  0  0  0
  -26.0169  -29.4412   20.7177 C   0  0  0  0  0  0
  -27.2018  -28.6622   20.7110 C   0  0  0  0  0  0
  -26.0382  -26.9080   19.4998 C   0  0  0  0  0  0
  -24.8631  -27.6841   19.5011 C   0  0  0  0  0  0
  -23.6221  -29.8273   20.1601 C   0  0  0  0  0  0
  -25.4100  -36.3088   24.0339 C   0  0  1  0  0  0
  -20.5884  -28.3662   23.1300 C   0  0  2  0  0  0
  -20.6764  -26.9390   22.5416 C   0  0  0  0  0  0
  -19.5739  -26.6373   21.5209 C   0  0  0  0  0  0
  -18.1919  -26.7911   22.1620 C   0  0  0  0  0  0
  -19.1533  -28.8826   23.2900 C   0  0  0  0  0  0
  -18.9458  -30.1436   23.8910 C   0  0  0  0  0  0
  -17.6460  -30.6575   24.0559 C   0  0  0  0  0  0
  -25.9035  -34.9453   23.5126 C   0  0  0  0  0  0
  -16.5351  -29.9080   23.6325 C   0  0  0  0  0  0
  -16.7269  -28.6497   23.0353 C   0  0  0  0  0  0
  -26.4475  -31.6576   25.0735 C   0  0  0  0  0  0
  -25.3734  -31.3671   26.1482 C   0  0  0  0  0  0
  -27.0291  -30.3009   24.6128 C   0  0  0  0  0  0
  -27.6078  -32.4283   25.7473 C   0  0  0  0  0  0
  -27.5578  -37.1803   24.8467 C   0  0  0  0  0  0
  -21.4151  -29.3033   22.3687 N   0  0  0  0  0  0
  -26.4291  -37.3771   23.9414 N   0  0  0  0  0  0
  -24.6766  -31.0709   22.0987 N   0  0  0  0  0  0
  -23.4183  -28.8182   23.2985 O   0  0  0  0  0  0
  -28.3907  -26.6190   20.1721 O   0  0  0  0  0  0
  -26.5602  -34.8911   22.4690 O   0  0  0  0  0  0
  -23.5368  -32.1433   23.7446 O   0  0  0  0  0  0
  -27.2740  -18.0217   19.1087 C   0  0  0  0  0  0
  -27.6660  -19.0384   19.9899 C   0  0  0  0  0  0
  -28.0675  -16.8732   18.9198 C   0  0  0  0  0  0
  -28.8642  -18.9209   20.7175 C   0  0  0  0  0  0
  -29.2178  -16.6455   19.7409 C   0  0  0  0  0  0
  -29.6022  -17.6947   20.6372 C   0  0  0  0  0  0
  -28.1534  -24.1563   20.7694 C   0  0  0  0  0  0
  -27.6763  -15.9993   17.7346 C   0  0  0  0  0  0
  -30.9400  -15.8308   18.2537 C   0  0  0  0  0  0
  -28.4523  -25.2415   19.6919 C   0  0  0  0  0  0
  -28.8116  -22.7487   20.5962 C   0  0  0  0  0  0
  -29.3414  -20.0289   21.4564 N   0  0  0  0  0  0
  -30.1076  -15.5391   19.4378 N   0  0  0  0  0  0
  -27.3930  -24.4069   21.7121 O   0  0  0  0  0  0
  -29.0791  -21.9852   23.2365 O   0  0  0  0  0  0
  -30.7432  -17.5727   21.3588 F   0  0  0  0  0  0
  -28.3858  -21.5160   21.9533 S   0  0  1  0  0  0
  -31.4651  -12.4438   19.1228 H   0  0  0  0  0  0
  -30.3427  -11.3751   19.9350 H   0  0  0  0  0  0
  -29.7346  -11.6082   17.5068 H   0  0  0  0  0  0
  -29.6523  -13.3364   17.6562 H   0  0  0  0  0  0
  -27.8398  -11.2499   18.8899 H   0  0  0  0  0  0
  -27.3550  -12.5113   17.7922 H   0  0  0  0  0  0
  -27.6319  -14.2136   19.5129 H   0  0  0  0  0  0
  -28.7328  -12.1456   21.4322 H   0  0  0  0  0  0
  -28.4892  -13.8512   21.7555 H   0  0  0  0  0  0
  -25.2721   -9.5624   22.4778 H   0  0  0  0  0  0
  -23.9945   -7.4575   22.7450 H   0  0  0  0  0  0
  -21.0807   -8.8750   19.8938 H   0  0  0  0  0  0
  -22.3676  -10.9643   19.6181 H   0  0  0  0  0  0
  -21.2010   -7.6145   23.9733 H   0  0  0  0  0  0
  -21.1447   -6.0526   25.9085 H   0  0  0  0  0  0
  -22.0608   -2.7604   23.2890 H   0  0  0  0  0  0
  -22.4067  -11.9822   22.4738 H   0  0  0  0  0  0
  -21.1127  -13.1246   22.2631 H   0  0  0  0  0  0
  -24.6737  -15.8393   20.5355 H   0  0  0  0  0  0
  -26.2995  -15.6211   20.1342 H   0  0  0  0  0  0
  -26.7119  -32.5462   23.1136 H   0  0  0  0  0  0
  -25.0041  -33.9752   25.0449 H   0  0  0  0  0  0
  -22.7014  -31.3107   21.4051 H   0  0  0  0  0  0
  -23.3742  -35.9645   23.3305 H   0  0  0  0  0  0
  -24.3584  -36.8923   22.2057 H   0  0  0  0  0  0
  -23.7270  -37.6519   23.6661 H   0  0  0  0  0  0
  -26.0755  -31.5716   20.6014 H   0  0  0  0  0  0
  -26.8284  -30.8551   21.9979 H   0  0  0  0  0  0
  -28.0966  -29.0375   21.1890 H   0  0  0  0  0  0
  -25.9828  -25.9406   19.0268 H   0  0  0  0  0  0
  -23.9656  -27.3003   19.0365 H   0  0  0  0  0  0
  -23.7446  -30.6075   19.4073 H   0  0  0  0  0  0
  -22.7417  -29.2593   19.8538 H   0  0  0  0  0  0
  -25.1273  -36.1944   25.0831 H   0  0  0  0  0  0
  -20.9993  -28.3230   24.1416 H   0  0  0  0  0  0
  -20.5649  -26.2265   23.3604 H   0  0  0  0  0  0
  -21.6632  -26.7403   22.1211 H   0  0  0  0  0  0
  -19.6897  -25.6284   21.1238 H   0  0  0  0  0  0
  -19.6692  -27.3189   20.6743 H   0  0  0  0  0  0
  -17.4193  -26.6684   21.4023 H   0  0  0  0  0  0
  -18.0314  -26.0043   22.9002 H   0  0  0  0  0  0
  -19.7939  -30.7246   24.2298 H   0  0  0  0  0  0
  -17.5018  -31.6268   24.5138 H   0  0  0  0  0  0
  -15.5361  -30.2986   23.7636 H   0  0  0  0  0  0
  -15.8676  -28.0822   22.7065 H   0  0  0  0  0  0
  -24.5972  -30.6927   25.7844 H   0  0  0  0  0  0
  -24.8829  -32.2789   26.4891 H   0  0  0  0  0  0
  -25.8103  -30.8914   27.0271 H   0  0  0  0  0  0
  -26.2829  -29.6781   24.1180 H   0  0  0  0  0  0
  -27.4044  -29.7238   25.4590 H   0  0  0  0  0  0
  -27.8678  -30.4308   23.9285 H   0  0  0  0  0  0
  -27.2753  -33.3610   26.2041 H   0  0  0  0  0  0
  -28.3887  -32.6795   25.0278 H   0  0  0  0  0  0
  -28.0738  -31.8390   26.5383 H   0  0  0  0  0  0
  -28.2594  -38.0096   24.7495 H   0  0  0  0  0  0
  -28.1080  -36.2634   24.6309 H   0  0  0  0  0  0
  -27.2301  -37.1471   25.8871 H   0  0  0  0  0  0
  -20.9300  -29.8782   21.6943 H   0  0  0  0  0  0
  -26.0176  -38.2853   24.1399 H   0  0  0  0  0  0
  -26.3883  -18.1737   18.5079 H   0  0  0  0  0  0
  -27.0613  -19.9311   20.0445 H   0  0  0  0  0  0
  -26.6272  -15.7082   17.7946 H   0  0  0  0  0  0
  -28.2728  -15.0985   17.6337 H   0  0  0  0  0  0
  -27.8046  -16.5659   16.8118 H   0  0  0  0  0  0
  -31.4000  -14.9328   17.8361 H   0  0  0  0  0  0
  -31.7425  -16.5205   18.5178 H   0  0  0  0  0  0
  -30.3728  -16.2959   17.4476 H   0  0  0  0  0  0
  -27.8197  -25.0790   18.8202 H   0  0  0  0  0  0
  -29.4690  -25.0712   19.3411 H   0  0  0  0  0  0
  -29.8926  -22.8735   20.5628 H   0  0  0  0  0  0
  -28.5061  -22.3331   19.6357 H   0  0  0  0  0  0
  -30.1565  -19.8079   22.0217 H   0  0  0  0  0  0
  1 25  1  0  0  0
  1 30  2  0  0  0
  1 83  1  0  0  0
  2  3  1  0  0  0
  2 25  1  0  0  0
  2 88  1  0  0  0
  2 89  1  0  0  0
  3  4  1  0  0  0
  3 90  1  0  0  0
  3 91  1  0  0  0
  4  5  1  0  0  0
  4 92  1  0  0  0
  4 93  1  0  0  0
  5  6  1  0  0  0
  5 26  1  0  0  0
  5 94  1  0  0  0
  6 25  1  0  0  0
  6 95  1  0  0  0
  6 96  1  0  0  0
  7  8  2  0  0  0
  7 26  1  0  0  0
  7 29  1  0  0  0
  8  9  1  0  0  0
  8 22  1  0  0  0
  9 10  1  0  0  0
  9 27  2  0  0  0
 10 11  2  0  0  0
 10 15  1  0  0  0
 11 12  1  0  0  0
 11 97  1  0  0  0
 12 13  2  0  0  0
 12 98  1  0  0  0
 13 14  1  0  0  0
 13 31  1  0  0  0
 14 15  2  0  0  0
 14 99  1  0  0  0
 15100  1  0  0  0
 16 17  2  0  0  0
 16 21  1  0  0  0
 16 31  1  0  0  0
 17 18  1  0  0  0
 17101  1  0  0  0
 18 19  2  0  0  0
 18102  1  0  0  0
 19 20  1  0  0  0
 19 24  1  0  0  0
 20 21  2  0  0  0
 20103  1  0  0  0
 21 23  1  0  0  0
 22 28  1  0  0  0
 22 32  2  0  0  0
 26 27  1  0  0  0
 28104  1  0  0  0
 28105  1  0  0  0
 29106  1  0  0  0
 29107  1  0  0  0
 33 34  1  0  0  0
 33 66  1  0  0  0
 33 70  2  0  0  0
 34 36  1  0  0  0
 34 59  1  0  0  0
 34108  1  0  0  0
 35 44  2  0  0  0
 35 45  1  0  0  0
 35 68  1  0  0  0
 36 56  1  0  0  0
 36109  1  0  0  0
 37 39  1  0  0  0
 37 47  1  0  0  0
 37 66  1  0  0  0
 37110  1  0  0  0
 38 43  2  0  0  0
 38 46  1  0  0  0
 38 47  1  0  0  0
 39 64  1  0  0  0
 39 67  2  0  0  0
 40 52  1  0  0  0
 40 53  2  0  0  0
 40 58  1  0  0  0
 41111  1  0  0  0
 41112  1  0  0  0
 41113  1  0  0  0
 41 48  1  0  0  0
 42 43  1  0  0  0
 42 66  1  0  0  0
 42114  1  0  0  0
 42115  1  0  0  0
 43 44  1  0  0  0
 44116  1  0  0  0
 45 46  2  0  0  0
 45117  1  0  0  0
 46118  1  0  0  0
 47119  1  0  0  0
 47120  1  0  0  0
 48 56  1  0  0  0
 48 65  1  0  0  0
 48121  1  0  0  0
 49 50  1  0  0  0
 49 53  1  0  0  0
 49 64  1  0  0  0
 49122  1  0  0  0
 50 51  1  0  0  0
 50123  1  0  0  0
 50124  1  0  0  0
 51 52  1  0  0  0
 51125  1  0  0  0
 51126  1  0  0  0
 52127  1  0  0  0
 52128  1  0  0  0
 53 54  1  0  0  0
 54 55  2  0  0  0
 54129  1  0  0  0
 55 57  1  0  0  0
 55130  1  0  0  0
 56 69  2  0  0  0
 57 58  2  0  0  0
 57131  1  0  0  0
 58132  1  0  0  0
 59 60  1  0  0  0
 59 61  1  0  0  0
 59 62  1  0  0  0
 60133  1  0  0  0
 60134  1  0  0  0
 60135  1  0  0  0
 61136  1  0  0  0
 61137  1  0  0  0
 61138  1  0  0  0
 62139  1  0  0  0
 62140  1  0  0  0
 62141  1  0  0  0
 63 65  1  0  0  0
 63142  1  0  0  0
 63143  1  0  0  0
 63144  1  0  0  0
 64145  1  0  0  0
 65146  1  0  0  0
 68 80  1  0  0  0
 71 72  2  0  0  0
 71 73  1  0  0  0
 71147  1  0  0  0
 72 74  1  0  0  0
 72148  1  0  0  0
 73 75  2  0  0  0
 73 78  1  0  0  0
 74 76  2  0  0  0
 74 82  1  0  0  0
 75 76  1  0  0  0
 75 83  1  0  0  0
 76 86  1  0  0  0
 77 80  1  0  0  0
 77 81  1  0  0  0
 77 84  2  0  0  0
 78149  1  0  0  0
 78150  1  0  0  0
 78151  1  0  0  0
 79 83  1  0  0  0
 79152  1  0  0  0
 79153  1  0  0  0
 79154  1  0  0  0
 80155  1  0  0  0
 80156  1  0  0  0
 81157  1  0  0  0
 81158  1  0  0  0
 81 87  1  0  0  0
 82 87  1  0  0  0
 82159  1  0  0  0
 85 87  2  0  0  0
M  ISO  4   1 100  68 101  80 101  83 100
M  END
> <chiral flag>
0

> <version>
0

> <s_m_source_file>
/data/baiqing/PycharmProjects/Reinvent-master-3.2/result/LINK_invent/BTK/process_docking_weight1_custom_product_contain_oxygen_bond_distance_aromatic_linkinvent_7_9_3/rearranged_h_0072.sdf

> <i_m_source_file_index>
34

> <r_mmod_Potential_Energy-OPLS-2005>
209.364562988281

> <r_mmod_Stretch_Energy-OPLS-2005>
58.8509254455566

> <r_mmod_Bend_Energy-OPLS-2005>
140.177597045898

> <r_mmod_Torsional_Energy-OPLS-2005>
335.314361572266

> <r_mmod_Improper_Torsional_Energy-OPLS-2005>
36.1132469177246

> <r_mmod_Van_der_Waal_Energy-OPLS-2005>
138.893035888672

> <r_mmod_Electrostatic_Energy-OPLS-2005>
-307.801513671875

> <r_mmod_Solvation_Energy-OPLS-2005>
-255.429321289062

> <b_mmod_Minimization_Converged-OPLS-2005>
0

> <r_mmod_RMS_Derivative-OPLS-2005>
2.82422304153442

$$$$
34
                    3D
 Structure written by MMmdl.
139146  0  0  1  0            999 V2000
  -30.2142  -15.8319   20.3130 C   0  0  0  0  0  0
  -30.4140  -13.2273   19.5464 C   0  0  0  0  0  0
  -29.5606  -12.7075   18.3468 C   0  0  0  0  0  0
  -28.1489  -12.3070   18.7970 C   0  0  0  0  0  0
  -27.5909  -13.3266   19.8120 C   0  0  2  0  0  0
  -28.5935  -13.7359   20.9215 C   0  0  0  0  0  0
  -25.2295  -13.8305   20.5817 C   0  0  0  0  0  0
  -24.1703  -13.0431   20.9300 C   0  0  0  0  0  0
  -24.6431  -11.6951   20.8761 C   0  0  0  0  0  0
  -23.9136  -10.4292   21.0389 C   0  0  0  0  0  0
  -24.3664   -9.4205   21.9175 C   0  0  0  0  0  0
  -23.6320   -8.2249   22.0752 C   0  0  0  0  0  0
  -22.4299   -8.0290   21.3544 C   0  0  0  0  0  0
  -21.9950   -9.0266   20.4642 C   0  0  0  0  0  0
  -22.7299  -10.2135   20.3045 C   0  0  0  0  0  0
  -21.6861   -6.0743   22.5279 C   0  0  0  0  0  0
  -21.4020   -6.5644   23.8213 C   0  0  0  0  0  0
  -21.3661   -5.6795   24.9173 C   0  0  0  0  0  0
  -21.6044   -4.3057   24.7223 C   0  0  0  0  0  0
  -21.8818   -3.8151   23.4343 C   0  0  0  0  0  0
  -21.9195   -4.6969   22.3401 C   0  0  0  0  0  0
  -22.7711  -13.5148   21.1928 C   0  0  0  0  0  0
  -22.1662   -4.2155   21.0978 F   0  0  0  0  0  0
  -21.5627   -3.4540   25.7735 F   0  0  0  0  0  0
  -29.7371  -14.4225   20.2586 N   0  0  0  0  0  0
  -26.2767  -12.9673   20.3256 N   0  0  0  0  0  0
  -25.9386  -11.6723   20.5689 N   0  0  0  0  0  0
  -22.0381  -12.8120   22.0480 N   0  0  0  0  0  0
  -25.3855  -15.2050   20.4256 N   0  0  0  0  0  0
  -31.4543  -15.7633   20.1607 O   0  0  0  0  0  0
  -21.6651   -6.8893   21.4244 O   0  0  0  0  0  0
  -22.3380  -14.5444   20.6763 O   0  0  0  0  0  0
  -24.6971  -31.7833   23.1401 C   0  0  0  0  0  0
  -25.9486  -32.4383   23.7998 C   0  0  1  0  0  0
  -27.2336  -26.5553   20.2316 C   0  0  0  0  0  0
  -25.6006  -33.8218   24.1868 N   0  0  0  0  0  0
  -23.5305  -30.3784   21.4970 C   0  0  2  0  0  0
  -24.9908  -28.6886   20.1236 C   0  0  0  0  0  0
  -22.7828  -29.4224   22.4671 C   0  0  0  0  0  0
  -18.0348  -28.1429   22.8447 C   0  0  0  0  0  0
  -24.1496  -36.7117   23.2656 C   0  0  0  0  0  0
  -26.1169  -30.4659   21.4298 C   0  0  0  0  0  0
  -26.1801  -29.0134   20.7859 C   0  0  0  0  0  0
  -27.2771  -27.9779   20.8074 C   0  0  0  0  0  0
  -26.0136  -26.4827   19.5006 C   0  0  0  0  0  0
  -24.9549  -27.4502   19.4572 C   0  0  0  0  0  0
  -23.7939  -29.6619   20.1388 C   0  0  0  0  0  0
  -25.4152  -36.2846   24.0271 C   0  0  1  0  0  0
  -20.5990  -28.3796   23.1115 C   0  0  2  0  0  0
  -20.6806  -26.9441   22.5406 C   0  0  0  0  0  0
  -19.5785  -26.6366   21.5218 C   0  0  0  0  0  0
  -18.1967  -26.7954   22.1616 C   0  0  0  0  0  0
  -19.1617  -28.8940   23.2757 C   0  0  0  0  0  0
  -18.9520  -30.1519   23.8810 C   0  0  0  0  0  0
  -17.6508  -30.6607   24.0548 C   0  0  0  0  0  0
  -25.9141  -34.9240   23.4917 C   0  0  0  0  0  0
  -16.5397  -29.9085   23.6355 C   0  0  0  0  0  0
  -16.7326  -28.6510   23.0369 C   0  0  0  0  0  0
  -26.4618  -31.6481   25.0682 C   0  0  0  0  0  0
  -25.3645  -31.3842   26.1270 C   0  0  0  0  0  0
  -27.0575  -30.2801   24.6696 C   0  0  0  0  0  0
  -27.6038  -32.4379   25.7507 C   0  0  0  0  0  0
  -27.5560  -37.1714   24.8466 C   0  0  0  0  0  0
  -21.4463  -29.3013   22.3418 N   0  0  0  0  0  0
  -26.4265  -37.3624   23.9408 N   0  0  0  0  0  0
  -24.8065  -30.9130   22.0740 N   0  0  0  0  0  0
  -23.4203  -28.7848   23.3084 O   0  0  0  0  0  0
  -28.1834  -25.2714   20.2785 O   0  0  0  0  0  0
  -26.5802  -34.8846   22.4549 O   0  0  0  0  0  0
  -23.5959  -32.0980   23.6259 O   0  0  0  0  0  0
  -28.6752  -22.1781   20.2862 C   0  0  0  0  0  0
  -27.9733  -23.6192   20.2240 C   0  0  0  0  0  0
  -28.5878  -20.3871   20.3562 C   0  0  0  0  0  0
  -29.5470  -19.1166   20.2848 N   0  0  0  0  0  0
  -29.4019  -17.2142   20.3659 N   0  0  0  0  0  0
  -27.4521  -19.9313   20.5459 O   0  0  0  0  0  0
  -31.3902  -13.5239   19.1613 H   0  0  0  0  0  0
  -30.6269  -12.4187   20.2478 H   0  0  0  0  0  0
  -30.0552  -11.8660   17.8598 H   0  0  0  0  0  0
  -29.4880  -13.4962   17.5966 H   0  0  0  0  0  0
  -28.2110  -11.3247   19.2672 H   0  0  0  0  0  0
  -27.4828  -12.2004   17.9399 H   0  0  0  0  0  0
  -27.4289  -14.2232   19.2118 H   0  0  0  0  0  0
  -28.8979  -12.8833   21.5307 H   0  0  0  0  0  0
  -28.1216  -14.4427   21.6056 H   0  0  0  0  0  0
  -25.2803   -9.5677   22.4762 H   0  0  0  0  0  0
  -24.0017   -7.4642   22.7480 H   0  0  0  0  0  0
  -21.0878   -8.8797   19.8949 H   0  0  0  0  0  0
  -22.3758  -10.9676   19.6156 H   0  0  0  0  0  0
  -21.2016   -7.6152   23.9718 H   0  0  0  0  0  0
  -21.1483   -6.0524   25.9077 H   0  0  0  0  0  0
  -22.0595   -2.7613   23.2842 H   0  0  0  0  0  0
  -22.4031  -11.9801   22.4877 H   0  0  0  0  0  0
  -21.0984  -13.1106   22.2676 H   0  0  0  0  0  0
  -24.6107  -15.8501   20.5367 H   0  0  0  0  0  0
  -26.2212  -15.6484   20.0689 H   0  0  0  0  0  0
  -26.7580  -32.4818   23.0715 H   0  0  0  0  0  0
  -25.0041  -33.9232   24.9947 H   0  0  0  0  0  0
  -22.8642  -31.2195   21.2942 H   0  0  0  0  0  0
  -23.3782  -35.9421   23.3252 H   0  0  0  0  0  0
  -24.3560  -36.8855   22.2084 H   0  0  0  0  0  0
  -23.7234  -37.6263   23.6789 H   0  0  0  0  0  0
  -26.3357  -31.1788   20.6337 H   0  0  0  0  0  0
  -26.9623  -30.5406   22.1009 H   0  0  0  0  0  0
  -28.1693  -28.2383   21.3591 H   0  0  0  0  0  0
  -25.8296  -25.5579   18.9726 H   0  0  0  0  0  0
  -24.0639  -27.1916   18.9016 H   0  0  0  0  0  0
  -23.9820  -30.4157   19.3735 H   0  0  0  0  0  0
  -22.8960  -29.1357   19.8104 H   0  0  0  0  0  0
  -25.1368  -36.1587   25.0760 H   0  0  0  0  0  0
  -21.0066  -28.3433   24.1244 H   0  0  0  0  0  0
  -20.5654  -26.2424   23.3682 H   0  0  0  0  0  0
  -21.6666  -26.7359   22.1235 H   0  0  0  0  0  0
  -19.6939  -25.6253   21.1305 H   0  0  0  0  0  0
  -19.6734  -27.3129   20.6711 H   0  0  0  0  0  0
  -17.4238  -26.6698   21.4018 H   0  0  0  0  0  0
  -18.0350  -26.0117   22.9032 H   0  0  0  0  0  0
  -19.7996  -30.7357   24.2141 H   0  0  0  0  0  0
  -17.5057  -31.6277   24.5169 H   0  0  0  0  0  0
  -15.5393  -30.2959   23.7730 H   0  0  0  0  0  0
  -15.8727  -28.0799   22.7134 H   0  0  0  0  0  0
  -24.5864  -30.7157   25.7564 H   0  0  0  0  0  0
  -24.8798  -32.3077   26.4447 H   0  0  0  0  0  0
  -25.7787  -30.9166   27.0211 H   0  0  0  0  0  0
  -26.3322  -29.6367   24.1707 H   0  0  0  0  0  0
  -27.3956  -29.7311   25.5496 H   0  0  0  0  0  0
  -27.9321  -30.3889   24.0282 H   0  0  0  0  0  0
  -27.2559  -33.3771   26.1822 H   0  0  0  0  0  0
  -28.3980  -32.6797   25.0431 H   0  0  0  0  0  0
  -28.0562  -31.8688   26.5639 H   0  0  0  0  0  0
  -28.2533  -38.0049   24.7519 H   0  0  0  0  0  0
  -28.1099  -36.2570   24.6287 H   0  0  0  0  0  0
  -27.2274  -37.1338   25.8867 H   0  0  0  0  0  0
  -20.9803  -29.8645   21.6440 H   0  0  0  0  0  0
  -26.0078  -38.2664   24.1428 H   0  0  0  0  0  0
  -27.6686  -21.9491   19.9985 H   0  0  0  0  0  0
  -26.8935  -23.5756   20.0990 H   0  0  0  0  0  0
  -30.5280  -19.3286   20.1496 H   0  0  0  0  0  0
  -28.4096  -17.0461   20.4565 H   0  0  0  0  0  0
  1 25  1  0  0  0
  1 30  2  0  0  0
  1 75  1  0  0  0
  2  3  1  0  0  0
  2 25  1  0  0  0
  2 77  1  0  0  0
  2 78  1  0  0  0
  3  4  1  0  0  0
  3 79  1  0  0  0
  3 80  1  0  0  0
  4  5  1  0  0  0
  4 81  1  0  0  0
  4 82  1  0  0  0
  5  6  1  0  0  0
  5 26  1  0  0  0
  5 83  1  0  0  0
  6 25  1  0  0  0
  6 84  1  0  0  0
  6 85  1  0  0  0
  7  8  2  0  0  0
  7 26  1  0  0  0
  7 29  1  0  0  0
  8  9  1  0  0  0
  8 22  1  0  0  0
  9 10  1  0  0  0
  9 27  2  0  0  0
 10 11  2  0  0  0
 10 15  1  0  0  0
 11 12  1  0  0  0
 11 86  1  0  0  0
 12 13  2  0  0  0
 12 87  1  0  0  0
 13 14  1  0  0  0
 13 31  1  0  0  0
 14 15  2  0  0  0
 14 88  1  0  0  0
 15 89  1  0  0  0
 16 17  2  0  0  0
 16 21  1  0  0  0
 16 31  1  0  0  0
 17 18  1  0  0  0
 17 90  1  0  0  0
 18 19  2  0  0  0
 18 91  1  0  0  0
 19 20  1  0  0  0
 19 24  1  0  0  0
 20 21  2  0  0  0
 20 92  1  0  0  0
 21 23  1  0  0  0
 22 28  1  0  0  0
 22 32  2  0  0  0
 26 27  1  0  0  0
 28 93  1  0  0  0
 28 94  1  0  0  0
 29 95  1  0  0  0
 29 96  1  0  0  0
 33 34  1  0  0  0
 33 66  1  0  0  0
 33 70  2  0  0  0
 34 36  1  0  0  0
 34 59  1  0  0  0
 34 97  1  0  0  0
 35 44  2  0  0  0
 35 45  1  0  0  0
 35 68  1  0  0  0
 36 56  1  0  0  0
 36 98  1  0  0  0
 37 39  1  0  0  0
 37 47  1  0  0  0
 37 66  1  0  0  0
 37 99  1  0  0  0
 38 43  2  0  0  0
 38 46  1  0  0  0
 38 47  1  0  0  0
 39 64  1  0  0  0
 39 67  2  0  0  0
 40 52  1  0  0  0
 40 53  2  0  0  0
 40 58  1  0  0  0
 41100  1  0  0  0
 41101  1  0  0  0
 41102  1  0  0  0
 41 48  1  0  0  0
 42 43  1  0  0  0
 42 66  1  0  0  0
 42103  1  0  0  0
 42104  1  0  0  0
 43 44  1  0  0  0
 44105  1  0  0  0
 45 46  2  0  0  0
 45106  1  0  0  0
 46107  1  0  0  0
 47108  1  0  0  0
 47109  1  0  0  0
 48 56  1  0  0  0
 48 65  1  0  0  0
 48110  1  0  0  0
 49 50  1  0  0  0
 49 53  1  0  0  0
 49 64  1  0  0  0
 49111  1  0  0  0
 50 51  1  0  0  0
 50112  1  0  0  0
 50113  1  0  0  0
 51 52  1  0  0  0
 51114  1  0  0  0
 51115  1  0  0  0
 52116  1  0  0  0
 52117  1  0  0  0
 53 54  1  0  0  0
 54 55  2  0  0  0
 54118  1  0  0  0
 55 57  1  0  0  0
 55119  1  0  0  0
 56 69  2  0  0  0
 57 58  2  0  0  0
 57120  1  0  0  0
 58121  1  0  0  0
 59 60  1  0  0  0
 59 61  1  0  0  0
 59 62  1  0  0  0
 60122  1  0  0  0
 60123  1  0  0  0
 60124  1  0  0  0
 61125  1  0  0  0
 61126  1  0  0  0
 61127  1  0  0  0
 62128  1  0  0  0
 62129  1  0  0  0
 62130  1  0  0  0
 63 65  1  0  0  0
 63131  1  0  0  0
 63132  1  0  0  0
 63133  1  0  0  0
 64134  1  0  0  0
 65135  1  0  0  0
 68 72  1  0  0  0
 71 72  2  0  0  0
 71 73  1  0  0  0
 71136  1  0  0  0
 72137  1  0  0  0
 73 74  1  0  0  0
 73 76  2  0  0  0
 74 75  1  0  0  0
 74138  1  0  0  0
 75139  1  0  0  0
M  ISO  4   1 100  68 101  72 101  75 100
M  END
> <chiral flag>
0

> <version>
0

> <s_m_source_file>
/data/baiqing/PycharmProjects/Reinvent-master-3.2/result/LINK_invent/BTK/process_docking_weight1_custom_product_contain_oxygen_bond_distance_aromatic_linkinvent_7_9_3/rearranged_h_0072.sdf

> <i_m_source_file_index>
35

> <r_mmod_Potential_Energy-OPLS-2005>
3225.56518554688

> <r_mmod_Stretch_Energy-OPLS-2005>
1406.36083984375

> <r_mmod_Bend_Energy-OPLS-2005>
912.536315917969

> <r_mmod_Torsional_Energy-OPLS-2005>
208.131805419922

> <r_mmod_Improper_Torsional_Energy-OPLS-2005>
5.86091470718384

> <r_mmod_Van_der_Waal_Energy-OPLS-2005>
127.074180603027

> <r_mmod_Electrostatic_Energy-OPLS-2005>
-432.959075927734

> <r_mmod_Solvation_Energy-OPLS-2005>
-230.877075195312

> <b_mmod_Minimization_Converged-OPLS-2005>
1

> <r_mmod_RMS_Derivative-OPLS-2005>
0.0393111295998096

$$$$
35
                    3D
 Structure written by MMmdl.
163172  0  0  1  0            999 V2000
  -30.5836  -14.5827   20.5401 C   0  0  0  0  0  0
  -30.4528  -12.3687   19.4160 C   0  0  0  0  0  0
  -29.5031  -12.5060   18.2031 C   0  0  0  0  0  0
  -28.0240  -12.3421   18.6173 C   0  0  0  0  0  0
  -27.6564  -13.1880   19.8634 C   0  0  2  0  0  0
  -28.7052  -12.9775   20.9790 C   0  0  0  0  0  0
  -25.2602  -13.8081   20.5609 C   0  0  0  0  0  0
  -24.1844  -13.0414   20.9190 C   0  0  0  0  0  0
  -24.6368  -11.6869   20.8752 C   0  0  0  0  0  0
  -23.9025  -10.4276   21.0421 C   0  0  0  0  0  0
  -24.3591   -9.4204   21.9199 C   0  0  0  0  0  0
  -23.6277   -8.2243   22.0772 C   0  0  0  0  0  0
  -22.4267   -8.0271   21.3550 C   0  0  0  0  0  0
  -21.9883   -9.0240   20.4662 C   0  0  0  0  0  0
  -22.7197  -10.2123   20.3072 C   0  0  0  0  0  0
  -21.6853   -6.0729   22.5259 C   0  0  0  0  0  0
  -21.4020   -6.5641   23.8189 C   0  0  0  0  0  0
  -21.3653   -5.6797   24.9153 C   0  0  0  0  0  0
  -21.6043   -4.3059   24.7206 C   0  0  0  0  0  0
  -21.8825   -3.8147   23.4328 C   0  0  0  0  0  0
  -21.9198   -4.6962   22.3386 C   0  0  0  0  0  0
  -22.7877  -13.5256   21.1824 C   0  0  0  0  0  0
  -22.1670   -4.2151   21.0965 F   0  0  0  0  0  0
  -21.5619   -3.4536   25.7720 F   0  0  0  0  0  0
  -30.0199  -13.3456   20.4272 N   0  0  0  0  0  0
  -26.2995  -12.9202   20.3298 N   0  0  0  0  0  0
  -25.9284  -11.6399   20.5767 N   0  0  0  0  0  0
  -22.0496  -12.8293   22.0397 N   0  0  0  0  0  0
  -25.4344  -15.1772   20.3854 N   0  0  0  0  0  0
  -31.7510  -14.8200   20.2083 O   0  0  0  0  0  0
  -21.6642   -6.8860   21.4225 O   0  0  0  0  0  0
  -22.3600  -14.5560   20.6642 O   0  0  0  0  0  0
  -24.6180  -31.8620   23.2014 C   0  0  0  0  0  0
  -25.9044  -32.4794   23.8332 C   0  0  1  0  0  0
  -27.2461  -27.3836   20.1178 C   0  0  0  0  0  0
  -25.5898  -33.8592   24.2273 N   0  0  0  0  0  0
  -23.4113  -30.4819   21.5402 C   0  0  2  0  0  0
  -24.8617  -28.9341   20.1166 C   0  0  0  0  0  0
  -22.7439  -29.4622   22.4930 C   0  0  0  0  0  0
  -18.0270  -28.1368   22.8482 C   0  0  0  0  0  0
  -24.1493  -36.7294   23.2636 C   0  0  0  0  0  0
  -25.9427  -30.8162   21.3569 C   0  0  0  0  0  0
  -26.0253  -29.4452   20.7069 C   0  0  0  0  0  0
  -27.2193  -28.6829   20.6933 C   0  0  0  0  0  0
  -26.0620  -26.8939   19.5250 C   0  0  0  0  0  0
  -24.8795  -27.6619   19.5189 C   0  0  0  0  0  0
  -23.6247  -29.8051   20.1587 C   0  0  0  0  0  0
  -25.4116  -36.3098   24.0342 C   0  0  1  0  0  0
  -20.5877  -28.3658   23.1284 C   0  0  2  0  0  0
  -20.6762  -26.9380   22.5407 C   0  0  0  0  0  0
  -19.5757  -26.6377   21.5189 C   0  0  0  0  0  0
  -18.1936  -26.7917   22.1603 C   0  0  0  0  0  0
  -19.1527  -28.8828   23.2880 C   0  0  0  0  0  0
  -18.9458  -30.1430   23.8894 C   0  0  0  0  0  0
  -17.6470  -30.6581   24.0575 C   0  0  0  0  0  0
  -25.9045  -34.9460   23.5120 C   0  0  0  0  0  0
  -16.5355  -29.9102   23.6324 C   0  0  0  0  0  0
  -16.7261  -28.6511   23.0355 C   0  0  0  0  0  0
  -26.4467  -31.6586   25.0679 C   0  0  0  0  0  0
  -25.3738  -31.3719   26.1438 C   0  0  0  0  0  0
  -27.0285  -30.3029   24.6057 C   0  0  0  0  0  0
  -27.6023  -32.4314   25.7454 C   0  0  0  0  0  0
  -27.5577  -37.1801   24.8463 C   0  0  0  0  0  0
  -21.4153  -29.3031   22.3694 N   0  0  0  0  0  0
  -26.4289  -37.3789   23.9408 N   0  0  0  0  0  0
  -24.6754  -31.0694   22.0911 N   0  0  0  0  0  0
  -23.4180  -28.8172   23.3001 O   0  0  0  0  0  0
  -28.4182  -26.6425   20.0902 O   0  0  0  0  0  0
  -26.5618  -34.8926   22.4685 O   0  0  0  0  0  0
  -23.5360  -32.1372   23.7382 O   0  0  0  0  0  0
  -29.0972  -19.3717   22.4978 C   0  0  0  0  0  0
  -29.7835  -18.0636   20.5636 C   0  0  0  0  0  0
  -28.9875  -18.1924   23.2641 C   0  0  0  0  0  0
  -29.4780  -19.3424   21.1395 C   0  0  0  0  0  0
  -29.6682  -16.8558   21.3213 C   0  0  0  0  0  0
  -29.2304  -16.9302   22.6649 C   0  0  0  0  0  0
  -30.1210  -22.3197   19.0417 C   0  0  0  0  0  0
  -29.0719  -22.8061   19.7118 C   0  0  0  0  0  0
  -30.4220  -20.9646   19.4744 C   0  0  0  0  0  0
  -28.5907  -21.7452   20.6837 C   0  0  0  0  0  0
  -28.5890  -18.3218   24.7260 C   0  0  0  0  0  0
  -27.6675  -15.4972   23.7204 C   0  0  0  0  0  0
  -28.3695  -24.1633   19.4351 C   0  0  0  0  0  0
  -28.4094  -25.2594   20.5480 C   0  0  0  0  0  0
  -29.5055  -20.6034   20.4100 N   0  0  0  0  0  0
  -29.6457  -15.5494   20.7214 N   0  0  0  0  0  0
  -31.3528  -20.2642   19.0663 O   0  0  0  0  0  0
  -29.0211  -15.7510   23.3448 O   0  0  0  0  0  0
  -31.4866  -12.5360   19.1094 H   0  0  0  0  0  0
  -30.4173  -11.3580   19.8264 H   0  0  0  0  0  0
  -29.7592  -11.7696   17.4408 H   0  0  0  0  0  0
  -29.6410  -13.4834   17.7383 H   0  0  0  0  0  0
  -27.8502  -11.2850   18.8248 H   0  0  0  0  0  0
  -27.3678  -12.5991   17.7845 H   0  0  0  0  0  0
  -27.6829  -14.2281   19.5412 H   0  0  0  0  0  0
  -28.7151  -11.9366   21.3049 H   0  0  0  0  0  0
  -28.4613  -13.5573   21.8646 H   0  0  0  0  0  0
  -25.2734   -9.5694   22.4766 H   0  0  0  0  0  0
  -23.9982   -7.4648   22.7505 H   0  0  0  0  0  0
  -21.0810   -8.8753   19.8978 H   0  0  0  0  0  0
  -22.3649  -10.9664   19.6188 H   0  0  0  0  0  0
  -21.2025   -7.6152   23.9685 H   0  0  0  0  0  0
  -21.1467   -6.0530   25.9051 H   0  0  0  0  0  0
  -22.0614   -2.7608   23.2816 H   0  0  0  0  0  0
  -22.4071  -11.9941   22.4787 H   0  0  0  0  0  0
  -21.1130  -13.1371   22.2591 H   0  0  0  0  0  0
  -24.6299  -15.7939   20.3865 H   0  0  0  0  0  0
  -26.2219  -15.5656   19.8823 H   0  0  0  0  0  0
  -26.7120  -32.5472   23.1083 H   0  0  0  0  0  0
  -25.0124  -33.9743   25.0474 H   0  0  0  0  0  0
  -22.7015  -31.2983   21.3928 H   0  0  0  0  0  0
  -23.3760  -35.9618   23.3335 H   0  0  0  0  0  0
  -24.3621  -36.8880   22.2049 H   0  0  0  0  0  0
  -23.7235  -37.6499   23.6640 H   0  0  0  0  0  0
  -26.0577  -31.5805   20.5870 H   0  0  0  0  0  0
  -26.8263  -30.8696   21.9787 H   0  0  0  0  0  0
  -28.1192  -29.0834   21.1372 H   0  0  0  0  0  0
  -26.0540  -25.9189   19.0589 H   0  0  0  0  0  0
  -23.9894  -27.2643   19.0536 H   0  0  0  0  0  0
  -23.7338  -30.5726   19.3909 H   0  0  0  0  0  0
  -22.7502  -29.2214   19.8646 H   0  0  0  0  0  0
  -25.1298  -36.1956   25.0837 H   0  0  0  0  0  0
  -20.9942  -28.3201   24.1416 H   0  0  0  0  0  0
  -20.5634  -26.2246   23.3607 H   0  0  0  0  0  0
  -21.6646  -26.7420   22.1218 H   0  0  0  0  0  0
  -19.6949  -25.6291   21.1222 H   0  0  0  0  0  0
  -19.6716  -27.3189   20.6741 H   0  0  0  0  0  0
  -17.4212  -26.6641   21.4007 H   0  0  0  0  0  0
  -18.0337  -26.0050   22.8991 H   0  0  0  0  0  0
  -19.7941  -30.7229   24.2259 H   0  0  0  0  0  0
  -17.5045  -31.6257   24.5183 H   0  0  0  0  0  0
  -15.5360  -30.3031   23.7640 H   0  0  0  0  0  0
  -15.8658  -28.0847   22.7079 H   0  0  0  0  0  0
  -24.5912  -30.7068   25.7798 H   0  0  0  0  0  0
  -24.8931  -32.2884   26.4846 H   0  0  0  0  0  0
  -25.8088  -30.8928   27.0216 H   0  0  0  0  0  0
  -26.2823  -29.6807   24.1105 H   0  0  0  0  0  0
  -27.4067  -29.7241   25.4486 H   0  0  0  0  0  0
  -27.8654  -30.4360   23.9205 H   0  0  0  0  0  0
  -27.2627  -33.3609   26.2021 H   0  0  0  0  0  0
  -28.3827  -32.6874   25.0292 H   0  0  0  0  0  0
  -28.0689  -31.8457   26.5377 H   0  0  0  0  0  0
  -28.2596  -38.0100   24.7531 H   0  0  0  0  0  0
  -28.1086  -36.2635   24.6271 H   0  0  0  0  0  0
  -27.2315  -37.1412   25.8874 H   0  0  0  0  0  0
  -20.9306  -29.8795   21.6967 H   0  0  0  0  0  0
  -26.0188  -38.2869   24.1427 H   0  0  0  0  0  0
  -28.8786  -20.3120   22.9793 H   0  0  0  0  0  0
  -30.0327  -17.9980   19.5131 H   0  0  0  0  0  0
  -30.6514  -22.8338   18.2524 H   0  0  0  0  0  0
  -27.5579  -21.4602   20.4732 H   0  0  0  0  0  0
  -28.6653  -22.1149   21.7059 H   0  0  0  0  0  0
  -28.9439  -19.2609   25.1540 H   0  0  0  0  0  0
  -29.0125  -17.5145   25.3240 H   0  0  0  0  0  0
  -27.5032  -18.2972   24.8270 H   0  0  0  0  0  0
  -27.4589  -14.4294   23.6654 H   0  0  0  0  0  0
  -26.9499  -16.0034   23.0724 H   0  0  0  0  0  0
  -27.4765  -15.7951   24.7502 H   0  0  0  0  0  0
  -27.3363  -23.9655   19.1443 H   0  0  0  0  0  0
  -28.8407  -24.5819   18.5453 H   0  0  0  0  0  0
  -29.3401  -25.1390   21.1049 H   0  0  0  0  0  0
  -27.6150  -25.0907   21.2763 H   0  0  0  0  0  0
  -28.7511  -15.1028   20.8430 H   0  0  0  0  0  0
  1 25  1  0  0  0
  1 30  2  0  0  0
  1 86  1  0  0  0
  2  3  1  0  0  0
  2 25  1  0  0  0
  2 89  1  0  0  0
  2 90  1  0  0  0
  3  4  1  0  0  0
  3 91  1  0  0  0
  3 92  1  0  0  0
  4  5  1  0  0  0
  4 93  1  0  0  0
  4 94  1  0  0  0
  5  6  1  0  0  0
  5 26  1  0  0  0
  5 95  1  0  0  0
  6 25  1  0  0  0
  6 96  1  0  0  0
  6 97  1  0  0  0
  7  8  2  0  0  0
  7 26  1  0  0  0
  7 29  1  0  0  0
  8  9  1  0  0  0
  8 22  1  0  0  0
  9 10  1  0  0  0
  9 27  2  0  0  0
 10 11  2  0  0  0
 10 15  1  0  0  0
 11 12  1  0  0  0
 11 98  1  0  0  0
 12 13  2  0  0  0
 12 99  1  0  0  0
 13 14  1  0  0  0
 13 31  1  0  0  0
 14 15  2  0  0  0
 14100  1  0  0  0
 15101  1  0  0  0
 16 17  2  0  0  0
 16 21  1  0  0  0
 16 31  1  0  0  0
 17 18  1  0  0  0
 17102  1  0  0  0
 18 19  2  0  0  0
 18103  1  0  0  0
 19 20  1  0  0  0
 19 24  1  0  0  0
 20 21  2  0  0  0
 20104  1  0  0  0
 21 23  1  0  0  0
 22 28  1  0  0  0
 22 32  2  0  0  0
 26 27  1  0  0  0
 28105  1  0  0  0
 28106  1  0  0  0
 29107  1  0  0  0
 29108  1  0  0  0
 33 34  1  0  0  0
 33 66  1  0  0  0
 33 70  2  0  0  0
 34 36  1  0  0  0
 34 59  1  0  0  0
 34109  1  0  0  0
 35 44  2  0  0  0
 35 45  1  0  0  0
 35 68  1  0  0  0
 36 56  1  0  0  0
 36110  1  0  0  0
 37 39  1  0  0  0
 37 47  1  0  0  0
 37 66  1  0  0  0
 37111  1  0  0  0
 38 43  2  0  0  0
 38 46  1  0  0  0
 38 47  1  0  0  0
 39 64  1  0  0  0
 39 67  2  0  0  0
 40 52  1  0  0  0
 40 53  2  0  0  0
 40 58  1  0  0  0
 41112  1  0  0  0
 41113  1  0  0  0
 41114  1  0  0  0
 41 48  1  0  0  0
 42 43  1  0  0  0
 42 66  1  0  0  0
 42115  1  0  0  0
 42116  1  0  0  0
 43 44  1  0  0  0
 44117  1  0  0  0
 45 46  2  0  0  0
 45118  1  0  0  0
 46119  1  0  0  0
 47120  1  0  0  0
 47121  1  0  0  0
 48 56  1  0  0  0
 48 65  1  0  0  0
 48122  1  0  0  0
 49 50  1  0  0  0
 49 53  1  0  0  0
 49 64  1  0  0  0
 49123  1  0  0  0
 50 51  1  0  0  0
 50124  1  0  0  0
 50125  1  0  0  0
 51 52  1  0  0  0
 51126  1  0  0  0
 51127  1  0  0  0
 52128  1  0  0  0
 52129  1  0  0  0
 53 54  1  0  0  0
 54 55  2  0  0  0
 54130  1  0  0  0
 55 57  1  0  0  0
 55131  1  0  0  0
 56 69  2  0  0  0
 57 58  2  0  0  0
 57132  1  0  0  0
 58133  1  0  0  0
 59 60  1  0  0  0
 59 61  1  0  0  0
 59 62  1  0  0  0
 60134  1  0  0  0
 60135  1  0  0  0
 60136  1  0  0  0
 61137  1  0  0  0
 61138  1  0  0  0
 61139  1  0  0  0
 62140  1  0  0  0
 62141  1  0  0  0
 62142  1  0  0  0
 63 65  1  0  0  0
 63143  1  0  0  0
 63144  1  0  0  0
 63145  1  0  0  0
 64146  1  0  0  0
 65147  1  0  0  0
 68 84  1  0  0  0
 71 73  2  0  0  0
 71 74  1  0  0  0
 71148  1  0  0  0
 72 74  2  0  0  0
 72 75  1  0  0  0
 72149  1  0  0  0
 73 76  1  0  0  0
 73 81  1  0  0  0
 74 85  1  0  0  0
 75 76  2  0  0  0
 75 86  1  0  0  0
 76 88  1  0  0  0
 77 78  2  0  0  0
 77 79  1  0  0  0
 77150  1  0  0  0
 78 80  1  0  0  0
 78 83  1  0  0  0
 79 85  1  0  0  0
 79 87  2  0  0  0
 80 85  1  0  0  0
 80151  1  0  0  0
 80152  1  0  0  0
 81153  1  0  0  0
 81154  1  0  0  0
 81155  1  0  0  0
 82 88  1  0  0  0
 82156  1  0  0  0
 82157  1  0  0  0
 82158  1  0  0  0
 83 84  1  0  0  0
 83159  1  0  0  0
 83160  1  0  0  0
 84161  1  0  0  0
 84162  1  0  0  0
 86163  1  0  0  0
M  ISO  4   1 100  68 101  84 101  86 100
M  END
> <chiral flag>
0

> <version>
0

> <s_m_source_file>
/data/baiqing/PycharmProjects/Reinvent-master-3.2/result/LINK_invent/BTK/process_docking_weight1_custom_product_contain_oxygen_bond_distance_aromatic_linkinvent_7_9_3/rearranged_h_0072.sdf

> <i_m_source_file_index>
36

> <r_mmod_Potential_Energy-OPLS-2005>
131.437606811523

> <r_mmod_Stretch_Energy-OPLS-2005>
56.3013916015625

> <r_mmod_Bend_Energy-OPLS-2005>
174.802841186523

> <r_mmod_Torsional_Energy-OPLS-2005>
335.235015869141

> <r_mmod_Improper_Torsional_Energy-OPLS-2005>
15.3368825912476

> <r_mmod_Van_der_Waal_Energy-OPLS-2005>
136.137969970703

> <r_mmod_Electrostatic_Energy-OPLS-2005>
-389.086883544922

> <r_mmod_Solvation_Energy-OPLS-2005>
-227.604858398438

> <b_mmod_Minimization_Converged-OPLS-2005>
0

> <r_mmod_RMS_Derivative-OPLS-2005>
3.58286666870117

$$$$
36
                    3D
 Structure written by MMmdl.
162170  0  0  1  0            999 V2000
  -30.6017  -14.6714   20.4863 C   0  0  0  0  0  0
  -30.4441  -12.4116   19.4511 C   0  0  0  0  0  0
  -29.5087  -12.5088   18.2243 C   0  0  0  0  0  0
  -28.0319  -12.3412   18.6378 C   0  0  0  0  0  0
  -27.6503  -13.2171   19.8610 C   0  0  2  0  0  0
  -28.6983  -13.0823   20.9892 C   0  0  0  0  0  0
  -25.2535  -13.8150   20.5689 C   0  0  0  0  0  0
  -24.1809  -13.0407   20.9169 C   0  0  0  0  0  0
  -24.6396  -11.6888   20.8729 C   0  0  0  0  0  0
  -23.9069  -10.4278   21.0402 C   0  0  0  0  0  0
  -24.3621   -9.4196   21.9182 C   0  0  0  0  0  0
  -23.6293   -8.2235   22.0754 C   0  0  0  0  0  0
  -22.4274   -8.0275   21.3545 C   0  0  0  0  0  0
  -21.9910   -9.0247   20.4645 C   0  0  0  0  0  0
  -22.7241  -10.2124   20.3050 C   0  0  0  0  0  0
  -21.6851   -6.0732   22.5282 C   0  0  0  0  0  0
  -21.4014   -6.5637   23.8215 C   0  0  0  0  0  0
  -21.3660   -5.6790   24.9177 C   0  0  0  0  0  0
  -21.6044   -4.3053   24.7226 C   0  0  0  0  0  0
  -21.8821   -3.8145   23.4347 C   0  0  0  0  0  0
  -21.9195   -4.6962   22.3404 C   0  0  0  0  0  0
  -22.7836  -13.5202   21.1845 C   0  0  0  0  0  0
  -22.1661   -4.2150   21.0979 F   0  0  0  0  0  0
  -21.5631   -3.4536   25.7739 F   0  0  0  0  0  0
  -30.0098  -13.4351   20.4221 N   0  0  0  0  0  0
  -26.2978  -12.9345   20.3331 N   0  0  0  0  0  0
  -25.9329  -11.6495   20.5762 N   0  0  0  0  0  0
  -22.0493  -12.8194   22.0412 N   0  0  0  0  0  0
  -25.4151  -15.1878   20.4166 N   0  0  0  0  0  0
  -31.7741  -14.8390   20.1368 O   0  0  0  0  0  0
  -21.6636   -6.8876   21.4243 O   0  0  0  0  0  0
  -22.3510  -14.5514   20.6708 O   0  0  0  0  0  0
  -24.6259  -31.8590   23.2010 C   0  0  0  0  0  0
  -25.9107  -32.4773   23.8342 C   0  0  1  0  0  0
  -27.2268  -27.3147   20.1273 C   0  0  0  0  0  0
  -25.5919  -33.8574   24.2269 N   0  0  0  0  0  0
  -23.4199  -30.4805   21.5438 C   0  0  2  0  0  0
  -24.8670  -28.9288   20.1149 C   0  0  0  0  0  0
  -22.7470  -29.4621   22.4944 C   0  0  0  0  0  0
  -18.0284  -28.1388   22.8489 C   0  0  0  0  0  0
  -24.1488  -36.7294   23.2641 C   0  0  0  0  0  0
  -25.9595  -30.7890   21.3711 C   0  0  0  0  0  0
  -26.0345  -29.4138   20.7175 C   0  0  0  0  0  0
  -27.2187  -28.6197   20.7090 C   0  0  0  0  0  0
  -26.0399  -26.8792   19.5000 C   0  0  0  0  0  0
  -24.8715  -27.6674   19.4964 C   0  0  0  0  0  0
  -23.6348  -29.8103   20.1609 C   0  0  0  0  0  0
  -25.4116  -36.3085   24.0328 C   0  0  1  0  0  0
  -20.5882  -28.3692   23.1287 C   0  0  2  0  0  0
  -20.6771  -26.9415   22.5414 C   0  0  0  0  0  0
  -19.5747  -26.6387   21.5214 C   0  0  0  0  0  0
  -18.1927  -26.7931   22.1625 C   0  0  0  0  0  0
  -19.1536  -28.8857   23.2881 C   0  0  0  0  0  0
  -18.9460  -30.1461   23.8895 C   0  0  0  0  0  0
  -17.6459  -30.6590   24.0566 C   0  0  0  0  0  0
  -25.9054  -34.9452   23.5103 C   0  0  0  0  0  0
  -16.5351  -29.9090   23.6330 C   0  0  0  0  0  0
  -16.7272  -28.6508   23.0351 C   0  0  0  0  0  0
  -26.4490  -31.6588   25.0716 C   0  0  0  0  0  0
  -25.3727  -31.3720   26.1445 C   0  0  0  0  0  0
  -27.0335  -30.3013   24.6169 C   0  0  0  0  0  0
  -27.6046  -32.4328   25.7488 C   0  0  0  0  0  0
  -27.5582  -37.1802   24.8464 C   0  0  0  0  0  0
  -21.4185  -29.3045   22.3684 N   0  0  0  0  0  0
  -26.4293  -37.3780   23.9410 N   0  0  0  0  0  0
  -24.6873  -31.0599   22.0957 N   0  0  0  0  0  0
  -23.4191  -28.8169   23.3032 O   0  0  0  0  0  0
  -28.3601  -26.4908   20.1360 O   0  0  0  0  0  0
  -26.5629  -34.8921   22.4674 O   0  0  0  0  0  0
  -23.5424  -32.1389   23.7338 O   0  0  0  0  0  0
  -30.9731  -19.3774   20.5980 C   0  0  0  0  0  0
  -31.0205  -17.9467   20.6185 C   0  0  0  0  0  0
  -28.5707  -19.3359   20.5791 C   0  0  0  0  0  0
  -29.7525  -20.1194   20.5957 C   0  0  0  0  0  0
  -29.8335  -17.1695   20.6472 C   0  0  0  0  0  0
  -28.6163  -17.9074   20.6130 C   0  0  0  0  0  0
  -29.7691  -21.6375   20.6898 C   0  0  0  0  0  0
  -31.5612  -23.7979   18.6756 C   0  0  0  0  0  0
  -28.5663  -24.1462   18.1512 C   0  0  0  0  0  0
  -30.5772  -24.5318   19.6070 C   0  0  0  0  0  0
  -28.2322  -25.0433   20.4611 C   0  0  0  0  0  0
  -29.1059  -24.0221   19.5909 C   0  0  1  0  0  0
  -30.6224  -22.1550   21.5689 N   0  0  0  0  0  0
  -29.7511  -15.7098   20.7641 N   0  0  0  0  0  0
  -29.0211  -22.5206   19.9426 N   0  3  0  0  0  0
  -27.4508  -17.2171   20.6274 F   0  0  0  0  0  0
  -31.4827  -12.5507   19.1448 H   0  0  0  0  0  0
  -30.3927  -11.4186   19.9001 H   0  0  0  0  0  0
  -29.7766  -11.7529   17.4845 H   0  0  0  0  0  0
  -29.6440  -13.4745   17.7350 H   0  0  0  0  0  0
  -27.8742  -11.2884   18.8748 H   0  0  0  0  0  0
  -27.3765  -12.5632   17.7949 H   0  0  0  0  0  0
  -27.6586  -14.2494   19.5109 H   0  0  0  0  0  0
  -28.7183  -12.0619   21.3752 H   0  0  0  0  0  0
  -28.4418  -13.7162   21.8395 H   0  0  0  0  0  0
  -25.2770   -9.5668   22.4750 H   0  0  0  0  0  0
  -24.0001   -7.4626   22.7471 H   0  0  0  0  0  0
  -21.0843   -8.8766   19.8949 H   0  0  0  0  0  0
  -22.3707  -10.9660   19.6155 H   0  0  0  0  0  0
  -21.2001   -7.6146   23.9715 H   0  0  0  0  0  0
  -21.1480   -6.0523   25.9080 H   0  0  0  0  0  0
  -22.0600   -2.7607   23.2848 H   0  0  0  0  0  0
  -22.4118  -11.9853   22.4786 H   0  0  0  0  0  0
  -21.1112  -13.1213   22.2634 H   0  0  0  0  0  0
  -24.6439  -15.8292   20.5600 H   0  0  0  0  0  0
  -26.2768  -15.6700   20.1880 H   0  0  0  0  0  0
  -26.7175  -32.5442   23.1091 H   0  0  0  0  0  0
  -25.0048  -33.9714   25.0402 H   0  0  0  0  0  0
  -22.7142  -31.3008   21.3984 H   0  0  0  0  0  0
  -23.3753  -35.9624   23.3298 H   0  0  0  0  0  0
  -24.3576  -36.8924   22.2056 H   0  0  0  0  0  0
  -23.7236  -37.6493   23.6666 H   0  0  0  0  0  0
  -26.0890  -31.5508   20.6010 H   0  0  0  0  0  0
  -26.8405  -30.8402   21.9993 H   0  0  0  0  0  0
  -28.1184  -28.9913   21.1789 H   0  0  0  0  0  0
  -26.0058  -25.9194   19.0057 H   0  0  0  0  0  0
  -23.9777  -27.2929   19.0165 H   0  0  0  0  0  0
  -23.7542  -30.5843   19.4020 H   0  0  0  0  0  0
  -22.7544  -29.2397   19.8598 H   0  0  0  0  0  0
  -25.1297  -36.1936   25.0821 H   0  0  0  0  0  0
  -20.9971  -28.3267   24.1409 H   0  0  0  0  0  0
  -20.5672  -26.2304   23.3614 H   0  0  0  0  0  0
  -21.6640  -26.7444   22.1209 H   0  0  0  0  0  0
  -19.6909  -25.6298   21.1245 H   0  0  0  0  0  0
  -19.6684  -27.3198   20.6744 H   0  0  0  0  0  0
  -17.4197  -26.6684   21.4026 H   0  0  0  0  0  0
  -18.0324  -26.0072   22.9020 H   0  0  0  0  0  0
  -19.7936  -30.7279   24.2261 H   0  0  0  0  0  0
  -17.5014  -31.6267   24.5176 H   0  0  0  0  0  0
  -15.5352  -30.2993   23.7653 H   0  0  0  0  0  0
  -15.8673  -28.0830   22.7062 H   0  0  0  0  0  0
  -24.5890  -30.7084   25.7768 H   0  0  0  0  0  0
  -24.8932  -32.2885   26.4893 H   0  0  0  0  0  0
  -25.8052  -30.8874   27.0207 H   0  0  0  0  0  0
  -26.2906  -29.6763   24.1198 H   0  0  0  0  0  0
  -27.4040  -29.7268   25.4670 H   0  0  0  0  0  0
  -27.8771  -30.4304   23.9384 H   0  0  0  0  0  0
  -27.2646  -33.3616   26.2081 H   0  0  0  0  0  0
  -28.3845  -32.6914   25.0314 H   0  0  0  0  0  0
  -28.0730  -31.8451   26.5394 H   0  0  0  0  0  0
  -28.2597  -38.0102   24.7520 H   0  0  0  0  0  0
  -28.1081  -36.2633   24.6279 H   0  0  0  0  0  0
  -27.2298  -37.1444   25.8866 H   0  0  0  0  0  0
  -20.9366  -29.8768   21.6892 H   0  0  0  0  0  0
  -26.0174  -38.2856   24.1412 H   0  0  0  0  0  0
  -31.9111  -19.9159   20.6033 H   0  0  0  0  0  0
  -31.9827  -17.4558   20.6432 H   0  0  0  0  0  0
  -27.6076  -19.8243   20.5851 H   0  0  0  0  0  0
  -32.5619  -24.2191   18.7742 H   0  0  0  0  0  0
  -31.2761  -23.8985   17.6288 H   0  0  0  0  0  0
  -31.6358  -22.7354   18.8999 H   0  0  0  0  0  0
  -28.8055  -25.1184   17.7181 H   0  0  0  0  0  0
  -27.4812  -24.0437   18.1211 H   0  0  0  0  0  0
  -28.9788  -23.3845   17.4896 H   0  0  0  0  0  0
  -30.5856  -25.5809   19.3080 H   0  0  0  0  0  0
  -30.9665  -24.5478   20.6237 H   0  0  0  0  0  0
  -28.5370  -24.9430   21.5028 H   0  0  0  0  0  0
  -27.1923  -24.7185   20.4557 H   0  0  0  0  0  0
  -31.1458  -21.5367   22.1700 H   0  0  0  0  0  0
  -30.7044  -23.1455   21.7118 H   0  0  0  0  0  0
  -28.8175  -15.3938   20.9718 H   0  0  0  0  0  0
  -28.2688  -22.0581   19.4490 H   0  0  0  0  0  0
  1 25  1  0  0  0
  1 30  2  0  0  0
  1 84  1  0  0  0
  2  3  1  0  0  0
  2 25  1  0  0  0
  2 87  1  0  0  0
  2 88  1  0  0  0
  3  4  1  0  0  0
  3 89  1  0  0  0
  3 90  1  0  0  0
  4  5  1  0  0  0
  4 91  1  0  0  0
  4 92  1  0  0  0
  5  6  1  0  0  0
  5 26  1  0  0  0
  5 93  1  0  0  0
  6 25  1  0  0  0
  6 94  1  0  0  0
  6 95  1  0  0  0
  7  8  2  0  0  0
  7 26  1  0  0  0
  7 29  1  0  0  0
  8  9  1  0  0  0
  8 22  1  0  0  0
  9 10  1  0  0  0
  9 27  2  0  0  0
 10 11  2  0  0  0
 10 15  1  0  0  0
 11 12  1  0  0  0
 11 96  1  0  0  0
 12 13  2  0  0  0
 12 97  1  0  0  0
 13 14  1  0  0  0
 13 31  1  0  0  0
 14 15  2  0  0  0
 14 98  1  0  0  0
 15 99  1  0  0  0
 16 17  2  0  0  0
 16 21  1  0  0  0
 16 31  1  0  0  0
 17 18  1  0  0  0
 17100  1  0  0  0
 18 19  2  0  0  0
 18101  1  0  0  0
 19 20  1  0  0  0
 19 24  1  0  0  0
 20 21  2  0  0  0
 20102  1  0  0  0
 21 23  1  0  0  0
 22 28  1  0  0  0
 22 32  2  0  0  0
 26 27  1  0  0  0
 28103  1  0  0  0
 28104  1  0  0  0
 29105  1  0  0  0
 29106  1  0  0  0
 33 34  1  0  0  0
 33 66  1  0  0  0
 33 70  2  0  0  0
 34 36  1  0  0  0
 34 59  1  0  0  0
 34107  1  0  0  0
 35 44  2  0  0  0
 35 45  1  0  0  0
 35 68  1  0  0  0
 36 56  1  0  0  0
 36108  1  0  0  0
 37 39  1  0  0  0
 37 47  1  0  0  0
 37 66  1  0  0  0
 37109  1  0  0  0
 38 43  2  0  0  0
 38 46  1  0  0  0
 38 47  1  0  0  0
 39 64  1  0  0  0
 39 67  2  0  0  0
 40 52  1  0  0  0
 40 53  2  0  0  0
 40 58  1  0  0  0
 41110  1  0  0  0
 41111  1  0  0  0
 41112  1  0  0  0
 41 48  1  0  0  0
 42 43  1  0  0  0
 42 66  1  0  0  0
 42113  1  0  0  0
 42114  1  0  0  0
 43 44  1  0  0  0
 44115  1  0  0  0
 45 46  2  0  0  0
 45116  1  0  0  0
 46117  1  0  0  0
 47118  1  0  0  0
 47119  1  0  0  0
 48 56  1  0  0  0
 48 65  1  0  0  0
 48120  1  0  0  0
 49 50  1  0  0  0
 49 53  1  0  0  0
 49 64  1  0  0  0
 49121  1  0  0  0
 50 51  1  0  0  0
 50122  1  0  0  0
 50123  1  0  0  0
 51 52  1  0  0  0
 51124  1  0  0  0
 51125  1  0  0  0
 52126  1  0  0  0
 52127  1  0  0  0
 53 54  1  0  0  0
 54 55  2  0  0  0
 54128  1  0  0  0
 55 57  1  0  0  0
 55129  1  0  0  0
 56 69  2  0  0  0
 57 58  2  0  0  0
 57130  1  0  0  0
 58131  1  0  0  0
 59 60  1  0  0  0
 59 61  1  0  0  0
 59 62  1  0  0  0
 60132  1  0  0  0
 60133  1  0  0  0
 60134  1  0  0  0
 61135  1  0  0  0
 61136  1  0  0  0
 61137  1  0  0  0
 62138  1  0  0  0
 62139  1  0  0  0
 62140  1  0  0  0
 63 65  1  0  0  0
 63141  1  0  0  0
 63142  1  0  0  0
 63143  1  0  0  0
 64144  1  0  0  0
 65145  1  0  0  0
 68 81  1  0  0  0
 71 72  2  0  0  0
 71 74  1  0  0  0
 71146  1  0  0  0
 72 75  1  0  0  0
 72147  1  0  0  0
 73 74  2  0  0  0
 73 76  1  0  0  0
 73148  1  0  0  0
 74 77  1  0  0  0
 75 76  2  0  0  0
 75 84  1  0  0  0
 76 86  1  0  0  0
 77 83  1  0  0  0
 77 85  2  0  0  0
 78 80  1  0  0  0
 78149  1  0  0  0
 78150  1  0  0  0
 78151  1  0  0  0
 79152  1  0  0  0
 79153  1  0  0  0
 79154  1  0  0  0
 79 82  1  0  0  0
 80 82  1  0  0  0
 80155  1  0  0  0
 80156  1  0  0  0
 81 82  1  0  0  0
 81157  1  0  0  0
 81158  1  0  0  0
 82 85  1  0  0  0
 83159  1  0  0  0
 83160  1  0  0  0
 84161  1  0  0  0
 85162  1  0  0  0
M  CHG  1  85   1
M  ISO  4   1 100  68 101  81 101  84 100
M  END
> <chiral flag>
0

> <version>
0

> <s_m_source_file>
/data/baiqing/PycharmProjects/Reinvent-master-3.2/result/LINK_invent/BTK/process_docking_weight1_custom_product_contain_oxygen_bond_distance_aromatic_linkinvent_7_9_3/rearranged_h_0072.sdf

> <i_m_source_file_index>
37

> <r_mmod_Potential_Energy-OPLS-2005>
-202.779602050781

> <r_mmod_Stretch_Energy-OPLS-2005>
87.9195175170898

> <r_mmod_Bend_Energy-OPLS-2005>
162.817230224609

> <r_mmod_Torsional_Energy-OPLS-2005>
246.95263671875

> <r_mmod_Improper_Torsional_Energy-OPLS-2005>
5.04721450805664

> <r_mmod_Van_der_Waal_Energy-OPLS-2005>
144.026336669922

> <r_mmod_Electrostatic_Energy-OPLS-2005>
-497.48974609375

> <r_mmod_Solvation_Energy-OPLS-2005>
-405.297210693359

> <b_mmod_Minimization_Converged-OPLS-2005>
0

> <r_mmod_RMS_Derivative-OPLS-2005>
0.554365336894989

$$$$
37
                    3D
 Structure written by MMmdl.
167176  0  0  1  0            999 V2000
  -30.6751  -14.5033   20.6659 C   0  0  0  0  0  0
  -30.4228  -12.3566   19.4447 C   0  0  0  0  0  0
  -29.4964  -12.5173   18.2209 C   0  0  0  0  0  0
  -28.0169  -12.3571   18.6278 C   0  0  0  0  0  0
  -27.6519  -13.2050   19.8749 C   0  0  2  0  0  0
  -28.6798  -12.9919   21.0039 C   0  0  0  0  0  0
  -25.2548  -13.8171   20.5651 C   0  0  0  0  0  0
  -24.1778  -13.0446   20.9126 C   0  0  0  0  0  0
  -24.6323  -11.6913   20.8689 C   0  0  0  0  0  0
  -23.9001  -10.4287   21.0380 C   0  0  0  0  0  0
  -24.3566   -9.4209   21.9173 C   0  0  0  0  0  0
  -23.6241   -8.2251   22.0763 C   0  0  0  0  0  0
  -22.4242   -8.0264   21.3538 C   0  0  0  0  0  0
  -21.9857   -9.0224   20.4644 C   0  0  0  0  0  0
  -22.7170  -10.2104   20.3033 C   0  0  0  0  0  0
  -21.6867   -6.0702   22.5242 C   0  0  0  0  0  0
  -21.4015   -6.5622   23.8167 C   0  0  0  0  0  0
  -21.3645   -5.6786   24.9153 C   0  0  0  0  0  0
  -21.6055   -4.3041   24.7209 C   0  0  0  0  0  0
  -21.8819   -3.8122   23.4330 C   0  0  0  0  0  0
  -21.9186   -4.6927   22.3385 C   0  0  0  0  0  0
  -22.7816  -13.5231   21.1824 C   0  0  0  0  0  0
  -22.1666   -4.2116   21.0960 F   0  0  0  0  0  0
  -21.5622   -3.4523   25.7714 F   0  0  0  0  0  0
  -30.0074  -13.3324   20.4667 N   0  0  0  0  0  0
  -26.2939  -12.9301   20.3330 N   0  0  0  0  0  0
  -25.9239  -11.6482   20.5752 N   0  0  0  0  0  0
  -22.0464  -12.8211   22.0366 N   0  0  0  0  0  0
  -25.4369  -15.1886   20.4058 N   0  0  0  0  0  0
  -31.7689  -14.7151   20.1338 O   0  0  0  0  0  0
  -21.6636   -6.8842   21.4209 O   0  0  0  0  0  0
  -22.3489  -14.5539   20.6682 O   0  0  0  0  0  0
  -24.6187  -31.8618   23.2035 C   0  0  0  0  0  0
  -25.9045  -32.4801   23.8353 C   0  0  1  0  0  0
  -27.2297  -27.3575   20.1623 C   0  0  0  0  0  0
  -25.5877  -33.8609   24.2280 N   0  0  0  0  0  0
  -23.4135  -30.4847   21.5400 C   0  0  2  0  0  0
  -24.8676  -28.9347   20.1255 C   0  0  0  0  0  0
  -22.7438  -29.4636   22.4926 C   0  0  0  0  0  0
  -18.0303  -28.1385   22.8509 C   0  0  0  0  0  0
  -24.1498  -36.7262   23.2646 C   0  0  0  0  0  0
  -25.9467  -30.8071   21.3712 C   0  0  0  0  0  0
  -26.0232  -29.4275   20.7432 C   0  0  0  0  0  0
  -27.2110  -28.6407   20.7732 C   0  0  0  0  0  0
  -26.0620  -26.9084   19.5120 C   0  0  0  0  0  0
  -24.8797  -27.6737   19.5064 C   0  0  0  0  0  0
  -23.6324  -29.8082   20.1573 C   0  0  0  0  0  0
  -25.4094  -36.3045   24.0337 C   0  0  1  0  0  0
  -20.5899  -28.3645   23.1322 C   0  0  2  0  0  0
  -20.6798  -26.9381   22.5415 C   0  0  0  0  0  0
  -19.5771  -26.6382   21.5211 C   0  0  0  0  0  0
  -18.1947  -26.7968   22.1592 C   0  0  0  0  0  0
  -19.1560  -28.8817   23.2937 C   0  0  0  0  0  0
  -18.9503  -30.1451   23.8913 C   0  0  0  0  0  0
  -17.6496  -30.6594   24.0581 C   0  0  0  0  0  0
  -25.9002  -34.9452   23.5077 C   0  0  0  0  0  0
  -16.5358  -29.9109   23.6374 C   0  0  0  0  0  0
  -16.7290  -28.6535   23.0359 C   0  0  0  0  0  0
  -26.4460  -31.6604   25.0671 C   0  0  0  0  0  0
  -25.3712  -31.3747   26.1417 C   0  0  0  0  0  0
  -27.0290  -30.3028   24.6064 C   0  0  0  0  0  0
  -27.5993  -32.4312   25.7481 C   0  0  0  0  0  0
  -27.5559  -37.1766   24.8451 C   0  0  0  0  0  0
  -21.4139  -29.3020   22.3698 N   0  0  0  0  0  0
  -26.4274  -37.3754   23.9436 N   0  0  0  0  0  0
  -24.6756  -31.0658   22.0971 N   0  0  0  0  0  0
  -23.4196  -28.8207   23.3006 O   0  0  0  0  0  0
  -28.3428  -26.5343   20.0739 O   0  0  0  0  0  0
  -26.5577  -34.8910   22.4658 O   0  0  0  0  0  0
  -23.5341  -32.1399   23.7368 O   0  0  0  0  0  0
  -28.6129  -19.9119   22.8566 C   0  0  0  0  0  0
  -30.3999  -18.8789   20.9855 C   0  0  0  0  0  0
  -28.9085  -18.5250   22.8628 C   0  0  0  0  0  0
  -29.8888  -17.9929   21.9735 C   0  0  0  0  0  0
  -29.2450  -20.8271   21.9703 C   0  0  0  0  0  0
  -30.0933  -20.2662   20.9809 C   0  0  0  0  0  0
  -29.2724  -22.8680   23.3469 C   0  0  0  0  0  0
  -28.9563  -23.3116   21.1150 C   0  0  0  0  0  0
  -29.1656  -24.3902   23.2588 C   0  0  1  0  0  0
  -28.5541  -24.6361   21.8598 C   0  0  1  0  0  0
  -28.1874  -17.6620   23.8915 C   0  0  0  0  0  0
  -28.3730  -24.9754   24.4433 C   0  0  0  0  0  0
  -32.0934  -16.7407   22.1897 C   0  0  0  0  0  0
  -28.9962  -26.0342   21.2626 C   0  0  0  0  0  0
  -30.5582  -16.5986   22.1984 C   0  0  2  0  0  0
  -29.0891  -22.2657   22.1567 N   0  0  0  0  0  0
  -30.0457  -15.4111   21.4610 N   0  0  0  0  0  0
  -29.5051  -22.3034   24.4246 O   0  0  0  0  0  0
  -30.6888  -21.0642   20.0611 F   0  0  0  0  0  0
  -31.4648  -12.4904   19.1484 H   0  0  0  0  0  0
  -30.3589  -11.3472   19.8544 H   0  0  0  0  0  0
  -29.7610  -11.7896   17.4529 H   0  0  0  0  0  0
  -29.6411  -13.5012   17.7700 H   0  0  0  0  0  0
  -27.8449  -11.3001   18.8376 H   0  0  0  0  0  0
  -27.3661  -12.6143   17.7924 H   0  0  0  0  0  0
  -27.6974  -14.2523   19.5769 H   0  0  0  0  0  0
  -28.6735  -11.9518   21.3317 H   0  0  0  0  0  0
  -28.4057  -13.5703   21.8867 H   0  0  0  0  0  0
  -25.2725   -9.5687   22.4742 H   0  0  0  0  0  0
  -23.9942   -7.4651   22.7494 H   0  0  0  0  0  0
  -21.0805   -8.8699   19.8955 H   0  0  0  0  0  0
  -22.3616  -10.9618   19.6121 H   0  0  0  0  0  0
  -21.2019   -7.6136   23.9646 H   0  0  0  0  0  0
  -21.1484   -6.0539   25.9046 H   0  0  0  0  0  0
  -22.0621   -2.7585   23.2835 H   0  0  0  0  0  0
  -22.4078  -11.9833   22.4697 H   0  0  0  0  0  0
  -21.1100  -13.1257   22.2634 H   0  0  0  0  0  0
  -24.6884  -15.8628   20.5079 H   0  0  0  0  0  0
  -26.3028  -15.6116   20.0946 H   0  0  0  0  0  0
  -26.7095  -32.5471   23.1083 H   0  0  0  0  0  0
  -25.0070  -33.9798   25.0440 H   0  0  0  0  0  0
  -22.7062  -31.3022   21.3851 H   0  0  0  0  0  0
  -23.3768  -35.9563   23.3249 H   0  0  0  0  0  0
  -24.3626  -36.8920   22.2073 H   0  0  0  0  0  0
  -23.7226  -37.6433   23.6703 H   0  0  0  0  0  0
  -26.0558  -31.5633   20.5901 H   0  0  0  0  0  0
  -26.8355  -30.8733   21.9854 H   0  0  0  0  0  0
  -28.1027  -29.0164   21.2544 H   0  0  0  0  0  0
  -26.0638  -25.9440   19.0221 H   0  0  0  0  0  0
  -23.9904  -27.2946   19.0204 H   0  0  0  0  0  0
  -23.7487  -30.5762   19.3902 H   0  0  0  0  0  0
  -22.7633  -29.2213   19.8591 H   0  0  0  0  0  0
  -25.1308  -36.1862   25.0813 H   0  0  0  0  0  0
  -20.9984  -28.3150   24.1430 H   0  0  0  0  0  0
  -20.5683  -26.2203   23.3581 H   0  0  0  0  0  0
  -21.6685  -26.7431   22.1183 H   0  0  0  0  0  0
  -19.6942  -25.6307   21.1215 H   0  0  0  0  0  0
  -19.6757  -27.3255   20.6804 H   0  0  0  0  0  0
  -17.4228  -26.6745   21.3974 H   0  0  0  0  0  0
  -18.0300  -26.0148   22.8996 H   0  0  0  0  0  0
  -19.7978  -30.7300   24.2218 H   0  0  0  0  0  0
  -17.5068  -31.6307   24.5154 H   0  0  0  0  0  0
  -15.5376  -30.2992   23.7767 H   0  0  0  0  0  0
  -15.8687  -28.0892   22.6986 H   0  0  0  0  0  0
  -24.5928  -30.7046   25.7769 H   0  0  0  0  0  0
  -24.8884  -32.2953   26.4719 H   0  0  0  0  0  0
  -25.8061  -30.9057   27.0250 H   0  0  0  0  0  0
  -26.2874  -29.6803   24.1059 H   0  0  0  0  0  0
  -27.4048  -29.7216   25.4481 H   0  0  0  0  0  0
  -27.8693  -30.4378   23.9242 H   0  0  0  0  0  0
  -27.2595  -33.3645   26.2003 H   0  0  0  0  0  0
  -28.3871  -32.6819   25.0348 H   0  0  0  0  0  0
  -28.0590  -31.8467   26.5468 H   0  0  0  0  0  0
  -28.2494  -38.0147   24.7552 H   0  0  0  0  0  0
  -28.1124  -36.2663   24.6186 H   0  0  0  0  0  0
  -27.2308  -37.1280   25.8861 H   0  0  0  0  0  0
  -20.9244  -29.8725   21.6977 H   0  0  0  0  0  0
  -26.0108  -38.2764   24.1538 H   0  0  0  0  0  0
  -27.9274  -20.2912   23.6057 H   0  0  0  0  0  0
  -31.1177  -18.5134   20.2653 H   0  0  0  0  0  0
  -29.9073  -23.4422   20.5942 H   0  0  0  0  0  0
  -28.2165  -23.0284   20.3667 H   0  0  0  0  0  0
  -30.1884  -24.7721   23.2927 H   0  0  0  0  0  0
  -27.4666  -24.6394   21.9659 H   0  0  0  0  0  0
  -27.1651  -18.0192   24.0496 H   0  0  0  0  0  0
  -28.6992  -17.6917   24.8558 H   0  0  0  0  0  0
  -28.1094  -16.6235   23.5640 H   0  0  0  0  0  0
  -27.3851  -24.5258   24.5227 H   0  0  0  0  0  0
  -28.2395  -26.0533   24.3570 H   0  0  0  0  0  0
  -28.8994  -24.7895   25.3825 H   0  0  0  0  0  0
  -32.4085  -17.5079   22.8962 H   0  0  0  0  0  0
  -32.4670  -17.0398   21.2112 H   0  0  0  0  0  0
  -32.5943  -15.8107   22.4600 H   0  0  0  0  0  0
  -30.0537  -25.9615   21.0088 H   0  0  0  0  0  0
  -28.9430  -26.8005   22.0400 H   0  0  0  0  0  0
  -30.3454  -16.3365   23.2351 H   0  0  0  0  0  0
  -29.1295  -15.1051   21.7504 H   0  0  0  0  0  0
  1 25  1  0  0  0
  1 30  2  0  0  0
  1 87  1  0  0  0
  2  3  1  0  0  0
  2 25  1  0  0  0
  2 90  1  0  0  0
  2 91  1  0  0  0
  3  4  1  0  0  0
  3 92  1  0  0  0
  3 93  1  0  0  0
  4  5  1  0  0  0
  4 94  1  0  0  0
  4 95  1  0  0  0
  5  6  1  0  0  0
  5 26  1  0  0  0
  5 96  1  0  0  0
  6 25  1  0  0  0
  6 97  1  0  0  0
  6 98  1  0  0  0
  7  8  2  0  0  0
  7 26  1  0  0  0
  7 29  1  0  0  0
  8  9  1  0  0  0
  8 22  1  0  0  0
  9 10  1  0  0  0
  9 27  2  0  0  0
 10 11  2  0  0  0
 10 15  1  0  0  0
 11 12  1  0  0  0
 11 99  1  0  0  0
 12 13  2  0  0  0
 12100  1  0  0  0
 13 14  1  0  0  0
 13 31  1  0  0  0
 14 15  2  0  0  0
 14101  1  0  0  0
 15102  1  0  0  0
 16 17  2  0  0  0
 16 21  1  0  0  0
 16 31  1  0  0  0
 17 18  1  0  0  0
 17103  1  0  0  0
 18 19  2  0  0  0
 18104  1  0  0  0
 19 20  1  0  0  0
 19 24  1  0  0  0
 20 21  2  0  0  0
 20105  1  0  0  0
 21 23  1  0  0  0
 22 28  1  0  0  0
 22 32  2  0  0  0
 26 27  1  0  0  0
 28106  1  0  0  0
 28107  1  0  0  0
 29108  1  0  0  0
 29109  1  0  0  0
 33 34  1  0  0  0
 33 66  1  0  0  0
 33 70  2  0  0  0
 34 36  1  0  0  0
 34 59  1  0  0  0
 34110  1  0  0  0
 35 44  2  0  0  0
 35 45  1  0  0  0
 35 68  1  0  0  0
 36 56  1  0  0  0
 36111  1  0  0  0
 37 39  1  0  0  0
 37 47  1  0  0  0
 37 66  1  0  0  0
 37112  1  0  0  0
 38 43  2  0  0  0
 38 46  1  0  0  0
 38 47  1  0  0  0
 39 64  1  0  0  0
 39 67  2  0  0  0
 40 52  1  0  0  0
 40 53  2  0  0  0
 40 58  1  0  0  0
 41113  1  0  0  0
 41114  1  0  0  0
 41115  1  0  0  0
 41 48  1  0  0  0
 42 43  1  0  0  0
 42 66  1  0  0  0
 42116  1  0  0  0
 42117  1  0  0  0
 43 44  1  0  0  0
 44118  1  0  0  0
 45 46  2  0  0  0
 45119  1  0  0  0
 46120  1  0  0  0
 47121  1  0  0  0
 47122  1  0  0  0
 48 56  1  0  0  0
 48 65  1  0  0  0
 48123  1  0  0  0
 49 50  1  0  0  0
 49 53  1  0  0  0
 49 64  1  0  0  0
 49124  1  0  0  0
 50 51  1  0  0  0
 50125  1  0  0  0
 50126  1  0  0  0
 51 52  1  0  0  0
 51127  1  0  0  0
 51128  1  0  0  0
 52129  1  0  0  0
 52130  1  0  0  0
 53 54  1  0  0  0
 54 55  2  0  0  0
 54131  1  0  0  0
 55 57  1  0  0  0
 55132  1  0  0  0
 56 69  2  0  0  0
 57 58  2  0  0  0
 57133  1  0  0  0
 58134  1  0  0  0
 59 60  1  0  0  0
 59 61  1  0  0  0
 59 62  1  0  0  0
 60135  1  0  0  0
 60136  1  0  0  0
 60137  1  0  0  0
 61138  1  0  0  0
 61139  1  0  0  0
 61140  1  0  0  0
 62141  1  0  0  0
 62142  1  0  0  0
 62143  1  0  0  0
 63 65  1  0  0  0
 63144  1  0  0  0
 63145  1  0  0  0
 63146  1  0  0  0
 64147  1  0  0  0
 65148  1  0  0  0
 68 84  1  0  0  0
 71 73  2  0  0  0
 71 75  1  0  0  0
 71149  1  0  0  0
 72 74  2  0  0  0
 72 76  1  0  0  0
 72150  1  0  0  0
 73 74  1  0  0  0
 73 81  1  0  0  0
 74 85  1  0  0  0
 75 76  2  0  0  0
 75 86  1  0  0  0
 76 89  1  0  0  0
 77 79  1  0  0  0
 77 86  1  0  0  0
 77 88  2  0  0  0
 78 80  1  0  0  0
 78 86  1  0  0  0
 78151  1  0  0  0
 78152  1  0  0  0
 79 80  1  0  0  0
 79 82  1  0  0  0
 79153  1  0  0  0
 80 84  1  0  0  0
 80154  1  0  0  0
 81155  1  0  0  0
 81156  1  0  0  0
 81157  1  0  0  0
 82158  1  0  0  0
 82159  1  0  0  0
 82160  1  0  0  0
 83161  1  0  0  0
 83162  1  0  0  0
 83163  1  0  0  0
 83 85  1  0  0  0
 84164  1  0  0  0
 84165  1  0  0  0
 85 87  1  0  0  0
 85166  1  0  0  0
 87167  1  0  0  0
M  ISO  4   1 100  68 101  84 101  87 100
M  END
> <chiral flag>
0

> <version>
0

> <s_m_source_file>
/data/baiqing/PycharmProjects/Reinvent-master-3.2/result/LINK_invent/BTK/process_docking_weight1_custom_product_contain_oxygen_bond_distance_aromatic_linkinvent_7_9_3/rearranged_h_0072.sdf

> <i_m_source_file_index>
38

> <r_mmod_Potential_Energy-OPLS-2005>
71.3157424926758

> <r_mmod_Stretch_Energy-OPLS-2005>
59.467414855957

> <r_mmod_Bend_Energy-OPLS-2005>
166.866058349609

> <r_mmod_Torsional_Energy-OPLS-2005>
296.0849609375

> <r_mmod_Improper_Torsional_Energy-OPLS-2005>
4.24853706359863

> <r_mmod_Van_der_Waal_Energy-OPLS-2005>
146.963073730469

> <r_mmod_Electrostatic_Energy-OPLS-2005>
-418.635162353516

> <r_mmod_Solvation_Energy-OPLS-2005>
-207.871536254883

> <b_mmod_Minimization_Converged-OPLS-2005>
0

> <r_mmod_RMS_Derivative-OPLS-2005>
6.60531234741211

$$$$
38
                    3D
 Structure written by MMmdl.
154162  0  0  1  0            999 V2000
  -30.6163  -14.7329   20.4618 C   0  0  0  0  0  0
  -30.4248  -12.4416   19.4822 C   0  0  0  0  0  0
  -29.5060  -12.4977   18.2427 C   0  0  0  0  0  0
  -28.0354  -12.3163   18.6621 C   0  0  0  0  0  0
  -27.6383  -13.2291   19.8527 C   0  0  2  0  0  0
  -28.6796  -13.1682   20.9908 C   0  0  0  0  0  0
  -25.2506  -13.8208   20.5734 C   0  0  0  0  0  0
  -24.1792  -13.0452   20.9252 C   0  0  0  0  0  0
  -24.6376  -11.6926   20.8790 C   0  0  0  0  0  0
  -23.9064  -10.4297   21.0435 C   0  0  0  0  0  0
  -24.3612   -9.4207   21.9208 C   0  0  0  0  0  0
  -23.6297   -8.2237   22.0756 C   0  0  0  0  0  0
  -22.4279   -8.0284   21.3544 C   0  0  0  0  0  0
  -21.9918   -9.0262   20.4643 C   0  0  0  0  0  0
  -22.7247  -10.2143   20.3066 C   0  0  0  0  0  0
  -21.6850   -6.0749   22.5296 C   0  0  0  0  0  0
  -21.4013   -6.5648   23.8234 C   0  0  0  0  0  0
  -21.3656   -5.6795   24.9191 C   0  0  0  0  0  0
  -21.6038   -4.3059   24.7237 C   0  0  0  0  0  0
  -21.8815   -3.8157   23.4357 C   0  0  0  0  0  0
  -21.9193   -4.6976   22.3415 C   0  0  0  0  0  0
  -22.7817  -13.5235   21.1919 C   0  0  0  0  0  0
  -22.1662   -4.2162   21.0996 F   0  0  0  0  0  0
  -21.5620   -3.4539   25.7748 F   0  0  0  0  0  0
  -29.9827  -13.5110   20.4087 N   0  0  0  0  0  0
  -26.2910  -12.9398   20.3305 N   0  0  0  0  0  0
  -25.9299  -11.6541   20.5782 N   0  0  0  0  0  0
  -22.0446  -12.8206   22.0446 N   0  0  0  0  0  0
  -25.4230  -15.1934   20.4160 N   0  0  0  0  0  0
  -31.8063  -14.7953   20.1427 O   0  0  0  0  0  0
  -21.6634   -6.8888   21.4254 O   0  0  0  0  0  0
  -22.3508  -14.5551   20.6786 O   0  0  0  0  0  0
  -24.6315  -31.8522   23.1931 C   0  0  0  0  0  0
  -25.9129  -32.4742   23.8292 C   0  0  1  0  0  0
  -27.2154  -27.2456   20.1242 C   0  0  0  0  0  0
  -25.5924  -33.8543   24.2219 N   0  0  0  0  0  0
  -23.4263  -30.4728   21.5372 C   0  0  2  0  0  0
  -24.8708  -28.9134   20.1052 C   0  0  0  0  0  0
  -22.7501  -29.4559   22.4891 C   0  0  0  0  0  0
  -18.0287  -28.1375   22.8467 C   0  0  0  0  0  0
  -24.1496  -36.7281   23.2638 C   0  0  0  0  0  0
  -25.9717  -30.7620   21.3681 C   0  0  0  0  0  0
  -26.0421  -29.3811   20.7126 C   0  0  0  0  0  0
  -27.2131  -28.5587   20.7105 C   0  0  0  0  0  0
  -26.0187  -26.8409   19.4932 C   0  0  0  0  0  0
  -24.8643  -27.6516   19.4878 C   0  0  0  0  0  0
  -23.6426  -29.8032   20.1536 C   0  0  0  0  0  0
  -25.4117  -36.3063   24.0321 C   0  0  1  0  0  0
  -20.5892  -28.3647   23.1275 C   0  0  2  0  0  0
  -20.6752  -26.9356   22.5403 C   0  0  0  0  0  0
  -19.5744  -26.6372   21.5185 C   0  0  0  0  0  0
  -18.1927  -26.7915   22.1604 C   0  0  0  0  0  0
  -19.1546  -28.8827   23.2864 C   0  0  0  0  0  0
  -18.9477  -30.1440   23.8868 C   0  0  0  0  0  0
  -17.6480  -30.6570   24.0542 C   0  0  0  0  0  0
  -25.9055  -34.9434   23.5074 C   0  0  0  0  0  0
  -16.5363  -29.9067   23.6338 C   0  0  0  0  0  0
  -16.7273  -28.6491   23.0334 C   0  0  0  0  0  0
  -26.4468  -31.6582   25.0701 C   0  0  0  0  0  0
  -25.3668  -31.3746   26.1415 C   0  0  0  0  0  0
  -27.0293  -30.3009   24.6179 C   0  0  0  0  0  0
  -27.6038  -32.4293   25.7486 C   0  0  0  0  0  0
  -27.5564  -37.1789   24.8470 C   0  0  0  0  0  0
  -21.4202  -29.3004   22.3668 N   0  0  0  0  0  0
  -26.4286  -37.3762   23.9406 N   0  0  0  0  0  0
  -24.6964  -31.0482   22.0895 N   0  0  0  0  0  0
  -23.4218  -28.8103   23.2970 O   0  0  0  0  0  0
  -28.3380  -26.3895   20.2040 O   0  0  0  0  0  0
  -26.5641  -34.8907   22.4657 O   0  0  0  0  0  0
  -23.5461  -32.1347   23.7231 O   0  0  0  0  0  0
  -31.5356  -17.7541   20.5638 C   0  0  0  0  0  0
  -31.8772  -19.1158   20.4791 C   0  0  0  0  0  0
  -29.5214  -19.8270   20.4789 C   0  0  0  0  0  0
  -30.1867  -17.3300   20.5864 C   0  0  0  0  0  0
  -30.9037  -20.1314   20.4252 C   0  0  0  0  0  0
  -29.1935  -18.3971   20.5605 C   0  0  0  0  0  0
  -28.4760  -20.9970   20.5005 C   0  0  0  0  0  0
  -26.6616  -23.5482   20.9956 C   0  0  0  0  0  0
  -28.3905  -24.9606   19.7221 C   0  0  0  0  0  0
  -28.1652  -23.6833   20.6973 C   0  0  2  0  0  0
  -29.8492  -15.8777   20.6630 N   0  0  0  0  0  0
  -28.8522  -22.3343   20.3724 N   0  0  0  0  0  0
  -27.2898  -20.7035   20.6609 O   0  0  0  0  0  0
  -31.3361  -21.4140   20.3333 F   0  0  0  0  0  0
  -27.8957  -18.0080   20.6270 F   0  0  0  0  0  0
  -31.4688  -12.5519   19.1835 H   0  0  0  0  0  0
  -30.3579  -11.4657   19.9653 H   0  0  0  0  0  0
  -29.7845  -11.7205   17.5300 H   0  0  0  0  0  0
  -29.6327  -13.4518   17.7279 H   0  0  0  0  0  0
  -27.9077  -11.2703   18.9463 H   0  0  0  0  0  0
  -27.3701  -12.4808   17.8137 H   0  0  0  0  0  0
  -27.6316  -14.2468   19.4636 H   0  0  0  0  0  0
  -28.7094  -12.1712   21.4338 H   0  0  0  0  0  0
  -28.4150  -13.8548   21.7977 H   0  0  0  0  0  0
  -25.2740   -9.5687   22.4799 H   0  0  0  0  0  0
  -24.0012   -7.4611   22.7449 H   0  0  0  0  0  0
  -21.0863   -8.8781   19.8928 H   0  0  0  0  0  0
  -22.3715  -10.9693   19.6176 H   0  0  0  0  0  0
  -21.2004   -7.6152   23.9750 H   0  0  0  0  0  0
  -21.1478   -6.0518   25.9098 H   0  0  0  0  0  0
  -22.0595   -2.7617   23.2858 H   0  0  0  0  0  0
  -22.4033  -11.9841   22.4805 H   0  0  0  0  0  0
  -21.1065  -13.1244   22.2651 H   0  0  0  0  0  0
  -24.6649  -15.8549   20.5466 H   0  0  0  0  0  0
  -26.2719  -15.6337   20.0854 H   0  0  0  0  0  0
  -26.7184  -32.5367   23.1013 H   0  0  0  0  0  0
  -25.0063  -33.9671   25.0360 H   0  0  0  0  0  0
  -22.7224  -31.2940   21.3888 H   0  0  0  0  0  0
  -23.3765  -35.9612   23.3315 H   0  0  0  0  0  0
  -24.3582  -36.8902   22.2052 H   0  0  0  0  0  0
  -23.7256  -37.6485   23.6655 H   0  0  0  0  0  0
  -26.1061  -31.5185   20.5938 H   0  0  0  0  0  0
  -26.8510  -30.8165   21.9979 H   0  0  0  0  0  0
  -28.1130  -28.9086   21.1966 H   0  0  0  0  0  0
  -25.9360  -25.8697   19.0271 H   0  0  0  0  0  0
  -23.9616  -27.2839   19.0184 H   0  0  0  0  0  0
  -23.7659  -30.5783   19.3960 H   0  0  0  0  0  0
  -22.7578  -29.2395   19.8508 H   0  0  0  0  0  0
  -25.1298  -36.1890   25.0810 H   0  0  0  0  0  0
  -20.9984  -28.3203   24.1396 H   0  0  0  0  0  0
  -20.5624  -26.2223   23.3588 H   0  0  0  0  0  0
  -21.6616  -26.7339   22.1210 H   0  0  0  0  0  0
  -19.6892  -25.6288   21.1205 H   0  0  0  0  0  0
  -19.6731  -27.3170   20.6713 H   0  0  0  0  0  0
  -17.4188  -26.6646   21.4017 H   0  0  0  0  0  0
  -18.0334  -26.0068   22.9014 H   0  0  0  0  0  0
  -19.7959  -30.7254   24.2220 H   0  0  0  0  0  0
  -17.5040  -31.6248   24.5143 H   0  0  0  0  0  0
  -15.5364  -30.2956   23.7683 H   0  0  0  0  0  0
  -15.8669  -28.0814   22.7050 H   0  0  0  0  0  0
  -24.5928  -30.6977   25.7769 H   0  0  0  0  0  0
  -24.8749  -32.2902   26.4715 H   0  0  0  0  0  0
  -25.7995  -30.9068   27.0271 H   0  0  0  0  0  0
  -26.2863  -29.6818   24.1147 H   0  0  0  0  0  0
  -27.3903  -29.7221   25.4684 H   0  0  0  0  0  0
  -27.8767  -30.4299   23.9453 H   0  0  0  0  0  0
  -27.2682  -33.3639   26.1985 H   0  0  0  0  0  0
  -28.3910  -32.6766   25.0349 H   0  0  0  0  0  0
  -28.0623  -31.8454   26.5479 H   0  0  0  0  0  0
  -28.2566  -38.0098   24.7511 H   0  0  0  0  0  0
  -28.1069  -36.2621   24.6297 H   0  0  0  0  0  0
  -27.2279  -37.1433   25.8875 H   0  0  0  0  0  0
  -20.9376  -29.8802   21.6947 H   0  0  0  0  0  0
  -26.0173  -38.2831   24.1446 H   0  0  0  0  0  0
  -32.3525  -17.0517   20.6162 H   0  0  0  0  0  0
  -32.9211  -19.3919   20.4601 H   0  0  0  0  0  0
  -26.2329  -24.5096   21.2807 H   0  0  0  0  0  0
  -26.4662  -22.8619   21.8191 H   0  0  0  0  0  0
  -26.1187  -23.1886   20.1213 H   0  0  0  0  0  0
  -27.7833  -24.8422   18.8252 H   0  0  0  0  0  0
  -29.4095  -24.8629   19.3480 H   0  0  0  0  0  0
  -28.6403  -23.9678   21.6370 H   0  0  0  0  0  0
  -28.8710  -15.6911   20.8202 H   0  0  0  0  0  0
  -29.8504  -22.4223   20.2123 H   0  0  0  0  0  0
  1 25  1  0  0  0
  1 30  2  0  0  0
  1 81  1  0  0  0
  2  3  1  0  0  0
  2 25  1  0  0  0
  2 86  1  0  0  0
  2 87  1  0  0  0
  3  4  1  0  0  0
  3 88  1  0  0  0
  3 89  1  0  0  0
  4  5  1  0  0  0
  4 90  1  0  0  0
  4 91  1  0  0  0
  5  6  1  0  0  0
  5 26  1  0  0  0
  5 92  1  0  0  0
  6 25  1  0  0  0
  6 93  1  0  0  0
  6 94  1  0  0  0
  7  8  2  0  0  0
  7 26  1  0  0  0
  7 29  1  0  0  0
  8  9  1  0  0  0
  8 22  1  0  0  0
  9 10  1  0  0  0
  9 27  2  0  0  0
 10 11  2  0  0  0
 10 15  1  0  0  0
 11 12  1  0  0  0
 11 95  1  0  0  0
 12 13  2  0  0  0
 12 96  1  0  0  0
 13 14  1  0  0  0
 13 31  1  0  0  0
 14 15  2  0  0  0
 14 97  1  0  0  0
 15 98  1  0  0  0
 16 17  2  0  0  0
 16 21  1  0  0  0
 16 31  1  0  0  0
 17 18  1  0  0  0
 17 99  1  0  0  0
 18 19  2  0  0  0
 18100  1  0  0  0
 19 20  1  0  0  0
 19 24  1  0  0  0
 20 21  2  0  0  0
 20101  1  0  0  0
 21 23  1  0  0  0
 22 28  1  0  0  0
 22 32  2  0  0  0
 26 27  1  0  0  0
 28102  1  0  0  0
 28103  1  0  0  0
 29104  1  0  0  0
 29105  1  0  0  0
 33 34  1  0  0  0
 33 66  1  0  0  0
 33 70  2  0  0  0
 34 36  1  0  0  0
 34 59  1  0  0  0
 34106  1  0  0  0
 35 44  2  0  0  0
 35 45  1  0  0  0
 35 68  1  0  0  0
 36 56  1  0  0  0
 36107  1  0  0  0
 37 39  1  0  0  0
 37 47  1  0  0  0
 37 66  1  0  0  0
 37108  1  0  0  0
 38 43  2  0  0  0
 38 46  1  0  0  0
 38 47  1  0  0  0
 39 64  1  0  0  0
 39 67  2  0  0  0
 40 52  1  0  0  0
 40 53  2  0  0  0
 40 58  1  0  0  0
 41109  1  0  0  0
 41110  1  0  0  0
 41111  1  0  0  0
 41 48  1  0  0  0
 42 43  1  0  0  0
 42 66  1  0  0  0
 42112  1  0  0  0
 42113  1  0  0  0
 43 44  1  0  0  0
 44114  1  0  0  0
 45 46  2  0  0  0
 45115  1  0  0  0
 46116  1  0  0  0
 47117  1  0  0  0
 47118  1  0  0  0
 48 56  1  0  0  0
 48 65  1  0  0  0
 48119  1  0  0  0
 49 50  1  0  0  0
 49 53  1  0  0  0
 49 64  1  0  0  0
 49120  1  0  0  0
 50 51  1  0  0  0
 50121  1  0  0  0
 50122  1  0  0  0
 51 52  1  0  0  0
 51123  1  0  0  0
 51124  1  0  0  0
 52125  1  0  0  0
 52126  1  0  0  0
 53 54  1  0  0  0
 54 55  2  0  0  0
 54127  1  0  0  0
 55 57  1  0  0  0
 55128  1  0  0  0
 56 69  2  0  0  0
 57 58  2  0  0  0
 57129  1  0  0  0
 58130  1  0  0  0
 59 60  1  0  0  0
 59 61  1  0  0  0
 59 62  1  0  0  0
 60131  1  0  0  0
 60132  1  0  0  0
 60133  1  0  0  0
 61134  1  0  0  0
 61135  1  0  0  0
 61136  1  0  0  0
 62137  1  0  0  0
 62138  1  0  0  0
 62139  1  0  0  0
 63 65  1  0  0  0
 63140  1  0  0  0
 63141  1  0  0  0
 63142  1  0  0  0
 64143  1  0  0  0
 65144  1  0  0  0
 68 79  1  0  0  0
 71 72  2  0  0  0
 71 74  1  0  0  0
 71145  1  0  0  0
 72 75  1  0  0  0
 72146  1  0  0  0
 73 75  2  0  0  0
 73 76  1  0  0  0
 73 77  1  0  0  0
 74 76  2  0  0  0
 74 81  1  0  0  0
 75 84  1  0  0  0
 76 85  1  0  0  0
 77 82  1  0  0  0
 77 83  2  0  0  0
 78147  1  0  0  0
 78148  1  0  0  0
 78149  1  0  0  0
 78 80  1  0  0  0
 79 80  1  0  0  0
 79150  1  0  0  0
 79151  1  0  0  0
 80 82  1  0  0  0
 80152  1  0  0  0
 81153  1  0  0  0
 82154  1  0  0  0
M  ISO  4   1 100  68 101  79 101  81 100
M  END
> <chiral flag>
0

> <version>
0

> <s_m_source_file>
/data/baiqing/PycharmProjects/Reinvent-master-3.2/result/LINK_invent/BTK/process_docking_weight1_custom_product_contain_oxygen_bond_distance_aromatic_linkinvent_7_9_3/rearranged_h_0072.sdf

> <i_m_source_file_index>
39

> <r_mmod_Potential_Energy-OPLS-2005>
103.169052124023

> <r_mmod_Stretch_Energy-OPLS-2005>
134.09326171875

> <r_mmod_Bend_Energy-OPLS-2005>
185.338806152344

> <r_mmod_Torsional_Energy-OPLS-2005>
212.793106079102

> <r_mmod_Improper_Torsional_Energy-OPLS-2005>
5.36137342453003

> <r_mmod_Van_der_Waal_Energy-OPLS-2005>
148.148239135742

> <r_mmod_Electrostatic_Energy-OPLS-2005>
-454.435485839844

> <r_mmod_Solvation_Energy-OPLS-2005>
-212.213272094727

> <b_mmod_Minimization_Converged-OPLS-2005>
0

> <r_mmod_RMS_Derivative-OPLS-2005>
2.2620701789856

$$$$
39
                    3D
 Structure written by MMmdl.
155163  0  0  1  0            999 V2000
  -30.6327  -14.6571   20.5101 C   0  0  0  0  0  0
  -30.4393  -12.4062   19.4600 C   0  0  0  0  0  0
  -29.5096  -12.5073   18.2298 C   0  0  0  0  0  0
  -28.0319  -12.3486   18.6391 C   0  0  0  0  0  0
  -27.6535  -13.2228   19.8644 C   0  0  2  0  0  0
  -28.6980  -13.0875   20.9958 C   0  0  0  0  0  0
  -25.2550  -13.8181   20.5690 C   0  0  0  0  0  0
  -24.1827  -13.0440   20.9204 C   0  0  0  0  0  0
  -24.6406  -11.6916   20.8746 C   0  0  0  0  0  0
  -23.9079  -10.4293   21.0416 C   0  0  0  0  0  0
  -24.3632   -9.4207   21.9191 C   0  0  0  0  0  0
  -23.6302   -8.2243   22.0751 C   0  0  0  0  0  0
  -22.4280   -8.0287   21.3542 C   0  0  0  0  0  0
  -21.9927   -9.0261   20.4641 C   0  0  0  0  0  0
  -22.7261  -10.2135   20.3054 C   0  0  0  0  0  0
  -21.6850   -6.0743   22.5282 C   0  0  0  0  0  0
  -21.4017   -6.5643   23.8220 C   0  0  0  0  0  0
  -21.3653   -5.6794   24.9177 C   0  0  0  0  0  0
  -21.6042   -4.3059   24.7227 C   0  0  0  0  0  0
  -21.8819   -3.8152   23.4347 C   0  0  0  0  0  0
  -21.9196   -4.6970   22.3404 C   0  0  0  0  0  0
  -22.7848  -13.5225   21.1858 C   0  0  0  0  0  0
  -22.1662   -4.2160   21.0981 F   0  0  0  0  0  0
  -21.5625   -3.4535   25.7735 F   0  0  0  0  0  0
  -30.0144  -13.4329   20.4354 N   0  0  0  0  0  0
  -26.2992  -12.9378   20.3326 N   0  0  0  0  0  0
  -25.9342  -11.6526   20.5771 N   0  0  0  0  0  0
  -22.0484  -12.8201   22.0400 N   0  0  0  0  0  0
  -25.4242  -15.1903   20.4098 N   0  0  0  0  0  0
  -31.7880  -14.8059   20.1011 O   0  0  0  0  0  0
  -21.6637   -6.8889   21.4244 O   0  0  0  0  0  0
  -22.3536  -14.5538   20.6713 O   0  0  0  0  0  0
  -24.6246  -31.8605   23.2060 C   0  0  0  0  0  0
  -25.9099  -32.4783   23.8375 C   0  0  1  0  0  0
  -27.2136  -27.3041   20.1306 C   0  0  0  0  0  0
  -25.5918  -33.8583   24.2293 N   0  0  0  0  0  0
  -23.4182  -30.4866   21.5473 C   0  0  2  0  0  0
  -24.8670  -28.9474   20.1112 C   0  0  0  0  0  0
  -22.7467  -29.4623   22.4932 C   0  0  0  0  0  0
  -18.0277  -28.1415   22.8491 C   0  0  0  0  0  0
  -24.1472  -36.7284   23.2637 C   0  0  0  0  0  0
  -25.9615  -30.7841   21.3843 C   0  0  0  0  0  0
  -26.0335  -29.4086   20.7345 C   0  0  0  0  0  0
  -27.2090  -28.5956   20.7462 C   0  0  0  0  0  0
  -26.0481  -26.9413   19.4210 C   0  0  0  0  0  0
  -24.8765  -27.7158   19.4433 C   0  0  0  0  0  0
  -23.6353  -29.8277   20.1606 C   0  0  0  0  0  0
  -25.4100  -36.3081   24.0331 C   0  0  1  0  0  0
  -20.5872  -28.3709   23.1291 C   0  0  2  0  0  0
  -20.6763  -26.9434   22.5407 C   0  0  0  0  0  0
  -19.5733  -26.6418   21.5209 C   0  0  0  0  0  0
  -18.1914  -26.7958   22.1628 C   0  0  0  0  0  0
  -19.1532  -28.8887   23.2887 C   0  0  0  0  0  0
  -18.9460  -30.1490   23.8904 C   0  0  0  0  0  0
  -17.6465  -30.6615   24.0593 C   0  0  0  0  0  0
  -25.9051  -34.9449   23.5107 C   0  0  0  0  0  0
  -16.5351  -29.9121   23.6351 C   0  0  0  0  0  0
  -16.7271  -28.6541   23.0362 C   0  0  0  0  0  0
  -26.4489  -31.6583   25.0727 C   0  0  0  0  0  0
  -25.3732  -31.3731   26.1463 C   0  0  0  0  0  0
  -27.0324  -30.2998   24.6181 C   0  0  0  0  0  0
  -27.6047  -32.4317   25.7498 C   0  0  0  0  0  0
  -27.5566  -37.1806   24.8467 C   0  0  0  0  0  0
  -21.4179  -29.3061   22.3691 N   0  0  0  0  0  0
  -26.4271  -37.3781   23.9416 N   0  0  0  0  0  0
  -24.6870  -31.0616   22.1020 N   0  0  0  0  0  0
  -23.4182  -28.8154   23.3013 O   0  0  0  0  0  0
  -28.3121  -26.4239   20.1434 O   0  0  0  0  0  0
  -26.5620  -34.8915   22.4676 O   0  0  0  0  0  0
  -23.5414  -32.1397   23.7394 O   0  0  0  0  0  0
  -29.1718  -19.4772   21.3617 C   0  0  0  0  0  0
  -29.1039  -18.0487   21.4624 C   0  0  0  0  0  0
  -30.9528  -17.8319   19.9564 C   0  0  0  0  0  0
  -30.1373  -20.1353   20.5536 C   0  0  0  0  0  0
  -29.9996  -17.1755   20.7789 C   0  0  0  0  0  0
  -31.0185  -19.2547   19.8444 C   0  0  0  0  0  0
  -30.3093  -21.6581   20.5050 C   0  0  0  0  0  0
  -29.4378  -24.1083   20.4576 C   0  0  0  0  0  0
  -26.8815  -24.2450   20.3898 C   0  0  0  0  0  0
  -28.1737  -25.0356   20.7095 C   0  0  2  0  0  0
  -29.8605  -15.7154   20.9243 N   0  0  0  0  0  0
  -29.3123  -22.6202   20.5626 N   0  0  0  0  0  0
  -31.5732  -22.0911   20.4221 N   0  3  0  0  0  0
  -30.5329  -24.6278   20.2047 O   0  0  0  0  0  0
  -31.9868  -19.7710   19.0458 F   0  0  0  0  0  0
  -31.4789  -12.5333   19.1528 H   0  0  0  0  0  0
  -30.3825  -11.4130   19.9080 H   0  0  0  0  0  0
  -29.7755  -11.7485   17.4926 H   0  0  0  0  0  0
  -29.6526  -13.4712   17.7400 H   0  0  0  0  0  0
  -27.8663  -11.2965   18.8740 H   0  0  0  0  0  0
  -27.3797  -12.5774   17.7948 H   0  0  0  0  0  0
  -27.6697  -14.2572   19.5216 H   0  0  0  0  0  0
  -28.7097  -12.0674   21.3837 H   0  0  0  0  0  0
  -28.4385  -13.7251   21.8424 H   0  0  0  0  0  0
  -25.2778   -9.5671   22.4765 H   0  0  0  0  0  0
  -24.0008   -7.4630   22.7467 H   0  0  0  0  0  0
  -21.0860   -8.8784   19.8942 H   0  0  0  0  0  0
  -22.3733  -10.9675   19.6153 H   0  0  0  0  0  0
  -21.2009   -7.6151   23.9726 H   0  0  0  0  0  0
  -21.1471   -6.0521   25.9082 H   0  0  0  0  0  0
  -22.0602   -2.7617   23.2842 H   0  0  0  0  0  0
  -22.4096  -11.9855   22.4785 H   0  0  0  0  0  0
  -21.1093  -13.1204   22.2586 H   0  0  0  0  0  0
  -24.6524  -15.8401   20.5153 H   0  0  0  0  0  0
  -26.2613  -15.6270   20.0451 H   0  0  0  0  0  0
  -26.7158  -32.5472   23.1128 H   0  0  0  0  0  0
  -25.0047  -33.9727   25.0427 H   0  0  0  0  0  0
  -22.7135  -31.3093   21.4091 H   0  0  0  0  0  0
  -23.3727  -35.9626   23.3305 H   0  0  0  0  0  0
  -24.3557  -36.8900   22.2049 H   0  0  0  0  0  0
  -23.7225  -37.6486   23.6662 H   0  0  0  0  0  0
  -26.0937  -31.5411   20.6094 H   0  0  0  0  0  0
  -26.8431  -30.8381   22.0110 H   0  0  0  0  0  0
  -28.0989  -28.9414   21.2536 H   0  0  0  0  0  0
  -26.0247  -26.0400   18.8297 H   0  0  0  0  0  0
  -23.9967  -27.3732   18.9145 H   0  0  0  0  0  0
  -23.7576  -30.6071   19.4061 H   0  0  0  0  0  0
  -22.7556  -29.2581   19.8551 H   0  0  0  0  0  0
  -25.1286  -36.1919   25.0826 H   0  0  0  0  0  0
  -20.9988  -28.3271   24.1405 H   0  0  0  0  0  0
  -20.5663  -26.2317   23.3598 H   0  0  0  0  0  0
  -21.6633  -26.7475   22.1202 H   0  0  0  0  0  0
  -19.6875  -25.6334   21.1228 H   0  0  0  0  0  0
  -19.6660  -27.3255   20.6751 H   0  0  0  0  0  0
  -17.4182  -26.6722   21.4021 H   0  0  0  0  0  0
  -18.0313  -26.0107   22.9037 H   0  0  0  0  0  0
  -19.7937  -30.7310   24.2257 H   0  0  0  0  0  0
  -17.5027  -31.6292   24.5208 H   0  0  0  0  0  0
  -15.5362  -30.3042   23.7679 H   0  0  0  0  0  0
  -15.8659  -28.0885   22.7067 H   0  0  0  0  0  0
  -24.5931  -30.7034   25.7817 H   0  0  0  0  0  0
  -24.8898  -32.2901   26.4846 H   0  0  0  0  0  0
  -25.8081  -30.8959   27.0256 H   0  0  0  0  0  0
  -26.2888  -29.6755   24.1208 H   0  0  0  0  0  0
  -27.4001  -29.7246   25.4690 H   0  0  0  0  0  0
  -27.8780  -30.4260   23.9410 H   0  0  0  0  0  0
  -27.2657  -33.3637   26.2038 H   0  0  0  0  0  0
  -28.3884  -32.6843   25.0341 H   0  0  0  0  0  0
  -28.0676  -31.8454   26.5446 H   0  0  0  0  0  0
  -28.2608  -38.0087   24.7523 H   0  0  0  0  0  0
  -28.1047  -36.2624   24.6296 H   0  0  0  0  0  0
  -27.2294  -37.1466   25.8875 H   0  0  0  0  0  0
  -20.9346  -29.8798   21.6920 H   0  0  0  0  0  0
  -26.0138  -38.2846   24.1439 H   0  0  0  0  0  0
  -28.4791  -20.0662   21.9457 H   0  0  0  0  0  0
  -28.3430  -17.6241   22.1018 H   0  0  0  0  0  0
  -31.6640  -17.2502   19.3899 H   0  0  0  0  0  0
  -26.8534  -23.2786   20.8904 H   0  0  0  0  0  0
  -26.7760  -24.0563   19.3210 H   0  0  0  0  0  0
  -25.9921  -24.7574   20.7535 H   0  0  0  0  0  0
  -28.1671  -25.1894   21.7895 H   0  0  0  0  0  0
  -28.9890  -15.4195   21.3350 H   0  0  0  0  0  0
  -28.4064  -22.2060   20.7147 H   0  0  0  0  0  0
  -32.3171  -21.4279   20.2532 H   0  0  0  0  0  0
  -31.7496  -23.0846   20.3327 H   0  0  0  0  0  0
  1 25  1  0  0  0
  1 30  2  0  0  0
  1 81  1  0  0  0
  2  3  1  0  0  0
  2 25  1  0  0  0
  2 86  1  0  0  0
  2 87  1  0  0  0
  3  4  1  0  0  0
  3 88  1  0  0  0
  3 89  1  0  0  0
  4  5  1  0  0  0
  4 90  1  0  0  0
  4 91  1  0  0  0
  5  6  1  0  0  0
  5 26  1  0  0  0
  5 92  1  0  0  0
  6 25  1  0  0  0
  6 93  1  0  0  0
  6 94  1  0  0  0
  7  8  2  0  0  0
  7 26  1  0  0  0
  7 29  1  0  0  0
  8  9  1  0  0  0
  8 22  1  0  0  0
  9 10  1  0  0  0
  9 27  2  0  0  0
 10 11  2  0  0  0
 10 15  1  0  0  0
 11 12  1  0  0  0
 11 95  1  0  0  0
 12 13  2  0  0  0
 12 96  1  0  0  0
 13 14  1  0  0  0
 13 31  1  0  0  0
 14 15  2  0  0  0
 14 97  1  0  0  0
 15 98  1  0  0  0
 16 17  2  0  0  0
 16 21  1  0  0  0
 16 31  1  0  0  0
 17 18  1  0  0  0
 17 99  1  0  0  0
 18 19  2  0  0  0
 18100  1  0  0  0
 19 20  1  0  0  0
 19 24  1  0  0  0
 20 21  2  0  0  0
 20101  1  0  0  0
 21 23  1  0  0  0
 22 28  1  0  0  0
 22 32  2  0  0  0
 26 27  1  0  0  0
 28102  1  0  0  0
 28103  1  0  0  0
 29104  1  0  0  0
 29105  1  0  0  0
 33 34  1  0  0  0
 33 66  1  0  0  0
 33 70  2  0  0  0
 34 36  1  0  0  0
 34 59  1  0  0  0
 34106  1  0  0  0
 35 44  2  0  0  0
 35 45  1  0  0  0
 35 68  1  0  0  0
 36 56  1  0  0  0
 36107  1  0  0  0
 37 39  1  0  0  0
 37 47  1  0  0  0
 37 66  1  0  0  0
 37108  1  0  0  0
 38 43  2  0  0  0
 38 46  1  0  0  0
 38 47  1  0  0  0
 39 64  1  0  0  0
 39 67  2  0  0  0
 40 52  1  0  0  0
 40 53  2  0  0  0
 40 58  1  0  0  0
 41109  1  0  0  0
 41110  1  0  0  0
 41111  1  0  0  0
 41 48  1  0  0  0
 42 43  1  0  0  0
 42 66  1  0  0  0
 42112  1  0  0  0
 42113  1  0  0  0
 43 44  1  0  0  0
 44114  1  0  0  0
 45 46  2  0  0  0
 45115  1  0  0  0
 46116  1  0  0  0
 47117  1  0  0  0
 47118  1  0  0  0
 48 56  1  0  0  0
 48 65  1  0  0  0
 48119  1  0  0  0
 49 50  1  0  0  0
 49 53  1  0  0  0
 49 64  1  0  0  0
 49120  1  0  0  0
 50 51  1  0  0  0
 50121  1  0  0  0
 50122  1  0  0  0
 51 52  1  0  0  0
 51123  1  0  0  0
 51124  1  0  0  0
 52125  1  0  0  0
 52126  1  0  0  0
 53 54  1  0  0  0
 54 55  2  0  0  0
 54127  1  0  0  0
 55 57  1  0  0  0
 55128  1  0  0  0
 56 69  2  0  0  0
 57 58  2  0  0  0
 57129  1  0  0  0
 58130  1  0  0  0
 59 60  1  0  0  0
 59 61  1  0  0  0
 59 62  1  0  0  0
 60131  1  0  0  0
 60132  1  0  0  0
 60133  1  0  0  0
 61134  1  0  0  0
 61135  1  0  0  0
 61136  1  0  0  0
 62137  1  0  0  0
 62138  1  0  0  0
 62139  1  0  0  0
 63 65  1  0  0  0
 63140  1  0  0  0
 63141  1  0  0  0
 63142  1  0  0  0
 64143  1  0  0  0
 65144  1  0  0  0
 68 80  1  0  0  0
 71 72  2  0  0  0
 71 74  1  0  0  0
 71145  1  0  0  0
 72 75  1  0  0  0
 72146  1  0  0  0
 73 75  2  0  0  0
 73 76  1  0  0  0
 73147  1  0  0  0
 74 76  2  0  0  0
 74 77  1  0  0  0
 75 81  1  0  0  0
 76 85  1  0  0  0
 77 82  1  0  0  0
 77 83  2  0  0  0
 78 80  1  0  0  0
 78 82  1  0  0  0
 78 84  2  0  0  0
 79148  1  0  0  0
 79149  1  0  0  0
 79150  1  0  0  0
 79 80  1  0  0  0
 80151  1  0  0  0
 81152  1  0  0  0
 82153  1  0  0  0
 83154  1  0  0  0
 83155  1  0  0  0
M  CHG  1  83   1
M  ISO  4   1 100  68 101  80 101  81 100
M  END
> <chiral flag>
0

> <version>
0

> <s_m_source_file>
/data/baiqing/PycharmProjects/Reinvent-master-3.2/result/LINK_invent/BTK/process_docking_weight1_custom_product_contain_oxygen_bond_distance_aromatic_linkinvent_7_9_3/rearranged_h_0072.sdf

> <i_m_source_file_index>
40

> <r_mmod_Potential_Energy-OPLS-2005>
-132.703750610352

> <r_mmod_Stretch_Energy-OPLS-2005>
98.5612030029297

> <r_mmod_Bend_Energy-OPLS-2005>
157.135879516602

> <r_mmod_Torsional_Energy-OPLS-2005>
236.107040405273

> <r_mmod_Improper_Torsional_Energy-OPLS-2005>
4.30102396011353

> <r_mmod_Van_der_Waal_Energy-OPLS-2005>
168.679946899414

> <r_mmod_Electrostatic_Energy-OPLS-2005>
-396.68017578125

> <r_mmod_Solvation_Energy-OPLS-2005>
-456.171478271484

> <b_mmod_Minimization_Converged-OPLS-2005>
0

> <r_mmod_RMS_Derivative-OPLS-2005>
1.94908595085144

$$$$
40
                    3D
 Structure written by MMmdl.
154163  0  0  1  0            999 V2000
  -30.6096  -14.7305   20.4643 C   0  0  0  0  0  0
  -30.4220  -12.4463   19.4745 C   0  0  0  0  0  0
  -29.5024  -12.5369   18.2356 C   0  0  0  0  0  0
  -28.0310  -12.3482   18.6485 C   0  0  0  0  0  0
  -27.6427  -13.2342   19.8616 C   0  0  2  0  0  0
  -28.6859  -13.1495   20.9995 C   0  0  0  0  0  0
  -25.2499  -13.8210   20.5722 C   0  0  0  0  0  0
  -24.1792  -13.0444   20.9212 C   0  0  0  0  0  0
  -24.6393  -11.6926   20.8735 C   0  0  0  0  0  0
  -23.9084  -10.4293   21.0392 C   0  0  0  0  0  0
  -24.3632   -9.4208   21.9172 C   0  0  0  0  0  0
  -23.6298   -8.2247   22.0750 C   0  0  0  0  0  0
  -22.4273   -8.0290   21.3548 C   0  0  0  0  0  0
  -21.9912   -9.0257   20.4639 C   0  0  0  0  0  0
  -22.7257  -10.2126   20.3041 C   0  0  0  0  0  0
  -21.6859   -6.0743   22.5286 C   0  0  0  0  0  0
  -21.4026   -6.5646   23.8223 C   0  0  0  0  0  0
  -21.3659   -5.6795   24.9180 C   0  0  0  0  0  0
  -21.6040   -4.3061   24.7229 C   0  0  0  0  0  0
  -21.8817   -3.8158   23.4351 C   0  0  0  0  0  0
  -21.9186   -4.6973   22.3402 C   0  0  0  0  0  0
  -22.7811  -13.5212   21.1893 C   0  0  0  0  0  0
  -22.1653   -4.2155   21.0985 F   0  0  0  0  0  0
  -21.5616   -3.4549   25.7745 F   0  0  0  0  0  0
  -29.9964  -13.4967   20.4318 N   0  0  0  0  0  0
  -26.2936  -12.9423   20.3333 N   0  0  0  0  0  0
  -25.9323  -11.6563   20.5768 N   0  0  0  0  0  0
  -22.0474  -12.8175   22.0446 N   0  0  0  0  0  0
  -25.4181  -15.1938   20.4175 N   0  0  0  0  0  0
  -31.7708  -14.8508   20.0597 O   0  0  0  0  0  0
  -21.6637   -6.8893   21.4251 O   0  0  0  0  0  0
  -22.3488  -14.5531   20.6776 O   0  0  0  0  0  0
  -24.6328  -31.8550   23.2018 C   0  0  0  0  0  0
  -25.9149  -32.4764   23.8355 C   0  0  1  0  0  0
  -27.2143  -27.2501   20.1218 C   0  0  0  0  0  0
  -25.5940  -33.8568   24.2273 N   0  0  0  0  0  0
  -23.4296  -30.4811   21.5445 C   0  0  2  0  0  0
  -24.8769  -28.9342   20.1065 C   0  0  0  0  0  0
  -22.7498  -29.4605   22.4890 C   0  0  0  0  0  0
  -18.0292  -28.1411   22.8486 C   0  0  0  0  0  0
  -24.1495  -36.7295   23.2641 C   0  0  0  0  0  0
  -25.9776  -30.7615   21.3865 C   0  0  0  0  0  0
  -26.0480  -29.3849   20.7272 C   0  0  0  0  0  0
  -27.2156  -28.5525   20.7320 C   0  0  0  0  0  0
  -26.0282  -26.8928   19.4370 C   0  0  0  0  0  0
  -24.8737  -27.6967   19.4500 C   0  0  0  0  0  0
  -23.6503  -29.8254   20.1566 C   0  0  0  0  0  0
  -25.4123  -36.3071   24.0317 C   0  0  1  0  0  0
  -20.5894  -28.3723   23.1266 C   0  0  2  0  0  0
  -20.6789  -26.9439   22.5410 C   0  0  0  0  0  0
  -19.5762  -26.6401   21.5223 C   0  0  0  0  0  0
  -18.1933  -26.7953   22.1625 C   0  0  0  0  0  0
  -19.1544  -28.8887   23.2872 C   0  0  0  0  0  0
  -18.9461  -30.1482   23.8902 C   0  0  0  0  0  0
  -17.6461  -30.6608   24.0570 C   0  0  0  0  0  0
  -25.9056  -34.9442   23.5096 C   0  0  0  0  0  0
  -16.5356  -29.9109   23.6328 C   0  0  0  0  0  0
  -16.7279  -28.6528   23.0349 C   0  0  0  0  0  0
  -26.4514  -31.6594   25.0748 C   0  0  0  0  0  0
  -25.3732  -31.3713   26.1461 C   0  0  0  0  0  0
  -27.0388  -30.3021   24.6241 C   0  0  0  0  0  0
  -27.6070  -32.4336   25.7525 C   0  0  0  0  0  0
  -27.5584  -37.1803   24.8460 C   0  0  0  0  0  0
  -21.4201  -29.3069   22.3649 N   0  0  0  0  0  0
  -26.4296  -37.3774   23.9406 N   0  0  0  0  0  0
  -24.6992  -31.0496   22.1012 N   0  0  0  0  0  0
  -23.4192  -28.8116   23.2968 O   0  0  0  0  0  0
  -28.2944  -26.3313   20.2150 O   0  0  0  0  0  0
  -26.5604  -34.8915   22.4650 O   0  0  0  0  0  0
  -23.5474  -32.1393   23.7291 O   0  0  0  0  0  0
  -29.3874  -17.0316   18.7409 C   0  0  0  0  0  0
  -29.0843  -18.1709   17.9742 C   0  0  0  0  0  0
  -29.6740  -18.4773   20.6844 C   0  0  0  0  0  0
  -29.3674  -19.6771   19.9013 C   0  0  0  0  0  0
  -29.6983  -17.1299   20.1137 C   0  0  0  0  0  0
  -29.0765  -19.4614   18.5340 C   0  0  0  0  0  0
  -30.2681  -23.3291   20.3991 C   0  0  0  0  0  0
  -30.5617  -21.7922   20.4223 C   0  0  0  0  0  0
  -28.2874  -22.1148   20.1989 C   0  0  0  0  0  0
  -28.7810  -23.5882   20.5739 C   0  0  2  0  0  0
  -28.1011  -24.8751   19.8467 C   0  0  0  0  0  0
  -29.4009  -21.1001   20.3538 N   0  0  0  0  0  0
  -29.8727  -15.8461   20.8383 N   0  0  0  0  0  0
  -31.1194  -24.2186   20.2704 O   0  0  0  0  0  0
  -31.6982  -21.3067   20.5053 O   0  0  0  0  0  0
  -28.8197  -20.5104   17.7169 F   0  0  0  0  0  0
  -31.4665  -12.5552   19.1768 H   0  0  0  0  0  0
  -30.3433  -11.4608   19.9358 H   0  0  0  0  0  0
  -29.7830  -11.7881   17.4935 H   0  0  0  0  0  0
  -29.6282  -13.5082   17.7525 H   0  0  0  0  0  0
  -27.8885  -11.2963   18.8985 H   0  0  0  0  0  0
  -27.3703  -12.5490   17.8047 H   0  0  0  0  0  0
  -27.6420  -14.2614   19.4979 H   0  0  0  0  0  0
  -28.7115  -12.1472   21.4292 H   0  0  0  0  0  0
  -28.4199  -13.8217   21.8162 H   0  0  0  0  0  0
  -25.2772   -9.5697   22.4753 H   0  0  0  0  0  0
  -23.9990   -7.4641   22.7476 H   0  0  0  0  0  0
  -21.0839   -8.8796   19.8946 H   0  0  0  0  0  0
  -22.3716  -10.9664   19.6156 H   0  0  0  0  0  0
  -21.2040   -7.6152   23.9749 H   0  0  0  0  0  0
  -21.1479   -6.0518   25.9087 H   0  0  0  0  0  0
  -22.0596   -2.7618   23.2863 H   0  0  0  0  0  0
  -22.4092  -11.9780   22.4728 H   0  0  0  0  0  0
  -21.1130  -13.1235   22.2773 H   0  0  0  0  0  0
  -24.6507  -15.8466   20.5359 H   0  0  0  0  0  0
  -26.2719  -15.6414   20.1080 H   0  0  0  0  0  0
  -26.7206  -32.5403   23.1087 H   0  0  0  0  0  0
  -25.0117  -33.9722   25.0439 H   0  0  0  0  0  0
  -22.7277  -31.3051   21.4010 H   0  0  0  0  0  0
  -23.3757  -35.9624   23.3291 H   0  0  0  0  0  0
  -24.3575  -36.8944   22.2058 H   0  0  0  0  0  0
  -23.7259  -37.6496   23.6681 H   0  0  0  0  0  0
  -26.1154  -31.5191   20.6139 H   0  0  0  0  0  0
  -26.8567  -30.8123   22.0171 H   0  0  0  0  0  0
  -28.1058  -28.8857   21.2467 H   0  0  0  0  0  0
  -25.9488  -25.9716   18.8806 H   0  0  0  0  0  0
  -23.9845  -27.3570   18.9377 H   0  0  0  0  0  0
  -23.7842  -30.6103   19.4106 H   0  0  0  0  0  0
  -22.7658  -29.2700   19.8403 H   0  0  0  0  0  0
  -25.1304  -36.1919   25.0803 H   0  0  0  0  0  0
  -20.9988  -28.3318   24.1389 H   0  0  0  0  0  0
  -20.5718  -26.2328   23.3614 H   0  0  0  0  0  0
  -21.6648  -26.7478   22.1190 H   0  0  0  0  0  0
  -19.6916  -25.6308   21.1263 H   0  0  0  0  0  0
  -19.6702  -27.3201   20.6744 H   0  0  0  0  0  0
  -17.4201  -26.6712   21.4024 H   0  0  0  0  0  0
  -18.0311  -26.0104   22.9028 H   0  0  0  0  0  0
  -19.7932  -30.7293   24.2283 H   0  0  0  0  0  0
  -17.5015  -31.6283   24.5180 H   0  0  0  0  0  0
  -15.5357  -30.3015   23.7664 H   0  0  0  0  0  0
  -15.8672  -28.0858   22.7064 H   0  0  0  0  0  0
  -24.5945  -30.7017   25.7780 H   0  0  0  0  0  0
  -24.8869  -32.2864   26.4853 H   0  0  0  0  0  0
  -25.8057  -30.8926   27.0261 H   0  0  0  0  0  0
  -26.2988  -29.6734   24.1277 H   0  0  0  0  0  0
  -27.4105  -29.7304   25.4757 H   0  0  0  0  0  0
  -27.8840  -30.4316   23.9478 H   0  0  0  0  0  0
  -27.2706  -33.3670   26.2050 H   0  0  0  0  0  0
  -28.3920  -32.6843   25.0376 H   0  0  0  0  0  0
  -28.0696  -31.8488   26.5490 H   0  0  0  0  0  0
  -28.2577  -38.0123   24.7517 H   0  0  0  0  0  0
  -28.1107  -36.2646   24.6283 H   0  0  0  0  0  0
  -27.2279  -37.1448   25.8856 H   0  0  0  0  0  0
  -20.9377  -29.8831   21.6893 H   0  0  0  0  0  0
  -26.0167  -38.2835   24.1437 H   0  0  0  0  0  0
  -29.3522  -16.0672   18.2542 H   0  0  0  0  0  0
  -28.8511  -18.0533   16.9261 H   0  0  0  0  0  0
  -29.8952  -18.5966   21.7359 H   0  0  0  0  0  0
  -27.9135  -22.1113   19.1759 H   0  0  0  0  0  0
  -27.4483  -21.8241   20.8306 H   0  0  0  0  0  0
  -28.6349  -23.7145   21.6460 H   0  0  0  0  0  0
  -27.0481  -24.6369   19.9791 H   0  0  0  0  0  0
  -28.2844  -24.7969   18.7737 H   0  0  0  0  0  0
  -29.0839  -15.6085   21.4220 H   0  0  0  0  0  0
  1 25  1  0  0  0
  1 30  2  0  0  0
  1 83  1  0  0  0
  2  3  1  0  0  0
  2 25  1  0  0  0
  2 87  1  0  0  0
  2 88  1  0  0  0
  3  4  1  0  0  0
  3 89  1  0  0  0
  3 90  1  0  0  0
  4  5  1  0  0  0
  4 91  1  0  0  0
  4 92  1  0  0  0
  5  6  1  0  0  0
  5 26  1  0  0  0
  5 93  1  0  0  0
  6 25  1  0  0  0
  6 94  1  0  0  0
  6 95  1  0  0  0
  7  8  2  0  0  0
  7 26  1  0  0  0
  7 29  1  0  0  0
  8  9  1  0  0  0
  8 22  1  0  0  0
  9 10  1  0  0  0
  9 27  2  0  0  0
 10 11  2  0  0  0
 10 15  1  0  0  0
 11 12  1  0  0  0
 11 96  1  0  0  0
 12 13  2  0  0  0
 12 97  1  0  0  0
 13 14  1  0  0  0
 13 31  1  0  0  0
 14 15  2  0  0  0
 14 98  1  0  0  0
 15 99  1  0  0  0
 16 17  2  0  0  0
 16 21  1  0  0  0
 16 31  1  0  0  0
 17 18  1  0  0  0
 17100  1  0  0  0
 18 19  2  0  0  0
 18101  1  0  0  0
 19 20  1  0  0  0
 19 24  1  0  0  0
 20 21  2  0  0  0
 20102  1  0  0  0
 21 23  1  0  0  0
 22 28  1  0  0  0
 22 32  2  0  0  0
 26 27  1  0  0  0
 28103  1  0  0  0
 28104  1  0  0  0
 29105  1  0  0  0
 29106  1  0  0  0
 33 34  1  0  0  0
 33 66  1  0  0  0
 33 70  2  0  0  0
 34 36  1  0  0  0
 34 59  1  0  0  0
 34107  1  0  0  0
 35 44  2  0  0  0
 35 45  1  0  0  0
 35 68  1  0  0  0
 36 56  1  0  0  0
 36108  1  0  0  0
 37 39  1  0  0  0
 37 47  1  0  0  0
 37 66  1  0  0  0
 37109  1  0  0  0
 38 43  2  0  0  0
 38 46  1  0  0  0
 38 47  1  0  0  0
 39 64  1  0  0  0
 39 67  2  0  0  0
 40 52  1  0  0  0
 40 53  2  0  0  0
 40 58  1  0  0  0
 41110  1  0  0  0
 41111  1  0  0  0
 41112  1  0  0  0
 41 48  1  0  0  0
 42 43  1  0  0  0
 42 66  1  0  0  0
 42113  1  0  0  0
 42114  1  0  0  0
 43 44  1  0  0  0
 44115  1  0  0  0
 45 46  2  0  0  0
 45116  1  0  0  0
 46117  1  0  0  0
 47118  1  0  0  0
 47119  1  0  0  0
 48 56  1  0  0  0
 48 65  1  0  0  0
 48120  1  0  0  0
 49 50  1  0  0  0
 49 53  1  0  0  0
 49 64  1  0  0  0
 49121  1  0  0  0
 50 51  1  0  0  0
 50122  1  0  0  0
 50123  1  0  0  0
 51 52  1  0  0  0
 51124  1  0  0  0
 51125  1  0  0  0
 52126  1  0  0  0
 52127  1  0  0  0
 53 54  1  0  0  0
 54 55  2  0  0  0
 54128  1  0  0  0
 55 57  1  0  0  0
 55129  1  0  0  0
 56 69  2  0  0  0
 57 58  2  0  0  0
 57130  1  0  0  0
 58131  1  0  0  0
 59 60  1  0  0  0
 59 61  1  0  0  0
 59 62  1  0  0  0
 60132  1  0  0  0
 60133  1  0  0  0
 60134  1  0  0  0
 61135  1  0  0  0
 61136  1  0  0  0
 61137  1  0  0  0
 62138  1  0  0  0
 62139  1  0  0  0
 62140  1  0  0  0
 63 65  1  0  0  0
 63141  1  0  0  0
 63142  1  0  0  0
 63143  1  0  0  0
 64144  1  0  0  0
 65145  1  0  0  0
 68 81  1  0  0  0
 71 72  2  0  0  0
 71 75  1  0  0  0
 71146  1  0  0  0
 72 76  1  0  0  0
 72147  1  0  0  0
 73 74  1  0  0  0
 73 75  2  0  0  0
 73148  1  0  0  0
 74 76  2  0  0  0
 74 82  1  0  0  0
 75 83  1  0  0  0
 76 86  1  0  0  0
 77 78  1  0  0  0
 77 80  1  0  0  0
 77 84  2  0  0  0
 78 82  1  0  0  0
 78 85  2  0  0  0
 79 80  1  0  0  0
 79 82  1  0  0  0
 79149  1  0  0  0
 79150  1  0  0  0
 80 81  1  0  0  0
 80151  1  0  0  0
 81152  1  0  0  0
 81153  1  0  0  0
 83154  1  0  0  0
M  ISO  4   1 100  68 101  81 101  83 100
M  END
> <chiral flag>
0

> <version>
0

> <s_m_source_file>
/data/baiqing/PycharmProjects/Reinvent-master-3.2/result/LINK_invent/BTK/process_docking_weight1_custom_product_contain_oxygen_bond_distance_aromatic_linkinvent_7_9_3/rearranged_h_0072.sdf

> <i_m_source_file_index>
41

> <r_mmod_Potential_Energy-OPLS-2005>
279.853179931641

> <r_mmod_Stretch_Energy-OPLS-2005>
129.256744384766

> <r_mmod_Bend_Energy-OPLS-2005>
202.46467590332

> <r_mmod_Torsional_Energy-OPLS-2005>
295.296478271484

> <r_mmod_Improper_Torsional_Energy-OPLS-2005>
6.95076656341553

> <r_mmod_Van_der_Waal_Energy-OPLS-2005>
135.076431274414

> <r_mmod_Electrostatic_Energy-OPLS-2005>
-318.308746337891

> <r_mmod_Solvation_Energy-OPLS-2005>
-257.999084472656

> <b_mmod_Minimization_Converged-OPLS-2005>
0

> <r_mmod_RMS_Derivative-OPLS-2005>
1.85124266147614

$$$$
41
                    3D
 Structure written by MMmdl.
165174  0  0  1  0            999 V2000
  -30.6756  -14.4860   20.5516 C   0  0  0  0  0  0
  -30.4202  -12.3116   19.4106 C   0  0  0  0  0  0
  -29.4949  -12.5321   18.1966 C   0  0  0  0  0  0
  -28.0079  -12.4096   18.5927 C   0  0  0  0  0  0
  -27.6573  -13.2150   19.8747 C   0  0  2  0  0  0
  -28.7024  -12.9727   20.9879 C   0  0  0  0  0  0
  -25.2542  -13.8166   20.5639 C   0  0  0  0  0  0
  -24.1813  -13.0426   20.9145 C   0  0  0  0  0  0
  -24.6369  -11.6899   20.8676 C   0  0  0  0  0  0
  -23.9034  -10.4280   21.0329 C   0  0  0  0  0  0
  -24.3609   -9.4209   21.9111 C   0  0  0  0  0  0
  -23.6289   -8.2245   22.0697 C   0  0  0  0  0  0
  -22.4259   -8.0265   21.3509 C   0  0  0  0  0  0
  -21.9885   -9.0224   20.4601 C   0  0  0  0  0  0
  -22.7201  -10.2104   20.2985 C   0  0  0  0  0  0
  -21.6859   -6.0701   22.5241 C   0  0  0  0  0  0
  -21.4046   -6.5602   23.8177 C   0  0  0  0  0  0
  -21.3671   -5.6761   24.9137 C   0  0  0  0  0  0
  -21.6047   -4.3025   24.7206 C   0  0  0  0  0  0
  -21.8840   -3.8108   23.4334 C   0  0  0  0  0  0
  -21.9208   -4.6925   22.3381 C   0  0  0  0  0  0
  -22.7839  -13.5194   21.1848 C   0  0  0  0  0  0
  -22.1664   -4.2099   21.0967 F   0  0  0  0  0  0
  -21.5636   -3.4524   25.7730 F   0  0  0  0  0  0
  -30.0311  -13.2932   20.4360 N   0  0  0  0  0  0
  -26.2984  -12.9353   20.3331 N   0  0  0  0  0  0
  -25.9299  -11.6497   20.5704 N   0  0  0  0  0  0
  -22.0512  -12.8179   22.0426 N   0  0  0  0  0  0
  -25.4278  -15.1887   20.4030 N   0  0  0  0  0  0
  -31.8236  -14.6634   20.1268 O   0  0  0  0  0  0
  -21.6650   -6.8840   21.4195 O   0  0  0  0  0  0
  -22.3484  -14.5466   20.6644 O   0  0  0  0  0  0
  -24.6177  -31.8656   23.2094 C   0  0  0  0  0  0
  -25.9052  -32.4827   23.8402 C   0  0  1  0  0  0
  -27.2214  -27.4139   20.0934 C   0  0  0  0  0  0
  -25.5929  -33.8633   24.2337 N   0  0  0  0  0  0
  -23.4069  -30.4917   21.5516 C   0  0  2  0  0  0
  -24.8492  -28.9579   20.1116 C   0  0  0  0  0  0
  -22.7433  -29.4659   22.4999 C   0  0  0  0  0  0
  -18.0270  -28.1345   22.8508 C   0  0  0  0  0  0
  -24.1489  -36.7321   23.2657 C   0  0  0  0  0  0
  -25.9387  -30.8266   21.3643 C   0  0  0  0  0  0
  -26.0147  -29.4635   20.7029 C   0  0  0  0  0  0
  -27.2092  -28.7024   20.6799 C   0  0  0  0  0  0
  -26.0420  -26.9343   19.4835 C   0  0  0  0  0  0
  -24.8612  -27.6962   19.4953 C   0  0  0  0  0  0
  -23.6132  -29.8269   20.1647 C   0  0  0  0  0  0
  -25.4113  -36.3130   24.0340 C   0  0  1  0  0  0
  -20.5875  -28.3651   23.1305 C   0  0  2  0  0  0
  -20.6760  -26.9394   22.5407 C   0  0  0  0  0  0
  -19.5740  -26.6369   21.5214 C   0  0  0  0  0  0
  -18.1918  -26.7910   22.1624 C   0  0  0  0  0  0
  -19.1522  -28.8816   23.2915 C   0  0  0  0  0  0
  -18.9448  -30.1427   23.8931 C   0  0  0  0  0  0
  -17.6437  -30.6575   24.0549 C   0  0  0  0  0  0
  -25.9056  -34.9487   23.5137 C   0  0  0  0  0  0
  -16.5333  -29.9060   23.6314 C   0  0  0  0  0  0
  -16.7260  -28.6454   23.0393 C   0  0  0  0  0  0
  -26.4475  -31.6612   25.0743 C   0  0  0  0  0  0
  -25.3739  -31.3634   26.1482 C   0  0  0  0  0  0
  -27.0303  -30.3064   24.6107 C   0  0  0  0  0  0
  -27.6075  -32.4305   25.7473 C   0  0  0  0  0  0
  -27.5569  -37.1815   24.8471 C   0  0  0  0  0  0
  -21.4165  -29.3013   22.3711 N   0  0  0  0  0  0
  -26.4290  -37.3798   23.9415 N   0  0  0  0  0  0
  -24.6736  -31.0746   22.0997 N   0  0  0  0  0  0
  -23.4200  -28.8234   23.3058 O   0  0  0  0  0  0
  -28.3516  -26.6195   20.1148 O   0  0  0  0  0  0
  -26.5612  -34.8933   22.4694 O   0  0  0  0  0  0
  -23.5362  -32.1387   23.7494 O   0  0  0  0  0  0
  -30.6817  -19.7086   21.0848 C   0  0  0  0  0  0
  -29.1965  -17.8418   20.5938 C   0  0  0  0  0  0
  -31.4394  -17.4098   21.4337 C   0  0  0  0  0  0
  -29.4308  -19.2432   20.6313 C   0  0  0  0  0  0
  -31.6792  -18.8017   21.4999 C   0  0  0  0  0  0
  -30.1969  -16.9115   20.9808 C   0  0  0  0  0  0
  -33.3530  -19.1040   23.2633 C   0  0  0  0  0  0
  -28.2674  -22.7268   20.5379 C   0  0  0  0  0  0
  -34.5180  -20.0217   23.5834 C   0  0  0  0  0  0
  -34.6131  -20.9328   22.3558 C   0  0  0  0  0  0
  -33.6888  -20.3089   21.3016 C   0  0  0  0  0  0
  -28.3192  -20.2257   20.2299 C   0  0  0  0  0  0
  -28.6025  -24.1016   19.9086 C   0  0  0  0  0  0
  -28.1758  -25.3335   20.7596 C   0  0  0  0  0  0
  -32.9013  -19.3076   22.0138 N   0  0  0  0  0  0
  -29.9048  -15.5096   20.9840 N   0  0  0  0  0  0
  -28.7274  -21.6135   19.9289 N   0  0  0  0  0  0
  -32.9132  -18.2920   24.0842 O   0  0  0  0  0  0
  -27.5666  -22.6681   21.5505 O   0  0  0  0  0  0
  -31.4652  -12.4102   19.1088 H   0  0  0  0  0  0
  -30.3155  -11.2960   19.7920 H   0  0  0  0  0  0
  -29.7268  -11.8222   17.4019 H   0  0  0  0  0  0
  -29.6842  -13.5247   17.7819 H   0  0  0  0  0  0
  -27.7810  -11.3521   18.7354 H   0  0  0  0  0  0
  -27.3751  -12.7436   17.7680 H   0  0  0  0  0  0
  -27.7017  -14.2702   19.6038 H   0  0  0  0  0  0
  -28.6784  -11.9266   21.2994 H   0  0  0  0  0  0
  -28.4670  -13.5513   21.8826 H   0  0  0  0  0  0
  -25.2754   -9.5710   22.4688 H   0  0  0  0  0  0
  -23.9993   -7.4646   22.7426 H   0  0  0  0  0  0
  -21.0815   -8.8709   19.8936 H   0  0  0  0  0  0
  -22.3596  -10.9628   19.6103 H   0  0  0  0  0  0
  -21.2046   -7.6108   23.9667 H   0  0  0  0  0  0
  -21.1476   -6.0486   25.9037 H   0  0  0  0  0  0
  -22.0621   -2.7570   23.2843 H   0  0  0  0  0  0
  -22.4166  -11.9878   22.4865 H   0  0  0  0  0  0
  -21.1095  -13.1115   22.2591 H   0  0  0  0  0  0
  -24.6657  -15.8503   20.5092 H   0  0  0  0  0  0
  -26.2776  -15.6217   20.0658 H   0  0  0  0  0  0
  -26.7139  -32.5503   23.1182 H   0  0  0  0  0  0
  -25.0075  -33.9792   25.0485 H   0  0  0  0  0  0
  -22.6979  -31.3103   21.4139 H   0  0  0  0  0  0
  -23.3763  -35.9639   23.3327 H   0  0  0  0  0  0
  -24.3606  -36.8932   22.2080 H   0  0  0  0  0  0
  -23.7212  -37.6518   23.6660 H   0  0  0  0  0  0
  -26.0593  -31.5958   20.6000 H   0  0  0  0  0  0
  -26.8264  -30.8700   21.9839 H   0  0  0  0  0  0
  -28.1145  -29.0911   21.1250 H   0  0  0  0  0  0
  -26.0283  -25.9611   19.0117 H   0  0  0  0  0  0
  -23.9643  -27.3042   19.0347 H   0  0  0  0  0  0
  -23.7182  -30.6042   19.4054 H   0  0  0  0  0  0
  -22.7370  -29.2480   19.8729 H   0  0  0  0  0  0
  -25.1273  -36.2021   25.0819 H   0  0  0  0  0  0
  -20.9933  -28.3200   24.1440 H   0  0  0  0  0  0
  -20.5665  -26.2268   23.3583 H   0  0  0  0  0  0
  -21.6625  -26.7432   22.1209 H   0  0  0  0  0  0
  -19.6904  -25.6280   21.1242 H   0  0  0  0  0  0
  -19.6697  -27.3174   20.6748 H   0  0  0  0  0  0
  -17.4200  -26.6697   21.4010 H   0  0  0  0  0  0
  -18.0320  -26.0009   22.8985 H   0  0  0  0  0  0
  -19.7941  -30.7230   24.2318 H   0  0  0  0  0  0
  -17.5012  -31.6276   24.5129 H   0  0  0  0  0  0
  -15.5348  -30.2980   23.7615 H   0  0  0  0  0  0
  -15.8671  -28.0757   22.7147 H   0  0  0  0  0  0
  -24.6003  -30.6895   25.7789 H   0  0  0  0  0  0
  -24.8828  -32.2730   26.4930 H   0  0  0  0  0  0
  -25.8106  -30.8816   27.0249 H   0  0  0  0  0  0
  -26.2825  -29.6856   24.1167 H   0  0  0  0  0  0
  -27.4099  -29.7267   25.4545 H   0  0  0  0  0  0
  -27.8658  -30.4414   23.9229 H   0  0  0  0  0  0
  -27.2766  -33.3641   26.2011 H   0  0  0  0  0  0
  -28.3872  -32.6798   25.0269 H   0  0  0  0  0  0
  -28.0747  -31.8445   26.5394 H   0  0  0  0  0  0
  -28.2590  -38.0116   24.7536 H   0  0  0  0  0  0
  -28.1048  -36.2649   24.6256 H   0  0  0  0  0  0
  -27.2287  -37.1412   25.8872 H   0  0  0  0  0  0
  -20.9320  -29.8730   21.6928 H   0  0  0  0  0  0
  -26.0203  -38.2875   24.1413 H   0  0  0  0  0  0
  -30.8657  -20.7687   21.1599 H   0  0  0  0  0  0
  -28.2339  -17.4763   20.2621 H   0  0  0  0  0  0
  -32.2092  -16.7251   21.7545 H   0  0  0  0  0  0
  -35.4204  -19.4241   23.7184 H   0  0  0  0  0  0
  -34.3193  -20.5812   24.4995 H   0  0  0  0  0  0
  -35.6368  -21.0102   21.9875 H   0  0  0  0  0  0
  -34.2832  -21.9426   22.6068 H   0  0  0  0  0  0
  -34.2726  -19.7937   20.5369 H   0  0  0  0  0  0
  -33.0780  -21.0606   20.8004 H   0  0  0  0  0  0
  -27.5622  -20.2028   21.0171 H   0  0  0  0  0  0
  -27.8310  -19.8354   19.3350 H   0  0  0  0  0  0
  -28.1033  -24.1426   18.9391 H   0  0  0  0  0  0
  -29.6726  -24.1487   19.7141 H   0  0  0  0  0  0
  -28.7754  -25.3542   21.6698 H   0  0  0  0  0  0
  -27.1476  -25.1984   21.1024 H   0  0  0  0  0  0
  -28.9485  -15.2542   21.1810 H   0  0  0  0  0  0
  -29.3092  -21.7369   19.1096 H   0  0  0  0  0  0
  1 25  1  0  0  0
  1 30  2  0  0  0
  1 86  1  0  0  0
  2  3  1  0  0  0
  2 25  1  0  0  0
  2 90  1  0  0  0
  2 91  1  0  0  0
  3  4  1  0  0  0
  3 92  1  0  0  0
  3 93  1  0  0  0
  4  5  1  0  0  0
  4 94  1  0  0  0
  4 95  1  0  0  0
  5  6  1  0  0  0
  5 26  1  0  0  0
  5 96  1  0  0  0
  6 25  1  0  0  0
  6 97  1  0  0  0
  6 98  1  0  0  0
  7  8  2  0  0  0
  7 26  1  0  0  0
  7 29  1  0  0  0
  8  9  1  0  0  0
  8 22  1  0  0  0
  9 10  1  0  0  0
  9 27  2  0  0  0
 10 11  2  0  0  0
 10 15  1  0  0  0
 11 12  1  0  0  0
 11 99  1  0  0  0
 12 13  2  0  0  0
 12100  1  0  0  0
 13 14  1  0  0  0
 13 31  1  0  0  0
 14 15  2  0  0  0
 14101  1  0  0  0
 15102  1  0  0  0
 16 17  2  0  0  0
 16 21  1  0  0  0
 16 31  1  0  0  0
 17 18  1  0  0  0
 17103  1  0  0  0
 18 19  2  0  0  0
 18104  1  0  0  0
 19 20  1  0  0  0
 19 24  1  0  0  0
 20 21  2  0  0  0
 20105  1  0  0  0
 21 23  1  0  0  0
 22 28  1  0  0  0
 22 32  2  0  0  0
 26 27  1  0  0  0
 28106  1  0  0  0
 28107  1  0  0  0
 29108  1  0  0  0
 29109  1  0  0  0
 33 34  1  0  0  0
 33 66  1  0  0  0
 33 70  2  0  0  0
 34 36  1  0  0  0
 34 59  1  0  0  0
 34110  1  0  0  0
 35 44  2  0  0  0
 35 45  1  0  0  0
 35 68  1  0  0  0
 36 56  1  0  0  0
 36111  1  0  0  0
 37 39  1  0  0  0
 37 47  1  0  0  0
 37 66  1  0  0  0
 37112  1  0  0  0
 38 43  2  0  0  0
 38 46  1  0  0  0
 38 47  1  0  0  0
 39 64  1  0  0  0
 39 67  2  0  0  0
 40 52  1  0  0  0
 40 53  2  0  0  0
 40 58  1  0  0  0
 41113  1  0  0  0
 41114  1  0  0  0
 41115  1  0  0  0
 41 48  1  0  0  0
 42 43  1  0  0  0
 42 66  1  0  0  0
 42116  1  0  0  0
 42117  1  0  0  0
 43 44  1  0  0  0
 44118  1  0  0  0
 45 46  2  0  0  0
 45119  1  0  0  0
 46120  1  0  0  0
 47121  1  0  0  0
 47122  1  0  0  0
 48 56  1  0  0  0
 48 65  1  0  0  0
 48123  1  0  0  0
 49 50  1  0  0  0
 49 53  1  0  0  0
 49 64  1  0  0  0
 49124  1  0  0  0
 50 51  1  0  0  0
 50125  1  0  0  0
 50126  1  0  0  0
 51 52  1  0  0  0
 51127  1  0  0  0
 51128  1  0  0  0
 52129  1  0  0  0
 52130  1  0  0  0
 53 54  1  0  0  0
 54 55  2  0  0  0
 54131  1  0  0  0
 55 57  1  0  0  0
 55132  1  0  0  0
 56 69  2  0  0  0
 57 58  2  0  0  0
 57133  1  0  0  0
 58134  1  0  0  0
 59 60  1  0  0  0
 59 61  1  0  0  0
 59 62  1  0  0  0
 60135  1  0  0  0
 60136  1  0  0  0
 60137  1  0  0  0
 61138  1  0  0  0
 61139  1  0  0  0
 61140  1  0  0  0
 62141  1  0  0  0
 62142  1  0  0  0
 62143  1  0  0  0
 63 65  1  0  0  0
 63144  1  0  0  0
 63145  1  0  0  0
 63146  1  0  0  0
 64147  1  0  0  0
 65148  1  0  0  0
 68 84  1  0  0  0
 71 74  2  0  0  0
 71 75  1  0  0  0
 71149  1  0  0  0
 72 74  1  0  0  0
 72 76  2  0  0  0
 72150  1  0  0  0
 73 75  2  0  0  0
 73 76  1  0  0  0
 73151  1  0  0  0
 74 82  1  0  0  0
 75 85  1  0  0  0
 76 86  1  0  0  0
 77 79  1  0  0  0
 77 85  1  0  0  0
 77 88  2  0  0  0
 78 83  1  0  0  0
 78 87  1  0  0  0
 78 89  2  0  0  0
 79 80  1  0  0  0
 79152  1  0  0  0
 79153  1  0  0  0
 80 81  1  0  0  0
 80154  1  0  0  0
 80155  1  0  0  0
 81 85  1  0  0  0
 81156  1  0  0  0
 81157  1  0  0  0
 82 87  1  0  0  0
 82158  1  0  0  0
 82159  1  0  0  0
 83 84  1  0  0  0
 83160  1  0  0  0
 83161  1  0  0  0
 84162  1  0  0  0
 84163  1  0  0  0
 86164  1  0  0  0
 87165  1  0  0  0
M  ISO  4   1 100  68 101  84 101  86 100
M  END
> <chiral flag>
0

> <version>
0

> <s_m_source_file>
/data/baiqing/PycharmProjects/Reinvent-master-3.2/result/LINK_invent/BTK/process_docking_weight1_custom_product_contain_oxygen_bond_distance_aromatic_linkinvent_7_9_3/rearranged_h_0072.sdf

> <i_m_source_file_index>
42

> <r_mmod_Potential_Energy-OPLS-2005>
-38.4724502563477

> <r_mmod_Stretch_Energy-OPLS-2005>
42.4803695678711

> <r_mmod_Bend_Energy-OPLS-2005>
117.677093505859

> <r_mmod_Torsional_Energy-OPLS-2005>
309.937225341797

> <r_mmod_Improper_Torsional_Energy-OPLS-2005>
5.41008949279785

> <r_mmod_Van_der_Waal_Energy-OPLS-2005>
150.008041381836

> <r_mmod_Electrostatic_Energy-OPLS-2005>
-420.470947265625

> <r_mmod_Solvation_Energy-OPLS-2005>
-260.207702636719

> <b_mmod_Minimization_Converged-OPLS-2005>
0

> <r_mmod_RMS_Derivative-OPLS-2005>
4.58818340301514

$$$$
42
                    3D
 Structure written by MMmdl.
153161  0  0  1  0            999 V2000
  -30.5330  -14.8604   20.4332 C   0  0  0  0  0  0
  -30.4466  -12.5243   19.4865 C   0  0  0  0  0  0
  -29.5232  -12.5292   18.2447 C   0  0  0  0  0  0
  -28.0495  -12.3353   18.6537 C   0  0  0  0  0  0
  -27.6410  -13.2378   19.8483 C   0  0  2  0  0  0
  -28.6844  -13.1856   20.9854 C   0  0  0  0  0  0
  -25.2505  -13.8193   20.5685 C   0  0  0  0  0  0
  -24.1794  -13.0442   20.9202 C   0  0  0  0  0  0
  -24.6385  -11.6920   20.8728 C   0  0  0  0  0  0
  -23.9061  -10.4294   21.0397 C   0  0  0  0  0  0
  -24.3619   -9.4214   21.9175 C   0  0  0  0  0  0
  -23.6290   -8.2248   22.0755 C   0  0  0  0  0  0
  -22.4266   -8.0284   21.3552 C   0  0  0  0  0  0
  -21.9902   -9.0253   20.4657 C   0  0  0  0  0  0
  -22.7232  -10.2132   20.3054 C   0  0  0  0  0  0
  -21.6852   -6.0731   22.5278 C   0  0  0  0  0  0
  -21.4017   -6.5635   23.8212 C   0  0  0  0  0  0
  -21.3660   -5.6790   24.9176 C   0  0  0  0  0  0
  -21.6043   -4.3049   24.7229 C   0  0  0  0  0  0
  -21.8818   -3.8147   23.4347 C   0  0  0  0  0  0
  -21.9192   -4.6961   22.3405 C   0  0  0  0  0  0
  -22.7814  -13.5225   21.1867 C   0  0  0  0  0  0
  -22.1663   -4.2150   21.0980 F   0  0  0  0  0  0
  -21.5631   -3.4531   25.7742 F   0  0  0  0  0  0
  -29.9750  -13.5903   20.4097 N   0  0  0  0  0  0
  -26.2930  -12.9408   20.3247 N   0  0  0  0  0  0
  -25.9322  -11.6546   20.5706 N   0  0  0  0  0  0
  -22.0460  -12.8226   22.0426 N   0  0  0  0  0  0
  -25.4193  -15.1922   20.4132 N   0  0  0  0  0  0
  -31.7071  -14.9965   20.0716 O   0  0  0  0  0  0
  -21.6642   -6.8875   21.4240 O   0  0  0  0  0  0
  -22.3492  -14.5525   20.6705 O   0  0  0  0  0  0
  -24.6401  -31.8447   23.1900 C   0  0  0  0  0  0
  -25.9183  -32.4698   23.8277 C   0  0  1  0  0  0
  -27.2231  -27.1689   20.1266 C   0  0  0  0  0  0
  -25.5936  -33.8504   24.2184 N   0  0  0  0  0  0
  -23.4430  -30.4660   21.5337 C   0  0  2  0  0  0
  -24.8923  -28.9003   20.1041 C   0  0  0  0  0  0
  -22.7552  -29.4551   22.4845 C   0  0  0  0  0  0
  -18.0296  -28.1402   22.8465 C   0  0  0  0  0  0
  -24.1488  -36.7266   23.2642 C   0  0  0  0  0  0
  -25.9972  -30.7263   21.3877 C   0  0  0  0  0  0
  -26.0664  -29.3431   20.7238 C   0  0  0  0  0  0
  -27.2272  -28.4891   20.7255 C   0  0  0  0  0  0
  -26.0199  -26.8212   19.4699 C   0  0  0  0  0  0
  -24.8800  -27.6518   19.4666 C   0  0  0  0  0  0
  -23.6675  -29.7971   20.1515 C   0  0  0  0  0  0
  -25.4116  -36.3031   24.0313 C   0  0  1  0  0  0
  -20.5910  -28.3720   23.1229 C   0  0  2  0  0  0
  -20.6776  -26.9420   22.5401 C   0  0  0  0  0  0
  -19.5754  -26.6381   21.5204 C   0  0  0  0  0  0
  -18.1938  -26.7937   22.1621 C   0  0  0  0  0  0
  -19.1555  -28.8881   23.2844 C   0  0  0  0  0  0
  -18.9473  -30.1478   23.8870 C   0  0  0  0  0  0
  -17.6472  -30.6599   24.0559 C   0  0  0  0  0  0
  -25.9071  -34.9409   23.5061 C   0  0  0  0  0  0
  -16.5362  -29.9092   23.6336 C   0  0  0  0  0  0
  -16.7284  -28.6518   23.0341 C   0  0  0  0  0  0
  -26.4496  -31.6580   25.0735 C   0  0  0  0  0  0
  -25.3675  -31.3789   26.1438 C   0  0  0  0  0  0
  -27.0367  -30.2969   24.6352 C   0  0  0  0  0  0
  -27.6031  -32.4349   25.7520 C   0  0  0  0  0  0
  -27.5577  -37.1775   24.8446 C   0  0  0  0  0  0
  -21.4244  -29.3052   22.3604 N   0  0  0  0  0  0
  -26.4271  -37.3750   23.9419 N   0  0  0  0  0  0
  -24.7130  -31.0328   22.0924 N   0  0  0  0  0  0
  -23.4203  -28.8092   23.2984 O   0  0  0  0  0  0
  -28.2989  -26.2238   20.2502 O   0  0  0  0  0  0
  -26.5662  -34.8905   22.4644 O   0  0  0  0  0  0
  -23.5528  -32.1313   23.7140 O   0  0  0  0  0  0
  -30.1373  -19.5933   19.2373 C   0  0  0  0  0  0
  -30.3334  -18.1755   19.4704 C   0  0  0  0  0  0
  -28.8770  -18.3385   21.3256 C   0  0  0  0  0  0
  -29.3118  -20.4746   20.0269 C   0  0  0  0  0  0
  -29.6900  -17.4592   20.5250 C   0  0  0  0  0  0
  -28.6956  -19.7640   21.1052 C   0  0  0  0  0  0
  -28.9986  -21.9707   19.5265 C   0  0  0  0  0  0
  -29.3970  -25.0359   18.4601 C   0  0  0  0  0  0
  -28.7271  -23.3566   20.3680 C   0  0  0  0  0  0
  -28.3919  -24.8219   19.6039 C   0  0  1  0  0  0
  -28.9308  -25.4824   17.2994 N   0  0  0  0  0  0
  -29.7040  -15.9541   20.7502 N   0  0  0  0  0  0
  -28.9543  -22.1034   18.3002 O   0  0  0  0  0  0
  -30.5994  -24.8356   18.6272 O   0  0  0  0  0  0
  -27.8573  -20.4374   21.9288 F   0  0  0  0  0  0
  -31.4850  -12.6742   19.1849 H   0  0  0  0  0  0
  -30.4194  -11.5525   19.9816 H   0  0  0  0  0  0
  -29.8264  -11.7500   17.5441 H   0  0  0  0  0  0
  -29.6306  -13.4761   17.7135 H   0  0  0  0  0  0
  -27.9152  -11.2868   18.9218 H   0  0  0  0  0  0
  -27.3923  -12.5175   17.8022 H   0  0  0  0  0  0
  -27.6292  -14.2572   19.4609 H   0  0  0  0  0  0
  -28.7443  -12.1804   21.4069 H   0  0  0  0  0  0
  -28.3971  -13.8420   21.8077 H   0  0  0  0  0  0
  -25.2770   -9.5690   22.4733 H   0  0  0  0  0  0
  -24.0017   -7.4636   22.7459 H   0  0  0  0  0  0
  -21.0839   -8.8763   19.8951 H   0  0  0  0  0  0
  -22.3690  -10.9664   19.6155 H   0  0  0  0  0  0
  -21.2009   -7.6141   23.9716 H   0  0  0  0  0  0
  -21.1481   -6.0518   25.9077 H   0  0  0  0  0  0
  -22.0596   -2.7609   23.2843 H   0  0  0  0  0  0
  -22.4087  -11.9919   22.4864 H   0  0  0  0  0  0
  -21.1069  -13.1234   22.2610 H   0  0  0  0  0  0
  -24.6484  -15.8419   20.5216 H   0  0  0  0  0  0
  -26.2602  -15.6312   20.0606 H   0  0  0  0  0  0
  -26.7258  -32.5297   23.1013 H   0  0  0  0  0  0
  -25.0001  -33.9607   25.0276 H   0  0  0  0  0  0
  -22.7450  -31.2915   21.3800 H   0  0  0  0  0  0
  -23.3752  -35.9592   23.3262 H   0  0  0  0  0  0
  -24.3583  -36.8943   22.2065 H   0  0  0  0  0  0
  -23.7245  -37.6452   23.6710 H   0  0  0  0  0  0
  -26.1552  -31.4849   20.6196 H   0  0  0  0  0  0
  -26.8665  -30.7687   22.0323 H   0  0  0  0  0  0
  -28.1197  -28.8195   21.2386 H   0  0  0  0  0  0
  -25.8952  -25.8704   18.9804 H   0  0  0  0  0  0
  -23.9805  -27.3070   18.9750 H   0  0  0  0  0  0
  -23.8011  -30.5712   19.3953 H   0  0  0  0  0  0
  -22.7836  -29.2364   19.8427 H   0  0  0  0  0  0
  -25.1298  -36.1844   25.0802 H   0  0  0  0  0  0
  -20.9998  -28.3315   24.1355 H   0  0  0  0  0  0
  -20.5647  -26.2332   23.3619 H   0  0  0  0  0  0
  -21.6644  -26.7415   22.1213 H   0  0  0  0  0  0
  -19.6905  -25.6282   21.1261 H   0  0  0  0  0  0
  -19.6696  -27.3164   20.6711 H   0  0  0  0  0  0
  -17.4194  -26.6656   21.4045 H   0  0  0  0  0  0
  -18.0357  -26.0104   22.9045 H   0  0  0  0  0  0
  -19.7956  -30.7299   24.2224 H   0  0  0  0  0  0
  -17.5033  -31.6274   24.5167 H   0  0  0  0  0  0
  -15.5363  -30.2986   23.7692 H   0  0  0  0  0  0
  -15.8682  -28.0845   22.7052 H   0  0  0  0  0  0
  -24.5831  -30.7161   25.7762 H   0  0  0  0  0  0
  -24.8887  -32.2984   26.4824 H   0  0  0  0  0  0
  -25.7944  -30.8980   27.0248 H   0  0  0  0  0  0
  -26.2999  -29.6700   24.1319 H   0  0  0  0  0  0
  -27.3902  -29.7279   25.4962 H   0  0  0  0  0  0
  -27.8937  -30.4192   23.9726 H   0  0  0  0  0  0
  -27.2611  -33.3643   26.2088 H   0  0  0  0  0  0
  -28.3846  -32.6926   25.0360 H   0  0  0  0  0  0
  -28.0699  -31.8491   26.5448 H   0  0  0  0  0  0
  -28.2542  -38.0120   24.7546 H   0  0  0  0  0  0
  -28.1119  -36.2654   24.6185 H   0  0  0  0  0  0
  -27.2306  -37.1323   25.8846 H   0  0  0  0  0  0
  -20.9441  -29.8780   21.6801 H   0  0  0  0  0  0
  -26.0127  -38.2803   24.1465 H   0  0  0  0  0  0
  -30.6301  -20.0164   18.3722 H   0  0  0  0  0  0
  -30.9550  -17.6232   18.7782 H   0  0  0  0  0  0
  -28.3242  -17.9061   22.1468 H   0  0  0  0  0  0
  -29.6024  -23.5015   20.9999 H   0  0  0  0  0  0
  -27.9062  -23.1375   21.0491 H   0  0  0  0  0  0
  -27.4481  -24.6027   19.1158 H   0  0  0  0  0  0
  -27.9439  -25.6615   17.1856 H   0  0  0  0  0  0
  -29.5553  -25.6379   16.5220 H   0  0  0  0  0  0
  -28.8591  -15.6238   21.1901 H   0  0  0  0  0  0
  1 25  1  0  0  0
  1 30  2  0  0  0
  1 82  1  0  0  0
  2  3  1  0  0  0
  2 25  1  0  0  0
  2 86  1  0  0  0
  2 87  1  0  0  0
  3  4  1  0  0  0
  3 88  1  0  0  0
  3 89  1  0  0  0
  4  5  1  0  0  0
  4 90  1  0  0  0
  4 91  1  0  0  0
  5  6  1  0  0  0
  5 26  1  0  0  0
  5 92  1  0  0  0
  6 25  1  0  0  0
  6 93  1  0  0  0
  6 94  1  0  0  0
  7  8  2  0  0  0
  7 26  1  0  0  0
  7 29  1  0  0  0
  8  9  1  0  0  0
  8 22  1  0  0  0
  9 10  1  0  0  0
  9 27  2  0  0  0
 10 11  2  0  0  0
 10 15  1  0  0  0
 11 12  1  0  0  0
 11 95  1  0  0  0
 12 13  2  0  0  0
 12 96  1  0  0  0
 13 14  1  0  0  0
 13 31  1  0  0  0
 14 15  2  0  0  0
 14 97  1  0  0  0
 15 98  1  0  0  0
 16 17  2  0  0  0
 16 21  1  0  0  0
 16 31  1  0  0  0
 17 18  1  0  0  0
 17 99  1  0  0  0
 18 19  2  0  0  0
 18100  1  0  0  0
 19 20  1  0  0  0
 19 24  1  0  0  0
 20 21  2  0  0  0
 20101  1  0  0  0
 21 23  1  0  0  0
 22 28  1  0  0  0
 22 32  2  0  0  0
 26 27  1  0  0  0
 28102  1  0  0  0
 28103  1  0  0  0
 29104  1  0  0  0
 29105  1  0  0  0
 33 34  1  0  0  0
 33 66  1  0  0  0
 33 70  2  0  0  0
 34 36  1  0  0  0
 34 59  1  0  0  0
 34106  1  0  0  0
 35 44  2  0  0  0
 35 45  1  0  0  0
 35 68  1  0  0  0
 36 56  1  0  0  0
 36107  1  0  0  0
 37 39  1  0  0  0
 37 47  1  0  0  0
 37 66  1  0  0  0
 37108  1  0  0  0
 38 43  2  0  0  0
 38 46  1  0  0  0
 38 47  1  0  0  0
 39 64  1  0  0  0
 39 67  2  0  0  0
 40 52  1  0  0  0
 40 53  2  0  0  0
 40 58  1  0  0  0
 41109  1  0  0  0
 41110  1  0  0  0
 41111  1  0  0  0
 41 48  1  0  0  0
 42 43  1  0  0  0
 42 66  1  0  0  0
 42112  1  0  0  0
 42113  1  0  0  0
 43 44  1  0  0  0
 44114  1  0  0  0
 45 46  2  0  0  0
 45115  1  0  0  0
 46116  1  0  0  0
 47117  1  0  0  0
 47118  1  0  0  0
 48 56  1  0  0  0
 48 65  1  0  0  0
 48119  1  0  0  0
 49 50  1  0  0  0
 49 53  1  0  0  0
 49 64  1  0  0  0
 49120  1  0  0  0
 50 51  1  0  0  0
 50121  1  0  0  0
 50122  1  0  0  0
 51 52  1  0  0  0
 51123  1  0  0  0
 51124  1  0  0  0
 52125  1  0  0  0
 52126  1  0  0  0
 53 54  1  0  0  0
 54 55  2  0  0  0
 54127  1  0  0  0
 55 57  1  0  0  0
 55128  1  0  0  0
 56 69  2  0  0  0
 57 58  2  0  0  0
 57129  1  0  0  0
 58130  1  0  0  0
 59 60  1  0  0  0
 59 61  1  0  0  0
 59 62  1  0  0  0
 60131  1  0  0  0
 60132  1  0  0  0
 60133  1  0  0  0
 61134  1  0  0  0
 61135  1  0  0  0
 61136  1  0  0  0
 62137  1  0  0  0
 62138  1  0  0  0
 62139  1  0  0  0
 63 65  1  0  0  0
 63140  1  0  0  0
 63141  1  0  0  0
 63142  1  0  0  0
 64143  1  0  0  0
 65144  1  0  0  0
 68 80  1  0  0  0
 71 72  2  0  0  0
 71 74  1  0  0  0
 71145  1  0  0  0
 72 75  1  0  0  0
 72146  1  0  0  0
 73 75  2  0  0  0
 73 76  1  0  0  0
 73147  1  0  0  0
 74 76  2  0  0  0
 74 77  1  0  0  0
 75 82  1  0  0  0
 76 85  1  0  0  0
 77 79  1  0  0  0
 77 83  2  0  0  0
 78 80  1  0  0  0
 78 81  1  0  0  0
 78 84  2  0  0  0
 79148  1  0  0  0
 79149  1  0  0  0
 79 80  1  0  0  0
 80150  1  0  0  0
 81151  1  0  0  0
 81152  1  0  0  0
 82153  1  0  0  0
M  ISO  4   1 100  68 101  80 101  82 100
M  END
> <chiral flag>
0

> <version>
0

> <s_m_source_file>
/data/baiqing/PycharmProjects/Reinvent-master-3.2/result/LINK_invent/BTK/process_docking_weight1_custom_product_contain_oxygen_bond_distance_aromatic_linkinvent_7_9_3/rearranged_h_0072.sdf

> <i_m_source_file_index>
43

> <r_mmod_Potential_Energy-OPLS-2005>
236.737075805664

> <r_mmod_Stretch_Energy-OPLS-2005>
206.761627197266

> <r_mmod_Bend_Energy-OPLS-2005>
253.137283325195

> <r_mmod_Torsional_Energy-OPLS-2005>
249.342849731445

> <r_mmod_Improper_Torsional_Energy-OPLS-2005>
5.14774465560913

> <r_mmod_Van_der_Waal_Energy-OPLS-2005>
136.444488525391

> <r_mmod_Electrostatic_Energy-OPLS-2005>
-509.864440917969

> <r_mmod_Solvation_Energy-OPLS-2005>
-253.053863525391

> <b_mmod_Minimization_Converged-OPLS-2005>
0

> <r_mmod_RMS_Derivative-OPLS-2005>
1.77979958057404

$$$$
43
                    3D
 Structure written by MMmdl.
165174  0  0  1  0            999 V2000
  -30.7578  -14.4496   20.6044 C   0  0  0  0  0  0
  -30.4140  -12.3212   19.4116 C   0  0  0  0  0  0
  -29.4881  -12.5171   18.1943 C   0  0  0  0  0  0
  -28.0083  -12.3776   18.6020 C   0  0  0  0  0  0
  -27.6585  -13.2068   19.8660 C   0  0  2  0  0  0
  -28.6997  -12.9626   20.9773 C   0  0  0  0  0  0
  -25.2599  -13.8158   20.5672 C   0  0  0  0  0  0
  -24.1847  -13.0447   20.9185 C   0  0  0  0  0  0
  -24.6388  -11.6908   20.8715 C   0  0  0  0  0  0
  -23.9049  -10.4300   21.0392 C   0  0  0  0  0  0
  -24.3608   -9.4212   21.9170 C   0  0  0  0  0  0
  -23.6289   -8.2241   22.0747 C   0  0  0  0  0  0
  -22.4273   -8.0279   21.3533 C   0  0  0  0  0  0
  -21.9894   -9.0254   20.4647 C   0  0  0  0  0  0
  -22.7211  -10.2137   20.3054 C   0  0  0  0  0  0
  -21.6855   -6.0732   22.5276 C   0  0  0  0  0  0
  -21.4015   -6.5636   23.8209 C   0  0  0  0  0  0
  -21.3659   -5.6787   24.9167 C   0  0  0  0  0  0
  -21.6046   -4.3053   24.7218 C   0  0  0  0  0  0
  -21.8821   -3.8141   23.4340 C   0  0  0  0  0  0
  -21.9197   -4.6959   22.3396 C   0  0  0  0  0  0
  -22.7876  -13.5271   21.1838 C   0  0  0  0  0  0
  -22.1669   -4.2142   21.0975 F   0  0  0  0  0  0
  -21.5624   -3.4545   25.7731 F   0  0  0  0  0  0
  -30.0227  -13.3090   20.4358 N   0  0  0  0  0  0
  -26.3006  -12.9320   20.3290 N   0  0  0  0  0  0
  -25.9304  -11.6485   20.5687 N   0  0  0  0  0  0
  -22.0501  -12.8278   22.0396 N   0  0  0  0  0  0
  -25.4364  -15.1866   20.4067 N   0  0  0  0  0  0
  -31.9008  -14.5420   20.1432 O   0  0  0  0  0  0
  -21.6643   -6.8869   21.4233 O   0  0  0  0  0  0
  -22.3580  -14.5579   20.6671 O   0  0  0  0  0  0
  -24.6133  -31.8708   23.2160 C   0  0  0  0  0  0
  -25.9043  -32.4836   23.8429 C   0  0  1  0  0  0
  -27.2174  -27.4282   20.1020 C   0  0  0  0  0  0
  -25.5908  -33.8636   24.2356 N   0  0  0  0  0  0
  -23.4009  -30.4988   21.5548 C   0  0  2  0  0  0
  -24.8474  -28.9662   20.1226 C   0  0  0  0  0  0
  -22.7418  -29.4683   22.4997 C   0  0  0  0  0  0
  -18.0288  -28.1367   22.8482 C   0  0  0  0  0  0
  -24.1485  -36.7315   23.2636 C   0  0  0  0  0  0
  -25.9334  -30.8263   21.3811 C   0  0  0  0  0  0
  -26.0063  -29.4580   20.7381 C   0  0  0  0  0  0
  -27.1938  -28.6872   20.7448 C   0  0  0  0  0  0
  -26.0622  -26.9895   19.4278 C   0  0  0  0  0  0
  -24.8672  -27.7253   19.4700 C   0  0  0  0  0  0
  -23.6130  -29.8363   20.1690 C   0  0  0  0  0  0
  -25.4107  -36.3122   24.0336 C   0  0  1  0  0  0
  -20.5871  -28.3680   23.1314 C   0  0  2  0  0  0
  -20.6786  -26.9403   22.5468 C   0  0  0  0  0  0
  -19.5792  -26.6355   21.5248 C   0  0  0  0  0  0
  -18.1966  -26.7897   22.1638 C   0  0  0  0  0  0
  -19.1522  -28.8843   23.2878 C   0  0  0  0  0  0
  -18.9444  -30.1456   23.8870 C   0  0  0  0  0  0
  -17.6442  -30.6597   24.0522 C   0  0  0  0  0  0
  -25.9037  -34.9484   23.5146 C   0  0  0  0  0  0
  -16.5344  -29.9078   23.6300 C   0  0  0  0  0  0
  -16.7274  -28.6483   23.0343 C   0  0  0  0  0  0
  -26.4476  -31.6609   25.0746 C   0  0  0  0  0  0
  -25.3752  -31.3714   26.1503 C   0  0  0  0  0  0
  -27.0307  -30.3047   24.6127 C   0  0  0  0  0  0
  -27.6062  -32.4320   25.7493 C   0  0  0  0  0  0
  -27.5585  -37.1815   24.8464 C   0  0  0  0  0  0
  -21.4154  -29.3028   22.3708 N   0  0  0  0  0  0
  -26.4300  -37.3802   23.9403 N   0  0  0  0  0  0
  -24.6663  -31.0811   22.1076 N   0  0  0  0  0  0
  -23.4203  -28.8234   23.3038 O   0  0  0  0  0  0
  -28.3554  -26.6595   20.0198 O   0  0  0  0  0  0
  -26.5593  -34.8924   22.4703 O   0  0  0  0  0  0
  -23.5329  -32.1476   23.7554 O   0  0  0  0  0  0
  -28.3635  -18.4081   20.6386 C   0  0  0  0  0  0
  -30.6029  -19.2875   21.0039 C   0  0  0  0  0  0
  -27.8378  -19.7076   20.8045 C   0  0  0  0  0  0
  -30.0738  -20.5834   21.1926 C   0  0  0  0  0  0
  -29.7557  -18.1941   20.7005 C   0  0  0  0  0  0
  -28.6860  -20.8171   21.0495 C   0  0  0  0  0  0
  -28.5082  -23.2313   21.7188 C   0  0  0  0  0  0
  -30.3425  -16.8935   20.3188 C   0  0  0  0  0  0
  -27.0576  -23.9807   20.0062 C   0  0  0  0  0  0
  -27.0694  -22.4599   20.0873 C   0  0  0  0  0  0
  -27.7165  -24.4949   21.2988 C   0  0  1  0  0  0
  -26.6402  -24.7934   22.3670 C   0  0  0  0  0  0
  -29.3423  -15.7625   22.2439 C   0  0  0  0  0  0
  -28.6407  -25.7547   21.1033 C   0  0  0  0  0  0
  -28.1453  -22.1422   21.0072 N   0  0  0  0  0  0
  -30.0829  -15.7023   20.9594 N   0  0  0  0  0  0
  -31.1588  -16.9762   19.2616 N   0  3  0  0  0  0
  -29.3456  -23.2492   22.6256 O   0  0  0  0  0  0
  -31.4564  -12.4088   19.0981 H   0  0  0  0  0  0
  -30.3197  -11.3071   19.8025 H   0  0  0  0  0  0
  -29.7308  -11.7932   17.4148 H   0  0  0  0  0  0
  -29.6593  -13.5028   17.7583 H   0  0  0  0  0  0
  -27.8124  -11.3204   18.7842 H   0  0  0  0  0  0
  -27.3610  -12.6661   17.7728 H   0  0  0  0  0  0
  -27.7075  -14.2590   19.5849 H   0  0  0  0  0  0
  -28.6898  -11.9078   21.2595 H   0  0  0  0  0  0
  -28.4265  -13.4762   21.8903 H   0  0  0  0  0  0
  -25.2759   -9.5701   22.4732 H   0  0  0  0  0  0
  -23.9991   -7.4642   22.7485 H   0  0  0  0  0  0
  -21.0811   -8.8782   19.8982 H   0  0  0  0  0  0
  -22.3654  -10.9673   19.6174 H   0  0  0  0  0  0
  -21.2005   -7.6143   23.9714 H   0  0  0  0  0  0
  -21.1482   -6.0511   25.9072 H   0  0  0  0  0  0
  -22.0598   -2.7606   23.2840 H   0  0  0  0  0  0
  -22.4113  -11.9945   22.4787 H   0  0  0  0  0  0
  -21.1127  -13.1329   22.2603 H   0  0  0  0  0  0
  -24.6577  -15.8316   20.4838 H   0  0  0  0  0  0
  -26.2476  -15.5987   19.9674 H   0  0  0  0  0  0
  -26.7108  -32.5559   23.1191 H   0  0  0  0  0  0
  -25.0042  -33.9791   25.0490 H   0  0  0  0  0  0
  -22.6884  -31.3152   21.4184 H   0  0  0  0  0  0
  -23.3740  -35.9659   23.3320 H   0  0  0  0  0  0
  -24.3576  -36.8909   22.2048 H   0  0  0  0  0  0
  -23.7246  -37.6527   23.6641 H   0  0  0  0  0  0
  -26.0511  -31.5851   20.6067 H   0  0  0  0  0  0
  -26.8203  -30.8818   21.9997 H   0  0  0  0  0  0
  -28.0880  -29.0587   21.2249 H   0  0  0  0  0  0
  -26.0817  -26.0935   18.8309 H   0  0  0  0  0  0
  -23.9869  -27.3561   18.9623 H   0  0  0  0  0  0
  -23.7279  -30.6132   19.4115 H   0  0  0  0  0  0
  -22.7368  -29.2588   19.8671 H   0  0  0  0  0  0
  -25.1288  -36.1992   25.0829 H   0  0  0  0  0  0
  -20.9962  -28.3290   24.1431 H   0  0  0  0  0  0
  -20.5679  -26.2299   23.3673 H   0  0  0  0  0  0
  -21.6679  -26.7464   22.1302 H   0  0  0  0  0  0
  -19.6977  -25.6260   21.1302 H   0  0  0  0  0  0
  -19.6734  -27.3151   20.6767 H   0  0  0  0  0  0
  -17.4244  -26.6579   21.4040 H   0  0  0  0  0  0
  -18.0404  -26.0064   22.9075 H   0  0  0  0  0  0
  -19.7914  -30.7287   24.2222 H   0  0  0  0  0  0
  -17.4994  -31.6290   24.5093 H   0  0  0  0  0  0
  -15.5338  -30.2972   23.7612 H   0  0  0  0  0  0
  -15.8677  -28.0788   22.7069 H   0  0  0  0  0  0
  -24.5912  -30.7076   25.7837 H   0  0  0  0  0  0
  -24.8962  -32.2874   26.4974 H   0  0  0  0  0  0
  -25.8110  -30.8863   27.0246 H   0  0  0  0  0  0
  -26.2857  -29.6801   24.1182 H   0  0  0  0  0  0
  -27.4068  -29.7287   25.4589 H   0  0  0  0  0  0
  -27.8700  -30.4344   23.9290 H   0  0  0  0  0  0
  -27.2690  -33.3597   26.2120 H   0  0  0  0  0  0
  -28.3839  -32.6915   25.0301 H   0  0  0  0  0  0
  -28.0770  -31.8420   26.5364 H   0  0  0  0  0  0
  -28.2617  -38.0098   24.7507 H   0  0  0  0  0  0
  -28.1069  -36.2636   24.6303 H   0  0  0  0  0  0
  -27.2302  -37.1476   25.8866 H   0  0  0  0  0  0
  -20.9329  -29.8698   21.6880 H   0  0  0  0  0  0
  -26.0191  -38.2882   24.1406 H   0  0  0  0  0  0
  -27.6977  -17.5940   20.3860 H   0  0  0  0  0  0
  -31.6742  -19.1468   21.0489 H   0  0  0  0  0  0
  -26.7726  -19.8492   20.6930 H   0  0  0  0  0  0
  -30.7525  -21.4048   21.3697 H   0  0  0  0  0  0
  -26.0246  -24.3088   19.9026 H   0  0  0  0  0  0
  -27.6164  -24.3089   19.1283 H   0  0  0  0  0  0
  -27.2215  -22.0071   19.1066 H   0  0  0  0  0  0
  -26.1239  -22.0932   20.4897 H   0  0  0  0  0  0
  -26.0304  -23.9160   22.5862 H   0  0  0  0  0  0
  -25.9657  -25.5833   22.0383 H   0  0  0  0  0  0
  -27.0881  -25.1199   23.3061 H   0  0  0  0  0  0
  -29.6254  -14.9536   22.9180 H   0  0  0  0  0  0
  -28.2651  -15.7190   22.0727 H   0  0  0  0  0  0
  -29.5505  -16.6712   22.8091 H   0  0  0  0  0  0
  -29.6632  -25.4208   20.9225 H   0  0  0  0  0  0
  -28.6988  -26.3253   22.0311 H   0  0  0  0  0  0
  -31.3019  -17.8566   18.7914 H   0  0  0  0  0  0
  -31.7617  -16.1862   19.0620 H   0  0  0  0  0  0
  1 25  1  0  0  0
  1 30  2  0  0  0
  1 86  1  0  0  0
  2  3  1  0  0  0
  2 25  1  0  0  0
  2 89  1  0  0  0
  2 90  1  0  0  0
  3  4  1  0  0  0
  3 91  1  0  0  0
  3 92  1  0  0  0
  4  5  1  0  0  0
  4 93  1  0  0  0
  4 94  1  0  0  0
  5  6  1  0  0  0
  5 26  1  0  0  0
  5 95  1  0  0  0
  6 25  1  0  0  0
  6 96  1  0  0  0
  6 97  1  0  0  0
  7  8  2  0  0  0
  7 26  1  0  0  0
  7 29  1  0  0  0
  8  9  1  0  0  0
  8 22  1  0  0  0
  9 10  1  0  0  0
  9 27  2  0  0  0
 10 11  2  0  0  0
 10 15  1  0  0  0
 11 12  1  0  0  0
 11 98  1  0  0  0
 12 13  2  0  0  0
 12 99  1  0  0  0
 13 14  1  0  0  0
 13 31  1  0  0  0
 14 15  2  0  0  0
 14100  1  0  0  0
 15101  1  0  0  0
 16 17  2  0  0  0
 16 21  1  0  0  0
 16 31  1  0  0  0
 17 18  1  0  0  0
 17102  1  0  0  0
 18 19  2  0  0  0
 18103  1  0  0  0
 19 20  1  0  0  0
 19 24  1  0  0  0
 20 21  2  0  0  0
 20104  1  0  0  0
 21 23  1  0  0  0
 22 28  1  0  0  0
 22 32  2  0  0  0
 26 27  1  0  0  0
 28105  1  0  0  0
 28106  1  0  0  0
 29107  1  0  0  0
 29108  1  0  0  0
 33 34  1  0  0  0
 33 66  1  0  0  0
 33 70  2  0  0  0
 34 36  1  0  0  0
 34 59  1  0  0  0
 34109  1  0  0  0
 35 44  2  0  0  0
 35 45  1  0  0  0
 35 68  1  0  0  0
 36 56  1  0  0  0
 36110  1  0  0  0
 37 39  1  0  0  0
 37 47  1  0  0  0
 37 66  1  0  0  0
 37111  1  0  0  0
 38 43  2  0  0  0
 38 46  1  0  0  0
 38 47  1  0  0  0
 39 64  1  0  0  0
 39 67  2  0  0  0
 40 52  1  0  0  0
 40 53  2  0  0  0
 40 58  1  0  0  0
 41112  1  0  0  0
 41113  1  0  0  0
 41114  1  0  0  0
 41 48  1  0  0  0
 42 43  1  0  0  0
 42 66  1  0  0  0
 42115  1  0  0  0
 42116  1  0  0  0
 43 44  1  0  0  0
 44117  1  0  0  0
 45 46  2  0  0  0
 45118  1  0  0  0
 46119  1  0  0  0
 47120  1  0  0  0
 47121  1  0  0  0
 48 56  1  0  0  0
 48 65  1  0  0  0
 48122  1  0  0  0
 49 50  1  0  0  0
 49 53  1  0  0  0
 49 64  1  0  0  0
 49123  1  0  0  0
 50 51  1  0  0  0
 50124  1  0  0  0
 50125  1  0  0  0
 51 52  1  0  0  0
 51126  1  0  0  0
 51127  1  0  0  0
 52128  1  0  0  0
 52129  1  0  0  0
 53 54  1  0  0  0
 54 55  2  0  0  0
 54130  1  0  0  0
 55 57  1  0  0  0
 55131  1  0  0  0
 56 69  2  0  0  0
 57 58  2  0  0  0
 57132  1  0  0  0
 58133  1  0  0  0
 59 60  1  0  0  0
 59 61  1  0  0  0
 59 62  1  0  0  0
 60134  1  0  0  0
 60135  1  0  0  0
 60136  1  0  0  0
 61137  1  0  0  0
 61138  1  0  0  0
 61139  1  0  0  0
 62140  1  0  0  0
 62141  1  0  0  0
 62142  1  0  0  0
 63 65  1  0  0  0
 63143  1  0  0  0
 63144  1  0  0  0
 63145  1  0  0  0
 64146  1  0  0  0
 65147  1  0  0  0
 68 84  1  0  0  0
 71 73  2  0  0  0
 71 75  1  0  0  0
 71148  1  0  0  0
 72 74  1  0  0  0
 72 75  2  0  0  0
 72149  1  0  0  0
 73 76  1  0  0  0
 73150  1  0  0  0
 74 76  2  0  0  0
 74151  1  0  0  0
 75 78  1  0  0  0
 76 85  1  0  0  0
 77 81  1  0  0  0
 77 85  1  0  0  0
 77 88  2  0  0  0
 78 86  1  0  0  0
 78 87  2  0  0  0
 79 80  1  0  0  0
 79 81  1  0  0  0
 79152  1  0  0  0
 79153  1  0  0  0
 80 85  1  0  0  0
 80154  1  0  0  0
 80155  1  0  0  0
 81 82  1  0  0  0
 81 84  1  0  0  0
 82156  1  0  0  0
 82157  1  0  0  0
 82158  1  0  0  0
 83 86  1  0  0  0
 83159  1  0  0  0
 83160  1  0  0  0
 83161  1  0  0  0
 84162  1  0  0  0
 84163  1  0  0  0
 87164  1  0  0  0
 87165  1  0  0  0
M  CHG  1  87   1
M  ISO  4   1 100  68 101  84 101  86 100
M  END
> <chiral flag>
0

> <version>
0

> <s_m_source_file>
/data/baiqing/PycharmProjects/Reinvent-master-3.2/result/LINK_invent/BTK/process_docking_weight1_custom_product_contain_oxygen_bond_distance_aromatic_linkinvent_7_9_3/rearranged_h_0072.sdf

> <i_m_source_file_index>
44

> <r_mmod_Potential_Energy-OPLS-2005>
32.973560333252

> <r_mmod_Stretch_Energy-OPLS-2005>
45.8953132629395

> <r_mmod_Bend_Energy-OPLS-2005>
147.452682495117

> <r_mmod_Torsional_Energy-OPLS-2005>
366.735260009766

> <r_mmod_Improper_Torsional_Energy-OPLS-2005>
12.9116172790527

> <r_mmod_Van_der_Waal_Energy-OPLS-2005>
175.371109008789

> <r_mmod_Electrostatic_Energy-OPLS-2005>
-342.889038085938

> <r_mmod_Solvation_Energy-OPLS-2005>
-388.833679199219

> <b_mmod_Minimization_Converged-OPLS-2005>
0

> <r_mmod_RMS_Derivative-OPLS-2005>
1.80289673805237

$$$$
44
                    3D
 Structure written by MMmdl.
161170  0  0  1  0            999 V2000
  -30.5961  -14.6905   20.4943 C   0  0  0  0  0  0
  -30.4482  -12.4242   19.4603 C   0  0  0  0  0  0
  -29.5145  -12.5153   18.2304 C   0  0  0  0  0  0
  -28.0404  -12.3393   18.6444 C   0  0  0  0  0  0
  -27.6555  -13.2165   19.8652 C   0  0  2  0  0  0
  -28.7010  -13.0843   20.9962 C   0  0  0  0  0  0
  -25.2577  -13.8165   20.5678 C   0  0  0  0  0  0
  -24.1848  -13.0438   20.9182 C   0  0  0  0  0  0
  -24.6410  -11.6907   20.8729 C   0  0  0  0  0  0
  -23.9064  -10.4290   21.0397 C   0  0  0  0  0  0
  -24.3619   -9.4204   21.9174 C   0  0  0  0  0  0
  -23.6285   -8.2237   22.0750 C   0  0  0  0  0  0
  -22.4265   -8.0289   21.3542 C   0  0  0  0  0  0
  -21.9896   -9.0263   20.4651 C   0  0  0  0  0  0
  -22.7233  -10.2139   20.3052 C   0  0  0  0  0  0
  -21.6860   -6.0731   22.5274 C   0  0  0  0  0  0
  -21.4024   -6.5634   23.8211 C   0  0  0  0  0  0
  -21.3656   -5.6783   24.9169 C   0  0  0  0  0  0
  -21.6045   -4.3046   24.7219 C   0  0  0  0  0  0
  -21.8823   -3.8143   23.4336 C   0  0  0  0  0  0
  -21.9200   -4.6959   22.3399 C   0  0  0  0  0  0
  -22.7865  -13.5247   21.1839 C   0  0  0  0  0  0
  -22.1664   -4.2152   21.0971 F   0  0  0  0  0  0
  -21.5617   -3.4531   25.7725 F   0  0  0  0  0  0
  -30.0110  -13.4481   20.4330 N   0  0  0  0  0  0
  -26.3010  -12.9345   20.3326 N   0  0  0  0  0  0
  -25.9347  -11.6499   20.5765 N   0  0  0  0  0  0
  -22.0502  -12.8252   22.0404 N   0  0  0  0  0  0
  -25.4299  -15.1885   20.4098 N   0  0  0  0  0  0
  -31.7471  -14.8679   20.0825 O   0  0  0  0  0  0
  -21.6629   -6.8878   21.4246 O   0  0  0  0  0  0
  -22.3551  -14.5532   20.6650 O   0  0  0  0  0  0
  -24.6302  -31.8568   23.1994 C   0  0  0  0  0  0
  -25.9141  -32.4747   23.8331 C   0  0  1  0  0  0
  -27.2223  -27.2809   20.1203 C   0  0  0  0  0  0
  -25.5949  -33.8553   24.2259 N   0  0  0  0  0  0
  -23.4251  -30.4799   21.5437 C   0  0  2  0  0  0
  -24.8709  -28.9320   20.1092 C   0  0  0  0  0  0
  -22.7498  -29.4594   22.4912 C   0  0  0  0  0  0
  -18.0301  -28.1380   22.8465 C   0  0  0  0  0  0
  -24.1493  -36.7293   23.2635 C   0  0  0  0  0  0
  -25.9701  -30.7733   21.3773 C   0  0  0  0  0  0
  -26.0422  -29.3992   20.7180 C   0  0  0  0  0  0
  -27.2191  -28.5861   20.7152 C   0  0  0  0  0  0
  -26.0231  -26.8793   19.4852 C   0  0  0  0  0  0
  -24.8655  -27.6776   19.4843 C   0  0  0  0  0  0
  -23.6419  -29.8178   20.1582 C   0  0  0  0  0  0
  -25.4108  -36.3064   24.0326 C   0  0  1  0  0  0
  -20.5899  -28.3686   23.1267 C   0  0  2  0  0  0
  -20.6788  -26.9400   22.5406 C   0  0  0  0  0  0
  -19.5767  -26.6373   21.5205 C   0  0  0  0  0  0
  -18.1947  -26.7921   22.1609 C   0  0  0  0  0  0
  -19.1549  -28.8855   23.2864 C   0  0  0  0  0  0
  -18.9474  -30.1455   23.8877 C   0  0  0  0  0  0
  -17.6473  -30.6568   24.0565 C   0  0  0  0  0  0
  -25.9050  -34.9435   23.5093 C   0  0  0  0  0  0
  -16.5368  -29.9063   23.6330 C   0  0  0  0  0  0
  -16.7291  -28.6494   23.0331 C   0  0  0  0  0  0
  -26.4505  -31.6566   25.0714 C   0  0  0  0  0  0
  -25.3738  -31.3745   26.1447 C   0  0  0  0  0  0
  -27.0331  -30.2972   24.6197 C   0  0  0  0  0  0
  -27.6053  -32.4306   25.7490 C   0  0  0  0  0  0
  -27.5575  -37.1795   24.8451 C   0  0  0  0  0  0
  -21.4201  -29.3038   22.3656 N   0  0  0  0  0  0
  -26.4286  -37.3761   23.9404 N   0  0  0  0  0  0
  -24.6941  -31.0543   22.0962 N   0  0  0  0  0  0
  -23.4201  -28.8134   23.3001 O   0  0  0  0  0  0
  -28.3267  -26.3986   20.1779 O   0  0  0  0  0  0
  -26.5617  -34.8908   22.4656 O   0  0  0  0  0  0
  -23.5465  -32.1387   23.7304 O   0  0  0  0  0  0
  -29.7879  -19.5007   21.6439 C   0  0  0  0  0  0
  -29.9539  -18.0867   21.7967 C   0  0  0  0  0  0
  -29.5153  -17.8047   19.4805 C   0  0  0  0  0  0
  -29.3289  -19.2258   19.3332 C   0  0  0  0  0  0
  -29.4639  -20.1716   20.4227 C   0  0  0  0  0  0
  -29.8327  -17.1830   20.7141 C   0  0  0  0  0  0
  -28.8990  -22.6905   21.2726 C   0  0  0  0  0  0
  -28.9563  -19.6500   17.9672 C   0  0  0  0  0  0
  -29.2078  -22.5226   19.2280 C   0  0  0  0  0  0
  -29.2009  -23.7949   20.1623 C   0  0  2  0  0  0
  -30.0938  -19.8430   16.9912 C   0  0  0  0  0  0
  -30.5525  -24.4656   20.4286 C   0  0  0  0  0  0
  -28.0953  -24.9385   19.9221 C   0  0  0  0  0  0
  -27.7580  -19.8282   17.5996 N   0  0  0  0  0  0
  -29.3167  -21.6598   20.4114 N   0  0  0  0  0  0
  -29.7955  -15.7249   20.9230 N   0  0  0  0  0  0
  -28.4641  -22.6623   22.4052 O   0  0  0  0  0  0
  -31.4884  -12.5622   19.1582 H   0  0  0  0  0  0
  -30.4009  -11.4318   19.9116 H   0  0  0  0  0  0
  -29.7852  -11.7614   17.4892 H   0  0  0  0  0  0
  -29.6445  -13.4812   17.7392 H   0  0  0  0  0  0
  -27.8934  -11.2866   18.8901 H   0  0  0  0  0  0
  -27.3824  -12.5495   17.8008 H   0  0  0  0  0  0
  -27.6697  -14.2498   19.5181 H   0  0  0  0  0  0
  -28.7279  -12.0621   21.3760 H   0  0  0  0  0  0
  -28.4372  -13.7110   21.8497 H   0  0  0  0  0  0
  -25.2779   -9.5665   22.4737 H   0  0  0  0  0  0
  -24.0009   -7.4624   22.7462 H   0  0  0  0  0  0
  -21.0828   -8.8785   19.8961 H   0  0  0  0  0  0
  -22.3708  -10.9664   19.6151 H   0  0  0  0  0  0
  -21.2019   -7.6147   23.9706 H   0  0  0  0  0  0
  -21.1472   -6.0519   25.9072 H   0  0  0  0  0  0
  -22.0605   -2.7610   23.2836 H   0  0  0  0  0  0
  -22.4136  -11.9950   22.4841 H   0  0  0  0  0  0
  -21.1108  -13.1282   22.2561 H   0  0  0  0  0  0
  -24.6601  -15.8406   20.5131 H   0  0  0  0  0  0
  -26.2776  -15.6267   20.0732 H   0  0  0  0  0  0
  -26.7205  -32.5403   23.1067 H   0  0  0  0  0  0
  -25.0087  -33.9680   25.0403 H   0  0  0  0  0  0
  -22.7207  -31.3021   21.4005 H   0  0  0  0  0  0
  -23.3744  -35.9635   23.3287 H   0  0  0  0  0  0
  -24.3593  -36.8926   22.2052 H   0  0  0  0  0  0
  -23.7255  -37.6495   23.6670 H   0  0  0  0  0  0
  -26.1091  -31.5348   20.6085 H   0  0  0  0  0  0
  -26.8495  -30.8206   22.0086 H   0  0  0  0  0  0
  -28.1124  -28.9400   21.2105 H   0  0  0  0  0  0
  -25.9376  -25.9245   18.9913 H   0  0  0  0  0  0
  -23.9694  -27.3105   19.0031 H   0  0  0  0  0  0
  -23.7673  -30.5987   19.4068 H   0  0  0  0  0  0
  -22.7598  -29.2534   19.8486 H   0  0  0  0  0  0
  -25.1283  -36.1911   25.0815 H   0  0  0  0  0  0
  -20.9991  -28.3276   24.1389 H   0  0  0  0  0  0
  -20.5682  -26.2295   23.3612 H   0  0  0  0  0  0
  -21.6660  -26.7416   22.1212 H   0  0  0  0  0  0
  -19.6932  -25.6286   21.1238 H   0  0  0  0  0  0
  -19.6711  -27.3183   20.6739 H   0  0  0  0  0  0
  -17.4213  -26.6667   21.4021 H   0  0  0  0  0  0
  -18.0342  -26.0071   22.9010 H   0  0  0  0  0  0
  -19.7948  -30.7288   24.2221 H   0  0  0  0  0  0
  -17.5018  -31.6240   24.5179 H   0  0  0  0  0  0
  -15.5364  -30.2957   23.7657 H   0  0  0  0  0  0
  -15.8690  -28.0816   22.7028 H   0  0  0  0  0  0
  -24.5906  -30.7079   25.7812 H   0  0  0  0  0  0
  -24.8941  -32.2934   26.4838 H   0  0  0  0  0  0
  -25.8076  -30.8965   27.0240 H   0  0  0  0  0  0
  -26.2903  -29.6723   24.1216 H   0  0  0  0  0  0
  -27.3997  -29.7221   25.4711 H   0  0  0  0  0  0
  -27.8796  -30.4223   23.9435 H   0  0  0  0  0  0
  -27.2644  -33.3597   26.2074 H   0  0  0  0  0  0
  -28.3867  -32.6886   25.0327 H   0  0  0  0  0  0
  -28.0715  -31.8431   26.5408 H   0  0  0  0  0  0
  -28.2584  -38.0101   24.7490 H   0  0  0  0  0  0
  -28.1088  -36.2634   24.6280 H   0  0  0  0  0  0
  -27.2310  -37.1437   25.8860 H   0  0  0  0  0  0
  -20.9384  -29.8778   21.6876 H   0  0  0  0  0  0
  -26.0166  -38.2835   24.1410 H   0  0  0  0  0  0
  -29.9087  -20.0988   22.5362 H   0  0  0  0  0  0
  -30.1619  -17.6962   22.7822 H   0  0  0  0  0  0
  -29.3562  -17.1687   18.6196 H   0  0  0  0  0  0
  -30.0676  -22.4716   18.5567 H   0  0  0  0  0  0
  -28.2683  -22.3911   18.6874 H   0  0  0  0  0  0
  -31.0042  -20.1332   17.5155 H   0  0  0  0  0  0
  -29.8535  -20.6223   16.2674 H   0  0  0  0  0  0
  -30.2871  -18.9146   16.4538 H   0  0  0  0  0  0
  -31.3226  -23.7448   20.7063 H   0  0  0  0  0  0
  -30.4838  -25.1910   21.2400 H   0  0  0  0  0  0
  -30.9117  -24.9953   19.5462 H   0  0  0  0  0  0
  -27.1992  -24.6529   20.4746 H   0  0  0  0  0  0
  -27.8185  -24.8697   18.8704 H   0  0  0  0  0  0
  -27.0983  -19.6529   18.3510 H   0  0  0  0  0  0
  -28.9443  -15.3919   21.3508 H   0  0  0  0  0  0
  1 25  1  0  0  0
  1 30  2  0  0  0
  1 86  1  0  0  0
  2  3  1  0  0  0
  2 25  1  0  0  0
  2 88  1  0  0  0
  2 89  1  0  0  0
  3  4  1  0  0  0
  3 90  1  0  0  0
  3 91  1  0  0  0
  4  5  1  0  0  0
  4 92  1  0  0  0
  4 93  1  0  0  0
  5  6  1  0  0  0
  5 26  1  0  0  0
  5 94  1  0  0  0
  6 25  1  0  0  0
  6 95  1  0  0  0
  6 96  1  0  0  0
  7  8  2  0  0  0
  7 26  1  0  0  0
  7 29  1  0  0  0
  8  9  1  0  0  0
  8 22  1  0  0  0
  9 10  1  0  0  0
  9 27  2  0  0  0
 10 11  2  0  0  0
 10 15  1  0  0  0
 11 12  1  0  0  0
 11 97  1  0  0  0
 12 13  2  0  0  0
 12 98  1  0  0  0
 13 14  1  0  0  0
 13 31  1  0  0  0
 14 15  2  0  0  0
 14 99  1  0  0  0
 15100  1  0  0  0
 16 17  2  0  0  0
 16 21  1  0  0  0
 16 31  1  0  0  0
 17 18  1  0  0  0
 17101  1  0  0  0
 18 19  2  0  0  0
 18102  1  0  0  0
 19 20  1  0  0  0
 19 24  1  0  0  0
 20 21  2  0  0  0
 20103  1  0  0  0
 21 23  1  0  0  0
 22 28  1  0  0  0
 22 32  2  0  0  0
 26 27  1  0  0  0
 28104  1  0  0  0
 28105  1  0  0  0
 29106  1  0  0  0
 29107  1  0  0  0
 33 34  1  0  0  0
 33 66  1  0  0  0
 33 70  2  0  0  0
 34 36  1  0  0  0
 34 59  1  0  0  0
 34108  1  0  0  0
 35 44  2  0  0  0
 35 45  1  0  0  0
 35 68  1  0  0  0
 36 56  1  0  0  0
 36109  1  0  0  0
 37 39  1  0  0  0
 37 47  1  0  0  0
 37 66  1  0  0  0
 37110  1  0  0  0
 38 43  2  0  0  0
 38 46  1  0  0  0
 38 47  1  0  0  0
 39 64  1  0  0  0
 39 67  2  0  0  0
 40 52  1  0  0  0
 40 53  2  0  0  0
 40 58  1  0  0  0
 41111  1  0  0  0
 41112  1  0  0  0
 41113  1  0  0  0
 41 48  1  0  0  0
 42 43  1  0  0  0
 42 66  1  0  0  0
 42114  1  0  0  0
 42115  1  0  0  0
 43 44  1  0  0  0
 44116  1  0  0  0
 45 46  2  0  0  0
 45117  1  0  0  0
 46118  1  0  0  0
 47119  1  0  0  0
 47120  1  0  0  0
 48 56  1  0  0  0
 48 65  1  0  0  0
 48121  1  0  0  0
 49 50  1  0  0  0
 49 53  1  0  0  0
 49 64  1  0  0  0
 49122  1  0  0  0
 50 51  1  0  0  0
 50123  1  0  0  0
 50124  1  0  0  0
 51 52  1  0  0  0
 51125  1  0  0  0
 51126  1  0  0  0
 52127  1  0  0  0
 52128  1  0  0  0
 53 54  1  0  0  0
 54 55  2  0  0  0
 54129  1  0  0  0
 55 57  1  0  0  0
 55130  1  0  0  0
 56 69  2  0  0  0
 57 58  2  0  0  0
 57131  1  0  0  0
 58132  1  0  0  0
 59 60  1  0  0  0
 59 61  1  0  0  0
 59 62  1  0  0  0
 60133  1  0  0  0
 60134  1  0  0  0
 60135  1  0  0  0
 61136  1  0  0  0
 61137  1  0  0  0
 61138  1  0  0  0
 62139  1  0  0  0
 62140  1  0  0  0
 62141  1  0  0  0
 63 65  1  0  0  0
 63142  1  0  0  0
 63143  1  0  0  0
 63144  1  0  0  0
 64145  1  0  0  0
 65146  1  0  0  0
 68 83  1  0  0  0
 71 72  2  0  0  0
 71 75  1  0  0  0
 71147  1  0  0  0
 72 76  1  0  0  0
 72148  1  0  0  0
 73 74  1  0  0  0
 73 76  2  0  0  0
 73149  1  0  0  0
 74 75  2  0  0  0
 74 78  1  0  0  0
 75 85  1  0  0  0
 76 86  1  0  0  0
 77 80  1  0  0  0
 77 85  1  0  0  0
 77 87  2  0  0  0
 78 81  1  0  0  0
 78 84  2  0  0  0
 79 80  1  0  0  0
 79 85  1  0  0  0
 79150  1  0  0  0
 79151  1  0  0  0
 80 82  1  0  0  0
 80 83  1  0  0  0
 81152  1  0  0  0
 81153  1  0  0  0
 81154  1  0  0  0
 82155  1  0  0  0
 82156  1  0  0  0
 82157  1  0  0  0
 83158  1  0  0  0
 83159  1  0  0  0
 84160  1  0  0  0
 86161  1  0  0  0
M  ISO  4   1 100  68 101  83 101  86 100
M  END
> <chiral flag>
0

> <version>
0

> <s_m_source_file>
/data/baiqing/PycharmProjects/Reinvent-master-3.2/result/LINK_invent/BTK/process_docking_weight1_custom_product_contain_oxygen_bond_distance_aromatic_linkinvent_7_9_3/rearranged_h_0072.sdf

> <i_m_source_file_index>
45

> <r_mmod_Potential_Energy-OPLS-2005>
177.268768310547

> <r_mmod_Stretch_Energy-OPLS-2005>
104.938583374023

> <r_mmod_Bend_Energy-OPLS-2005>
194.493621826172

> <r_mmod_Torsional_Energy-OPLS-2005>
286.184112548828

> <r_mmod_Improper_Torsional_Energy-OPLS-2005>
5.36818218231201

> <r_mmod_Van_der_Waal_Energy-OPLS-2005>
139.135360717773

> <r_mmod_Electrostatic_Energy-OPLS-2005>
-389.622283935547

> <r_mmod_Solvation_Energy-OPLS-2005>
-230.572631835938

> <b_mmod_Minimization_Converged-OPLS-2005>
0

> <r_mmod_RMS_Derivative-OPLS-2005>
2.49449181556702

$$$$
45
                    3D
 Structure written by MMmdl.
156165  0  0  1  0            999 V2000
  -30.5959  -14.7934   20.5229 C   0  0  0  0  0  0
  -30.4373  -12.5065   19.4540 C   0  0  0  0  0  0
  -29.5062  -12.5402   18.2155 C   0  0  0  0  0  0
  -28.0271  -12.3467   18.6169 C   0  0  0  0  0  0
  -27.6367  -13.2169   19.8416 C   0  0  2  0  0  0
  -28.6847  -13.0542   20.9589 C   0  0  0  0  0  0
  -25.2446  -13.8138   20.5595 C   0  0  0  0  0  0
  -24.1752  -13.0401   20.9171 C   0  0  0  0  0  0
  -24.6357  -11.6890   20.8732 C   0  0  0  0  0  0
  -23.9053  -10.4273   21.0419 C   0  0  0  0  0  0
  -24.3605   -9.4200   21.9201 C   0  0  0  0  0  0
  -23.6293   -8.2224   22.0752 C   0  0  0  0  0  0
  -22.4272   -8.0263   21.3545 C   0  0  0  0  0  0
  -21.9903   -9.0228   20.4650 C   0  0  0  0  0  0
  -22.7224  -10.2111   20.3070 C   0  0  0  0  0  0
  -21.6844   -6.0734   22.5279 C   0  0  0  0  0  0
  -21.4015   -6.5650   23.8209 C   0  0  0  0  0  0
  -21.3659   -5.6800   24.9167 C   0  0  0  0  0  0
  -21.6036   -4.3061   24.7216 C   0  0  0  0  0  0
  -21.8831   -3.8158   23.4338 C   0  0  0  0  0  0
  -21.9200   -4.6969   22.3397 C   0  0  0  0  0  0
  -22.7791  -13.5195   21.1868 C   0  0  0  0  0  0
  -22.1673   -4.2162   21.0973 F   0  0  0  0  0  0
  -21.5625   -3.4546   25.7729 F   0  0  0  0  0  0
  -29.9664  -13.5486   20.4173 N   0  0  0  0  0  0
  -26.2873  -12.9330   20.3169 N   0  0  0  0  0  0
  -25.9269  -11.6500   20.5689 N   0  0  0  0  0  0
  -22.0452  -12.8175   22.0421 N   0  0  0  0  0  0
  -25.4091  -15.1858   20.3996 N   0  0  0  0  0  0
  -31.7614  -14.8367   20.1145 O   0  0  0  0  0  0
  -21.6643   -6.8862   21.4231 O   0  0  0  0  0  0
  -22.3467  -14.5493   20.6714 O   0  0  0  0  0  0
  -24.6309  -31.8523   23.1938 C   0  0  0  0  0  0
  -25.9135  -32.4738   23.8288 C   0  0  1  0  0  0
  -27.2307  -27.2539   20.1422 C   0  0  0  0  0  0
  -25.5910  -33.8534   24.2217 N   0  0  0  0  0  0
  -23.4278  -30.4732   21.5387 C   0  0  2  0  0  0
  -24.8781  -28.9092   20.1158 C   0  0  0  0  0  0
  -22.7493  -29.4598   22.4915 C   0  0  0  0  0  0
  -18.0315  -28.1358   22.8501 C   0  0  0  0  0  0
  -24.1495  -36.7297   23.2642 C   0  0  0  0  0  0
  -25.9736  -30.7637   21.3740 C   0  0  0  0  0  0
  -26.0504  -29.3825   20.7232 C   0  0  0  0  0  0
  -27.2328  -28.5720   20.7190 C   0  0  0  0  0  0
  -26.0362  -26.8393   19.5196 C   0  0  0  0  0  0
  -24.8767  -27.6443   19.5006 C   0  0  0  0  0  0
  -23.6475  -29.7975   20.1592 C   0  0  0  0  0  0
  -25.4125  -36.3066   24.0309 C   0  0  1  0  0  0
  -20.5910  -28.3719   23.1273 C   0  0  2  0  0  0
  -20.6810  -26.9436   22.5400 C   0  0  0  0  0  0
  -19.5772  -26.6387   21.5237 C   0  0  0  0  0  0
  -18.1963  -26.7890   22.1682 C   0  0  0  0  0  0
  -19.1562  -28.8857   23.2859 C   0  0  0  0  0  0
  -18.9468  -30.1470   23.8847 C   0  0  0  0  0  0
  -17.6468  -30.6592   24.0525 C   0  0  0  0  0  0
  -25.9064  -34.9424   23.5076 C   0  0  0  0  0  0
  -16.5363  -29.9088   23.6288 C   0  0  0  0  0  0
  -16.7298  -28.6487   23.0352 C   0  0  0  0  0  0
  -26.4493  -31.6569   25.0688 C   0  0  0  0  0  0
  -25.3711  -31.3725   26.1411 C   0  0  0  0  0  0
  -27.0349  -30.2969   24.6209 C   0  0  0  0  0  0
  -27.6024  -32.4326   25.7480 C   0  0  0  0  0  0
  -27.5580  -37.1810   24.8459 C   0  0  0  0  0  0
  -21.4200  -29.3069   22.3667 N   0  0  0  0  0  0
  -26.4299  -37.3771   23.9396 N   0  0  0  0  0  0
  -24.6964  -31.0477   22.0923 N   0  0  0  0  0  0
  -23.4192  -28.8147   23.3034 O   0  0  0  0  0  0
  -28.3300  -26.3658   20.1092 O   0  0  0  0  0  0
  -26.5668  -34.8904   22.4673 O   0  0  0  0  0  0
  -23.5449  -32.1362   23.7236 O   0  0  0  0  0  0
  -32.2219  -19.0585   20.5623 C   0  0  0  0  0  0
  -31.3528  -20.1595   20.4808 C   0  0  0  0  0  0
  -31.7402  -17.7370   20.6398 C   0  0  0  0  0  0
  -29.9552  -19.9959   20.4477 C   0  0  0  0  0  0
  -30.3572  -17.4323   20.6274 C   0  0  0  0  0  0
  -29.4738  -18.6107   20.5106 C   0  0  0  0  0  0
  -28.0004  -23.0064   19.3134 C   0  0  0  0  0  0
  -28.5794  -23.6394   20.3418 C   0  0  0  0  0  0
  -28.3704  -21.5813   19.2638 C   0  0  0  0  0  0
  -29.4024  -22.5481   21.0736 C   0  0  0  0  0  0
  -28.7998  -15.9404   21.8260 C   0  0  0  0  0  0
  -28.2695  -25.1036   20.9199 C   0  0  0  0  0  0
  -29.1550  -21.2579   20.3268 N   0  0  0  0  0  0
  -29.9137  -16.0004   20.8700 N   0  0  0  0  0  0
  -28.0233  -20.7845   18.3869 O   0  0  0  0  0  0
  -28.1330  -18.4144   20.4958 F   0  0  0  0  0  0
  -31.4744  -12.6486   19.1439 H   0  0  0  0  0  0
  -30.4218  -11.5150   19.9098 H   0  0  0  0  0  0
  -29.8037  -11.7836   17.4870 H   0  0  0  0  0  0
  -29.6137  -13.5012   17.7111 H   0  0  0  0  0  0
  -27.8759  -11.2927   18.8519 H   0  0  0  0  0  0
  -27.3719  -12.5599   17.7720 H   0  0  0  0  0  0
  -27.6487  -14.2516   19.4963 H   0  0  0  0  0  0
  -28.7573  -11.9943   21.2111 H   0  0  0  0  0  0
  -28.3713  -13.4900   21.8989 H   0  0  0  0  0  0
  -25.2744   -9.5682   22.4778 H   0  0  0  0  0  0
  -24.0018   -7.4612   22.7453 H   0  0  0  0  0  0
  -21.0848   -8.8742   19.8950 H   0  0  0  0  0  0
  -22.3682  -10.9646   19.6179 H   0  0  0  0  0  0
  -21.2009   -7.6160   23.9713 H   0  0  0  0  0  0
  -21.1469   -6.0530   25.9064 H   0  0  0  0  0  0
  -22.0611   -2.7626   23.2835 H   0  0  0  0  0  0
  -22.4080  -11.9829   22.4789 H   0  0  0  0  0  0
  -21.1060  -13.1167   22.2635 H   0  0  0  0  0  0
  -24.6400  -15.8347   20.5265 H   0  0  0  0  0  0
  -26.2700  -15.6379   20.1191 H   0  0  0  0  0  0
  -26.7207  -32.5401   23.1040 H   0  0  0  0  0  0
  -24.9973  -33.9649   25.0295 H   0  0  0  0  0  0
  -22.7245  -31.2961   21.3878 H   0  0  0  0  0  0
  -23.3738  -35.9656   23.3309 H   0  0  0  0  0  0
  -24.3584  -36.8927   22.2057 H   0  0  0  0  0  0
  -23.7266  -37.6495   23.6687 H   0  0  0  0  0  0
  -26.1142  -31.5188   20.5993 H   0  0  0  0  0  0
  -26.8492  -30.8164   22.0087 H   0  0  0  0  0  0
  -28.1354  -28.9367   21.1891 H   0  0  0  0  0  0
  -25.9998  -25.8671   19.0486 H   0  0  0  0  0  0
  -23.9805  -27.2742   19.0204 H   0  0  0  0  0  0
  -23.7679  -30.5688   19.3950 H   0  0  0  0  0  0
  -22.7677  -29.2271   19.8576 H   0  0  0  0  0  0
  -25.1317  -36.1907   25.0798 H   0  0  0  0  0  0
  -21.0028  -28.3312   24.1389 H   0  0  0  0  0  0
  -20.5723  -26.2335   23.3614 H   0  0  0  0  0  0
  -21.6661  -26.7449   22.1167 H   0  0  0  0  0  0
  -19.6936  -25.6307   21.1277 H   0  0  0  0  0  0
  -19.6684  -27.3217   20.6777 H   0  0  0  0  0  0
  -17.4210  -26.6570   21.4128 H   0  0  0  0  0  0
  -18.0460  -26.0053   22.9116 H   0  0  0  0  0  0
  -19.7955  -30.7309   24.2139 H   0  0  0  0  0  0
  -17.5035  -31.6268   24.5134 H   0  0  0  0  0  0
  -15.5360  -30.2980   23.7607 H   0  0  0  0  0  0
  -15.8722  -28.0769   22.7077 H   0  0  0  0  0  0
  -24.5887  -30.7075   25.7744 H   0  0  0  0  0  0
  -24.8896  -32.2892   26.4820 H   0  0  0  0  0  0
  -25.8011  -30.8911   27.0204 H   0  0  0  0  0  0
  -26.2931  -29.6706   24.1229 H   0  0  0  0  0  0
  -27.4004  -29.7247   25.4744 H   0  0  0  0  0  0
  -27.8824  -30.4212   23.9468 H   0  0  0  0  0  0
  -27.2606  -33.3625   26.2048 H   0  0  0  0  0  0
  -28.3854  -32.6895   25.0333 H   0  0  0  0  0  0
  -28.0697  -31.8469   26.5421 H   0  0  0  0  0  0
  -28.2603  -38.0103   24.7501 H   0  0  0  0  0  0
  -28.1074  -36.2622   24.6302 H   0  0  0  0  0  0
  -27.2297  -37.1481   25.8866 H   0  0  0  0  0  0
  -20.9419  -29.8758   21.6809 H   0  0  0  0  0  0
  -26.0167  -38.2850   24.1373 H   0  0  0  0  0  0
  -33.2892  -19.2355   20.5831 H   0  0  0  0  0  0
  -31.7879  -21.1468   20.4158 H   0  0  0  0  0  0
  -32.4869  -16.9693   20.7556 H   0  0  0  0  0  0
  -27.2858  -23.4588   18.6441 H   0  0  0  0  0  0
  -29.0666  -22.4480   22.1073 H   0  0  0  0  0  0
  -30.4565  -22.8260   21.0859 H   0  0  0  0  0  0
  -29.0318  -15.2914   22.6700 H   0  0  0  0  0  0
  -28.5872  -16.8990   22.2967 H   0  0  0  0  0  0
  -27.8794  -15.6240   21.3418 H   0  0  0  0  0  0
  -29.0091  -25.2569   21.7065 H   0  0  0  0  0  0
  -27.3189  -25.0516   21.4507 H   0  0  0  0  0  0
  1 25  1  0  0  0
  1 30  2  0  0  0
  1 84  1  0  0  0
  2  3  1  0  0  0
  2 25  1  0  0  0
  2 87  1  0  0  0
  2 88  1  0  0  0
  3  4  1  0  0  0
  3 89  1  0  0  0
  3 90  1  0  0  0
  4  5  1  0  0  0
  4 91  1  0  0  0
  4 92  1  0  0  0
  5  6  1  0  0  0
  5 26  1  0  0  0
  5 93  1  0  0  0
  6 25  1  0  0  0
  6 94  1  0  0  0
  6 95  1  0  0  0
  7  8  2  0  0  0
  7 26  1  0  0  0
  7 29  1  0  0  0
  8  9  1  0  0  0
  8 22  1  0  0  0
  9 10  1  0  0  0
  9 27  2  0  0  0
 10 11  2  0  0  0
 10 15  1  0  0  0
 11 12  1  0  0  0
 11 96  1  0  0  0
 12 13  2  0  0  0
 12 97  1  0  0  0
 13 14  1  0  0  0
 13 31  1  0  0  0
 14 15  2  0  0  0
 14 98  1  0  0  0
 15 99  1  0  0  0
 16 17  2  0  0  0
 16 21  1  0  0  0
 16 31  1  0  0  0
 17 18  1  0  0  0
 17100  1  0  0  0
 18 19  2  0  0  0
 18101  1  0  0  0
 19 20  1  0  0  0
 19 24  1  0  0  0
 20 21  2  0  0  0
 20102  1  0  0  0
 21 23  1  0  0  0
 22 28  1  0  0  0
 22 32  2  0  0  0
 26 27  1  0  0  0
 28103  1  0  0  0
 28104  1  0  0  0
 29105  1  0  0  0
 29106  1  0  0  0
 33 34  1  0  0  0
 33 66  1  0  0  0
 33 70  2  0  0  0
 34 36  1  0  0  0
 34 59  1  0  0  0
 34107  1  0  0  0
 35 44  2  0  0  0
 35 45  1  0  0  0
 35 68  1  0  0  0
 36 56  1  0  0  0
 36108  1  0  0  0
 37 39  1  0  0  0
 37 47  1  0  0  0
 37 66  1  0  0  0
 37109  1  0  0  0
 38 43  2  0  0  0
 38 46  1  0  0  0
 38 47  1  0  0  0
 39 64  1  0  0  0
 39 67  2  0  0  0
 40 52  1  0  0  0
 40 53  2  0  0  0
 40 58  1  0  0  0
 41110  1  0  0  0
 41111  1  0  0  0
 41112  1  0  0  0
 41 48  1  0  0  0
 42 43  1  0  0  0
 42 66  1  0  0  0
 42113  1  0  0  0
 42114  1  0  0  0
 43 44  1  0  0  0
 44115  1  0  0  0
 45 46  2  0  0  0
 45116  1  0  0  0
 46117  1  0  0  0
 47118  1  0  0  0
 47119  1  0  0  0
 48 56  1  0  0  0
 48 65  1  0  0  0
 48120  1  0  0  0
 49 50  1  0  0  0
 49 53  1  0  0  0
 49 64  1  0  0  0
 49121  1  0  0  0
 50 51  1  0  0  0
 50122  1  0  0  0
 50123  1  0  0  0
 51 52  1  0  0  0
 51124  1  0  0  0
 51125  1  0  0  0
 52126  1  0  0  0
 52127  1  0  0  0
 53 54  1  0  0  0
 54 55  2  0  0  0
 54128  1  0  0  0
 55 57  1  0  0  0
 55129  1  0  0  0
 56 69  2  0  0  0
 57 58  2  0  0  0
 57130  1  0  0  0
 58131  1  0  0  0
 59 60  1  0  0  0
 59 61  1  0  0  0
 59 62  1  0  0  0
 60132  1  0  0  0
 60133  1  0  0  0
 60134  1  0  0  0
 61135  1  0  0  0
 61136  1  0  0  0
 61137  1  0  0  0
 62138  1  0  0  0
 62139  1  0  0  0
 62140  1  0  0  0
 63 65  1  0  0  0
 63141  1  0  0  0
 63142  1  0  0  0
 63143  1  0  0  0
 64144  1  0  0  0
 65145  1  0  0  0
 68 82  1  0  0  0
 71 72  2  0  0  0
 71 73  1  0  0  0
 71146  1  0  0  0
 72 74  1  0  0  0
 72147  1  0  0  0
 73 75  2  0  0  0
 73148  1  0  0  0
 74 76  2  0  0  0
 74 83  1  0  0  0
 75 76  1  0  0  0
 75 84  1  0  0  0
 76 86  1  0  0  0
 77 78  2  0  0  0
 77 79  1  0  0  0
 77149  1  0  0  0
 78 80  1  0  0  0
 78 82  1  0  0  0
 79 83  1  0  0  0
 79 85  2  0  0  0
 80 83  1  0  0  0
 80150  1  0  0  0
 80151  1  0  0  0
 81 84  1  0  0  0
 81152  1  0  0  0
 81153  1  0  0  0
 81154  1  0  0  0
 82155  1  0  0  0
 82156  1  0  0  0
M  ISO  4   1 100  68 101  82 101  84 100
M  END
> <chiral flag>
0

> <version>
0

> <s_m_source_file>
/data/baiqing/PycharmProjects/Reinvent-master-3.2/result/LINK_invent/BTK/process_docking_weight1_custom_product_contain_oxygen_bond_distance_aromatic_linkinvent_7_9_3/rearranged_h_0072.sdf

> <i_m_source_file_index>
46

> <r_mmod_Potential_Energy-OPLS-2005>
487.127319335938

> <r_mmod_Stretch_Energy-OPLS-2005>
157.41862487793

> <r_mmod_Bend_Energy-OPLS-2005>
247.777069091797

> <r_mmod_Torsional_Energy-OPLS-2005>
354.876647949219

> <r_mmod_Improper_Torsional_Energy-OPLS-2005>
6.80136251449585

> <r_mmod_Van_der_Waal_Energy-OPLS-2005>
152.791290283203

> <r_mmod_Electrostatic_Energy-OPLS-2005>
-319.902404785156

> <r_mmod_Solvation_Energy-OPLS-2005>
-199.728118896484

> <b_mmod_Minimization_Converged-OPLS-2005>
0

> <r_mmod_RMS_Derivative-OPLS-2005>
3.66992259025574

$$$$
46
                    3D
 Structure written by MMmdl.
153161  0  0  1  0            999 V2000
  -30.6023  -14.7078   20.4833 C   0  0  0  0  0  0
  -30.4453  -12.4352   19.4613 C   0  0  0  0  0  0
  -29.5129  -12.5083   18.2309 C   0  0  0  0  0  0
  -28.0405  -12.3253   18.6480 C   0  0  0  0  0  0
  -27.6499  -13.2154   19.8570 C   0  0  2  0  0  0
  -28.6965  -13.1138   20.9905 C   0  0  0  0  0  0
  -25.2566  -13.8151   20.5698 C   0  0  0  0  0  0
  -24.1835  -13.0424   20.9206 C   0  0  0  0  0  0
  -24.6396  -11.6896   20.8756 C   0  0  0  0  0  0
  -23.9066  -10.4284   21.0424 C   0  0  0  0  0  0
  -24.3614   -9.4196   21.9191 C   0  0  0  0  0  0
  -23.6295   -8.2229   22.0758 C   0  0  0  0  0  0
  -22.4274   -8.0269   21.3548 C   0  0  0  0  0  0
  -21.9912   -9.0247   20.4647 C   0  0  0  0  0  0
  -22.7246  -10.2125   20.3067 C   0  0  0  0  0  0
  -21.6851   -6.0736   22.5286 C   0  0  0  0  0  0
  -21.4011   -6.5642   23.8220 C   0  0  0  0  0  0
  -21.3662   -5.6792   24.9178 C   0  0  0  0  0  0
  -21.6050   -4.3056   24.7224 C   0  0  0  0  0  0
  -21.8822   -3.8149   23.4345 C   0  0  0  0  0  0
  -21.9193   -4.6966   22.3402 C   0  0  0  0  0  0
  -22.7862  -13.5232   21.1859 C   0  0  0  0  0  0
  -22.1663   -4.2162   21.0978 F   0  0  0  0  0  0
  -21.5628   -3.4536   25.7729 F   0  0  0  0  0  0
  -30.0053  -13.4711   20.4196 N   0  0  0  0  0  0
  -26.2979  -12.9329   20.3291 N   0  0  0  0  0  0
  -25.9322  -11.6493   20.5754 N   0  0  0  0  0  0
  -22.0498  -12.8230   22.0407 N   0  0  0  0  0  0
  -25.4281  -15.1864   20.4086 N   0  0  0  0  0  0
  -31.7760  -14.8523   20.1323 O   0  0  0  0  0  0
  -21.6636   -6.8871   21.4244 O   0  0  0  0  0  0
  -22.3567  -14.5555   20.6713 O   0  0  0  0  0  0
  -24.6284  -31.8563   23.1994 C   0  0  0  0  0  0
  -25.9114  -32.4766   23.8332 C   0  0  1  0  0  0
  -27.2269  -27.2949   20.1280 C   0  0  0  0  0  0
  -25.5920  -33.8568   24.2257 N   0  0  0  0  0  0
  -23.4241  -30.4801   21.5417 C   0  0  2  0  0  0
  -24.8745  -28.9316   20.1110 C   0  0  0  0  0  0
  -22.7489  -29.4610   22.4908 C   0  0  0  0  0  0
  -18.0292  -28.1394   22.8489 C   0  0  0  0  0  0
  -24.1487  -36.7282   23.2638 C   0  0  0  0  0  0
  -25.9679  -30.7821   21.3741 C   0  0  0  0  0  0
  -26.0438  -29.4065   20.7181 C   0  0  0  0  0  0
  -27.2256  -28.6023   20.7129 C   0  0  0  0  0  0
  -26.0397  -26.8825   19.4854 C   0  0  0  0  0  0
  -24.8751  -27.6757   19.4842 C   0  0  0  0  0  0
  -23.6419  -29.8137   20.1582 C   0  0  0  0  0  0
  -25.4112  -36.3074   24.0323 C   0  0  1  0  0  0
  -20.5893  -28.3694   23.1275 C   0  0  2  0  0  0
  -20.6785  -26.9407   22.5412 C   0  0  0  0  0  0
  -19.5763  -26.6386   21.5214 C   0  0  0  0  0  0
  -18.1939  -26.7936   22.1622 C   0  0  0  0  0  0
  -19.1548  -28.8862   23.2878 C   0  0  0  0  0  0
  -18.9463  -30.1461   23.8890 C   0  0  0  0  0  0
  -17.6466  -30.6588   24.0570 C   0  0  0  0  0  0
  -25.9047  -34.9445   23.5095 C   0  0  0  0  0  0
  -16.5356  -29.9085   23.6336 C   0  0  0  0  0  0
  -16.7280  -28.6510   23.0346 C   0  0  0  0  0  0
  -26.4504  -31.6583   25.0711 C   0  0  0  0  0  0
  -25.3733  -31.3730   26.1437 C   0  0  0  0  0  0
  -27.0348  -30.3000   24.6178 C   0  0  0  0  0  0
  -27.6051  -32.4327   25.7491 C   0  0  0  0  0  0
  -27.5572  -37.1798   24.8470 C   0  0  0  0  0  0
  -21.4196  -29.3042   22.3660 N   0  0  0  0  0  0
  -26.4290  -37.3768   23.9406 N   0  0  0  0  0  0
  -24.6922  -31.0568   22.0949 N   0  0  0  0  0  0
  -23.4207  -28.8141   23.2985 O   0  0  0  0  0  0
  -28.3269  -26.4156   20.1480 O   0  0  0  0  0  0
  -26.5620  -34.8921   22.4663 O   0  0  0  0  0  0
  -23.5439  -32.1366   23.7310 O   0  0  0  0  0  0
  -28.6586  -19.4569   20.7224 C   0  0  0  0  0  0
  -28.6895  -18.0303   20.5643 C   0  0  0  0  0  0
  -31.0193  -19.4107   21.1385 C   0  0  0  0  0  0
  -29.8236  -20.1902   21.0658 C   0  0  0  0  0  0
  -29.8696  -17.2385   20.7260 C   0  0  0  0  0  0
  -31.0523  -17.9874   20.9879 C   0  0  0  0  0  0
  -29.8062  -21.5777   21.6976 C   0  0  0  0  0  0
  -28.9073  -23.7226   20.2082 C   0  0  0  0  0  0
  -28.0972  -25.0393   20.6849 C   0  0  0  0  0  0
  -30.3108  -21.5664   22.9306 N   0  0  0  0  0  0
  -29.7518  -15.7647   20.7278 N   0  0  0  0  0  0
  -29.3907  -22.8528   21.3550 N   0  3  0  0  0  0
  -32.2297  -17.3511   21.1900 F   0  0  0  0  0  0
  -31.4840  -12.5734   19.1557 H   0  0  0  0  0  0
  -30.3963  -11.4479   19.9227 H   0  0  0  0  0  0
  -29.7923  -11.7468   17.5015 H   0  0  0  0  0  0
  -29.6355  -13.4706   17.7317 H   0  0  0  0  0  0
  -27.9038  -11.2750   18.9051 H   0  0  0  0  0  0
  -27.3783  -12.5178   17.8033 H   0  0  0  0  0  0
  -27.6542  -14.2405   19.4875 H   0  0  0  0  0  0
  -28.7269  -12.1030   21.3998 H   0  0  0  0  0  0
  -28.4298  -13.7655   21.8244 H   0  0  0  0  0  0
  -25.2763   -9.5674   22.4756 H   0  0  0  0  0  0
  -24.0016   -7.4621   22.7478 H   0  0  0  0  0  0
  -21.0844   -8.8774   19.8940 H   0  0  0  0  0  0
  -22.3721  -10.9667   19.6171 H   0  0  0  0  0  0
  -21.2004   -7.6149   23.9733 H   0  0  0  0  0  0
  -21.1483   -6.0512   25.9084 H   0  0  0  0  0  0
  -22.0598   -2.7614   23.2840 H   0  0  0  0  0  0
  -22.4106  -11.9875   22.4775 H   0  0  0  0  0  0
  -21.1117  -13.1269   22.2615 H   0  0  0  0  0  0
  -24.6538  -15.8339   20.5067 H   0  0  0  0  0  0
  -26.2492  -15.6151   20.0047 H   0  0  0  0  0  0
  -26.7184  -32.5430   23.1076 H   0  0  0  0  0  0
  -25.0097  -33.9715   25.0426 H   0  0  0  0  0  0
  -22.7192  -31.3005   21.3971 H   0  0  0  0  0  0
  -23.3751  -35.9615   23.3317 H   0  0  0  0  0  0
  -24.3581  -36.8892   22.2052 H   0  0  0  0  0  0
  -23.7250  -37.6490   23.6658 H   0  0  0  0  0  0
  -26.1037  -31.5448   20.6063 H   0  0  0  0  0  0
  -26.8456  -30.8299   22.0067 H   0  0  0  0  0  0
  -28.1244  -28.9656   21.1917 H   0  0  0  0  0  0
  -26.0011  -25.9260   18.9846 H   0  0  0  0  0  0
  -23.9808  -27.3090   18.9989 H   0  0  0  0  0  0
  -23.7619  -30.5903   19.4015 H   0  0  0  0  0  0
  -22.7615  -29.2439   19.8555 H   0  0  0  0  0  0
  -25.1303  -36.1916   25.0817 H   0  0  0  0  0  0
  -20.9998  -28.3270   24.1391 H   0  0  0  0  0  0
  -20.5695  -26.2286   23.3607 H   0  0  0  0  0  0
  -21.6646  -26.7443   22.1191 H   0  0  0  0  0  0
  -19.6918  -25.6301   21.1235 H   0  0  0  0  0  0
  -19.6704  -27.3207   20.6756 H   0  0  0  0  0  0
  -17.4206  -26.6686   21.4025 H   0  0  0  0  0  0
  -18.0332  -26.0080   22.9021 H   0  0  0  0  0  0
  -19.7936  -30.7287   24.2241 H   0  0  0  0  0  0
  -17.5015  -31.6269   24.5172 H   0  0  0  0  0  0
  -15.5354  -30.2988   23.7661 H   0  0  0  0  0  0
  -15.8681  -28.0838   22.7048 H   0  0  0  0  0  0
  -24.5915  -30.7067   25.7777 H   0  0  0  0  0  0
  -24.8918  -32.2897   26.4842 H   0  0  0  0  0  0
  -25.8054  -30.8931   27.0223 H   0  0  0  0  0  0
  -26.2922  -29.6746   24.1207 H   0  0  0  0  0  0
  -27.4052  -29.7268   25.4689 H   0  0  0  0  0  0
  -27.8792  -30.4292   23.9404 H   0  0  0  0  0  0
  -27.2651  -33.3636   26.2041 H   0  0  0  0  0  0
  -28.3875  -32.6868   25.0328 H   0  0  0  0  0  0
  -28.0696  -31.8465   26.5431 H   0  0  0  0  0  0
  -28.2599  -38.0084   24.7503 H   0  0  0  0  0  0
  -28.1055  -36.2616   24.6316 H   0  0  0  0  0  0
  -27.2287  -37.1474   25.8872 H   0  0  0  0  0  0
  -20.9357  -29.8751   21.6872 H   0  0  0  0  0  0
  -26.0169  -38.2839   24.1408 H   0  0  0  0  0  0
  -27.7053  -19.9664   20.6884 H   0  0  0  0  0  0
  -27.7519  -17.5299   20.3722 H   0  0  0  0  0  0
  -31.9396  -19.9022   21.4217 H   0  0  0  0  0  0
  -29.7864  -24.0400   19.6463 H   0  0  0  0  0  0
  -28.3035  -23.1324   19.5184 H   0  0  0  0  0  0
  -28.2376  -25.1392   21.7613 H   0  0  0  0  0  0
  -27.0439  -24.7776   20.5898 H   0  0  0  0  0  0
  -30.4820  -22.3838   23.4936 H   0  0  0  0  0  0
  -30.5858  -20.6769   23.3206 H   0  0  0  0  0  0
  -28.8129  -15.4433   20.8945 H   0  0  0  0  0  0
  -29.4976  -23.4765   22.1388 H   0  0  0  0  0  0
  1 25  1  0  0  0
  1 30  2  0  0  0
  1 81  1  0  0  0
  2  3  1  0  0  0
  2 25  1  0  0  0
  2 84  1  0  0  0
  2 85  1  0  0  0
  3  4  1  0  0  0
  3 86  1  0  0  0
  3 87  1  0  0  0
  4  5  1  0  0  0
  4 88  1  0  0  0
  4 89  1  0  0  0
  5  6  1  0  0  0
  5 26  1  0  0  0
  5 90  1  0  0  0
  6 25  1  0  0  0
  6 91  1  0  0  0
  6 92  1  0  0  0
  7  8  2  0  0  0
  7 26  1  0  0  0
  7 29  1  0  0  0
  8  9  1  0  0  0
  8 22  1  0  0  0
  9 10  1  0  0  0
  9 27  2  0  0  0
 10 11  2  0  0  0
 10 15  1  0  0  0
 11 12  1  0  0  0
 11 93  1  0  0  0
 12 13  2  0  0  0
 12 94  1  0  0  0
 13 14  1  0  0  0
 13 31  1  0  0  0
 14 15  2  0  0  0
 14 95  1  0  0  0
 15 96  1  0  0  0
 16 17  2  0  0  0
 16 21  1  0  0  0
 16 31  1  0  0  0
 17 18  1  0  0  0
 17 97  1  0  0  0
 18 19  2  0  0  0
 18 98  1  0  0  0
 19 20  1  0  0  0
 19 24  1  0  0  0
 20 21  2  0  0  0
 20 99  1  0  0  0
 21 23  1  0  0  0
 22 28  1  0  0  0
 22 32  2  0  0  0
 26 27  1  0  0  0
 28100  1  0  0  0
 28101  1  0  0  0
 29102  1  0  0  0
 29103  1  0  0  0
 33 34  1  0  0  0
 33 66  1  0  0  0
 33 70  2  0  0  0
 34 36  1  0  0  0
 34 59  1  0  0  0
 34104  1  0  0  0
 35 44  2  0  0  0
 35 45  1  0  0  0
 35 68  1  0  0  0
 36 56  1  0  0  0
 36105  1  0  0  0
 37 39  1  0  0  0
 37 47  1  0  0  0
 37 66  1  0  0  0
 37106  1  0  0  0
 38 43  2  0  0  0
 38 46  1  0  0  0
 38 47  1  0  0  0
 39 64  1  0  0  0
 39 67  2  0  0  0
 40 52  1  0  0  0
 40 53  2  0  0  0
 40 58  1  0  0  0
 41107  1  0  0  0
 41108  1  0  0  0
 41109  1  0  0  0
 41 48  1  0  0  0
 42 43  1  0  0  0
 42 66  1  0  0  0
 42110  1  0  0  0
 42111  1  0  0  0
 43 44  1  0  0  0
 44112  1  0  0  0
 45 46  2  0  0  0
 45113  1  0  0  0
 46114  1  0  0  0
 47115  1  0  0  0
 47116  1  0  0  0
 48 56  1  0  0  0
 48 65  1  0  0  0
 48117  1  0  0  0
 49 50  1  0  0  0
 49 53  1  0  0  0
 49 64  1  0  0  0
 49118  1  0  0  0
 50 51  1  0  0  0
 50119  1  0  0  0
 50120  1  0  0  0
 51 52  1  0  0  0
 51121  1  0  0  0
 51122  1  0  0  0
 52123  1  0  0  0
 52124  1  0  0  0
 53 54  1  0  0  0
 54 55  2  0  0  0
 54125  1  0  0  0
 55 57  1  0  0  0
 55126  1  0  0  0
 56 69  2  0  0  0
 57 58  2  0  0  0
 57127  1  0  0  0
 58128  1  0  0  0
 59 60  1  0  0  0
 59 61  1  0  0  0
 59 62  1  0  0  0
 60129  1  0  0  0
 60130  1  0  0  0
 60131  1  0  0  0
 61132  1  0  0  0
 61133  1  0  0  0
 61134  1  0  0  0
 62135  1  0  0  0
 62136  1  0  0  0
 62137  1  0  0  0
 63 65  1  0  0  0
 63138  1  0  0  0
 63139  1  0  0  0
 63140  1  0  0  0
 64141  1  0  0  0
 65142  1  0  0  0
 68 79  1  0  0  0
 71 72  2  0  0  0
 71 74  1  0  0  0
 71143  1  0  0  0
 72 75  1  0  0  0
 72144  1  0  0  0
 73 74  2  0  0  0
 73 76  1  0  0  0
 73145  1  0  0  0
 74 77  1  0  0  0
 75 76  2  0  0  0
 75 81  1  0  0  0
 76 83  1  0  0  0
 77 80  1  0  0  0
 77 82  2  0  0  0
 78 79  1  0  0  0
 78 82  1  0  0  0
 78146  1  0  0  0
 78147  1  0  0  0
 79148  1  0  0  0
 79149  1  0  0  0
 80150  1  0  0  0
 80151  1  0  0  0
 81152  1  0  0  0
 82153  1  0  0  0
M  CHG  1  82   1
M  ISO  4   1 100  68 101  79 101  81 100
M  END
> <chiral flag>
0

> <version>
0

> <s_m_source_file>
/data/baiqing/PycharmProjects/Reinvent-master-3.2/result/LINK_invent/BTK/process_docking_weight1_custom_product_contain_oxygen_bond_distance_aromatic_linkinvent_7_9_3/rearranged_h_0072.sdf

> <i_m_source_file_index>
47

> <r_mmod_Potential_Energy-OPLS-2005>
-94.1840362548828

> <r_mmod_Stretch_Energy-OPLS-2005>
96.02294921875

> <r_mmod_Bend_Energy-OPLS-2005>
219.619644165039

> <r_mmod_Torsional_Energy-OPLS-2005>
256.260559082031

> <r_mmod_Improper_Torsional_Energy-OPLS-2005>
9.61963081359863

> <r_mmod_Van_der_Waal_Energy-OPLS-2005>
140.130844116211

> <r_mmod_Electrostatic_Energy-OPLS-2005>
-439.287231445312

> <r_mmod_Solvation_Energy-OPLS-2005>
-443.847503662109

> <b_mmod_Minimization_Converged-OPLS-2005>
0

> <r_mmod_RMS_Derivative-OPLS-2005>
1.63149225711823

$$$$
47
                    3D
 Structure written by MMmdl.
157166  0  0  1  0            999 V2000
  -30.6230  -14.8132   20.4193 C   0  0  0  0  0  0
  -30.4343  -12.5115   19.4458 C   0  0  0  0  0  0
  -29.4985  -12.5042   18.2191 C   0  0  0  0  0  0
  -28.0309  -12.3218   18.6534 C   0  0  0  0  0  0
  -27.6351  -13.2382   19.8410 C   0  0  2  0  0  0
  -28.6955  -13.1974   20.9575 C   0  0  0  0  0  0
  -25.2502  -13.8230   20.5751 C   0  0  0  0  0  0
  -24.1778  -13.0448   20.9205 C   0  0  0  0  0  0
  -24.6390  -11.6929   20.8743 C   0  0  0  0  0  0
  -23.9062  -10.4301   21.0400 C   0  0  0  0  0  0
  -24.3607   -9.4217   21.9186 C   0  0  0  0  0  0
  -23.6289   -8.2257   22.0758 C   0  0  0  0  0  0
  -22.4265   -8.0288   21.3543 C   0  0  0  0  0  0
  -21.9900   -9.0261   20.4646 C   0  0  0  0  0  0
  -22.7239  -10.2154   20.3061 C   0  0  0  0  0  0
  -21.6866   -6.0726   22.5272 C   0  0  0  0  0  0
  -21.4022   -6.5632   23.8205 C   0  0  0  0  0  0
  -21.3655   -5.6784   24.9166 C   0  0  0  0  0  0
  -21.6054   -4.3041   24.7218 C   0  0  0  0  0  0
  -21.8819   -3.8140   23.4338 C   0  0  0  0  0  0
  -21.9199   -4.6960   22.3396 C   0  0  0  0  0  0
  -22.7799  -13.5245   21.1851 C   0  0  0  0  0  0
  -22.1668   -4.2136   21.0975 F   0  0  0  0  0  0
  -21.5627   -3.4527   25.7735 F   0  0  0  0  0  0
  -29.9625  -13.6034   20.3343 N   0  0  0  0  0  0
  -26.2927  -12.9428   20.3315 N   0  0  0  0  0  0
  -25.9338  -11.6551   20.5803 N   0  0  0  0  0  0
  -22.0431  -12.8229   22.0395 N   0  0  0  0  0  0
  -25.4223  -15.1960   20.4296 N   0  0  0  0  0  0
  -31.8490  -14.8134   20.2825 O   0  0  0  0  0  0
  -21.6646   -6.8877   21.4241 O   0  0  0  0  0  0
  -22.3482  -14.5548   20.6709 O   0  0  0  0  0  0
  -24.6374  -31.8557   23.1988 C   0  0  0  0  0  0
  -25.9183  -32.4766   23.8339 C   0  0  1  0  0  0
  -27.1956  -27.1986   20.1097 C   0  0  0  0  0  0
  -25.5942  -33.8568   24.2260 N   0  0  0  0  0  0
  -23.4375  -30.4826   21.5489 C   0  0  2  0  0  0
  -24.8834  -28.9470   20.1020 C   0  0  0  0  0  0
  -22.7537  -29.4575   22.4885 C   0  0  0  0  0  0
  -18.0285  -28.1360   22.8489 C   0  0  0  0  0  0
  -24.1483  -36.7293   23.2644 C   0  0  0  0  0  0
  -25.9942  -30.7395   21.3980 C   0  0  0  0  0  0
  -26.0604  -29.3630   20.7340 C   0  0  0  0  0  0
  -27.2168  -28.5012   20.7414 C   0  0  0  0  0  0
  -26.0032  -26.9192   19.3891 C   0  0  0  0  0  0
  -24.8642  -27.7325   19.4172 C   0  0  0  0  0  0
  -23.6596  -29.8398   20.1582 C   0  0  0  0  0  0
  -25.4113  -36.3084   24.0326 C   0  0  1  0  0  0
  -20.5887  -28.3703   23.1247 C   0  0  2  0  0  0
  -20.6767  -26.9394   22.5466 C   0  0  0  0  0  0
  -19.5733  -26.6237   21.5332 C   0  0  0  0  0  0
  -18.1925  -26.7856   22.1727 C   0  0  0  0  0  0
  -19.1543  -28.8867   23.2834 C   0  0  0  0  0  0
  -18.9467  -30.1462   23.8819 C   0  0  0  0  0  0
  -17.6452  -30.6563   24.0506 C   0  0  0  0  0  0
  -25.9066  -34.9454   23.5091 C   0  0  0  0  0  0
  -16.5348  -29.9044   23.6311 C   0  0  0  0  0  0
  -16.7266  -28.6461   23.0336 C   0  0  0  0  0  0
  -26.4495  -31.6614   25.0757 C   0  0  0  0  0  0
  -25.3683  -31.3806   26.1445 C   0  0  0  0  0  0
  -27.0351  -30.3008   24.6324 C   0  0  0  0  0  0
  -27.6014  -32.4374   25.7552 C   0  0  0  0  0  0
  -27.5575  -37.1808   24.8469 C   0  0  0  0  0  0
  -21.4228  -29.3038   22.3616 N   0  0  0  0  0  0
  -26.4281  -37.3787   23.9420 N   0  0  0  0  0  0
  -24.7092  -31.0444   22.1038 N   0  0  0  0  0  0
  -23.4216  -28.8076   23.2982 O   0  0  0  0  0  0
  -28.2027  -26.1699   20.2062 O   0  0  0  0  0  0
  -26.5640  -34.8922   22.4662 O   0  0  0  0  0  0
  -23.5500  -32.1404   23.7243 O   0  0  0  0  0  0
  -27.6752  -17.8973   22.2714 C   0  0  0  0  0  0
  -28.4692  -16.8861   21.7309 C   0  0  0  0  0  0
  -29.4909  -18.6010   20.3355 C   0  0  0  0  0  0
  -27.7578  -19.2450   21.8604 C   0  0  0  0  0  0
  -28.7387  -19.7348   20.9212 C   0  0  0  0  0  0
  -29.3746  -17.1722   20.7052 C   0  0  0  0  0  0
  -28.4021  -22.4188   21.3691 C   0  0  0  0  0  0
  -29.1374  -22.1163   19.5597 C   0  0  0  0  0  0
  -27.9933  -23.1154   20.0303 C   0  0  0  0  0  0
  -26.6576  -20.1110   22.4660 C   0  0  0  0  0  0
  -26.6515  -22.5215   19.4935 C   0  0  0  0  0  0
  -27.7724  -24.7534   19.7913 C   0  0  0  0  0  0
  -28.8155  -21.2359   20.6528 N   0  0  0  0  0  0
  -29.9922  -15.9997   20.0149 N   0  0  0  0  0  0
  -28.3472  -22.6807   22.5518 O   0  0  0  0  0  0
  -29.8993  -22.0040   18.6219 O   0  0  0  0  0  0
  -31.4657  -12.6625   19.1213 H   0  0  0  0  0  0
  -30.4209  -11.5492   19.9570 H   0  0  0  0  0  0
  -29.7875  -11.7137   17.5250 H   0  0  0  0  0  0
  -29.6048  -13.4453   17.6744 H   0  0  0  0  0  0
  -27.9094  -11.2784   18.9413 H   0  0  0  0  0  0
  -27.3597  -12.4859   17.8091 H   0  0  0  0  0  0
  -27.6160  -14.2553   19.4474 H   0  0  0  0  0  0
  -28.7717  -12.1938   21.3786 H   0  0  0  0  0  0
  -28.4326  -13.8424   21.7893 H   0  0  0  0  0  0
  -25.2751   -9.5694   22.4738 H   0  0  0  0  0  0
  -23.9996   -7.4647   22.7461 H   0  0  0  0  0  0
  -21.0839   -8.8774   19.8934 H   0  0  0  0  0  0
  -22.3691  -10.9674   19.6143 H   0  0  0  0  0  0
  -21.2008   -7.6137   23.9713 H   0  0  0  0  0  0
  -21.1482   -6.0500   25.9069 H   0  0  0  0  0  0
  -22.0602   -2.7599   23.2837 H   0  0  0  0  0  0
  -22.4067  -11.9938   22.4859 H   0  0  0  0  0  0
  -21.1024  -13.1234   22.2541 H   0  0  0  0  0  0
  -24.6657  -15.8525   20.5805 H   0  0  0  0  0  0
  -26.3002  -15.6477   20.2036 H   0  0  0  0  0  0
  -26.7270  -32.5403   23.1089 H   0  0  0  0  0  0
  -25.0074  -33.9709   25.0390 H   0  0  0  0  0  0
  -22.7357  -31.3064   21.4102 H   0  0  0  0  0  0
  -23.3744  -35.9625   23.3307 H   0  0  0  0  0  0
  -24.3574  -36.8914   22.2061 H   0  0  0  0  0  0
  -23.7224  -37.6483   23.6671 H   0  0  0  0  0  0
  -26.1490  -31.4970   20.6278 H   0  0  0  0  0  0
  -26.8674  -30.7827   22.0384 H   0  0  0  0  0  0
  -28.1008  -28.8090   21.2854 H   0  0  0  0  0  0
  -25.8755  -26.0243   18.8013 H   0  0  0  0  0  0
  -23.9754  -27.4111   18.8912 H   0  0  0  0  0  0
  -23.7946  -30.6317   19.4179 H   0  0  0  0  0  0
  -22.7708  -29.2890   19.8423 H   0  0  0  0  0  0
  -25.1289  -36.1923   25.0817 H   0  0  0  0  0  0
  -20.9951  -28.3349   24.1374 H   0  0  0  0  0  0
  -20.5706  -26.2355   23.3750 H   0  0  0  0  0  0
  -21.6626  -26.7376   22.1231 H   0  0  0  0  0  0
  -19.6889  -25.6065   21.1603 H   0  0  0  0  0  0
  -19.6644  -27.2891   20.6742 H   0  0  0  0  0  0
  -17.4195  -26.6524   21.4141 H   0  0  0  0  0  0
  -18.0289  -26.0074   22.9220 H   0  0  0  0  0  0
  -19.7922  -30.7316   24.2183 H   0  0  0  0  0  0
  -17.4986  -31.6224   24.5138 H   0  0  0  0  0  0
  -15.5338  -30.2918   23.7661 H   0  0  0  0  0  0
  -15.8669  -28.0764   22.7073 H   0  0  0  0  0  0
  -24.5839  -30.7172   25.7780 H   0  0  0  0  0  0
  -24.8874  -32.3001   26.4816 H   0  0  0  0  0  0
  -25.7932  -30.9009   27.0276 H   0  0  0  0  0  0
  -26.2980  -29.6732   24.1291 H   0  0  0  0  0  0
  -27.3933  -29.7283   25.4897 H   0  0  0  0  0  0
  -27.8905  -30.4240   23.9666 H   0  0  0  0  0  0
  -27.2592  -33.3689   26.2084 H   0  0  0  0  0  0
  -28.3852  -32.6927   25.0410 H   0  0  0  0  0  0
  -28.0665  -31.8541   26.5512 H   0  0  0  0  0  0
  -28.2596  -38.0106   24.7514 H   0  0  0  0  0  0
  -28.1057  -36.2623   24.6289 H   0  0  0  0  0  0
  -27.2297  -37.1478   25.8875 H   0  0  0  0  0  0
  -20.9377  -29.8806   21.6890 H   0  0  0  0  0  0
  -26.0147  -38.2855   24.1407 H   0  0  0  0  0  0
  -26.9312  -17.6012   23.0005 H   0  0  0  0  0  0
  -28.2997  -15.8800   22.0682 H   0  0  0  0  0  0
  -30.1884  -18.8450   19.5447 H   0  0  0  0  0  0
  -25.7915  -19.5055   22.7354 H   0  0  0  0  0  0
  -26.2690  -20.8511   21.7712 H   0  0  0  0  0  0
  -27.0025  -20.6010   23.3757 H   0  0  0  0  0  0
  -25.8151  -22.7622   20.1486 H   0  0  0  0  0  0
  -26.6386  -21.4348   19.3772 H   0  0  0  0  0  0
  -26.4076  -22.9162   18.5062 H   0  0  0  0  0  0
  -26.7698  -24.7898   20.2031 H   0  0  0  0  0  0
  -27.6970  -24.8595   18.7091 H   0  0  0  0  0  0
  -30.5239  -16.3291   19.2231 H   0  0  0  0  0  0
  1 25  1  0  0  0
  1 30  2  0  0  0
  1 84  1  0  0  0
  2  3  1  0  0  0
  2 25  1  0  0  0
  2 87  1  0  0  0
  2 88  1  0  0  0
  3  4  1  0  0  0
  3 89  1  0  0  0
  3 90  1  0  0  0
  4  5  1  0  0  0
  4 91  1  0  0  0
  4 92  1  0  0  0
  5  6  1  0  0  0
  5 26  1  0  0  0
  5 93  1  0  0  0
  6 25  1  0  0  0
  6 94  1  0  0  0
  6 95  1  0  0  0
  7  8  2  0  0  0
  7 26  1  0  0  0
  7 29  1  0  0  0
  8  9  1  0  0  0
  8 22  1  0  0  0
  9 10  1  0  0  0
  9 27  2  0  0  0
 10 11  2  0  0  0
 10 15  1  0  0  0
 11 12  1  0  0  0
 11 96  1  0  0  0
 12 13  2  0  0  0
 12 97  1  0  0  0
 13 14  1  0  0  0
 13 31  1  0  0  0
 14 15  2  0  0  0
 14 98  1  0  0  0
 15 99  1  0  0  0
 16 17  2  0  0  0
 16 21  1  0  0  0
 16 31  1  0  0  0
 17 18  1  0  0  0
 17100  1  0  0  0
 18 19  2  0  0  0
 18101  1  0  0  0
 19 20  1  0  0  0
 19 24  1  0  0  0
 20 21  2  0  0  0
 20102  1  0  0  0
 21 23  1  0  0  0
 22 28  1  0  0  0
 22 32  2  0  0  0
 26 27  1  0  0  0
 28103  1  0  0  0
 28104  1  0  0  0
 29105  1  0  0  0
 29106  1  0  0  0
 33 34  1  0  0  0
 33 66  1  0  0  0
 33 70  2  0  0  0
 34 36  1  0  0  0
 34 59  1  0  0  0
 34107  1  0  0  0
 35 44  2  0  0  0
 35 45  1  0  0  0
 35 68  1  0  0  0
 36 56  1  0  0  0
 36108  1  0  0  0
 37 39  1  0  0  0
 37 47  1  0  0  0
 37 66  1  0  0  0
 37109  1  0  0  0
 38 43  2  0  0  0
 38 46  1  0  0  0
 38 47  1  0  0  0
 39 64  1  0  0  0
 39 67  2  0  0  0
 40 52  1  0  0  0
 40 53  2  0  0  0
 40 58  1  0  0  0
 41110  1  0  0  0
 41111  1  0  0  0
 41112  1  0  0  0
 41 48  1  0  0  0
 42 43  1  0  0  0
 42 66  1  0  0  0
 42113  1  0  0  0
 42114  1  0  0  0
 43 44  1  0  0  0
 44115  1  0  0  0
 45 46  2  0  0  0
 45116  1  0  0  0
 46117  1  0  0  0
 47118  1  0  0  0
 47119  1  0  0  0
 48 56  1  0  0  0
 48 65  1  0  0  0
 48120  1  0  0  0
 49 50  1  0  0  0
 49 53  1  0  0  0
 49 64  1  0  0  0
 49121  1  0  0  0
 50 51  1  0  0  0
 50122  1  0  0  0
 50123  1  0  0  0
 51 52  1  0  0  0
 51124  1  0  0  0
 51125  1  0  0  0
 52126  1  0  0  0
 52127  1  0  0  0
 53 54  1  0  0  0
 54 55  2  0  0  0
 54128  1  0  0  0
 55 57  1  0  0  0
 55129  1  0  0  0
 56 69  2  0  0  0
 57 58  2  0  0  0
 57130  1  0  0  0
 58131  1  0  0  0
 59 60  1  0  0  0
 59 61  1  0  0  0
 59 62  1  0  0  0
 60132  1  0  0  0
 60133  1  0  0  0
 60134  1  0  0  0
 61135  1  0  0  0
 61136  1  0  0  0
 61137  1  0  0  0
 62138  1  0  0  0
 62139  1  0  0  0
 62140  1  0  0  0
 63 65  1  0  0  0
 63141  1  0  0  0
 63142  1  0  0  0
 63143  1  0  0  0
 64144  1  0  0  0
 65145  1  0  0  0
 68 82  1  0  0  0
 71 72  2  0  0  0
 71 74  1  0  0  0
 71146  1  0  0  0
 72 76  1  0  0  0
 72147  1  0  0  0
 73 75  1  0  0  0
 73 76  2  0  0  0
 73148  1  0  0  0
 74 75  2  0  0  0
 74 80  1  0  0  0
 75 83  1  0  0  0
 76 84  1  0  0  0
 77 79  1  0  0  0
 77 83  1  0  0  0
 77 85  2  0  0  0
 78 79  1  0  0  0
 78 83  1  0  0  0
 78 86  2  0  0  0
 79 81  1  0  0  0
 79 82  1  0  0  0
 80149  1  0  0  0
 80150  1  0  0  0
 80151  1  0  0  0
 81152  1  0  0  0
 81153  1  0  0  0
 81154  1  0  0  0
 82155  1  0  0  0
 82156  1  0  0  0
 84157  1  0  0  0
M  ISO  4   1 100  68 101  82 101  84 100
M  END
> <chiral flag>
0

> <version>
0

> <s_m_source_file>
/data/baiqing/PycharmProjects/Reinvent-master-3.2/result/LINK_invent/BTK/process_docking_weight1_custom_product_contain_oxygen_bond_distance_aromatic_linkinvent_7_9_3/rearranged_h_0072.sdf

> <i_m_source_file_index>
48

> <r_mmod_Potential_Energy-OPLS-2005>
550.534362792969

> <r_mmod_Stretch_Energy-OPLS-2005>
190.919219970703

> <r_mmod_Bend_Energy-OPLS-2005>
394.382507324219

> <r_mmod_Torsional_Energy-OPLS-2005>
273.654235839844

> <r_mmod_Improper_Torsional_Energy-OPLS-2005>
28.9583072662354

> <r_mmod_Van_der_Waal_Energy-OPLS-2005>
167.377258300781

> <r_mmod_Electrostatic_Energy-OPLS-2005>
-426.418060302734

> <r_mmod_Solvation_Energy-OPLS-2005>
-220.910064697266

> <b_mmod_Minimization_Converged-OPLS-2005>
0

> <r_mmod_RMS_Derivative-OPLS-2005>
5.64738368988037

$$$$
48
                    3D
 Structure written by MMmdl.
167176  0  0  1  0            999 V2000
  -30.6754  -14.5614   20.4145 C   0  0  0  0  0  0
  -30.4221  -12.3251   19.4463 C   0  0  0  0  0  0
  -29.4941  -12.4601   18.2187 C   0  0  0  0  0  0
  -28.0150  -12.3288   18.6330 C   0  0  0  0  0  0
  -27.6484  -13.2043   19.8621 C   0  0  2  0  0  0
  -28.7026  -13.0845   20.9881 C   0  0  0  0  0  0
  -25.2548  -13.8137   20.5723 C   0  0  0  0  0  0
  -24.1799  -13.0414   20.9208 C   0  0  0  0  0  0
  -24.6356  -11.6884   20.8758 C   0  0  0  0  0  0
  -23.9023  -10.4275   21.0415 C   0  0  0  0  0  0
  -24.3580   -9.4190   21.9184 C   0  0  0  0  0  0
  -23.6273   -8.2216   22.0748 C   0  0  0  0  0  0
  -22.4260   -8.0261   21.3537 C   0  0  0  0  0  0
  -21.9884   -9.0235   20.4646 C   0  0  0  0  0  0
  -22.7198  -10.2122   20.3065 C   0  0  0  0  0  0
  -21.6846   -6.0719   22.5279 C   0  0  0  0  0  0
  -21.4002   -6.5629   23.8209 C   0  0  0  0  0  0
  -21.3657   -5.6785   24.9173 C   0  0  0  0  0  0
  -21.6054   -4.3047   24.7222 C   0  0  0  0  0  0
  -21.8817   -3.8137   23.4342 C   0  0  0  0  0  0
  -21.9188   -4.6947   22.3399 C   0  0  0  0  0  0
  -22.7823  -13.5219   21.1852 C   0  0  0  0  0  0
  -22.1657   -4.2129   21.0981 F   0  0  0  0  0  0
  -21.5635   -3.4538   25.7743 F   0  0  0  0  0  0
  -30.0246  -13.3642   20.4097 N   0  0  0  0  0  0
  -26.2969  -12.9294   20.3371 N   0  0  0  0  0  0
  -25.9291  -11.6463   20.5808 N   0  0  0  0  0  0
  -22.0447  -12.8248   22.0419 N   0  0  0  0  0  0
  -25.4245  -15.1861   20.4143 N   0  0  0  0  0  0
  -31.8839  -14.6477   20.1962 O   0  0  0  0  0  0
  -21.6628   -6.8856   21.4240 O   0  0  0  0  0  0
  -22.3508  -14.5523   20.6675 O   0  0  0  0  0  0
  -24.6160  -31.8658   23.2082 C   0  0  0  0  0  0
  -25.9045  -32.4813   23.8389 C   0  0  1  0  0  0
  -27.2428  -27.4191   20.1044 C   0  0  0  0  0  0
  -25.5887  -33.8614   24.2314 N   0  0  0  0  0  0
  -23.4082  -30.4870   21.5473 C   0  0  2  0  0  0
  -24.8611  -28.9511   20.1126 C   0  0  0  0  0  0
  -22.7429  -29.4639   22.4965 C   0  0  0  0  0  0
  -18.0275  -28.1387   22.8488 C   0  0  0  0  0  0
  -24.1479  -36.7318   23.2642 C   0  0  0  0  0  0
  -25.9392  -30.8238   21.3695 C   0  0  0  0  0  0
  -26.0196  -29.4577   20.7163 C   0  0  0  0  0  0
  -27.2156  -28.6976   20.7139 C   0  0  0  0  0  0
  -26.0733  -26.9333   19.4871 C   0  0  0  0  0  0
  -24.8833  -27.6873   19.4948 C   0  0  0  0  0  0
  -23.6208  -29.8168   20.1629 C   0  0  0  0  0  0
  -25.4104  -36.3113   24.0333 C   0  0  1  0  0  0
  -20.5868  -28.3671   23.1311 C   0  0  2  0  0  0
  -20.6765  -26.9405   22.5422 C   0  0  0  0  0  0
  -19.5746  -26.6390   21.5216 C   0  0  0  0  0  0
  -18.1920  -26.7934   22.1620 C   0  0  0  0  0  0
  -19.1526  -28.8845   23.2898 C   0  0  0  0  0  0
  -18.9453  -30.1449   23.8909 C   0  0  0  0  0  0
  -17.6457  -30.6589   24.0566 C   0  0  0  0  0  0
  -25.9032  -34.9474   23.5124 C   0  0  0  0  0  0
  -16.5348  -29.9089   23.6332 C   0  0  0  0  0  0
  -16.7264  -28.6511   23.0344 C   0  0  0  0  0  0
  -26.4472  -31.6607   25.0733 C   0  0  0  0  0  0
  -25.3734  -31.3746   26.1489 C   0  0  0  0  0  0
  -27.0318  -30.3036   24.6161 C   0  0  0  0  0  0
  -27.6049  -32.4345   25.7475 C   0  0  0  0  0  0
  -27.5583  -37.1812   24.8458 C   0  0  0  0  0  0
  -21.4154  -29.3032   22.3711 N   0  0  0  0  0  0
  -26.4293  -37.3798   23.9405 N   0  0  0  0  0  0
  -24.6719  -31.0734   22.0997 N   0  0  0  0  0  0
  -23.4186  -28.8190   23.3024 O   0  0  0  0  0  0
  -28.3595  -26.6059   20.1199 O   0  0  0  0  0  0
  -26.5609  -34.8928   22.4696 O   0  0  0  0  0  0
  -23.5345  -32.1422   23.7456 O   0  0  0  0  0  0
  -30.9154  -19.0937   19.0104 C   0  0  0  0  0  0
  -30.9186  -20.4806   19.2577 C   0  0  0  0  0  0
  -29.2244  -20.1800   20.9453 C   0  0  0  0  0  0
  -30.0526  -18.1995   19.6974 C   0  0  0  0  0  0
  -30.0673  -21.0678   20.2232 C   0  0  0  0  0  0
  -29.2172  -18.7781   20.6932 C   0  0  0  0  0  0
  -31.1124  -23.3473   20.2622 C   0  0  0  0  0  0
  -30.7355  -24.7924   20.5734 C   0  0  0  0  0  0
  -28.8935  -23.2952   20.8700 C   0  0  0  0  0  0
  -29.4574  -24.6454   21.4069 C   0  0  1  0  0  0
  -29.8390  -24.4380   22.8958 C   0  0  0  0  0  0
  -30.9346  -16.3803   18.0934 C   0  0  0  0  0  0
  -28.5376  -16.6352   18.4978 C   0  0  0  0  0  0
  -28.4977  -25.8878   21.3591 C   0  0  0  0  0  0
  -29.9039  -16.7139   19.2140 C   0  0  0  0  0  0
  -30.0632  -22.5080   20.4304 N   0  0  0  0  0  0
  -29.8619  -15.6428   20.2689 N   0  0  0  0  0  0
  -32.2660  -23.0454   19.9394 O   0  0  0  0  0  0
  -28.3561  -17.9958   21.3880 F   0  0  0  0  0  0
  -31.4665  -12.4183   19.1403 H   0  0  0  0  0  0
  -30.3290  -11.3342   19.8937 H   0  0  0  0  0  0
  -29.7402  -11.6989   17.4767 H   0  0  0  0  0  0
  -29.6511  -13.4197   17.7287 H   0  0  0  0  0  0
  -27.8331  -11.2784   18.8611 H   0  0  0  0  0  0
  -27.3643  -12.5701   17.7908 H   0  0  0  0  0  0
  -27.6509  -14.2314   19.5126 H   0  0  0  0  0  0
  -28.6924  -12.0835   21.4218 H   0  0  0  0  0  0
  -28.4807  -13.7753   21.8031 H   0  0  0  0  0  0
  -25.2721   -9.5673   22.4761 H   0  0  0  0  0  0
  -23.9989   -7.4603   22.7471 H   0  0  0  0  0  0
  -21.0810   -8.8752   19.8957 H   0  0  0  0  0  0
  -22.3651  -10.9660   19.6181 H   0  0  0  0  0  0
  -21.1989   -7.6134   23.9709 H   0  0  0  0  0  0
  -21.1487   -6.0513   25.9083 H   0  0  0  0  0  0
  -22.0601   -2.7594   23.2850 H   0  0  0  0  0  0
  -22.4042  -11.9935   22.4868 H   0  0  0  0  0  0
  -21.1057  -13.1299   22.2593 H   0  0  0  0  0  0
  -24.6579  -15.8380   20.5397 H   0  0  0  0  0  0
  -26.2786  -15.6341   20.1109 H   0  0  0  0  0  0
  -26.7120  -32.5523   23.1157 H   0  0  0  0  0  0
  -25.0006  -33.9768   25.0438 H   0  0  0  0  0  0
  -22.6978  -31.3040   21.4049 H   0  0  0  0  0  0
  -23.3740  -35.9656   23.3317 H   0  0  0  0  0  0
  -24.3562  -36.8928   22.2054 H   0  0  0  0  0  0
  -23.7235  -37.6525   23.6654 H   0  0  0  0  0  0
  -26.0609  -31.5907   20.6033 H   0  0  0  0  0  0
  -26.8222  -30.8726   21.9949 H   0  0  0  0  0  0
  -28.1080  -29.0814   21.1882 H   0  0  0  0  0  0
  -26.0824  -25.9583   19.0190 H   0  0  0  0  0  0
  -23.9941  -27.2893   19.0252 H   0  0  0  0  0  0
  -23.7284  -30.5908   19.4022 H   0  0  0  0  0  0
  -22.7461  -29.2344   19.8673 H   0  0  0  0  0  0
  -25.1283  -36.1981   25.0828 H   0  0  0  0  0  0
  -20.9962  -28.3245   24.1429 H   0  0  0  0  0  0
  -20.5672  -26.2279   23.3610 H   0  0  0  0  0  0
  -21.6633  -26.7451   22.1211 H   0  0  0  0  0  0
  -19.6905  -25.6306   21.1228 H   0  0  0  0  0  0
  -19.6686  -27.3216   20.6757 H   0  0  0  0  0  0
  -17.4197  -26.6693   21.4011 H   0  0  0  0  0  0
  -18.0311  -26.0072   22.9011 H   0  0  0  0  0  0
  -19.7931  -30.7256   24.2284 H   0  0  0  0  0  0
  -17.5015  -31.6265   24.5171 H   0  0  0  0  0  0
  -15.5349  -30.2991   23.7648 H   0  0  0  0  0  0
  -15.8667  -28.0834   22.7045 H   0  0  0  0  0  0
  -24.5868  -30.7138   25.7827 H   0  0  0  0  0  0
  -24.8974  -32.2923   26.4958 H   0  0  0  0  0  0
  -25.8071  -30.8885   27.0238 H   0  0  0  0  0  0
  -26.2889  -29.6783   24.1200 H   0  0  0  0  0  0
  -27.4043  -29.7291   25.4652 H   0  0  0  0  0  0
  -27.8738  -30.4327   23.9360 H   0  0  0  0  0  0
  -27.2662  -33.3628   26.2090 H   0  0  0  0  0  0
  -28.3820  -32.6952   25.0278 H   0  0  0  0  0  0
  -28.0775  -31.8470   26.5357 H   0  0  0  0  0  0
  -28.2606  -38.0105   24.7512 H   0  0  0  0  0  0
  -28.1071  -36.2640   24.6269 H   0  0  0  0  0  0
  -27.2305  -37.1450   25.8862 H   0  0  0  0  0  0
  -20.9322  -29.8743   21.6922 H   0  0  0  0  0  0
  -26.0185  -38.2876   24.1414 H   0  0  0  0  0  0
  -31.5754  -18.7603   18.2261 H   0  0  0  0  0  0
  -31.5719  -21.0893   18.6496 H   0  0  0  0  0  0
  -28.5572  -20.5610   21.7036 H   0  0  0  0  0  0
  -30.5553  -25.3124   19.6321 H   0  0  0  0  0  0
  -31.5325  -25.3137   21.1042 H   0  0  0  0  0  0
  -28.2485  -23.4648   20.0068 H   0  0  0  0  0  0
  -28.2985  -22.7788   21.6224 H   0  0  0  0  0  0
  -30.4567  -23.5532   23.0534 H   0  0  0  0  0  0
  -28.9509  -24.3224   23.5168 H   0  0  0  0  0  0
  -30.3987  -25.2891   23.2868 H   0  0  0  0  0  0
  -30.7918  -17.0024   17.2094 H   0  0  0  0  0  0
  -30.8478  -15.3543   17.7385 H   0  0  0  0  0  0
  -31.9630  -16.5200   18.4288 H   0  0  0  0  0  0
  -28.4554  -17.3893   17.7134 H   0  0  0  0  0  0
  -27.7023  -16.8009   19.1790 H   0  0  0  0  0  0
  -28.3888  -15.6701   18.0115 H   0  0  0  0  0  0
  -28.8461  -26.6275   22.0816 H   0  0  0  0  0  0
  -27.5167  -25.5721   21.7190 H   0  0  0  0  0  0
  -28.9356  -15.4826   20.6316 H   0  0  0  0  0  0
  1 25  1  0  0  0
  1 30  2  0  0  0
  1 87  1  0  0  0
  2  3  1  0  0  0
  2 25  1  0  0  0
  2 90  1  0  0  0
  2 91  1  0  0  0
  3  4  1  0  0  0
  3 92  1  0  0  0
  3 93  1  0  0  0
  4  5  1  0  0  0
  4 94  1  0  0  0
  4 95  1  0  0  0
  5  6  1  0  0  0
  5 26  1  0  0  0
  5 96  1  0  0  0
  6 25  1  0  0  0
  6 97  1  0  0  0
  6 98  1  0  0  0
  7  8  2  0  0  0
  7 26  1  0  0  0
  7 29  1  0  0  0
  8  9  1  0  0  0
  8 22  1  0  0  0
  9 10  1  0  0  0
  9 27  2  0  0  0
 10 11  2  0  0  0
 10 15  1  0  0  0
 11 12  1  0  0  0
 11 99  1  0  0  0
 12 13  2  0  0  0
 12100  1  0  0  0
 13 14  1  0  0  0
 13 31  1  0  0  0
 14 15  2  0  0  0
 14101  1  0  0  0
 15102  1  0  0  0
 16 17  2  0  0  0
 16 21  1  0  0  0
 16 31  1  0  0  0
 17 18  1  0  0  0
 17103  1  0  0  0
 18 19  2  0  0  0
 18104  1  0  0  0
 19 20  1  0  0  0
 19 24  1  0  0  0
 20 21  2  0  0  0
 20105  1  0  0  0
 21 23  1  0  0  0
 22 28  1  0  0  0
 22 32  2  0  0  0
 26 27  1  0  0  0
 28106  1  0  0  0
 28107  1  0  0  0
 29108  1  0  0  0
 29109  1  0  0  0
 33 34  1  0  0  0
 33 66  1  0  0  0
 33 70  2  0  0  0
 34 36  1  0  0  0
 34 59  1  0  0  0
 34110  1  0  0  0
 35 44  2  0  0  0
 35 45  1  0  0  0
 35 68  1  0  0  0
 36 56  1  0  0  0
 36111  1  0  0  0
 37 39  1  0  0  0
 37 47  1  0  0  0
 37 66  1  0  0  0
 37112  1  0  0  0
 38 43  2  0  0  0
 38 46  1  0  0  0
 38 47  1  0  0  0
 39 64  1  0  0  0
 39 67  2  0  0  0
 40 52  1  0  0  0
 40 53  2  0  0  0
 40 58  1  0  0  0
 41113  1  0  0  0
 41114  1  0  0  0
 41115  1  0  0  0
 41 48  1  0  0  0
 42 43  1  0  0  0
 42 66  1  0  0  0
 42116  1  0  0  0
 42117  1  0  0  0
 43 44  1  0  0  0
 44118  1  0  0  0
 45 46  2  0  0  0
 45119  1  0  0  0
 46120  1  0  0  0
 47121  1  0  0  0
 47122  1  0  0  0
 48 56  1  0  0  0
 48 65  1  0  0  0
 48123  1  0  0  0
 49 50  1  0  0  0
 49 53  1  0  0  0
 49 64  1  0  0  0
 49124  1  0  0  0
 50 51  1  0  0  0
 50125  1  0  0  0
 50126  1  0  0  0
 51 52  1  0  0  0
 51127  1  0  0  0
 51128  1  0  0  0
 52129  1  0  0  0
 52130  1  0  0  0
 53 54  1  0  0  0
 54 55  2  0  0  0
 54131  1  0  0  0
 55 57  1  0  0  0
 55132  1  0  0  0
 56 69  2  0  0  0
 57 58  2  0  0  0
 57133  1  0  0  0
 58134  1  0  0  0
 59 60  1  0  0  0
 59 61  1  0  0  0
 59 62  1  0  0  0
 60135  1  0  0  0
 60136  1  0  0  0
 60137  1  0  0  0
 61138  1  0  0  0
 61139  1  0  0  0
 61140  1  0  0  0
 62141  1  0  0  0
 62142  1  0  0  0
 62143  1  0  0  0
 63 65  1  0  0  0
 63144  1  0  0  0
 63145  1  0  0  0
 63146  1  0  0  0
 64147  1  0  0  0
 65148  1  0  0  0
 68 84  1  0  0  0
 71 72  2  0  0  0
 71 74  1  0  0  0
 71149  1  0  0  0
 72 75  1  0  0  0
 72150  1  0  0  0
 73 75  2  0  0  0
 73 76  1  0  0  0
 73151  1  0  0  0
 74 76  2  0  0  0
 74 85  1  0  0  0
 75 86  1  0  0  0
 76 89  1  0  0  0
 77 78  1  0  0  0
 77 86  1  0  0  0
 77 88  2  0  0  0
 78 80  1  0  0  0
 78152  1  0  0  0
 78153  1  0  0  0
 79 80  1  0  0  0
 79 86  1  0  0  0
 79154  1  0  0  0
 79155  1  0  0  0
 80 81  1  0  0  0
 80 84  1  0  0  0
 81156  1  0  0  0
 81157  1  0  0  0
 81158  1  0  0  0
 82159  1  0  0  0
 82160  1  0  0  0
 82161  1  0  0  0
 82 85  1  0  0  0
 83 85  1  0  0  0
 83162  1  0  0  0
 83163  1  0  0  0
 83164  1  0  0  0
 84165  1  0  0  0
 84166  1  0  0  0
 85 87  1  0  0  0
 87167  1  0  0  0
M  ISO  4   1 100  68 101  84 101  87 100
M  END
> <chiral flag>
0

> <version>
0

> <s_m_source_file>
/data/baiqing/PycharmProjects/Reinvent-master-3.2/result/LINK_invent/BTK/process_docking_weight1_custom_product_contain_oxygen_bond_distance_aromatic_linkinvent_7_9_3/rearranged_h_0072.sdf

> <i_m_source_file_index>
49

> <r_mmod_Potential_Energy-OPLS-2005>
179.064865112305

> <r_mmod_Stretch_Energy-OPLS-2005>
56.7657279968262

> <r_mmod_Bend_Energy-OPLS-2005>
157.626907348633

> <r_mmod_Torsional_Energy-OPLS-2005>
321.721710205078

> <r_mmod_Improper_Torsional_Energy-OPLS-2005>
14.2408180236816

> <r_mmod_Van_der_Waal_Energy-OPLS-2005>
159.341613769531

> <r_mmod_Electrostatic_Energy-OPLS-2005>
-354.281707763672

> <r_mmod_Solvation_Energy-OPLS-2005>
-207.986755371094

> <b_mmod_Minimization_Converged-OPLS-2005>
0

> <r_mmod_RMS_Derivative-OPLS-2005>
1.68056535720825

$$$$
49
                    3D
 Structure written by MMmdl.
152160  0  0  1  0            999 V2000
  -30.6155  -14.6567   20.4910 C   0  0  0  0  0  0
  -30.4405  -12.4016   19.4537 C   0  0  0  0  0  0
  -29.5084  -12.5066   18.2255 C   0  0  0  0  0  0
  -28.0313  -12.3429   18.6383 C   0  0  0  0  0  0
  -27.6516  -13.2180   19.8625 C   0  0  2  0  0  0
  -28.6981  -13.0809   20.9919 C   0  0  0  0  0  0
  -25.2542  -13.8163   20.5691 C   0  0  0  0  0  0
  -24.1811  -13.0420   20.9167 C   0  0  0  0  0  0
  -24.6392  -11.6898   20.8726 C   0  0  0  0  0  0
  -23.9065  -10.4283   21.0397 C   0  0  0  0  0  0
  -24.3616   -9.4203   21.9179 C   0  0  0  0  0  0
  -23.6290   -8.2240   22.0754 C   0  0  0  0  0  0
  -22.4272   -8.0278   21.3544 C   0  0  0  0  0  0
  -21.9905   -9.0251   20.4646 C   0  0  0  0  0  0
  -22.7235  -10.2127   20.3050 C   0  0  0  0  0  0
  -21.6852   -6.0733   22.5279 C   0  0  0  0  0  0
  -21.4014   -6.5637   23.8213 C   0  0  0  0  0  0
  -21.3659   -5.6791   24.9175 C   0  0  0  0  0  0
  -21.6044   -4.3053   24.7225 C   0  0  0  0  0  0
  -21.8820   -3.8145   23.4347 C   0  0  0  0  0  0
  -21.9193   -4.6961   22.3402 C   0  0  0  0  0  0
  -22.7836  -13.5216   21.1843 C   0  0  0  0  0  0
  -22.1662   -4.2147   21.0980 F   0  0  0  0  0  0
  -21.5628   -3.4537   25.7738 F   0  0  0  0  0  0
  -30.0124  -13.4264   20.4267 N   0  0  0  0  0  0
  -26.2984  -12.9356   20.3331 N   0  0  0  0  0  0
  -25.9326  -11.6506   20.5759 N   0  0  0  0  0  0
  -22.0486  -12.8211   22.0408 N   0  0  0  0  0  0
  -25.4197  -15.1892   20.4185 N   0  0  0  0  0  0
  -31.7839  -14.8154   20.1246 O   0  0  0  0  0  0
  -21.6637   -6.8876   21.4242 O   0  0  0  0  0  0
  -22.3517  -14.5526   20.6703 O   0  0  0  0  0  0
  -24.6259  -31.8596   23.2019 C   0  0  0  0  0  0
  -25.9106  -32.4778   23.8351 C   0  0  1  0  0  0
  -27.2257  -27.3166   20.1247 C   0  0  0  0  0  0
  -25.5921  -33.8579   24.2279 N   0  0  0  0  0  0
  -23.4201  -30.4820   21.5445 C   0  0  2  0  0  0
  -24.8677  -28.9336   20.1141 C   0  0  0  0  0  0
  -22.7473  -29.4622   22.4938 C   0  0  0  0  0  0
  -18.0286  -28.1385   22.8487 C   0  0  0  0  0  0
  -24.1489  -36.7295   23.2639 C   0  0  0  0  0  0
  -25.9608  -30.7896   21.3733 C   0  0  0  0  0  0
  -26.0361  -29.4153   20.7186 C   0  0  0  0  0  0
  -27.2197  -28.6192   20.7121 C   0  0  0  0  0  0
  -26.0389  -26.8898   19.4895 C   0  0  0  0  0  0
  -24.8709  -27.6761   19.4902 C   0  0  0  0  0  0
  -23.6357  -29.8143   20.1608 C   0  0  0  0  0  0
  -25.4114  -36.3085   24.0329 C   0  0  1  0  0  0
  -20.5885  -28.3689   23.1284 C   0  0  2  0  0  0
  -20.6775  -26.9413   22.5409 C   0  0  0  0  0  0
  -19.5750  -26.6385   21.5212 C   0  0  0  0  0  0
  -18.1931  -26.7927   22.1627 C   0  0  0  0  0  0
  -19.1538  -28.8854   23.2881 C   0  0  0  0  0  0
  -18.9461  -30.1457   23.8897 C   0  0  0  0  0  0
  -17.6461  -30.6587   24.0563 C   0  0  0  0  0  0
  -25.9050  -34.9452   23.5105 C   0  0  0  0  0  0
  -16.5352  -29.9086   23.6329 C   0  0  0  0  0  0
  -16.7273  -28.6503   23.0351 C   0  0  0  0  0  0
  -26.4492  -31.6588   25.0721 C   0  0  0  0  0  0
  -25.3727  -31.3725   26.1450 C   0  0  0  0  0  0
  -27.0336  -30.3013   24.6173 C   0  0  0  0  0  0
  -27.6053  -32.4322   25.7491 C   0  0  0  0  0  0
  -27.5578  -37.1805   24.8467 C   0  0  0  0  0  0
  -21.4187  -29.3043   22.3680 N   0  0  0  0  0  0
  -26.4294  -37.3777   23.9405 N   0  0  0  0  0  0
  -24.6877  -31.0605   22.0970 N   0  0  0  0  0  0
  -23.4196  -28.8162   23.3019 O   0  0  0  0  0  0
  -28.3457  -26.4730   20.1391 O   0  0  0  0  0  0
  -26.5620  -34.8919   22.4673 O   0  0  0  0  0  0
  -23.5422  -32.1394   23.7346 O   0  0  0  0  0  0
  -31.0547  -19.3145   20.2511 C   0  0  0  0  0  0
  -31.0803  -17.8996   20.4544 C   0  0  0  0  0  0
  -28.6531  -19.3216   20.3500 C   0  0  0  0  0  0
  -29.8447  -20.0703   20.1682 C   0  0  0  0  0  0
  -29.8835  -17.1516   20.5981 C   0  0  0  0  0  0
  -28.6778  -17.9072   20.5594 C   0  0  0  0  0  0
  -29.8777  -21.5398   19.7662 C   0  0  0  0  0  0
  -29.1464  -24.0218   19.8643 C   0  0  0  0  0  0
  -28.1516  -25.0493   20.5329 C   0  0  0  0  0  0
  -29.7921  -15.7042   20.8071 N   0  0  0  0  0  0
  -29.1077  -22.5813   20.2580 N   0  0  0  0  0  0
  -30.7690  -21.8112   18.8069 N   0  3  0  0  0  0
  -29.9485  -24.4192   19.0077 O   0  0  0  0  0  0
  -27.5037  -17.2455   20.6988 F   0  0  0  0  0  0
  -31.4809  -12.5313   19.1501 H   0  0  0  0  0  0
  -30.3810  -11.4079   19.9004 H   0  0  0  0  0  0
  -29.7745  -11.7509   17.4851 H   0  0  0  0  0  0
  -29.6478  -13.4731   17.7385 H   0  0  0  0  0  0
  -27.8713  -11.2903   18.8747 H   0  0  0  0  0  0
  -27.3761  -12.5669   17.7957 H   0  0  0  0  0  0
  -27.6635  -14.2512   19.5153 H   0  0  0  0  0  0
  -28.7129  -12.0608   21.3787 H   0  0  0  0  0  0
  -28.4426  -13.7163   21.8414 H   0  0  0  0  0  0
  -25.2763   -9.5680   22.4750 H   0  0  0  0  0  0
  -23.9999   -7.4633   22.7475 H   0  0  0  0  0  0
  -21.0835   -8.8770   19.8953 H   0  0  0  0  0  0
  -22.3696  -10.9666   19.6158 H   0  0  0  0  0  0
  -21.2007   -7.6146   23.9716 H   0  0  0  0  0  0
  -21.1479   -6.0520   25.9078 H   0  0  0  0  0  0
  -22.0599   -2.7607   23.2848 H   0  0  0  0  0  0
  -22.4104  -11.9871   22.4791 H   0  0  0  0  0  0
  -21.1109  -13.1244   22.2625 H   0  0  0  0  0  0
  -24.6526  -15.8351   20.5652 H   0  0  0  0  0  0
  -26.2866  -15.6648   20.1971 H   0  0  0  0  0  0
  -26.7174  -32.5450   23.1100 H   0  0  0  0  0  0
  -25.0066  -33.9724   25.0422 H   0  0  0  0  0  0
  -22.7140  -31.3024   21.4000 H   0  0  0  0  0  0
  -23.3747  -35.9633   23.3311 H   0  0  0  0  0  0
  -24.3579  -36.8906   22.2052 H   0  0  0  0  0  0
  -23.7249  -37.6503   23.6655 H   0  0  0  0  0  0
  -26.0910  -31.5514   20.6034 H   0  0  0  0  0  0
  -26.8416  -30.8406   22.0017 H   0  0  0  0  0  0
  -28.1180  -28.9859   21.1890 H   0  0  0  0  0  0
  -26.0016  -25.9364   18.9832 H   0  0  0  0  0  0
  -23.9781  -27.3047   19.0062 H   0  0  0  0  0  0
  -23.7552  -30.5895   19.4030 H   0  0  0  0  0  0
  -22.7557  -29.2433   19.8591 H   0  0  0  0  0  0
  -25.1295  -36.1939   25.0822 H   0  0  0  0  0  0
  -20.9978  -28.3263   24.1405 H   0  0  0  0  0  0
  -20.5678  -26.2298   23.3608 H   0  0  0  0  0  0
  -21.6644  -26.7445   22.1200 H   0  0  0  0  0  0
  -19.6911  -25.6296   21.1240 H   0  0  0  0  0  0
  -19.6684  -27.3196   20.6742 H   0  0  0  0  0  0
  -17.4198  -26.6670   21.4033 H   0  0  0  0  0  0
  -18.0336  -26.0071   22.9026 H   0  0  0  0  0  0
  -19.7937  -30.7273   24.2265 H   0  0  0  0  0  0
  -17.5015  -31.6268   24.5165 H   0  0  0  0  0  0
  -15.5353  -30.2987   23.7653 H   0  0  0  0  0  0
  -15.8674  -28.0822   22.7065 H   0  0  0  0  0  0
  -24.5899  -30.7078   25.7779 H   0  0  0  0  0  0
  -24.8923  -32.2891   26.4882 H   0  0  0  0  0  0
  -25.8054  -30.8897   27.0221 H   0  0  0  0  0  0
  -26.2909  -29.6762   24.1202 H   0  0  0  0  0  0
  -27.4042  -29.7272   25.4675 H   0  0  0  0  0  0
  -27.8774  -30.4303   23.9391 H   0  0  0  0  0  0
  -27.2667  -33.3625   26.2063 H   0  0  0  0  0  0
  -28.3865  -32.6876   25.0319 H   0  0  0  0  0  0
  -28.0717  -31.8449   26.5410 H   0  0  0  0  0  0
  -28.2604  -38.0094   24.7504 H   0  0  0  0  0  0
  -28.1067  -36.2625   24.6308 H   0  0  0  0  0  0
  -27.2294  -37.1472   25.8870 H   0  0  0  0  0  0
  -20.9364  -29.8767   21.6891 H   0  0  0  0  0  0
  -26.0177  -38.2855   24.1394 H   0  0  0  0  0  0
  -32.0028  -19.8209   20.1293 H   0  0  0  0  0  0
  -32.0355  -17.3961   20.4915 H   0  0  0  0  0  0
  -27.6950  -19.8156   20.2845 H   0  0  0  0  0  0
  -28.2880  -24.9873   21.6125 H   0  0  0  0  0  0
  -27.1421  -24.6907   20.3421 H   0  0  0  0  0  0
  -28.8648  -15.4061   21.0663 H   0  0  0  0  0  0
  -28.4674  -22.2678   20.9716 H   0  0  0  0  0  0
  -31.2946  -21.0728   18.3666 H   0  0  0  0  0  0
  -30.8580  -22.7668   18.4813 H   0  0  0  0  0  0
  1 25  1  0  0  0
  1 30  2  0  0  0
  1 80  1  0  0  0
  2  3  1  0  0  0
  2 25  1  0  0  0
  2 85  1  0  0  0
  2 86  1  0  0  0
  3  4  1  0  0  0
  3 87  1  0  0  0
  3 88  1  0  0  0
  4  5  1  0  0  0
  4 89  1  0  0  0
  4 90  1  0  0  0
  5  6  1  0  0  0
  5 26  1  0  0  0
  5 91  1  0  0  0
  6 25  1  0  0  0
  6 92  1  0  0  0
  6 93  1  0  0  0
  7  8  2  0  0  0
  7 26  1  0  0  0
  7 29  1  0  0  0
  8  9  1  0  0  0
  8 22  1  0  0  0
  9 10  1  0  0  0
  9 27  2  0  0  0
 10 11  2  0  0  0
 10 15  1  0  0  0
 11 12  1  0  0  0
 11 94  1  0  0  0
 12 13  2  0  0  0
 12 95  1  0  0  0
 13 14  1  0  0  0
 13 31  1  0  0  0
 14 15  2  0  0  0
 14 96  1  0  0  0
 15 97  1  0  0  0
 16 17  2  0  0  0
 16 21  1  0  0  0
 16 31  1  0  0  0
 17 18  1  0  0  0
 17 98  1  0  0  0
 18 19  2  0  0  0
 18 99  1  0  0  0
 19 20  1  0  0  0
 19 24  1  0  0  0
 20 21  2  0  0  0
 20100  1  0  0  0
 21 23  1  0  0  0
 22 28  1  0  0  0
 22 32  2  0  0  0
 26 27  1  0  0  0
 28101  1  0  0  0
 28102  1  0  0  0
 29103  1  0  0  0
 29104  1  0  0  0
 33 34  1  0  0  0
 33 66  1  0  0  0
 33 70  2  0  0  0
 34 36  1  0  0  0
 34 59  1  0  0  0
 34105  1  0  0  0
 35 44  2  0  0  0
 35 45  1  0  0  0
 35 68  1  0  0  0
 36 56  1  0  0  0
 36106  1  0  0  0
 37 39  1  0  0  0
 37 47  1  0  0  0
 37 66  1  0  0  0
 37107  1  0  0  0
 38 43  2  0  0  0
 38 46  1  0  0  0
 38 47  1  0  0  0
 39 64  1  0  0  0
 39 67  2  0  0  0
 40 52  1  0  0  0
 40 53  2  0  0  0
 40 58  1  0  0  0
 41108  1  0  0  0
 41109  1  0  0  0
 41110  1  0  0  0
 41 48  1  0  0  0
 42 43  1  0  0  0
 42 66  1  0  0  0
 42111  1  0  0  0
 42112  1  0  0  0
 43 44  1  0  0  0
 44113  1  0  0  0
 45 46  2  0  0  0
 45114  1  0  0  0
 46115  1  0  0  0
 47116  1  0  0  0
 47117  1  0  0  0
 48 56  1  0  0  0
 48 65  1  0  0  0
 48118  1  0  0  0
 49 50  1  0  0  0
 49 53  1  0  0  0
 49 64  1  0  0  0
 49119  1  0  0  0
 50 51  1  0  0  0
 50120  1  0  0  0
 50121  1  0  0  0
 51 52  1  0  0  0
 51122  1  0  0  0
 51123  1  0  0  0
 52124  1  0  0  0
 52125  1  0  0  0
 53 54  1  0  0  0
 54 55  2  0  0  0
 54126  1  0  0  0
 55 57  1  0  0  0
 55127  1  0  0  0
 56 69  2  0  0  0
 57 58  2  0  0  0
 57128  1  0  0  0
 58129  1  0  0  0
 59 60  1  0  0  0
 59 61  1  0  0  0
 59 62  1  0  0  0
 60130  1  0  0  0
 60131  1  0  0  0
 60132  1  0  0  0
 61133  1  0  0  0
 61134  1  0  0  0
 61135  1  0  0  0
 62136  1  0  0  0
 62137  1  0  0  0
 62138  1  0  0  0
 63 65  1  0  0  0
 63139  1  0  0  0
 63140  1  0  0  0
 63141  1  0  0  0
 64142  1  0  0  0
 65143  1  0  0  0
 68 79  1  0  0  0
 71 72  2  0  0  0
 71 74  1  0  0  0
 71144  1  0  0  0
 72 75  1  0  0  0
 72145  1  0  0  0
 73 74  2  0  0  0
 73 76  1  0  0  0
 73146  1  0  0  0
 74 77  1  0  0  0
 75 76  2  0  0  0
 75 80  1  0  0  0
 76 84  1  0  0  0
 77 81  1  0  0  0
 77 82  2  0  0  0
 78 79  1  0  0  0
 78 81  1  0  0  0
 78 83  2  0  0  0
 79147  1  0  0  0
 79148  1  0  0  0
 80149  1  0  0  0
 81150  1  0  0  0
 82151  1  0  0  0
 82152  1  0  0  0
M  CHG  1  82   1
M  ISO  4   1 100  68 101  79 101  80 100
M  END
> <chiral flag>
0

> <version>
0

> <s_m_source_file>
/data/baiqing/PycharmProjects/Reinvent-master-3.2/result/LINK_invent/BTK/process_docking_weight1_custom_product_contain_oxygen_bond_distance_aromatic_linkinvent_7_9_3/rearranged_h_0072.sdf

> <i_m_source_file_index>
50

> <r_mmod_Potential_Energy-OPLS-2005>
-295.271911621094

> <r_mmod_Stretch_Energy-OPLS-2005>
84.8024520874023

> <r_mmod_Bend_Energy-OPLS-2005>
146.015975952148

> <r_mmod_Torsional_Energy-OPLS-2005>
224.659088134766

> <r_mmod_Improper_Torsional_Energy-OPLS-2005>
4.950608253479

> <r_mmod_Van_der_Waal_Energy-OPLS-2005>
155.929885864258

> <r_mmod_Electrostatic_Energy-OPLS-2005>
-497.979583740234

> <r_mmod_Solvation_Energy-OPLS-2005>
-464.569702148438

> <b_mmod_Minimization_Converged-OPLS-2005>
0

> <r_mmod_RMS_Derivative-OPLS-2005>
0.166535586118698

$$$$
50
                    3D
 Structure written by MMmdl.
157166  0  0  1  0            999 V2000
  -30.6280  -14.6380   20.4962 C   0  0  0  0  0  0
  -30.4394  -12.3903   19.4521 C   0  0  0  0  0  0
  -29.5079  -12.5045   18.2247 C   0  0  0  0  0  0
  -28.0308  -12.3445   18.6380 C   0  0  0  0  0  0
  -27.6540  -13.2171   19.8651 C   0  0  2  0  0  0
  -28.7005  -13.0738   20.9936 C   0  0  0  0  0  0
  -25.2558  -13.8168   20.5691 C   0  0  0  0  0  0
  -24.1820  -13.0429   20.9166 C   0  0  0  0  0  0
  -24.6396  -11.6904   20.8727 C   0  0  0  0  0  0
  -23.9063  -10.4288   21.0398 C   0  0  0  0  0  0
  -24.3615   -9.4207   21.9181 C   0  0  0  0  0  0
  -23.6288   -8.2243   22.0753 C   0  0  0  0  0  0
  -22.4271   -8.0280   21.3544 C   0  0  0  0  0  0
  -21.9904   -9.0254   20.4646 C   0  0  0  0  0  0
  -22.7233  -10.2132   20.3052 C   0  0  0  0  0  0
  -21.6854   -6.0732   22.5277 C   0  0  0  0  0  0
  -21.4016   -6.5637   23.8210 C   0  0  0  0  0  0
  -21.3659   -5.6790   24.9173 C   0  0  0  0  0  0
  -21.6044   -4.3053   24.7225 C   0  0  0  0  0  0
  -21.8820   -3.8143   23.4346 C   0  0  0  0  0  0
  -21.9193   -4.6960   22.3401 C   0  0  0  0  0  0
  -22.7843  -13.5225   21.1838 C   0  0  0  0  0  0
  -22.1661   -4.2144   21.0979 F   0  0  0  0  0  0
  -21.5628   -3.4537   25.7738 F   0  0  0  0  0  0
  -30.0165  -13.4131   20.4285 N   0  0  0  0  0  0
  -26.2998  -12.9356   20.3342 N   0  0  0  0  0  0
  -25.9330  -11.6508   20.5766 N   0  0  0  0  0  0
  -22.0491  -12.8223   22.0405 N   0  0  0  0  0  0
  -25.4250  -15.1895   20.4169 N   0  0  0  0  0  0
  -31.7922  -14.7944   20.1186 O   0  0  0  0  0  0
  -21.6639   -6.8876   21.4239 O   0  0  0  0  0  0
  -22.3523  -14.5533   20.6694 O   0  0  0  0  0  0
  -24.6261  -31.8607   23.2042 C   0  0  0  0  0  0
  -25.9111  -32.4784   23.8364 C   0  0  1  0  0  0
  -27.2224  -27.3225   20.1110 C   0  0  0  0  0  0
  -25.5930  -33.8584   24.2289 N   0  0  0  0  0  0
  -23.4192  -30.4860   21.5471 C   0  0  2  0  0  0
  -24.8647  -28.9452   20.1109 C   0  0  0  0  0  0
  -22.7475  -29.4630   22.4939 C   0  0  0  0  0  0
  -18.0286  -28.1385   22.8487 C   0  0  0  0  0  0
  -24.1489  -36.7295   23.2638 C   0  0  0  0  0  0
  -25.9613  -30.7922   21.3757 C   0  0  0  0  0  0
  -26.0351  -29.4212   20.7153 C   0  0  0  0  0  0
  -27.2170  -28.6219   20.7062 C   0  0  0  0  0  0
  -26.0260  -26.9032   19.4806 C   0  0  0  0  0  0
  -24.8618  -27.6910   19.4857 C   0  0  0  0  0  0
  -23.6332  -29.8248   20.1613 C   0  0  0  0  0  0
  -25.4113  -36.3086   24.0330 C   0  0  1  0  0  0
  -20.5887  -28.3689   23.1282 C   0  0  2  0  0  0
  -20.6777  -26.9413   22.5407 C   0  0  0  0  0  0
  -19.5750  -26.6385   21.5212 C   0  0  0  0  0  0
  -18.1931  -26.7927   22.1627 C   0  0  0  0  0  0
  -19.1539  -28.8853   23.2880 C   0  0  0  0  0  0
  -18.9462  -30.1456   23.8896 C   0  0  0  0  0  0
  -17.6462  -30.6587   24.0564 C   0  0  0  0  0  0
  -25.9051  -34.9455   23.5108 C   0  0  0  0  0  0
  -16.5353  -29.9086   23.6330 C   0  0  0  0  0  0
  -16.7274  -28.6503   23.0352 C   0  0  0  0  0  0
  -26.4496  -31.6590   25.0731 C   0  0  0  0  0  0
  -25.3732  -31.3730   26.1460 C   0  0  0  0  0  0
  -27.0338  -30.3014   24.6184 C   0  0  0  0  0  0
  -27.6056  -32.4325   25.7498 C   0  0  0  0  0  0
  -27.5580  -37.1802   24.8464 C   0  0  0  0  0  0
  -21.4189  -29.3045   22.3680 N   0  0  0  0  0  0
  -26.4292  -37.3779   23.9408 N   0  0  0  0  0  0
  -24.6877  -31.0625   22.0992 N   0  0  0  0  0  0
  -23.4200  -28.8164   23.3012 O   0  0  0  0  0  0
  -28.3364  -26.4669   20.1637 O   0  0  0  0  0  0
  -26.5617  -34.8920   22.4673 O   0  0  0  0  0  0
  -23.5426  -32.1404   23.7372 O   0  0  0  0  0  0
  -28.7989  -19.3584   20.8815 C   0  0  0  0  0  0
  -31.1066  -17.8574   20.3401 C   0  0  0  0  0  0
  -29.9752  -20.0874   20.5647 C   0  0  0  0  0  0
  -29.9369  -17.1412   20.7000 C   0  0  0  0  0  0
  -28.7850  -17.9324   20.9525 C   0  0  0  0  0  0
  -31.1232  -19.2827   20.2702 C   0  0  0  0  0  0
  -30.4510  -24.4093   20.6793 C   0  0  0  0  0  0
  -29.2102  -23.9968   20.3702 C   0  0  0  0  0  0
  -31.5747  -23.4593   21.0518 C   0  0  0  0  0  0
  -28.8873  -22.4568   20.3544 C   0  0  0  0  0  0
  -31.0712  -22.0685   21.4860 C   0  0  0  0  0  0
  -28.0842  -25.0147   19.9970 C   0  0  0  0  0  0
  -30.0454  -21.5335   20.5842 N   0  0  0  0  0  0
  -29.8170  -15.6872   20.8338 N   0  0  0  0  0  0
  -27.6318  -17.3004   21.2798 F   0  0  0  0  0  0
  -32.2836  -19.8802   19.9013 F   0  0  0  0  0  0
  -31.4803  -12.5150   19.1483 H   0  0  0  0  0  0
  -30.3746  -11.3952   19.8952 H   0  0  0  0  0  0
  -29.7706  -11.7509   17.4809 H   0  0  0  0  0  0
  -29.6513  -13.4727   17.7422 H   0  0  0  0  0  0
  -27.8676  -11.2917   18.8713 H   0  0  0  0  0  0
  -27.3759  -12.5733   17.7965 H   0  0  0  0  0  0
  -27.6700  -14.2520   19.5225 H   0  0  0  0  0  0
  -28.7111  -12.0531   21.3790 H   0  0  0  0  0  0
  -28.4481  -13.7088   21.8443 H   0  0  0  0  0  0
  -25.2762   -9.5682   22.4751 H   0  0  0  0  0  0
  -23.9997   -7.4637   22.7476 H   0  0  0  0  0  0
  -21.0832   -8.8775   19.8955 H   0  0  0  0  0  0
  -22.3694  -10.9670   19.6159 H   0  0  0  0  0  0
  -21.2010   -7.6146   23.9713 H   0  0  0  0  0  0
  -21.1479   -6.0520   25.9075 H   0  0  0  0  0  0
  -22.0600   -2.7605   23.2850 H   0  0  0  0  0  0
  -22.4109  -11.9885   22.4791 H   0  0  0  0  0  0
  -21.1113  -13.1256   22.2619 H   0  0  0  0  0  0
  -24.6652  -15.8430   20.5681 H   0  0  0  0  0  0
  -26.2986  -15.6515   20.1976 H   0  0  0  0  0  0
  -26.7177  -32.5453   23.1112 H   0  0  0  0  0  0
  -25.0075  -33.9730   25.0432 H   0  0  0  0  0  0
  -22.7125  -31.3066   21.4064 H   0  0  0  0  0  0
  -23.3751  -35.9628   23.3300 H   0  0  0  0  0  0
  -24.3580  -36.8916   22.2052 H   0  0  0  0  0  0
  -23.7243  -37.6498   23.6658 H   0  0  0  0  0  0
  -26.0944  -31.5573   20.6095 H   0  0  0  0  0  0
  -26.8413  -30.8383   22.0056 H   0  0  0  0  0  0
  -28.1138  -28.9821   21.1909 H   0  0  0  0  0  0
  -25.9532  -25.9488   18.9822 H   0  0  0  0  0  0
  -23.9652  -27.3210   19.0075 H   0  0  0  0  0  0
  -23.7533  -30.6034   19.4072 H   0  0  0  0  0  0
  -22.7527  -29.2560   19.8570 H   0  0  0  0  0  0
  -25.1293  -36.1940   25.0823 H   0  0  0  0  0  0
  -20.9978  -28.3264   24.1403 H   0  0  0  0  0  0
  -20.5685  -26.2298   23.3605 H   0  0  0  0  0  0
  -21.6645  -26.7448   22.1196 H   0  0  0  0  0  0
  -19.6913  -25.6297   21.1238 H   0  0  0  0  0  0
  -19.6685  -27.3198   20.6744 H   0  0  0  0  0  0
  -17.4199  -26.6671   21.4032 H   0  0  0  0  0  0
  -18.0336  -26.0071   22.9026 H   0  0  0  0  0  0
  -19.7938  -30.7272   24.2265 H   0  0  0  0  0  0
  -17.5017  -31.6267   24.5166 H   0  0  0  0  0  0
  -15.5354  -30.2990   23.7654 H   0  0  0  0  0  0
  -15.8673  -28.0824   22.7067 H   0  0  0  0  0  0
  -24.5895  -30.7094   25.7788 H   0  0  0  0  0  0
  -24.8940  -32.2900   26.4899 H   0  0  0  0  0  0
  -25.8057  -30.8891   27.0226 H   0  0  0  0  0  0
  -26.2913  -29.6765   24.1208 H   0  0  0  0  0  0
  -27.4037  -29.7270   25.4687 H   0  0  0  0  0  0
  -27.8783  -30.4301   23.9409 H   0  0  0  0  0  0
  -27.2666  -33.3623   26.2080 H   0  0  0  0  0  0
  -28.3862  -32.6892   25.0324 H   0  0  0  0  0  0
  -28.0728  -31.8450   26.5411 H   0  0  0  0  0  0
  -28.2597  -38.0101   24.7515 H   0  0  0  0  0  0
  -28.1077  -36.2633   24.6285 H   0  0  0  0  0  0
  -27.2297  -37.1446   25.8867 H   0  0  0  0  0  0
  -20.9363  -29.8775   21.6898 H   0  0  0  0  0  0
  -26.0174  -38.2854   24.1412 H   0  0  0  0  0  0
  -27.8872  -19.8877   21.1109 H   0  0  0  0  0  0
  -32.0197  -17.3280   20.1165 H   0  0  0  0  0  0
  -30.6926  -25.4626   20.6582 H   0  0  0  0  0  0
  -32.1622  -23.9021   21.8571 H   0  0  0  0  0  0
  -32.2413  -23.3679   20.1932 H   0  0  0  0  0  0
  -28.4415  -22.2155   19.3883 H   0  0  0  0  0  0
  -28.1202  -22.2660   21.1063 H   0  0  0  0  0  0
  -30.6259  -22.1506   22.4793 H   0  0  0  0  0  0
  -31.9239  -21.4010   21.6064 H   0  0  0  0  0  0
  -27.2173  -24.7381   20.5995 H   0  0  0  0  0  0
  -27.8300  -24.8178   18.9550 H   0  0  0  0  0  0
  -28.8987  -15.3933   21.1307 H   0  0  0  0  0  0
  1 25  1  0  0  0
  1 30  2  0  0  0
  1 84  1  0  0  0
  2  3  1  0  0  0
  2 25  1  0  0  0
  2 87  1  0  0  0
  2 88  1  0  0  0
  3  4  1  0  0  0
  3 89  1  0  0  0
  3 90  1  0  0  0
  4  5  1  0  0  0
  4 91  1  0  0  0
  4 92  1  0  0  0
  5  6  1  0  0  0
  5 26  1  0  0  0
  5 93  1  0  0  0
  6 25  1  0  0  0
  6 94  1  0  0  0
  6 95  1  0  0  0
  7  8  2  0  0  0
  7 26  1  0  0  0
  7 29  1  0  0  0
  8  9  1  0  0  0
  8 22  1  0  0  0
  9 10  1  0  0  0
  9 27  2  0  0  0
 10 11  2  0  0  0
 10 15  1  0  0  0
 11 12  1  0  0  0
 11 96  1  0  0  0
 12 13  2  0  0  0
 12 97  1  0  0  0
 13 14  1  0  0  0
 13 31  1  0  0  0
 14 15  2  0  0  0
 14 98  1  0  0  0
 15 99  1  0  0  0
 16 17  2  0  0  0
 16 21  1  0  0  0
 16 31  1  0  0  0
 17 18  1  0  0  0
 17100  1  0  0  0
 18 19  2  0  0  0
 18101  1  0  0  0
 19 20  1  0  0  0
 19 24  1  0  0  0
 20 21  2  0  0  0
 20102  1  0  0  0
 21 23  1  0  0  0
 22 28  1  0  0  0
 22 32  2  0  0  0
 26 27  1  0  0  0
 28103  1  0  0  0
 28104  1  0  0  0
 29105  1  0  0  0
 29106  1  0  0  0
 33 34  1  0  0  0
 33 66  1  0  0  0
 33 70  2  0  0  0
 34 36  1  0  0  0
 34 59  1  0  0  0
 34107  1  0  0  0
 35 44  2  0  0  0
 35 45  1  0  0  0
 35 68  1  0  0  0
 36 56  1  0  0  0
 36108  1  0  0  0
 37 39  1  0  0  0
 37 47  1  0  0  0
 37 66  1  0  0  0
 37109  1  0  0  0
 38 43  2  0  0  0
 38 46  1  0  0  0
 38 47  1  0  0  0
 39 64  1  0  0  0
 39 67  2  0  0  0
 40 52  1  0  0  0
 40 53  2  0  0  0
 40 58  1  0  0  0
 41110  1  0  0  0
 41111  1  0  0  0
 41112  1  0  0  0
 41 48  1  0  0  0
 42 43  1  0  0  0
 42 66  1  0  0  0
 42113  1  0  0  0
 42114  1  0  0  0
 43 44  1  0  0  0
 44115  1  0  0  0
 45 46  2  0  0  0
 45116  1  0  0  0
 46117  1  0  0  0
 47118  1  0  0  0
 47119  1  0  0  0
 48 56  1  0  0  0
 48 65  1  0  0  0
 48120  1  0  0  0
 49 50  1  0  0  0
 49 53  1  0  0  0
 49 64  1  0  0  0
 49121  1  0  0  0
 50 51  1  0  0  0
 50122  1  0  0  0
 50123  1  0  0  0
 51 52  1  0  0  0
 51124  1  0  0  0
 51125  1  0  0  0
 52126  1  0  0  0
 52127  1  0  0  0
 53 54  1  0  0  0
 54 55  2  0  0  0
 54128  1  0  0  0
 55 57  1  0  0  0
 55129  1  0  0  0
 56 69  2  0  0  0
 57 58  2  0  0  0
 57130  1  0  0  0
 58131  1  0  0  0
 59 60  1  0  0  0
 59 61  1  0  0  0
 59 62  1  0  0  0
 60132  1  0  0  0
 60133  1  0  0  0
 60134  1  0  0  0
 61135  1  0  0  0
 61136  1  0  0  0
 61137  1  0  0  0
 62138  1  0  0  0
 62139  1  0  0  0
 62140  1  0  0  0
 63 65  1  0  0  0
 63141  1  0  0  0
 63142  1  0  0  0
 63143  1  0  0  0
 64144  1  0  0  0
 65145  1  0  0  0
 68 82  1  0  0  0
 71 73  2  0  0  0
 71 75  1  0  0  0
 71146  1  0  0  0
 72 74  1  0  0  0
 72 76  2  0  0  0
 72147  1  0  0  0
 73 76  1  0  0  0
 73 83  1  0  0  0
 74 75  2  0  0  0
 74 84  1  0  0  0
 75 85  1  0  0  0
 76 86  1  0  0  0
 77 78  2  0  0  0
 77 79  1  0  0  0
 77148  1  0  0  0
 78 80  1  0  0  0
 78 82  1  0  0  0
 79 81  1  0  0  0
 79149  1  0  0  0
 79150  1  0  0  0
 80 83  1  0  0  0
 80151  1  0  0  0
 80152  1  0  0  0
 81 83  1  0  0  0
 81153  1  0  0  0
 81154  1  0  0  0
 82155  1  0  0  0
 82156  1  0  0  0
 84157  1  0  0  0
M  ISO  4   1 100  68 101  82 101  84 100
M  END
> <chiral flag>
0

> <version>
0

> <s_m_source_file>
/data/baiqing/PycharmProjects/Reinvent-master-3.2/result/LINK_invent/BTK/process_docking_weight1_custom_product_contain_oxygen_bond_distance_aromatic_linkinvent_7_9_3/rearranged_h_0072.sdf

> <i_m_source_file_index>
51

> <r_mmod_Potential_Energy-OPLS-2005>
65.4292221069336

> <r_mmod_Stretch_Energy-OPLS-2005>
80.060905456543

> <r_mmod_Bend_Energy-OPLS-2005>
141.307861328125

> <r_mmod_Torsional_Energy-OPLS-2005>
215.380569458008

> <r_mmod_Improper_Torsional_Energy-OPLS-2005>
6.23616361618042

> <r_mmod_Van_der_Waal_Energy-OPLS-2005>
157.347106933594

> <r_mmod_Electrostatic_Energy-OPLS-2005>
-370.349029541016

> <r_mmod_Solvation_Energy-OPLS-2005>
-212.789611816406

> <b_mmod_Minimization_Converged-OPLS-2005>
0

> <r_mmod_RMS_Derivative-OPLS-2005>
0.327759027481079

$$$$
51
                    3D
 Structure written by MMmdl.
160169  0  0  1  0            999 V2000
  -30.5886  -14.7061   20.4769 C   0  0  0  0  0  0
  -30.4439  -12.4303   19.4614 C   0  0  0  0  0  0
  -29.5121  -12.5100   18.2308 C   0  0  0  0  0  0
  -28.0357  -12.3377   18.6422 C   0  0  0  0  0  0
  -27.6492  -13.2148   19.8623 C   0  0  2  0  0  0
  -28.6962  -13.1000   20.9926 C   0  0  0  0  0  0
  -25.2550  -13.8149   20.5706 C   0  0  0  0  0  0
  -24.1811  -13.0421   20.9189 C   0  0  0  0  0  0
  -24.6378  -11.6893   20.8733 C   0  0  0  0  0  0
  -23.9052  -10.4281   21.0400 C   0  0  0  0  0  0
  -24.3606   -9.4202   21.9181 C   0  0  0  0  0  0
  -23.6282   -8.2239   22.0755 C   0  0  0  0  0  0
  -22.4266   -8.0275   21.3545 C   0  0  0  0  0  0
  -21.9894   -9.0247   20.4647 C   0  0  0  0  0  0
  -22.7223  -10.2124   20.3051 C   0  0  0  0  0  0
  -21.6852   -6.0729   22.5276 C   0  0  0  0  0  0
  -21.4013   -6.5634   23.8210 C   0  0  0  0  0  0
  -21.3660   -5.6789   24.9173 C   0  0  0  0  0  0
  -21.6043   -4.3053   24.7225 C   0  0  0  0  0  0
  -21.8820   -3.8142   23.4347 C   0  0  0  0  0  0
  -21.9192   -4.6957   22.3401 C   0  0  0  0  0  0
  -22.7840  -13.5229   21.1851 C   0  0  0  0  0  0
  -22.1662   -4.2141   21.0978 F   0  0  0  0  0  0
  -21.5628   -3.4536   25.7740 F   0  0  0  0  0  0
  -30.0042  -13.4626   20.4238 N   0  0  0  0  0  0
  -26.2971  -12.9322   20.3324 N   0  0  0  0  0  0
  -25.9307  -11.6482   20.5751 N   0  0  0  0  0  0
  -22.0473  -12.8231   22.0406 N   0  0  0  0  0  0
  -25.4270  -15.1875   20.4170 N   0  0  0  0  0  0
  -31.7591  -14.8714   20.1182 O   0  0  0  0  0  0
  -21.6637   -6.8870   21.4239 O   0  0  0  0  0  0
  -22.3535  -14.5541   20.6700 O   0  0  0  0  0  0
  -24.6287  -31.8570   23.2003 C   0  0  0  0  0  0
  -25.9122  -32.4763   23.8341 C   0  0  1  0  0  0
  -27.2245  -27.2894   20.1301 C   0  0  0  0  0  0
  -25.5931  -33.8563   24.2270 N   0  0  0  0  0  0
  -23.4243  -30.4790   21.5432 C   0  0  2  0  0  0
  -24.8729  -28.9285   20.1130 C   0  0  0  0  0  0
  -22.7490  -29.4603   22.4926 C   0  0  0  0  0  0
  -18.0290  -28.1380   22.8479 C   0  0  0  0  0  0
  -24.1492  -36.7286   23.2639 C   0  0  0  0  0  0
  -25.9677  -30.7784   21.3771 C   0  0  0  0  0  0
  -26.0428  -29.4024   20.7213 C   0  0  0  0  0  0
  -27.2228  -28.5953   20.7184 C   0  0  0  0  0  0
  -26.0370  -26.8812   19.4843 C   0  0  0  0  0  0
  -24.8734  -27.6740   19.4841 C   0  0  0  0  0  0
  -23.6417  -29.8120   20.1597 C   0  0  0  0  0  0
  -25.4116  -36.3073   24.0327 C   0  0  1  0  0  0
  -20.5891  -28.3688   23.1273 C   0  0  2  0  0  0
  -20.6779  -26.9408   22.5406 C   0  0  0  0  0  0
  -19.5755  -26.6377   21.5206 C   0  0  0  0  0  0
  -18.1934  -26.7923   22.1619 C   0  0  0  0  0  0
  -19.1542  -28.8852   23.2869 C   0  0  0  0  0  0
  -18.9466  -30.1455   23.8885 C   0  0  0  0  0  0
  -17.6465  -30.6581   24.0559 C   0  0  0  0  0  0
  -25.9055  -34.9443   23.5100 C   0  0  0  0  0  0
  -16.5356  -29.9079   23.6329 C   0  0  0  0  0  0
  -16.7276  -28.6497   23.0348 C   0  0  0  0  0  0
  -26.4501  -31.6577   25.0719 C   0  0  0  0  0  0
  -25.3731  -31.3720   26.1446 C   0  0  0  0  0  0
  -27.0344  -30.2994   24.6190 C   0  0  0  0  0  0
  -27.6061  -32.4309   25.7492 C   0  0  0  0  0  0
  -27.5578  -37.1799   24.8462 C   0  0  0  0  0  0
  -21.4201  -29.3037   22.3666 N   0  0  0  0  0  0
  -26.4292  -37.3769   23.9404 N   0  0  0  0  0  0
  -24.6922  -31.0555   22.0969 N   0  0  0  0  0  0
  -23.4201  -28.8144   23.3015 O   0  0  0  0  0  0
  -28.3288  -26.4149   20.1541 O   0  0  0  0  0  0
  -26.5622  -34.8914   22.4667 O   0  0  0  0  0  0
  -23.5442  -32.1382   23.7314 O   0  0  0  0  0  0
  -30.2721  -19.5241   21.3954 C   0  0  0  0  0  0
  -30.4119  -18.0997   21.4701 C   0  0  0  0  0  0
  -28.9132  -19.3109   19.4838 C   0  0  0  0  0  0
  -29.0199  -17.8757   19.5312 C   0  0  0  0  0  0
  -29.5070  -20.2178   20.4099 C   0  0  0  0  0  0
  -29.7943  -17.2148   20.5454 C   0  0  0  0  0  0
  -29.6490  -22.8234   21.1227 C   0  0  0  0  0  0
  -28.3296  -17.1067   18.4514 C   0  0  0  0  0  0
  -28.3679  -22.4069   19.5514 C   0  0  0  0  0  0
  -29.0103  -23.7762   20.0144 C   0  0  2  0  0  0
  -27.0026  -17.6545   17.9365 C   0  0  0  0  0  0
  -30.1144  -24.3582   19.1248 C   0  0  0  0  0  0
  -28.0993  -24.9879   20.5575 C   0  0  0  0  0  0
  -29.3835  -21.6925   20.3346 N   0  0  0  0  0  0
  -29.7510  -15.7548   20.7967 N   0  0  0  0  0  0
  -30.1314  -22.9355   22.2303 O   0  0  0  0  0  0
  -28.7552  -16.0509   17.9790 O   0  0  0  0  0  0
  -31.4823  -12.5705   19.1572 H   0  0  0  0  0  0
  -30.3964  -11.4405   19.9184 H   0  0  0  0  0  0
  -29.7859  -11.7501   17.4978 H   0  0  0  0  0  0
  -29.6439  -13.4720   17.7340 H   0  0  0  0  0  0
  -27.8815  -11.2853   18.8827 H   0  0  0  0  0  0
  -27.3811  -12.5566   17.7979 H   0  0  0  0  0  0
  -27.6532  -14.2432   19.5081 H   0  0  0  0  0  0
  -28.7249  -12.0838   21.3880 H   0  0  0  0  0  0
  -28.4320  -13.7392   21.8367 H   0  0  0  0  0  0
  -25.2744   -9.5682   22.4760 H   0  0  0  0  0  0
  -23.9991   -7.4632   22.7474 H   0  0  0  0  0  0
  -21.0824   -8.8761   19.8956 H   0  0  0  0  0  0
  -22.3676  -10.9663   19.6163 H   0  0  0  0  0  0
  -21.2007   -7.6141   23.9710 H   0  0  0  0  0  0
  -21.1482   -6.0519   25.9075 H   0  0  0  0  0  0
  -22.0599   -2.7604   23.2852 H   0  0  0  0  0  0
  -22.4074  -11.9892   22.4801 H   0  0  0  0  0  0
  -21.1095  -13.1274   22.2603 H   0  0  0  0  0  0
  -24.6627  -15.8417   20.5401 H   0  0  0  0  0  0
  -26.2823  -15.6284   20.1116 H   0  0  0  0  0  0
  -26.7186  -32.5426   23.1081 H   0  0  0  0  0  0
  -25.0083  -33.9701   25.0418 H   0  0  0  0  0  0
  -22.7190  -31.2998   21.3978 H   0  0  0  0  0  0
  -23.3752  -35.9620   23.3301 H   0  0  0  0  0  0
  -24.3587  -36.8907   22.2054 H   0  0  0  0  0  0
  -23.7249  -37.6489   23.6663 H   0  0  0  0  0  0
  -26.1032  -31.5396   20.6074 H   0  0  0  0  0  0
  -26.8466  -30.8281   22.0083 H   0  0  0  0  0  0
  -28.1198  -28.9536   21.2043 H   0  0  0  0  0  0
  -25.9942  -25.9298   18.9745 H   0  0  0  0  0  0
  -23.9806  -27.3085   18.9957 H   0  0  0  0  0  0
  -23.7639  -30.5870   19.4023 H   0  0  0  0  0  0
  -22.7613  -29.2427   19.8563 H   0  0  0  0  0  0
  -25.1297  -36.1925   25.0820 H   0  0  0  0  0  0
  -20.9980  -28.3265   24.1395 H   0  0  0  0  0  0
  -20.5674  -26.2295   23.3606 H   0  0  0  0  0  0
  -21.6649  -26.7433   22.1203 H   0  0  0  0  0  0
  -19.6920  -25.6288   21.1235 H   0  0  0  0  0  0
  -19.6692  -27.3185   20.6733 H   0  0  0  0  0  0
  -17.4204  -26.6663   21.4022 H   0  0  0  0  0  0
  -18.0340  -26.0064   22.9015 H   0  0  0  0  0  0
  -19.7943  -30.7273   24.2245 H   0  0  0  0  0  0
  -17.5020  -31.6261   24.5163 H   0  0  0  0  0  0
  -15.5356  -30.2978   23.7656 H   0  0  0  0  0  0
  -15.8676  -28.0815   22.7067 H   0  0  0  0  0  0
  -24.5899  -30.7078   25.7772 H   0  0  0  0  0  0
  -24.8935  -32.2891   26.4875 H   0  0  0  0  0  0
  -25.8053  -30.8888   27.0216 H   0  0  0  0  0  0
  -26.2921  -29.6738   24.1220 H   0  0  0  0  0  0
  -27.4039  -29.7258   25.4700 H   0  0  0  0  0  0
  -27.8793  -30.4272   23.9420 H   0  0  0  0  0  0
  -27.2677  -33.3613   26.2063 H   0  0  0  0  0  0
  -28.3876  -32.6858   25.0321 H   0  0  0  0  0  0
  -28.0721  -31.8434   26.5412 H   0  0  0  0  0  0
  -28.2594  -38.0096   24.7508 H   0  0  0  0  0  0
  -28.1075  -36.2627   24.6291 H   0  0  0  0  0  0
  -27.2296  -37.1450   25.8865 H   0  0  0  0  0  0
  -20.9385  -29.8763   21.6875 H   0  0  0  0  0  0
  -26.0172  -38.2845   24.1400 H   0  0  0  0  0  0
  -30.7760  -20.1092   22.1518 H   0  0  0  0  0  0
  -30.9800  -17.6867   22.2919 H   0  0  0  0  0  0
  -28.3404  -19.7529   18.6816 H   0  0  0  0  0  0
  -28.4260  -22.2272   18.4765 H   0  0  0  0  0  0
  -27.3556  -22.2424   19.9289 H   0  0  0  0  0  0
  -26.4548  -18.1532   18.7356 H   0  0  0  0  0  0
  -26.3824  -16.8438   17.5547 H   0  0  0  0  0  0
  -27.1740  -18.3657   17.1294 H   0  0  0  0  0  0
  -30.7913  -23.5877   18.7527 H   0  0  0  0  0  0
  -30.7189  -25.0876   19.6651 H   0  0  0  0  0  0
  -29.6929  -24.8617   18.2547 H   0  0  0  0  0  0
  -28.1708  -25.0062   21.6456 H   0  0  0  0  0  0
  -27.0615  -24.7077   20.3897 H   0  0  0  0  0  0
  -28.8406  -15.4150   21.0660 H   0  0  0  0  0  0
  1 25  1  0  0  0
  1 30  2  0  0  0
  1 85  1  0  0  0
  2  3  1  0  0  0
  2 25  1  0  0  0
  2 88  1  0  0  0
  2 89  1  0  0  0
  3  4  1  0  0  0
  3 90  1  0  0  0
  3 91  1  0  0  0
  4  5  1  0  0  0
  4 92  1  0  0  0
  4 93  1  0  0  0
  5  6  1  0  0  0
  5 26  1  0  0  0
  5 94  1  0  0  0
  6 25  1  0  0  0
  6 95  1  0  0  0
  6 96  1  0  0  0
  7  8  2  0  0  0
  7 26  1  0  0  0
  7 29  1  0  0  0
  8  9  1  0  0  0
  8 22  1  0  0  0
  9 10  1  0  0  0
  9 27  2  0  0  0
 10 11  2  0  0  0
 10 15  1  0  0  0
 11 12  1  0  0  0
 11 97  1  0  0  0
 12 13  2  0  0  0
 12 98  1  0  0  0
 13 14  1  0  0  0
 13 31  1  0  0  0
 14 15  2  0  0  0
 14 99  1  0  0  0
 15100  1  0  0  0
 16 17  2  0  0  0
 16 21  1  0  0  0
 16 31  1  0  0  0
 17 18  1  0  0  0
 17101  1  0  0  0
 18 19  2  0  0  0
 18102  1  0  0  0
 19 20  1  0  0  0
 19 24  1  0  0  0
 20 21  2  0  0  0
 20103  1  0  0  0
 21 23  1  0  0  0
 22 28  1  0  0  0
 22 32  2  0  0  0
 26 27  1  0  0  0
 28104  1  0  0  0
 28105  1  0  0  0
 29106  1  0  0  0
 29107  1  0  0  0
 33 34  1  0  0  0
 33 66  1  0  0  0
 33 70  2  0  0  0
 34 36  1  0  0  0
 34 59  1  0  0  0
 34108  1  0  0  0
 35 44  2  0  0  0
 35 45  1  0  0  0
 35 68  1  0  0  0
 36 56  1  0  0  0
 36109  1  0  0  0
 37 39  1  0  0  0
 37 47  1  0  0  0
 37 66  1  0  0  0
 37110  1  0  0  0
 38 43  2  0  0  0
 38 46  1  0  0  0
 38 47  1  0  0  0
 39 64  1  0  0  0
 39 67  2  0  0  0
 40 52  1  0  0  0
 40 53  2  0  0  0
 40 58  1  0  0  0
 41111  1  0  0  0
 41112  1  0  0  0
 41113  1  0  0  0
 41 48  1  0  0  0
 42 43  1  0  0  0
 42 66  1  0  0  0
 42114  1  0  0  0
 42115  1  0  0  0
 43 44  1  0  0  0
 44116  1  0  0  0
 45 46  2  0  0  0
 45117  1  0  0  0
 46118  1  0  0  0
 47119  1  0  0  0
 47120  1  0  0  0
 48 56  1  0  0  0
 48 65  1  0  0  0
 48121  1  0  0  0
 49 50  1  0  0  0
 49 53  1  0  0  0
 49 64  1  0  0  0
 49122  1  0  0  0
 50 51  1  0  0  0
 50123  1  0  0  0
 50124  1  0  0  0
 51 52  1  0  0  0
 51125  1  0  0  0
 51126  1  0  0  0
 52127  1  0  0  0
 52128  1  0  0  0
 53 54  1  0  0  0
 54 55  2  0  0  0
 54129  1  0  0  0
 55 57  1  0  0  0
 55130  1  0  0  0
 56 69  2  0  0  0
 57 58  2  0  0  0
 57131  1  0  0  0
 58132  1  0  0  0
 59 60  1  0  0  0
 59 61  1  0  0  0
 59 62  1  0  0  0
 60133  1  0  0  0
 60134  1  0  0  0
 60135  1  0  0  0
 61136  1  0  0  0
 61137  1  0  0  0
 61138  1  0  0  0
 62139  1  0  0  0
 62140  1  0  0  0
 62141  1  0  0  0
 63 65  1  0  0  0
 63142  1  0  0  0
 63143  1  0  0  0
 63144  1  0  0  0
 64145  1  0  0  0
 65146  1  0  0  0
 68 83  1  0  0  0
 71 72  2  0  0  0
 71 75  1  0  0  0
 71147  1  0  0  0
 72 76  1  0  0  0
 72148  1  0  0  0
 73 74  1  0  0  0
 73 75  2  0  0  0
 73149  1  0  0  0
 74 76  2  0  0  0
 74 78  1  0  0  0
 75 84  1  0  0  0
 76 85  1  0  0  0
 77 80  1  0  0  0
 77 84  1  0  0  0
 77 86  2  0  0  0
 78 81  1  0  0  0
 78 87  2  0  0  0
 79 80  1  0  0  0
 79 84  1  0  0  0
 79150  1  0  0  0
 79151  1  0  0  0
 80 82  1  0  0  0
 80 83  1  0  0  0
 81152  1  0  0  0
 81153  1  0  0  0
 81154  1  0  0  0
 82155  1  0  0  0
 82156  1  0  0  0
 82157  1  0  0  0
 83158  1  0  0  0
 83159  1  0  0  0
 85160  1  0  0  0
M  ISO  4   1 100  68 101  83 101  85 100
M  END
> <chiral flag>
0

> <version>
0

> <s_m_source_file>
/data/baiqing/PycharmProjects/Reinvent-master-3.2/result/LINK_invent/BTK/process_docking_weight1_custom_product_contain_oxygen_bond_distance_aromatic_linkinvent_7_9_3/rearranged_h_0072.sdf

> <i_m_source_file_index>
52

> <r_mmod_Potential_Energy-OPLS-2005>
186.421676635742

> <r_mmod_Stretch_Energy-OPLS-2005>
102.142753601074

> <r_mmod_Bend_Energy-OPLS-2005>
182.282699584961

> <r_mmod_Torsional_Energy-OPLS-2005>
309.298492431641

> <r_mmod_Improper_Torsional_Energy-OPLS-2005>
7.33266258239746

> <r_mmod_Van_der_Waal_Energy-OPLS-2005>
132.459884643555

> <r_mmod_Electrostatic_Energy-OPLS-2005>
-378.884643554688

> <r_mmod_Solvation_Energy-OPLS-2005>
-236.24104309082

> <b_mmod_Minimization_Converged-OPLS-2005>
0

> <r_mmod_RMS_Derivative-OPLS-2005>
0.79609078168869

$$$$
52
                    3D
 Structure written by MMmdl.
164172  0  0  1  0            999 V2000
  -30.6866  -14.4777   20.5699 C   0  0  0  0  0  0
  -30.4264  -12.3105   19.4188 C   0  0  0  0  0  0
  -29.4950  -12.5081   18.2039 C   0  0  0  0  0  0
  -28.0152  -12.3683   18.6165 C   0  0  0  0  0  0
  -27.6613  -13.2046   19.8756 C   0  0  2  0  0  0
  -28.7032  -12.9766   20.9942 C   0  0  0  0  0  0
  -25.2584  -13.8149   20.5678 C   0  0  0  0  0  0
  -24.1826  -13.0425   20.9151 C   0  0  0  0  0  0
  -24.6382  -11.6897   20.8719 C   0  0  0  0  0  0
  -23.9052  -10.4286   21.0397 C   0  0  0  0  0  0
  -24.3611   -9.4206   21.9177 C   0  0  0  0  0  0
  -23.6289   -8.2240   22.0749 C   0  0  0  0  0  0
  -22.4270   -8.0279   21.3545 C   0  0  0  0  0  0
  -21.9903   -9.0247   20.4647 C   0  0  0  0  0  0
  -22.7227  -10.2127   20.3050 C   0  0  0  0  0  0
  -21.6852   -6.0737   22.5280 C   0  0  0  0  0  0
  -21.4011   -6.5638   23.8216 C   0  0  0  0  0  0
  -21.3659   -5.6791   24.9176 C   0  0  0  0  0  0
  -21.6043   -4.3054   24.7226 C   0  0  0  0  0  0
  -21.8818   -3.8147   23.4345 C   0  0  0  0  0  0
  -21.9191   -4.6963   22.3403 C   0  0  0  0  0  0
  -22.7859  -13.5235   21.1830 C   0  0  0  0  0  0
  -22.1661   -4.2150   21.0981 F   0  0  0  0  0  0
  -21.5634   -3.4536   25.7739 F   0  0  0  0  0  0
  -30.0346  -13.2895   20.4443 N   0  0  0  0  0  0
  -26.3025  -12.9317   20.3377 N   0  0  0  0  0  0
  -25.9314  -11.6478   20.5765 N   0  0  0  0  0  0
  -22.0504  -12.8230   22.0397 N   0  0  0  0  0  0
  -25.4291  -15.1869   20.4142 N   0  0  0  0  0  0
  -31.8146  -14.6679   20.1060 O   0  0  0  0  0  0
  -21.6639   -6.8875   21.4241 O   0  0  0  0  0  0
  -22.3536  -14.5543   20.6689 O   0  0  0  0  0  0
  -24.6133  -31.8681   23.2105 C   0  0  0  0  0  0
  -25.9025  -32.4826   23.8405 C   0  0  1  0  0  0
  -27.2349  -27.4398   20.1011 C   0  0  0  0  0  0
  -25.5886  -33.8628   24.2336 N   0  0  0  0  0  0
  -23.4027  -30.4900   21.5505 C   0  0  2  0  0  0
  -24.8502  -28.9527   20.1200 C   0  0  0  0  0  0
  -22.7410  -29.4656   22.5001 C   0  0  0  0  0  0
  -18.0266  -28.1381   22.8499 C   0  0  0  0  0  0
  -24.1485  -36.7323   23.2639 C   0  0  0  0  0  0
  -25.9301  -30.8360   21.3627 C   0  0  0  0  0  0
  -26.0095  -29.4680   20.7147 C   0  0  0  0  0  0
  -27.2076  -28.7184   20.7024 C   0  0  0  0  0  0
  -26.0630  -26.9335   19.5051 C   0  0  0  0  0  0
  -24.8707  -27.6835   19.5142 C   0  0  0  0  0  0
  -23.6119  -29.8188   20.1665 C   0  0  0  0  0  0
  -25.4104  -36.3120   24.0343 C   0  0  1  0  0  0
  -20.5859  -28.3666   23.1328 C   0  0  2  0  0  0
  -20.6758  -26.9404   22.5426 C   0  0  0  0  0  0
  -19.5737  -26.6392   21.5223 C   0  0  0  0  0  0
  -18.1915  -26.7931   22.1628 C   0  0  0  0  0  0
  -19.1516  -28.8840   23.2911 C   0  0  0  0  0  0
  -18.9443  -30.1446   23.8925 C   0  0  0  0  0  0
  -17.6445  -30.6590   24.0570 C   0  0  0  0  0  0
  -25.9034  -34.9484   23.5143 C   0  0  0  0  0  0
  -16.5338  -29.9095   23.6324 C   0  0  0  0  0  0
  -16.7255  -28.6507   23.0352 C   0  0  0  0  0  0
  -26.4462  -31.6603   25.0727 C   0  0  0  0  0  0
  -25.3737  -31.3695   26.1478 C   0  0  0  0  0  0
  -27.0284  -30.3049   24.6089 C   0  0  0  0  0  0
  -27.6053  -32.4312   25.7476 C   0  0  0  0  0  0
  -27.5588  -37.1801   24.8455 C   0  0  0  0  0  0
  -21.4137  -29.3033   22.3738 N   0  0  0  0  0  0
  -26.4289  -37.3807   23.9420 N   0  0  0  0  0  0
  -24.6669  -31.0789   22.1001 N   0  0  0  0  0  0
  -23.4185  -28.8205   23.3047 O   0  0  0  0  0  0
  -28.3924  -26.6999   20.0568 O   0  0  0  0  0  0
  -26.5603  -34.8931   22.4710 O   0  0  0  0  0  0
  -23.5326  -32.1426   23.7501 O   0  0  0  0  0  0
  -31.4688  -18.9312   20.9362 C   0  0  0  0  0  0
  -31.3862  -17.5211   20.9631 C   0  0  0  0  0  0
  -29.0469  -19.0940   21.0749 C   0  0  0  0  0  0
  -30.3040  -19.7342   21.0011 C   0  0  0  0  0  0
  -30.1279  -16.8791   21.0454 C   0  0  0  0  0  0
  -28.9660  -17.6825   21.1014 C   0  0  0  0  0  0
  -30.4338  -21.2043   21.0296 C   0  0  0  0  0  0
  -28.4308  -24.2455   20.3892 C   0  0  0  0  0  0
  -29.5897  -23.2899   17.5860 C   0  0  0  0  0  0
  -31.8622  -23.4190   18.6852 C   0  0  0  0  0  0
  -28.4734  -25.6488   21.0319 C   0  0  0  0  0  0
  -29.7781  -23.5139   20.1700 C   0  0  2  0  0  0
  -30.3895  -23.8530   18.7802 C   0  0  0  0  0  0
  -29.9506  -15.4625   21.1184 N   0  0  0  0  0  0
  -29.6440  -22.0337   20.3161 N   0  0  0  0  0  0
  -31.4031  -21.7380   21.7745 N   0  3  0  0  0  0
  -27.3503  -23.7281   20.0893 O   0  0  0  0  0  0
  -27.7536  -17.0824   21.1829 F   0  0  0  0  0  0
  -31.4704  -12.4160   19.1175 H   0  0  0  0  0  0
  -30.3330  -11.2979   19.8133 H   0  0  0  0  0  0
  -29.7365  -11.7836   17.4251 H   0  0  0  0  0  0
  -29.6612  -13.4939   17.7662 H   0  0  0  0  0  0
  -27.8250  -11.3117   18.8098 H   0  0  0  0  0  0
  -27.3643  -12.6455   17.7861 H   0  0  0  0  0  0
  -27.7054  -14.2536   19.5817 H   0  0  0  0  0  0
  -28.6815  -11.9369   21.3245 H   0  0  0  0  0  0
  -28.4618  -13.5639   21.8815 H   0  0  0  0  0  0
  -25.2756   -9.5685   22.4750 H   0  0  0  0  0  0
  -24.0003   -7.4630   22.7462 H   0  0  0  0  0  0
  -21.0837   -8.8754   19.8955 H   0  0  0  0  0  0
  -22.3677  -10.9661   19.6156 H   0  0  0  0  0  0
  -21.1998   -7.6144   23.9718 H   0  0  0  0  0  0
  -21.1488   -6.0522   25.9080 H   0  0  0  0  0  0
  -22.0599   -2.7610   23.2844 H   0  0  0  0  0  0
  -22.4115  -11.9884   22.4780 H   0  0  0  0  0  0
  -21.1125  -13.1260   22.2614 H   0  0  0  0  0  0
  -24.6681  -15.8415   20.5560 H   0  0  0  0  0  0
  -26.3077  -15.6481   20.2095 H   0  0  0  0  0  0
  -26.7104  -32.5548   23.1181 H   0  0  0  0  0  0
  -25.0014  -33.9803   25.0464 H   0  0  0  0  0  0
  -22.6904  -31.3056   21.4093 H   0  0  0  0  0  0
  -23.3757  -35.9645   23.3287 H   0  0  0  0  0  0
  -24.3587  -36.8950   22.2058 H   0  0  0  0  0  0
  -23.7219  -37.6519   23.6655 H   0  0  0  0  0  0
  -26.0384  -31.6004   20.5917 H   0  0  0  0  0  0
  -26.8201  -30.8935   21.9777 H   0  0  0  0  0  0
  -28.1058  -29.1170   21.1531 H   0  0  0  0  0  0
  -26.0740  -25.9622   19.0300 H   0  0  0  0  0  0
  -23.9794  -27.2814   19.0533 H   0  0  0  0  0  0
  -23.7208  -30.5910   19.4041 H   0  0  0  0  0  0
  -22.7368  -29.2359   19.8715 H   0  0  0  0  0  0
  -25.1278  -36.1992   25.0836 H   0  0  0  0  0  0
  -20.9947  -28.3228   24.1450 H   0  0  0  0  0  0
  -20.5672  -26.2275   23.3613 H   0  0  0  0  0  0
  -21.6626  -26.7458   22.1209 H   0  0  0  0  0  0
  -19.6898  -25.6308   21.1237 H   0  0  0  0  0  0
  -19.6678  -27.3215   20.6768 H   0  0  0  0  0  0
  -17.4191  -26.6688   21.4020 H   0  0  0  0  0  0
  -18.0311  -26.0070   22.9023 H   0  0  0  0  0  0
  -19.7920  -30.7249   24.2313 H   0  0  0  0  0  0
  -17.5003  -31.6274   24.5162 H   0  0  0  0  0  0
  -15.5337  -30.3007   23.7631 H   0  0  0  0  0  0
  -15.8655  -28.0828   22.7066 H   0  0  0  0  0  0
  -24.5901  -30.7056   25.7807 H   0  0  0  0  0  0
  -24.8939  -32.2839   26.4971 H   0  0  0  0  0  0
  -25.8099  -30.8824   27.0207 H   0  0  0  0  0  0
  -26.2818  -29.6814   24.1154 H   0  0  0  0  0  0
  -27.4066  -29.7281   25.4539 H   0  0  0  0  0  0
  -27.8650  -30.4378   23.9227 H   0  0  0  0  0  0
  -27.2691  -33.3599   26.2099 H   0  0  0  0  0  0
  -28.3830  -32.6891   25.0274 H   0  0  0  0  0  0
  -28.0756  -31.8404   26.5342 H   0  0  0  0  0  0
  -28.2581  -38.0125   24.7554 H   0  0  0  0  0  0
  -28.1107  -36.2660   24.6213 H   0  0  0  0  0  0
  -27.2311  -37.1374   25.8856 H   0  0  0  0  0  0
  -20.9305  -29.8757   21.6955 H   0  0  0  0  0  0
  -26.0181  -38.2881   24.1455 H   0  0  0  0  0  0
  -32.4451  -19.3929   20.8738 H   0  0  0  0  0  0
  -32.3018  -16.9496   20.9368 H   0  0  0  0  0  0
  -28.1373  -19.6736   21.1377 H   0  0  0  0  0  0
  -30.0418  -23.5858   16.6384 H   0  0  0  0  0  0
  -28.5640  -23.6594   17.5726 H   0  0  0  0  0  0
  -29.5511  -22.2002   17.5953 H   0  0  0  0  0  0
  -32.3107  -23.7554   17.7496 H   0  0  0  0  0  0
  -31.9712  -22.3351   18.7252 H   0  0  0  0  0  0
  -32.4530  -23.8449   19.4971 H   0  0  0  0  0  0
  -27.6666  -25.7273   21.7626 H   0  0  0  0  0  0
  -29.4062  -25.7581   21.5850 H   0  0  0  0  0  0
  -30.4585  -23.8876   20.9349 H   0  0  0  0  0  0
  -30.3848  -24.9406   18.6798 H   0  0  0  0  0  0
  -29.0294  -15.1772   21.4127 H   0  0  0  0  0  0
  -28.8727  -21.6143   19.8134 H   0  0  0  0  0  0
  -31.9623  -21.1391   22.3613 H   0  0  0  0  0  0
  -31.5668  -22.7287   21.7951 H   0  0  0  0  0  0
  1 25  1  0  0  0
  1 30  2  0  0  0
  1 84  1  0  0  0
  2  3  1  0  0  0
  2 25  1  0  0  0
  2 89  1  0  0  0
  2 90  1  0  0  0
  3  4  1  0  0  0
  3 91  1  0  0  0
  3 92  1  0  0  0
  4  5  1  0  0  0
  4 93  1  0  0  0
  4 94  1  0  0  0
  5  6  1  0  0  0
  5 26  1  0  0  0
  5 95  1  0  0  0
  6 25  1  0  0  0
  6 96  1  0  0  0
  6 97  1  0  0  0
  7  8  2  0  0  0
  7 26  1  0  0  0
  7 29  1  0  0  0
  8  9  1  0  0  0
  8 22  1  0  0  0
  9 10  1  0  0  0
  9 27  2  0  0  0
 10 11  2  0  0  0
 10 15  1  0  0  0
 11 12  1  0  0  0
 11 98  1  0  0  0
 12 13  2  0  0  0
 12 99  1  0  0  0
 13 14  1  0  0  0
 13 31  1  0  0  0
 14 15  2  0  0  0
 14100  1  0  0  0
 15101  1  0  0  0
 16 17  2  0  0  0
 16 21  1  0  0  0
 16 31  1  0  0  0
 17 18  1  0  0  0
 17102  1  0  0  0
 18 19  2  0  0  0
 18103  1  0  0  0
 19 20  1  0  0  0
 19 24  1  0  0  0
 20 21  2  0  0  0
 20104  1  0  0  0
 21 23  1  0  0  0
 22 28  1  0  0  0
 22 32  2  0  0  0
 26 27  1  0  0  0
 28105  1  0  0  0
 28106  1  0  0  0
 29107  1  0  0  0
 29108  1  0  0  0
 33 34  1  0  0  0
 33 66  1  0  0  0
 33 70  2  0  0  0
 34 36  1  0  0  0
 34 59  1  0  0  0
 34109  1  0  0  0
 35 44  2  0  0  0
 35 45  1  0  0  0
 35 68  1  0  0  0
 36 56  1  0  0  0
 36110  1  0  0  0
 37 39  1  0  0  0
 37 47  1  0  0  0
 37 66  1  0  0  0
 37111  1  0  0  0
 38 43  2  0  0  0
 38 46  1  0  0  0
 38 47  1  0  0  0
 39 64  1  0  0  0
 39 67  2  0  0  0
 40 52  1  0  0  0
 40 53  2  0  0  0
 40 58  1  0  0  0
 41112  1  0  0  0
 41113  1  0  0  0
 41114  1  0  0  0
 41 48  1  0  0  0
 42 43  1  0  0  0
 42 66  1  0  0  0
 42115  1  0  0  0
 42116  1  0  0  0
 43 44  1  0  0  0
 44117  1  0  0  0
 45 46  2  0  0  0
 45118  1  0  0  0
 46119  1  0  0  0
 47120  1  0  0  0
 47121  1  0  0  0
 48 56  1  0  0  0
 48 65  1  0  0  0
 48122  1  0  0  0
 49 50  1  0  0  0
 49 53  1  0  0  0
 49 64  1  0  0  0
 49123  1  0  0  0
 50 51  1  0  0  0
 50124  1  0  0  0
 50125  1  0  0  0
 51 52  1  0  0  0
 51126  1  0  0  0
 51127  1  0  0  0
 52128  1  0  0  0
 52129  1  0  0  0
 53 54  1  0  0  0
 54 55  2  0  0  0
 54130  1  0  0  0
 55 57  1  0  0  0
 55131  1  0  0  0
 56 69  2  0  0  0
 57 58  2  0  0  0
 57132  1  0  0  0
 58133  1  0  0  0
 59 60  1  0  0  0
 59 61  1  0  0  0
 59 62  1  0  0  0
 60134  1  0  0  0
 60135  1  0  0  0
 60136  1  0  0  0
 61137  1  0  0  0
 61138  1  0  0  0
 61139  1  0  0  0
 62140  1  0  0  0
 62141  1  0  0  0
 62142  1  0  0  0
 63 65  1  0  0  0
 63143  1  0  0  0
 63144  1  0  0  0
 63145  1  0  0  0
 64146  1  0  0  0
 65147  1  0  0  0
 68 81  1  0  0  0
 71 72  2  0  0  0
 71 74  1  0  0  0
 71148  1  0  0  0
 72 75  1  0  0  0
 72149  1  0  0  0
 73 74  2  0  0  0
 73 76  1  0  0  0
 73150  1  0  0  0
 74 77  1  0  0  0
 75 76  2  0  0  0
 75 84  1  0  0  0
 76 88  1  0  0  0
 77 85  1  0  0  0
 77 86  2  0  0  0
 78 81  1  0  0  0
 78 82  1  0  0  0
 78 87  2  0  0  0
 79151  1  0  0  0
 79152  1  0  0  0
 79153  1  0  0  0
 79 83  1  0  0  0
 80 83  1  0  0  0
 80154  1  0  0  0
 80155  1  0  0  0
 80156  1  0  0  0
 81157  1  0  0  0
 81158  1  0  0  0
 82 83  1  0  0  0
 82 85  1  0  0  0
 82159  1  0  0  0
 83160  1  0  0  0
 84161  1  0  0  0
 85162  1  0  0  0
 86163  1  0  0  0
 86164  1  0  0  0
M  CHG  1  86   1
M  ISO  4   1 100  68 101  81 101  84 100
M  END
> <chiral flag>
0

> <version>
0

> <s_m_source_file>
/data/baiqing/PycharmProjects/Reinvent-master-3.2/result/LINK_invent/BTK/process_docking_weight1_custom_product_contain_oxygen_bond_distance_aromatic_linkinvent_7_9_3/rearranged_h_0072.sdf

> <i_m_source_file_index>
53

> <r_mmod_Potential_Energy-OPLS-2005>
-345.933227539062

> <r_mmod_Stretch_Energy-OPLS-2005>
38.8463287353516

> <r_mmod_Bend_Energy-OPLS-2005>
98.8458938598633

> <r_mmod_Torsional_Energy-OPLS-2005>
259.906494140625

> <r_mmod_Improper_Torsional_Energy-OPLS-2005>
3.97734665870667

> <r_mmod_Van_der_Waal_Energy-OPLS-2005>
149.543899536133

> <r_mmod_Electrostatic_Energy-OPLS-2005>
-478.33203125

> <r_mmod_Solvation_Energy-OPLS-2005>
-430.363189697266

> <b_mmod_Minimization_Converged-OPLS-2005>
0

> <r_mmod_RMS_Derivative-OPLS-2005>
1.01761651039124

$$$$
53
                    3D
 Structure written by MMmdl.
160169  0  0  1  0            999 V2000
  -30.6958  -14.5030   20.5929 C   0  0  0  0  0  0
  -30.4265  -12.3334   19.4232 C   0  0  0  0  0  0
  -29.4977  -12.5168   18.2043 C   0  0  0  0  0  0
  -28.0195  -12.3668   18.6184 C   0  0  0  0  0  0
  -27.6588  -13.2111   19.8696 C   0  0  2  0  0  0
  -28.7006  -13.0125   20.9924 C   0  0  0  0  0  0
  -25.2585  -13.8169   20.5657 C   0  0  0  0  0  0
  -24.1849  -13.0442   20.9182 C   0  0  0  0  0  0
  -24.6404  -11.6908   20.8736 C   0  0  0  0  0  0
  -23.9090  -10.4293   21.0412 C   0  0  0  0  0  0
  -24.3634   -9.4199   21.9195 C   0  0  0  0  0  0
  -23.6291   -8.2247   22.0760 C   0  0  0  0  0  0
  -22.4281   -8.0296   21.3534 C   0  0  0  0  0  0
  -21.9918   -9.0285   20.4644 C   0  0  0  0  0  0
  -22.7262  -10.2154   20.3055 C   0  0  0  0  0  0
  -21.6860   -6.0751   22.5266 C   0  0  0  0  0  0
  -21.4024   -6.5648   23.8201 C   0  0  0  0  0  0
  -21.3657   -5.6791   24.9164 C   0  0  0  0  0  0
  -21.6032   -4.3048   24.7206 C   0  0  0  0  0  0
  -21.8823   -3.8153   23.4324 C   0  0  0  0  0  0
  -21.9189   -4.6981   22.3384 C   0  0  0  0  0  0
  -22.7864  -13.5233   21.1839 C   0  0  0  0  0  0
  -22.1657   -4.2174   21.0961 F   0  0  0  0  0  0
  -21.5622   -3.4520   25.7711 F   0  0  0  0  0  0
  -30.0293  -13.3240   20.4367 N   0  0  0  0  0  0
  -26.3020  -12.9347   20.3320 N   0  0  0  0  0  0
  -25.9328  -11.6510   20.5755 N   0  0  0  0  0  0
  -22.0491  -12.8243   22.0391 N   0  0  0  0  0  0
  -25.4286  -15.1896   20.4040 N   0  0  0  0  0  0
  -31.8102  -14.6919   20.0963 O   0  0  0  0  0  0
  -21.6632   -6.8903   21.4236 O   0  0  0  0  0  0
  -22.3559  -14.5532   20.6665 O   0  0  0  0  0  0
  -24.6173  -31.8635   23.2095 C   0  0  0  0  0  0
  -25.9044  -32.4814   23.8399 C   0  0  1  0  0  0
  -27.2423  -27.4196   20.0855 C   0  0  0  0  0  0
  -25.5890  -33.8605   24.2326 N   0  0  0  0  0  0
  -23.4087  -30.4897   21.5419 C   0  0  2  0  0  0
  -24.8609  -28.9523   20.1151 C   0  0  0  0  0  0
  -22.7421  -29.4646   22.4889 C   0  0  0  0  0  0
  -18.0259  -28.1395   22.8470 C   0  0  0  0  0  0
  -24.1494  -36.7316   23.2635 C   0  0  0  0  0  0
  -25.9415  -30.8260   21.3674 C   0  0  0  0  0  0
  -26.0199  -29.4565   20.7173 C   0  0  0  0  0  0
  -27.2112  -28.6920   20.7093 C   0  0  0  0  0  0
  -26.0582  -26.9266   19.4944 C   0  0  0  0  0  0
  -24.8725  -27.6854   19.5063 C   0  0  0  0  0  0
  -23.6270  -29.8231   20.1567 C   0  0  0  0  0  0
  -25.4104  -36.3104   24.0340 C   0  0  1  0  0  0
  -20.5858  -28.3684   23.1282 C   0  0  2  0  0  0
  -20.6757  -26.9407   22.5414 C   0  0  0  0  0  0
  -19.5751  -26.6394   21.5199 C   0  0  0  0  0  0
  -18.1914  -26.7937   22.1606 C   0  0  0  0  0  0
  -19.1512  -28.8849   23.2881 C   0  0  0  0  0  0
  -18.9448  -30.1452   23.8902 C   0  0  0  0  0  0
  -17.6457  -30.6598   24.0561 C   0  0  0  0  0  0
  -25.9026  -34.9471   23.5125 C   0  0  0  0  0  0
  -16.5342  -29.9112   23.6327 C   0  0  0  0  0  0
  -16.7252  -28.6534   23.0331 C   0  0  0  0  0  0
  -26.4474  -31.6606   25.0730 C   0  0  0  0  0  0
  -25.3764  -31.3700   26.1500 C   0  0  0  0  0  0
  -27.0292  -30.3040   24.6123 C   0  0  0  0  0  0
  -27.6054  -32.4311   25.7493 C   0  0  0  0  0  0
  -27.5575  -37.1819   24.8457 C   0  0  0  0  0  0
  -21.4134  -29.3058   22.3674 N   0  0  0  0  0  0
  -26.4290  -37.3791   23.9404 N   0  0  0  0  0  0
  -24.6729  -31.0762   22.0977 N   0  0  0  0  0  0
  -23.4190  -28.8160   23.2911 O   0  0  0  0  0  0
  -28.4010  -26.6634   20.0888 O   0  0  0  0  0  0
  -26.5572  -34.8917   22.4679 O   0  0  0  0  0  0
  -23.5352  -32.1355   23.7502 O   0  0  0  0  0  0
  -28.6759  -20.4059   20.8987 C   0  0  0  0  0  0
  -29.0337  -19.1633   21.4733 C   0  0  0  0  0  0
  -30.5561  -20.2264   19.3811 C   0  0  0  0  0  0
  -28.4255  -23.6958   17.6903 C   0  0  0  0  0  0
  -30.9249  -18.9756   19.9496 C   0  0  0  0  0  0
  -28.7344  -24.4488   18.8616 C   0  0  0  0  0  0
  -29.4442  -20.9640   19.8564 C   0  0  0  0  0  0
  -30.1609  -18.4341   21.0240 C   0  0  0  0  0  0
  -28.6501  -22.3752   17.9489 C   0  0  0  0  0  0
  -29.0973  -23.5059   19.8053 C   0  0  0  0  0  0
  -32.1566  -18.2779   19.3975 C   0  0  0  0  0  0
  -28.7560  -25.9835   18.8724 C   0  0  0  0  0  0
  -29.0791  -22.2140   19.2552 N   0  0  0  0  0  0
  -30.0266  -15.5297   21.2801 N   0  0  0  0  0  0
  -32.1430  -16.8804   22.0355 O   0  0  0  0  0  0
  -29.9811  -17.0748   23.3160 O   0  0  0  0  0  0
  -28.5258  -21.3127   17.1058 O   0  0  0  0  0  0
  -29.5015  -23.6980   21.0929 O   0  0  0  0  0  0
  -30.6735  -16.9684   22.0177 S   0  0  0  0  0  0
  -31.4711  -12.4338   19.1221 H   0  0  0  0  0  0
  -30.3285  -11.3249   19.8286 H   0  0  0  0  0  0
  -29.7430  -11.7887   17.4296 H   0  0  0  0  0  0
  -29.6576  -13.5022   17.7610 H   0  0  0  0  0  0
  -27.8368  -11.3107   18.8212 H   0  0  0  0  0  0
  -27.3677  -12.6340   17.7860 H   0  0  0  0  0  0
  -27.6943  -14.2578   19.5668 H   0  0  0  0  0  0
  -28.6893  -11.9815   21.3495 H   0  0  0  0  0  0
  -28.4530  -13.6232   21.8629 H   0  0  0  0  0  0
  -25.2797   -9.5658   22.4752 H   0  0  0  0  0  0
  -23.9988   -7.4640   22.7468 H   0  0  0  0  0  0
  -21.0853   -8.8832   19.8940 H   0  0  0  0  0  0
  -22.3758  -10.9708   19.6147 H   0  0  0  0  0  0
  -21.2042   -7.6161   23.9724 H   0  0  0  0  0  0
  -21.1463   -6.0511   25.9067 H   0  0  0  0  0  0
  -22.0603   -2.7624   23.2805 H   0  0  0  0  0  0
  -22.4113  -11.9927   22.4826 H   0  0  0  0  0  0
  -21.1102  -13.1273   22.2556 H   0  0  0  0  0  0
  -24.6532  -15.8376   20.5045 H   0  0  0  0  0  0
  -26.2675  -15.6285   20.0493 H   0  0  0  0  0  0
  -26.7109  -32.5539   23.1162 H   0  0  0  0  0  0
  -25.0122  -33.9761   25.0525 H   0  0  0  0  0  0
  -22.6969  -31.3057   21.3939 H   0  0  0  0  0  0
  -23.3744  -35.9670   23.3311 H   0  0  0  0  0  0
  -24.3606  -36.8904   22.2051 H   0  0  0  0  0  0
  -23.7272  -37.6533   23.6638 H   0  0  0  0  0  0
  -26.0544  -31.5931   20.5996 H   0  0  0  0  0  0
  -26.8283  -30.8838   21.9877 H   0  0  0  0  0  0
  -28.1106  -29.0766   21.1722 H   0  0  0  0  0  0
  -26.0397  -25.9469   19.0381 H   0  0  0  0  0  0
  -23.9774  -27.2874   19.0479 H   0  0  0  0  0  0
  -23.7577  -30.5970   19.3985 H   0  0  0  0  0  0
  -22.7510  -29.2501   19.8499 H   0  0  0  0  0  0
  -25.1302  -36.1948   25.0838 H   0  0  0  0  0  0
  -20.9957  -28.3270   24.1405 H   0  0  0  0  0  0
  -20.5639  -26.2294   23.3602 H   0  0  0  0  0  0
  -21.6627  -26.7456   22.1215 H   0  0  0  0  0  0
  -19.6925  -25.6303   21.1230 H   0  0  0  0  0  0
  -19.6718  -27.3195   20.6711 H   0  0  0  0  0  0
  -17.4187  -26.6651   21.3997 H   0  0  0  0  0  0
  -18.0343  -26.0085   22.9016 H   0  0  0  0  0  0
  -19.7926  -30.7246   24.2286 H   0  0  0  0  0  0
  -17.5025  -31.6278   24.5171 H   0  0  0  0  0  0
  -15.5346  -30.3033   23.7674 H   0  0  0  0  0  0
  -15.8638  -28.0896   22.7030 H   0  0  0  0  0  0
  -24.5990  -30.6957   25.7883 H   0  0  0  0  0  0
  -24.8899  -32.2839   26.4921 H   0  0  0  0  0  0
  -25.8196  -30.8950   27.0268 H   0  0  0  0  0  0
  -26.2836  -29.6798   24.1182 H   0  0  0  0  0  0
  -27.4019  -29.7291   25.4610 H   0  0  0  0  0  0
  -27.8703  -30.4318   23.9303 H   0  0  0  0  0  0
  -27.2687  -33.3619   26.2068 H   0  0  0  0  0  0
  -28.3899  -32.6827   25.0348 H   0  0  0  0  0  0
  -28.0673  -31.8411   26.5419 H   0  0  0  0  0  0
  -28.2601  -38.0105   24.7495 H   0  0  0  0  0  0
  -28.1060  -36.2634   24.6308 H   0  0  0  0  0  0
  -27.2293  -37.1503   25.8858 H   0  0  0  0  0  0
  -20.9268  -29.8829   21.6948 H   0  0  0  0  0  0
  -26.0164  -38.2867   24.1402 H   0  0  0  0  0  0
  -27.8126  -20.9401   21.2689 H   0  0  0  0  0  0
  -28.4536  -18.7867   22.3029 H   0  0  0  0  0  0
  -31.1438  -20.6364   18.5708 H   0  0  0  0  0  0
  -28.1199  -24.0985   16.7336 H   0  0  0  0  0  0
  -32.3922  -18.6419   18.3971 H   0  0  0  0  0  0
  -32.0137  -17.2003   19.3239 H   0  0  0  0  0  0
  -33.0262  -18.4699   20.0268 H   0  0  0  0  0  0
  -28.1773  -26.3483   18.0216 H   0  0  0  0  0  0
  -29.7838  -26.2694   18.6502 H   0  0  0  0  0  0
  -29.0560  -15.3969   21.5439 H   0  0  0  0  0  0
  -28.3217  -21.6537   16.2398 H   0  0  0  0  0  0
  -29.4320  -24.6290   21.2855 H   0  0  0  0  0  0
  1 25  1  0  0  0
  1 30  2  0  0  0
  1 84  1  0  0  0
  2  3  1  0  0  0
  2 25  1  0  0  0
  2 90  1  0  0  0
  2 91  1  0  0  0
  3  4  1  0  0  0
  3 92  1  0  0  0
  3 93  1  0  0  0
  4  5  1  0  0  0
  4 94  1  0  0  0
  4 95  1  0  0  0
  5  6  1  0  0  0
  5 26  1  0  0  0
  5 96  1  0  0  0
  6 25  1  0  0  0
  6 97  1  0  0  0
  6 98  1  0  0  0
  7  8  2  0  0  0
  7 26  1  0  0  0
  7 29  1  0  0  0
  8  9  1  0  0  0
  8 22  1  0  0  0
  9 10  1  0  0  0
  9 27  2  0  0  0
 10 11  2  0  0  0
 10 15  1  0  0  0
 11 12  1  0  0  0
 11 99  1  0  0  0
 12 13  2  0  0  0
 12100  1  0  0  0
 13 14  1  0  0  0
 13 31  1  0  0  0
 14 15  2  0  0  0
 14101  1  0  0  0
 15102  1  0  0  0
 16 17  2  0  0  0
 16 21  1  0  0  0
 16 31  1  0  0  0
 17 18  1  0  0  0
 17103  1  0  0  0
 18 19  2  0  0  0
 18104  1  0  0  0
 19 20  1  0  0  0
 19 24  1  0  0  0
 20 21  2  0  0  0
 20105  1  0  0  0
 21 23  1  0  0  0
 22 28  1  0  0  0
 22 32  2  0  0  0
 26 27  1  0  0  0
 28106  1  0  0  0
 28107  1  0  0  0
 29108  1  0  0  0
 29109  1  0  0  0
 33 34  1  0  0  0
 33 66  1  0  0  0
 33 70  2  0  0  0
 34 36  1  0  0  0
 34 59  1  0  0  0
 34110  1  0  0  0
 35 44  2  0  0  0
 35 45  1  0  0  0
 35 68  1  0  0  0
 36 56  1  0  0  0
 36111  1  0  0  0
 37 39  1  0  0  0
 37 47  1  0  0  0
 37 66  1  0  0  0
 37112  1  0  0  0
 38 43  2  0  0  0
 38 46  1  0  0  0
 38 47  1  0  0  0
 39 64  1  0  0  0
 39 67  2  0  0  0
 40 52  1  0  0  0
 40 53  2  0  0  0
 40 58  1  0  0  0
 41113  1  0  0  0
 41114  1  0  0  0
 41115  1  0  0  0
 41 48  1  0  0  0
 42 43  1  0  0  0
 42 66  1  0  0  0
 42116  1  0  0  0
 42117  1  0  0  0
 43 44  1  0  0  0
 44118  1  0  0  0
 45 46  2  0  0  0
 45119  1  0  0  0
 46120  1  0  0  0
 47121  1  0  0  0
 47122  1  0  0  0
 48 56  1  0  0  0
 48 65  1  0  0  0
 48123  1  0  0  0
 49 50  1  0  0  0
 49 53  1  0  0  0
 49 64  1  0  0  0
 49124  1  0  0  0
 50 51  1  0  0  0
 50125  1  0  0  0
 50126  1  0  0  0
 51 52  1  0  0  0
 51127  1  0  0  0
 51128  1  0  0  0
 52129  1  0  0  0
 52130  1  0  0  0
 53 54  1  0  0  0
 54 55  2  0  0  0
 54131  1  0  0  0
 55 57  1  0  0  0
 55132  1  0  0  0
 56 69  2  0  0  0
 57 58  2  0  0  0
 57133  1  0  0  0
 58134  1  0  0  0
 59 60  1  0  0  0
 59 61  1  0  0  0
 59 62  1  0  0  0
 60135  1  0  0  0
 60136  1  0  0  0
 60137  1  0  0  0
 61138  1  0  0  0
 61139  1  0  0  0
 61140  1  0  0  0
 62141  1  0  0  0
 62142  1  0  0  0
 62143  1  0  0  0
 63 65  1  0  0  0
 63144  1  0  0  0
 63145  1  0  0  0
 63146  1  0  0  0
 64147  1  0  0  0
 65148  1  0  0  0
 68 82  1  0  0  0
 71 72  2  0  0  0
 71 77  1  0  0  0
 71149  1  0  0  0
 72 78  1  0  0  0
 72150  1  0  0  0
 73 75  1  0  0  0
 73 77  2  0  0  0
 73151  1  0  0  0
 74 76  1  0  0  0
 74 79  2  0  0  0
 74152  1  0  0  0
 75 78  2  0  0  0
 75 81  1  0  0  0
 76 80  2  0  0  0
 76 82  1  0  0  0
 77 83  1  0  0  0
 78 89  1  0  0  0
 79 83  1  0  0  0
 79 87  1  0  0  0
 80 83  1  0  0  0
 80 88  1  0  0  0
 81153  1  0  0  0
 81154  1  0  0  0
 81155  1  0  0  0
 82156  1  0  0  0
 82157  1  0  0  0
 84158  1  0  0  0
 84 89  1  0  0  0
 85 89  2  0  0  0
 86 89  2  0  0  0
 87159  1  0  0  0
 88160  1  0  0  0
M  ISO  4   1 100  68 101  82 101  84 100
M  END
> <chiral flag>
0

> <version>
0

> <s_m_source_file>
/data/baiqing/PycharmProjects/Reinvent-master-3.2/result/LINK_invent/BTK/process_docking_weight1_custom_product_contain_oxygen_bond_distance_aromatic_linkinvent_7_9_3/rearranged_h_0072.sdf

> <i_m_source_file_index>
54

> <r_mmod_Potential_Energy-OPLS-2005>
-132.934677124023

> <r_mmod_Stretch_Energy-OPLS-2005>
45.8877906799316

> <r_mmod_Bend_Energy-OPLS-2005>
121.48900604248

> <r_mmod_Torsional_Energy-OPLS-2005>
211.894683837891

> <r_mmod_Improper_Torsional_Energy-OPLS-2005>
4.12624931335449

> <r_mmod_Van_der_Waal_Energy-OPLS-2005>
133.780181884766

> <r_mmod_Electrostatic_Energy-OPLS-2005>
-399.738830566406

> <r_mmod_Solvation_Energy-OPLS-2005>
-265.636260986328

> <b_mmod_Minimization_Converged-OPLS-2005>
0

> <r_mmod_RMS_Derivative-OPLS-2005>
3.00977635383606

$$$$
54
                    3D
 Structure written by MMmdl.
156165  0  0  1  0            999 V2000
  -30.5842  -14.7522   20.4452 C   0  0  0  0  0  0
  -30.4252  -12.4533   19.4836 C   0  0  0  0  0  0
  -29.5110  -12.5320   18.2412 C   0  0  0  0  0  0
  -28.0364  -12.3483   18.6473 C   0  0  0  0  0  0
  -27.6433  -13.2314   19.8603 C   0  0  2  0  0  0
  -28.6818  -13.1495   20.9997 C   0  0  0  0  0  0
  -25.2518  -13.8201   20.5697 C   0  0  0  0  0  0
  -24.1784  -13.0448   20.9156 C   0  0  0  0  0  0
  -24.6367  -11.6919   20.8694 C   0  0  0  0  0  0
  -23.9043  -10.4298   21.0352 C   0  0  0  0  0  0
  -24.3593   -9.4225   21.9139 C   0  0  0  0  0  0
  -23.6263   -8.2261   22.0730 C   0  0  0  0  0  0
  -22.4247   -8.0290   21.3526 C   0  0  0  0  0  0
  -21.9875   -9.0260   20.4622 C   0  0  0  0  0  0
  -22.7209  -10.2137   20.3023 C   0  0  0  0  0  0
  -21.6872   -6.0731   22.5264 C   0  0  0  0  0  0
  -21.4056   -6.5639   23.8201 C   0  0  0  0  0  0
  -21.3666   -5.6791   24.9160 C   0  0  0  0  0  0
  -21.6044   -4.3053   24.7208 C   0  0  0  0  0  0
  -21.8821   -3.8144   23.4332 C   0  0  0  0  0  0
  -21.9194   -4.6954   22.3386 C   0  0  0  0  0  0
  -22.7813  -13.5225   21.1841 C   0  0  0  0  0  0
  -22.1640   -4.2136   21.0955 F   0  0  0  0  0  0
  -21.5619   -3.4542   25.7727 F   0  0  0  0  0  0
  -29.9866  -13.5080   20.4317 N   0  0  0  0  0  0
  -26.2937  -12.9398   20.3304 N   0  0  0  0  0  0
  -25.9308  -11.6544   20.5740 N   0  0  0  0  0  0
  -22.0482  -12.8195   22.0401 N   0  0  0  0  0  0
  -25.4283  -15.1919   20.4152 N   0  0  0  0  0  0
  -31.7507  -14.8664   20.0538 O   0  0  0  0  0  0
  -21.6638   -6.8862   21.4219 O   0  0  0  0  0  0
  -22.3493  -14.5537   20.6712 O   0  0  0  0  0  0
  -24.6324  -31.8534   23.1922 C   0  0  0  0  0  0
  -25.9133  -32.4756   23.8291 C   0  0  1  0  0  0
  -27.2298  -27.2369   20.1156 C   0  0  0  0  0  0
  -25.5923  -33.8561   24.2214 N   0  0  0  0  0  0
  -23.4315  -30.4697   21.5374 C   0  0  2  0  0  0
  -24.8798  -28.9050   20.1089 C   0  0  0  0  0  0
  -22.7492  -29.4603   22.4915 C   0  0  0  0  0  0
  -18.0292  -28.1394   22.8509 C   0  0  0  0  0  0
  -24.1499  -36.7283   23.2642 C   0  0  0  0  0  0
  -25.9776  -30.7500   21.3804 C   0  0  0  0  0  0
  -26.0500  -29.3705   20.7191 C   0  0  0  0  0  0
  -27.2211  -28.5454   20.7153 C   0  0  0  0  0  0
  -26.0327  -26.8374   19.4823 C   0  0  0  0  0  0
  -24.8777  -27.6483   19.4811 C   0  0  0  0  0  0
  -23.6486  -29.7908   20.1586 C   0  0  0  0  0  0
  -25.4138  -36.3078   24.0310 C   0  0  1  0  0  0
  -20.5891  -28.3729   23.1262 C   0  0  2  0  0  0
  -20.6780  -26.9444   22.5411 C   0  0  0  0  0  0
  -19.5751  -26.6386   21.5228 C   0  0  0  0  0  0
  -18.1927  -26.7945   22.1628 C   0  0  0  0  0  0
  -19.1542  -28.8874   23.2880 C   0  0  0  0  0  0
  -18.9468  -30.1469   23.8907 C   0  0  0  0  0  0
  -17.6470  -30.6614   24.0565 C   0  0  0  0  0  0
  -25.9071  -34.9447   23.5073 C   0  0  0  0  0  0
  -16.5363  -29.9106   23.6338 C   0  0  0  0  0  0
  -16.7276  -28.6504   23.0396 C   0  0  0  0  0  0
  -26.4484  -31.6622   25.0722 C   0  0  0  0  0  0
  -25.3660  -31.3769   26.1406 C   0  0  0  0  0  0
  -27.0367  -30.3036   24.6279 C   0  0  0  0  0  0
  -27.6046  -32.4379   25.7482 C   0  0  0  0  0  0
  -27.5595  -37.1793   24.8457 C   0  0  0  0  0  0
  -21.4200  -29.3068   22.3643 N   0  0  0  0  0  0
  -26.4316  -37.3772   23.9387 N   0  0  0  0  0  0
  -24.6993  -31.0446   22.0927 N   0  0  0  0  0  0
  -23.4167  -28.8149   23.3046 O   0  0  0  0  0  0
  -28.3454  -26.3644   20.2060 O   0  0  0  0  0  0
  -26.5666  -34.8926   22.4661 O   0  0  0  0  0  0
  -23.5467  -32.1398   23.7186 O   0  0  0  0  0  0
  -29.1747  -19.4579   18.3491 C   0  0  0  0  0  0
  -29.6338  -17.0586   18.6072 C   0  0  0  0  0  0
  -29.4859  -18.5071   20.5649 C   0  0  0  0  0  0
  -29.3594  -18.1739   17.7920 C   0  0  0  0  0  0
  -29.2374  -19.6988   19.7422 C   0  0  0  0  0  0
  -29.6964  -17.1624   20.0135 C   0  0  0  0  0  0
  -29.5786  -21.7480   21.2915 C   0  0  0  0  0  0
  -28.4728  -22.2323   19.3376 C   0  0  0  0  0  0
  -28.3400  -23.5317   20.2429 C   0  0  2  0  0  0
  -29.2285  -17.9719   16.2930 C   0  0  0  0  0  0
  -28.4831  -25.0095   19.5431 C   0  0  0  0  0  0
  -29.0225  -21.1229   20.1787 N   0  0  0  0  0  0
  -29.8286  -15.8790   20.7630 N   0  0  0  0  0  0
  -30.2260  -21.2285   22.2005 O   0  0  0  0  0  0
  -29.3124  -23.1143   21.2157 O   0  0  0  0  0  0
  -31.4688  -12.5689   19.1871 H   0  0  0  0  0  0
  -30.3544  -11.4695   19.9499 H   0  0  0  0  0  0
  -29.7983  -11.7794   17.5056 H   0  0  0  0  0  0
  -29.6382  -13.5024   17.7577 H   0  0  0  0  0  0
  -27.8855  -11.2956   18.8912 H   0  0  0  0  0  0
  -27.3827  -12.5612   17.8003 H   0  0  0  0  0  0
  -27.6446  -14.2577   19.4938 H   0  0  0  0  0  0
  -28.7139  -12.1459   21.4271 H   0  0  0  0  0  0
  -28.4120  -13.8187   21.8175 H   0  0  0  0  0  0
  -25.2741   -9.5740   22.4692 H   0  0  0  0  0  0
  -23.9982   -7.4679   22.7478 H   0  0  0  0  0  0
  -21.0800   -8.8798   19.8919 H   0  0  0  0  0  0
  -22.3656  -10.9671   19.6136 H   0  0  0  0  0  0
  -21.2085   -7.6156   23.9712 H   0  0  0  0  0  0
  -21.1480   -6.0512   25.9060 H   0  0  0  0  0  0
  -22.0586   -2.7602   23.2844 H   0  0  0  0  0  0
  -22.4124  -11.9826   22.4696 H   0  0  0  0  0  0
  -21.1129  -13.1239   22.2706 H   0  0  0  0  0  0
  -24.6715  -15.8575   20.5349 H   0  0  0  0  0  0
  -26.2921  -15.6217   20.1094 H   0  0  0  0  0  0
  -26.7210  -32.5380   23.1034 H   0  0  0  0  0  0
  -25.0030  -33.9698   25.0334 H   0  0  0  0  0  0
  -22.7321  -31.2934   21.3829 H   0  0  0  0  0  0
  -23.3785  -35.9592   23.3305 H   0  0  0  0  0  0
  -24.3564  -36.8940   22.2058 H   0  0  0  0  0  0
  -23.7242  -37.6468   23.6693 H   0  0  0  0  0  0
  -26.1275  -31.5085   20.6119 H   0  0  0  0  0  0
  -26.8502  -30.7948   22.0210 H   0  0  0  0  0  0
  -28.1178  -28.8914   21.2090 H   0  0  0  0  0  0
  -25.9518  -25.8700   19.0102 H   0  0  0  0  0  0
  -23.9765  -27.2842   19.0062 H   0  0  0  0  0  0
  -23.7600  -30.5570   19.3907 H   0  0  0  0  0  0
  -22.7688  -29.2130   19.8684 H   0  0  0  0  0  0
  -25.1332  -36.1929   25.0803 H   0  0  0  0  0  0
  -20.9988  -28.3343   24.1385 H   0  0  0  0  0  0
  -20.5706  -26.2347   23.3635 H   0  0  0  0  0  0
  -21.6647  -26.7481   22.1202 H   0  0  0  0  0  0
  -19.6912  -25.6283   21.1293 H   0  0  0  0  0  0
  -19.6687  -27.3167   20.6740 H   0  0  0  0  0  0
  -17.4206  -26.6734   21.4020 H   0  0  0  0  0  0
  -18.0304  -26.0067   22.9000 H   0  0  0  0  0  0
  -19.7939  -30.7282   24.2296 H   0  0  0  0  0  0
  -17.5026  -31.6297   24.5156 H   0  0  0  0  0  0
  -15.5364  -30.3026   23.7635 H   0  0  0  0  0  0
  -15.8675  -28.0802   22.7160 H   0  0  0  0  0  0
  -24.5825  -30.7172   25.7653 H   0  0  0  0  0  0
  -24.8843  -32.2935   26.4822 H   0  0  0  0  0  0
  -25.7891  -30.8892   27.0194 H   0  0  0  0  0  0
  -26.2980  -29.6757   24.1282 H   0  0  0  0  0  0
  -27.4009  -29.7348   25.4843 H   0  0  0  0  0  0
  -27.8868  -30.4325   23.9576 H   0  0  0  0  0  0
  -27.2690  -33.3708   26.2021 H   0  0  0  0  0  0
  -28.3848  -32.6909   25.0289 H   0  0  0  0  0  0
  -28.0732  -31.8534   26.5415 H   0  0  0  0  0  0
  -28.2607  -38.0099   24.7551 H   0  0  0  0  0  0
  -28.1110  -36.2634   24.6265 H   0  0  0  0  0  0
  -27.2290  -37.1434   25.8852 H   0  0  0  0  0  0
  -20.9389  -29.8782   21.6829 H   0  0  0  0  0  0
  -26.0208  -38.2850   24.1390 H   0  0  0  0  0  0
  -28.9811  -20.2761   17.6707 H   0  0  0  0  0  0
  -29.7494  -16.0938   18.1306 H   0  0  0  0  0  0
  -29.4996  -18.6251   21.6382 H   0  0  0  0  0  0
  -29.1745  -22.4293   18.5254 H   0  0  0  0  0  0
  -27.5153  -21.9638   18.8882 H   0  0  0  0  0  0
  -27.3689  -23.4933   20.7359 H   0  0  0  0  0  0
  -28.9332  -18.8887   15.7810 H   0  0  0  0  0  0
  -28.4708  -17.2161   16.0791 H   0  0  0  0  0  0
  -30.1736  -17.6336   15.8665 H   0  0  0  0  0  0
  -27.8537  -24.9993   18.6544 H   0  0  0  0  0  0
  -29.4874  -25.0273   19.1178 H   0  0  0  0  0  0
  -29.0479  -15.6812   21.3708 H   0  0  0  0  0  0
  1 25  1  0  0  0
  1 30  2  0  0  0
  1 83  1  0  0  0
  2  3  1  0  0  0
  2 25  1  0  0  0
  2 86  1  0  0  0
  2 87  1  0  0  0
  3  4  1  0  0  0
  3 88  1  0  0  0
  3 89  1  0  0  0
  4  5  1  0  0  0
  4 90  1  0  0  0
  4 91  1  0  0  0
  5  6  1  0  0  0
  5 26  1  0  0  0
  5 92  1  0  0  0
  6 25  1  0  0  0
  6 93  1  0  0  0
  6 94  1  0  0  0
  7  8  2  0  0  0
  7 26  1  0  0  0
  7 29  1  0  0  0
  8  9  1  0  0  0
  8 22  1  0  0  0
  9 10  1  0  0  0
  9 27  2  0  0  0
 10 11  2  0  0  0
 10 15  1  0  0  0
 11 12  1  0  0  0
 11 95  1  0  0  0
 12 13  2  0  0  0
 12 96  1  0  0  0
 13 14  1  0  0  0
 13 31  1  0  0  0
 14 15  2  0  0  0
 14 97  1  0  0  0
 15 98  1  0  0  0
 16 17  2  0  0  0
 16 21  1  0  0  0
 16 31  1  0  0  0
 17 18  1  0  0  0
 17 99  1  0  0  0
 18 19  2  0  0  0
 18100  1  0  0  0
 19 20  1  0  0  0
 19 24  1  0  0  0
 20 21  2  0  0  0
 20101  1  0  0  0
 21 23  1  0  0  0
 22 28  1  0  0  0
 22 32  2  0  0  0
 26 27  1  0  0  0
 28102  1  0  0  0
 28103  1  0  0  0
 29104  1  0  0  0
 29105  1  0  0  0
 33 34  1  0  0  0
 33 66  1  0  0  0
 33 70  2  0  0  0
 34 36  1  0  0  0
 34 59  1  0  0  0
 34106  1  0  0  0
 35 44  2  0  0  0
 35 45  1  0  0  0
 35 68  1  0  0  0
 36 56  1  0  0  0
 36107  1  0  0  0
 37 39  1  0  0  0
 37 47  1  0  0  0
 37 66  1  0  0  0
 37108  1  0  0  0
 38 43  2  0  0  0
 38 46  1  0  0  0
 38 47  1  0  0  0
 39 64  1  0  0  0
 39 67  2  0  0  0
 40 52  1  0  0  0
 40 53  2  0  0  0
 40 58  1  0  0  0
 41109  1  0  0  0
 41110  1  0  0  0
 41111  1  0  0  0
 41 48  1  0  0  0
 42 43  1  0  0  0
 42 66  1  0  0  0
 42112  1  0  0  0
 42113  1  0  0  0
 43 44  1  0  0  0
 44114  1  0  0  0
 45 46  2  0  0  0
 45115  1  0  0  0
 46116  1  0  0  0
 47117  1  0  0  0
 47118  1  0  0  0
 48 56  1  0  0  0
 48 65  1  0  0  0
 48119  1  0  0  0
 49 50  1  0  0  0
 49 53  1  0  0  0
 49 64  1  0  0  0
 49120  1  0  0  0
 50 51  1  0  0  0
 50121  1  0  0  0
 50122  1  0  0  0
 51 52  1  0  0  0
 51123  1  0  0  0
 51124  1  0  0  0
 52125  1  0  0  0
 52126  1  0  0  0
 53 54  1  0  0  0
 54 55  2  0  0  0
 54127  1  0  0  0
 55 57  1  0  0  0
 55128  1  0  0  0
 56 69  2  0  0  0
 57 58  2  0  0  0
 57129  1  0  0  0
 58130  1  0  0  0
 59 60  1  0  0  0
 59 61  1  0  0  0
 59 62  1  0  0  0
 60131  1  0  0  0
 60132  1  0  0  0
 60133  1  0  0  0
 61134  1  0  0  0
 61135  1  0  0  0
 61136  1  0  0  0
 62137  1  0  0  0
 62138  1  0  0  0
 62139  1  0  0  0
 63 65  1  0  0  0
 63140  1  0  0  0
 63141  1  0  0  0
 63142  1  0  0  0
 64143  1  0  0  0
 65144  1  0  0  0
 68 81  1  0  0  0
 71 74  2  0  0  0
 71 75  1  0  0  0
 71145  1  0  0  0
 72 74  1  0  0  0
 72 76  2  0  0  0
 72146  1  0  0  0
 73 75  2  0  0  0
 73 76  1  0  0  0
 73147  1  0  0  0
 74 80  1  0  0  0
 75 82  1  0  0  0
 76 83  1  0  0  0
 77 82  1  0  0  0
 77 84  2  0  0  0
 77 85  1  0  0  0
 78 79  1  0  0  0
 78 82  1  0  0  0
 78148  1  0  0  0
 78149  1  0  0  0
 79 81  1  0  0  0
 79 85  1  0  0  0
 79150  1  0  0  0
 80151  1  0  0  0
 80152  1  0  0  0
 80153  1  0  0  0
 81154  1  0  0  0
 81155  1  0  0  0
 83156  1  0  0  0
M  ISO  4   1 100  68 101  81 101  83 100
M  END
> <chiral flag>
0

> <version>
0

> <s_m_source_file>
/data/baiqing/PycharmProjects/Reinvent-master-3.2/result/LINK_invent/BTK/process_docking_weight1_custom_product_contain_oxygen_bond_distance_aromatic_linkinvent_7_9_3/rearranged_h_0072.sdf

> <i_m_source_file_index>
55

> <r_mmod_Potential_Energy-OPLS-2005>
253.982131958008

> <r_mmod_Stretch_Energy-OPLS-2005>
140.550384521484

> <r_mmod_Bend_Energy-OPLS-2005>
219.365203857422

> <r_mmod_Torsional_Energy-OPLS-2005>
260.03173828125

> <r_mmod_Improper_Torsional_Energy-OPLS-2005>
5.7453784942627

> <r_mmod_Van_der_Waal_Energy-OPLS-2005>
129.924392700195

> <r_mmod_Electrostatic_Energy-OPLS-2005>
-358.002471923828

> <r_mmod_Solvation_Energy-OPLS-2005>
-234.99723815918

> <b_mmod_Minimization_Converged-OPLS-2005>
0

> <r_mmod_RMS_Derivative-OPLS-2005>
2.56920528411865

$$$$
55
                    3D
 Structure written by MMmdl.
163172  0  0  1  0            999 V2000
  -30.6262  -14.7183   20.4564 C   0  0  0  0  0  0
  -30.4344  -12.4313   19.4808 C   0  0  0  0  0  0
  -29.5142  -12.4989   18.2410 C   0  0  0  0  0  0
  -28.0367  -12.3467   18.6464 C   0  0  0  0  0  0
  -27.6507  -13.2339   19.8595 C   0  0  2  0  0  0
  -28.6943  -13.1469   20.9966 C   0  0  0  0  0  0
  -25.2549  -13.8215   20.5705 C   0  0  0  0  0  0
  -24.1820  -13.0457   20.9179 C   0  0  0  0  0  0
  -24.6415  -11.6935   20.8739 C   0  0  0  0  0  0
  -23.9083  -10.4312   21.0412 C   0  0  0  0  0  0
  -24.3633   -9.4212   21.9186 C   0  0  0  0  0  0
  -23.6295   -8.2260   22.0743 C   0  0  0  0  0  0
  -22.4280   -8.0314   21.3534 C   0  0  0  0  0  0
  -21.9909   -9.0291   20.4639 C   0  0  0  0  0  0
  -22.7252  -10.2161   20.3053 C   0  0  0  0  0  0
  -21.6852   -6.0743   22.5263 C   0  0  0  0  0  0
  -21.4022   -6.5628   23.8203 C   0  0  0  0  0  0
  -21.3651   -5.6775   24.9165 C   0  0  0  0  0  0
  -21.6032   -4.3038   24.7197 C   0  0  0  0  0  0
  -21.8819   -3.8145   23.4314 C   0  0  0  0  0  0
  -21.9192   -4.6974   22.3378 C   0  0  0  0  0  0
  -22.7830  -13.5247   21.1849 C   0  0  0  0  0  0
  -22.1658   -4.2175   21.0943 F   0  0  0  0  0  0
  -21.5623   -3.4500   25.7692 F   0  0  0  0  0  0
  -30.0033  -13.4899   20.4250 N   0  0  0  0  0  0
  -26.2990  -12.9420   20.3320 N   0  0  0  0  0  0
  -25.9348  -11.6560   20.5755 N   0  0  0  0  0  0
  -22.0477  -12.8262   22.0430 N   0  0  0  0  0  0
  -25.4304  -15.1945   20.4131 N   0  0  0  0  0  0
  -31.7976  -14.8243   20.0860 O   0  0  0  0  0  0
  -21.6647   -6.8906   21.4228 O   0  0  0  0  0  0
  -22.3511  -14.5548   20.6708 O   0  0  0  0  0  0
  -24.6318  -31.8545   23.1969 C   0  0  0  0  0  0
  -25.9138  -32.4751   23.8320 C   0  0  1  0  0  0
  -27.2323  -27.2551   20.1327 C   0  0  0  0  0  0
  -25.5931  -33.8552   24.2250 N   0  0  0  0  0  0
  -23.4308  -30.4746   21.5386 C   0  0  2  0  0  0
  -24.8839  -28.9239   20.1067 C   0  0  0  0  0  0
  -22.7497  -29.4585   22.4879 C   0  0  0  0  0  0
  -18.0303  -28.1406   22.8477 C   0  0  0  0  0  0
  -24.1488  -36.7292   23.2635 C   0  0  0  0  0  0
  -25.9768  -30.7636   21.3794 C   0  0  0  0  0  0
  -26.0525  -29.3842   20.7254 C   0  0  0  0  0  0
  -27.2260  -28.5611   20.7326 C   0  0  0  0  0  0
  -26.0414  -26.8752   19.4678 C   0  0  0  0  0  0
  -24.8851  -27.6785   19.4635 C   0  0  0  0  0  0
  -23.6517  -29.8073   20.1551 C   0  0  0  0  0  0
  -25.4106  -36.3061   24.0325 C   0  0  1  0  0  0
  -20.5901  -28.3709   23.1260 C   0  0  2  0  0  0
  -20.6785  -26.9419   22.5407 C   0  0  0  0  0  0
  -19.5762  -26.6389   21.5206 C   0  0  0  0  0  0
  -18.1944  -26.7952   22.1614 C   0  0  0  0  0  0
  -19.1556  -28.8870   23.2872 C   0  0  0  0  0  0
  -18.9473  -30.1467   23.8904 C   0  0  0  0  0  0
  -17.6470  -30.6595   24.0568 C   0  0  0  0  0  0
  -25.9052  -34.9434   23.5092 C   0  0  0  0  0  0
  -16.5364  -29.9092   23.6322 C   0  0  0  0  0  0
  -16.7290  -28.6512   23.0341 C   0  0  0  0  0  0
  -26.4496  -31.6572   25.0707 C   0  0  0  0  0  0
  -25.3708  -31.3745   26.1424 C   0  0  0  0  0  0
  -27.0320  -30.2978   24.6188 C   0  0  0  0  0  0
  -27.6069  -32.4290   25.7475 C   0  0  0  0  0  0
  -27.5581  -37.1782   24.8444 C   0  0  0  0  0  0
  -21.4198  -29.3056   22.3638 N   0  0  0  0  0  0
  -26.4271  -37.3764   23.9421 N   0  0  0  0  0  0
  -24.6991  -31.0483   22.0958 N   0  0  0  0  0  0
  -23.4175  -28.8119   23.2984 O   0  0  0  0  0  0
  -28.3207  -26.3463   20.2122 O   0  0  0  0  0  0
  -26.5618  -34.8916   22.4656 O   0  0  0  0  0  0
  -23.5465  -32.1379   23.7248 O   0  0  0  0  0  0
  -29.4113  -19.4987   18.4469 C   0  0  0  0  0  0
  -29.6675  -18.4645   20.6330 C   0  0  0  0  0  0
  -29.4676  -19.6879   19.8504 C   0  0  0  0  0  0
  -29.5528  -18.2312   17.8498 C   0  0  0  0  0  0
  -29.8137  -17.1354   20.0417 C   0  0  0  0  0  0
  -29.7425  -17.0721   18.6289 C   0  0  0  0  0  0
  -29.5922  -21.5969   21.5677 C   0  0  0  0  0  0
  -28.7846  -22.2597   19.5388 C   0  0  0  0  0  0
  -29.0734  -23.6415   20.2683 C   0  0  2  0  0  0
  -29.2684  -23.1218   21.7224 C   0  0  0  0  0  0
  -27.9938  -23.2564   22.5818 C   0  0  0  0  0  0
  -30.4296  -23.8642   22.4241 C   0  0  0  0  0  0
  -28.0660  -24.8843   19.9494 C   0  0  0  0  0  0
  -29.3054  -21.0982   20.3443 N   0  0  0  0  0  0
  -29.4763  -18.1066   16.4576 N   0  0  0  0  0  0
  -29.8862  -15.8450   20.7766 N   0  0  0  0  0  0
  -30.0676  -20.9470   22.5030 O   0  0  0  0  0  0
  -29.7813  -15.8771   17.9892 F   0  0  0  0  0  0
  -31.4767  -12.5446   19.1765 H   0  0  0  0  0  0
  -30.3651  -11.4524   19.9592 H   0  0  0  0  0  0
  -29.7858  -11.7244   17.5239 H   0  0  0  0  0  0
  -29.6536  -13.4451   17.7200 H   0  0  0  0  0  0
  -27.8719  -11.2959   18.8860 H   0  0  0  0  0  0
  -27.3911  -12.5669   17.7961 H   0  0  0  0  0  0
  -27.6548  -14.2619   19.4958 H   0  0  0  0  0  0
  -28.7159  -12.1413   21.4195 H   0  0  0  0  0  0
  -28.4317  -13.8162   21.8167 H   0  0  0  0  0  0
  -25.2788   -9.5651   22.4750 H   0  0  0  0  0  0
  -23.9991   -7.4624   22.7446 H   0  0  0  0  0  0
  -21.0833   -8.8817   19.8952 H   0  0  0  0  0  0
  -22.3728  -10.9696   19.6156 H   0  0  0  0  0  0
  -21.2038   -7.6137   23.9701 H   0  0  0  0  0  0
  -21.1471   -6.0513   25.9062 H   0  0  0  0  0  0
  -22.0621   -2.7616   23.2798 H   0  0  0  0  0  0
  -22.4066  -11.9902   22.4792 H   0  0  0  0  0  0
  -21.1100  -13.1313   22.2654 H   0  0  0  0  0  0
  -24.6725  -15.8595   20.5166 H   0  0  0  0  0  0
  -26.2904  -15.6232   20.0954 H   0  0  0  0  0  0
  -26.7203  -32.5410   23.1065 H   0  0  0  0  0  0
  -25.0042  -33.9682   25.0372 H   0  0  0  0  0  0
  -22.7277  -31.2966   21.3890 H   0  0  0  0  0  0
  -23.3745  -35.9624   23.3253 H   0  0  0  0  0  0
  -24.3595  -36.8963   22.2060 H   0  0  0  0  0  0
  -23.7242  -37.6478   23.6699 H   0  0  0  0  0  0
  -26.1073  -31.5167   20.6016 H   0  0  0  0  0  0
  -26.8583  -30.8238   22.0059 H   0  0  0  0  0  0
  -28.1142  -28.9035   21.2453 H   0  0  0  0  0  0
  -25.9654  -25.9305   18.9520 H   0  0  0  0  0  0
  -23.9968  -27.3248   18.9589 H   0  0  0  0  0  0
  -23.7721  -30.5831   19.3988 H   0  0  0  0  0  0
  -22.7729  -29.2372   19.8490 H   0  0  0  0  0  0
  -25.1279  -36.1899   25.0812 H   0  0  0  0  0  0
  -20.9996  -28.3313   24.1378 H   0  0  0  0  0  0
  -20.5667  -26.2315   23.3611 H   0  0  0  0  0  0
  -21.6660  -26.7440   22.1215 H   0  0  0  0  0  0
  -19.6919  -25.6295   21.1244 H   0  0  0  0  0  0
  -19.6709  -27.3177   20.6720 H   0  0  0  0  0  0
  -17.4203  -26.6689   21.4029 H   0  0  0  0  0  0
  -18.0353  -26.0106   22.9020 H   0  0  0  0  0  0
  -19.7949  -30.7287   24.2269 H   0  0  0  0  0  0
  -17.5027  -31.6277   24.5174 H   0  0  0  0  0  0
  -15.5367  -30.2992   23.7652 H   0  0  0  0  0  0
  -15.8688  -28.0833   22.7046 H   0  0  0  0  0  0
  -24.5898  -30.7070   25.7763 H   0  0  0  0  0  0
  -24.8883  -32.2922   26.4797 H   0  0  0  0  0  0
  -25.8020  -30.8965   27.0228 H   0  0  0  0  0  0
  -26.2886  -29.6732   24.1217 H   0  0  0  0  0  0
  -27.3990  -29.7241   25.4708 H   0  0  0  0  0  0
  -27.8778  -30.4233   23.9425 H   0  0  0  0  0  0
  -27.2711  -33.3605   26.2039 H   0  0  0  0  0  0
  -28.3893  -32.6808   25.0304 H   0  0  0  0  0  0
  -28.0711  -31.8405   26.5399 H   0  0  0  0  0  0
  -28.2549  -38.0124   24.7545 H   0  0  0  0  0  0
  -28.1127  -36.2663   24.6183 H   0  0  0  0  0  0
  -27.2327  -37.1331   25.8850 H   0  0  0  0  0  0
  -20.9370  -29.8771   21.6849 H   0  0  0  0  0  0
  -26.0144  -38.2826   24.1463 H   0  0  0  0  0  0
  -29.2573  -20.3375   17.7874 H   0  0  0  0  0  0
  -29.6914  -18.5391   21.7095 H   0  0  0  0  0  0
  -29.2127  -22.2946   18.5384 H   0  0  0  0  0  0
  -27.7083  -22.1263   19.4217 H   0  0  0  0  0  0
  -30.0518  -23.9617   19.9055 H   0  0  0  0  0  0
  -27.1369  -22.7781   22.1051 H   0  0  0  0  0  0
  -27.7345  -24.3014   22.7516 H   0  0  0  0  0  0
  -28.1249  -22.7954   23.5625 H   0  0  0  0  0  0
  -31.3653  -23.7758   21.8700 H   0  0  0  0  0  0
  -30.6151  -23.4743   23.4257 H   0  0  0  0  0  0
  -30.2104  -24.9277   22.5273 H   0  0  0  0  0  0
  -27.1030  -24.6245   20.3894 H   0  0  0  0  0  0
  -27.9118  -24.8333   18.8714 H   0  0  0  0  0  0
  -28.8629  -18.7431   15.9612 H   0  0  0  0  0  0
  -29.3940  -17.1548   16.1139 H   0  0  0  0  0  0
  -29.0618  -15.6400   21.3218 H   0  0  0  0  0  0
  1 25  1  0  0  0
  1 30  2  0  0  0
  1 86  1  0  0  0
  2  3  1  0  0  0
  2 25  1  0  0  0
  2 89  1  0  0  0
  2 90  1  0  0  0
  3  4  1  0  0  0
  3 91  1  0  0  0
  3 92  1  0  0  0
  4  5  1  0  0  0
  4 93  1  0  0  0
  4 94  1  0  0  0
  5  6  1  0  0  0
  5 26  1  0  0  0
  5 95  1  0  0  0
  6 25  1  0  0  0
  6 96  1  0  0  0
  6 97  1  0  0  0
  7  8  2  0  0  0
  7 26  1  0  0  0
  7 29  1  0  0  0
  8  9  1  0  0  0
  8 22  1  0  0  0
  9 10  1  0  0  0
  9 27  2  0  0  0
 10 11  2  0  0  0
 10 15  1  0  0  0
 11 12  1  0  0  0
 11 98  1  0  0  0
 12 13  2  0  0  0
 12 99  1  0  0  0
 13 14  1  0  0  0
 13 31  1  0  0  0
 14 15  2  0  0  0
 14100  1  0  0  0
 15101  1  0  0  0
 16 17  2  0  0  0
 16 21  1  0  0  0
 16 31  1  0  0  0
 17 18  1  0  0  0
 17102  1  0  0  0
 18 19  2  0  0  0
 18103  1  0  0  0
 19 20  1  0  0  0
 19 24  1  0  0  0
 20 21  2  0  0  0
 20104  1  0  0  0
 21 23  1  0  0  0
 22 28  1  0  0  0
 22 32  2  0  0  0
 26 27  1  0  0  0
 28105  1  0  0  0
 28106  1  0  0  0
 29107  1  0  0  0
 29108  1  0  0  0
 33 34  1  0  0  0
 33 66  1  0  0  0
 33 70  2  0  0  0
 34 36  1  0  0  0
 34 59  1  0  0  0
 34109  1  0  0  0
 35 44  2  0  0  0
 35 45  1  0  0  0
 35 68  1  0  0  0
 36 56  1  0  0  0
 36110  1  0  0  0
 37 39  1  0  0  0
 37 47  1  0  0  0
 37 66  1  0  0  0
 37111  1  0  0  0
 38 43  2  0  0  0
 38 46  1  0  0  0
 38 47  1  0  0  0
 39 64  1  0  0  0
 39 67  2  0  0  0
 40 52  1  0  0  0
 40 53  2  0  0  0
 40 58  1  0  0  0
 41112  1  0  0  0
 41113  1  0  0  0
 41114  1  0  0  0
 41 48  1  0  0  0
 42 43  1  0  0  0
 42 66  1  0  0  0
 42115  1  0  0  0
 42116  1  0  0  0
 43 44  1  0  0  0
 44117  1  0  0  0
 45 46  2  0  0  0
 45118  1  0  0  0
 46119  1  0  0  0
 47120  1  0  0  0
 47121  1  0  0  0
 48 56  1  0  0  0
 48 65  1  0  0  0
 48122  1  0  0  0
 49 50  1  0  0  0
 49 53  1  0  0  0
 49 64  1  0  0  0
 49123  1  0  0  0
 50 51  1  0  0  0
 50124  1  0  0  0
 50125  1  0  0  0
 51 52  1  0  0  0
 51126  1  0  0  0
 51127  1  0  0  0
 52128  1  0  0  0
 52129  1  0  0  0
 53 54  1  0  0  0
 54 55  2  0  0  0
 54130  1  0  0  0
 55 57  1  0  0  0
 55131  1  0  0  0
 56 69  2  0  0  0
 57 58  2  0  0  0
 57132  1  0  0  0
 58133  1  0  0  0
 59 60  1  0  0  0
 59 61  1  0  0  0
 59 62  1  0  0  0
 60134  1  0  0  0
 60135  1  0  0  0
 60136  1  0  0  0
 61137  1  0  0  0
 61138  1  0  0  0
 61139  1  0  0  0
 62140  1  0  0  0
 62141  1  0  0  0
 62142  1  0  0  0
 63 65  1  0  0  0
 63143  1  0  0  0
 63144  1  0  0  0
 63145  1  0  0  0
 64146  1  0  0  0
 65147  1  0  0  0
 68 83  1  0  0  0
 71 73  2  0  0  0
 71 74  1  0  0  0
 71148  1  0  0  0
 72 73  1  0  0  0
 72 75  2  0  0  0
 72149  1  0  0  0
 73 84  1  0  0  0
 74 76  2  0  0  0
 74 85  1  0  0  0
 75 76  1  0  0  0
 75 86  1  0  0  0
 76 88  1  0  0  0
 77 80  1  0  0  0
 77 84  1  0  0  0
 77 87  2  0  0  0
 78 79  1  0  0  0
 78 84  1  0  0  0
 78150  1  0  0  0
 78151  1  0  0  0
 79 80  1  0  0  0
 79 83  1  0  0  0
 79152  1  0  0  0
 80 81  1  0  0  0
 80 82  1  0  0  0
 81153  1  0  0  0
 81154  1  0  0  0
 81155  1  0  0  0
 82156  1  0  0  0
 82157  1  0  0  0
 82158  1  0  0  0
 83159  1  0  0  0
 83160  1  0  0  0
 85161  1  0  0  0
 85162  1  0  0  0
 86163  1  0  0  0
M  ISO  4   1 100  68 101  83 101  86 100
M  END
> <chiral flag>
0

> <version>
0

> <s_m_source_file>
/data/baiqing/PycharmProjects/Reinvent-master-3.2/result/LINK_invent/BTK/process_docking_weight1_custom_product_contain_oxygen_bond_distance_aromatic_linkinvent_7_9_3/rearranged_h_0072.sdf

> <i_m_source_file_index>
56

> <r_mmod_Potential_Energy-OPLS-2005>
312.873931884766

> <r_mmod_Stretch_Energy-OPLS-2005>
130.527557373047

> <r_mmod_Bend_Energy-OPLS-2005>
198.869171142578

> <r_mmod_Torsional_Energy-OPLS-2005>
308.551147460938

> <r_mmod_Improper_Torsional_Energy-OPLS-2005>
9.46474647521973

> <r_mmod_Van_der_Waal_Energy-OPLS-2005>
143.938873291016

> <r_mmod_Electrostatic_Energy-OPLS-2005>
-329.442993164062

> <r_mmod_Solvation_Energy-OPLS-2005>
-230.954650878906

> <b_mmod_Minimization_Converged-OPLS-2005>
0

> <r_mmod_RMS_Derivative-OPLS-2005>
3.22270321846008

$$$$
56
                    3D
 Structure written by MMmdl.
161170  0  0  1  0            999 V2000
  -30.5957  -14.6596   20.4911 C   0  0  0  0  0  0
  -30.4461  -12.4074   19.4389 C   0  0  0  0  0  0
  -29.5042  -12.5191   18.2170 C   0  0  0  0  0  0
  -28.0275  -12.3564   18.6330 C   0  0  0  0  0  0
  -27.6557  -13.2160   19.8701 C   0  0  2  0  0  0
  -28.7072  -13.0493   20.9917 C   0  0  0  0  0  0
  -25.2568  -13.8178   20.5707 C   0  0  0  0  0  0
  -24.1831  -13.0438   20.9205 C   0  0  0  0  0  0
  -24.6404  -11.6909   20.8760 C   0  0  0  0  0  0
  -23.9077  -10.4288   21.0420 C   0  0  0  0  0  0
  -24.3619   -9.4195   21.9188 C   0  0  0  0  0  0
  -23.6290   -8.2235   22.0754 C   0  0  0  0  0  0
  -22.4271   -8.0279   21.3545 C   0  0  0  0  0  0
  -21.9909   -9.0260   20.4648 C   0  0  0  0  0  0
  -22.7250  -10.2139   20.3063 C   0  0  0  0  0  0
  -21.6845   -6.0738   22.5280 C   0  0  0  0  0  0
  -21.4013   -6.5641   23.8216 C   0  0  0  0  0  0
  -21.3660   -5.6791   24.9175 C   0  0  0  0  0  0
  -21.6041   -4.3056   24.7223 C   0  0  0  0  0  0
  -21.8822   -3.8150   23.4346 C   0  0  0  0  0  0
  -21.9190   -4.6966   22.3400 C   0  0  0  0  0  0
  -22.7850  -13.5227   21.1868 C   0  0  0  0  0  0
  -22.1656   -4.2152   21.0977 F   0  0  0  0  0  0
  -21.5630   -3.4539   25.7737 F   0  0  0  0  0  0
  -30.0183  -13.4159   20.4280 N   0  0  0  0  0  0
  -26.3008  -12.9355   20.3378 N   0  0  0  0  0  0
  -25.9337  -11.6511   20.5790 N   0  0  0  0  0  0
  -22.0493  -12.8215   22.0425 N   0  0  0  0  0  0
  -25.4275  -15.1902   20.4123 N   0  0  0  0  0  0
  -31.7463  -14.8575   20.0860 O   0  0  0  0  0  0
  -21.6631   -6.8880   21.4241 O   0  0  0  0  0  0
  -22.3528  -14.5527   20.6711 O   0  0  0  0  0  0
  -24.6242  -31.8597   23.2036 C   0  0  0  0  0  0
  -25.9104  -32.4768   23.8346 C   0  0  1  0  0  0
  -27.2232  -27.3148   20.1129 C   0  0  0  0  0  0
  -25.5930  -33.8572   24.2259 N   0  0  0  0  0  0
  -23.4179  -30.4820   21.5478 C   0  0  2  0  0  0
  -24.8642  -28.9390   20.1094 C   0  0  0  0  0  0
  -22.7465  -29.4596   22.4953 C   0  0  0  0  0  0
  -18.0271  -28.1356   22.8472 C   0  0  0  0  0  0
  -24.1495  -36.7280   23.2647 C   0  0  0  0  0  0
  -25.9600  -30.7851   21.3797 C   0  0  0  0  0  0
  -26.0325  -29.4141   20.7176 C   0  0  0  0  0  0
  -27.2130  -28.6124   20.7125 C   0  0  0  0  0  0
  -26.0331  -26.8989   19.4710 C   0  0  0  0  0  0
  -24.8672  -27.6870   19.4769 C   0  0  0  0  0  0
  -23.6323  -29.8193   20.1616 C   0  0  0  0  0  0
  -25.4122  -36.3072   24.0328 C   0  0  1  0  0  0
  -20.5870  -28.3657   23.1276 C   0  0  2  0  0  0
  -20.6763  -26.9386   22.5398 C   0  0  0  0  0  0
  -19.5748  -26.6367   21.5190 C   0  0  0  0  0  0
  -18.1924  -26.7899   22.1602 C   0  0  0  0  0  0
  -19.1527  -28.8827   23.2866 C   0  0  0  0  0  0
  -18.9464  -30.1429   23.8877 C   0  0  0  0  0  0
  -17.6472  -30.6579   24.0540 C   0  0  0  0  0  0
  -25.9060  -34.9446   23.5092 C   0  0  0  0  0  0
  -16.5355  -29.9074   23.6331 C   0  0  0  0  0  0
  -16.7261  -28.6486   23.0350 C   0  0  0  0  0  0
  -26.4503  -31.6595   25.0722 C   0  0  0  0  0  0
  -25.3734  -31.3743   26.1450 C   0  0  0  0  0  0
  -27.0349  -30.3015   24.6186 C   0  0  0  0  0  0
  -27.6041  -32.4356   25.7497 C   0  0  0  0  0  0
  -27.5576  -37.1797   24.8466 C   0  0  0  0  0  0
  -21.4180  -29.3021   22.3694 N   0  0  0  0  0  0
  -26.4290  -37.3772   23.9414 N   0  0  0  0  0  0
  -24.6855  -31.0594   22.0996 N   0  0  0  0  0  0
  -23.4187  -28.8129   23.3029 O   0  0  0  0  0  0
  -28.3443  -26.4689   20.1806 O   0  0  0  0  0  0
  -26.5638  -34.8914   22.4660 O   0  0  0  0  0  0
  -23.5405  -32.1414   23.7364 O   0  0  0  0  0  0
  -30.2032  -19.3797   19.8576 C   0  0  0  0  0  0
  -30.3738  -17.9521   19.8766 C   0  0  0  0  0  0
  -28.8365  -19.2372   21.8215 C   0  0  0  0  0  0
  -28.9668  -17.8181   21.8253 C   0  0  0  0  0  0
  -29.4310  -20.0726   20.8373 C   0  0  0  0  0  0
  -29.7569  -17.1297   20.8643 C   0  0  0  0  0  0
  -29.2481  -22.5046   19.9472 C   0  0  0  0  0  0
  -29.0099  -23.7240   21.9891 C   0  0  0  0  0  0
  -29.0617  -22.1975   22.2146 C   0  0  0  0  0  0
  -29.2553  -23.9879   20.4922 C   0  0  1  0  0  0
  -28.2182  -17.0305   22.8897 C   0  0  0  0  0  0
  -30.6657  -24.5662   20.2505 C   0  0  0  0  0  0
  -28.1962  -25.0205   19.8792 C   0  0  0  0  0  0
  -29.2736  -21.5439   20.9223 N   0  0  0  0  0  0
  -29.7600  -15.6621   20.9082 N   0  0  0  0  0  0
  -29.2523  -22.2687   18.7349 O   0  0  0  0  0  0
  -31.4828  -12.5505   19.1302 H   0  0  0  0  0  0
  -30.3976  -11.4073   19.8729 H   0  0  0  0  0  0
  -29.7638  -11.7684   17.4690 H   0  0  0  0  0  0
  -29.6407  -13.4882   17.7351 H   0  0  0  0  0  0
  -27.8607  -11.3017   18.8541 H   0  0  0  0  0  0
  -27.3708  -12.5987   17.7962 H   0  0  0  0  0  0
  -27.6772  -14.2554   19.5424 H   0  0  0  0  0  0
  -28.7291  -12.0170   21.3441 H   0  0  0  0  0  0
  -28.4545  -13.6508   21.8656 H   0  0  0  0  0  0
  -25.2770   -9.5659   22.4759 H   0  0  0  0  0  0
  -23.9996   -7.4621   22.7471 H   0  0  0  0  0  0
  -21.0844   -8.8793   19.8953 H   0  0  0  0  0  0
  -22.3721  -10.9679   19.6174 H   0  0  0  0  0  0
  -21.2008   -7.6150   23.9722 H   0  0  0  0  0  0
  -21.1477   -6.0519   25.9079 H   0  0  0  0  0  0
  -22.0601   -2.7611   23.2844 H   0  0  0  0  0  0
  -22.4103  -11.9870   22.4805 H   0  0  0  0  0  0
  -21.1121  -13.1253   22.2660 H   0  0  0  0  0  0
  -24.6594  -15.8435   20.5194 H   0  0  0  0  0  0
  -26.2733  -15.6310   20.0739 H   0  0  0  0  0  0
  -26.7152  -32.5423   23.1073 H   0  0  0  0  0  0
  -25.0080  -33.9713   25.0403 H   0  0  0  0  0  0
  -22.7099  -31.3017   21.4066 H   0  0  0  0  0  0
  -23.3761  -35.9609   23.3315 H   0  0  0  0  0  0
  -24.3583  -36.8896   22.2059 H   0  0  0  0  0  0
  -23.7238  -37.6475   23.6673 H   0  0  0  0  0  0
  -26.0989  -31.5513   20.6163 H   0  0  0  0  0  0
  -26.8365  -30.8254   22.0145 H   0  0  0  0  0  0
  -28.1076  -28.9697   21.2041 H   0  0  0  0  0  0
  -25.9713  -25.9489   18.9620 H   0  0  0  0  0  0
  -23.9738  -27.3203   18.9911 H   0  0  0  0  0  0
  -23.7484  -30.5987   19.4075 H   0  0  0  0  0  0
  -22.7514  -29.2505   19.8590 H   0  0  0  0  0  0
  -25.1302  -36.1919   25.0818 H   0  0  0  0  0  0
  -20.9936  -28.3225   24.1405 H   0  0  0  0  0  0
  -20.5651  -26.2267   23.3592 H   0  0  0  0  0  0
  -21.6638  -26.7411   22.1197 H   0  0  0  0  0  0
  -19.6929  -25.6278   21.1211 H   0  0  0  0  0  0
  -19.6692  -27.3175   20.6718 H   0  0  0  0  0  0
  -17.4190  -26.6614   21.4012 H   0  0  0  0  0  0
  -18.0345  -26.0032   22.8993 H   0  0  0  0  0  0
  -19.7955  -30.7223   24.2239 H   0  0  0  0  0  0
  -17.5048  -31.6257   24.5142 H   0  0  0  0  0  0
  -15.5361  -30.2979   23.7687 H   0  0  0  0  0  0
  -15.8645  -28.0811   22.7088 H   0  0  0  0  0  0
  -24.5889  -30.7111   25.7793 H   0  0  0  0  0  0
  -24.8957  -32.2921   26.4890 H   0  0  0  0  0  0
  -25.8055  -30.8908   27.0220 H   0  0  0  0  0  0
  -26.2919  -29.6765   24.1213 H   0  0  0  0  0  0
  -27.4054  -29.7266   25.4688 H   0  0  0  0  0  0
  -27.8792  -30.4305   23.9405 H   0  0  0  0  0  0
  -27.2614  -33.3649   26.2066 H   0  0  0  0  0  0
  -28.3850  -32.6948   25.0333 H   0  0  0  0  0  0
  -28.0719  -31.8503   26.5425 H   0  0  0  0  0  0
  -28.2590  -38.0102   24.7518 H   0  0  0  0  0  0
  -28.1068  -36.2624   24.6284 H   0  0  0  0  0  0
  -27.2288  -37.1429   25.8869 H   0  0  0  0  0  0
  -20.9360  -29.8768   21.6922 H   0  0  0  0  0  0
  -26.0164  -38.2836   24.1438 H   0  0  0  0  0  0
  -30.6949  -19.9464   19.0785 H   0  0  0  0  0  0
  -30.9637  -17.4923   19.0961 H   0  0  0  0  0  0
  -28.2351  -19.6852   22.5984 H   0  0  0  0  0  0
  -29.7418  -24.2316   22.6193 H   0  0  0  0  0  0
  -28.0336  -24.1012   22.2968 H   0  0  0  0  0  0
  -28.1217  -21.8668   22.6564 H   0  0  0  0  0  0
  -29.8643  -21.9294   22.9028 H   0  0  0  0  0  0
  -27.6615  -17.6886   23.5567 H   0  0  0  0  0  0
  -28.9091  -16.4450   23.4976 H   0  0  0  0  0  0
  -27.5026  -16.3499   22.4275 H   0  0  0  0  0  0
  -31.4536  -23.8763   20.5560 H   0  0  0  0  0  0
  -30.8104  -25.4942   20.8044 H   0  0  0  0  0  0
  -30.8175  -24.7925   19.1947 H   0  0  0  0  0  0
  -27.2131  -24.6763   20.2014 H   0  0  0  0  0  0
  -28.2036  -24.9243   18.7923 H   0  0  0  0  0  0
  -28.9196  -15.2790   21.3116 H   0  0  0  0  0  0
  1 25  1  0  0  0
  1 30  2  0  0  0
  1 85  1  0  0  0
  2  3  1  0  0  0
  2 25  1  0  0  0
  2 87  1  0  0  0
  2 88  1  0  0  0
  3  4  1  0  0  0
  3 89  1  0  0  0
  3 90  1  0  0  0
  4  5  1  0  0  0
  4 91  1  0  0  0
  4 92  1  0  0  0
  5  6  1  0  0  0
  5 26  1  0  0  0
  5 93  1  0  0  0
  6 25  1  0  0  0
  6 94  1  0  0  0
  6 95  1  0  0  0
  7  8  2  0  0  0
  7 26  1  0  0  0
  7 29  1  0  0  0
  8  9  1  0  0  0
  8 22  1  0  0  0
  9 10  1  0  0  0
  9 27  2  0  0  0
 10 11  2  0  0  0
 10 15  1  0  0  0
 11 12  1  0  0  0
 11 96  1  0  0  0
 12 13  2  0  0  0
 12 97  1  0  0  0
 13 14  1  0  0  0
 13 31  1  0  0  0
 14 15  2  0  0  0
 14 98  1  0  0  0
 15 99  1  0  0  0
 16 17  2  0  0  0
 16 21  1  0  0  0
 16 31  1  0  0  0
 17 18  1  0  0  0
 17100  1  0  0  0
 18 19  2  0  0  0
 18101  1  0  0  0
 19 20  1  0  0  0
 19 24  1  0  0  0
 20 21  2  0  0  0
 20102  1  0  0  0
 21 23  1  0  0  0
 22 28  1  0  0  0
 22 32  2  0  0  0
 26 27  1  0  0  0
 28103  1  0  0  0
 28104  1  0  0  0
 29105  1  0  0  0
 29106  1  0  0  0
 33 34  1  0  0  0
 33 66  1  0  0  0
 33 70  2  0  0  0
 34 36  1  0  0  0
 34 59  1  0  0  0
 34107  1  0  0  0
 35 44  2  0  0  0
 35 45  1  0  0  0
 35 68  1  0  0  0
 36 56  1  0  0  0
 36108  1  0  0  0
 37 39  1  0  0  0
 37 47  1  0  0  0
 37 66  1  0  0  0
 37109  1  0  0  0
 38 43  2  0  0  0
 38 46  1  0  0  0
 38 47  1  0  0  0
 39 64  1  0  0  0
 39 67  2  0  0  0
 40 52  1  0  0  0
 40 53  2  0  0  0
 40 58  1  0  0  0
 41110  1  0  0  0
 41111  1  0  0  0
 41112  1  0  0  0
 41 48  1  0  0  0
 42 43  1  0  0  0
 42 66  1  0  0  0
 42113  1  0  0  0
 42114  1  0  0  0
 43 44  1  0  0  0
 44115  1  0  0  0
 45 46  2  0  0  0
 45116  1  0  0  0
 46117  1  0  0  0
 47118  1  0  0  0
 47119  1  0  0  0
 48 56  1  0  0  0
 48 65  1  0  0  0
 48120  1  0  0  0
 49 50  1  0  0  0
 49 53  1  0  0  0
 49 64  1  0  0  0
 49121  1  0  0  0
 50 51  1  0  0  0
 50122  1  0  0  0
 50123  1  0  0  0
 51 52  1  0  0  0
 51124  1  0  0  0
 51125  1  0  0  0
 52126  1  0  0  0
 52127  1  0  0  0
 53 54  1  0  0  0
 54 55  2  0  0  0
 54128  1  0  0  0
 55 57  1  0  0  0
 55129  1  0  0  0
 56 69  2  0  0  0
 57 58  2  0  0  0
 57130  1  0  0  0
 58131  1  0  0  0
 59 60  1  0  0  0
 59 61  1  0  0  0
 59 62  1  0  0  0
 60132  1  0  0  0
 60133  1  0  0  0
 60134  1  0  0  0
 61135  1  0  0  0
 61136  1  0  0  0
 61137  1  0  0  0
 62138  1  0  0  0
 62139  1  0  0  0
 62140  1  0  0  0
 63 65  1  0  0  0
 63141  1  0  0  0
 63142  1  0  0  0
 63143  1  0  0  0
 64144  1  0  0  0
 65145  1  0  0  0
 68 83  1  0  0  0
 71 72  2  0  0  0
 71 75  1  0  0  0
 71146  1  0  0  0
 72 76  1  0  0  0
 72147  1  0  0  0
 73 74  1  0  0  0
 73 75  2  0  0  0
 73148  1  0  0  0
 74 76  2  0  0  0
 74 81  1  0  0  0
 75 84  1  0  0  0
 76 85  1  0  0  0
 77 80  1  0  0  0
 77 84  1  0  0  0
 77 86  2  0  0  0
 78 79  1  0  0  0
 78 80  1  0  0  0
 78149  1  0  0  0
 78150  1  0  0  0
 79 84  1  0  0  0
 79151  1  0  0  0
 79152  1  0  0  0
 80 82  1  0  0  0
 80 83  1  0  0  0
 81153  1  0  0  0
 81154  1  0  0  0
 81155  1  0  0  0
 82156  1  0  0  0
 82157  1  0  0  0
 82158  1  0  0  0
 83159  1  0  0  0
 83160  1  0  0  0
 85161  1  0  0  0
M  ISO  4   1 100  68 101  83 101  85 100
M  END
> <chiral flag>
0

> <version>
0

> <s_m_source_file>
/data/baiqing/PycharmProjects/Reinvent-master-3.2/result/LINK_invent/BTK/process_docking_weight1_custom_product_contain_oxygen_bond_distance_aromatic_linkinvent_7_9_3/rearranged_h_0072.sdf

> <i_m_source_file_index>
57

> <r_mmod_Potential_Energy-OPLS-2005>
166.010208129883

> <r_mmod_Stretch_Energy-OPLS-2005>
86.5413818359375

> <r_mmod_Bend_Energy-OPLS-2005>
171.40022277832

> <r_mmod_Torsional_Energy-OPLS-2005>
284.835174560547

> <r_mmod_Improper_Torsional_Energy-OPLS-2005>
3.78577971458435

> <r_mmod_Van_der_Waal_Energy-OPLS-2005>
142.416702270508

> <r_mmod_Electrostatic_Energy-OPLS-2005>
-360.701934814453

> <r_mmod_Solvation_Energy-OPLS-2005>
-215.606628417969

> <b_mmod_Minimization_Converged-OPLS-2005>
0

> <r_mmod_RMS_Derivative-OPLS-2005>
1.57692956924438

$$$$
57
                    3D
 Structure written by MMmdl.
156165  0  0  1  0            999 V2000
  -30.6320  -14.7147   20.4926 C   0  0  0  0  0  0
  -30.4364  -12.4392   19.4866 C   0  0  0  0  0  0
  -29.5185  -12.5239   18.2450 C   0  0  0  0  0  0
  -28.0399  -12.3491   18.6438 C   0  0  0  0  0  0
  -27.6495  -13.2271   19.8624 C   0  0  2  0  0  0
  -28.6887  -13.1035   20.9961 C   0  0  0  0  0  0
  -25.2531  -13.8194   20.5694 C   0  0  0  0  0  0
  -24.1814  -13.0439   20.9191 C   0  0  0  0  0  0
  -24.6401  -11.6916   20.8734 C   0  0  0  0  0  0
  -23.9074  -10.4297   21.0402 C   0  0  0  0  0  0
  -24.3619   -9.4209   21.9175 C   0  0  0  0  0  0
  -23.6291   -8.2251   22.0750 C   0  0  0  0  0  0
  -22.4268   -8.0287   21.3555 C   0  0  0  0  0  0
  -21.9909   -9.0256   20.4651 C   0  0  0  0  0  0
  -22.7245  -10.2132   20.3057 C   0  0  0  0  0  0
  -21.6854   -6.0740   22.5282 C   0  0  0  0  0  0
  -21.4015   -6.5642   23.8215 C   0  0  0  0  0  0
  -21.3659   -5.6795   24.9177 C   0  0  0  0  0  0
  -21.6040   -4.3057   24.7227 C   0  0  0  0  0  0
  -21.8817   -3.8151   23.4348 C   0  0  0  0  0  0
  -21.9195   -4.6968   22.3406 C   0  0  0  0  0  0
  -22.7834  -13.5218   21.1875 C   0  0  0  0  0  0
  -22.1667   -4.2154   21.0985 F   0  0  0  0  0  0
  -21.5626   -3.4546   25.7741 F   0  0  0  0  0  0
  -30.0017  -13.4827   20.4493 N   0  0  0  0  0  0
  -26.2966  -12.9394   20.3305 N   0  0  0  0  0  0
  -25.9330  -11.6537   20.5736 N   0  0  0  0  0  0
  -22.0483  -12.8200   22.0430 N   0  0  0  0  0  0
  -25.4215  -15.1919   20.4116 N   0  0  0  0  0  0
  -31.7778  -14.8311   20.0427 O   0  0  0  0  0  0
  -21.6638   -6.8883   21.4245 O   0  0  0  0  0  0
  -22.3509  -14.5528   20.6742 O   0  0  0  0  0  0
  -24.6308  -31.8557   23.2007 C   0  0  0  0  0  0
  -25.9141  -32.4755   23.8341 C   0  0  1  0  0  0
  -27.2154  -27.2678   20.1213 C   0  0  0  0  0  0
  -25.5938  -33.8560   24.2264 N   0  0  0  0  0  0
  -23.4263  -30.4814   21.5434 C   0  0  2  0  0  0
  -24.8728  -28.9342   20.1074 C   0  0  0  0  0  0
  -22.7496  -29.4609   22.4901 C   0  0  0  0  0  0
  -18.0295  -28.1388   22.8486 C   0  0  0  0  0  0
  -24.1493  -36.7286   23.2637 C   0  0  0  0  0  0
  -25.9732  -30.7692   21.3823 C   0  0  0  0  0  0
  -26.0437  -29.3935   20.7232 C   0  0  0  0  0  0
  -27.2156  -28.5709   20.7251 C   0  0  0  0  0  0
  -26.0265  -26.8922   19.4515 C   0  0  0  0  0  0
  -24.8689  -27.6908   19.4617 C   0  0  0  0  0  0
  -23.6438  -29.8200   20.1578 C   0  0  0  0  0  0
  -25.4115  -36.3068   24.0327 C   0  0  1  0  0  0
  -20.5897  -28.3700   23.1260 C   0  0  2  0  0  0
  -20.6778  -26.9416   22.5400 C   0  0  0  0  0  0
  -19.5755  -26.6383   21.5207 C   0  0  0  0  0  0
  -18.1937  -26.7930   22.1624 C   0  0  0  0  0  0
  -19.1545  -28.8860   23.2873 C   0  0  0  0  0  0
  -18.9469  -30.1459   23.8895 C   0  0  0  0  0  0
  -17.6467  -30.6588   24.0563 C   0  0  0  0  0  0
  -25.9055  -34.9436   23.5094 C   0  0  0  0  0  0
  -16.5358  -29.9085   23.6328 C   0  0  0  0  0  0
  -16.7281  -28.6500   23.0354 C   0  0  0  0  0  0
  -26.4509  -31.6579   25.0728 C   0  0  0  0  0  0
  -25.3730  -31.3738   26.1446 C   0  0  0  0  0  0
  -27.0354  -30.2988   24.6225 C   0  0  0  0  0  0
  -27.6052  -32.4323   25.7505 C   0  0  0  0  0  0
  -27.5582  -37.1797   24.8464 C   0  0  0  0  0  0
  -21.4201  -29.3052   22.3648 N   0  0  0  0  0  0
  -26.4291  -37.3765   23.9410 N   0  0  0  0  0  0
  -24.6957  -31.0535   22.0980 N   0  0  0  0  0  0
  -23.4198  -28.8142   23.2993 O   0  0  0  0  0  0
  -28.3024  -26.3634   20.2073 O   0  0  0  0  0  0
  -26.5626  -34.8910   22.4664 O   0  0  0  0  0  0
  -23.5460  -32.1377   23.7305 O   0  0  0  0  0  0
  -29.8416  -18.4197   17.9758 C   0  0  0  0  0  0
  -29.9400  -17.2725   18.7897 C   0  0  0  0  0  0
  -29.6663  -19.7021   18.5311 C   0  0  0  0  0  0
  -29.6965  -18.6953   20.7441 C   0  0  0  0  0  0
  -29.8704  -17.3499   20.2003 C   0  0  0  0  0  0
  -29.5877  -19.8937   19.9260 C   0  0  0  0  0  0
  -28.4812  -22.1983   20.2925 C   0  0  0  0  0  0
  -29.8758  -16.0251   21.0257 C   0  0  0  0  0  0
  -30.3884  -23.5694   20.3521 C   0  0  0  0  0  0
  -30.7360  -22.0757   20.6199 C   0  0  0  0  0  0
  -28.8851  -23.6919   20.6148 C   0  0  1  0  0  0
  -28.0795  -24.9039   19.9102 C   0  0  0  0  0  0
  -29.2923  -16.0284   22.1512 N   0  0  0  0  0  0
  -29.5153  -21.2973   20.3970 N   0  0  0  0  0  0
  -27.3187  -21.8920   20.0100 O   0  0  0  0  0  0
  -31.4800  -12.5529   19.1886 H   0  0  0  0  0  0
  -30.3743  -11.4500   19.9443 H   0  0  0  0  0  0
  -29.7998  -11.7659   17.5128 H   0  0  0  0  0  0
  -29.6554  -13.4893   17.7556 H   0  0  0  0  0  0
  -27.8855  -11.2964   18.8831 H   0  0  0  0  0  0
  -27.3899  -12.5661   17.7953 H   0  0  0  0  0  0
  -27.6611  -14.2606   19.5153 H   0  0  0  0  0  0
  -28.7216  -12.0786   21.3695 H   0  0  0  0  0  0
  -28.3989  -13.7035   21.8553 H   0  0  0  0  0  0
  -25.2767   -9.5687   22.4737 H   0  0  0  0  0  0
  -24.0007   -7.4639   22.7456 H   0  0  0  0  0  0
  -21.0851   -8.8777   19.8944 H   0  0  0  0  0  0
  -22.3709  -10.9666   19.6162 H   0  0  0  0  0  0
  -21.2005   -7.6146   23.9725 H   0  0  0  0  0  0
  -21.1482   -6.0525   25.9084 H   0  0  0  0  0  0
  -22.0593   -2.7612   23.2850 H   0  0  0  0  0  0
  -22.4121  -11.9867   22.4811 H   0  0  0  0  0  0
  -21.1097  -13.1220   22.2647 H   0  0  0  0  0  0
  -24.6547  -15.8463   20.5227 H   0  0  0  0  0  0
  -26.2829  -15.6346   20.1177 H   0  0  0  0  0  0
  -26.7205  -32.5405   23.1078 H   0  0  0  0  0  0
  -25.0077  -33.9699   25.0404 H   0  0  0  0  0  0
  -22.7229  -31.3042   21.3993 H   0  0  0  0  0  0
  -23.3751  -35.9622   23.3288 H   0  0  0  0  0  0
  -24.3581  -36.8920   22.2052 H   0  0  0  0  0  0
  -23.7251  -37.6486   23.6669 H   0  0  0  0  0  0
  -26.1141  -31.5301   20.6133 H   0  0  0  0  0  0
  -26.8504  -30.8152   22.0163 H   0  0  0  0  0  0
  -28.1071  -28.9129   21.2319 H   0  0  0  0  0  0
  -25.9524  -25.9573   18.9180 H   0  0  0  0  0  0
  -23.9765  -27.3385   18.9630 H   0  0  0  0  0  0
  -23.7693  -30.5981   19.4040 H   0  0  0  0  0  0
  -22.7623  -29.2540   19.8509 H   0  0  0  0  0  0
  -25.1297  -36.1910   25.0820 H   0  0  0  0  0  0
  -21.0001  -28.3286   24.1376 H   0  0  0  0  0  0
  -20.5669  -26.2317   23.3609 H   0  0  0  0  0  0
  -21.6648  -26.7432   22.1201 H   0  0  0  0  0  0
  -19.6913  -25.6290   21.1246 H   0  0  0  0  0  0
  -19.6691  -27.3185   20.6729 H   0  0  0  0  0  0
  -17.4201  -26.6675   21.4030 H   0  0  0  0  0  0
  -18.0345  -26.0074   22.9022 H   0  0  0  0  0  0
  -19.7940  -30.7278   24.2265 H   0  0  0  0  0  0
  -17.5018  -31.6268   24.5165 H   0  0  0  0  0  0
  -15.5357  -30.2987   23.7652 H   0  0  0  0  0  0
  -15.8681  -28.0818   22.7073 H   0  0  0  0  0  0
  -24.5901  -30.7095   25.7775 H   0  0  0  0  0  0
  -24.8932  -32.2914   26.4854 H   0  0  0  0  0  0
  -25.8039  -30.8920   27.0231 H   0  0  0  0  0  0
  -26.2943  -29.6731   24.1238 H   0  0  0  0  0  0
  -27.4011  -29.7255   25.4755 H   0  0  0  0  0  0
  -27.8835  -30.4246   23.9490 H   0  0  0  0  0  0
  -27.2648  -33.3621   26.2077 H   0  0  0  0  0  0
  -28.3871  -32.6890   25.0345 H   0  0  0  0  0  0
  -28.0719  -31.8457   26.5432 H   0  0  0  0  0  0
  -28.2587  -38.0104   24.7510 H   0  0  0  0  0  0
  -28.1092  -36.2631   24.6288 H   0  0  0  0  0  0
  -27.2302  -37.1443   25.8868 H   0  0  0  0  0  0
  -20.9379  -29.8789   21.6867 H   0  0  0  0  0  0
  -26.0167  -38.2840   24.1405 H   0  0  0  0  0  0
  -29.9024  -18.3124   16.9014 H   0  0  0  0  0  0
  -30.0516  -16.3151   18.3010 H   0  0  0  0  0  0
  -29.6139  -20.5552   17.8676 H   0  0  0  0  0  0
  -29.6487  -18.8111   21.8173 H   0  0  0  0  0  0
  -30.6017  -23.8211   19.3124 H   0  0  0  0  0  0
  -30.9739  -24.2435   20.9780 H   0  0  0  0  0  0
  -31.0499  -21.9344   21.6550 H   0  0  0  0  0  0
  -31.5517  -21.7366   19.9799 H   0  0  0  0  0  0
  -28.7407  -23.7991   21.6897 H   0  0  0  0  0  0
  -27.0488  -24.6704   20.1754 H   0  0  0  0  0  0
  -28.1419  -24.7796   18.8286 H   0  0  0  0  0  0
  -28.8732  -16.9309   22.3375 H   0  0  0  0  0  0
  1 25  1  0  0  0
  1 30  2  0  0  0
  1 78  1  0  0  0
  2  3  1  0  0  0
  2 25  1  0  0  0
  2 86  1  0  0  0
  2 87  1  0  0  0
  3  4  1  0  0  0
  3 88  1  0  0  0
  3 89  1  0  0  0
  4  5  1  0  0  0
  4 90  1  0  0  0
  4 91  1  0  0  0
  5  6  1  0  0  0
  5 26  1  0  0  0
  5 92  1  0  0  0
  6 25  1  0  0  0
  6 93  1  0  0  0
  6 94  1  0  0  0
  7  8  2  0  0  0
  7 26  1  0  0  0
  7 29  1  0  0  0
  8  9  1  0  0  0
  8 22  1  0  0  0
  9 10  1  0  0  0
  9 27  2  0  0  0
 10 11  2  0  0  0
 10 15  1  0  0  0
 11 12  1  0  0  0
 11 95  1  0  0  0
 12 13  2  0  0  0
 12 96  1  0  0  0
 13 14  1  0  0  0
 13 31  1  0  0  0
 14 15  2  0  0  0
 14 97  1  0  0  0
 15 98  1  0  0  0
 16 17  2  0  0  0
 16 21  1  0  0  0
 16 31  1  0  0  0
 17 18  1  0  0  0
 17 99  1  0  0  0
 18 19  2  0  0  0
 18100  1  0  0  0
 19 20  1  0  0  0
 19 24  1  0  0  0
 20 21  2  0  0  0
 20101  1  0  0  0
 21 23  1  0  0  0
 22 28  1  0  0  0
 22 32  2  0  0  0
 26 27  1  0  0  0
 28102  1  0  0  0
 28103  1  0  0  0
 29104  1  0  0  0
 29105  1  0  0  0
 33 34  1  0  0  0
 33 66  1  0  0  0
 33 70  2  0  0  0
 34 36  1  0  0  0
 34 59  1  0  0  0
 34106  1  0  0  0
 35 44  2  0  0  0
 35 45  1  0  0  0
 35 68  1  0  0  0
 36 56  1  0  0  0
 36107  1  0  0  0
 37 39  1  0  0  0
 37 47  1  0  0  0
 37 66  1  0  0  0
 37108  1  0  0  0
 38 43  2  0  0  0
 38 46  1  0  0  0
 38 47  1  0  0  0
 39 64  1  0  0  0
 39 67  2  0  0  0
 40 52  1  0  0  0
 40 53  2  0  0  0
 40 58  1  0  0  0
 41109  1  0  0  0
 41110  1  0  0  0
 41111  1  0  0  0
 41 48  1  0  0  0
 42 43  1  0  0  0
 42 66  1  0  0  0
 42112  1  0  0  0
 42113  1  0  0  0
 43 44  1  0  0  0
 44114  1  0  0  0
 45 46  2  0  0  0
 45115  1  0  0  0
 46116  1  0  0  0
 47117  1  0  0  0
 47118  1  0  0  0
 48 56  1  0  0  0
 48 65  1  0  0  0
 48119  1  0  0  0
 49 50  1  0  0  0
 49 53  1  0  0  0
 49 64  1  0  0  0
 49120  1  0  0  0
 50 51  1  0  0  0
 50121  1  0  0  0
 50122  1  0  0  0
 51 52  1  0  0  0
 51123  1  0  0  0
 51124  1  0  0  0
 52125  1  0  0  0
 52126  1  0  0  0
 53 54  1  0  0  0
 54 55  2  0  0  0
 54127  1  0  0  0
 55 57  1  0  0  0
 55128  1  0  0  0
 56 69  2  0  0  0
 57 58  2  0  0  0
 57129  1  0  0  0
 58130  1  0  0  0
 59 60  1  0  0  0
 59 61  1  0  0  0
 59 62  1  0  0  0
 60131  1  0  0  0
 60132  1  0  0  0
 60133  1  0  0  0
 61134  1  0  0  0
 61135  1  0  0  0
 61136  1  0  0  0
 62137  1  0  0  0
 62138  1  0  0  0
 62139  1  0  0  0
 63 65  1  0  0  0
 63140  1  0  0  0
 63141  1  0  0  0
 63142  1  0  0  0
 64143  1  0  0  0
 65144  1  0  0  0
 68 82  1  0  0  0
 71 72  2  0  0  0
 71 73  1  0  0  0
 71145  1  0  0  0
 72 75  1  0  0  0
 72146  1  0  0  0
 73 76  2  0  0  0
 73147  1  0  0  0
 74 75  2  0  0  0
 74 76  1  0  0  0
 74148  1  0  0  0
 75 78  1  0  0  0
 76 84  1  0  0  0
 77 81  1  0  0  0
 77 84  1  0  0  0
 77 85  2  0  0  0
 78 83  2  0  0  0
 79 80  1  0  0  0
 79 81  1  0  0  0
 79149  1  0  0  0
 79150  1  0  0  0
 80 84  1  0  0  0
 80151  1  0  0  0
 80152  1  0  0  0
 81 82  1  0  0  0
 81153  1  0  0  0
 82154  1  0  0  0
 82155  1  0  0  0
 83156  1  0  0  0
M  ISO  4   1 100  68 101  78 100  82 101
M  END
> <chiral flag>
0

> <version>
0

> <s_m_source_file>
/data/baiqing/PycharmProjects/Reinvent-master-3.2/result/LINK_invent/BTK/process_docking_weight1_custom_product_contain_oxygen_bond_distance_aromatic_linkinvent_7_9_3/rearranged_h_0072.sdf

> <i_m_source_file_index>
58

> <r_mmod_Potential_Energy-OPLS-2005>
414.973480224609

> <r_mmod_Stretch_Energy-OPLS-2005>
125.866584777832

> <r_mmod_Bend_Energy-OPLS-2005>
195.922058105469

> <r_mmod_Torsional_Energy-OPLS-2005>
281.569366455078

> <r_mmod_Improper_Torsional_Energy-OPLS-2005>
4.1551947593689

> <r_mmod_Van_der_Waal_Energy-OPLS-2005>
139.272476196289

> <r_mmod_Electrostatic_Energy-OPLS-2005>
-195.798370361328

> <r_mmod_Solvation_Energy-OPLS-2005>
-211.618423461914

> <b_mmod_Minimization_Converged-OPLS-2005>
0

> <r_mmod_RMS_Derivative-OPLS-2005>
1.23143041133881

$$$$
58
                    3D
 Structure written by MMmdl.
158167  0  0  1  0            999 V2000
  -30.6908  -14.5075   20.5121 C   0  0  0  0  0  0
  -30.4161  -12.3114   19.4465 C   0  0  0  0  0  0
  -29.5021  -12.5145   18.2185 C   0  0  0  0  0  0
  -28.0207  -12.3730   18.6220 C   0  0  0  0  0  0
  -27.6581  -13.2172   19.8736 C   0  0  2  0  0  0
  -28.6984  -13.0333   21.0037 C   0  0  0  0  0  0
  -25.2563  -13.8188   20.5673 C   0  0  0  0  0  0
  -24.1835  -13.0447   20.9180 C   0  0  0  0  0  0
  -24.6404  -11.6915   20.8723 C   0  0  0  0  0  0
  -23.9070  -10.4293   21.0386 C   0  0  0  0  0  0
  -24.3622   -9.4213   21.9161 C   0  0  0  0  0  0
  -23.6302   -8.2245   22.0735 C   0  0  0  0  0  0
  -22.4279   -8.0280   21.3534 C   0  0  0  0  0  0
  -21.9912   -9.0253   20.4636 C   0  0  0  0  0  0
  -22.7239  -10.2124   20.3033 C   0  0  0  0  0  0
  -21.6864   -6.0730   22.5278 C   0  0  0  0  0  0
  -21.4007   -6.5639   23.8206 C   0  0  0  0  0  0
  -21.3659   -5.6782   24.9175 C   0  0  0  0  0  0
  -21.6045   -4.3044   24.7226 C   0  0  0  0  0  0
  -21.8823   -3.8131   23.4345 C   0  0  0  0  0  0
  -21.9206   -4.6949   22.3404 C   0  0  0  0  0  0
  -22.7858  -13.5227   21.1857 C   0  0  0  0  0  0
  -22.1666   -4.2134   21.0979 F   0  0  0  0  0  0
  -21.5640   -3.4519   25.7735 F   0  0  0  0  0  0
  -30.0291  -13.3185   20.4489 N   0  0  0  0  0  0
  -26.3014  -12.9377   20.3346 N   0  0  0  0  0  0
  -25.9339  -11.6526   20.5755 N   0  0  0  0  0  0
  -22.0510  -12.8206   22.0413 N   0  0  0  0  0  0
  -25.4291  -15.1902   20.4065 N   0  0  0  0  0  0
  -31.8597  -14.6296   20.1358 O   0  0  0  0  0  0
  -21.6647   -6.8867   21.4234 O   0  0  0  0  0  0
  -22.3543  -14.5549   20.6732 O   0  0  0  0  0  0
  -24.6170  -31.8662   23.2091 C   0  0  0  0  0  0
  -25.9066  -32.4800   23.8399 C   0  0  1  0  0  0
  -27.2301  -27.4182   20.1183 C   0  0  0  0  0  0
  -25.5942  -33.8603   24.2346 N   0  0  0  0  0  0
  -23.4058  -30.4878   21.5489 C   0  0  2  0  0  0
  -24.8528  -28.9492   20.1147 C   0  0  0  0  0  0
  -22.7419  -29.4652   22.4993 C   0  0  0  0  0  0
  -18.0268  -28.1374   22.8477 C   0  0  0  0  0  0
  -24.1477  -36.7288   23.2626 C   0  0  0  0  0  0
  -25.9354  -30.8272   21.3630 C   0  0  0  0  0  0
  -26.0129  -29.4613   20.7107 C   0  0  0  0  0  0
  -27.2085  -28.7056   20.7043 C   0  0  0  0  0  0
  -26.0578  -26.9230   19.5110 C   0  0  0  0  0  0
  -24.8709  -27.6807   19.5079 C   0  0  0  0  0  0
  -23.6151  -29.8170   20.1639 C   0  0  0  0  0  0
  -25.4083  -36.3091   24.0358 C   0  0  1  0  0  0
  -20.5857  -28.3664   23.1313 C   0  0  2  0  0  0
  -20.6744  -26.9394   22.5433 C   0  0  0  0  0  0
  -19.5748  -26.6375   21.5212 C   0  0  0  0  0  0
  -18.1914  -26.7932   22.1594 C   0  0  0  0  0  0
  -19.1511  -28.8835   23.2884 C   0  0  0  0  0  0
  -18.9445  -30.1440   23.8879 C   0  0  0  0  0  0
  -17.6455  -30.6576   24.0555 C   0  0  0  0  0  0
  -25.9049  -34.9469   23.5143 C   0  0  0  0  0  0
  -16.5342  -29.9074   23.6340 C   0  0  0  0  0  0
  -16.7253  -28.6500   23.0340 C   0  0  0  0  0  0
  -26.4494  -31.6564   25.0726 C   0  0  0  0  0  0
  -25.3776  -31.3701   26.1498 C   0  0  0  0  0  0
  -27.0276  -30.2981   24.6099 C   0  0  0  0  0  0
  -27.6106  -32.4258   25.7460 C   0  0  0  0  0  0
  -27.5628  -37.1709   24.8405 C   0  0  0  0  0  0
  -21.4153  -29.3020   22.3710 N   0  0  0  0  0  0
  -26.4219  -37.3830   23.9528 N   0  0  0  0  0  0
  -24.6708  -31.0759   22.0981 N   0  0  0  0  0  0
  -23.4184  -28.8212   23.3058 O   0  0  0  0  0  0
  -28.3680  -26.6391   20.1536 O   0  0  0  0  0  0
  -26.5601  -34.8936   22.4696 O   0  0  0  0  0  0
  -23.5362  -32.1422   23.7487 O   0  0  0  0  0  0
  -30.5782  -18.2052   18.1637 C   0  0  0  0  0  0
  -30.0997  -19.3658   18.7894 C   0  0  0  0  0  0
  -30.5335  -16.9742   18.8358 C   0  0  0  0  0  0
  -29.5544  -19.3214   20.0947 C   0  0  0  0  0  0
  -30.0250  -16.8783   20.1549 C   0  0  0  0  0  0
  -29.5283  -18.0640   20.7760 C   0  0  0  0  0  0
  -28.4207  -21.5471   20.0403 C   0  0  0  0  0  0
  -29.1433  -22.4681   22.1097 C   0  0  0  0  0  0
  -29.3385  -20.9367   22.0663 C   0  0  0  0  0  0
  -28.2453  -22.8000   20.9087 C   0  0  1  0  0  0
  -28.5458  -24.1387   20.1545 C   0  0  0  0  0  0
  -28.2475  -25.4363   20.9461 C   0  0  0  0  0  0
  -29.0798  -20.5532   20.6828 N   0  0  0  0  0  0
  -29.9472  -15.5977   20.8155 N   0  0  0  0  0  0
  -27.9650  -21.4903   18.8938 O   0  0  0  0  0  0
  -29.0115  -17.9786   22.0257 F   0  0  0  0  0  0
  -31.4664  -12.3858   19.1579 H   0  0  0  0  0  0
  -30.2906  -11.3061   19.8544 H   0  0  0  0  0  0
  -29.7488  -11.7949   17.4371 H   0  0  0  0  0  0
  -29.6728  -13.5038   17.7881 H   0  0  0  0  0  0
  -27.8308  -11.3176   18.8183 H   0  0  0  0  0  0
  -27.3765  -12.6446   17.7859 H   0  0  0  0  0  0
  -27.6908  -14.2607   19.5608 H   0  0  0  0  0  0
  -28.6712  -12.0129   21.3892 H   0  0  0  0  0  0
  -28.4680  -13.6793   21.8528 H   0  0  0  0  0  0
  -25.2771   -9.5700   22.4720 H   0  0  0  0  0  0
  -24.0025   -7.4634   22.7455 H   0  0  0  0  0  0
  -21.0832   -8.8772   19.8943 H   0  0  0  0  0  0
  -22.3704  -10.9654   19.6127 H   0  0  0  0  0  0
  -21.1967   -7.6137   23.9710 H   0  0  0  0  0  0
  -21.1481   -6.0504   25.9079 H   0  0  0  0  0  0
  -22.0593   -2.7590   23.2849 H   0  0  0  0  0  0
  -22.4126  -11.9857   22.4784 H   0  0  0  0  0  0
  -21.1135  -13.1233   22.2635 H   0  0  0  0  0  0
  -24.6611  -15.8454   20.4946 H   0  0  0  0  0  0
  -26.2873  -15.6232   20.0905 H   0  0  0  0  0  0
  -26.7138  -32.5505   23.1163 H   0  0  0  0  0  0
  -25.0142  -33.9746   25.0528 H   0  0  0  0  0  0
  -22.6966  -31.3057   21.4079 H   0  0  0  0  0  0
  -23.3821  -35.9524   23.3079 H   0  0  0  0  0  0
  -24.3646  -36.9101   22.2088 H   0  0  0  0  0  0
  -23.7088  -37.6372   23.6762 H   0  0  0  0  0  0
  -26.0521  -31.5914   20.5935 H   0  0  0  0  0  0
  -26.8216  -30.8777   21.9837 H   0  0  0  0  0  0
  -28.1032  -29.0925   21.1716 H   0  0  0  0  0  0
  -26.0615  -25.9443   19.0506 H   0  0  0  0  0  0
  -23.9803  -27.2792   19.0450 H   0  0  0  0  0  0
  -23.7258  -30.5897   19.4022 H   0  0  0  0  0  0
  -22.7388  -29.2371   19.8682 H   0  0  0  0  0  0
  -25.1212  -36.1905   25.0835 H   0  0  0  0  0  0
  -20.9937  -28.3210   24.1444 H   0  0  0  0  0  0
  -20.5622  -26.2279   23.3624 H   0  0  0  0  0  0
  -21.6614  -26.7415   22.1248 H   0  0  0  0  0  0
  -19.6905  -25.6289   21.1231 H   0  0  0  0  0  0
  -19.6713  -27.3173   20.6742 H   0  0  0  0  0  0
  -17.4218  -26.6731   21.3951 H   0  0  0  0  0  0
  -18.0257  -26.0047   22.8945 H   0  0  0  0  0  0
  -19.7926  -30.7247   24.2244 H   0  0  0  0  0  0
  -17.5023  -31.6256   24.5165 H   0  0  0  0  0  0
  -15.5343  -30.2965   23.7706 H   0  0  0  0  0  0
  -15.8653  -28.0833   22.7050 H   0  0  0  0  0  0
  -24.5975  -30.6981   25.7897 H   0  0  0  0  0  0
  -24.8926  -32.2846   26.4914 H   0  0  0  0  0  0
  -25.8170  -30.8949   27.0271 H   0  0  0  0  0  0
  -26.2768  -29.6747   24.1220 H   0  0  0  0  0  0
  -27.4066  -29.7229   25.4553 H   0  0  0  0  0  0
  -27.8622  -30.4239   23.9199 H   0  0  0  0  0  0
  -27.2777  -33.3578   26.2035 H   0  0  0  0  0  0
  -28.3917  -32.6755   25.0271 H   0  0  0  0  0  0
  -28.0760  -31.8359   26.5359 H   0  0  0  0  0  0
  -28.2379  -38.0259   24.7869 H   0  0  0  0  0  0
  -28.1371  -36.2853   24.5648 H   0  0  0  0  0  0
  -27.2471  -37.0623   25.8793 H   0  0  0  0  0  0
  -20.9335  -29.8728   21.6910 H   0  0  0  0  0  0
  -26.0084  -38.2834   24.1793 H   0  0  0  0  0  0
  -30.9781  -18.2580   17.1605 H   0  0  0  0  0  0
  -30.1642  -20.3001   18.2492 H   0  0  0  0  0  0
  -30.8945  -16.1046   18.3060 H   0  0  0  0  0  0
  -30.1062  -22.9692   22.0118 H   0  0  0  0  0  0
  -28.7023  -22.7914   23.0538 H   0  0  0  0  0  0
  -28.6189  -20.4372   22.7163 H   0  0  0  0  0  0
  -30.3413  -20.6488   22.3857 H   0  0  0  0  0  0
  -27.2041  -22.8028   21.2349 H   0  0  0  0  0  0
  -27.9394  -24.1613   19.2480 H   0  0  0  0  0  0
  -29.5840  -24.1490   19.8172 H   0  0  0  0  0  0
  -28.9531  -25.5169   21.7736 H   0  0  0  0  0  0
  -27.2615  -25.3571   21.4088 H   0  0  0  0  0  0
  -29.1198  -15.4401   21.3698 H   0  0  0  0  0  0
  1 25  1  0  0  0
  1 30  2  0  0  0
  1 84  1  0  0  0
  2  3  1  0  0  0
  2 25  1  0  0  0
  2 87  1  0  0  0
  2 88  1  0  0  0
  3  4  1  0  0  0
  3 89  1  0  0  0
  3 90  1  0  0  0
  4  5  1  0  0  0
  4 91  1  0  0  0
  4 92  1  0  0  0
  5  6  1  0  0  0
  5 26  1  0  0  0
  5 93  1  0  0  0
  6 25  1  0  0  0
  6 94  1  0  0  0
  6 95  1  0  0  0
  7  8  2  0  0  0
  7 26  1  0  0  0
  7 29  1  0  0  0
  8  9  1  0  0  0
  8 22  1  0  0  0
  9 10  1  0  0  0
  9 27  2  0  0  0
 10 11  2  0  0  0
 10 15  1  0  0  0
 11 12  1  0  0  0
 11 96  1  0  0  0
 12 13  2  0  0  0
 12 97  1  0  0  0
 13 14  1  0  0  0
 13 31  1  0  0  0
 14 15  2  0  0  0
 14 98  1  0  0  0
 15 99  1  0  0  0
 16 17  2  0  0  0
 16 21  1  0  0  0
 16 31  1  0  0  0
 17 18  1  0  0  0
 17100  1  0  0  0
 18 19  2  0  0  0
 18101  1  0  0  0
 19 20  1  0  0  0
 19 24  1  0  0  0
 20 21  2  0  0  0
 20102  1  0  0  0
 21 23  1  0  0  0
 22 28  1  0  0  0
 22 32  2  0  0  0
 26 27  1  0  0  0
 28103  1  0  0  0
 28104  1  0  0  0
 29105  1  0  0  0
 29106  1  0  0  0
 33 34  1  0  0  0
 33 66  1  0  0  0
 33 70  2  0  0  0
 34 36  1  0  0  0
 34 59  1  0  0  0
 34107  1  0  0  0
 35 44  2  0  0  0
 35 45  1  0  0  0
 35 68  1  0  0  0
 36 56  1  0  0  0
 36108  1  0  0  0
 37 39  1  0  0  0
 37 47  1  0  0  0
 37 66  1  0  0  0
 37109  1  0  0  0
 38 43  2  0  0  0
 38 46  1  0  0  0
 38 47  1  0  0  0
 39 64  1  0  0  0
 39 67  2  0  0  0
 40 52  1  0  0  0
 40 53  2  0  0  0
 40 58  1  0  0  0
 41110  1  0  0  0
 41111  1  0  0  0
 41112  1  0  0  0
 41 48  1  0  0  0
 42 43  1  0  0  0
 42 66  1  0  0  0
 42113  1  0  0  0
 42114  1  0  0  0
 43 44  1  0  0  0
 44115  1  0  0  0
 45 46  2  0  0  0
 45116  1  0  0  0
 46117  1  0  0  0
 47118  1  0  0  0
 47119  1  0  0  0
 48 56  1  0  0  0
 48 65  1  0  0  0
 48120  1  0  0  0
 49 50  1  0  0  0
 49 53  1  0  0  0
 49 64  1  0  0  0
 49121  1  0  0  0
 50 51  1  0  0  0
 50122  1  0  0  0
 50123  1  0  0  0
 51 52  1  0  0  0
 51124  1  0  0  0
 51125  1  0  0  0
 52126  1  0  0  0
 52127  1  0  0  0
 53 54  1  0  0  0
 54 55  2  0  0  0
 54128  1  0  0  0
 55 57  1  0  0  0
 55129  1  0  0  0
 56 69  2  0  0  0
 57 58  2  0  0  0
 57130  1  0  0  0
 58131  1  0  0  0
 59 60  1  0  0  0
 59 61  1  0  0  0
 59 62  1  0  0  0
 60132  1  0  0  0
 60133  1  0  0  0
 60134  1  0  0  0
 61135  1  0  0  0
 61136  1  0  0  0
 61137  1  0  0  0
 62138  1  0  0  0
 62139  1  0  0  0
 62140  1  0  0  0
 63 65  1  0  0  0
 63141  1  0  0  0
 63142  1  0  0  0
 63143  1  0  0  0
 64144  1  0  0  0
 65145  1  0  0  0
 68 82  1  0  0  0
 71 72  2  0  0  0
 71 73  1  0  0  0
 71146  1  0  0  0
 72 74  1  0  0  0
 72147  1  0  0  0
 73 75  2  0  0  0
 73148  1  0  0  0
 74 76  2  0  0  0
 74 83  1  0  0  0
 75 76  1  0  0  0
 75 84  1  0  0  0
 76 86  1  0  0  0
 77 80  1  0  0  0
 77 83  1  0  0  0
 77 85  2  0  0  0
 78 79  1  0  0  0
 78 80  1  0  0  0
 78149  1  0  0  0
 78150  1  0  0  0
 79 83  1  0  0  0
 79151  1  0  0  0
 79152  1  0  0  0
 80 81  1  0  0  0
 80153  1  0  0  0
 81 82  1  0  0  0
 81154  1  0  0  0
 81155  1  0  0  0
 82156  1  0  0  0
 82157  1  0  0  0
 84158  1  0  0  0
M  ISO  4   1 100  68 101  82 101  84 100
M  END
> <chiral flag>
0

> <version>
0

> <s_m_source_file>
/data/baiqing/PycharmProjects/Reinvent-master-3.2/result/LINK_invent/BTK/process_docking_weight1_custom_product_contain_oxygen_bond_distance_aromatic_linkinvent_7_9_3/rearranged_h_0072.sdf

> <i_m_source_file_index>
59

> <r_mmod_Potential_Energy-OPLS-2005>
50.1019821166992

> <r_mmod_Stretch_Energy-OPLS-2005>
45.4913902282715

> <r_mmod_Bend_Energy-OPLS-2005>
118.592506408691

> <r_mmod_Torsional_Energy-OPLS-2005>
317.145843505859

> <r_mmod_Improper_Torsional_Energy-OPLS-2005>
5.60504341125488

> <r_mmod_Van_der_Waal_Energy-OPLS-2005>
149.56559753418

> <r_mmod_Electrostatic_Energy-OPLS-2005>
-396.492706298828

> <r_mmod_Solvation_Energy-OPLS-2005>
-210.064788818359

> <b_mmod_Minimization_Converged-OPLS-2005>
0

> <r_mmod_RMS_Derivative-OPLS-2005>
2.59346914291382

$$$$
59
                    3D
 Structure written by MMmdl.
166175  0  0  1  0            999 V2000
  -30.6159  -14.6452   20.5124 C   0  0  0  0  0  0
  -30.4412  -12.3971   19.4589 C   0  0  0  0  0  0
  -29.5104  -12.5134   18.2301 C   0  0  0  0  0  0
  -28.0331  -12.3493   18.6405 C   0  0  0  0  0  0
  -27.6559  -13.2170   19.8708 C   0  0  2  0  0  0
  -28.6989  -13.0634   21.0014 C   0  0  0  0  0  0
  -25.2564  -13.8169   20.5697 C   0  0  0  0  0  0
  -24.1825  -13.0436   20.9187 C   0  0  0  0  0  0
  -24.6394  -11.6908   20.8733 C   0  0  0  0  0  0
  -23.9061  -10.4293   21.0400 C   0  0  0  0  0  0
  -24.3615   -9.4213   21.9180 C   0  0  0  0  0  0
  -23.6293   -8.2246   22.0753 C   0  0  0  0  0  0
  -22.4273   -8.0281   21.3544 C   0  0  0  0  0  0
  -21.9908   -9.0253   20.4644 C   0  0  0  0  0  0
  -22.7236  -10.2134   20.3051 C   0  0  0  0  0  0
  -21.6853   -6.0736   22.5276 C   0  0  0  0  0  0
  -21.4013   -6.5642   23.8211 C   0  0  0  0  0  0
  -21.3660   -5.6793   24.9174 C   0  0  0  0  0  0
  -21.6042   -4.3056   24.7219 C   0  0  0  0  0  0
  -21.8818   -3.8147   23.4343 C   0  0  0  0  0  0
  -21.9194   -4.6964   22.3401 C   0  0  0  0  0  0
  -22.7850  -13.5231   21.1856 C   0  0  0  0  0  0
  -22.1660   -4.2151   21.0977 F   0  0  0  0  0  0
  -21.5634   -3.4536   25.7734 F   0  0  0  0  0  0
  -30.0177  -13.4118   20.4460 N   0  0  0  0  0  0
  -26.3002  -12.9353   20.3354 N   0  0  0  0  0  0
  -25.9327  -11.6505   20.5771 N   0  0  0  0  0  0
  -22.0487  -12.8218   22.0412 N   0  0  0  0  0  0
  -25.4284  -15.1885   20.4126 N   0  0  0  0  0  0
  -31.7545  -14.8294   20.0717 O   0  0  0  0  0  0
  -21.6641   -6.8877   21.4240 O   0  0  0  0  0  0
  -22.3530  -14.5534   20.6709 O   0  0  0  0  0  0
  -24.6246  -31.8595   23.2010 C   0  0  0  0  0  0
  -25.9092  -32.4785   23.8345 C   0  0  1  0  0  0
  -27.2332  -27.3325   20.1253 C   0  0  0  0  0  0
  -25.5916  -33.8584   24.2281 N   0  0  0  0  0  0
  -23.4193  -30.4807   21.5424 C   0  0  2  0  0  0
  -24.8687  -28.9302   20.1151 C   0  0  0  0  0  0
  -22.7471  -29.4619   22.4933 C   0  0  0  0  0  0
  -18.0286  -28.1385   22.8491 C   0  0  0  0  0  0
  -24.1486  -36.7288   23.2644 C   0  0  0  0  0  0
  -25.9573  -30.7965   21.3672 C   0  0  0  0  0  0
  -26.0361  -29.4219   20.7146 C   0  0  0  0  0  0
  -27.2242  -28.6360   20.7054 C   0  0  0  0  0  0
  -26.0463  -26.8820   19.5103 C   0  0  0  0  0  0
  -24.8743  -27.6648   19.5039 C   0  0  0  0  0  0
  -23.6347  -29.8085   20.1600 C   0  0  0  0  0  0
  -25.4112  -36.3092   24.0341 C   0  0  1  0  0  0
  -20.5887  -28.3686   23.1289 C   0  0  2  0  0  0
  -20.6770  -26.9409   22.5416 C   0  0  0  0  0  0
  -19.5752  -26.6381   21.5214 C   0  0  0  0  0  0
  -18.1930  -26.7935   22.1620 C   0  0  0  0  0  0
  -19.1539  -28.8849   23.2889 C   0  0  0  0  0  0
  -18.9464  -30.1453   23.8903 C   0  0  0  0  0  0
  -17.6467  -30.6591   24.0563 C   0  0  0  0  0  0
  -25.9046  -34.9460   23.5111 C   0  0  0  0  0  0
  -16.5355  -29.9095   23.6329 C   0  0  0  0  0  0
  -16.7273  -28.6510   23.0353 C   0  0  0  0  0  0
  -26.4482  -31.6596   25.0710 C   0  0  0  0  0  0
  -25.3732  -31.3732   26.1450 C   0  0  0  0  0  0
  -27.0326  -30.3031   24.6139 C   0  0  0  0  0  0
  -27.6049  -32.4327   25.7478 C   0  0  0  0  0  0
  -27.5581  -37.1802   24.8466 C   0  0  0  0  0  0
  -21.4182  -29.3040   22.3680 N   0  0  0  0  0  0
  -26.4289  -37.3786   23.9417 N   0  0  0  0  0  0
  -24.6857  -31.0624   22.0945 N   0  0  0  0  0  0
  -23.4202  -28.8160   23.3008 O   0  0  0  0  0  0
  -28.3550  -26.4978   20.1253 O   0  0  0  0  0  0
  -26.5609  -34.8930   22.4675 O   0  0  0  0  0  0
  -23.5410  -32.1369   23.7358 O   0  0  0  0  0  0
  -30.4214  -19.2457   19.6609 C   0  0  0  0  0  0
  -30.5529  -17.8297   19.8044 C   0  0  0  0  0  0
  -29.5772  -20.0507   20.4856 C   0  0  0  0  0  0
  -29.8404  -17.1169   20.8019 C   0  0  0  0  0  0
  -28.8687  -19.3230   21.4932 C   0  0  0  0  0  0
  -29.0063  -17.9010   21.6406 C   0  0  0  0  0  0
  -26.7788  -19.8559   22.6666 C   0  0  0  0  0  0
  -30.1757  -23.7217   19.6793 C   0  0  0  0  0  0
  -30.4102  -22.2150   19.4129 C   0  0  0  0  0  0
  -28.4769  -22.4656   20.7689 C   0  0  0  0  0  0
  -28.6837  -23.8385   20.0138 C   0  0  1  0  0  0
  -24.9458  -20.0832   24.4431 C   0  0  0  0  0  0
  -26.1670  -20.7273   23.7666 C   0  0  0  0  0  0
  -28.2164  -25.1704   20.7601 C   0  0  0  0  0  0
  -29.4899  -21.4880   20.2856 N   0  0  0  0  0  0
  -28.0853  -20.0313   22.4368 N   0  0  0  0  0  0
  -29.8414  -15.6638   20.9957 N   0  0  0  0  0  0
  -26.0766  -19.0689   22.0268 O   0  0  0  0  0  0
  -28.3458  -17.2603   22.6386 F   0  0  0  0  0  0
  -31.4824  -12.5249   19.1580 H   0  0  0  0  0  0
  -30.3794  -11.3986   19.8950 H   0  0  0  0  0  0
  -29.7771  -11.7633   17.4844 H   0  0  0  0  0  0
  -29.6512  -13.4834   17.7507 H   0  0  0  0  0  0
  -27.8709  -11.2953   18.8692 H   0  0  0  0  0  0
  -27.3781  -12.5802   17.7998 H   0  0  0  0  0  0
  -27.6774  -14.2546   19.5370 H   0  0  0  0  0  0
  -28.7102  -12.0382   21.3746 H   0  0  0  0  0  0
  -28.4368  -13.6841   21.8595 H   0  0  0  0  0  0
  -25.2758   -9.5695   22.4757 H   0  0  0  0  0  0
  -24.0003   -7.4637   22.7471 H   0  0  0  0  0  0
  -21.0842   -8.8766   19.8948 H   0  0  0  0  0  0
  -22.3690  -10.9671   19.6159 H   0  0  0  0  0  0
  -21.1999   -7.6149   23.9716 H   0  0  0  0  0  0
  -21.1485   -6.0521   25.9077 H   0  0  0  0  0  0
  -22.0595   -2.7608   23.2838 H   0  0  0  0  0  0
  -22.4100  -11.9871   22.4785 H   0  0  0  0  0  0
  -21.1107  -13.1249   22.2617 H   0  0  0  0  0  0
  -24.6729  -15.8496   20.5546 H   0  0  0  0  0  0
  -26.2922  -15.6339   20.1307 H   0  0  0  0  0  0
  -26.7162  -32.5458   23.1096 H   0  0  0  0  0  0
  -25.0095  -33.9727   25.0448 H   0  0  0  0  0  0
  -22.7131  -31.3003   21.3952 H   0  0  0  0  0  0
  -23.3760  -35.9607   23.3301 H   0  0  0  0  0  0
  -24.3580  -36.8905   22.2058 H   0  0  0  0  0  0
  -23.7218  -37.6485   23.6654 H   0  0  0  0  0  0
  -26.0820  -31.5585   20.5967 H   0  0  0  0  0  0
  -26.8401  -30.8510   21.9923 H   0  0  0  0  0  0
  -28.1246  -29.0132   21.1708 H   0  0  0  0  0  0
  -26.0243  -25.9086   19.0403 H   0  0  0  0  0  0
  -23.9798  -27.2816   19.0329 H   0  0  0  0  0  0
  -23.7531  -30.5808   19.3991 H   0  0  0  0  0  0
  -22.7563  -29.2343   19.8601 H   0  0  0  0  0  0
  -25.1295  -36.1942   25.0833 H   0  0  0  0  0  0
  -20.9985  -28.3251   24.1408 H   0  0  0  0  0  0
  -20.5659  -26.2294   23.3614 H   0  0  0  0  0  0
  -21.6636  -26.7436   22.1207 H   0  0  0  0  0  0
  -19.6913  -25.6293   21.1237 H   0  0  0  0  0  0
  -19.6702  -27.3191   20.6747 H   0  0  0  0  0  0
  -17.4208  -26.6700   21.4012 H   0  0  0  0  0  0
  -18.0322  -26.0072   22.9006 H   0  0  0  0  0  0
  -19.7942  -30.7264   24.2273 H   0  0  0  0  0  0
  -17.5027  -31.6275   24.5162 H   0  0  0  0  0  0
  -15.5358  -30.3001   23.7661 H   0  0  0  0  0  0
  -15.8669  -28.0832   22.7067 H   0  0  0  0  0  0
  -24.5916  -30.7063   25.7785 H   0  0  0  0  0  0
  -24.8912  -32.2900   26.4860 H   0  0  0  0  0  0
  -25.8078  -30.8931   27.0228 H   0  0  0  0  0  0
  -26.2889  -29.6780   24.1183 H   0  0  0  0  0  0
  -27.4066  -29.7283   25.4615 H   0  0  0  0  0  0
  -27.8733  -30.4331   23.9324 H   0  0  0  0  0  0
  -27.2669  -33.3642   26.2024 H   0  0  0  0  0  0
  -28.3880  -32.6857   25.0320 H   0  0  0  0  0  0
  -28.0685  -31.8464   26.5418 H   0  0  0  0  0  0
  -28.2601  -38.0097   24.7524 H   0  0  0  0  0  0
  -28.1080  -36.2636   24.6283 H   0  0  0  0  0  0
  -27.2306  -37.1428   25.8870 H   0  0  0  0  0  0
  -20.9351  -29.8780   21.6911 H   0  0  0  0  0  0
  -26.0177  -38.2862   24.1426 H   0  0  0  0  0  0
  -30.9929  -19.7101   18.8708 H   0  0  0  0  0  0
  -31.1993  -17.2975   19.1213 H   0  0  0  0  0  0
  -30.4635  -24.3437   18.8306 H   0  0  0  0  0  0
  -30.7726  -24.0413   20.5347 H   0  0  0  0  0  0
  -31.4505  -21.9417   19.5962 H   0  0  0  0  0  0
  -30.1803  -21.9749   18.3729 H   0  0  0  0  0  0
  -27.4626  -22.0921   20.6212 H   0  0  0  0  0  0
  -28.6217  -22.6198   21.8390 H   0  0  0  0  0  0
  -28.1308  -23.7783   19.0753 H   0  0  0  0  0  0
  -24.6123  -20.6820   25.2910 H   0  0  0  0  0  0
  -25.1793  -19.0847   24.8157 H   0  0  0  0  0  0
  -24.1085  -19.9961   23.7495 H   0  0  0  0  0  0
  -25.8922  -21.6916   23.3379 H   0  0  0  0  0  0
  -26.9267  -20.9275   24.5236 H   0  0  0  0  0  0
  -28.7721  -25.2323   21.6959 H   0  0  0  0  0  0
  -27.1818  -25.0221   21.0727 H   0  0  0  0  0  0
  -28.5441  -20.7965   22.9082 H   0  0  0  0  0  0
  -29.0361  -15.3362   21.5084 H   0  0  0  0  0  0
  1 25  1  0  0  0
  1 30  2  0  0  0
  1 87  1  0  0  0
  2  3  1  0  0  0
  2 25  1  0  0  0
  2 90  1  0  0  0
  2 91  1  0  0  0
  3  4  1  0  0  0
  3 92  1  0  0  0
  3 93  1  0  0  0
  4  5  1  0  0  0
  4 94  1  0  0  0
  4 95  1  0  0  0
  5  6  1  0  0  0
  5 26  1  0  0  0
  5 96  1  0  0  0
  6 25  1  0  0  0
  6 97  1  0  0  0
  6 98  1  0  0  0
  7  8  2  0  0  0
  7 26  1  0  0  0
  7 29  1  0  0  0
  8  9  1  0  0  0
  8 22  1  0  0  0
  9 10  1  0  0  0
  9 27  2  0  0  0
 10 11  2  0  0  0
 10 15  1  0  0  0
 11 12  1  0  0  0
 11 99  1  0  0  0
 12 13  2  0  0  0
 12100  1  0  0  0
 13 14  1  0  0  0
 13 31  1  0  0  0
 14 15  2  0  0  0
 14101  1  0  0  0
 15102  1  0  0  0
 16 17  2  0  0  0
 16 21  1  0  0  0
 16 31  1  0  0  0
 17 18  1  0  0  0
 17103  1  0  0  0
 18 19  2  0  0  0
 18104  1  0  0  0
 19 20  1  0  0  0
 19 24  1  0  0  0
 20 21  2  0  0  0
 20105  1  0  0  0
 21 23  1  0  0  0
 22 28  1  0  0  0
 22 32  2  0  0  0
 26 27  1  0  0  0
 28106  1  0  0  0
 28107  1  0  0  0
 29108  1  0  0  0
 29109  1  0  0  0
 33 34  1  0  0  0
 33 66  1  0  0  0
 33 70  2  0  0  0
 34 36  1  0  0  0
 34 59  1  0  0  0
 34110  1  0  0  0
 35 44  2  0  0  0
 35 45  1  0  0  0
 35 68  1  0  0  0
 36 56  1  0  0  0
 36111  1  0  0  0
 37 39  1  0  0  0
 37 47  1  0  0  0
 37 66  1  0  0  0
 37112  1  0  0  0
 38 43  2  0  0  0
 38 46  1  0  0  0
 38 47  1  0  0  0
 39 64  1  0  0  0
 39 67  2  0  0  0
 40 52  1  0  0  0
 40 53  2  0  0  0
 40 58  1  0  0  0
 41113  1  0  0  0
 41114  1  0  0  0
 41115  1  0  0  0
 41 48  1  0  0  0
 42 43  1  0  0  0
 42 66  1  0  0  0
 42116  1  0  0  0
 42117  1  0  0  0
 43 44  1  0  0  0
 44118  1  0  0  0
 45 46  2  0  0  0
 45119  1  0  0  0
 46120  1  0  0  0
 47121  1  0  0  0
 47122  1  0  0  0
 48 56  1  0  0  0
 48 65  1  0  0  0
 48123  1  0  0  0
 49 50  1  0  0  0
 49 53  1  0  0  0
 49 64  1  0  0  0
 49124  1  0  0  0
 50 51  1  0  0  0
 50125  1  0  0  0
 50126  1  0  0  0
 51 52  1  0  0  0
 51127  1  0  0  0
 51128  1  0  0  0
 52129  1  0  0  0
 52130  1  0  0  0
 53 54  1  0  0  0
 54 55  2  0  0  0
 54131  1  0  0  0
 55 57  1  0  0  0
 55132  1  0  0  0
 56 69  2  0  0  0
 57 58  2  0  0  0
 57133  1  0  0  0
 58134  1  0  0  0
 59 60  1  0  0  0
 59 61  1  0  0  0
 59 62  1  0  0  0
 60135  1  0  0  0
 60136  1  0  0  0
 60137  1  0  0  0
 61138  1  0  0  0
 61139  1  0  0  0
 61140  1  0  0  0
 62141  1  0  0  0
 62142  1  0  0  0
 62143  1  0  0  0
 63 65  1  0  0  0
 63144  1  0  0  0
 63145  1  0  0  0
 63146  1  0  0  0
 64147  1  0  0  0
 65148  1  0  0  0
 68 84  1  0  0  0
 71 72  2  0  0  0
 71 73  1  0  0  0
 71149  1  0  0  0
 72 74  1  0  0  0
 72150  1  0  0  0
 73 75  2  0  0  0
 73 85  1  0  0  0
 74 76  2  0  0  0
 74 87  1  0  0  0
 75 76  1  0  0  0
 75 86  1  0  0  0
 76 89  1  0  0  0
 77 83  1  0  0  0
 77 86  1  0  0  0
 77 88  2  0  0  0
 78 79  1  0  0  0
 78 81  1  0  0  0
 78151  1  0  0  0
 78152  1  0  0  0
 79 85  1  0  0  0
 79153  1  0  0  0
 79154  1  0  0  0
 80 81  1  0  0  0
 80 85  1  0  0  0
 80155  1  0  0  0
 80156  1  0  0  0
 81 84  1  0  0  0
 81157  1  0  0  0
 82 83  1  0  0  0
 82158  1  0  0  0
 82159  1  0  0  0
 82160  1  0  0  0
 83161  1  0  0  0
 83162  1  0  0  0
 84163  1  0  0  0
 84164  1  0  0  0
 86165  1  0  0  0
 87166  1  0  0  0
M  ISO  4   1 100  68 101  84 101  87 100
M  END
> <chiral flag>
0

> <version>
0

> <s_m_source_file>
/data/baiqing/PycharmProjects/Reinvent-master-3.2/result/LINK_invent/BTK/process_docking_weight1_custom_product_contain_oxygen_bond_distance_aromatic_linkinvent_7_9_3/rearranged_h_0072.sdf

> <i_m_source_file_index>
60

> <r_mmod_Potential_Energy-OPLS-2005>
43.7893371582031

> <r_mmod_Stretch_Energy-OPLS-2005>
79.1301651000977

> <r_mmod_Bend_Energy-OPLS-2005>
192.483703613281

> <r_mmod_Torsional_Energy-OPLS-2005>
310.180816650391

> <r_mmod_Improper_Torsional_Energy-OPLS-2005>
3.38049125671387

> <r_mmod_Van_der_Waal_Energy-OPLS-2005>
141.072067260742

> <r_mmod_Electrostatic_Energy-OPLS-2005>
-490.849212646484

> <r_mmod_Solvation_Energy-OPLS-2005>
-236.865600585938

> <b_mmod_Minimization_Converged-OPLS-2005>
0

> <r_mmod_RMS_Derivative-OPLS-2005>
1.01995611190796

$$$$
60
                    3D
 Structure written by MMmdl.
154163  0  0  1  0            999 V2000
  -30.5781  -14.8833   20.5205 C   0  0  0  0  0  0
  -30.4371  -12.5625   19.4942 C   0  0  0  0  0  0
  -29.5184  -12.5684   18.2499 C   0  0  0  0  0  0
  -28.0471  -12.3477   18.6543 C   0  0  0  0  0  0
  -27.6363  -13.2350   19.8598 C   0  0  2  0  0  0
  -28.6793  -13.1363   20.9887 C   0  0  0  0  0  0
  -25.2364  -13.8102   20.5521 C   0  0  0  0  0  0
  -24.1726  -13.0359   20.9174 C   0  0  0  0  0  0
  -24.6373  -11.6865   20.8759 C   0  0  0  0  0  0
  -23.9064  -10.4248   21.0415 C   0  0  0  0  0  0
  -24.3613   -9.4166   21.9193 C   0  0  0  0  0  0
  -23.6274   -8.2207   22.0762 C   0  0  0  0  0  0
  -22.4262   -8.0252   21.3538 C   0  0  0  0  0  0
  -21.9900   -9.0226   20.4649 C   0  0  0  0  0  0
  -22.7242  -10.2098   20.3053 C   0  0  0  0  0  0
  -21.6842   -6.0714   22.5280 C   0  0  0  0  0  0
  -21.4013   -6.5626   23.8213 C   0  0  0  0  0  0
  -21.3656   -5.6781   24.9182 C   0  0  0  0  0  0
  -21.6045   -4.3039   24.7239 C   0  0  0  0  0  0
  -21.8817   -3.8134   23.4355 C   0  0  0  0  0  0
  -21.9191   -4.6941   22.3417 C   0  0  0  0  0  0
  -22.7753  -13.5140   21.1869 C   0  0  0  0  0  0
  -22.1653   -4.2126   21.0982 F   0  0  0  0  0  0
  -21.5636   -3.4526   25.7751 F   0  0  0  0  0  0
  -29.9568  -13.6261   20.4316 N   0  0  0  0  0  0
  -26.2875  -12.9366   20.3289 N   0  0  0  0  0  0
  -25.9315  -11.6511   20.5792 N   0  0  0  0  0  0
  -22.0443  -12.8122   22.0453 N   0  0  0  0  0  0
  -25.3827  -15.1784   20.3632 N   0  0  0  0  0  0
  -31.7471  -14.9151   20.1204 O   0  0  0  0  0  0
  -21.6617   -6.8851   21.4239 O   0  0  0  0  0  0
  -22.3444  -14.5471   20.6777 O   0  0  0  0  0  0
  -24.6423  -31.8479   23.1925 C   0  0  0  0  0  0
  -25.9204  -32.4719   23.8321 C   0  0  1  0  0  0
  -27.2257  -27.1769   20.1377 C   0  0  0  0  0  0
  -25.5964  -33.8524   24.2252 N   0  0  0  0  0  0
  -23.4454  -30.4679   21.5372 C   0  0  2  0  0  0
  -24.8955  -28.9042   20.1101 C   0  0  0  0  0  0
  -22.7558  -29.4567   22.4876 C   0  0  0  0  0  0
  -18.0302  -28.1410   22.8484 C   0  0  0  0  0  0
  -24.1490  -36.7255   23.2641 C   0  0  0  0  0  0
  -25.9980  -30.7338   21.3864 C   0  0  0  0  0  0
  -26.0705  -29.3487   20.7286 C   0  0  0  0  0  0
  -27.2344  -28.4977   20.7314 C   0  0  0  0  0  0
  -26.0201  -26.8255   19.4873 C   0  0  0  0  0  0
  -24.8791  -27.6545   19.4772 C   0  0  0  0  0  0
  -23.6693  -29.8008   20.1557 C   0  0  0  0  0  0
  -25.4123  -36.3047   24.0318 C   0  0  1  0  0  0
  -20.5920  -28.3736   23.1231 C   0  0  2  0  0  0
  -20.6799  -26.9441   22.5400 C   0  0  0  0  0  0
  -19.5766  -26.6409   21.5217 C   0  0  0  0  0  0
  -18.1943  -26.7954   22.1629 C   0  0  0  0  0  0
  -19.1556  -28.8891   23.2853 C   0  0  0  0  0  0
  -18.9471  -30.1489   23.8888 C   0  0  0  0  0  0
  -17.6466  -30.6605   24.0567 C   0  0  0  0  0  0
  -25.9066  -34.9408   23.5091 C   0  0  0  0  0  0
  -16.5360  -29.9104   23.6335 C   0  0  0  0  0  0
  -16.7287  -28.6520   23.0361 C   0  0  0  0  0  0
  -26.4545  -31.6547   25.0727 C   0  0  0  0  0  0
  -25.3745  -31.3725   26.1436 C   0  0  0  0  0  0
  -27.0391  -30.2950   24.6252 C   0  0  0  0  0  0
  -27.6102  -32.4279   25.7500 C   0  0  0  0  0  0
  -27.5560  -37.1798   24.8483 C   0  0  0  0  0  0
  -21.4255  -29.3062   22.3599 N   0  0  0  0  0  0
  -26.4305  -37.3732   23.9376 N   0  0  0  0  0  0
  -24.7150  -31.0362   22.0951 N   0  0  0  0  0  0
  -23.4203  -28.8120   23.3014 O   0  0  0  0  0  0
  -28.2819  -26.2077   20.2451 O   0  0  0  0  0  0
  -26.5625  -34.8889   22.4662 O   0  0  0  0  0  0
  -23.5537  -32.1356   23.7142 O   0  0  0  0  0  0
  -32.0014  -19.2352   20.1260 C   0  0  0  0  0  0
  -31.1116  -20.3264   20.1596 C   0  0  0  0  0  0
  -31.5762  -17.9048   20.3040 C   0  0  0  0  0  0
  -29.3391  -18.7719   20.5697 C   0  0  0  0  0  0
  -29.7234  -20.1933   20.3771 C   0  0  0  0  0  0
  -30.2225  -17.5695   20.5464 C   0  0  0  0  0  0
  -28.5699  -23.5626   20.0437 C   0  0  0  0  0  0
  -28.4522  -22.3126   19.2730 C   0  0  0  0  0  0
  -27.7427  -16.4314   21.9996 C   0  0  0  0  0  0
  -28.1905  -24.8768   19.6741 C   0  0  0  0  0  0
  -29.0116  -15.9958   21.9599 C   0  0  0  0  0  0
  -29.2485  -22.7063   21.1567 C   0  0  0  0  0  0
  -28.9140  -21.4802   20.3401 N   0  0  0  0  0  0
  -29.8827  -16.0986   20.8697 N   0  0  0  0  0  0
  -28.1907  -22.1460   18.1001 O   0  0  0  0  0  0
  -31.4741  -12.7037   19.1887 H   0  0  0  0  0  0
  -30.4190  -11.5828   19.9732 H   0  0  0  0  0  0
  -29.8354  -11.8083   17.5347 H   0  0  0  0  0  0
  -29.6116  -13.5287   17.7391 H   0  0  0  0  0  0
  -27.9298  -11.2957   18.9166 H   0  0  0  0  0  0
  -27.3878  -12.5265   17.8043 H   0  0  0  0  0  0
  -27.6339  -14.2653   19.5052 H   0  0  0  0  0  0
  -28.7708  -12.0990   21.3165 H   0  0  0  0  0  0
  -28.3532  -13.6519   21.8847 H   0  0  0  0  0  0
  -25.2756   -9.5630   22.4779 H   0  0  0  0  0  0
  -23.9969   -7.4590   22.7482 H   0  0  0  0  0  0
  -21.0832   -8.8758   19.8950 H   0  0  0  0  0  0
  -22.3713  -10.9638   19.6162 H   0  0  0  0  0  0
  -21.2004   -7.6134   23.9714 H   0  0  0  0  0  0
  -21.1486   -6.0513   25.9082 H   0  0  0  0  0  0
  -22.0606   -2.7590   23.2873 H   0  0  0  0  0  0
  -22.4047  -11.9724   22.4742 H   0  0  0  0  0  0
  -21.1098  -13.1185   22.2770 H   0  0  0  0  0  0
  -24.6079  -15.8259   20.4560 H   0  0  0  0  0  0
  -26.2397  -15.6174   20.0566 H   0  0  0  0  0  0
  -26.7252  -32.5342   23.1034 H   0  0  0  0  0  0
  -25.0112  -33.9637   25.0402 H   0  0  0  0  0  0
  -22.7468  -31.2927   21.3857 H   0  0  0  0  0  0
  -23.3728  -35.9621   23.3391 H   0  0  0  0  0  0
  -24.3566  -36.8802   22.2039 H   0  0  0  0  0  0
  -23.7249  -37.6483   23.6620 H   0  0  0  0  0  0
  -26.1435  -31.4880   20.6114 H   0  0  0  0  0  0
  -26.8718  -30.7869   22.0245 H   0  0  0  0  0  0
  -28.1288  -28.8280   21.2411 H   0  0  0  0  0  0
  -25.9068  -25.8640   19.0102 H   0  0  0  0  0  0
  -23.9782  -27.3107   18.9897 H   0  0  0  0  0  0
  -23.8037  -30.5794   19.4043 H   0  0  0  0  0  0
  -22.7851  -29.2426   19.8429 H   0  0  0  0  0  0
  -25.1299  -36.1928   25.0806 H   0  0  0  0  0  0
  -20.9988  -28.3354   24.1365 H   0  0  0  0  0  0
  -20.5710  -26.2354   23.3631 H   0  0  0  0  0  0
  -21.6661  -26.7467   22.1176 H   0  0  0  0  0  0
  -19.6929  -25.6319   21.1253 H   0  0  0  0  0  0
  -19.6700  -27.3220   20.6751 H   0  0  0  0  0  0
  -17.4197  -26.6688   21.4044 H   0  0  0  0  0  0
  -18.0360  -26.0111   22.9044 H   0  0  0  0  0  0
  -19.7936  -30.7310   24.2268 H   0  0  0  0  0  0
  -17.5012  -31.6283   24.5178 H   0  0  0  0  0  0
  -15.5356  -30.3001   23.7672 H   0  0  0  0  0  0
  -15.8690  -28.0838   22.7087 H   0  0  0  0  0  0
  -24.5923  -30.7075   25.7759 H   0  0  0  0  0  0
  -24.8930  -32.2908   26.4808 H   0  0  0  0  0  0
  -25.8038  -30.8928   27.0245 H   0  0  0  0  0  0
  -26.2995  -29.6677   24.1260 H   0  0  0  0  0  0
  -27.4040  -29.7223   25.4788 H   0  0  0  0  0  0
  -27.8897  -30.4210   23.9550 H   0  0  0  0  0  0
  -27.2748  -33.3620   26.2025 H   0  0  0  0  0  0
  -28.3950  -32.6765   25.0337 H   0  0  0  0  0  0
  -28.0739  -31.8420   26.5448 H   0  0  0  0  0  0
  -28.2640  -38.0025   24.7420 H   0  0  0  0  0  0
  -28.0987  -36.2548   24.6477 H   0  0  0  0  0  0
  -27.2268  -37.1656   25.8888 H   0  0  0  0  0  0
  -20.9483  -29.8762   21.6752 H   0  0  0  0  0  0
  -26.0203  -38.2825   24.1326 H   0  0  0  0  0  0
  -33.0533  -19.4286   19.9701 H   0  0  0  0  0  0
  -31.5269  -21.3119   20.0019 H   0  0  0  0  0  0
  -32.3536  -17.1576   20.3010 H   0  0  0  0  0  0
  -28.2868  -18.6298   20.7451 H   0  0  0  0  0  0
  -27.1458  -16.3278   22.8945 H   0  0  0  0  0  0
  -27.2655  -16.8821   21.1450 H   0  0  0  0  0  0
  -27.7724  -24.9615   18.6822 H   0  0  0  0  0  0
  -29.4704  -15.5322   22.8246 H   0  0  0  0  0  0
  -28.7596  -22.6815   22.1316 H   0  0  0  0  0  0
  -30.3225  -22.8399   21.2938 H   0  0  0  0  0  0
  1 25  1  0  0  0
  1 30  2  0  0  0
  1 84  1  0  0  0
  2  3  1  0  0  0
  2 25  1  0  0  0
  2 86  1  0  0  0
  2 87  1  0  0  0
  3  4  1  0  0  0
  3 88  1  0  0  0
  3 89  1  0  0  0
  4  5  1  0  0  0
  4 90  1  0  0  0
  4 91  1  0  0  0
  5  6  1  0  0  0
  5 26  1  0  0  0
  5 92  1  0  0  0
  6 25  1  0  0  0
  6 93  1  0  0  0
  6 94  1  0  0  0
  7  8  2  0  0  0
  7 26  1  0  0  0
  7 29  1  0  0  0
  8  9  1  0  0  0
  8 22  1  0  0  0
  9 10  1  0  0  0
  9 27  2  0  0  0
 10 11  2  0  0  0
 10 15  1  0  0  0
 11 12  1  0  0  0
 11 95  1  0  0  0
 12 13  2  0  0  0
 12 96  1  0  0  0
 13 14  1  0  0  0
 13 31  1  0  0  0
 14 15  2  0  0  0
 14 97  1  0  0  0
 15 98  1  0  0  0
 16 17  2  0  0  0
 16 21  1  0  0  0
 16 31  1  0  0  0
 17 18  1  0  0  0
 17 99  1  0  0  0
 18 19  2  0  0  0
 18100  1  0  0  0
 19 20  1  0  0  0
 19 24  1  0  0  0
 20 21  2  0  0  0
 20101  1  0  0  0
 21 23  1  0  0  0
 22 28  1  0  0  0
 22 32  2  0  0  0
 26 27  1  0  0  0
 28102  1  0  0  0
 28103  1  0  0  0
 29104  1  0  0  0
 29105  1  0  0  0
 33 34  1  0  0  0
 33 66  1  0  0  0
 33 70  2  0  0  0
 34 36  1  0  0  0
 34 59  1  0  0  0
 34106  1  0  0  0
 35 44  2  0  0  0
 35 45  1  0  0  0
 35 68  1  0  0  0
 36 56  1  0  0  0
 36107  1  0  0  0
 37 39  1  0  0  0
 37 47  1  0  0  0
 37 66  1  0  0  0
 37108  1  0  0  0
 38 43  2  0  0  0
 38 46  1  0  0  0
 38 47  1  0  0  0
 39 64  1  0  0  0
 39 67  2  0  0  0
 40 52  1  0  0  0
 40 53  2  0  0  0
 40 58  1  0  0  0
 41109  1  0  0  0
 41110  1  0  0  0
 41111  1  0  0  0
 41 48  1  0  0  0
 42 43  1  0  0  0
 42 66  1  0  0  0
 42112  1  0  0  0
 42113  1  0  0  0
 43 44  1  0  0  0
 44114  1  0  0  0
 45 46  2  0  0  0
 45115  1  0  0  0
 46116  1  0  0  0
 47117  1  0  0  0
 47118  1  0  0  0
 48 56  1  0  0  0
 48 65  1  0  0  0
 48119  1  0  0  0
 49 50  1  0  0  0
 49 53  1  0  0  0
 49 64  1  0  0  0
 49120  1  0  0  0
 50 51  1  0  0  0
 50121  1  0  0  0
 50122  1  0  0  0
 51 52  1  0  0  0
 51123  1  0  0  0
 51124  1  0  0  0
 52125  1  0  0  0
 52126  1  0  0  0
 53 54  1  0  0  0
 54 55  2  0  0  0
 54127  1  0  0  0
 55 57  1  0  0  0
 55128  1  0  0  0
 56 69  2  0  0  0
 57 58  2  0  0  0
 57129  1  0  0  0
 58130  1  0  0  0
 59 60  1  0  0  0
 59 61  1  0  0  0
 59 62  1  0  0  0
 60131  1  0  0  0
 60132  1  0  0  0
 60133  1  0  0  0
 61134  1  0  0  0
 61135  1  0  0  0
 61136  1  0  0  0
 62137  1  0  0  0
 62138  1  0  0  0
 62139  1  0  0  0
 63 65  1  0  0  0
 63140  1  0  0  0
 63141  1  0  0  0
 63142  1  0  0  0
 64143  1  0  0  0
 65144  1  0  0  0
 68 80  1  0  0  0
 71 72  2  0  0  0
 71 73  1  0  0  0
 71145  1  0  0  0
 72 75  1  0  0  0
 72146  1  0  0  0
 73 76  2  0  0  0
 73147  1  0  0  0
 74 75  2  0  0  0
 74 76  1  0  0  0
 74148  1  0  0  0
 75 83  1  0  0  0
 76 84  1  0  0  0
 77 78  1  0  0  0
 77 80  2  0  0  0
 77 82  1  0  0  0
 78 83  1  0  0  0
 78 85  2  0  0  0
 79 81  2  0  0  0
 79149  1  0  0  0
 79150  1  0  0  0
 80151  1  0  0  0
 81 84  1  0  0  0
 81152  1  0  0  0
 82 83  1  0  0  0
 82153  1  0  0  0
 82154  1  0  0  0
M  ISO  4   1 100  68 101  80 101  84 100
M  END
> <chiral flag>
0

> <version>
0

> <s_m_source_file>
/data/baiqing/PycharmProjects/Reinvent-master-3.2/result/LINK_invent/BTK/process_docking_weight1_custom_product_contain_oxygen_bond_distance_aromatic_linkinvent_7_9_3/rearranged_h_0072.sdf

> <i_m_source_file_index>
61

> <r_mmod_Potential_Energy-OPLS-2005>
684.602478027344

> <r_mmod_Stretch_Energy-OPLS-2005>
209.1796875

> <r_mmod_Bend_Energy-OPLS-2005>
298.408416748047

> <r_mmod_Torsional_Energy-OPLS-2005>
346.618988037109

> <r_mmod_Improper_Torsional_Energy-OPLS-2005>
10.6376619338989

> <r_mmod_Van_der_Waal_Energy-OPLS-2005>
160.305572509766

> <r_mmod_Electrostatic_Energy-OPLS-2005>
-279.620025634766

> <r_mmod_Solvation_Energy-OPLS-2005>
-205.885223388672

> <b_mmod_Minimization_Converged-OPLS-2005>
0

> <r_mmod_RMS_Derivative-OPLS-2005>
2.74275922775269

$$$$
61
                    3D
 Structure written by MMmdl.
167176  0  0  1  0            999 V2000
  -30.5914  -14.7191   20.4296 C   0  0  0  0  0  0
  -30.4444  -12.4340   19.4537 C   0  0  0  0  0  0
  -29.5088  -12.5077   18.2250 C   0  0  0  0  0  0
  -28.0330  -12.3367   18.6443 C   0  0  0  0  0  0
  -27.6448  -13.2241   19.8567 C   0  0  2  0  0  0
  -28.6986  -13.1297   20.9828 C   0  0  0  0  0  0
  -25.2539  -13.8135   20.5848 C   0  0  0  0  0  0
  -24.1784  -13.0390   20.9212 C   0  0  0  0  0  0
  -24.6370  -11.6886   20.8710 C   0  0  0  0  0  0
  -23.9052  -10.4274   21.0376 C   0  0  0  0  0  0
  -24.3616   -9.4209   21.9159 C   0  0  0  0  0  0
  -23.6294   -8.2242   22.0738 C   0  0  0  0  0  0
  -22.4274   -8.0267   21.3536 C   0  0  0  0  0  0
  -21.9905   -9.0239   20.4641 C   0  0  0  0  0  0
  -22.7226  -10.2113   20.3037 C   0  0  0  0  0  0
  -21.6853   -6.0730   22.5277 C   0  0  0  0  0  0
  -21.4011   -6.5638   23.8203 C   0  0  0  0  0  0
  -21.3655   -5.6790   24.9169 C   0  0  0  0  0  0
  -21.6049   -4.3051   24.7219 C   0  0  0  0  0  0
  -21.8828   -3.8143   23.4340 C   0  0  0  0  0  0
  -21.9199   -4.6963   22.3397 C   0  0  0  0  0  0
  -22.7816  -13.5206   21.1858 C   0  0  0  0  0  0
  -22.1668   -4.2149   21.0975 F   0  0  0  0  0  0
  -21.5630   -3.4536   25.7731 F   0  0  0  0  0  0
  -30.0044  -13.4782   20.3994 N   0  0  0  0  0  0
  -26.2953  -12.9359   20.3338 N   0  0  0  0  0  0
  -25.9298  -11.6502   20.5706 N   0  0  0  0  0  0
  -22.0444  -12.8192   22.0410 N   0  0  0  0  0  0
  -25.4201  -15.1845   20.4562 N   0  0  0  0  0  0
  -31.7852  -14.8642   20.1539 O   0  0  0  0  0  0
  -21.6640   -6.8873   21.4235 O   0  0  0  0  0  0
  -22.3519  -14.5516   20.6707 O   0  0  0  0  0  0
  -24.6275  -31.8586   23.2002 C   0  0  0  0  0  0
  -25.9118  -32.4771   23.8345 C   0  0  1  0  0  0
  -27.2385  -27.3148   20.1082 C   0  0  0  0  0  0
  -25.5919  -33.8572   24.2281 N   0  0  0  0  0  0
  -23.4227  -30.4811   21.5431 C   0  0  2  0  0  0
  -24.8695  -28.9280   20.1129 C   0  0  0  0  0  0
  -22.7486  -29.4628   22.4930 C   0  0  0  0  0  0
  -18.0295  -28.1393   22.8479 C   0  0  0  0  0  0
  -24.1481  -36.7304   23.2638 C   0  0  0  0  0  0
  -25.9634  -30.7854   21.3687 C   0  0  0  0  0  0
  -26.0391  -29.4078   20.7185 C   0  0  0  0  0  0
  -27.2247  -28.6113   20.7108 C   0  0  0  0  0  0
  -26.0494  -26.8945   19.4706 C   0  0  0  0  0  0
  -24.8755  -27.6737   19.4843 C   0  0  0  0  0  0
  -23.6355  -29.8076   20.1613 C   0  0  0  0  0  0
  -25.4102  -36.3101   24.0337 C   0  0  1  0  0  0
  -20.5899  -28.3701   23.1269 C   0  0  2  0  0  0
  -20.6779  -26.9418   22.5414 C   0  0  0  0  0  0
  -19.5764  -26.6391   21.5202 C   0  0  0  0  0  0
  -18.1939  -26.7936   22.1608 C   0  0  0  0  0  0
  -19.1549  -28.8861   23.2873 C   0  0  0  0  0  0
  -18.9469  -30.1453   23.8901 C   0  0  0  0  0  0
  -17.6469  -30.6585   24.0568 C   0  0  0  0  0  0
  -25.9039  -34.9457   23.5110 C   0  0  0  0  0  0
  -16.5357  -29.9085   23.6332 C   0  0  0  0  0  0
  -16.7282  -28.6510   23.0338 C   0  0  0  0  0  0
  -26.4483  -31.6584   25.0719 C   0  0  0  0  0  0
  -25.3710  -31.3711   26.1439 C   0  0  0  0  0  0
  -27.0300  -30.3014   24.6142 C   0  0  0  0  0  0
  -27.6047  -32.4291   25.7491 C   0  0  0  0  0  0
  -27.5577  -37.1812   24.8457 C   0  0  0  0  0  0
  -21.4202  -29.3059   22.3671 N   0  0  0  0  0  0
  -26.4285  -37.3789   23.9409 N   0  0  0  0  0  0
  -24.6908  -31.0583   22.0948 N   0  0  0  0  0  0
  -23.4190  -28.8174   23.3025 O   0  0  0  0  0  0
  -28.3588  -26.4619   20.1179 O   0  0  0  0  0  0
  -26.5625  -34.8930   22.4684 O   0  0  0  0  0  0
  -23.5432  -32.1386   23.7336 O   0  0  0  0  0  0
  -30.8877  -19.4593   20.8375 C   0  0  0  0  0  0
  -30.8916  -18.0275   20.8935 C   0  0  0  0  0  0
  -28.7595  -19.4297   19.7434 C   0  0  0  0  0  0
  -29.8133  -20.2134   20.2750 C   0  0  0  0  0  0
  -29.8289  -17.2451   20.3650 C   0  0  0  0  0  0
  -28.7681  -17.9922   19.7544 C   0  0  0  0  0  0
  -30.3865  -23.8847   19.5865 C   0  0  0  0  0  0
  -29.0022  -23.9835   20.0465 C   0  0  0  0  0  0
  -30.8287  -22.4766   19.7776 C   0  0  0  0  0  0
  -28.1704  -25.0689   20.2742 C   0  0  0  0  0  0
  -31.1560  -24.8300   18.9635 C   0  0  0  0  0  0
  -26.5366  -17.6674   18.6991 C   0  0  0  0  0  0
  -28.5772  -22.5383   20.3565 C   0  0  0  0  0  0
  -32.6131  -24.6415   18.5338 C   0  0  0  0  0  0
  -30.6423  -26.1924   18.5263 C   0  0  0  0  0  0
  -25.8232  -16.8664   17.6187 C   0  0  0  0  0  0
  -29.7895  -21.6962   20.1874 N   0  0  0  0  0  0
  -27.7806  -17.2738   19.0234 N   0  0  0  0  0  0
  -29.7155  -15.7799   20.5135 N   0  0  0  0  0  0
  -31.9526  -22.0115   19.5601 O   0  0  0  0  0  0
  -25.9316  -18.5806   19.2628 O   0  0  0  0  0  0
  -31.4833  -12.5760   19.1453 H   0  0  0  0  0  0
  -30.3991  -11.4501   19.9228 H   0  0  0  0  0  0
  -29.7826  -11.7427   17.4976 H   0  0  0  0  0  0
  -29.6372  -13.4667   17.7233 H   0  0  0  0  0  0
  -27.8815  -11.2852   18.8941 H   0  0  0  0  0  0
  -27.3759  -12.5435   17.7979 H   0  0  0  0  0  0
  -27.6377  -14.2475   19.4845 H   0  0  0  0  0  0
  -28.7238  -12.1253   21.4057 H   0  0  0  0  0  0
  -28.4432  -13.7979   21.8064 H   0  0  0  0  0  0
  -25.2763   -9.5699   22.4719 H   0  0  0  0  0  0
  -24.0018   -7.4645   22.7468 H   0  0  0  0  0  0
  -21.0824   -8.8756   19.8960 H   0  0  0  0  0  0
  -22.3684  -10.9651   19.6143 H   0  0  0  0  0  0
  -21.1993   -7.6145   23.9702 H   0  0  0  0  0  0
  -21.1466   -6.0517   25.9066 H   0  0  0  0  0  0
  -22.0612   -2.7610   23.2834 H   0  0  0  0  0  0
  -22.4061  -11.9849   22.4789 H   0  0  0  0  0  0
  -21.1059  -13.1198   22.2622 H   0  0  0  0  0  0
  -24.6434  -15.8262   20.5733 H   0  0  0  0  0  0
  -26.2865  -15.6553   20.2363 H   0  0  0  0  0  0
  -26.7192  -32.5460   23.1093 H   0  0  0  0  0  0
  -25.0031  -33.9698   25.0412 H   0  0  0  0  0  0
  -22.7181  -31.3042   21.3967 H   0  0  0  0  0  0
  -23.3742  -35.9637   23.3296 H   0  0  0  0  0  0
  -24.3576  -36.8923   22.2054 H   0  0  0  0  0  0
  -23.7230  -37.6505   23.6650 H   0  0  0  0  0  0
  -26.0852  -31.5387   20.5897 H   0  0  0  0  0  0
  -26.8492  -30.8477   21.9876 H   0  0  0  0  0  0
  -28.1226  -28.9746   21.1873 H   0  0  0  0  0  0
  -26.0157  -25.9372   18.9695 H   0  0  0  0  0  0
  -23.9815  -27.3036   18.9999 H   0  0  0  0  0  0
  -23.7518  -30.5802   19.4007 H   0  0  0  0  0  0
  -22.7559  -29.2324   19.8646 H   0  0  0  0  0  0
  -25.1276  -36.1946   25.0829 H   0  0  0  0  0  0
  -20.9993  -28.3284   24.1380 H   0  0  0  0  0  0
  -20.5657  -26.2311   23.3622 H   0  0  0  0  0  0
  -21.6653  -26.7430   22.1222 H   0  0  0  0  0  0
  -19.6930  -25.6300   21.1228 H   0  0  0  0  0  0
  -19.6707  -27.3209   20.6736 H   0  0  0  0  0  0
  -17.4215  -26.6688   21.4003 H   0  0  0  0  0  0
  -18.0336  -26.0072   22.8997 H   0  0  0  0  0  0
  -19.7939  -30.7262   24.2277 H   0  0  0  0  0  0
  -17.5021  -31.6258   24.5181 H   0  0  0  0  0  0
  -15.5363  -30.2987   23.7647 H   0  0  0  0  0  0
  -15.8679  -28.0828   22.7041 H   0  0  0  0  0  0
  -24.5921  -30.7001   25.7782 H   0  0  0  0  0  0
  -24.8840  -32.2860   26.4830 H   0  0  0  0  0  0
  -25.8042  -30.8939   27.0243 H   0  0  0  0  0  0
  -26.2858  -29.6783   24.1157 H   0  0  0  0  0  0
  -27.4001  -29.7234   25.4623 H   0  0  0  0  0  0
  -27.8731  -30.4304   23.9345 H   0  0  0  0  0  0
  -27.2681  -33.3599   26.2065 H   0  0  0  0  0  0
  -28.3873  -32.6827   25.0327 H   0  0  0  0  0  0
  -28.0696  -31.8405   26.5410 H   0  0  0  0  0  0
  -28.2596  -38.0111   24.7504 H   0  0  0  0  0  0
  -28.1073  -36.2640   24.6266 H   0  0  0  0  0  0
  -27.2306  -37.1450   25.8866 H   0  0  0  0  0  0
  -20.9388  -29.8735   21.6840 H   0  0  0  0  0  0
  -26.0168  -38.2864   24.1402 H   0  0  0  0  0  0
  -31.7346  -19.9871   21.2534 H   0  0  0  0  0  0
  -31.7274  -17.5334   21.3673 H   0  0  0  0  0  0
  -27.9556  -19.9594   19.2566 H   0  0  0  0  0  0
  -27.1878  -24.8703   20.6767 H   0  0  0  0  0  0
  -27.7693  -22.2321   19.6906 H   0  0  0  0  0  0
  -28.2246  -22.4569   21.3850 H   0  0  0  0  0  0
  -32.6734  -24.1489   17.5633 H   0  0  0  0  0  0
  -33.1958  -24.0701   19.2530 H   0  0  0  0  0  0
  -33.1322  -25.5966   18.4445 H   0  0  0  0  0  0
  -30.6617  -26.9055   19.3517 H   0  0  0  0  0  0
  -29.6339  -26.1160   18.1218 H   0  0  0  0  0  0
  -31.2465  -26.6089   17.7188 H   0  0  0  0  0  0
  -26.3579  -15.9485   17.3731 H   0  0  0  0  0  0
  -25.7382  -17.4630   16.7107 H   0  0  0  0  0  0
  -24.8184  -16.5970   17.9446 H   0  0  0  0  0  0
  -28.1101  -16.4347   18.5674 H   0  0  0  0  0  0
  -28.7666  -15.4602   20.6205 H   0  0  0  0  0  0
  1 25  1  0  0  0
  1 30  2  0  0  0
  1 89  1  0  0  0
  2  3  1  0  0  0
  2 25  1  0  0  0
  2 92  1  0  0  0
  2 93  1  0  0  0
  3  4  1  0  0  0
  3 94  1  0  0  0
  3 95  1  0  0  0
  4  5  1  0  0  0
  4 96  1  0  0  0
  4 97  1  0  0  0
  5  6  1  0  0  0
  5 26  1  0  0  0
  5 98  1  0  0  0
  6 25  1  0  0  0
  6 99  1  0  0  0
  6100  1  0  0  0
  7  8  2  0  0  0
  7 26  1  0  0  0
  7 29  1  0  0  0
  8  9  1  0  0  0
  8 22  1  0  0  0
  9 10  1  0  0  0
  9 27  2  0  0  0
 10 11  2  0  0  0
 10 15  1  0  0  0
 11 12  1  0  0  0
 11101  1  0  0  0
 12 13  2  0  0  0
 12102  1  0  0  0
 13 14  1  0  0  0
 13 31  1  0  0  0
 14 15  2  0  0  0
 14103  1  0  0  0
 15104  1  0  0  0
 16 17  2  0  0  0
 16 21  1  0  0  0
 16 31  1  0  0  0
 17 18  1  0  0  0
 17105  1  0  0  0
 18 19  2  0  0  0
 18106  1  0  0  0
 19 20  1  0  0  0
 19 24  1  0  0  0
 20 21  2  0  0  0
 20107  1  0  0  0
 21 23  1  0  0  0
 22 28  1  0  0  0
 22 32  2  0  0  0
 26 27  1  0  0  0
 28108  1  0  0  0
 28109  1  0  0  0
 29110  1  0  0  0
 29111  1  0  0  0
 33 34  1  0  0  0
 33 66  1  0  0  0
 33 70  2  0  0  0
 34 36  1  0  0  0
 34 59  1  0  0  0
 34112  1  0  0  0
 35 44  2  0  0  0
 35 45  1  0  0  0
 35 68  1  0  0  0
 36 56  1  0  0  0
 36113  1  0  0  0
 37 39  1  0  0  0
 37 47  1  0  0  0
 37 66  1  0  0  0
 37114  1  0  0  0
 38 43  2  0  0  0
 38 46  1  0  0  0
 38 47  1  0  0  0
 39 64  1  0  0  0
 39 67  2  0  0  0
 40 52  1  0  0  0
 40 53  2  0  0  0
 40 58  1  0  0  0
 41115  1  0  0  0
 41116  1  0  0  0
 41117  1  0  0  0
 41 48  1  0  0  0
 42 43  1  0  0  0
 42 66  1  0  0  0
 42118  1  0  0  0
 42119  1  0  0  0
 43 44  1  0  0  0
 44120  1  0  0  0
 45 46  2  0  0  0
 45121  1  0  0  0
 46122  1  0  0  0
 47123  1  0  0  0
 47124  1  0  0  0
 48 56  1  0  0  0
 48 65  1  0  0  0
 48125  1  0  0  0
 49 50  1  0  0  0
 49 53  1  0  0  0
 49 64  1  0  0  0
 49126  1  0  0  0
 50 51  1  0  0  0
 50127  1  0  0  0
 50128  1  0  0  0
 51 52  1  0  0  0
 51129  1  0  0  0
 51130  1  0  0  0
 52131  1  0  0  0
 52132  1  0  0  0
 53 54  1  0  0  0
 54 55  2  0  0  0
 54133  1  0  0  0
 55 57  1  0  0  0
 55134  1  0  0  0
 56 69  2  0  0  0
 57 58  2  0  0  0
 57135  1  0  0  0
 58136  1  0  0  0
 59 60  1  0  0  0
 59 61  1  0  0  0
 59 62  1  0  0  0
 60137  1  0  0  0
 60138  1  0  0  0
 60139  1  0  0  0
 61140  1  0  0  0
 61141  1  0  0  0
 61142  1  0  0  0
 62143  1  0  0  0
 62144  1  0  0  0
 62145  1  0  0  0
 63 65  1  0  0  0
 63146  1  0  0  0
 63147  1  0  0  0
 63148  1  0  0  0
 64149  1  0  0  0
 65150  1  0  0  0
 68 80  1  0  0  0
 71 72  2  0  0  0
 71 74  1  0  0  0
 71151  1  0  0  0
 72 75  1  0  0  0
 72152  1  0  0  0
 73 74  2  0  0  0
 73 76  1  0  0  0
 73153  1  0  0  0
 74 87  1  0  0  0
 75 76  2  0  0  0
 75 89  1  0  0  0
 76 88  1  0  0  0
 77 78  1  0  0  0
 77 79  1  0  0  0
 77 81  2  0  0  0
 78 80  2  0  0  0
 78 83  1  0  0  0
 79 87  1  0  0  0
 79 90  2  0  0  0
 80154  1  0  0  0
 81 84  1  0  0  0
 81 85  1  0  0  0
 82 86  1  0  0  0
 82 88  1  0  0  0
 82 91  2  0  0  0
 83 87  1  0  0  0
 83155  1  0  0  0
 83156  1  0  0  0
 84157  1  0  0  0
 84158  1  0  0  0
 84159  1  0  0  0
 85160  1  0  0  0
 85161  1  0  0  0
 85162  1  0  0  0
 86163  1  0  0  0
 86164  1  0  0  0
 86165  1  0  0  0
 88166  1  0  0  0
 89167  1  0  0  0
M  ISO  4   1 100  68 101  80 101  89 100
M  END
> <chiral flag>
0

> <version>
0

> <s_m_source_file>
/data/baiqing/PycharmProjects/Reinvent-master-3.2/result/LINK_invent/BTK/process_docking_weight1_custom_product_contain_oxygen_bond_distance_aromatic_linkinvent_7_9_3/rearranged_h_0072.sdf

> <i_m_source_file_index>
62

> <r_mmod_Potential_Energy-OPLS-2005>
202.811767578125

> <r_mmod_Stretch_Energy-OPLS-2005>
93.0899429321289

> <r_mmod_Bend_Energy-OPLS-2005>
212.411087036133

> <r_mmod_Torsional_Energy-OPLS-2005>
318.590148925781

> <r_mmod_Improper_Torsional_Energy-OPLS-2005>
8.23151397705078

> <r_mmod_Van_der_Waal_Energy-OPLS-2005>
153.913421630859

> <r_mmod_Electrostatic_Energy-OPLS-2005>
-422.409027099609

> <r_mmod_Solvation_Energy-OPLS-2005>
-227.957641601562

> <b_mmod_Minimization_Converged-OPLS-2005>
0

> <r_mmod_RMS_Derivative-OPLS-2005>
3.67108869552612

$$$$
62
                    3D
 Structure written by MMmdl.
152160  0  0  1  0            999 V2000
  -30.6086  -14.6552   20.4954 C   0  0  0  0  0  0
  -30.4411  -12.4009   19.4544 C   0  0  0  0  0  0
  -29.5100  -12.5067   18.2252 C   0  0  0  0  0  0
  -28.0327  -12.3410   18.6359 C   0  0  0  0  0  0
  -27.6524  -13.2141   19.8609 C   0  0  2  0  0  0
  -28.6965  -13.0727   20.9920 C   0  0  0  0  0  0
  -25.2557  -13.8161   20.5661 C   0  0  0  0  0  0
  -24.1831  -13.0435   20.9203 C   0  0  0  0  0  0
  -24.6393  -11.6904   20.8748 C   0  0  0  0  0  0
  -23.9061  -10.4289   21.0411 C   0  0  0  0  0  0
  -24.3615   -9.4204   21.9185 C   0  0  0  0  0  0
  -23.6290   -8.2242   22.0757 C   0  0  0  0  0  0
  -22.4272   -8.0281   21.3547 C   0  0  0  0  0  0
  -21.9905   -9.0257   20.4651 C   0  0  0  0  0  0
  -22.7234  -10.2135   20.3059 C   0  0  0  0  0  0
  -21.6853   -6.0733   22.5278 C   0  0  0  0  0  0
  -21.4015   -6.5636   23.8211 C   0  0  0  0  0  0
  -21.3659   -5.6790   24.9174 C   0  0  0  0  0  0
  -21.6044   -4.3054   24.7224 C   0  0  0  0  0  0
  -21.8820   -3.8145   23.4345 C   0  0  0  0  0  0
  -21.9193   -4.6961   22.3400 C   0  0  0  0  0  0
  -22.7854  -13.5234   21.1858 C   0  0  0  0  0  0
  -22.1663   -4.2148   21.0977 F   0  0  0  0  0  0
  -21.5627   -3.4537   25.7736 F   0  0  0  0  0  0
  -30.0110  -13.4222   20.4305 N   0  0  0  0  0  0
  -26.2979  -12.9335   20.3292 N   0  0  0  0  0  0
  -25.9317  -11.6496   20.5751 N   0  0  0  0  0  0
  -22.0488  -12.8235   22.0413 N   0  0  0  0  0  0
  -25.4253  -15.1877   20.4004 N   0  0  0  0  0  0
  -31.7739  -14.8183   20.1196 O   0  0  0  0  0  0
  -21.6638   -6.8877   21.4241 O   0  0  0  0  0  0
  -22.3547  -14.5540   20.6700 O   0  0  0  0  0  0
  -24.6256  -31.8597   23.2018 C   0  0  0  0  0  0
  -25.9104  -32.4779   23.8350 C   0  0  1  0  0  0
  -27.2262  -27.3188   20.1258 C   0  0  0  0  0  0
  -25.5919  -33.8580   24.2279 N   0  0  0  0  0  0
  -23.4198  -30.4821   21.5443 C   0  0  2  0  0  0
  -24.8675  -28.9332   20.1143 C   0  0  0  0  0  0
  -22.7472  -29.4622   22.4938 C   0  0  0  0  0  0
  -18.0287  -28.1385   22.8487 C   0  0  0  0  0  0
  -24.1490  -36.7296   23.2640 C   0  0  0  0  0  0
  -25.9599  -30.7904   21.3728 C   0  0  0  0  0  0
  -26.0355  -29.4162   20.7185 C   0  0  0  0  0  0
  -27.2195  -28.6212   20.7125 C   0  0  0  0  0  0
  -26.0399  -26.8891   19.4921 C   0  0  0  0  0  0
  -24.8712  -27.6747   19.4920 C   0  0  0  0  0  0
  -23.6353  -29.8138   20.1608 C   0  0  0  0  0  0
  -25.4115  -36.3085   24.0330 C   0  0  1  0  0  0
  -20.5886  -28.3690   23.1285 C   0  0  2  0  0  0
  -20.6776  -26.9413   22.5409 C   0  0  0  0  0  0
  -19.5750  -26.6386   21.5212 C   0  0  0  0  0  0
  -18.1932  -26.7929   22.1628 C   0  0  0  0  0  0
  -19.1538  -28.8856   23.2882 C   0  0  0  0  0  0
  -18.9461  -30.1459   23.8897 C   0  0  0  0  0  0
  -17.6461  -30.6588   24.0564 C   0  0  0  0  0  0
  -25.9049  -34.9452   23.5106 C   0  0  0  0  0  0
  -16.5353  -29.9086   23.6328 C   0  0  0  0  0  0
  -16.7274  -28.6504   23.0349 C   0  0  0  0  0  0
  -26.4491  -31.6589   25.0720 C   0  0  0  0  0  0
  -25.3727  -31.3729   26.1451 C   0  0  0  0  0  0
  -27.0332  -30.3014   24.6171 C   0  0  0  0  0  0
  -27.6056  -32.4320   25.7484 C   0  0  0  0  0  0
  -27.5577  -37.1809   24.8469 C   0  0  0  0  0  0
  -21.4186  -29.3043   22.3678 N   0  0  0  0  0  0
  -26.4298  -37.3774   23.9401 N   0  0  0  0  0  0
  -24.6871  -31.0608   22.0967 N   0  0  0  0  0  0
  -23.4196  -28.8164   23.3019 O   0  0  0  0  0  0
  -28.3470  -26.4779   20.1400 O   0  0  0  0  0  0
  -26.5619  -34.8918   22.4674 O   0  0  0  0  0  0
  -23.5420  -32.1395   23.7346 O   0  0  0  0  0  0
  -28.6324  -19.3423   20.4867 C   0  0  0  0  0  0
  -31.0039  -19.2932   20.1130 C   0  0  0  0  0  0
  -28.6626  -17.9300   20.7206 C   0  0  0  0  0  0
  -31.0316  -17.8812   20.3323 C   0  0  0  0  0  0
  -29.8048  -20.0689   20.1527 C   0  0  0  0  0  0
  -29.8518  -17.1482   20.6236 C   0  0  0  0  0  0
  -29.8183  -21.5337   19.7250 C   0  0  0  0  0  0
  -29.1110  -24.0207   19.8406 C   0  0  0  0  0  0
  -28.1585  -25.0592   20.5506 C   0  0  0  0  0  0
  -29.7816  -15.6974   20.8343 N   0  0  0  0  0  0
  -29.0930  -22.5871   20.2567 N   0  0  0  0  0  0
  -30.6359  -21.7852   18.6964 N   0  3  0  0  0  0
  -29.8615  -24.4039   18.9324 O   0  0  0  0  0  0
  -31.4816  -12.5327   19.1518 H   0  0  0  0  0  0
  -30.3830  -11.4058   19.8984 H   0  0  0  0  0  0
  -29.7776  -11.7521   17.4843 H   0  0  0  0  0  0
  -29.6494  -13.4737   17.7395 H   0  0  0  0  0  0
  -27.8727  -11.2882   18.8709 H   0  0  0  0  0  0
  -27.3787  -12.5662   17.7928 H   0  0  0  0  0  0
  -27.6687  -14.2477   19.5157 H   0  0  0  0  0  0
  -28.7114  -12.0505   21.3733 H   0  0  0  0  0  0
  -28.4382  -13.7027   21.8448 H   0  0  0  0  0  0
  -25.2762   -9.5679   22.4756 H   0  0  0  0  0  0
  -24.0000   -7.4631   22.7474 H   0  0  0  0  0  0
  -21.0836   -8.8778   19.8956 H   0  0  0  0  0  0
  -22.3695  -10.9676   19.6170 H   0  0  0  0  0  0
  -21.2009   -7.6145   23.9716 H   0  0  0  0  0  0
  -21.1477   -6.0519   25.9077 H   0  0  0  0  0  0
  -22.0600   -2.7607   23.2846 H   0  0  0  0  0  0
  -22.4095  -11.9898   22.4811 H   0  0  0  0  0  0
  -21.1108  -13.1275   22.2612 H   0  0  0  0  0  0
  -24.6411  -15.8271   20.4704 H   0  0  0  0  0  0
  -26.2378  -15.6073   19.9683 H   0  0  0  0  0  0
  -26.7173  -32.5451   23.1099 H   0  0  0  0  0  0
  -25.0065  -33.9726   25.0422 H   0  0  0  0  0  0
  -22.7135  -31.3021   21.3995 H   0  0  0  0  0  0
  -23.3742  -35.9641   23.3325 H   0  0  0  0  0  0
  -24.3577  -36.8892   22.2050 H   0  0  0  0  0  0
  -23.7259  -37.6512   23.6646 H   0  0  0  0  0  0
  -26.0900  -31.5520   20.6027 H   0  0  0  0  0  0
  -26.8408  -30.8416   22.0010 H   0  0  0  0  0  0
  -28.1173  -28.9886   21.1896 H   0  0  0  0  0  0
  -26.0049  -25.9333   18.9896 H   0  0  0  0  0  0
  -23.9782  -27.3014   19.0097 H   0  0  0  0  0  0
  -23.7544  -30.5886   19.4025 H   0  0  0  0  0  0
  -22.7553  -29.2426   19.8596 H   0  0  0  0  0  0
  -25.1297  -36.1942   25.0823 H   0  0  0  0  0  0
  -20.9980  -28.3265   24.1405 H   0  0  0  0  0  0
  -20.5677  -26.2299   23.3609 H   0  0  0  0  0  0
  -21.6645  -26.7446   22.1200 H   0  0  0  0  0  0
  -19.6911  -25.6297   21.1241 H   0  0  0  0  0  0
  -19.6683  -27.3196   20.6741 H   0  0  0  0  0  0
  -17.4198  -26.6672   21.4035 H   0  0  0  0  0  0
  -18.0336  -26.0074   22.9027 H   0  0  0  0  0  0
  -19.7938  -30.7277   24.2261 H   0  0  0  0  0  0
  -17.5014  -31.6268   24.5168 H   0  0  0  0  0  0
  -15.5353  -30.2986   23.7653 H   0  0  0  0  0  0
  -15.8675  -28.0823   22.7059 H   0  0  0  0  0  0
  -24.5894  -30.7086   25.7782 H   0  0  0  0  0  0
  -24.8927  -32.2897   26.4884 H   0  0  0  0  0  0
  -25.8053  -30.8901   27.0221 H   0  0  0  0  0  0
  -26.2904  -29.6761   24.1203 H   0  0  0  0  0  0
  -27.4042  -29.7274   25.4674 H   0  0  0  0  0  0
  -27.8767  -30.4303   23.9384 H   0  0  0  0  0  0
  -27.2677  -33.3627   26.2054 H   0  0  0  0  0  0
  -28.3866  -32.6868   25.0307 H   0  0  0  0  0  0
  -28.0720  -31.8446   26.5403 H   0  0  0  0  0  0
  -28.2617  -38.0084   24.7488 H   0  0  0  0  0  0
  -28.1051  -36.2615   24.6333 H   0  0  0  0  0  0
  -27.2291  -37.1506   25.8873 H   0  0  0  0  0  0
  -20.9361  -29.8765   21.6890 H   0  0  0  0  0  0
  -26.0182  -38.2857   24.1376 H   0  0  0  0  0  0
  -27.6811  -19.8549   20.5262 H   0  0  0  0  0  0
  -31.9402  -19.7799   19.8768 H   0  0  0  0  0  0
  -27.7286  -17.4390   20.9544 H   0  0  0  0  0  0
  -31.9804  -17.3684   20.2613 H   0  0  0  0  0  0
  -28.3455  -25.0015   21.6228 H   0  0  0  0  0  0
  -27.1366  -24.7114   20.4104 H   0  0  0  0  0  0
  -28.8787  -15.3717   21.1405 H   0  0  0  0  0  0
  -28.4998  -22.2853   21.0149 H   0  0  0  0  0  0
  -31.1241  -21.0354   18.2330 H   0  0  0  0  0  0
  -30.7101  -22.7354   18.3527 H   0  0  0  0  0  0
  1 25  1  0  0  0
  1 30  2  0  0  0
  1 80  1  0  0  0
  2  3  1  0  0  0
  2 25  1  0  0  0
  2 84  1  0  0  0
  2 85  1  0  0  0
  3  4  1  0  0  0
  3 86  1  0  0  0
  3 87  1  0  0  0
  4  5  1  0  0  0
  4 88  1  0  0  0
  4 89  1  0  0  0
  5  6  1  0  0  0
  5 26  1  0  0  0
  5 90  1  0  0  0
  6 25  1  0  0  0
  6 91  1  0  0  0
  6 92  1  0  0  0
  7  8  2  0  0  0
  7 26  1  0  0  0
  7 29  1  0  0  0
  8  9  1  0  0  0
  8 22  1  0  0  0
  9 10  1  0  0  0
  9 27  2  0  0  0
 10 11  2  0  0  0
 10 15  1  0  0  0
 11 12  1  0  0  0
 11 93  1  0  0  0
 12 13  2  0  0  0
 12 94  1  0  0  0
 13 14  1  0  0  0
 13 31  1  0  0  0
 14 15  2  0  0  0
 14 95  1  0  0  0
 15 96  1  0  0  0
 16 17  2  0  0  0
 16 21  1  0  0  0
 16 31  1  0  0  0
 17 18  1  0  0  0
 17 97  1  0  0  0
 18 19  2  0  0  0
 18 98  1  0  0  0
 19 20  1  0  0  0
 19 24  1  0  0  0
 20 21  2  0  0  0
 20 99  1  0  0  0
 21 23  1  0  0  0
 22 28  1  0  0  0
 22 32  2  0  0  0
 26 27  1  0  0  0
 28100  1  0  0  0
 28101  1  0  0  0
 29102  1  0  0  0
 29103  1  0  0  0
 33 34  1  0  0  0
 33 66  1  0  0  0
 33 70  2  0  0  0
 34 36  1  0  0  0
 34 59  1  0  0  0
 34104  1  0  0  0
 35 44  2  0  0  0
 35 45  1  0  0  0
 35 68  1  0  0  0
 36 56  1  0  0  0
 36105  1  0  0  0
 37 39  1  0  0  0
 37 47  1  0  0  0
 37 66  1  0  0  0
 37106  1  0  0  0
 38 43  2  0  0  0
 38 46  1  0  0  0
 38 47  1  0  0  0
 39 64  1  0  0  0
 39 67  2  0  0  0
 40 52  1  0  0  0
 40 53  2  0  0  0
 40 58  1  0  0  0
 41107  1  0  0  0
 41108  1  0  0  0
 41109  1  0  0  0
 41 48  1  0  0  0
 42 43  1  0  0  0
 42 66  1  0  0  0
 42110  1  0  0  0
 42111  1  0  0  0
 43 44  1  0  0  0
 44112  1  0  0  0
 45 46  2  0  0  0
 45113  1  0  0  0
 46114  1  0  0  0
 47115  1  0  0  0
 47116  1  0  0  0
 48 56  1  0  0  0
 48 65  1  0  0  0
 48117  1  0  0  0
 49 50  1  0  0  0
 49 53  1  0  0  0
 49 64  1  0  0  0
 49118  1  0  0  0
 50 51  1  0  0  0
 50119  1  0  0  0
 50120  1  0  0  0
 51 52  1  0  0  0
 51121  1  0  0  0
 51122  1  0  0  0
 52123  1  0  0  0
 52124  1  0  0  0
 53 54  1  0  0  0
 54 55  2  0  0  0
 54125  1  0  0  0
 55 57  1  0  0  0
 55126  1  0  0  0
 56 69  2  0  0  0
 57 58  2  0  0  0
 57127  1  0  0  0
 58128  1  0  0  0
 59 60  1  0  0  0
 59 61  1  0  0  0
 59 62  1  0  0  0
 60129  1  0  0  0
 60130  1  0  0  0
 60131  1  0  0  0
 61132  1  0  0  0
 61133  1  0  0  0
 61134  1  0  0  0
 62135  1  0  0  0
 62136  1  0  0  0
 62137  1  0  0  0
 63 65  1  0  0  0
 63138  1  0  0  0
 63139  1  0  0  0
 63140  1  0  0  0
 64141  1  0  0  0
 65142  1  0  0  0
 68 79  1  0  0  0
 71 73  2  0  0  0
 71 75  1  0  0  0
 71143  1  0  0  0
 72 74  1  0  0  0
 72 75  2  0  0  0
 72144  1  0  0  0
 73 76  1  0  0  0
 73145  1  0  0  0
 74 76  2  0  0  0
 74146  1  0  0  0
 75 77  1  0  0  0
 76 80  1  0  0  0
 77 81  1  0  0  0
 77 82  2  0  0  0
 78 79  1  0  0  0
 78 81  1  0  0  0
 78 83  2  0  0  0
 79147  1  0  0  0
 79148  1  0  0  0
 80149  1  0  0  0
 81150  1  0  0  0
 82151  1  0  0  0
 82152  1  0  0  0
M  CHG  1  82   1
M  ISO  4   1 100  68 101  79 101  80 100
M  END
> <chiral flag>
0

> <version>
0

> <s_m_source_file>
/data/baiqing/PycharmProjects/Reinvent-master-3.2/result/LINK_invent/BTK/process_docking_weight1_custom_product_contain_oxygen_bond_distance_aromatic_linkinvent_7_9_3/rearranged_h_0072.sdf

> <i_m_source_file_index>
63

> <r_mmod_Potential_Energy-OPLS-2005>
-213.933837890625

> <r_mmod_Stretch_Energy-OPLS-2005>
85.8899307250977

> <r_mmod_Bend_Energy-OPLS-2005>
144.363891601562

> <r_mmod_Torsional_Energy-OPLS-2005>
224.400650024414

> <r_mmod_Improper_Torsional_Energy-OPLS-2005>
5.34828853607178

> <r_mmod_Van_der_Waal_Energy-OPLS-2005>
156.283920288086

> <r_mmod_Electrostatic_Energy-OPLS-2005>
-419.147979736328

> <r_mmod_Solvation_Energy-OPLS-2005>
-461.139282226562

> <b_mmod_Minimization_Converged-OPLS-2005>
0

> <r_mmod_RMS_Derivative-OPLS-2005>
0.407842755317688

$$$$
63
                    3D
 Structure written by MMmdl.
173182  0  0  1  0            999 V2000
  -30.7424  -14.4763   20.4491 C   0  0  0  0  0  0
  -30.4064  -12.2754   19.4438 C   0  0  0  0  0  0
  -29.4912  -12.4330   18.2139 C   0  0  0  0  0  0
  -28.0083  -12.3407   18.6225 C   0  0  0  0  0  0
  -27.6512  -13.2118   19.8595 C   0  0  2  0  0  0
  -28.7034  -13.0812   20.9850 C   0  0  0  0  0  0
  -25.2564  -13.8168   20.5708 C   0  0  0  0  0  0
  -24.1831  -13.0447   20.9221 C   0  0  0  0  0  0
  -24.6400  -11.6914   20.8771 C   0  0  0  0  0  0
  -23.9072  -10.4298   21.0417 C   0  0  0  0  0  0
  -24.3625   -9.4208   21.9193 C   0  0  0  0  0  0
  -23.6298   -8.2239   22.0760 C   0  0  0  0  0  0
  -22.4279   -8.0283   21.3541 C   0  0  0  0  0  0
  -21.9919   -9.0266   20.4646 C   0  0  0  0  0  0
  -22.7251  -10.2143   20.3060 C   0  0  0  0  0  0
  -21.6852   -6.0752   22.5288 C   0  0  0  0  0  0
  -21.4013   -6.5650   23.8225 C   0  0  0  0  0  0
  -21.3657   -5.6797   24.9183 C   0  0  0  0  0  0
  -21.6042   -4.3062   24.7226 C   0  0  0  0  0  0
  -21.8815   -3.8161   23.4345 C   0  0  0  0  0  0
  -21.9194   -4.6981   22.3406 C   0  0  0  0  0  0
  -22.7847  -13.5230   21.1868 C   0  0  0  0  0  0
  -22.1658   -4.2167   21.0981 F   0  0  0  0  0  0
  -21.5629   -3.4542   25.7737 F   0  0  0  0  0  0
  -30.0269  -13.3246   20.3986 N   0  0  0  0  0  0
  -26.2993  -12.9347   20.3363 N   0  0  0  0  0  0
  -25.9321  -11.6509   20.5814 N   0  0  0  0  0  0
  -22.0485  -12.8223   22.0415 N   0  0  0  0  0  0
  -25.4239  -15.1891   20.4085 N   0  0  0  0  0  0
  -31.9508  -14.5060   20.2214 O   0  0  0  0  0  0
  -21.6636   -6.8889   21.4245 O   0  0  0  0  0  0
  -22.3531  -14.5540   20.6719 O   0  0  0  0  0  0
  -24.6132  -31.8700   23.2147 C   0  0  0  0  0  0
  -25.9036  -32.4829   23.8432 C   0  0  1  0  0  0
  -27.2288  -27.4334   20.0985 C   0  0  0  0  0  0
  -25.5897  -33.8629   24.2350 N   0  0  0  0  0  0
  -23.3996  -30.4959   21.5554 C   0  0  2  0  0  0
  -24.8432  -28.9666   20.1177 C   0  0  0  0  0  0
  -22.7411  -29.4660   22.5018 C   0  0  0  0  0  0
  -18.0276  -28.1358   22.8477 C   0  0  0  0  0  0
  -24.1491  -36.7308   23.2641 C   0  0  0  0  0  0
  -25.9296  -30.8344   21.3709 C   0  0  0  0  0  0
  -26.0038  -29.4702   20.7172 C   0  0  0  0  0  0
  -27.1946  -28.7098   20.7073 C   0  0  0  0  0  0
  -26.0474  -26.9549   19.4778 C   0  0  0  0  0  0
  -24.8610  -27.7088   19.4967 C   0  0  0  0  0  0
  -23.6064  -29.8344   20.1679 C   0  0  0  0  0  0
  -25.4112  -36.3111   24.0340 C   0  0  1  0  0  0
  -20.5860  -28.3646   23.1318 C   0  0  2  0  0  0
  -20.6768  -26.9384   22.5412 C   0  0  0  0  0  0
  -19.5749  -26.6365   21.5203 C   0  0  0  0  0  0
  -18.1925  -26.7901   22.1610 C   0  0  0  0  0  0
  -19.1524  -28.8822   23.2893 C   0  0  0  0  0  0
  -18.9453  -30.1431   23.8895 C   0  0  0  0  0  0
  -17.6454  -30.6568   24.0550 C   0  0  0  0  0  0
  -25.9035  -34.9474   23.5142 C   0  0  0  0  0  0
  -16.5347  -29.9062   23.6325 C   0  0  0  0  0  0
  -16.7263  -28.6486   23.0328 C   0  0  0  0  0  0
  -26.4477  -31.6603   25.0748 C   0  0  0  0  0  0
  -25.3739  -31.3699   26.1492 C   0  0  0  0  0  0
  -27.0315  -30.3050   24.6110 C   0  0  0  0  0  0
  -27.6057  -32.4331   25.7489 C   0  0  0  0  0  0
  -27.5596  -37.1809   24.8470 C   0  0  0  0  0  0
  -21.4142  -29.3021   22.3740 N   0  0  0  0  0  0
  -26.4304  -37.3788   23.9416 N   0  0  0  0  0  0
  -24.6654  -31.0815   22.1044 N   0  0  0  0  0  0
  -23.4192  -28.8194   23.3047 O   0  0  0  0  0  0
  -28.4252  -26.7395   20.1108 O   0  0  0  0  0  0
  -26.5585  -34.8907   22.4695 O   0  0  0  0  0  0
  -23.5329  -32.1451   23.7543 O   0  0  0  0  0  0
  -28.9563  -18.6773   20.6036 C   0  0  0  0  0  0
  -28.7147  -20.0197   20.9596 C   0  0  0  0  0  0
  -31.0638  -20.3076   21.4411 C   0  0  0  0  0  0
  -30.2702  -18.1658   20.5490 C   0  0  0  0  0  0
  -31.3190  -18.9697   21.0735 C   0  0  0  0  0  0
  -29.7814  -20.8921   21.2997 C   0  0  0  0  0  0
  -28.5438  -23.0853   21.1912 C   0  0  0  0  0  0
  -30.3405  -24.6409   21.5597 C   0  0  0  0  0  0
  -30.7880  -23.1834   21.7264 C   0  0  0  0  0  0
  -28.8430  -24.5845   21.2510 C   0  0  1  0  0  0
  -32.7490  -18.4669   21.2052 C   0  0  0  0  0  0
  -31.2827  -16.1129   17.4274 C   0  0  0  0  0  0
  -30.4133  -18.4075   17.6883 C   0  0  0  0  0  0
  -28.8525  -16.4635   17.8431 C   0  0  0  0  0  0
  -28.4448  -25.3120   19.9436 C   0  0  0  0  0  0
  -30.5493  -16.8593   19.7744 C   0  0  2  0  0  0
  -30.2633  -16.9614   18.2202 C   0  0  0  0  0  0
  -29.6331  -22.3250   21.4499 N   0  0  0  0  0  0
  -30.0256  -15.6159   20.3870 N   0  0  0  0  0  0
  -27.4016  -22.6832   20.9524 O   0  0  0  0  0  0
  -31.4538  -12.3313   19.1403 H   0  0  0  0  0  0
  -30.2800  -11.2916   19.8978 H   0  0  0  0  0  0
  -29.7192  -11.6588   17.4801 H   0  0  0  0  0  0
  -29.6863  -13.3800   17.7155 H   0  0  0  0  0  0
  -27.7969  -11.2925   18.8352 H   0  0  0  0  0  0
  -27.3701  -12.6086   17.7800 H   0  0  0  0  0  0
  -27.6610  -14.2461   19.5254 H   0  0  0  0  0  0
  -28.6726  -12.0857   21.4301 H   0  0  0  0  0  0
  -28.4961  -13.7873   21.7917 H   0  0  0  0  0  0
  -25.2767   -9.5688   22.4769 H   0  0  0  0  0  0
  -24.0021   -7.4625   22.7467 H   0  0  0  0  0  0
  -21.0860   -8.8779   19.8937 H   0  0  0  0  0  0
  -22.3712  -10.9687   19.6169 H   0  0  0  0  0  0
  -21.1998   -7.6156   23.9735 H   0  0  0  0  0  0
  -21.1481   -6.0524   25.9087 H   0  0  0  0  0  0
  -22.0594   -2.7623   23.2840 H   0  0  0  0  0  0
  -22.4101  -11.9883   22.4796 H   0  0  0  0  0  0
  -21.1091  -13.1233   22.2609 H   0  0  0  0  0  0
  -24.6520  -15.8379   20.5172 H   0  0  0  0  0  0
  -26.2680  -15.6326   20.0726 H   0  0  0  0  0  0
  -26.7097  -32.5532   23.1187 H   0  0  0  0  0  0
  -25.0064  -33.9797   25.0506 H   0  0  0  0  0  0
  -22.6868  -31.3121   21.4222 H   0  0  0  0  0  0
  -23.3749  -35.9656   23.3313 H   0  0  0  0  0  0
  -24.3590  -36.8900   22.2060 H   0  0  0  0  0  0
  -23.7249  -37.6516   23.6642 H   0  0  0  0  0  0
  -26.0470  -31.6047   20.6076 H   0  0  0  0  0  0
  -26.8141  -30.8793   21.9944 H   0  0  0  0  0  0
  -28.0895  -29.0970   21.1741 H   0  0  0  0  0  0
  -25.9980  -26.0192   18.9438 H   0  0  0  0  0  0
  -23.9726  -27.3225   19.0159 H   0  0  0  0  0  0
  -23.7167  -30.6129   19.4118 H   0  0  0  0  0  0
  -22.7288  -29.2571   19.8702 H   0  0  0  0  0  0
  -25.1288  -36.1993   25.0834 H   0  0  0  0  0  0
  -20.9947  -28.3202   24.1438 H   0  0  0  0  0  0
  -20.5688  -26.2247   23.3596 H   0  0  0  0  0  0
  -21.6640  -26.7438   22.1201 H   0  0  0  0  0  0
  -19.6921  -25.6282   21.1215 H   0  0  0  0  0  0
  -19.6692  -27.3192   20.6746 H   0  0  0  0  0  0
  -17.4202  -26.6653   21.4000 H   0  0  0  0  0  0
  -18.0327  -26.0039   22.9002 H   0  0  0  0  0  0
  -19.7939  -30.7233   24.2262 H   0  0  0  0  0  0
  -17.5016  -31.6251   24.5141 H   0  0  0  0  0  0
  -15.5349  -30.2951   23.7656 H   0  0  0  0  0  0
  -15.8664  -28.0807   22.7025 H   0  0  0  0  0  0
  -24.5915  -30.7038   25.7830 H   0  0  0  0  0  0
  -24.8925  -32.2853   26.4946 H   0  0  0  0  0  0
  -25.8092  -30.8873   27.0246 H   0  0  0  0  0  0
  -26.2864  -29.6800   24.1175 H   0  0  0  0  0  0
  -27.4103  -29.7299   25.4566 H   0  0  0  0  0  0
  -27.8690  -30.4380   23.9258 H   0  0  0  0  0  0
  -27.2684  -33.3627   26.2084 H   0  0  0  0  0  0
  -28.3850  -32.6885   25.0297 H   0  0  0  0  0  0
  -28.0734  -31.8439   26.5383 H   0  0  0  0  0  0
  -28.2599  -38.0116   24.7506 H   0  0  0  0  0  0
  -28.1084  -36.2634   24.6298 H   0  0  0  0  0  0
  -27.2294  -37.1466   25.8864 H   0  0  0  0  0  0
  -20.9305  -29.8747   21.6962 H   0  0  0  0  0  0
  -26.0187  -38.2862   24.1414 H   0  0  0  0  0  0
  -28.1252  -18.0800   20.2628 H   0  0  0  0  0  0
  -27.6937  -20.3601   20.8890 H   0  0  0  0  0  0
  -31.9041  -20.8978   21.7746 H   0  0  0  0  0  0
  -30.8975  -25.1187   20.7503 H   0  0  0  0  0  0
  -30.5378  -25.2155   22.4659 H   0  0  0  0  0  0
  -31.1586  -23.0012   22.7370 H   0  0  0  0  0  0
  -31.5970  -22.9722   21.0262 H   0  0  0  0  0  0
  -28.2716  -24.9888   22.0872 H   0  0  0  0  0  0
  -33.3429  -19.1206   21.8453 H   0  0  0  0  0  0
  -33.2399  -18.4215   20.2326 H   0  0  0  0  0  0
  -32.7684  -17.4752   21.6582 H   0  0  0  0  0  0
  -31.0875  -16.1547   16.3547 H   0  0  0  0  0  0
  -31.2595  -15.0623   17.7071 H   0  0  0  0  0  0
  -32.3022  -16.4676   17.5820 H   0  0  0  0  0  0
  -30.3585  -18.4409   16.5998 H   0  0  0  0  0  0
  -31.3718  -18.8426   17.9764 H   0  0  0  0  0  0
  -29.6272  -19.0687   18.0503 H   0  0  0  0  0  0
  -28.6420  -16.6363   16.7877 H   0  0  0  0  0  0
  -28.0702  -16.9672   18.4061 H   0  0  0  0  0  0
  -28.7452  -15.3948   18.0027 H   0  0  0  0  0  0
  -27.5178  -24.8847   19.5777 H   0  0  0  0  0  0
  -29.1740  -25.0870   19.1652 H   0  0  0  0  0  0
  -31.6313  -16.7895   19.8023 H   0  0  0  0  0  0
  -29.0299  -15.5510   20.5175 H   0  0  0  0  0  0
  1 25  1  0  0  0
  1 30  2  0  0  0
  1 89  1  0  0  0
  2  3  1  0  0  0
  2 25  1  0  0  0
  2 91  1  0  0  0
  2 92  1  0  0  0
  3  4  1  0  0  0
  3 93  1  0  0  0
  3 94  1  0  0  0
  4  5  1  0  0  0
  4 95  1  0  0  0
  4 96  1  0  0  0
  5  6  1  0  0  0
  5 26  1  0  0  0
  5 97  1  0  0  0
  6 25  1  0  0  0
  6 98  1  0  0  0
  6 99  1  0  0  0
  7  8  2  0  0  0
  7 26  1  0  0  0
  7 29  1  0  0  0
  8  9  1  0  0  0
  8 22  1  0  0  0
  9 10  1  0  0  0
  9 27  2  0  0  0
 10 11  2  0  0  0
 10 15  1  0  0  0
 11 12  1  0  0  0
 11100  1  0  0  0
 12 13  2  0  0  0
 12101  1  0  0  0
 13 14  1  0  0  0
 13 31  1  0  0  0
 14 15  2  0  0  0
 14102  1  0  0  0
 15103  1  0  0  0
 16 17  2  0  0  0
 16 21  1  0  0  0
 16 31  1  0  0  0
 17 18  1  0  0  0
 17104  1  0  0  0
 18 19  2  0  0  0
 18105  1  0  0  0
 19 20  1  0  0  0
 19 24  1  0  0  0
 20 21  2  0  0  0
 20106  1  0  0  0
 21 23  1  0  0  0
 22 28  1  0  0  0
 22 32  2  0  0  0
 26 27  1  0  0  0
 28107  1  0  0  0
 28108  1  0  0  0
 29109  1  0  0  0
 29110  1  0  0  0
 33 34  1  0  0  0
 33 66  1  0  0  0
 33 70  2  0  0  0
 34 36  1  0  0  0
 34 59  1  0  0  0
 34111  1  0  0  0
 35 44  2  0  0  0
 35 45  1  0  0  0
 35 68  1  0  0  0
 36 56  1  0  0  0
 36112  1  0  0  0
 37 39  1  0  0  0
 37 47  1  0  0  0
 37 66  1  0  0  0
 37113  1  0  0  0
 38 43  2  0  0  0
 38 46  1  0  0  0
 38 47  1  0  0  0
 39 64  1  0  0  0
 39 67  2  0  0  0
 40 52  1  0  0  0
 40 53  2  0  0  0
 40 58  1  0  0  0
 41114  1  0  0  0
 41115  1  0  0  0
 41116  1  0  0  0
 41 48  1  0  0  0
 42 43  1  0  0  0
 42 66  1  0  0  0
 42117  1  0  0  0
 42118  1  0  0  0
 43 44  1  0  0  0
 44119  1  0  0  0
 45 46  2  0  0  0
 45120  1  0  0  0
 46121  1  0  0  0
 47122  1  0  0  0
 47123  1  0  0  0
 48 56  1  0  0  0
 48 65  1  0  0  0
 48124  1  0  0  0
 49 50  1  0  0  0
 49 53  1  0  0  0
 49 64  1  0  0  0
 49125  1  0  0  0
 50 51  1  0  0  0
 50126  1  0  0  0
 50127  1  0  0  0
 51 52  1  0  0  0
 51128  1  0  0  0
 51129  1  0  0  0
 52130  1  0  0  0
 52131  1  0  0  0
 53 54  1  0  0  0
 54 55  2  0  0  0
 54132  1  0  0  0
 55 57  1  0  0  0
 55133  1  0  0  0
 56 69  2  0  0  0
 57 58  2  0  0  0
 57134  1  0  0  0
 58135  1  0  0  0
 59 60  1  0  0  0
 59 61  1  0  0  0
 59 62  1  0  0  0
 60136  1  0  0  0
 60137  1  0  0  0
 60138  1  0  0  0
 61139  1  0  0  0
 61140  1  0  0  0
 61141  1  0  0  0
 62142  1  0  0  0
 62143  1  0  0  0
 62144  1  0  0  0
 63 65  1  0  0  0
 63145  1  0  0  0
 63146  1  0  0  0
 63147  1  0  0  0
 64148  1  0  0  0
 65149  1  0  0  0
 68 85  1  0  0  0
 71 72  2  0  0  0
 71 74  1  0  0  0
 71150  1  0  0  0
 72 76  1  0  0  0
 72151  1  0  0  0
 73 75  1  0  0  0
 73 76  2  0  0  0
 73152  1  0  0  0
 74 75  2  0  0  0
 74 86  1  0  0  0
 75 81  1  0  0  0
 76 88  1  0  0  0
 77 80  1  0  0  0
 77 88  1  0  0  0
 77 90  2  0  0  0
 78 79  1  0  0  0
 78 80  1  0  0  0
 78153  1  0  0  0
 78154  1  0  0  0
 79 88  1  0  0  0
 79155  1  0  0  0
 79156  1  0  0  0
 80 85  1  0  0  0
 80157  1  0  0  0
 81158  1  0  0  0
 81159  1  0  0  0
 81160  1  0  0  0
 82161  1  0  0  0
 82162  1  0  0  0
 82163  1  0  0  0
 82 87  1  0  0  0
 83 87  1  0  0  0
 83164  1  0  0  0
 83165  1  0  0  0
 83166  1  0  0  0
 84 87  1  0  0  0
 84167  1  0  0  0
 84168  1  0  0  0
 84169  1  0  0  0
 85170  1  0  0  0
 85171  1  0  0  0
 86 87  1  0  0  0
 86 89  1  0  0  0
 86172  1  0  0  0
 89173  1  0  0  0
M  ISO  4   1 100  68 101  85 101  89 100
M  END
> <chiral flag>
0

> <version>
0

> <s_m_source_file>
/data/baiqing/PycharmProjects/Reinvent-master-3.2/result/LINK_invent/BTK/process_docking_weight1_custom_product_contain_oxygen_bond_distance_aromatic_linkinvent_7_9_3/rearranged_h_0072.sdf

> <i_m_source_file_index>
64

> <r_mmod_Potential_Energy-OPLS-2005>
61.0940399169922

> <r_mmod_Stretch_Energy-OPLS-2005>
45.3906021118164

> <r_mmod_Bend_Energy-OPLS-2005>
140.976989746094

> <r_mmod_Torsional_Energy-OPLS-2005>
296.779541015625

> <r_mmod_Improper_Torsional_Energy-OPLS-2005>
11.8571872711182

> <r_mmod_Van_der_Waal_Energy-OPLS-2005>
174.978500366211

> <r_mmod_Electrostatic_Energy-OPLS-2005>
-433.92333984375

> <r_mmod_Solvation_Energy-OPLS-2005>
-202.829208374023

> <b_mmod_Minimization_Converged-OPLS-2005>
0

> <r_mmod_RMS_Derivative-OPLS-2005>
1.94920480251312

$$$$
64
                    3D
 Structure written by MMmdl.
158167  0  0  1  0            999 V2000
  -30.6075  -14.8248   20.4489 C   0  0  0  0  0  0
  -30.4348  -12.5119   19.4787 C   0  0  0  0  0  0
  -29.5110  -12.5050   18.2409 C   0  0  0  0  0  0
  -28.0422  -12.3116   18.6647 C   0  0  0  0  0  0
  -27.6344  -13.2383   19.8407 C   0  0  2  0  0  0
  -28.6811  -13.2319   20.9759 C   0  0  0  0  0  0
  -25.2485  -13.8198   20.5715 C   0  0  0  0  0  0
  -24.1788  -13.0439   20.9228 C   0  0  0  0  0  0
  -24.6391  -11.6923   20.8764 C   0  0  0  0  0  0
  -23.9078  -10.4294   21.0414 C   0  0  0  0  0  0
  -24.3625   -9.4206   21.9195 C   0  0  0  0  0  0
  -23.6290   -8.2242   22.0764 C   0  0  0  0  0  0
  -22.4272   -8.0289   21.3555 C   0  0  0  0  0  0
  -21.9911   -9.0265   20.4657 C   0  0  0  0  0  0
  -22.7250  -10.2139   20.3066 C   0  0  0  0  0  0
  -21.6851   -6.0736   22.5275 C   0  0  0  0  0  0
  -21.4014   -6.5643   23.8209 C   0  0  0  0  0  0
  -21.3659   -5.6792   24.9171 C   0  0  0  0  0  0
  -21.6040   -4.3057   24.7217 C   0  0  0  0  0  0
  -21.8817   -3.8150   23.4337 C   0  0  0  0  0  0
  -21.9194   -4.6968   22.3397 C   0  0  0  0  0  0
  -22.7811  -13.5221   21.1869 C   0  0  0  0  0  0
  -22.1664   -4.2157   21.0972 F   0  0  0  0  0  0
  -21.5628   -3.4540   25.7734 F   0  0  0  0  0  0
  -29.9689  -13.6001   20.3750 N   0  0  0  0  0  0
  -26.2910  -12.9421   20.3266 N   0  0  0  0  0  0
  -25.9321  -11.6560   20.5747 N   0  0  0  0  0  0
  -22.0450  -12.8223   22.0424 N   0  0  0  0  0  0
  -25.4155  -15.1927   20.4134 N   0  0  0  0  0  0
  -31.8106  -14.8665   20.1762 O   0  0  0  0  0  0
  -21.6639   -6.8881   21.4239 O   0  0  0  0  0  0
  -22.3505  -14.5529   20.6711 O   0  0  0  0  0  0
  -24.6349  -31.8507   23.1946 C   0  0  0  0  0  0
  -25.9161  -32.4723   23.8302 C   0  0  1  0  0  0
  -27.2140  -27.2138   20.1408 C   0  0  0  0  0  0
  -25.5928  -33.8530   24.2223 N   0  0  0  0  0  0
  -23.4350  -30.4726   21.5379 C   0  0  2  0  0  0
  -24.8826  -28.9126   20.1085 C   0  0  0  0  0  0
  -22.7522  -29.4580   22.4882 C   0  0  0  0  0  0
  -18.0303  -28.1400   22.8485 C   0  0  0  0  0  0
  -24.1489  -36.7278   23.2638 C   0  0  0  0  0  0
  -25.9842  -30.7500   21.3806 C   0  0  0  0  0  0
  -26.0562  -29.3692   20.7210 C   0  0  0  0  0  0
  -27.2249  -28.5338   20.7218 C   0  0  0  0  0  0
  -26.0168  -26.8391   19.4913 C   0  0  0  0  0  0
  -24.8708  -27.6591   19.4800 C   0  0  0  0  0  0
  -23.6573  -29.8065   20.1544 C   0  0  0  0  0  0
  -25.4117  -36.3054   24.0316 C   0  0  1  0  0  0
  -20.5907  -28.3718   23.1254 C   0  0  2  0  0  0
  -20.6788  -26.9429   22.5404 C   0  0  0  0  0  0
  -19.5757  -26.6392   21.5211 C   0  0  0  0  0  0
  -18.1944  -26.7944   22.1626 C   0  0  0  0  0  0
  -19.1555  -28.8872   23.2872 C   0  0  0  0  0  0
  -18.9469  -30.1473   23.8892 C   0  0  0  0  0  0
  -17.6465  -30.6595   24.0572 C   0  0  0  0  0  0
  -25.9061  -34.9422   23.5078 C   0  0  0  0  0  0
  -16.5358  -29.9097   23.6333 C   0  0  0  0  0  0
  -16.7288  -28.6518   23.0350 C   0  0  0  0  0  0
  -26.4508  -31.6566   25.0712 C   0  0  0  0  0  0
  -25.3717  -31.3735   26.1424 C   0  0  0  0  0  0
  -27.0353  -30.2964   24.6245 C   0  0  0  0  0  0
  -27.6051  -32.4313   25.7492 C   0  0  0  0  0  0
  -27.5582  -37.1791   24.8463 C   0  0  0  0  0  0
  -21.4220  -29.3057   22.3631 N   0  0  0  0  0  0
  -26.4290  -37.3756   23.9410 N   0  0  0  0  0  0
  -24.7040  -31.0434   22.0938 N   0  0  0  0  0  0
  -23.4197  -28.8124   23.2999 O   0  0  0  0  0  0
  -28.2899  -26.2832   20.2163 O   0  0  0  0  0  0
  -26.5654  -34.8902   22.4659 O   0  0  0  0  0  0
  -23.5481  -32.1338   23.7214 O   0  0  0  0  0  0
  -29.5003  -18.6795   20.5156 C   0  0  0  0  0  0
  -31.5346  -17.6652   21.3591 C   0  0  0  0  0  0
  -31.1999  -20.1080   21.4472 C   0  0  0  0  0  0
  -29.9168  -20.0723   20.8098 C   0  0  0  0  0  0
  -30.2739  -17.4468   20.7788 C   0  0  0  0  0  0
  -31.9810  -18.9512   21.6830 C   0  0  0  0  0  0
  -28.5163  -22.3533   21.3739 C   0  0  0  0  0  0
  -29.6184  -22.4214   19.6138 C   0  0  0  0  0  0
  -29.1085  -23.6078   20.5497 C   0  0  2  0  0  0
  -31.7978  -21.4126   21.9454 C   0  0  0  0  0  0
  -30.1547  -24.3337   21.4172 C   0  0  0  0  0  0
  -28.0447  -24.7775   20.0826 C   0  0  0  0  0  0
  -29.1689  -21.3772   20.5681 N   0  0  0  0  0  0
  -29.8553  -16.0096   20.5672 N   0  0  0  0  0  0
  -27.8654  -22.2136   22.3869 O   0  0  0  0  0  0
  -33.2018  -19.0634   22.2618 F   0  0  0  0  0  0
  -31.4721  -12.6466   19.1666 H   0  0  0  0  0  0
  -30.4028  -11.5518   19.9966 H   0  0  0  0  0  0
  -29.8077  -11.7131   17.5520 H   0  0  0  0  0  0
  -29.6189  -13.4429   17.6928 H   0  0  0  0  0  0
  -27.9251  -11.2688   18.9642 H   0  0  0  0  0  0
  -27.3777  -12.4606   17.8123 H   0  0  0  0  0  0
  -27.6094  -14.2465   19.4271 H   0  0  0  0  0  0
  -28.7417  -12.2521   21.4534 H   0  0  0  0  0  0
  -28.4046  -13.9428   21.7572 H   0  0  0  0  0  0
  -25.2766   -9.5679   22.4776 H   0  0  0  0  0  0
  -24.0004   -7.4628   22.7479 H   0  0  0  0  0  0
  -21.0848   -8.8778   19.8961 H   0  0  0  0  0  0
  -22.3706  -10.9678   19.6179 H   0  0  0  0  0  0
  -21.2008   -7.6155   23.9711 H   0  0  0  0  0  0
  -21.1485   -6.0529   25.9074 H   0  0  0  0  0  0
  -22.0598   -2.7615   23.2831 H   0  0  0  0  0  0
  -22.4064  -11.9903   22.4842 H   0  0  0  0  0  0
  -21.1062  -13.1260   22.2599 H   0  0  0  0  0  0
  -24.6434  -15.8418   20.5190 H   0  0  0  0  0  0
  -26.2529  -15.6340   20.0551 H   0  0  0  0  0  0
  -26.7231  -32.5359   23.1041 H   0  0  0  0  0  0
  -25.0038  -33.9662   25.0343 H   0  0  0  0  0  0
  -22.7344  -31.2971   21.3884 H   0  0  0  0  0  0
  -23.3745  -35.9614   23.3282 H   0  0  0  0  0  0
  -24.3585  -36.8928   22.2057 H   0  0  0  0  0  0
  -23.7241  -37.6467   23.6687 H   0  0  0  0  0  0
  -26.1267  -31.5100   20.6116 H   0  0  0  0  0  0
  -26.8589  -30.7996   22.0173 H   0  0  0  0  0  0
  -28.1215  -28.8758   21.2194 H   0  0  0  0  0  0
  -25.9358  -25.8807   19.0006 H   0  0  0  0  0  0
  -23.9730  -27.3050   18.9911 H   0  0  0  0  0  0
  -23.7903  -30.5823   19.3993 H   0  0  0  0  0  0
  -22.7738  -29.2459   19.8446 H   0  0  0  0  0  0
  -25.1298  -36.1888   25.0805 H   0  0  0  0  0  0
  -21.0011  -28.3300   24.1368 H   0  0  0  0  0  0
  -20.5675  -26.2330   23.3614 H   0  0  0  0  0  0
  -21.6658  -26.7446   22.1196 H   0  0  0  0  0  0
  -19.6921  -25.6295   21.1257 H   0  0  0  0  0  0
  -19.6690  -27.3191   20.6725 H   0  0  0  0  0  0
  -17.4209  -26.6685   21.4040 H   0  0  0  0  0  0
  -18.0354  -26.0095   22.9023 H   0  0  0  0  0  0
  -19.7941  -30.7305   24.2250 H   0  0  0  0  0  0
  -17.5015  -31.6271   24.5180 H   0  0  0  0  0  0
  -15.5360  -30.2996   23.7653 H   0  0  0  0  0  0
  -15.8692  -28.0838   22.7054 H   0  0  0  0  0  0
  -24.5900  -30.7076   25.7756 H   0  0  0  0  0  0
  -24.8892  -32.2904   26.4813 H   0  0  0  0  0  0
  -25.8011  -30.8933   27.0226 H   0  0  0  0  0  0
  -26.2945  -29.6705   24.1252 H   0  0  0  0  0  0
  -27.3986  -29.7239   25.4792 H   0  0  0  0  0  0
  -27.8849  -30.4204   23.9527 H   0  0  0  0  0  0
  -27.2659  -33.3628   26.2033 H   0  0  0  0  0  0
  -28.3879  -32.6848   25.0335 H   0  0  0  0  0  0
  -28.0704  -31.8462   26.5435 H   0  0  0  0  0  0
  -28.2580  -38.0107   24.7523 H   0  0  0  0  0  0
  -28.1095  -36.2633   24.6265 H   0  0  0  0  0  0
  -27.2313  -37.1418   25.8872 H   0  0  0  0  0  0
  -20.9412  -29.8772   21.6823 H   0  0  0  0  0  0
  -26.0157  -38.2822   24.1419 H   0  0  0  0  0  0
  -28.5241  -18.5545   20.0705 H   0  0  0  0  0  0
  -32.1888  -16.8440   21.6092 H   0  0  0  0  0  0
  -30.6932  -22.4320   19.4316 H   0  0  0  0  0  0
  -29.0784  -22.3585   18.6666 H   0  0  0  0  0  0
  -32.1858  -21.9917   21.1102 H   0  0  0  0  0  0
  -32.6255  -21.2574   22.6363 H   0  0  0  0  0  0
  -31.0608  -21.9849   22.5035 H   0  0  0  0  0  0
  -31.1442  -23.8994   21.3307 H   0  0  0  0  0  0
  -29.8819  -24.3390   22.4737 H   0  0  0  0  0  0
  -30.2952  -25.3728   21.1249 H   0  0  0  0  0  0
  -27.1060  -24.5820   20.6034 H   0  0  0  0  0  0
  -27.8189  -24.6067   19.0289 H   0  0  0  0  0  0
  -28.8584  -15.8569   20.5418 H   0  0  0  0  0  0
  1 25  1  0  0  0
  1 30  2  0  0  0
  1 84  1  0  0  0
  2  3  1  0  0  0
  2 25  1  0  0  0
  2 87  1  0  0  0
  2 88  1  0  0  0
  3  4  1  0  0  0
  3 89  1  0  0  0
  3 90  1  0  0  0
  4  5  1  0  0  0
  4 91  1  0  0  0
  4 92  1  0  0  0
  5  6  1  0  0  0
  5 26  1  0  0  0
  5 93  1  0  0  0
  6 25  1  0  0  0
  6 94  1  0  0  0
  6 95  1  0  0  0
  7  8  2  0  0  0
  7 26  1  0  0  0
  7 29  1  0  0  0
  8  9  1  0  0  0
  8 22  1  0  0  0
  9 10  1  0  0  0
  9 27  2  0  0  0
 10 11  2  0  0  0
 10 15  1  0  0  0
 11 12  1  0  0  0
 11 96  1  0  0  0
 12 13  2  0  0  0
 12 97  1  0  0  0
 13 14  1  0  0  0
 13 31  1  0  0  0
 14 15  2  0  0  0
 14 98  1  0  0  0
 15 99  1  0  0  0
 16 17  2  0  0  0
 16 21  1  0  0  0
 16 31  1  0  0  0
 17 18  1  0  0  0
 17100  1  0  0  0
 18 19  2  0  0  0
 18101  1  0  0  0
 19 20  1  0  0  0
 19 24  1  0  0  0
 20 21  2  0  0  0
 20102  1  0  0  0
 21 23  1  0  0  0
 22 28  1  0  0  0
 22 32  2  0  0  0
 26 27  1  0  0  0
 28103  1  0  0  0
 28104  1  0  0  0
 29105  1  0  0  0
 29106  1  0  0  0
 33 34  1  0  0  0
 33 66  1  0  0  0
 33 70  2  0  0  0
 34 36  1  0  0  0
 34 59  1  0  0  0
 34107  1  0  0  0
 35 44  2  0  0  0
 35 45  1  0  0  0
 35 68  1  0  0  0
 36 56  1  0  0  0
 36108  1  0  0  0
 37 39  1  0  0  0
 37 47  1  0  0  0
 37 66  1  0  0  0
 37109  1  0  0  0
 38 43  2  0  0  0
 38 46  1  0  0  0
 38 47  1  0  0  0
 39 64  1  0  0  0
 39 67  2  0  0  0
 40 52  1  0  0  0
 40 53  2  0  0  0
 40 58  1  0  0  0
 41110  1  0  0  0
 41111  1  0  0  0
 41112  1  0  0  0
 41 48  1  0  0  0
 42 43  1  0  0  0
 42 66  1  0  0  0
 42113  1  0  0  0
 42114  1  0  0  0
 43 44  1  0  0  0
 44115  1  0  0  0
 45 46  2  0  0  0
 45116  1  0  0  0
 46117  1  0  0  0
 47118  1  0  0  0
 47119  1  0  0  0
 48 56  1  0  0  0
 48 65  1  0  0  0
 48120  1  0  0  0
 49 50  1  0  0  0
 49 53  1  0  0  0
 49 64  1  0  0  0
 49121  1  0  0  0
 50 51  1  0  0  0
 50122  1  0  0  0
 50123  1  0  0  0
 51 52  1  0  0  0
 51124  1  0  0  0
 51125  1  0  0  0
 52126  1  0  0  0
 52127  1  0  0  0
 53 54  1  0  0  0
 54 55  2  0  0  0
 54128  1  0  0  0
 55 57  1  0  0  0
 55129  1  0  0  0
 56 69  2  0  0  0
 57 58  2  0  0  0
 57130  1  0  0  0
 58131  1  0  0  0
 59 60  1  0  0  0
 59 61  1  0  0  0
 59 62  1  0  0  0
 60132  1  0  0  0
 60133  1  0  0  0
 60134  1  0  0  0
 61135  1  0  0  0
 61136  1  0  0  0
 61137  1  0  0  0
 62138  1  0  0  0
 62139  1  0  0  0
 62140  1  0  0  0
 63 65  1  0  0  0
 63141  1  0  0  0
 63142  1  0  0  0
 63143  1  0  0  0
 64144  1  0  0  0
 65145  1  0  0  0
 68 82  1  0  0  0
 71 74  2  0  0  0
 71 75  1  0  0  0
 71146  1  0  0  0
 72 75  2  0  0  0
 72 76  1  0  0  0
 72147  1  0  0  0
 73 74  1  0  0  0
 73 76  2  0  0  0
 73 80  1  0  0  0
 74 83  1  0  0  0
 75 84  1  0  0  0
 76 86  1  0  0  0
 77 79  1  0  0  0
 77 83  1  0  0  0
 77 85  2  0  0  0
 78 79  1  0  0  0
 78 83  1  0  0  0
 78148  1  0  0  0
 78149  1  0  0  0
 79 81  1  0  0  0
 79 82  1  0  0  0
 80150  1  0  0  0
 80151  1  0  0  0
 80152  1  0  0  0
 81153  1  0  0  0
 81154  1  0  0  0
 81155  1  0  0  0
 82156  1  0  0  0
 82157  1  0  0  0
 84158  1  0  0  0
M  ISO  4   1 100  68 101  82 101  84 100
M  END
> <chiral flag>
0

> <version>
0

> <s_m_source_file>
/data/baiqing/PycharmProjects/Reinvent-master-3.2/result/LINK_invent/BTK/process_docking_weight1_custom_product_contain_oxygen_bond_distance_aromatic_linkinvent_7_9_3/rearranged_h_0072.sdf

> <i_m_source_file_index>
65

> <r_mmod_Potential_Energy-OPLS-2005>
377.478637695312

> <r_mmod_Stretch_Energy-OPLS-2005>
180.08837890625

> <r_mmod_Bend_Energy-OPLS-2005>
210.825607299805

> <r_mmod_Torsional_Energy-OPLS-2005>
285.080200195312

> <r_mmod_Improper_Torsional_Energy-OPLS-2005>
9.78665542602539

> <r_mmod_Van_der_Waal_Energy-OPLS-2005>
148.704299926758

> <r_mmod_Electrostatic_Energy-OPLS-2005>
-359.830261230469

> <r_mmod_Solvation_Energy-OPLS-2005>
-220.479537963867

> <b_mmod_Minimization_Converged-OPLS-2005>
0

> <r_mmod_RMS_Derivative-OPLS-2005>
1.77238190174103

$$$$
65
                    3D
 Structure written by MMmdl.
156165  0  0  1  0            999 V2000
  -30.6289  -14.7362   20.4743 C   0  0  0  0  0  0
  -30.4389  -12.4493   19.4752 C   0  0  0  0  0  0
  -29.5110  -12.5108   18.2408 C   0  0  0  0  0  0
  -28.0405  -12.3208   18.6596 C   0  0  0  0  0  0
  -27.6452  -13.2290   19.8524 C   0  0  2  0  0  0
  -28.6925  -13.1672   20.9892 C   0  0  0  0  0  0
  -25.2527  -13.8197   20.5706 C   0  0  0  0  0  0
  -24.1803  -13.0440   20.9211 C   0  0  0  0  0  0
  -24.6393  -11.6919   20.8734 C   0  0  0  0  0  0
  -23.9076  -10.4291   21.0398 C   0  0  0  0  0  0
  -24.3613   -9.4196   21.9176 C   0  0  0  0  0  0
  -23.6280   -8.2241   22.0752 C   0  0  0  0  0  0
  -22.4264   -8.0276   21.3551 C   0  0  0  0  0  0
  -21.9900   -9.0260   20.4653 C   0  0  0  0  0  0
  -22.7247  -10.2127   20.3058 C   0  0  0  0  0  0
  -21.6858   -6.0721   22.5263 C   0  0  0  0  0  0
  -21.4033   -6.5626   23.8191 C   0  0  0  0  0  0
  -21.3665   -5.6783   24.9155 C   0  0  0  0  0  0
  -21.6032   -4.3048   24.7213 C   0  0  0  0  0  0
  -21.8821   -3.8135   23.4342 C   0  0  0  0  0  0
  -21.9194   -4.6950   22.3390 C   0  0  0  0  0  0
  -22.7826  -13.5214   21.1875 C   0  0  0  0  0  0
  -22.1662   -4.2126   21.0974 F   0  0  0  0  0  0
  -21.5614   -3.4539   25.7737 F   0  0  0  0  0  0
  -30.0071  -13.5072   20.4147 N   0  0  0  0  0  0
  -26.2954  -12.9391   20.3296 N   0  0  0  0  0  0
  -25.9323  -11.6545   20.5754 N   0  0  0  0  0  0
  -22.0490  -12.8204   22.0440 N   0  0  0  0  0  0
  -25.4232  -15.1924   20.4125 N   0  0  0  0  0  0
  -31.8078  -14.8616   20.1309 O   0  0  0  0  0  0
  -21.6639   -6.8875   21.4227 O   0  0  0  0  0  0
  -22.3486  -14.5507   20.6717 O   0  0  0  0  0  0
  -24.6308  -31.8571   23.1998 C   0  0  0  0  0  0
  -25.9122  -32.4753   23.8364 C   0  0  1  0  0  0
  -27.2453  -27.2962   20.1238 C   0  0  0  0  0  0
  -25.5913  -33.8549   24.2270 N   0  0  0  0  0  0
  -23.4309  -30.4791   21.5381 C   0  0  2  0  0  0
  -24.8834  -28.9341   20.1089 C   0  0  0  0  0  0
  -22.7530  -29.4590   22.4873 C   0  0  0  0  0  0
  -18.0308  -28.1420   22.8481 C   0  0  0  0  0  0
  -24.1475  -36.7285   23.2641 C   0  0  0  0  0  0
  -25.9750  -30.7838   21.3759 C   0  0  0  0  0  0
  -26.0535  -29.4100   20.7141 C   0  0  0  0  0  0
  -27.2350  -28.6046   20.7075 C   0  0  0  0  0  0
  -26.0430  -26.8775   19.5038 C   0  0  0  0  0  0
  -24.8810  -27.6726   19.4964 C   0  0  0  0  0  0
  -23.6559  -29.8210   20.1505 C   0  0  0  0  0  0
  -25.4088  -36.3060   24.0345 C   0  0  1  0  0  0
  -20.5919  -28.3706   23.1270 C   0  0  2  0  0  0
  -20.6770  -26.9410   22.5431 C   0  0  0  0  0  0
  -19.5749  -26.6399   21.5224 C   0  0  0  0  0  0
  -18.1933  -26.7962   22.1631 C   0  0  0  0  0  0
  -19.1562  -28.8879   23.2887 C   0  0  0  0  0  0
  -18.9480  -30.1473   23.8932 C   0  0  0  0  0  0
  -17.6472  -30.6593   24.0599 C   0  0  0  0  0  0
  -25.9038  -34.9436   23.5109 C   0  0  0  0  0  0
  -16.5372  -29.9120   23.6315 C   0  0  0  0  0  0
  -16.7293  -28.6551   23.0315 C   0  0  0  0  0  0
  -26.4499  -31.6567   25.0745 C   0  0  0  0  0  0
  -25.3740  -31.3721   26.1487 C   0  0  0  0  0  0
  -27.0328  -30.2976   24.6218 C   0  0  0  0  0  0
  -27.6070  -32.4295   25.7497 C   0  0  0  0  0  0
  -27.5579  -37.1772   24.8453 C   0  0  0  0  0  0
  -21.4228  -29.3056   22.3640 N   0  0  0  0  0  0
  -26.4253  -37.3768   23.9449 N   0  0  0  0  0  0
  -24.6974  -31.0566   22.0955 N   0  0  0  0  0  0
  -23.4216  -28.8116   23.2964 O   0  0  0  0  0  0
  -28.3666  -26.4341   20.1831 O   0  0  0  0  0  0
  -26.5622  -34.8915   22.4683 O   0  0  0  0  0  0
  -23.5458  -32.1391   23.7288 O   0  0  0  0  0  0
  -28.7327  -19.4884   20.8484 C   0  0  0  0  0  0
  -28.7637  -18.0644   20.9104 C   0  0  0  0  0  0
  -31.0748  -18.0894   20.3678 C   0  0  0  0  0  0
  -31.0414  -19.5368   20.3022 C   0  0  0  0  0  0
  -29.8463  -20.3208   20.5433 C   0  0  0  0  0  0
  -29.9294  -17.2971   20.6662 C   0  0  0  0  0  0
  -28.8958  -22.7164   21.2893 C   0  0  0  0  0  0
  -32.3361  -20.2310   19.9797 C   0  0  0  0  0  0
  -29.6539  -22.6418   19.3864 C   0  0  0  0  0  0
  -29.3059  -23.8776   20.2983 C   0  0  1  0  0  0
  -28.1828  -24.9690   19.9367 C   0  0  0  0  0  0
  -29.7217  -21.8052   20.5997 N   0  0  0  0  0  0
  -33.3475  -19.9939   20.8061 N   0  0  0  0  0  0
  -29.8184  -15.8202   20.7482 N   0  0  0  0  0  0
  -28.1136  -22.5553   22.2038 O   0  0  0  0  0  0
  -32.4583  -20.9745   19.0078 O   0  0  0  0  0  0
  -31.4814  -12.5656   19.1754 H   0  0  0  0  0  0
  -30.3708  -11.4740   19.9593 H   0  0  0  0  0  0
  -29.7926  -11.7477   17.5151 H   0  0  0  0  0  0
  -29.6239  -13.4708   17.7347 H   0  0  0  0  0  0
  -27.9084  -11.2736   18.9372 H   0  0  0  0  0  0
  -27.3764  -12.4966   17.8135 H   0  0  0  0  0  0
  -27.6378  -14.2457   19.4598 H   0  0  0  0  0  0
  -28.7184  -12.1742   21.4379 H   0  0  0  0  0  0
  -28.4223  -13.8519   21.7952 H   0  0  0  0  0  0
  -25.2759   -9.5642   22.4748 H   0  0  0  0  0  0
  -23.9977   -7.4617   22.7471 H   0  0  0  0  0  0
  -21.0832   -8.8791   19.8963 H   0  0  0  0  0  0
  -22.3719  -10.9660   19.6160 H   0  0  0  0  0  0
  -21.2050   -7.6134   23.9684 H   0  0  0  0  0  0
  -21.1483   -6.0521   25.9051 H   0  0  0  0  0  0
  -22.0599   -2.7601   23.2850 H   0  0  0  0  0  0
  -22.4148  -11.9871   22.4813 H   0  0  0  0  0  0
  -21.1098  -13.1185   22.2689 H   0  0  0  0  0  0
  -24.6577  -15.8472   20.5303 H   0  0  0  0  0  0
  -26.2601  -15.6274   20.0466 H   0  0  0  0  0  0
  -26.7209  -32.5409   23.1136 H   0  0  0  0  0  0
  -25.0008  -33.9683   25.0384 H   0  0  0  0  0  0
  -22.7306  -31.3035   21.3897 H   0  0  0  0  0  0
  -23.3746  -35.9604   23.3254 H   0  0  0  0  0  0
  -24.3586  -36.8949   22.2065 H   0  0  0  0  0  0
  -23.7217  -37.6468   23.6698 H   0  0  0  0  0  0
  -26.1123  -31.5507   20.6115 H   0  0  0  0  0  0
  -26.8528  -30.8301   22.0087 H   0  0  0  0  0  0
  -28.1324  -28.9695   21.1892 H   0  0  0  0  0  0
  -25.9636  -25.9093   19.0349 H   0  0  0  0  0  0
  -23.9818  -27.2981   19.0258 H   0  0  0  0  0  0
  -23.8000  -30.6062   19.4069 H   0  0  0  0  0  0
  -22.7789  -29.2636   19.8165 H   0  0  0  0  0  0
  -25.1250  -36.1905   25.0836 H   0  0  0  0  0  0
  -21.0033  -28.3296   24.1379 H   0  0  0  0  0  0
  -20.5616  -26.2320   23.3644 H   0  0  0  0  0  0
  -21.6645  -26.7380   22.1263 H   0  0  0  0  0  0
  -19.6876  -25.6311   21.1245 H   0  0  0  0  0  0
  -19.6693  -27.3225   20.6768 H   0  0  0  0  0  0
  -17.4190  -26.6726   21.4048 H   0  0  0  0  0  0
  -18.0315  -26.0127   22.9042 H   0  0  0  0  0  0
  -19.7951  -30.7281   24.2332 H   0  0  0  0  0  0
  -17.5019  -31.6245   24.5249 H   0  0  0  0  0  0
  -15.5372  -30.3017   23.7624 H   0  0  0  0  0  0
  -15.8700  -28.0881   22.6981 H   0  0  0  0  0  0
  -24.5912  -30.7058   25.7846 H   0  0  0  0  0  0
  -24.8949  -32.2891   26.4927 H   0  0  0  0  0  0
  -25.8090  -30.8914   27.0258 H   0  0  0  0  0  0
  -26.2888  -29.6710   24.1285 H   0  0  0  0  0  0
  -27.4045  -29.7254   25.4730 H   0  0  0  0  0  0
  -27.8765  -30.4232   23.9429 H   0  0  0  0  0  0
  -27.2685  -33.3580   26.2109 H   0  0  0  0  0  0
  -28.3858  -32.6863   25.0302 H   0  0  0  0  0  0
  -28.0768  -31.8401   26.5384 H   0  0  0  0  0  0
  -28.2544  -38.0117   24.7550 H   0  0  0  0  0  0
  -28.1120  -36.2651   24.6178 H   0  0  0  0  0  0
  -27.2336  -37.1320   25.8863 H   0  0  0  0  0  0
  -20.9420  -29.8839   21.6900 H   0  0  0  0  0  0
  -26.0127  -38.2817   24.1538 H   0  0  0  0  0  0
  -27.7904  -19.9691   21.0643 H   0  0  0  0  0  0
  -27.8434  -17.5570   21.1642 H   0  0  0  0  0  0
  -32.0139  -17.5848   20.1842 H   0  0  0  0  0  0
  -30.5994  -22.7601   18.8584 H   0  0  0  0  0  0
  -28.8451  -22.3672   18.7044 H   0  0  0  0  0  0
  -30.2351  -24.3687   20.5886 H   0  0  0  0  0  0
  -27.2662  -24.6769   20.4501 H   0  0  0  0  0  0
  -27.9605  -24.8615   18.8758 H   0  0  0  0  0  0
  -33.2112  -19.4127   21.6189 H   0  0  0  0  0  0
  -34.2423  -20.4359   20.6532 H   0  0  0  0  0  0
  -28.8861  -15.5083   20.9693 H   0  0  0  0  0  0
  1 25  1  0  0  0
  1 30  2  0  0  0
  1 84  1  0  0  0
  2  3  1  0  0  0
  2 25  1  0  0  0
  2 87  1  0  0  0
  2 88  1  0  0  0
  3  4  1  0  0  0
  3 89  1  0  0  0
  3 90  1  0  0  0
  4  5  1  0  0  0
  4 91  1  0  0  0
  4 92  1  0  0  0
  5  6  1  0  0  0
  5 26  1  0  0  0
  5 93  1  0  0  0
  6 25  1  0  0  0
  6 94  1  0  0  0
  6 95  1  0  0  0
  7  8  2  0  0  0
  7 26  1  0  0  0
  7 29  1  0  0  0
  8  9  1  0  0  0
  8 22  1  0  0  0
  9 10  1  0  0  0
  9 27  2  0  0  0
 10 11  2  0  0  0
 10 15  1  0  0  0
 11 12  1  0  0  0
 11 96  1  0  0  0
 12 13  2  0  0  0
 12 97  1  0  0  0
 13 14  1  0  0  0
 13 31  1  0  0  0
 14 15  2  0  0  0
 14 98  1  0  0  0
 15 99  1  0  0  0
 16 17  2  0  0  0
 16 21  1  0  0  0
 16 31  1  0  0  0
 17 18  1  0  0  0
 17100  1  0  0  0
 18 19  2  0  0  0
 18101  1  0  0  0
 19 20  1  0  0  0
 19 24  1  0  0  0
 20 21  2  0  0  0
 20102  1  0  0  0
 21 23  1  0  0  0
 22 28  1  0  0  0
 22 32  2  0  0  0
 26 27  1  0  0  0
 28103  1  0  0  0
 28104  1  0  0  0
 29105  1  0  0  0
 29106  1  0  0  0
 33 34  1  0  0  0
 33 66  1  0  0  0
 33 70  2  0  0  0
 34 36  1  0  0  0
 34 59  1  0  0  0
 34107  1  0  0  0
 35 44  2  0  0  0
 35 45  1  0  0  0
 35 68  1  0  0  0
 36 56  1  0  0  0
 36108  1  0  0  0
 37 39  1  0  0  0
 37 47  1  0  0  0
 37 66  1  0  0  0
 37109  1  0  0  0
 38 43  2  0  0  0
 38 46  1  0  0  0
 38 47  1  0  0  0
 39 64  1  0  0  0
 39 67  2  0  0  0
 40 52  1  0  0  0
 40 53  2  0  0  0
 40 58  1  0  0  0
 41110  1  0  0  0
 41111  1  0  0  0
 41112  1  0  0  0
 41 48  1  0  0  0
 42 43  1  0  0  0
 42 66  1  0  0  0
 42113  1  0  0  0
 42114  1  0  0  0
 43 44  1  0  0  0
 44115  1  0  0  0
 45 46  2  0  0  0
 45116  1  0  0  0
 46117  1  0  0  0
 47118  1  0  0  0
 47119  1  0  0  0
 48 56  1  0  0  0
 48 65  1  0  0  0
 48120  1  0  0  0
 49 50  1  0  0  0
 49 53  1  0  0  0
 49 64  1  0  0  0
 49121  1  0  0  0
 50 51  1  0  0  0
 50122  1  0  0  0
 50123  1  0  0  0
 51 52  1  0  0  0
 51124  1  0  0  0
 51125  1  0  0  0
 52126  1  0  0  0
 52127  1  0  0  0
 53 54  1  0  0  0
 54 55  2  0  0  0
 54128  1  0  0  0
 55 57  1  0  0  0
 55129  1  0  0  0
 56 69  2  0  0  0
 57 58  2  0  0  0
 57130  1  0  0  0
 58131  1  0  0  0
 59 60  1  0  0  0
 59 61  1  0  0  0
 59 62  1  0  0  0
 60132  1  0  0  0
 60133  1  0  0  0
 60134  1  0  0  0
 61135  1  0  0  0
 61136  1  0  0  0
 61137  1  0  0  0
 62138  1  0  0  0
 62139  1  0  0  0
 62140  1  0  0  0
 63 65  1  0  0  0
 63141  1  0  0  0
 63142  1  0  0  0
 63143  1  0  0  0
 64144  1  0  0  0
 65145  1  0  0  0
 68 81  1  0  0  0
 71 72  2  0  0  0
 71 75  1  0  0  0
 71146  1  0  0  0
 72 76  1  0  0  0
 72147  1  0  0  0
 73 74  1  0  0  0
 73 76  2  0  0  0
 73148  1  0  0  0
 74 75  2  0  0  0
 74 78  1  0  0  0
 75 82  1  0  0  0
 76 84  1  0  0  0
 77 80  1  0  0  0
 77 82  1  0  0  0
 77 85  2  0  0  0
 78 83  1  0  0  0
 78 86  2  0  0  0
 79 80  1  0  0  0
 79 82  1  0  0  0
 79149  1  0  0  0
 79150  1  0  0  0
 80 81  1  0  0  0
 80151  1  0  0  0
 81152  1  0  0  0
 81153  1  0  0  0
 83154  1  0  0  0
 83155  1  0  0  0
 84156  1  0  0  0
M  ISO  4   1 100  68 101  81 101  84 100
M  END
> <chiral flag>
0

> <version>
0

> <s_m_source_file>
/data/baiqing/PycharmProjects/Reinvent-master-3.2/result/LINK_invent/BTK/process_docking_weight1_custom_product_contain_oxygen_bond_distance_aromatic_linkinvent_7_9_3/rearranged_h_0072.sdf

> <i_m_source_file_index>
66

> <r_mmod_Potential_Energy-OPLS-2005>
24.8319988250732

> <r_mmod_Stretch_Energy-OPLS-2005>
106.492607116699

> <r_mmod_Bend_Energy-OPLS-2005>
191.646499633789

> <r_mmod_Torsional_Energy-OPLS-2005>
254.384124755859

> <r_mmod_Improper_Torsional_Energy-OPLS-2005>
8.83215141296387

> <r_mmod_Van_der_Waal_Energy-OPLS-2005>
136.837265014648

> <r_mmod_Electrostatic_Energy-OPLS-2005>
-489.250640869141

> <r_mmod_Solvation_Energy-OPLS-2005>
-258.694885253906

> <b_mmod_Minimization_Converged-OPLS-2005>
0

> <r_mmod_RMS_Derivative-OPLS-2005>
3.6436812877655

$$$$
66
                    3D
 Structure written by MMmdl.
162171  0  0  1  0            999 V2000
  -30.7917  -14.4556   20.5769 C   0  0  0  0  0  0
  -30.4008  -12.3252   19.4089 C   0  0  0  0  0  0
  -29.4721  -12.4892   18.1925 C   0  0  0  0  0  0
  -28.0041  -12.3310   18.6267 C   0  0  0  0  0  0
  -27.6515  -13.1908   19.8708 C   0  0  2  0  0  0
  -28.7105  -13.0065   20.9879 C   0  0  0  0  0  0
  -25.2555  -13.8101   20.5683 C   0  0  0  0  0  0
  -24.1778  -13.0401   20.9102 C   0  0  0  0  0  0
  -24.6329  -11.6869   20.8716 C   0  0  0  0  0  0
  -23.9008  -10.4280   21.0388 C   0  0  0  0  0  0
  -24.3567   -9.4212   21.9169 C   0  0  0  0  0  0
  -23.6259   -8.2246   22.0750 C   0  0  0  0  0  0
  -22.4245   -8.0281   21.3542 C   0  0  0  0  0  0
  -21.9870   -9.0243   20.4638 C   0  0  0  0  0  0
  -22.7181  -10.2135   20.3048 C   0  0  0  0  0  0
  -21.6867   -6.0737   22.5274 C   0  0  0  0  0  0
  -21.4017   -6.5641   23.8202 C   0  0  0  0  0  0
  -21.3653   -5.6798   24.9167 C   0  0  0  0  0  0
  -21.6041   -4.3055   24.7224 C   0  0  0  0  0  0
  -21.8816   -3.8148   23.4341 C   0  0  0  0  0  0
  -21.9193   -4.6965   22.3402 C   0  0  0  0  0  0
  -22.7829  -13.5250   21.1791 C   0  0  0  0  0  0
  -22.1666   -4.2159   21.0978 F   0  0  0  0  0  0
  -21.5616   -3.4530   25.7731 F   0  0  0  0  0  0
  -30.0116  -13.3461   20.4047 N   0  0  0  0  0  0
  -26.2980  -12.9244   20.3440 N   0  0  0  0  0  0
  -25.9256  -11.6417   20.5818 N   0  0  0  0  0  0
  -22.0464  -12.8272   22.0354 N   0  0  0  0  0  0
  -25.4329  -15.1796   20.4184 N   0  0  0  0  0  0
  -31.9428  -14.4897   20.1492 O   0  0  0  0  0  0
  -21.6617   -6.8880   21.4242 O   0  0  0  0  0  0
  -22.3544  -14.5596   20.6696 O   0  0  0  0  0  0
  -24.6143  -31.8690   23.2144 C   0  0  0  0  0  0
  -25.9052  -32.4808   23.8406 C   0  0  1  0  0  0
  -27.2145  -27.4240   20.0753 C   0  0  0  0  0  0
  -25.5898  -33.8604   24.2346 N   0  0  0  0  0  0
  -23.3994  -30.5027   21.5547 C   0  0  2  0  0  0
  -24.8409  -28.9797   20.1146 C   0  0  0  0  0  0
  -22.7393  -29.4690   22.4961 C   0  0  0  0  0  0
  -18.0262  -28.1372   22.8493 C   0  0  0  0  0  0
  -24.1488  -36.7328   23.2639 C   0  0  0  0  0  0
  -25.9346  -30.8333   21.3695 C   0  0  0  0  0  0
  -26.0086  -29.4694   20.7116 C   0  0  0  0  0  0
  -27.1989  -28.7005   20.6912 C   0  0  0  0  0  0
  -26.0144  -26.9636   19.4712 C   0  0  0  0  0  0
  -24.8388  -27.7251   19.4956 C   0  0  0  0  0  0
  -23.6070  -29.8493   20.1652 C   0  0  0  0  0  0
  -25.4103  -36.3097   24.0340 C   0  0  1  0  0  0
  -20.5865  -28.3678   23.1281 C   0  0  2  0  0  0
  -20.6758  -26.9408   22.5390 C   0  0  0  0  0  0
  -19.5744  -26.6395   21.5186 C   0  0  0  0  0  0
  -18.1925  -26.7917   22.1613 C   0  0  0  0  0  0
  -19.1514  -28.8838   23.2897 C   0  0  0  0  0  0
  -18.9447  -30.1440   23.8915 C   0  0  0  0  0  0
  -17.6453  -30.6582   24.0572 C   0  0  0  0  0  0
  -25.9039  -34.9457   23.5148 C   0  0  0  0  0  0
  -16.5347  -29.9095   23.6316 C   0  0  0  0  0  0
  -16.7250  -28.6507   23.0344 C   0  0  0  0  0  0
  -26.4471  -31.6559   25.0713 C   0  0  0  0  0  0
  -25.3723  -31.3685   26.1451 C   0  0  0  0  0  0
  -27.0281  -30.2982   24.6076 C   0  0  0  0  0  0
  -27.6053  -32.4254   25.7469 C   0  0  0  0  0  0
  -27.5585  -37.1814   24.8464 C   0  0  0  0  0  0
  -21.4118  -29.3071   22.3684 N   0  0  0  0  0  0
  -26.4289  -37.3775   23.9412 N   0  0  0  0  0  0
  -24.6682  -31.0816   22.1033 N   0  0  0  0  0  0
  -23.4164  -28.8181   23.2968 O   0  0  0  0  0  0
  -28.3671  -26.6526   20.0813 O   0  0  0  0  0  0
  -26.5591  -34.8896   22.4702 O   0  0  0  0  0  0
  -23.5333  -32.1437   23.7537 O   0  0  0  0  0  0
  -30.2221  -18.2504   19.8655 C   0  0  0  0  0  0
  -30.4412  -19.6199   19.6225 C   0  0  0  0  0  0
  -29.0168  -20.1704   21.5043 C   0  0  0  0  0  0
  -29.4125  -17.8095   20.9396 C   0  0  0  0  0  0
  -28.8017  -18.7922   21.7688 C   0  0  0  0  0  0
  -29.8463  -20.6014   20.4386 C   0  0  0  0  0  0
  -30.5231  -24.6254   19.3104 C   0  0  0  0  0  0
  -29.3653  -24.3442   19.9354 C   0  0  0  0  0  0
  -29.2158  -16.3187   21.1232 C   0  0  0  0  0  0
  -31.6764  -23.6405   19.2159 C   0  0  0  0  0  0
  -29.1241  -22.9853   20.5938 C   0  0  0  0  0  0
  -31.4928  -22.3884   20.0967 C   0  0  0  0  0  0
  -27.9455  -18.4132   22.9709 C   0  0  0  0  0  0
  -28.1485  -25.2484   19.8396 C   0  0  0  0  0  0
  -30.0910  -21.9680   20.1722 N   0  0  0  0  0  0
  -30.3730  -15.6515   21.0343 N   0  0  0  0  0  0
  -28.0951  -15.8548   21.3203 O   0  0  0  0  0  0
  -31.4420  -12.3987   19.0865 H   0  0  0  0  0  0
  -30.3061  -11.3250   19.8334 H   0  0  0  0  0  0
  -29.7161  -11.7517   17.4259 H   0  0  0  0  0  0
  -29.6209  -13.4694   17.7401 H   0  0  0  0  0  0
  -27.8425  -11.2757   18.8519 H   0  0  0  0  0  0
  -27.3353  -12.5697   17.7992 H   0  0  0  0  0  0
  -27.6774  -14.2215   19.5252 H   0  0  0  0  0  0
  -28.7175  -11.9672   21.3213 H   0  0  0  0  0  0
  -28.4975  -13.5759   21.8904 H   0  0  0  0  0  0
  -25.2712   -9.5729   22.4716 H   0  0  0  0  0  0
  -23.9991   -7.4670   22.7477 H   0  0  0  0  0  0
  -21.0793   -8.8737   19.8954 H   0  0  0  0  0  0
  -22.3604  -10.9658   19.6157 H   0  0  0  0  0  0
  -21.2000   -7.6151   23.9711 H   0  0  0  0  0  0
  -21.1480   -6.0521   25.9074 H   0  0  0  0  0  0
  -22.0596   -2.7611   23.2827 H   0  0  0  0  0  0
  -22.4074  -11.9948   22.4768 H   0  0  0  0  0  0
  -21.1102  -13.1349   22.2552 H   0  0  0  0  0  0
  -24.7032  -15.8267   20.6956 H   0  0  0  0  0  0
  -26.3711  -15.5570   20.5548 H   0  0  0  0  0  0
  -26.7110  -32.5531   23.1152 H   0  0  0  0  0  0
  -25.0020  -33.9760   25.0469 H   0  0  0  0  0  0
  -22.6896  -31.3213   21.4234 H   0  0  0  0  0  0
  -23.3721  -35.9695   23.3301 H   0  0  0  0  0  0
  -24.3575  -36.8935   22.2052 H   0  0  0  0  0  0
  -23.7283  -37.6552   23.6636 H   0  0  0  0  0  0
  -26.0496  -31.6009   20.6018 H   0  0  0  0  0  0
  -26.8230  -30.8811   21.9874 H   0  0  0  0  0  0
  -28.0987  -29.0735   21.1612 H   0  0  0  0  0  0
  -25.9308  -26.0139   18.9664 H   0  0  0  0  0  0
  -23.9412  -27.3448   19.0291 H   0  0  0  0  0  0
  -23.7181  -30.6303   19.4126 H   0  0  0  0  0  0
  -22.7271  -29.2773   19.8648 H   0  0  0  0  0  0
  -25.1272  -36.1970   25.0824 H   0  0  0  0  0  0
  -20.9988  -28.3273   24.1381 H   0  0  0  0  0  0
  -20.5629  -26.2289   23.3584 H   0  0  0  0  0  0
  -21.6636  -26.7428   22.1201 H   0  0  0  0  0  0
  -19.6920  -25.6308   21.1209 H   0  0  0  0  0  0
  -19.6687  -27.3210   20.6725 H   0  0  0  0  0  0
  -17.4182  -26.6639   21.4027 H   0  0  0  0  0  0
  -18.0363  -26.0051   22.9012 H   0  0  0  0  0  0
  -19.7926  -30.7252   24.2285 H   0  0  0  0  0  0
  -17.5012  -31.6250   24.5189 H   0  0  0  0  0  0
  -15.5354  -30.3020   23.7607 H   0  0  0  0  0  0
  -15.8645  -28.0836   22.7044 H   0  0  0  0  0  0
  -24.5911  -30.7008   25.7808 H   0  0  0  0  0  0
  -24.8901  -32.2855   26.4834 H   0  0  0  0  0  0
  -25.8076  -30.8911   27.0237 H   0  0  0  0  0  0
  -26.2821  -29.6773   24.1090 H   0  0  0  0  0  0
  -27.4036  -29.7198   25.4537 H   0  0  0  0  0  0
  -27.8682  -30.4284   23.9255 H   0  0  0  0  0  0
  -27.2692  -33.3564   26.2035 H   0  0  0  0  0  0
  -28.3866  -32.6796   25.0284 H   0  0  0  0  0  0
  -28.0690  -31.8362   26.5391 H   0  0  0  0  0  0
  -28.2583  -38.0117   24.7454 H   0  0  0  0  0  0
  -28.1076  -36.2640   24.6333 H   0  0  0  0  0  0
  -27.2276  -37.1510   25.8852 H   0  0  0  0  0  0
  -20.9235  -29.8841   21.6970 H   0  0  0  0  0  0
  -26.0185  -38.2853   24.1402 H   0  0  0  0  0  0
  -30.6825  -17.5345   19.1992 H   0  0  0  0  0  0
  -31.0532  -19.9034   18.7777 H   0  0  0  0  0  0
  -28.5480  -20.8986   22.1492 H   0  0  0  0  0  0
  -30.6320  -25.5594   18.7773 H   0  0  0  0  0  0
  -32.6136  -24.1434   19.4559 H   0  0  0  0  0  0
  -31.7493  -23.3362   18.1700 H   0  0  0  0  0  0
  -28.1220  -22.6480   20.3257 H   0  0  0  0  0  0
  -29.1410  -23.1068   21.6793 H   0  0  0  0  0  0
  -31.8179  -22.6113   21.1139 H   0  0  0  0  0  0
  -32.1492  -21.5950   19.7385 H   0  0  0  0  0  0
  -27.0981  -17.7947   22.6752 H   0  0  0  0  0  0
  -28.5377  -17.8629   23.7053 H   0  0  0  0  0  0
  -27.5392  -19.2931   23.4705 H   0  0  0  0  0  0
  -27.3939  -24.8834   20.5389 H   0  0  0  0  0  0
  -27.7802  -25.0872   18.8257 H   0  0  0  0  0  0
  -31.1446  -16.2970   21.0389 H   0  0  0  0  0  0
  1 25  1  0  0  0
  1 30  2  0  0  0
  1 86  1  0  0  0
  2  3  1  0  0  0
  2 25  1  0  0  0
  2 88  1  0  0  0
  2 89  1  0  0  0
  3  4  1  0  0  0
  3 90  1  0  0  0
  3 91  1  0  0  0
  4  5  1  0  0  0
  4 92  1  0  0  0
  4 93  1  0  0  0
  5  6  1  0  0  0
  5 26  1  0  0  0
  5 94  1  0  0  0
  6 25  1  0  0  0
  6 95  1  0  0  0
  6 96  1  0  0  0
  7  8  2  0  0  0
  7 26  1  0  0  0
  7 29  1  0  0  0
  8  9  1  0  0  0
  8 22  1  0  0  0
  9 10  1  0  0  0
  9 27  2  0  0  0
 10 11  2  0  0  0
 10 15  1  0  0  0
 11 12  1  0  0  0
 11 97  1  0  0  0
 12 13  2  0  0  0
 12 98  1  0  0  0
 13 14  1  0  0  0
 13 31  1  0  0  0
 14 15  2  0  0  0
 14 99  1  0  0  0
 15100  1  0  0  0
 16 17  2  0  0  0
 16 21  1  0  0  0
 16 31  1  0  0  0
 17 18  1  0  0  0
 17101  1  0  0  0
 18 19  2  0  0  0
 18102  1  0  0  0
 19 20  1  0  0  0
 19 24  1  0  0  0
 20 21  2  0  0  0
 20103  1  0  0  0
 21 23  1  0  0  0
 22 28  1  0  0  0
 22 32  2  0  0  0
 26 27  1  0  0  0
 28104  1  0  0  0
 28105  1  0  0  0
 29106  1  0  0  0
 29107  1  0  0  0
 33 34  1  0  0  0
 33 66  1  0  0  0
 33 70  2  0  0  0
 34 36  1  0  0  0
 34 59  1  0  0  0
 34108  1  0  0  0
 35 44  2  0  0  0
 35 45  1  0  0  0
 35 68  1  0  0  0
 36 56  1  0  0  0
 36109  1  0  0  0
 37 39  1  0  0  0
 37 47  1  0  0  0
 37 66  1  0  0  0
 37110  1  0  0  0
 38 43  2  0  0  0
 38 46  1  0  0  0
 38 47  1  0  0  0
 39 64  1  0  0  0
 39 67  2  0  0  0
 40 52  1  0  0  0
 40 53  2  0  0  0
 40 58  1  0  0  0
 41111  1  0  0  0
 41112  1  0  0  0
 41113  1  0  0  0
 41 48  1  0  0  0
 42 43  1  0  0  0
 42 66  1  0  0  0
 42114  1  0  0  0
 42115  1  0  0  0
 43 44  1  0  0  0
 44116  1  0  0  0
 45 46  2  0  0  0
 45117  1  0  0  0
 46118  1  0  0  0
 47119  1  0  0  0
 47120  1  0  0  0
 48 56  1  0  0  0
 48 65  1  0  0  0
 48121  1  0  0  0
 49 50  1  0  0  0
 49 53  1  0  0  0
 49 64  1  0  0  0
 49122  1  0  0  0
 50 51  1  0  0  0
 50123  1  0  0  0
 50124  1  0  0  0
 51 52  1  0  0  0
 51125  1  0  0  0
 51126  1  0  0  0
 52127  1  0  0  0
 52128  1  0  0  0
 53 54  1  0  0  0
 54 55  2  0  0  0
 54129  1  0  0  0
 55 57  1  0  0  0
 55130  1  0  0  0
 56 69  2  0  0  0
 57 58  2  0  0  0
 57131  1  0  0  0
 58132  1  0  0  0
 59 60  1  0  0  0
 59 61  1  0  0  0
 59 62  1  0  0  0
 60133  1  0  0  0
 60134  1  0  0  0
 60135  1  0  0  0
 61136  1  0  0  0
 61137  1  0  0  0
 61138  1  0  0  0
 62139  1  0  0  0
 62140  1  0  0  0
 62141  1  0  0  0
 63 65  1  0  0  0
 63142  1  0  0  0
 63143  1  0  0  0
 63144  1  0  0  0
 64145  1  0  0  0
 65146  1  0  0  0
 68 84  1  0  0  0
 71 72  2  0  0  0
 71 74  1  0  0  0
 71147  1  0  0  0
 72 76  1  0  0  0
 72148  1  0  0  0
 73 75  1  0  0  0
 73 76  2  0  0  0
 73149  1  0  0  0
 74 75  2  0  0  0
 74 79  1  0  0  0
 75 83  1  0  0  0
 76 85  1  0  0  0
 77 78  2  0  0  0
 77 80  1  0  0  0
 77150  1  0  0  0
 78 81  1  0  0  0
 78 84  1  0  0  0
 79 86  1  0  0  0
 79 87  2  0  0  0
 80 82  1  0  0  0
 80151  1  0  0  0
 80152  1  0  0  0
 81 85  1  0  0  0
 81153  1  0  0  0
 81154  1  0  0  0
 82 85  1  0  0  0
 82155  1  0  0  0
 82156  1  0  0  0
 83157  1  0  0  0
 83158  1  0  0  0
 83159  1  0  0  0
 84160  1  0  0  0
 84161  1  0  0  0
 86162  1  0  0  0
M  ISO  4   1 100  68 101  84 101  86 100
M  END
> <chiral flag>
0

> <version>
0

> <s_m_source_file>
/data/baiqing/PycharmProjects/Reinvent-master-3.2/result/LINK_invent/BTK/process_docking_weight1_custom_product_contain_oxygen_bond_distance_aromatic_linkinvent_7_9_3/rearranged_h_0072.sdf

> <i_m_source_file_index>
67

> <r_mmod_Potential_Energy-OPLS-2005>
28.0248565673828

> <r_mmod_Stretch_Energy-OPLS-2005>
40.3607597351074

> <r_mmod_Bend_Energy-OPLS-2005>
171.759323120117

> <r_mmod_Torsional_Energy-OPLS-2005>
247.755142211914

> <r_mmod_Improper_Torsional_Energy-OPLS-2005>
9.72636127471924

> <r_mmod_Van_der_Waal_Energy-OPLS-2005>
186.119506835938

> <r_mmod_Electrostatic_Energy-OPLS-2005>
-446.104125976562

> <r_mmod_Solvation_Energy-OPLS-2005>
-204.269943237305

> <b_mmod_Minimization_Converged-OPLS-2005>
0

> <r_mmod_RMS_Derivative-OPLS-2005>
3.6548273563385

$$$$
67
                    3D
 Structure written by MMmdl.
159168  0  0  1  0            999 V2000
  -31.0933  -12.8861   20.1527 C   0  0  0  0  0  0
  -30.8070  -14.3101   18.8453 C   0  0  0  0  0  0
  -30.1667  -15.5937   20.0982 C   0  0  0  0  0  0
  -28.0541  -15.2349   20.8683 C   0  0  0  0  0  0
  -27.3927  -13.4391   20.3428 C   0  0  2  0  0  0
  -28.5447  -12.3840   19.3372 C   0  0  0  0  0  0
  -25.0171  -13.8909   20.5378 C   0  0  0  0  0  0
  -24.0135  -13.0559   20.8845 C   0  0  0  0  0  0
  -24.5229  -11.7223   20.8155 C   0  0  0  0  0  0
  -23.8501  -10.4411   21.0065 C   0  0  0  0  0  0
  -24.3347   -9.4521   21.8889 C   0  0  0  0  0  0
  -23.6253   -8.2445   22.0617 C   0  0  0  0  0  0
  -22.4189   -8.0255   21.3566 C   0  0  0  0  0  0
  -21.9604   -9.0033   20.4598 C   0  0  0  0  0  0
  -22.6695  -10.1996   20.2837 C   0  0  0  0  0  0
  -21.6847   -6.0764   22.5416 C   0  0  0  0  0  0
  -21.3940   -6.5679   23.8361 C   0  0  0  0  0  0
  -21.3622   -5.6797   24.9302 C   0  0  0  0  0  0
  -21.6019   -4.3090   24.7277 C   0  0  0  0  0  0
  -21.8770   -3.8205   23.4410 C   0  0  0  0  0  0
  -21.9188   -4.7005   22.3494 C   0  0  0  0  0  0
  -22.6329  -13.5057   21.1856 C   0  0  0  0  0  0
  -22.1678   -4.2237   21.1053 F   0  0  0  0  0  0
  -21.5622   -3.4546   25.7787 F   0  0  0  0  0  0
  -30.2372  -12.8561   19.0509 N   0  0  0  0  0  0
  -26.0620  -13.0666   20.3135 N   0  0  0  0  0  0
  -25.7888  -11.7406   20.4539 N   0  0  0  0  0  0
  -21.9404  -12.8051   22.0682 N   0  0  0  0  0  0
  -25.1280  -15.2692   20.4402 N   0  0  0  0  0  0
  -32.2078  -13.4370   20.4282 O   0  0  0  0  0  0
  -21.6658   -6.8826   21.4363 O   0  0  0  0  0  0
  -22.1895  -14.5297   20.6729 O   0  0  0  0  0  0
  -24.6892  -31.7946   23.1551 C   0  0  0  0  0  0
  -25.9486  -32.4409   23.8038 C   0  0  1  0  0  0
  -27.0773  -26.6930   19.9851 C   0  0  0  0  0  0
  -25.6021  -33.8228   24.1904 N   0  0  0  0  0  0
  -23.5009  -30.4217   21.5163 C   0  0  2  0  0  0
  -24.9050  -28.7848   20.0765 C   0  0  0  0  0  0
  -22.7762  -29.4309   22.4675 C   0  0  0  0  0  0
  -18.0370  -28.1390   22.8497 C   0  0  0  0  0  0
  -24.1512  -36.7148   23.2644 C   0  0  0  0  0  0
  -26.0907  -30.4962   21.4237 C   0  0  0  0  0  0
  -26.1106  -29.0766   20.7246 C   0  0  0  0  0  0
  -27.1891  -28.0409   20.6721 C   0  0  0  0  0  0
  -25.8491  -26.6337   19.3128 C   0  0  0  0  0  0
  -24.8115  -27.5897   19.3598 C   0  0  0  0  0  0
  -23.7304  -29.7613   20.1355 C   0  0  0  0  0  0
  -25.4157  -36.2866   24.0273 C   0  0  1  0  0  0
  -20.6013  -28.3766   23.1155 C   0  0  2  0  0  0
  -20.6827  -26.9425   22.5420 C   0  0  0  0  0  0
  -19.5792  -26.6374   21.5234 C   0  0  0  0  0  0
  -18.1973  -26.7926   22.1633 C   0  0  0  0  0  0
  -19.1644  -28.8908   23.2816 C   0  0  0  0  0  0
  -18.9518  -30.1482   23.8886 C   0  0  0  0  0  0
  -17.6508  -30.6589   24.0569 C   0  0  0  0  0  0
  -25.9143  -34.9247   23.4937 C   0  0  0  0  0  0
  -16.5404  -29.9081   23.6347 C   0  0  0  0  0  0
  -16.7341  -28.6483   23.0400 C   0  0  0  0  0  0
  -26.4607  -31.6443   25.0680 C   0  0  0  0  0  0
  -25.3677  -31.3741   26.1323 C   0  0  0  0  0  0
  -27.0528  -30.2772   24.6573 C   0  0  0  0  0  0
  -27.6065  -32.4307   25.7469 C   0  0  0  0  0  0
  -27.5572  -37.1735   24.8460 C   0  0  0  0  0  0
  -21.4409  -29.3012   22.3464 N   0  0  0  0  0  0
  -26.4277  -37.3645   23.9397 N   0  0  0  0  0  0
  -24.7882  -30.9426   22.0786 N   0  0  0  0  0  0
  -23.4255  -28.7831   23.2915 O   0  0  0  0  0  0
  -27.8962  -25.3870   19.9439 O   0  0  0  0  0  0
  -26.5818  -34.8849   22.4573 O   0  0  0  0  0  0
  -23.5924  -32.0993   23.6585 O   0  0  0  0  0  0
  -28.6009  -16.4679   18.4148 C   0  0  0  0  0  0
  -27.3280  -14.5919   17.9037 C   0  0  0  0  0  0
  -26.5524  -21.2796   19.7306 C   0  0  0  0  0  0
  -26.4867  -17.0314   17.8547 C   0  0  0  0  0  0
  -28.4997  -14.8364   18.7092 C   0  0  0  0  0  0
  -27.6589  -22.0194   19.1767 C   0  0  0  0  0  0
  -27.6527  -17.6801   18.3765 C   0  0  0  0  0  0
  -26.3775  -15.6189   17.5290 C   0  0  0  0  0  0
  -26.5367  -19.8951   19.4914 C   0  0  0  0  0  0
  -28.2946  -20.7527   18.6396 C   0  0  0  0  0  0
  -29.6016  -13.6359   21.0025 C   0  0  0  0  0  0
  -27.7110  -23.8976   19.0420 C   0  0  0  0  0  0
  -27.6201  -19.3433   18.7727 N   0  0  0  0  0  0
  -25.2143  -15.1892   16.8864 N   0  0  0  0  0  0
  -30.4002  -12.4422   21.1045 N   0  0  0  0  0  0
  -25.5443  -19.0516   19.8862 O   0  0  0  0  0  0
  -29.4595  -20.7714   17.9262 O   0  0  0  0  0  0
  -31.8523  -14.5150   18.5560 H   0  0  0  0  0  0
  -30.5715  -14.5879   17.8083 H   0  0  0  0  0  0
  -30.4496  -16.6370   19.9377 H   0  0  0  0  0  0
  -30.9241  -15.6798   20.8866 H   0  0  0  0  0  0
  -27.4125  -16.0735   20.5917 H   0  0  0  0  0  0
  -28.0167  -15.3164   21.9618 H   0  0  0  0  0  0
  -27.3825  -12.9851   21.3261 H   0  0  0  0  0  0
  -28.0956  -12.1388   18.3781 H   0  0  0  0  0  0
  -28.5133  -11.3934   19.7924 H   0  0  0  0  0  0
  -25.2465   -9.6336   22.4403 H   0  0  0  0  0  0
  -24.0168   -7.4944   22.7299 H   0  0  0  0  0  0
  -21.0531   -8.8421   19.8975 H   0  0  0  0  0  0
  -22.2879  -10.9464   19.6038 H   0  0  0  0  0  0
  -21.1826   -7.6166   23.9940 H   0  0  0  0  0  0
  -21.1438   -6.0483   25.9230 H   0  0  0  0  0  0
  -22.0503   -2.7683   23.2897 H   0  0  0  0  0  0
  -22.3284  -11.9951   22.5307 H   0  0  0  0  0  0
  -21.0021  -13.1037   22.2957 H   0  0  0  0  0  0
  -24.2820  -15.8247   20.4217 H   0  0  0  0  0  0
  -25.9006  -15.6853   19.9385 H   0  0  0  0  0  0
  -26.7537  -32.4838   23.0701 H   0  0  0  0  0  0
  -25.0058  -33.9230   24.9978 H   0  0  0  0  0  0
  -22.8270  -31.2656   21.3478 H   0  0  0  0  0  0
  -23.3795  -35.9467   23.3272 H   0  0  0  0  0  0
  -24.3585  -36.8865   22.2073 H   0  0  0  0  0  0
  -23.7303  -37.6311   23.6764 H   0  0  0  0  0  0
  -26.3529  -31.2360   20.6662 H   0  0  0  0  0  0
  -26.9279  -30.5086   22.1099 H   0  0  0  0  0  0
  -28.0985  -28.2246   21.2227 H   0  0  0  0  0  0
  -25.6189  -25.7448   18.7562 H   0  0  0  0  0  0
  -23.9060  -27.3635   18.8140 H   0  0  0  0  0  0
  -23.9216  -30.5384   19.3957 H   0  0  0  0  0  0
  -22.8176  -29.2593   19.8069 H   0  0  0  0  0  0
  -25.1373  -36.1611   25.0768 H   0  0  0  0  0  0
  -21.0128  -28.3426   24.1263 H   0  0  0  0  0  0
  -20.5713  -26.2347   23.3663 H   0  0  0  0  0  0
  -21.6670  -26.7372   22.1202 H   0  0  0  0  0  0
  -19.6953  -25.6277   21.1273 H   0  0  0  0  0  0
  -19.6766  -27.3188   20.6766 H   0  0  0  0  0  0
  -17.4248  -26.6722   21.4018 H   0  0  0  0  0  0
  -18.0353  -26.0063   22.9016 H   0  0  0  0  0  0
  -19.7993  -30.7306   24.2228 H   0  0  0  0  0  0
  -17.5062  -31.6271   24.5150 H   0  0  0  0  0  0
  -15.5397  -30.2974   23.7653 H   0  0  0  0  0  0
  -15.8732  -28.0767   22.7147 H   0  0  0  0  0  0
  -24.5883  -30.7025   25.7670 H   0  0  0  0  0  0
  -24.8813  -32.2938   26.4569 H   0  0  0  0  0  0
  -25.7914  -30.9048   27.0215 H   0  0  0  0  0  0
  -26.3193  -29.6380   24.1627 H   0  0  0  0  0  0
  -27.4034  -29.7172   25.5250 H   0  0  0  0  0  0
  -27.9182  -30.3922   24.0055 H   0  0  0  0  0  0
  -27.2596  -33.3697   26.1800 H   0  0  0  0  0  0
  -28.3991  -32.6712   25.0361 H   0  0  0  0  0  0
  -28.0585  -31.8577   26.5571 H   0  0  0  0  0  0
  -28.2536  -38.0063   24.7511 H   0  0  0  0  0  0
  -28.1118  -36.2601   24.6298 H   0  0  0  0  0  0
  -27.2285  -37.1390   25.8851 H   0  0  0  0  0  0
  -20.9652  -29.8683   21.6594 H   0  0  0  0  0  0
  -26.0101  -38.2682   24.1417 H   0  0  0  0  0  0
  -29.5718  -16.9148   18.2923 H   0  0  0  0  0  0
  -27.0209  -13.5847   17.6778 H   0  0  0  0  0  0
  -25.7217  -21.7709   20.2161 H   0  0  0  0  0  0
  -25.6443  -17.6645   17.6285 H   0  0  0  0  0  0
  -29.0661  -13.3335   21.9158 H   0  0  0  0  0  0
  -30.0523  -14.2385   21.8082 H   0  0  0  0  0  0
  -26.7355  -24.0133   18.5673 H   0  0  0  0  0  0
  -28.3998  -24.0442   18.2028 H   0  0  0  0  0  0
  -24.9920  -14.1960   16.9065 H   0  0  0  0  0  0
  -24.3927  -15.7869   16.8963 H   0  0  0  0  0  0
  -30.8842  -12.2920   21.9807 H   0  0  0  0  0  0
  -25.7902  -18.1757   19.6097 H   0  0  0  0  0  0
  -29.9823  -20.0145   18.1780 H   0  0  0  0  0  0
  1 25  1  0  0  0
  1 30  2  0  0  0
  1 85  1  0  0  0
  2  3  1  0  0  0
  2 25  1  0  0  0
  2 88  1  0  0  0
  2 89  1  0  0  0
  3  4  1  0  0  0
  3 90  1  0  0  0
  3 91  1  0  0  0
  4  5  1  0  0  0
  4 92  1  0  0  0
  4 93  1  0  0  0
  5  6  1  0  0  0
  5 26  1  0  0  0
  5 94  1  0  0  0
  6 25  1  0  0  0
  6 95  1  0  0  0
  6 96  1  0  0  0
  7  8  2  0  0  0
  7 26  1  0  0  0
  7 29  1  0  0  0
  8  9  1  0  0  0
  8 22  1  0  0  0
  9 10  1  0  0  0
  9 27  2  0  0  0
 10 11  2  0  0  0
 10 15  1  0  0  0
 11 12  1  0  0  0
 11 97  1  0  0  0
 12 13  2  0  0  0
 12 98  1  0  0  0
 13 14  1  0  0  0
 13 31  1  0  0  0
 14 15  2  0  0  0
 14 99  1  0  0  0
 15100  1  0  0  0
 16 17  2  0  0  0
 16 21  1  0  0  0
 16 31  1  0  0  0
 17 18  1  0  0  0
 17101  1  0  0  0
 18 19  2  0  0  0
 18102  1  0  0  0
 19 20  1  0  0  0
 19 24  1  0  0  0
 20 21  2  0  0  0
 20103  1  0  0  0
 21 23  1  0  0  0
 22 28  1  0  0  0
 22 32  2  0  0  0
 26 27  1  0  0  0
 28104  1  0  0  0
 28105  1  0  0  0
 29106  1  0  0  0
 29107  1  0  0  0
 33 34  1  0  0  0
 33 66  1  0  0  0
 33 70  2  0  0  0
 34 36  1  0  0  0
 34 59  1  0  0  0
 34108  1  0  0  0
 35 44  2  0  0  0
 35 45  1  0  0  0
 35 68  1  0  0  0
 36 56  1  0  0  0
 36109  1  0  0  0
 37 39  1  0  0  0
 37 47  1  0  0  0
 37 66  1  0  0  0
 37110  1  0  0  0
 38 43  2  0  0  0
 38 46  1  0  0  0
 38 47  1  0  0  0
 39 64  1  0  0  0
 39 67  2  0  0  0
 40 52  1  0  0  0
 40 53  2  0  0  0
 40 58  1  0  0  0
 41111  1  0  0  0
 41112  1  0  0  0
 41113  1  0  0  0
 41 48  1  0  0  0
 42 43  1  0  0  0
 42 66  1  0  0  0
 42114  1  0  0  0
 42115  1  0  0  0
 43 44  1  0  0  0
 44116  1  0  0  0
 45 46  2  0  0  0
 45117  1  0  0  0
 46118  1  0  0  0
 47119  1  0  0  0
 47120  1  0  0  0
 48 56  1  0  0  0
 48 65  1  0  0  0
 48121  1  0  0  0
 49 50  1  0  0  0
 49 53  1  0  0  0
 49 64  1  0  0  0
 49122  1  0  0  0
 50 51  1  0  0  0
 50123  1  0  0  0
 50124  1  0  0  0
 51 52  1  0  0  0
 51125  1  0  0  0
 51126  1  0  0  0
 52127  1  0  0  0
 52128  1  0  0  0
 53 54  1  0  0  0
 54 55  2  0  0  0
 54129  1  0  0  0
 55 57  1  0  0  0
 55130  1  0  0  0
 56 69  2  0  0  0
 57 58  2  0  0  0
 57131  1  0  0  0
 58132  1  0  0  0
 59 60  1  0  0  0
 59 61  1  0  0  0
 59 62  1  0  0  0
 60133  1  0  0  0
 60134  1  0  0  0
 60135  1  0  0  0
 61136  1  0  0  0
 61137  1  0  0  0
 61138  1  0  0  0
 62139  1  0  0  0
 62140  1  0  0  0
 62141  1  0  0  0
 63 65  1  0  0  0
 63142  1  0  0  0
 63143  1  0  0  0
 63144  1  0  0  0
 64145  1  0  0  0
 65146  1  0  0  0
 68 82  1  0  0  0
 71 75  2  0  0  0
 71 77  1  0  0  0
 71147  1  0  0  0
 72 75  1  0  0  0
 72 78  2  0  0  0
 72148  1  0  0  0
 73 76  1  0  0  0
 73 79  2  0  0  0
 73149  1  0  0  0
 74 77  2  0  0  0
 74 78  1  0  0  0
 74150  1  0  0  0
 75 81  1  0  0  0
 76 80  2  0  0  0
 76 82  1  0  0  0
 77 83  1  0  0  0
 78 84  1  0  0  0
 79 83  1  0  0  0
 79 86  1  0  0  0
 80 83  1  0  0  0
 80 87  1  0  0  0
 81 85  1  0  0  0
 81151  1  0  0  0
 81152  1  0  0  0
 82153  1  0  0  0
 82154  1  0  0  0
 84155  1  0  0  0
 84156  1  0  0  0
 85157  1  0  0  0
 86158  1  0  0  0
 87159  1  0  0  0
M  ISO  4   1 100  68 101  82 101  85 100
M  END
> <chiral flag>
0

> <version>
0

> <s_m_source_file>
/data/baiqing/PycharmProjects/Reinvent-master-3.2/result/LINK_invent/BTK/process_docking_weight1_custom_product_contain_oxygen_bond_distance_aromatic_linkinvent_7_9_3/rearranged_h_0072.sdf

> <i_m_source_file_index>
68

> <r_mmod_Potential_Energy-OPLS-2005>
12289.798828125

> <r_mmod_Stretch_Energy-OPLS-2005>
4532.07763671875

> <r_mmod_Bend_Energy-OPLS-2005>
1125.90795898438

> <r_mmod_Torsional_Energy-OPLS-2005>
496.269226074219

> <r_mmod_Improper_Torsional_Energy-OPLS-2005>
40.2015609741211

> <r_mmod_Van_der_Waal_Energy-OPLS-2005>
2158.78881835938

> <r_mmod_Electrostatic_Energy-OPLS-2005>
-398.108795166016

> <r_mmod_Solvation_Energy-OPLS-2005>
-255.813018798828

> <b_mmod_Minimization_Converged-OPLS-2005>
0

> <r_mmod_RMS_Derivative-OPLS-2005>
16.5401515960693

$$$$
68
                    3D
 Structure written by MMmdl.
158167  0  0  1  0            999 V2000
  -30.5870  -14.7636   20.4071 C   0  0  0  0  0  0
  -30.4336  -12.4519   19.4891 C   0  0  0  0  0  0
  -29.5140  -12.4716   18.2468 C   0  0  0  0  0  0
  -28.0363  -12.3161   18.6540 C   0  0  0  0  0  0
  -27.6397  -13.2275   19.8460 C   0  0  2  0  0  0
  -28.6810  -13.1755   20.9852 C   0  0  0  0  0  0
  -25.2521  -13.8198   20.5692 C   0  0  0  0  0  0
  -24.1791  -13.0457   20.9206 C   0  0  0  0  0  0
  -24.6357  -11.6917   20.8727 C   0  0  0  0  0  0
  -23.9020  -10.4299   21.0388 C   0  0  0  0  0  0
  -24.3589   -9.4222   21.9175 C   0  0  0  0  0  0
  -23.6297   -8.2245   22.0746 C   0  0  0  0  0  0
  -22.4280   -8.0282   21.3543 C   0  0  0  0  0  0
  -21.9891   -9.0249   20.4641 C   0  0  0  0  0  0
  -22.7189  -10.2141   20.3046 C   0  0  0  0  0  0
  -21.6859   -6.0726   22.5275 C   0  0  0  0  0  0
  -21.4009   -6.5628   23.8210 C   0  0  0  0  0  0
  -21.3669   -5.6793   24.9180 C   0  0  0  0  0  0
  -21.6050   -4.3055   24.7227 C   0  0  0  0  0  0
  -21.8830   -3.8134   23.4351 C   0  0  0  0  0  0
  -21.9192   -4.6944   22.3404 C   0  0  0  0  0  0
  -22.7826  -13.5259   21.1874 C   0  0  0  0  0  0
  -22.1656   -4.2124   21.0981 F   0  0  0  0  0  0
  -21.5634   -3.4547   25.7745 F   0  0  0  0  0  0
  -29.9847  -13.5249   20.4085 N   0  0  0  0  0  0
  -26.2907  -12.9369   20.3251 N   0  0  0  0  0  0
  -25.9281  -11.6519   20.5741 N   0  0  0  0  0  0
  -22.0449  -12.8264   22.0423 N   0  0  0  0  0  0
  -25.4307  -15.1918   20.4138 N   0  0  0  0  0  0
  -31.7716  -14.8664   20.0747 O   0  0  0  0  0  0
  -21.6663   -6.8872   21.4239 O   0  0  0  0  0  0
  -22.3514  -14.5552   20.6707 O   0  0  0  0  0  0
  -24.6345  -31.8528   23.1977 C   0  0  0  0  0  0
  -25.9167  -32.4737   23.8307 C   0  0  1  0  0  0
  -27.2142  -27.2418   20.1216 C   0  0  0  0  0  0
  -25.5983  -33.8546   24.2210 N   0  0  0  0  0  0
  -23.4297  -30.4788   21.5428 C   0  0  2  0  0  0
  -24.8746  -28.9270   20.1108 C   0  0  0  0  0  0
  -22.7505  -29.4598   22.4898 C   0  0  0  0  0  0
  -18.0293  -28.1395   22.8462 C   0  0  0  0  0  0
  -24.1523  -36.7276   23.2625 C   0  0  0  0  0  0
  -25.9818  -30.7577   21.3849 C   0  0  0  0  0  0
  -26.0517  -29.3832   20.7178 C   0  0  0  0  0  0
  -27.2229  -28.5550   20.7108 C   0  0  0  0  0  0
  -26.0050  -26.8574   19.4929 C   0  0  0  0  0  0
  -24.8577  -27.6721   19.4881 C   0  0  0  0  0  0
  -23.6492  -29.8200   20.1573 C   0  0  0  0  0  0
  -25.4150  -36.3043   24.0291 C   0  0  1  0  0  0
  -20.5896  -28.3716   23.1263 C   0  0  2  0  0  0
  -20.6799  -26.9433   22.5406 C   0  0  0  0  0  0
  -19.5778  -26.6373   21.5211 C   0  0  0  0  0  0
  -18.1944  -26.7931   22.1603 C   0  0  0  0  0  0
  -19.1544  -28.8866   23.2855 C   0  0  0  0  0  0
  -18.9465  -30.1464   23.8874 C   0  0  0  0  0  0
  -17.6467  -30.6594   24.0548 C   0  0  0  0  0  0
  -25.9096  -34.9422   23.5045 C   0  0  0  0  0  0
  -16.5355  -29.9086   23.6344 C   0  0  0  0  0  0
  -16.7279  -28.6514   23.0343 C   0  0  0  0  0  0
  -26.4505  -31.6595   25.0725 C   0  0  0  0  0  0
  -25.3736  -31.3774   26.1460 C   0  0  0  0  0  0
  -27.0300  -30.2986   24.6245 C   0  0  0  0  0  0
  -27.6055  -32.4340   25.7496 C   0  0  0  0  0  0
  -27.5593  -37.1784   24.8438 C   0  0  0  0  0  0
  -21.4213  -29.3058   22.3646 N   0  0  0  0  0  0
  -26.4297  -37.3765   23.9400 N   0  0  0  0  0  0
  -24.7005  -31.0471   22.0970 N   0  0  0  0  0  0
  -23.4207  -28.8126   23.2985 O   0  0  0  0  0  0
  -28.3046  -26.3300   20.1745 O   0  0  0  0  0  0
  -26.5638  -34.8899   22.4593 O   0  0  0  0  0  0
  -23.5490  -32.1357   23.7261 O   0  0  0  0  0  0
  -29.5774  -18.5164   20.4171 C   0  0  0  0  0  0
  -29.6064  -18.2043   17.6508 C   0  0  0  0  0  0
  -29.4270  -19.7205   19.5930 C   0  0  0  0  0  0
  -29.7541  -17.1673   19.8721 C   0  0  0  0  0  0
  -29.4778  -19.4965   18.1900 C   0  0  0  0  0  0
  -29.7379  -17.0668   18.4620 C   0  0  0  0  0  0
  -28.7101  -22.2320   19.4714 C   0  0  0  0  0  0
  -29.4466  -23.1249   21.4829 C   0  0  0  0  0  0
  -29.8792  -21.6272   21.3264 C   0  0  0  0  0  0
  -29.1249  -23.6431   20.0641 C   0  0  1  0  0  0
  -30.4172  -24.0890   19.3446 C   0  0  0  0  0  0
  -28.0459  -24.8611   19.9125 C   0  0  0  0  0  0
  -29.2843  -21.1328   20.0843 N   0  0  0  0  0  0
  -29.8122  -15.8956   20.6436 N   0  0  0  0  0  0
  -27.8607  -22.1644   18.5791 O   0  0  0  0  0  0
  -29.4523  -20.5239   17.3072 F   0  0  0  0  0  0
  -29.8062  -15.8590   17.8528 F   0  0  0  0  0  0
  -31.4738  -12.5752   19.1824 H   0  0  0  0  0  0
  -30.3842  -11.4842   19.9913 H   0  0  0  0  0  0
  -29.7985  -11.6680   17.5649 H   0  0  0  0  0  0
  -29.6501  -13.4001   17.6951 H   0  0  0  0  0  0
  -27.8865  -11.2700   18.9248 H   0  0  0  0  0  0
  -27.3819  -12.4954   17.8002 H   0  0  0  0  0  0
  -27.6337  -14.2466   19.4571 H   0  0  0  0  0  0
  -28.7156  -12.1824   21.4349 H   0  0  0  0  0  0
  -28.4086  -13.8664   21.7842 H   0  0  0  0  0  0
  -25.2720   -9.5729   22.4766 H   0  0  0  0  0  0
  -24.0031   -7.4629   22.7459 H   0  0  0  0  0  0
  -21.0819   -8.8729   19.8964 H   0  0  0  0  0  0
  -22.3602  -10.9681   19.6169 H   0  0  0  0  0  0
  -21.1996   -7.6146   23.9710 H   0  0  0  0  0  0
  -21.1486   -6.0512   25.9082 H   0  0  0  0  0  0
  -22.0594   -2.7587   23.2852 H   0  0  0  0  0  0
  -22.4044  -11.9944   22.4870 H   0  0  0  0  0  0
  -21.1061  -13.1285   22.2595 H   0  0  0  0  0  0
  -24.6834  -15.8614   20.5590 H   0  0  0  0  0  0
  -26.2899  -15.6190   20.0893 H   0  0  0  0  0  0
  -26.7223  -32.5346   23.1028 H   0  0  0  0  0  0
  -25.0166  -33.9692   25.0380 H   0  0  0  0  0  0
  -22.7306  -31.3049   21.3973 H   0  0  0  0  0  0
  -23.3787  -35.9602   23.3216 H   0  0  0  0  0  0
  -24.3641  -36.8971   22.2053 H   0  0  0  0  0  0
  -23.7262  -37.6441   23.6718 H   0  0  0  0  0  0
  -26.1381  -31.5227   20.6230 H   0  0  0  0  0  0
  -26.8533  -30.7921   22.0285 H   0  0  0  0  0  0
  -28.1228  -28.8983   21.2010 H   0  0  0  0  0  0
  -25.9005  -25.8958   19.0135 H   0  0  0  0  0  0
  -23.9531  -27.3158   19.0147 H   0  0  0  0  0  0
  -23.7868  -30.5988   19.4062 H   0  0  0  0  0  0
  -22.7645  -29.2624   19.8434 H   0  0  0  0  0  0
  -25.1338  -36.1844   25.0782 H   0  0  0  0  0  0
  -20.9980  -28.3292   24.1388 H   0  0  0  0  0  0
  -20.5731  -26.2311   23.3605 H   0  0  0  0  0  0
  -21.6663  -26.7477   22.1185 H   0  0  0  0  0  0
  -19.6949  -25.6270   21.1269 H   0  0  0  0  0  0
  -19.6734  -27.3161   20.6723 H   0  0  0  0  0  0
  -17.4225  -26.6660   21.3994 H   0  0  0  0  0  0
  -18.0346  -26.0088   22.9021 H   0  0  0  0  0  0
  -19.7949  -30.7274   24.2241 H   0  0  0  0  0  0
  -17.5034  -31.6288   24.5124 H   0  0  0  0  0  0
  -15.5357  -30.2981   23.7703 H   0  0  0  0  0  0
  -15.8672  -28.0836   22.7070 H   0  0  0  0  0  0
  -24.5929  -30.7088   25.7816 H   0  0  0  0  0  0
  -24.8927  -32.2956   26.4854 H   0  0  0  0  0  0
  -25.8096  -30.8996   27.0248 H   0  0  0  0  0  0
  -26.2845  -29.6769   24.1282 H   0  0  0  0  0  0
  -27.3912  -29.7243   25.4780 H   0  0  0  0  0  0
  -27.8785  -30.4169   23.9508 H   0  0  0  0  0  0
  -27.2661  -33.3667   26.2011 H   0  0  0  0  0  0
  -28.3920  -32.6849   25.0369 H   0  0  0  0  0  0
  -28.0669  -31.8508   26.5469 H   0  0  0  0  0  0
  -28.2548  -38.0142   24.7556 H   0  0  0  0  0  0
  -28.1145  -36.2668   24.6177 H   0  0  0  0  0  0
  -27.2316  -37.1317   25.8838 H   0  0  0  0  0  0
  -20.9403  -29.8791   21.6855 H   0  0  0  0  0  0
  -26.0134  -38.2799   24.1489 H   0  0  0  0  0  0
  -29.5498  -18.6317   21.4898 H   0  0  0  0  0  0
  -29.6090  -18.0843   16.5786 H   0  0  0  0  0  0
  -30.2070  -23.7192   21.9889 H   0  0  0  0  0  0
  -28.5526  -23.1739   22.1049 H   0  0  0  0  0  0
  -29.5716  -21.0229   22.1799 H   0  0  0  0  0  0
  -30.9647  -21.5466   21.2453 H   0  0  0  0  0  0
  -31.2279  -23.3699   19.4611 H   0  0  0  0  0  0
  -30.7771  -25.0452   19.7281 H   0  0  0  0  0  0
  -30.2447  -24.2118   18.2749 H   0  0  0  0  0  0
  -27.1581  -24.5719   20.4781 H   0  0  0  0  0  0
  -27.7568  -24.8269   18.8616 H   0  0  0  0  0  0
  -28.9732  -15.7058   21.1696 H   0  0  0  0  0  0
  1 25  1  0  0  0
  1 30  2  0  0  0
  1 84  1  0  0  0
  2  3  1  0  0  0
  2 25  1  0  0  0
  2 88  1  0  0  0
  2 89  1  0  0  0
  3  4  1  0  0  0
  3 90  1  0  0  0
  3 91  1  0  0  0
  4  5  1  0  0  0
  4 92  1  0  0  0
  4 93  1  0  0  0
  5  6  1  0  0  0
  5 26  1  0  0  0
  5 94  1  0  0  0
  6 25  1  0  0  0
  6 95  1  0  0  0
  6 96  1  0  0  0
  7  8  2  0  0  0
  7 26  1  0  0  0
  7 29  1  0  0  0
  8  9  1  0  0  0
  8 22  1  0  0  0
  9 10  1  0  0  0
  9 27  2  0  0  0
 10 11  2  0  0  0
 10 15  1  0  0  0
 11 12  1  0  0  0
 11 97  1  0  0  0
 12 13  2  0  0  0
 12 98  1  0  0  0
 13 14  1  0  0  0
 13 31  1  0  0  0
 14 15  2  0  0  0
 14 99  1  0  0  0
 15100  1  0  0  0
 16 17  2  0  0  0
 16 21  1  0  0  0
 16 31  1  0  0  0
 17 18  1  0  0  0
 17101  1  0  0  0
 18 19  2  0  0  0
 18102  1  0  0  0
 19 20  1  0  0  0
 19 24  1  0  0  0
 20 21  2  0  0  0
 20103  1  0  0  0
 21 23  1  0  0  0
 22 28  1  0  0  0
 22 32  2  0  0  0
 26 27  1  0  0  0
 28104  1  0  0  0
 28105  1  0  0  0
 29106  1  0  0  0
 29107  1  0  0  0
 33 34  1  0  0  0
 33 66  1  0  0  0
 33 70  2  0  0  0
 34 36  1  0  0  0
 34 59  1  0  0  0
 34108  1  0  0  0
 35 44  2  0  0  0
 35 45  1  0  0  0
 35 68  1  0  0  0
 36 56  1  0  0  0
 36109  1  0  0  0
 37 39  1  0  0  0
 37 47  1  0  0  0
 37 66  1  0  0  0
 37110  1  0  0  0
 38 43  2  0  0  0
 38 46  1  0  0  0
 38 47  1  0  0  0
 39 64  1  0  0  0
 39 67  2  0  0  0
 40 52  1  0  0  0
 40 53  2  0  0  0
 40 58  1  0  0  0
 41111  1  0  0  0
 41112  1  0  0  0
 41113  1  0  0  0
 41 48  1  0  0  0
 42 43  1  0  0  0
 42 66  1  0  0  0
 42114  1  0  0  0
 42115  1  0  0  0
 43 44  1  0  0  0
 44116  1  0  0  0
 45 46  2  0  0  0
 45117  1  0  0  0
 46118  1  0  0  0
 47119  1  0  0  0
 47120  1  0  0  0
 48 56  1  0  0  0
 48 65  1  0  0  0
 48121  1  0  0  0
 49 50  1  0  0  0
 49 53  1  0  0  0
 49 64  1  0  0  0
 49122  1  0  0  0
 50 51  1  0  0  0
 50123  1  0  0  0
 50124  1  0  0  0
 51 52  1  0  0  0
 51125  1  0  0  0
 51126  1  0  0  0
 52127  1  0  0  0
 52128  1  0  0  0
 53 54  1  0  0  0
 54 55  2  0  0  0
 54129  1  0  0  0
 55 57  1  0  0  0
 55130  1  0  0  0
 56 69  2  0  0  0
 57 58  2  0  0  0
 57131  1  0  0  0
 58132  1  0  0  0
 59 60  1  0  0  0
 59 61  1  0  0  0
 59 62  1  0  0  0
 60133  1  0  0  0
 60134  1  0  0  0
 60135  1  0  0  0
 61136  1  0  0  0
 61137  1  0  0  0
 61138  1  0  0  0
 62139  1  0  0  0
 62140  1  0  0  0
 62141  1  0  0  0
 63 65  1  0  0  0
 63142  1  0  0  0
 63143  1  0  0  0
 63144  1  0  0  0
 64145  1  0  0  0
 65146  1  0  0  0
 68 82  1  0  0  0
 71 73  2  0  0  0
 71 74  1  0  0  0
 71147  1  0  0  0
 72 75  2  0  0  0
 72 76  1  0  0  0
 72148  1  0  0  0
 73 75  1  0  0  0
 73 83  1  0  0  0
 74 76  2  0  0  0
 74 84  1  0  0  0
 75 86  1  0  0  0
 76 87  1  0  0  0
 77 80  1  0  0  0
 77 83  1  0  0  0
 77 85  2  0  0  0
 78 79  1  0  0  0
 78 80  1  0  0  0
 78149  1  0  0  0
 78150  1  0  0  0
 79 83  1  0  0  0
 79151  1  0  0  0
 79152  1  0  0  0
 80 81  1  0  0  0
 80 82  1  0  0  0
 81153  1  0  0  0
 81154  1  0  0  0
 81155  1  0  0  0
 82156  1  0  0  0
 82157  1  0  0  0
 84158  1  0  0  0
M  ISO  4   1 100  68 101  82 101  84 100
M  END
> <chiral flag>
0

> <version>
0

> <s_m_source_file>
/data/baiqing/PycharmProjects/Reinvent-master-3.2/result/LINK_invent/BTK/process_docking_weight1_custom_product_contain_oxygen_bond_distance_aromatic_linkinvent_7_9_3/rearranged_h_0072.sdf

> <i_m_source_file_index>
69

> <r_mmod_Potential_Energy-OPLS-2005>
260.301788330078

> <r_mmod_Stretch_Energy-OPLS-2005>
135.539779663086

> <r_mmod_Bend_Energy-OPLS-2005>
199.093505859375

> <r_mmod_Torsional_Energy-OPLS-2005>
312.033599853516

> <r_mmod_Improper_Torsional_Energy-OPLS-2005>
5.8237738609314

> <r_mmod_Van_der_Waal_Energy-OPLS-2005>
145.094528198242

> <r_mmod_Electrostatic_Energy-OPLS-2005>
-411.035186767578

> <r_mmod_Solvation_Energy-OPLS-2005>
-224.388259887695

> <b_mmod_Minimization_Converged-OPLS-2005>
0

> <r_mmod_RMS_Derivative-OPLS-2005>
3.80290985107422

$$$$
69
                    3D
 Structure written by MMmdl.
157166  0  0  1  0            999 V2000
  -30.5423  -14.5566   20.6579 C   0  0  0  0  0  0
  -30.3964  -12.4136   19.3777 C   0  0  0  0  0  0
  -29.4371  -12.4988   18.1649 C   0  0  0  0  0  0
  -27.9645  -12.3445   18.6026 C   0  0  0  0  0  0
  -27.6257  -13.1854   19.8670 C   0  0  2  0  0  0
  -28.6566  -12.9027   20.9792 C   0  0  0  0  0  0
  -25.2566  -13.8181   20.6336 C   0  0  0  0  0  0
  -24.1738  -13.0424   20.9695 C   0  0  0  0  0  0
  -24.6201  -11.6871   20.8827 C   0  0  0  0  0  0
  -23.8917  -10.4269   21.0400 C   0  0  0  0  0  0
  -24.3411   -9.4156   21.9152 C   0  0  0  0  0  0
  -23.6080   -8.2212   22.0708 C   0  0  0  0  0  0
  -22.4089   -8.0240   21.3536 C   0  0  0  0  0  0
  -21.9675   -9.0269   20.4786 C   0  0  0  0  0  0
  -22.6998  -10.2167   20.3188 C   0  0  0  0  0  0
  -21.6742   -6.0673   22.5280 C   0  0  0  0  0  0
  -21.3748   -6.5585   23.8165 C   0  0  0  0  0  0
  -21.3490   -5.6814   24.9161 C   0  0  0  0  0  0
  -21.6044   -4.3060   24.7263 C   0  0  0  0  0  0
  -21.8900   -3.8136   23.4459 C   0  0  0  0  0  0
  -21.9207   -4.6895   22.3440 C   0  0  0  0  0  0
  -22.7877  -13.5259   21.2476 C   0  0  0  0  0  0
  -22.1742   -4.2075   21.1026 F   0  0  0  0  0  0
  -21.5659   -3.4583   25.7814 F   0  0  0  0  0  0
  -29.9557  -13.3337   20.4599 N   0  0  0  0  0  0
  -26.2760  -12.9220   20.3349 N   0  0  0  0  0  0
  -25.9049  -11.6399   20.5723 N   0  0  0  0  0  0
  -22.0434  -12.8381   22.1113 N   0  0  0  0  0  0
  -25.4451  -15.1934   20.5630 N   0  0  0  0  0  0
  -31.6832  -14.7513   20.2201 O   0  0  0  0  0  0
  -21.6528   -6.8790   21.4237 O   0  0  0  0  0  0
  -22.3479  -14.5519   20.7251 O   0  0  0  0  0  0
  -24.6158  -31.8533   23.2159 C   0  0  0  0  0  0
  -25.9023  -32.4702   23.8409 C   0  0  1  0  0  0
  -27.2363  -27.3606   20.1332 C   0  0  0  0  0  0
  -25.5854  -33.8500   24.2308 N   0  0  0  0  0  0
  -23.4096  -30.4841   21.5477 C   0  0  2  0  0  0
  -24.8653  -28.9293   20.1264 C   0  0  0  0  0  0
  -22.7381  -29.4629   22.4932 C   0  0  0  0  0  0
  -18.0266  -28.1349   22.8529 C   0  0  0  0  0  0
  -24.1481  -36.7238   23.2663 C   0  0  0  0  0  0
  -25.9471  -30.7881   21.3954 C   0  0  0  0  0  0
  -26.0212  -29.4205   20.7400 C   0  0  0  0  0  0
  -27.2051  -28.6411   20.7481 C   0  0  0  0  0  0
  -26.0656  -26.9015   19.4945 C   0  0  0  0  0  0
  -24.8819  -27.6706   19.5009 C   0  0  0  0  0  0
  -23.6356  -29.8122   20.1636 C   0  0  0  0  0  0
  -25.4096  -36.2992   24.0352 C   0  0  1  0  0  0
  -20.5840  -28.3610   23.1301 C   0  0  2  0  0  0
  -20.6734  -26.9315   22.5436 C   0  0  0  0  0  0
  -19.5724  -26.6377   21.5208 C   0  0  0  0  0  0
  -18.1913  -26.7914   22.1668 C   0  0  0  0  0  0
  -19.1509  -28.8789   23.2936 C   0  0  0  0  0  0
  -18.9470  -30.1391   23.8924 C   0  0  0  0  0  0
  -17.6491  -30.6541   24.0554 C   0  0  0  0  0  0
  -25.9029  -34.9380   23.5142 C   0  0  0  0  0  0
  -16.5367  -29.9054   23.6309 C   0  0  0  0  0  0
  -16.7282  -28.6475   23.0340 C   0  0  0  0  0  0
  -26.4494  -31.6470   25.0726 C   0  0  0  0  0  0
  -25.3816  -31.3503   26.1492 C   0  0  0  0  0  0
  -27.0317  -30.2893   24.6177 C   0  0  0  0  0  0
  -27.6055  -32.4198   25.7430 C   0  0  0  0  0  0
  -27.5552  -37.1787   24.8506 C   0  0  0  0  0  0
  -21.4094  -29.2993   22.3634 N   0  0  0  0  0  0
  -26.4285  -37.3693   23.9409 N   0  0  0  0  0  0
  -24.6718  -31.0636   22.1083 N   0  0  0  0  0  0
  -23.4150  -28.8127   23.2955 O   0  0  0  0  0  0
  -28.3935  -26.5945   20.0969 O   0  0  0  0  0  0
  -26.5625  -34.8885   22.4729 O   0  0  0  0  0  0
  -23.5362  -32.1253   23.7582 O   0  0  0  0  0  0
  -26.9260  -18.8823   22.3086 C   0  0  0  0  0  0
  -27.8304  -17.8119   22.1424 C   0  0  0  0  0  0
  -27.1371  -20.1106   21.6562 C   0  0  0  0  0  0
  -29.1971  -19.2463   20.7187 C   0  0  0  0  0  0
  -28.9944  -17.9699   21.3609 C   0  0  0  0  0  0
  -28.2577  -20.3199   20.8392 C   0  0  0  0  0  0
  -29.0378  -22.6882   20.5330 C   0  0  0  0  0  0
  -30.0832  -16.8837   21.3113 C   0  0  0  0  0  0
  -27.2244  -23.5282   19.2479 C   0  0  0  0  0  0
  -27.2842  -21.9868   19.2098 C   0  0  0  0  0  0
  -28.5425  -23.9983   19.8460 C   0  0  1  0  0  0
  -28.3810  -25.2870   20.7509 C   0  0  0  0  0  0
  -28.3385  -21.5940   20.1463 N   0  0  0  0  0  0
  -29.7505  -15.5563   21.1951 N   0  0  0  0  0  0
  -30.0089  -22.6698   21.2992 O   0  0  0  0  0  0
  -31.2546  -17.2942   21.3172 O   0  0  0  0  0  0
  -31.4079  -12.6293   19.0405 H   0  0  0  0  0  0
  -30.4197  -11.3826   19.7420 H   0  0  0  0  0  0
  -29.6688  -11.7158   17.4352 H   0  0  0  0  0  0
  -29.5787  -13.4418   17.6287 H   0  0  0  0  0  0
  -27.7959  -11.2847   18.8241 H   0  0  0  0  0  0
  -27.2707  -12.5671   17.7864 H   0  0  0  0  0  0
  -27.6737  -14.2376   19.5866 H   0  0  0  0  0  0
  -28.7056  -11.8251   21.2000 H   0  0  0  0  0  0
  -28.3890  -13.3818   21.9168 H   0  0  0  0  0  0
  -25.2441   -9.5611   22.4809 H   0  0  0  0  0  0
  -23.9815   -7.4638   22.7481 H   0  0  0  0  0  0
  -21.0455   -8.8978   19.9258 H   0  0  0  0  0  0
  -22.3291  -10.9777   19.6433 H   0  0  0  0  0  0
  -21.1475   -7.6040   23.9626 H   0  0  0  0  0  0
  -21.1179   -6.0501   25.9078 H   0  0  0  0  0  0
  -22.0786   -2.7608   23.3069 H   0  0  0  0  0  0
  -22.3843  -12.0001   22.5645 H   0  0  0  0  0  0
  -21.1026  -13.1471   22.3157 H   0  0  0  0  0  0
  -25.9092  -15.6334   19.7757 H   0  0  0  0  0  0
  -24.7574  -15.8040   21.0051 H   0  0  0  0  0  0
  -26.6995  -32.5391   23.1070 H   0  0  0  0  0  0
  -24.9921  -33.9633   25.0396 H   0  0  0  0  0  0
  -22.7032  -31.3025   21.3977 H   0  0  0  0  0  0
  -23.3715  -35.9624   23.3452 H   0  0  0  0  0  0
  -24.3524  -36.8741   22.2051 H   0  0  0  0  0  0
  -23.7323  -37.6511   23.6625 H   0  0  0  0  0  0
  -26.1003  -31.5609   20.6386 H   0  0  0  0  0  0
  -26.8262  -30.8246   22.0305 H   0  0  0  0  0  0
  -28.0854  -29.0141   21.2514 H   0  0  0  0  0  0
  -26.0768  -25.9610   18.9642 H   0  0  0  0  0  0
  -23.9970  -27.2939   19.0002 H   0  0  0  0  0  0
  -23.7704  -30.5850   19.4022 H   0  0  0  0  0  0
  -22.7604  -29.2380   19.8488 H   0  0  0  0  0  0
  -25.1283  -36.1860   25.0853 H   0  0  0  0  0  0
  -20.9964  -28.3230   24.1418 H   0  0  0  0  0  0
  -20.5530  -26.2220   23.3639 H   0  0  0  0  0  0
  -21.6609  -26.7284   22.1272 H   0  0  0  0  0  0
  -19.6818  -25.6303   21.1170 H   0  0  0  0  0  0
  -19.6669  -27.3240   20.6775 H   0  0  0  0  0  0
  -17.4159  -26.6643   21.4089 H   0  0  0  0  0  0
  -18.0345  -26.0016   22.9042 H   0  0  0  0  0  0
  -19.7935  -30.7160   24.2363 H   0  0  0  0  0  0
  -17.5042  -31.6232   24.5113 H   0  0  0  0  0  0
  -15.5347  -30.2985   23.7564 H   0  0  0  0  0  0
  -15.8715  -28.0772   22.7060 H   0  0  0  0  0  0
  -24.6095  -30.6694   25.7863 H   0  0  0  0  0  0
  -24.8905  -32.2591   26.5008 H   0  0  0  0  0  0
  -25.8311  -30.8691   27.0189 H   0  0  0  0  0  0
  -26.2822  -29.6657   24.1313 H   0  0  0  0  0  0
  -27.4039  -29.7105   25.4633 H   0  0  0  0  0  0
  -27.8694  -30.4099   23.9302 H   0  0  0  0  0  0
  -27.2687  -33.3514   26.2003 H   0  0  0  0  0  0
  -28.3844  -32.6747   25.0207 H   0  0  0  0  0  0
  -28.0709  -31.8297   26.5349 H   0  0  0  0  0  0
  -28.2670  -37.9963   24.7350 H   0  0  0  0  0  0
  -28.0928  -36.2497   24.6581 H   0  0  0  0  0  0
  -27.2240  -37.1744   25.8900 H   0  0  0  0  0  0
  -20.9216  -29.8746   21.6886 H   0  0  0  0  0  0
  -26.0169  -38.2789   24.1348 H   0  0  0  0  0  0
  -26.0627  -18.7723   22.9494 H   0  0  0  0  0  0
  -27.6775  -16.8919   22.6780 H   0  0  0  0  0  0
  -26.4332  -20.9173   21.7988 H   0  0  0  0  0  0
  -30.0867  -19.4064   20.1181 H   0  0  0  0  0  0
  -26.3966  -23.8217   19.8956 H   0  0  0  0  0  0
  -27.0302  -23.9617   18.2622 H   0  0  0  0  0  0
  -27.5364  -21.6433   18.2051 H   0  0  0  0  0  0
  -26.3200  -21.5489   19.4645 H   0  0  0  0  0  0
  -29.2714  -24.1974   19.0595 H   0  0  0  0  0  0
  -29.2135  -25.3068   21.4521 H   0  0  0  0  0  0
  -27.5003  -25.1774   21.3821 H   0  0  0  0  0  0
  -28.7927  -15.3182   21.4105 H   0  0  0  0  0  0
  1 25  1  0  0  0
  1 30  2  0  0  0
  1 84  1  0  0  0
  2  3  1  0  0  0
  2 25  1  0  0  0
  2 87  1  0  0  0
  2 88  1  0  0  0
  3  4  1  0  0  0
  3 89  1  0  0  0
  3 90  1  0  0  0
  4  5  1  0  0  0
  4 91  1  0  0  0
  4 92  1  0  0  0
  5  6  1  0  0  0
  5 26  1  0  0  0
  5 93  1  0  0  0
  6 25  1  0  0  0
  6 94  1  0  0  0
  6 95  1  0  0  0
  7  8  2  0  0  0
  7 26  1  0  0  0
  7 29  1  0  0  0
  8  9  1  0  0  0
  8 22  1  0  0  0
  9 10  1  0  0  0
  9 27  2  0  0  0
 10 11  2  0  0  0
 10 15  1  0  0  0
 11 12  1  0  0  0
 11 96  1  0  0  0
 12 13  2  0  0  0
 12 97  1  0  0  0
 13 14  1  0  0  0
 13 31  1  0  0  0
 14 15  2  0  0  0
 14 98  1  0  0  0
 15 99  1  0  0  0
 16 17  2  0  0  0
 16 21  1  0  0  0
 16 31  1  0  0  0
 17 18  1  0  0  0
 17100  1  0  0  0
 18 19  2  0  0  0
 18101  1  0  0  0
 19 20  1  0  0  0
 19 24  1  0  0  0
 20 21  2  0  0  0
 20102  1  0  0  0
 21 23  1  0  0  0
 22 28  1  0  0  0
 22 32  2  0  0  0
 26 27  1  0  0  0
 28103  1  0  0  0
 28104  1  0  0  0
 29105  1  0  0  0
 29106  1  0  0  0
 33 34  1  0  0  0
 33 66  1  0  0  0
 33 70  2  0  0  0
 34 36  1  0  0  0
 34 59  1  0  0  0
 34107  1  0  0  0
 35 44  2  0  0  0
 35 45  1  0  0  0
 35 68  1  0  0  0
 36 56  1  0  0  0
 36108  1  0  0  0
 37 39  1  0  0  0
 37 47  1  0  0  0
 37 66  1  0  0  0
 37109  1  0  0  0
 38 43  2  0  0  0
 38 46  1  0  0  0
 38 47  1  0  0  0
 39 64  1  0  0  0
 39 67  2  0  0  0
 40 52  1  0  0  0
 40 53  2  0  0  0
 40 58  1  0  0  0
 41110  1  0  0  0
 41111  1  0  0  0
 41112  1  0  0  0
 41 48  1  0  0  0
 42 43  1  0  0  0
 42 66  1  0  0  0
 42113  1  0  0  0
 42114  1  0  0  0
 43 44  1  0  0  0
 44115  1  0  0  0
 45 46  2  0  0  0
 45116  1  0  0  0
 46117  1  0  0  0
 47118  1  0  0  0
 47119  1  0  0  0
 48 56  1  0  0  0
 48 65  1  0  0  0
 48120  1  0  0  0
 49 50  1  0  0  0
 49 53  1  0  0  0
 49 64  1  0  0  0
 49121  1  0  0  0
 50 51  1  0  0  0
 50122  1  0  0  0
 50123  1  0  0  0
 51 52  1  0  0  0
 51124  1  0  0  0
 51125  1  0  0  0
 52126  1  0  0  0
 52127  1  0  0  0
 53 54  1  0  0  0
 54 55  2  0  0  0
 54128  1  0  0  0
 55 57  1  0  0  0
 55129  1  0  0  0
 56 69  2  0  0  0
 57 58  2  0  0  0
 57130  1  0  0  0
 58131  1  0  0  0
 59 60  1  0  0  0
 59 61  1  0  0  0
 59 62  1  0  0  0
 60132  1  0  0  0
 60133  1  0  0  0
 60134  1  0  0  0
 61135  1  0  0  0
 61136  1  0  0  0
 61137  1  0  0  0
 62138  1  0  0  0
 62139  1  0  0  0
 62140  1  0  0  0
 63 65  1  0  0  0
 63141  1  0  0  0
 63142  1  0  0  0
 63143  1  0  0  0
 64144  1  0  0  0
 65145  1  0  0  0
 68 82  1  0  0  0
 71 72  2  0  0  0
 71 73  1  0  0  0
 71146  1  0  0  0
 72 75  1  0  0  0
 72147  1  0  0  0
 73 76  2  0  0  0
 73148  1  0  0  0
 74 75  2  0  0  0
 74 76  1  0  0  0
 74149  1  0  0  0
 75 78  1  0  0  0
 76 83  1  0  0  0
 77 81  1  0  0  0
 77 83  1  0  0  0
 77 85  2  0  0  0
 78 84  1  0  0  0
 78 86  2  0  0  0
 79 80  1  0  0  0
 79 81  1  0  0  0
 79150  1  0  0  0
 79151  1  0  0  0
 80 83  1  0  0  0
 80152  1  0  0  0
 80153  1  0  0  0
 81 82  1  0  0  0
 81154  1  0  0  0
 82155  1  0  0  0
 82156  1  0  0  0
 84157  1  0  0  0
M  ISO  4   1 100  68 101  82 101  84 100
M  END
> <chiral flag>
0

> <version>
0

> <s_m_source_file>
/data/baiqing/PycharmProjects/Reinvent-master-3.2/result/LINK_invent/BTK/process_docking_weight1_custom_product_contain_oxygen_bond_distance_aromatic_linkinvent_7_9_3/rearranged_h_0072.sdf

> <i_m_source_file_index>
70

> <r_mmod_Potential_Energy-OPLS-2005>
94.8851089477539

> <r_mmod_Stretch_Energy-OPLS-2005>
65.4957580566406

> <r_mmod_Bend_Energy-OPLS-2005>
141.522598266602

> <r_mmod_Torsional_Energy-OPLS-2005>
341.875427246094

> <r_mmod_Improper_Torsional_Energy-OPLS-2005>
8.3731689453125

> <r_mmod_Van_der_Waal_Energy-OPLS-2005>
140.4580078125

> <r_mmod_Electrostatic_Energy-OPLS-2005>
-404.625

> <r_mmod_Solvation_Energy-OPLS-2005>
-238.381973266602

> <b_mmod_Minimization_Converged-OPLS-2005>
0

> <r_mmod_RMS_Derivative-OPLS-2005>
16.3143463134766

$$$$
70
                    3D
 Structure written by MMmdl.
154163  0  0  1  0            999 V2000
  -30.5902  -14.6662   20.5487 C   0  0  0  0  0  0
  -30.4488  -12.4220   19.4618 C   0  0  0  0  0  0
  -29.5130  -12.5401   18.2360 C   0  0  0  0  0  0
  -28.0365  -12.3577   18.6441 C   0  0  0  0  0  0
  -27.6552  -13.2203   19.8775 C   0  0  2  0  0  0
  -28.6964  -13.0474   21.0057 C   0  0  0  0  0  0
  -25.2518  -13.8162   20.5701 C   0  0  0  0  0  0
  -24.1789  -13.0427   20.9192 C   0  0  0  0  0  0
  -24.6363  -11.6921   20.8727 C   0  0  0  0  0  0
  -23.9043  -10.4287   21.0410 C   0  0  0  0  0  0
  -24.3603   -9.4199   21.9176 C   0  0  0  0  0  0
  -23.6258   -8.2246   22.0775 C   0  0  0  0  0  0
  -22.4239   -8.0266   21.3561 C   0  0  0  0  0  0
  -21.9874   -9.0266   20.4690 C   0  0  0  0  0  0
  -22.7228  -10.2127   20.3069 C   0  0  0  0  0  0
  -21.6846   -6.0716   22.5274 C   0  0  0  0  0  0
  -21.4035   -6.5634   23.8201 C   0  0  0  0  0  0
  -21.3669   -5.6786   24.9164 C   0  0  0  0  0  0
  -21.6028   -4.3038   24.7227 C   0  0  0  0  0  0
  -21.8822   -3.8141   23.4347 C   0  0  0  0  0  0
  -21.9193   -4.6953   22.3407 C   0  0  0  0  0  0
  -22.7798  -13.5226   21.1810 C   0  0  0  0  0  0
  -22.1646   -4.2150   21.0976 F   0  0  0  0  0  0
  -21.5625   -3.4518   25.7740 F   0  0  0  0  0  0
  -30.0111  -13.4229   20.4570 N   0  0  0  0  0  0
  -26.2982  -12.9384   20.3390 N   0  0  0  0  0  0
  -25.9284  -11.6527   20.5752 N   0  0  0  0  0  0
  -22.0439  -12.8275   22.0405 N   0  0  0  0  0  0
  -25.4165  -15.1898   20.4184 N   0  0  0  0  0  0
  -31.7257  -14.8718   20.1081 O   0  0  0  0  0  0
  -21.6618   -6.8861   21.4233 O   0  0  0  0  0  0
  -22.3484  -14.5527   20.6636 O   0  0  0  0  0  0
  -24.6278  -31.8586   23.1966 C   0  0  0  0  0  0
  -25.9105  -32.4766   23.8324 C   0  0  1  0  0  0
  -27.2472  -27.3112   20.1105 C   0  0  0  0  0  0
  -25.5915  -33.8575   24.2259 N   0  0  0  0  0  0
  -23.4248  -30.4758   21.5353 C   0  0  2  0  0  0
  -24.8756  -28.9175   20.1043 C   0  0  0  0  0  0
  -22.7489  -29.4597   22.4874 C   0  0  0  0  0  0
  -18.0304  -28.1385   22.8470 C   0  0  0  0  0  0
  -24.1475  -36.7294   23.2635 C   0  0  0  0  0  0
  -25.9638  -30.7786   21.3733 C   0  0  0  0  0  0
  -26.0375  -29.4025   20.7169 C   0  0  0  0  0  0
  -27.2175  -28.6054   20.7154 C   0  0  0  0  0  0
  -26.0678  -26.8685   19.4788 C   0  0  0  0  0  0
  -24.8947  -27.6561   19.4778 C   0  0  0  0  0  0
  -23.6470  -29.8055   20.1495 C   0  0  0  0  0  0
  -25.4097  -36.3090   24.0328 C   0  0  1  0  0  0
  -20.5899  -28.3696   23.1258 C   0  0  2  0  0  0
  -20.6794  -26.9407   22.5396 C   0  0  0  0  0  0
  -19.5766  -26.6384   21.5199 C   0  0  0  0  0  0
  -18.1943  -26.7926   22.1606 C   0  0  0  0  0  0
  -19.1555  -28.8852   23.2863 C   0  0  0  0  0  0
  -18.9488  -30.1433   23.8906 C   0  0  0  0  0  0
  -17.6493  -30.6567   24.0570 C   0  0  0  0  0  0
  -25.9042  -34.9453   23.5094 C   0  0  0  0  0  0
  -16.5376  -29.9081   23.6316 C   0  0  0  0  0  0
  -16.7298  -28.6503   23.0328 C   0  0  0  0  0  0
  -26.4469  -31.6619   25.0732 C   0  0  0  0  0  0
  -25.3680  -31.3836   26.1461 C   0  0  0  0  0  0
  -27.0322  -30.3033   24.6234 C   0  0  0  0  0  0
  -27.6023  -32.4362   25.7508 C   0  0  0  0  0  0
  -27.5588  -37.1793   24.8442 C   0  0  0  0  0  0
  -21.4193  -29.3046   22.3627 N   0  0  0  0  0  0
  -26.4275  -37.3790   23.9425 N   0  0  0  0  0  0
  -24.6892  -31.0553   22.0917 N   0  0  0  0  0  0
  -23.4200  -28.8154   23.2974 O   0  0  0  0  0  0
  -28.4070  -26.5256   20.1874 O   0  0  0  0  0  0
  -26.5613  -34.8935   22.4663 O   0  0  0  0  0  0
  -23.5424  -32.1389   23.7260 O   0  0  0  0  0  0
  -29.5228  -19.3390   19.9488 C   0  0  0  0  0  0
  -29.6611  -17.8414   22.2789 C   0  0  0  0  0  0
  -29.2806  -20.0629   21.1635 C   0  0  0  0  0  0
  -29.8265  -17.1242   21.0701 C   0  0  0  0  0  0
  -29.7967  -17.9265   19.8970 C   0  0  0  0  0  0
  -29.4465  -19.2453   22.3343 C   0  0  0  0  0  0
  -28.3739  -23.7476   21.8333 C   0  0  0  0  0  0
  -28.5755  -22.2817   22.2588 C   0  0  0  0  0  0
  -28.7595  -22.4008   19.9578 C   0  0  0  0  0  0
  -28.1338  -23.8191   20.3514 C   0  0  2  0  0  0
  -28.5940  -25.1674   19.6199 C   0  0  0  0  0  0
  -28.9043  -21.5201   21.1740 N   0  0  0  0  0  0
  -29.8043  -15.6529   21.0925 N   0  0  0  0  0  0
  -28.3346  -24.7176   22.6015 O   0  0  0  0  0  0
  -28.3728  -21.9399   23.4269 O   0  0  0  0  0  0
  -29.9702  -17.3302   18.6928 F   0  0  0  0  0  0
  -29.4363  -19.7571   23.5833 F   0  0  0  0  0  0
  -31.4902  -12.5629   19.1670 H   0  0  0  0  0  0
  -30.3938  -11.4196   19.8910 H   0  0  0  0  0  0
  -29.7839  -11.8016   17.4805 H   0  0  0  0  0  0
  -29.6444  -13.5159   17.7692 H   0  0  0  0  0  0
  -27.8789  -11.3033   18.8664 H   0  0  0  0  0  0
  -27.3818  -12.5915   17.8040 H   0  0  0  0  0  0
  -27.6795  -14.2611   19.5525 H   0  0  0  0  0  0
  -28.7146  -12.0105   21.3473 H   0  0  0  0  0  0
  -28.4306  -13.6337   21.8870 H   0  0  0  0  0  0
  -25.2751   -9.5655   22.4742 H   0  0  0  0  0  0
  -23.9977   -7.4636   22.7473 H   0  0  0  0  0  0
  -21.0818   -8.8796   19.8992 H   0  0  0  0  0  0
  -22.3692  -10.9667   19.6180 H   0  0  0  0  0  0
  -21.2038   -7.6145   23.9707 H   0  0  0  0  0  0
  -21.1479   -6.0512   25.9063 H   0  0  0  0  0  0
  -22.0588   -2.7603   23.2834 H   0  0  0  0  0  0
  -22.4024  -11.9997   22.4919 H   0  0  0  0  0  0
  -21.1072  -13.1336   22.2601 H   0  0  0  0  0  0
  -24.6423  -15.8316   20.5506 H   0  0  0  0  0  0
  -26.2616  -15.6512   20.1081 H   0  0  0  0  0  0
  -26.7193  -32.5425   23.1091 H   0  0  0  0  0  0
  -25.0095  -33.9719   25.0429 H   0  0  0  0  0  0
  -22.7201  -31.2955   21.3846 H   0  0  0  0  0  0
  -23.3753  -35.9613   23.3279 H   0  0  0  0  0  0
  -24.3584  -36.8941   22.2061 H   0  0  0  0  0  0
  -23.7222  -37.6480   23.6678 H   0  0  0  0  0  0
  -26.1006  -31.5385   20.6022 H   0  0  0  0  0  0
  -26.8432  -30.8291   22.0050 H   0  0  0  0  0  0
  -28.1083  -28.9742   21.2046 H   0  0  0  0  0  0
  -26.0402  -25.9012   18.9970 H   0  0  0  0  0  0
  -24.0052  -27.2800   18.9920 H   0  0  0  0  0  0
  -23.7838  -30.5843   19.3983 H   0  0  0  0  0  0
  -22.7658  -29.2441   19.8326 H   0  0  0  0  0  0
  -25.1278  -36.1926   25.0818 H   0  0  0  0  0  0
  -21.0007  -28.3293   24.1367 H   0  0  0  0  0  0
  -20.5659  -26.2312   23.3615 H   0  0  0  0  0  0
  -21.6664  -26.7405   22.1226 H   0  0  0  0  0  0
  -19.6924  -25.6280   21.1233 H   0  0  0  0  0  0
  -19.6697  -27.3185   20.6707 H   0  0  0  0  0  0
  -17.4202  -26.6649   21.4021 H   0  0  0  0  0  0
  -18.0351  -26.0075   22.9024 H   0  0  0  0  0  0
  -19.7969  -30.7229   24.2309 H   0  0  0  0  0  0
  -17.5051  -31.6250   24.5184 H   0  0  0  0  0  0
  -15.5382  -30.2991   23.7621 H   0  0  0  0  0  0
  -15.8701  -28.0822   22.7030 H   0  0  0  0  0  0
  -24.5773  -30.7270   25.7815 H   0  0  0  0  0  0
  -24.8953  -32.3045   26.4887 H   0  0  0  0  0  0
  -25.7953  -30.9000   27.0250 H   0  0  0  0  0  0
  -26.2924  -29.6783   24.1205 H   0  0  0  0  0  0
  -27.3958  -29.7300   25.4778 H   0  0  0  0  0  0
  -27.8818  -30.4331   23.9520 H   0  0  0  0  0  0
  -27.2615  -33.3638   26.2121 H   0  0  0  0  0  0
  -28.3810  -32.6967   25.0328 H   0  0  0  0  0  0
  -28.0715  -31.8470   26.5400 H   0  0  0  0  0  0
  -28.2556  -38.0139   24.7554 H   0  0  0  0  0  0
  -28.1131  -36.2676   24.6157 H   0  0  0  0  0  0
  -27.2336  -37.1325   25.8850 H   0  0  0  0  0  0
  -20.9363  -29.8800   21.6864 H   0  0  0  0  0  0
  -26.0147  -38.2853   24.1465 H   0  0  0  0  0  0
  -29.4798  -19.8664   19.0089 H   0  0  0  0  0  0
  -29.6955  -17.3131   23.2213 H   0  0  0  0  0  0
  -29.7341  -22.5224   19.4856 H   0  0  0  0  0  0
  -28.1118  -21.9077   19.2316 H   0  0  0  0  0  0
  -27.0522  -23.7536   20.2390 H   0  0  0  0  0  0
  -28.2058  -25.1572   18.6014 H   0  0  0  0  0  0
  -29.6731  -25.0846   19.4849 H   0  0  0  0  0  0
  -28.9753  -15.2730   21.5245 H   0  0  0  0  0  0
  1 25  1  0  0  0
  1 30  2  0  0  0
  1 83  1  0  0  0
  2  3  1  0  0  0
  2 25  1  0  0  0
  2 88  1  0  0  0
  2 89  1  0  0  0
  3  4  1  0  0  0
  3 90  1  0  0  0
  3 91  1  0  0  0
  4  5  1  0  0  0
  4 92  1  0  0  0
  4 93  1  0  0  0
  5  6  1  0  0  0
  5 26  1  0  0  0
  5 94  1  0  0  0
  6 25  1  0  0  0
  6 95  1  0  0  0
  6 96  1  0  0  0
  7  8  2  0  0  0
  7 26  1  0  0  0
  7 29  1  0  0  0
  8  9  1  0  0  0
  8 22  1  0  0  0
  9 10  1  0  0  0
  9 27  2  0  0  0
 10 11  2  0  0  0
 10 15  1  0  0  0
 11 12  1  0  0  0
 11 97  1  0  0  0
 12 13  2  0  0  0
 12 98  1  0  0  0
 13 14  1  0  0  0
 13 31  1  0  0  0
 14 15  2  0  0  0
 14 99  1  0  0  0
 15100  1  0  0  0
 16 17  2  0  0  0
 16 21  1  0  0  0
 16 31  1  0  0  0
 17 18  1  0  0  0
 17101  1  0  0  0
 18 19  2  0  0  0
 18102  1  0  0  0
 19 20  1  0  0  0
 19 24  1  0  0  0
 20 21  2  0  0  0
 20103  1  0  0  0
 21 23  1  0  0  0
 22 28  1  0  0  0
 22 32  2  0  0  0
 26 27  1  0  0  0
 28104  1  0  0  0
 28105  1  0  0  0
 29106  1  0  0  0
 29107  1  0  0  0
 33 34  1  0  0  0
 33 66  1  0  0  0
 33 70  2  0  0  0
 34 36  1  0  0  0
 34 59  1  0  0  0
 34108  1  0  0  0
 35 44  2  0  0  0
 35 45  1  0  0  0
 35 68  1  0  0  0
 36 56  1  0  0  0
 36109  1  0  0  0
 37 39  1  0  0  0
 37 47  1  0  0  0
 37 66  1  0  0  0
 37110  1  0  0  0
 38 43  2  0  0  0
 38 46  1  0  0  0
 38 47  1  0  0  0
 39 64  1  0  0  0
 39 67  2  0  0  0
 40 52  1  0  0  0
 40 53  2  0  0  0
 40 58  1  0  0  0
 41111  1  0  0  0
 41112  1  0  0  0
 41113  1  0  0  0
 41 48  1  0  0  0
 42 43  1  0  0  0
 42 66  1  0  0  0
 42114  1  0  0  0
 42115  1  0  0  0
 43 44  1  0  0  0
 44116  1  0  0  0
 45 46  2  0  0  0
 45117  1  0  0  0
 46118  1  0  0  0
 47119  1  0  0  0
 47120  1  0  0  0
 48 56  1  0  0  0
 48 65  1  0  0  0
 48121  1  0  0  0
 49 50  1  0  0  0
 49 53  1  0  0  0
 49 64  1  0  0  0
 49122  1  0  0  0
 50 51  1  0  0  0
 50123  1  0  0  0
 50124  1  0  0  0
 51 52  1  0  0  0
 51125  1  0  0  0
 51126  1  0  0  0
 52127  1  0  0  0
 52128  1  0  0  0
 53 54  1  0  0  0
 54 55  2  0  0  0
 54129  1  0  0  0
 55 57  1  0  0  0
 55130  1  0  0  0
 56 69  2  0  0  0
 57 58  2  0  0  0
 57131  1  0  0  0
 58132  1  0  0  0
 59 60  1  0  0  0
 59 61  1  0  0  0
 59 62  1  0  0  0
 60133  1  0  0  0
 60134  1  0  0  0
 60135  1  0  0  0
 61136  1  0  0  0
 61137  1  0  0  0
 61138  1  0  0  0
 62139  1  0  0  0
 62140  1  0  0  0
 62141  1  0  0  0
 63 65  1  0  0  0
 63142  1  0  0  0
 63143  1  0  0  0
 63144  1  0  0  0
 64145  1  0  0  0
 65146  1  0  0  0
 68 81  1  0  0  0
 71 73  2  0  0  0
 71 75  1  0  0  0
 71147  1  0  0  0
 72 74  1  0  0  0
 72 76  2  0  0  0
 72148  1  0  0  0
 73 76  1  0  0  0
 73 82  1  0  0  0
 74 75  2  0  0  0
 74 83  1  0  0  0
 75 86  1  0  0  0
 76 87  1  0  0  0
 77 78  1  0  0  0
 77 80  1  0  0  0
 77 84  2  0  0  0
 78 82  1  0  0  0
 78 85  2  0  0  0
 79 80  1  0  0  0
 79 82  1  0  0  0
 79149  1  0  0  0
 79150  1  0  0  0
 80 81  1  0  0  0
 80151  1  0  0  0
 81152  1  0  0  0
 81153  1  0  0  0
 83154  1  0  0  0
M  ISO  4   1 100  68 101  81 101  83 100
M  END
> <chiral flag>
0

> <version>
0

> <s_m_source_file>
/data/baiqing/PycharmProjects/Reinvent-master-3.2/result/LINK_invent/BTK/process_docking_weight1_custom_product_contain_oxygen_bond_distance_aromatic_linkinvent_7_9_3/rearranged_h_0072.sdf

> <i_m_source_file_index>
71

> <r_mmod_Potential_Energy-OPLS-2005>
167.049133300781

> <r_mmod_Stretch_Energy-OPLS-2005>
101.055603027344

> <r_mmod_Bend_Energy-OPLS-2005>
213.356964111328

> <r_mmod_Torsional_Energy-OPLS-2005>
249.180206298828

> <r_mmod_Improper_Torsional_Energy-OPLS-2005>
4.47180271148682

> <r_mmod_Van_der_Waal_Energy-OPLS-2005>
140.019912719727

> <r_mmod_Electrostatic_Energy-OPLS-2005>
-328.585662841797

> <r_mmod_Solvation_Energy-OPLS-2005>
-266.065948486328

> <b_mmod_Minimization_Converged-OPLS-2005>
0

> <r_mmod_RMS_Derivative-OPLS-2005>
5.06003332138062

$$$$
71
                    3D
 Structure written by MMmdl.
158166  0  0  1  0            999 V2000
  -30.6135  -14.6440   20.5100 C   0  0  0  0  0  0
  -30.4437  -12.4005   19.4432 C   0  0  0  0  0  0
  -29.5075  -12.5122   18.2188 C   0  0  0  0  0  0
  -28.0293  -12.3514   18.6311 C   0  0  0  0  0  0
  -27.6527  -13.2166   19.8636 C   0  0  2  0  0  0
  -28.6992  -13.0626   20.9900 C   0  0  0  0  0  0
  -25.2549  -13.8167   20.5685 C   0  0  0  0  0  0
  -24.1822  -13.0426   20.9181 C   0  0  0  0  0  0
  -24.6398  -11.6902   20.8730 C   0  0  0  0  0  0
  -23.9067  -10.4288   21.0399 C   0  0  0  0  0  0
  -24.3616   -9.4206   21.9179 C   0  0  0  0  0  0
  -23.6290   -8.2242   22.0756 C   0  0  0  0  0  0
  -22.4269   -8.0281   21.3548 C   0  0  0  0  0  0
  -21.9905   -9.0252   20.4646 C   0  0  0  0  0  0
  -22.7237  -10.2127   20.3050 C   0  0  0  0  0  0
  -21.6850   -6.0732   22.5281 C   0  0  0  0  0  0
  -21.4016   -6.5641   23.8216 C   0  0  0  0  0  0
  -21.3657   -5.6791   24.9178 C   0  0  0  0  0  0
  -21.6040   -4.3053   24.7228 C   0  0  0  0  0  0
  -21.8819   -3.8145   23.4348 C   0  0  0  0  0  0
  -21.9198   -4.6960   22.3402 C   0  0  0  0  0  0
  -22.7842  -13.5223   21.1850 C   0  0  0  0  0  0
  -22.1664   -4.2146   21.0976 F   0  0  0  0  0  0
  -21.5626   -3.4533   25.7743 F   0  0  0  0  0  0
  -30.0130  -13.4142   20.4263 N   0  0  0  0  0  0
  -26.2990  -12.9351   20.3320 N   0  0  0  0  0  0
  -25.9331  -11.6505   20.5748 N   0  0  0  0  0  0
  -22.0487  -12.8215   22.0407 N   0  0  0  0  0  0
  -25.4223  -15.1890   20.4140 N   0  0  0  0  0  0
  -31.7835  -14.8161   20.1538 O   0  0  0  0  0  0
  -21.6638   -6.8871   21.4241 O   0  0  0  0  0  0
  -22.3528  -14.5536   20.6712 O   0  0  0  0  0  0
  -24.6254  -31.8585   23.1999 C   0  0  0  0  0  0
  -25.9094  -32.4787   23.8334 C   0  0  1  0  0  0
  -27.2342  -27.3196   20.1267 C   0  0  0  0  0  0
  -25.5896  -33.8578   24.2270 N   0  0  0  0  0  0
  -23.4202  -30.4814   21.5417 C   0  0  2  0  0  0
  -24.8695  -28.9333   20.1112 C   0  0  0  0  0  0
  -22.7479  -29.4624   22.4930 C   0  0  0  0  0  0
  -18.0294  -28.1384   22.8501 C   0  0  0  0  0  0
  -24.1479  -36.7287   23.2644 C   0  0  0  0  0  0
  -25.9602  -30.7931   21.3670 C   0  0  0  0  0  0
  -26.0368  -29.4185   20.7147 C   0  0  0  0  0  0
  -27.2211  -28.6237   20.7103 C   0  0  0  0  0  0
  -26.0423  -26.8840   19.5037 C   0  0  0  0  0  0
  -24.8743  -27.6715   19.4976 C   0  0  0  0  0  0
  -23.6359  -29.8114   20.1586 C   0  0  0  0  0  0
  -25.4109  -36.3085   24.0339 C   0  0  1  0  0  0
  -20.5891  -28.3676   23.1296 C   0  0  2  0  0  0
  -20.6778  -26.9391   22.5421 C   0  0  0  0  0  0
  -19.5755  -26.6375   21.5219 C   0  0  0  0  0  0
  -18.1937  -26.7937   22.1620 C   0  0  0  0  0  0
  -19.1547  -28.8843   23.2901 C   0  0  0  0  0  0
  -18.9471  -30.1446   23.8905 C   0  0  0  0  0  0
  -17.6474  -30.6589   24.0565 C   0  0  0  0  0  0
  -25.9037  -34.9456   23.5109 C   0  0  0  0  0  0
  -16.5361  -29.9094   23.6326 C   0  0  0  0  0  0
  -16.7278  -28.6504   23.0362 C   0  0  0  0  0  0
  -26.4480  -31.6593   25.0698 C   0  0  0  0  0  0
  -25.3721  -31.3727   26.1425 C   0  0  0  0  0  0
  -27.0304  -30.3025   24.6111 C   0  0  0  0  0  0
  -27.6042  -32.4308   25.7484 C   0  0  0  0  0  0
  -27.5578  -37.1803   24.8479 C   0  0  0  0  0  0
  -21.4188  -29.3039   22.3691 N   0  0  0  0  0  0
  -26.4292  -37.3780   23.9415 N   0  0  0  0  0  0
  -24.6879  -31.0618   22.0944 N   0  0  0  0  0  0
  -23.4218  -28.8169   23.3007 O   0  0  0  0  0  0
  -28.3635  -26.4857   20.1828 O   0  0  0  0  0  0
  -26.5615  -34.8935   22.4681 O   0  0  0  0  0  0
  -23.5419  -32.1350   23.7350 O   0  0  0  0  0  0
  -28.7673  -19.3562   20.6410 C   0  0  0  0  0  0
  -31.1169  -17.8553   20.9465 C   0  0  0  0  0  0
  -29.9585  -20.0883   20.8837 C   0  0  0  0  0  0
  -31.1520  -19.2845   21.0172 C   0  0  0  0  0  0
  -29.9102  -17.1376   20.7606 C   0  0  0  0  0  0
  -28.7430  -17.9299   20.5980 C   0  0  0  0  0  0
  -29.9088  -21.5982   21.1234 C   0  0  0  0  0  0
  -30.6605  -24.5037   19.6648 C   0  0  0  0  0  0
  -28.1867  -25.0158   20.0767 C   0  0  0  0  0  0
  -29.4215  -24.0892   20.4748 C   0  0  1  0  0  0
  -32.4112  -19.8441   21.2714 N   0  0  0  0  0  0
  -30.5916  -22.0438   22.1783 N   0  0  0  0  0  0
  -29.7730  -15.6809   20.8102 N   0  0  0  0  0  0
  -29.2537  -22.5665   20.3906 N   0  3  0  0  0  0
  -27.5567  -17.2995   20.4188 F   0  0  0  0  0  0
  -31.4818  -12.5421   19.1361 H   0  0  0  0  0  0
  -30.3932  -11.4017   19.8805 H   0  0  0  0  0  0
  -29.7715  -11.7602   17.4739 H   0  0  0  0  0  0
  -29.6483  -13.4800   17.7353 H   0  0  0  0  0  0
  -27.8614  -11.2970   18.8544 H   0  0  0  0  0  0
  -27.3766  -12.5909   17.7902 H   0  0  0  0  0  0
  -27.6687  -14.2529   19.5269 H   0  0  0  0  0  0
  -28.7133  -12.0365   21.3606 H   0  0  0  0  0  0
  -28.4455  -13.6855   21.8497 H   0  0  0  0  0  0
  -25.2759   -9.5681   22.4753 H   0  0  0  0  0  0
  -24.0000   -7.4629   22.7473 H   0  0  0  0  0  0
  -21.0839   -8.8761   19.8950 H   0  0  0  0  0  0
  -22.3693  -10.9662   19.6154 H   0  0  0  0  0  0
  -21.2005   -7.6153   23.9719 H   0  0  0  0  0  0
  -21.1477   -6.0521   25.9080 H   0  0  0  0  0  0
  -22.0601   -2.7608   23.2850 H   0  0  0  0  0  0
  -22.4099  -11.9869   22.4788 H   0  0  0  0  0  0
  -21.1102  -13.1231   22.2601 H   0  0  0  0  0  0
  -24.6532  -15.8355   20.5469 H   0  0  0  0  0  0
  -26.2754  -15.6586   20.1327 H   0  0  0  0  0  0
  -26.7162  -32.5446   23.1082 H   0  0  0  0  0  0
  -25.0048  -33.9716   25.0423 H   0  0  0  0  0  0
  -22.7138  -31.3021   21.3963 H   0  0  0  0  0  0
  -23.3747  -35.9612   23.3317 H   0  0  0  0  0  0
  -24.3579  -36.8886   22.2059 H   0  0  0  0  0  0
  -23.7231  -37.6498   23.6646 H   0  0  0  0  0  0
  -26.0830  -31.5529   20.5941 H   0  0  0  0  0  0
  -26.8461  -30.8510   21.9876 H   0  0  0  0  0  0
  -28.1166  -28.9927   21.1898 H   0  0  0  0  0  0
  -25.9858  -25.9181   19.0245 H   0  0  0  0  0  0
  -23.9791  -27.2922   19.0239 H   0  0  0  0  0  0
  -23.7529  -30.5849   19.3985 H   0  0  0  0  0  0
  -22.7568  -29.2379   19.8582 H   0  0  0  0  0  0
  -25.1291  -36.1941   25.0837 H   0  0  0  0  0  0
  -20.9979  -28.3229   24.1412 H   0  0  0  0  0  0
  -20.5675  -26.2263   23.3614 H   0  0  0  0  0  0
  -21.6653  -26.7426   22.1204 H   0  0  0  0  0  0
  -19.6911  -25.6287   21.1238 H   0  0  0  0  0  0
  -19.6707  -27.3203   20.6769 H   0  0  0  0  0  0
  -17.4209  -26.6690   21.4023 H   0  0  0  0  0  0
  -18.0323  -26.0094   22.9019 H   0  0  0  0  0  0
  -19.7944  -30.7266   24.2276 H   0  0  0  0  0  0
  -17.5029  -31.6279   24.5153 H   0  0  0  0  0  0
  -15.5360  -30.3004   23.7657 H   0  0  0  0  0  0
  -15.8672  -28.0828   22.7077 H   0  0  0  0  0  0
  -24.5923  -30.7037   25.7767 H   0  0  0  0  0  0
  -24.8870  -32.2881   26.4811 H   0  0  0  0  0  0
  -25.8043  -30.8950   27.0223 H   0  0  0  0  0  0
  -26.2850  -29.6805   24.1135 H   0  0  0  0  0  0
  -27.4045  -29.7249   25.4577 H   0  0  0  0  0  0
  -27.8698  -30.4348   23.9281 H   0  0  0  0  0  0
  -27.2666  -33.3629   26.2031 H   0  0  0  0  0  0
  -28.3875  -32.6824   25.0319 H   0  0  0  0  0  0
  -28.0667  -31.8434   26.5428 H   0  0  0  0  0  0
  -28.2604  -38.0093   24.7501 H   0  0  0  0  0  0
  -28.1059  -36.2617   24.6315 H   0  0  0  0  0  0
  -27.2292  -37.1474   25.8885 H   0  0  0  0  0  0
  -20.9354  -29.8753   21.6899 H   0  0  0  0  0  0
  -26.0172  -38.2853   24.1418 H   0  0  0  0  0  0
  -27.8316  -19.8883   20.5500 H   0  0  0  0  0  0
  -32.0271  -17.2910   21.0831 H   0  0  0  0  0  0
  -30.9920  -25.5033   19.9472 H   0  0  0  0  0  0
  -30.4486  -24.5200   18.5965 H   0  0  0  0  0  0
  -31.4987  -23.8255   19.8279 H   0  0  0  0  0  0
  -27.3431  -24.7244   20.7038 H   0  0  0  0  0  0
  -27.9078  -24.7783   19.0505 H   0  0  0  0  0  0
  -29.6293  -24.3242   21.5190 H   0  0  0  0  0  0
  -33.2265  -19.2395   21.2435 H   0  0  0  0  0  0
  -32.6194  -20.7736   20.9189 H   0  0  0  0  0  0
  -31.1772  -21.3729   22.6613 H   0  0  0  0  0  0
  -30.5769  -22.9966   22.4962 H   0  0  0  0  0  0
  -28.8278  -15.3775   20.9847 H   0  0  0  0  0  0
  -28.7615  -22.2284   19.5716 H   0  0  0  0  0  0
  1 25  1  0  0  0
  1 30  2  0  0  0
  1 83  1  0  0  0
  2  3  1  0  0  0
  2 25  1  0  0  0
  2 86  1  0  0  0
  2 87  1  0  0  0
  3  4  1  0  0  0
  3 88  1  0  0  0
  3 89  1  0  0  0
  4  5  1  0  0  0
  4 90  1  0  0  0
  4 91  1  0  0  0
  5  6  1  0  0  0
  5 26  1  0  0  0
  5 92  1  0  0  0
  6 25  1  0  0  0
  6 93  1  0  0  0
  6 94  1  0  0  0
  7  8  2  0  0  0
  7 26  1  0  0  0
  7 29  1  0  0  0
  8  9  1  0  0  0
  8 22  1  0  0  0
  9 10  1  0  0  0
  9 27  2  0  0  0
 10 11  2  0  0  0
 10 15  1  0  0  0
 11 12  1  0  0  0
 11 95  1  0  0  0
 12 13  2  0  0  0
 12 96  1  0  0  0
 13 14  1  0  0  0
 13 31  1  0  0  0
 14 15  2  0  0  0
 14 97  1  0  0  0
 15 98  1  0  0  0
 16 17  2  0  0  0
 16 21  1  0  0  0
 16 31  1  0  0  0
 17 18  1  0  0  0
 17 99  1  0  0  0
 18 19  2  0  0  0
 18100  1  0  0  0
 19 20  1  0  0  0
 19 24  1  0  0  0
 20 21  2  0  0  0
 20101  1  0  0  0
 21 23  1  0  0  0
 22 28  1  0  0  0
 22 32  2  0  0  0
 26 27  1  0  0  0
 28102  1  0  0  0
 28103  1  0  0  0
 29104  1  0  0  0
 29105  1  0  0  0
 33 34  1  0  0  0
 33 66  1  0  0  0
 33 70  2  0  0  0
 34 36  1  0  0  0
 34 59  1  0  0  0
 34106  1  0  0  0
 35 44  2  0  0  0
 35 45  1  0  0  0
 35 68  1  0  0  0
 36 56  1  0  0  0
 36107  1  0  0  0
 37 39  1  0  0  0
 37 47  1  0  0  0
 37 66  1  0  0  0
 37108  1  0  0  0
 38 43  2  0  0  0
 38 46  1  0  0  0
 38 47  1  0  0  0
 39 64  1  0  0  0
 39 67  2  0  0  0
 40 52  1  0  0  0
 40 53  2  0  0  0
 40 58  1  0  0  0
 41109  1  0  0  0
 41110  1  0  0  0
 41111  1  0  0  0
 41 48  1  0  0  0
 42 43  1  0  0  0
 42 66  1  0  0  0
 42112  1  0  0  0
 42113  1  0  0  0
 43 44  1  0  0  0
 44114  1  0  0  0
 45 46  2  0  0  0
 45115  1  0  0  0
 46116  1  0  0  0
 47117  1  0  0  0
 47118  1  0  0  0
 48 56  1  0  0  0
 48 65  1  0  0  0
 48119  1  0  0  0
 49 50  1  0  0  0
 49 53  1  0  0  0
 49 64  1  0  0  0
 49120  1  0  0  0
 50 51  1  0  0  0
 50121  1  0  0  0
 50122  1  0  0  0
 51 52  1  0  0  0
 51123  1  0  0  0
 51124  1  0  0  0
 52125  1  0  0  0
 52126  1  0  0  0
 53 54  1  0  0  0
 54 55  2  0  0  0
 54127  1  0  0  0
 55 57  1  0  0  0
 55128  1  0  0  0
 56 69  2  0  0  0
 57 58  2  0  0  0
 57129  1  0  0  0
 58130  1  0  0  0
 59 60  1  0  0  0
 59 61  1  0  0  0
 59 62  1  0  0  0
 60131  1  0  0  0
 60132  1  0  0  0
 60133  1  0  0  0
 61134  1  0  0  0
 61135  1  0  0  0
 61136  1  0  0  0
 62137  1  0  0  0
 62138  1  0  0  0
 62139  1  0  0  0
 63 65  1  0  0  0
 63140  1  0  0  0
 63141  1  0  0  0
 63142  1  0  0  0
 64143  1  0  0  0
 65144  1  0  0  0
 68 79  1  0  0  0
 71 73  2  0  0  0
 71 76  1  0  0  0
 71145  1  0  0  0
 72 74  2  0  0  0
 72 75  1  0  0  0
 72146  1  0  0  0
 73 74  1  0  0  0
 73 77  1  0  0  0
 74 81  1  0  0  0
 75 76  2  0  0  0
 75 83  1  0  0  0
 76 85  1  0  0  0
 77 82  1  0  0  0
 77 84  2  0  0  0
 78147  1  0  0  0
 78148  1  0  0  0
 78149  1  0  0  0
 78 80  1  0  0  0
 79 80  1  0  0  0
 79150  1  0  0  0
 79151  1  0  0  0
 80 84  1  0  0  0
 80152  1  0  0  0
 81153  1  0  0  0
 81154  1  0  0  0
 82155  1  0  0  0
 82156  1  0  0  0
 83157  1  0  0  0
 84158  1  0  0  0
M  CHG  1  84   1
M  ISO  4   1 100  68 101  79 101  83 100
M  END
> <chiral flag>
0

> <version>
0

> <s_m_source_file>
/data/baiqing/PycharmProjects/Reinvent-master-3.2/result/LINK_invent/BTK/process_docking_weight1_custom_product_contain_oxygen_bond_distance_aromatic_linkinvent_7_9_3/rearranged_h_0072.sdf

> <i_m_source_file_index>
72

> <r_mmod_Potential_Energy-OPLS-2005>
-93.0914001464844

> <r_mmod_Stretch_Energy-OPLS-2005>
86.3716659545898

> <r_mmod_Bend_Energy-OPLS-2005>
145.236801147461

> <r_mmod_Torsional_Energy-OPLS-2005>
223.587036132812

> <r_mmod_Improper_Torsional_Energy-OPLS-2005>
9.01006031036377

> <r_mmod_Van_der_Waal_Energy-OPLS-2005>
148.984710693359

> <r_mmod_Electrostatic_Energy-OPLS-2005>
-343.514556884766

> <r_mmod_Solvation_Energy-OPLS-2005>
-411.613708496094

> <b_mmod_Minimization_Converged-OPLS-2005>
0

> <r_mmod_RMS_Derivative-OPLS-2005>
2.00301766395569

$$$$
72
                    3D
 Structure written by MMmdl.
162171  0  0  1  0            999 V2000
  -30.6527  -14.7448   20.4395 C   0  0  0  0  0  0
  -30.4201  -12.4524   19.4775 C   0  0  0  0  0  0
  -29.5028  -12.4984   18.2378 C   0  0  0  0  0  0
  -28.0318  -12.3256   18.6565 C   0  0  0  0  0  0
  -27.6387  -13.2384   19.8481 C   0  0  2  0  0  0
  -28.6863  -13.2054   20.9831 C   0  0  0  0  0  0
  -25.2508  -13.8217   20.5725 C   0  0  0  0  0  0
  -24.1806  -13.0451   20.9231 C   0  0  0  0  0  0
  -24.6403  -11.6930   20.8766 C   0  0  0  0  0  0
  -23.9086  -10.4296   21.0413 C   0  0  0  0  0  0
  -24.3630   -9.4209   21.9191 C   0  0  0  0  0  0
  -23.6299   -8.2246   22.0763 C   0  0  0  0  0  0
  -22.4287   -8.0284   21.3547 C   0  0  0  0  0  0
  -21.9921   -9.0261   20.4655 C   0  0  0  0  0  0
  -22.7256  -10.2140   20.3066 C   0  0  0  0  0  0
  -21.6848   -6.0747   22.5275 C   0  0  0  0  0  0
  -21.4013   -6.5649   23.8211 C   0  0  0  0  0  0
  -21.3662   -5.6798   24.9173 C   0  0  0  0  0  0
  -21.6040   -4.3064   24.7216 C   0  0  0  0  0  0
  -21.8821   -3.8162   23.4340 C   0  0  0  0  0  0
  -21.9190   -4.6975   22.3395 C   0  0  0  0  0  0
  -22.7823  -13.5222   21.1867 C   0  0  0  0  0  0
  -22.1661   -4.2161   21.0975 F   0  0  0  0  0  0
  -21.5624   -3.4551   25.7734 F   0  0  0  0  0  0
  -29.9854  -13.5393   20.3883 N   0  0  0  0  0  0
  -26.2937  -12.9432   20.3315 N   0  0  0  0  0  0
  -25.9336  -11.6569   20.5792 N   0  0  0  0  0  0
  -22.0468  -12.8218   22.0425 N   0  0  0  0  0  0
  -25.4202  -15.1940   20.4146 N   0  0  0  0  0  0
  -31.8460  -14.7539   20.1346 O   0  0  0  0  0  0
  -21.6649   -6.8892   21.4244 O   0  0  0  0  0  0
  -22.3505  -14.5524   20.6706 O   0  0  0  0  0  0
  -24.6292  -31.8544   23.1993 C   0  0  0  0  0  0
  -25.9114  -32.4761   23.8334 C   0  0  1  0  0  0
  -27.2269  -27.2781   20.1388 C   0  0  0  0  0  0
  -25.5917  -33.8560   24.2257 N   0  0  0  0  0  0
  -23.4250  -30.4750   21.5425 C   0  0  2  0  0  0
  -24.8760  -28.9157   20.1189 C   0  0  0  0  0  0
  -22.7496  -29.4596   22.4936 C   0  0  0  0  0  0
  -18.0277  -28.1387   22.8481 C   0  0  0  0  0  0
  -24.1483  -36.7284   23.2642 C   0  0  0  0  0  0
  -25.9695  -30.7753   21.3746 C   0  0  0  0  0  0
  -26.0467  -29.3966   20.7202 C   0  0  0  0  0  0
  -27.2290  -28.5921   20.7115 C   0  0  0  0  0  0
  -26.0340  -26.8478   19.5248 C   0  0  0  0  0  0
  -24.8725  -27.6484   19.5107 C   0  0  0  0  0  0
  -23.6438  -29.7994   20.1624 C   0  0  0  0  0  0
  -25.4108  -36.3070   24.0328 C   0  0  1  0  0  0
  -20.5888  -28.3690   23.1285 C   0  0  2  0  0  0
  -20.6771  -26.9409   22.5414 C   0  0  0  0  0  0
  -19.5747  -26.6380   21.5218 C   0  0  0  0  0  0
  -18.1920  -26.7938   22.1616 C   0  0  0  0  0  0
  -19.1534  -28.8850   23.2875 C   0  0  0  0  0  0
  -18.9453  -30.1452   23.8891 C   0  0  0  0  0  0
  -17.6459  -30.6594   24.0556 C   0  0  0  0  0  0
  -25.9046  -34.9443   23.5098 C   0  0  0  0  0  0
  -16.5346  -29.9094   23.6339 C   0  0  0  0  0  0
  -16.7267  -28.6510   23.0361 C   0  0  0  0  0  0
  -26.4498  -31.6593   25.0720 C   0  0  0  0  0  0
  -25.3732  -31.3737   26.1452 C   0  0  0  0  0  0
  -27.0369  -30.3016   24.6222 C   0  0  0  0  0  0
  -27.6059  -32.4348   25.7479 C   0  0  0  0  0  0
  -27.5589  -37.1778   24.8453 C   0  0  0  0  0  0
  -21.4203  -29.3034   22.3680 N   0  0  0  0  0  0
  -26.4281  -37.3771   23.9427 N   0  0  0  0  0  0
  -24.6932  -31.0533   22.0949 N   0  0  0  0  0  0
  -23.4205  -28.8130   23.3020 O   0  0  0  0  0  0
  -28.3390  -26.4148   20.1216 O   0  0  0  0  0  0
  -26.5630  -34.8914   22.4675 O   0  0  0  0  0  0
  -23.5446  -32.1351   23.7305 O   0  0  0  0  0  0
  -29.4464  -18.5160   20.4877 C   0  0  0  0  0  0
  -31.2770  -20.1060   20.3058 C   0  0  0  0  0  0
  -31.7325  -17.7099   20.4099 C   0  0  0  0  0  0
  -29.8783  -19.9126   20.3847 C   0  0  0  0  0  0
  -30.3572  -17.3740   20.5034 C   0  0  0  0  0  0
  -32.2044  -19.0391   20.2877 C   0  0  0  0  0  0
  -27.2433  -22.7023   20.0353 C   0  0  0  0  0  0
  -27.6937  -21.2086   20.1226 C   0  0  0  0  0  0
  -29.5353  -22.5805   20.4614 C   0  0  0  0  0  0
  -28.4438  -23.6454   20.0085 C   0  0  2  0  0  0
  -33.9913  -20.4792   19.3527 C   0  0  0  0  0  0
  -34.5808  -18.2721   20.3847 C   0  0  0  0  0  0
  -28.2521  -25.0686   20.7749 C   0  0  0  0  0  0
  -29.0291  -21.1534   20.3331 N   0  0  0  0  0  0
  -29.9377  -15.9341   20.6113 N   0  0  0  0  0  0
  -33.5868  -19.3152   20.1408 N   0  0  0  0  0  0
  -26.0675  -23.0833   19.9688 O   0  0  0  0  0  0
  -26.9164  -20.2511   20.0071 O   0  0  0  0  0  0
  -31.4618  -12.5495   19.1698 H   0  0  0  0  0  0
  -30.3490  -11.4861   19.9784 H   0  0  0  0  0  0
  -29.7833  -11.7175   17.5300 H   0  0  0  0  0  0
  -29.6290  -13.4481   17.7156 H   0  0  0  0  0  0
  -27.8943  -11.2809   18.9350 H   0  0  0  0  0  0
  -27.3708  -12.5029   17.8077 H   0  0  0  0  0  0
  -27.6245  -14.2540   19.4506 H   0  0  0  0  0  0
  -28.7229  -12.2232   21.4565 H   0  0  0  0  0  0
  -28.4261  -13.9164   21.7689 H   0  0  0  0  0  0
  -25.2764   -9.5685   22.4779 H   0  0  0  0  0  0
  -24.0005   -7.4640   22.7487 H   0  0  0  0  0  0
  -21.0852   -8.8785   19.8956 H   0  0  0  0  0  0
  -22.3709  -10.9686   19.6189 H   0  0  0  0  0  0
  -21.2017   -7.6160   23.9714 H   0  0  0  0  0  0
  -21.1476   -6.0537   25.9076 H   0  0  0  0  0  0
  -22.0598   -2.7620   23.2836 H   0  0  0  0  0  0
  -22.4091  -11.9870   22.4787 H   0  0  0  0  0  0
  -21.1097  -13.1250   22.2643 H   0  0  0  0  0  0
  -24.6538  -15.8492   20.5260 H   0  0  0  0  0  0
  -26.2682  -15.6319   20.0778 H   0  0  0  0  0  0
  -26.7183  -32.5419   23.1079 H   0  0  0  0  0  0
  -25.0035  -33.9690   25.0384 H   0  0  0  0  0  0
  -22.7181  -31.2940   21.3929 H   0  0  0  0  0  0
  -23.3763  -35.9595   23.3249 H   0  0  0  0  0  0
  -24.3567  -36.8965   22.2067 H   0  0  0  0  0  0
  -23.7213  -37.6451   23.6709 H   0  0  0  0  0  0
  -26.1027  -31.5362   20.6048 H   0  0  0  0  0  0
  -26.8496  -30.8284   22.0041 H   0  0  0  0  0  0
  -28.1334  -28.9594   21.1768 H   0  0  0  0  0  0
  -25.9994  -25.8724   19.0613 H   0  0  0  0  0  0
  -23.9732  -27.2718   19.0434 H   0  0  0  0  0  0
  -23.7642  -30.5693   19.4002 H   0  0  0  0  0  0
  -22.7639  -29.2257   19.8645 H   0  0  0  0  0  0
  -25.1295  -36.1895   25.0820 H   0  0  0  0  0  0
  -20.9955  -28.3278   24.1424 H   0  0  0  0  0  0
  -20.5662  -26.2304   23.3619 H   0  0  0  0  0  0
  -21.6639  -26.7437   22.1215 H   0  0  0  0  0  0
  -19.6902  -25.6287   21.1258 H   0  0  0  0  0  0
  -19.6699  -27.3181   20.6747 H   0  0  0  0  0  0
  -17.4197  -26.6684   21.4007 H   0  0  0  0  0  0
  -18.0288  -26.0078   22.9007 H   0  0  0  0  0  0
  -19.7926  -30.7254   24.2272 H   0  0  0  0  0  0
  -17.5023  -31.6282   24.5152 H   0  0  0  0  0  0
  -15.5346  -30.2996   23.7693 H   0  0  0  0  0  0
  -15.8659  -28.0838   22.7101 H   0  0  0  0  0  0
  -24.5903  -30.7094   25.7774 H   0  0  0  0  0  0
  -24.8930  -32.2902   26.4895 H   0  0  0  0  0  0
  -25.8064  -30.8896   27.0217 H   0  0  0  0  0  0
  -26.2972  -29.6711   24.1281 H   0  0  0  0  0  0
  -27.4086  -29.7332   25.4758 H   0  0  0  0  0  0
  -27.8822  -30.4285   23.9456 H   0  0  0  0  0  0
  -27.2696  -33.3677   26.2019 H   0  0  0  0  0  0
  -28.3888  -32.6863   25.0311 H   0  0  0  0  0  0
  -28.0710  -31.8493   26.5419 H   0  0  0  0  0  0
  -28.2569  -38.0114   24.7582 H   0  0  0  0  0  0
  -28.1136  -36.2660   24.6190 H   0  0  0  0  0  0
  -27.2322  -37.1314   25.8853 H   0  0  0  0  0  0
  -20.9391  -29.8756   21.6886 H   0  0  0  0  0  0
  -26.0157  -38.2830   24.1477 H   0  0  0  0  0  0
  -28.3889  -18.3067   20.5582 H   0  0  0  0  0  0
  -31.6689  -21.1068   20.2489 H   0  0  0  0  0  0
  -32.4693  -16.9290   20.4213 H   0  0  0  0  0  0
  -29.8284  -22.7520   21.4978 H   0  0  0  0  0  0
  -30.4196  -22.7389   19.8458 H   0  0  0  0  0  0
  -28.6133  -23.8644   18.9546 H   0  0  0  0  0  0
  -33.2674  -20.7086   18.5680 H   0  0  0  0  0  0
  -34.9501  -20.3103   18.8588 H   0  0  0  0  0  0
  -34.0978  -21.3591   19.9890 H   0  0  0  0  0  0
  -34.4367  -17.8156   21.3654 H   0  0  0  0  0  0
  -35.5933  -18.6798   20.3625 H   0  0  0  0  0  0
  -34.5268  -17.4891   19.6263 H   0  0  0  0  0  0
  -29.0207  -25.1022   21.5472 H   0  0  0  0  0  0
  -27.3256  -25.0352   21.3494 H   0  0  0  0  0  0
  -28.9554  -15.7887   20.7878 H   0  0  0  0  0  0
  1 25  1  0  0  0
  1 30  2  0  0  0
  1 85  1  0  0  0
  2  3  1  0  0  0
  2 25  1  0  0  0
  2 89  1  0  0  0
  2 90  1  0  0  0
  3  4  1  0  0  0
  3 91  1  0  0  0
  3 92  1  0  0  0
  4  5  1  0  0  0
  4 93  1  0  0  0
  4 94  1  0  0  0
  5  6  1  0  0  0
  5 26  1  0  0  0
  5 95  1  0  0  0
  6 25  1  0  0  0
  6 96  1  0  0  0
  6 97  1  0  0  0
  7  8  2  0  0  0
  7 26  1  0  0  0
  7 29  1  0  0  0
  8  9  1  0  0  0
  8 22  1  0  0  0
  9 10  1  0  0  0
  9 27  2  0  0  0
 10 11  2  0  0  0
 10 15  1  0  0  0
 11 12  1  0  0  0
 11 98  1  0  0  0
 12 13  2  0  0  0
 12 99  1  0  0  0
 13 14  1  0  0  0
 13 31  1  0  0  0
 14 15  2  0  0  0
 14100  1  0  0  0
 15101  1  0  0  0
 16 17  2  0  0  0
 16 21  1  0  0  0
 16 31  1  0  0  0
 17 18  1  0  0  0
 17102  1  0  0  0
 18 19  2  0  0  0
 18103  1  0  0  0
 19 20  1  0  0  0
 19 24  1  0  0  0
 20 21  2  0  0  0
 20104  1  0  0  0
 21 23  1  0  0  0
 22 28  1  0  0  0
 22 32  2  0  0  0
 26 27  1  0  0  0
 28105  1  0  0  0
 28106  1  0  0  0
 29107  1  0  0  0
 29108  1  0  0  0
 33 34  1  0  0  0
 33 66  1  0  0  0
 33 70  2  0  0  0
 34 36  1  0  0  0
 34 59  1  0  0  0
 34109  1  0  0  0
 35 44  2  0  0  0
 35 45  1  0  0  0
 35 68  1  0  0  0
 36 56  1  0  0  0
 36110  1  0  0  0
 37 39  1  0  0  0
 37 47  1  0  0  0
 37 66  1  0  0  0
 37111  1  0  0  0
 38 43  2  0  0  0
 38 46  1  0  0  0
 38 47  1  0  0  0
 39 64  1  0  0  0
 39 67  2  0  0  0
 40 52  1  0  0  0
 40 53  2  0  0  0
 40 58  1  0  0  0
 41112  1  0  0  0
 41113  1  0  0  0
 41114  1  0  0  0
 41 48  1  0  0  0
 42 43  1  0  0  0
 42 66  1  0  0  0
 42115  1  0  0  0
 42116  1  0  0  0
 43 44  1  0  0  0
 44117  1  0  0  0
 45 46  2  0  0  0
 45118  1  0  0  0
 46119  1  0  0  0
 47120  1  0  0  0
 47121  1  0  0  0
 48 56  1  0  0  0
 48 65  1  0  0  0
 48122  1  0  0  0
 49 50  1  0  0  0
 49 53  1  0  0  0
 49 64  1  0  0  0
 49123  1  0  0  0
 50 51  1  0  0  0
 50124  1  0  0  0
 50125  1  0  0  0
 51 52  1  0  0  0
 51126  1  0  0  0
 51127  1  0  0  0
 52128  1  0  0  0
 52129  1  0  0  0
 53 54  1  0  0  0
 54 55  2  0  0  0
 54130  1  0  0  0
 55 57  1  0  0  0
 55131  1  0  0  0
 56 69  2  0  0  0
 57 58  2  0  0  0
 57132  1  0  0  0
 58133  1  0  0  0
 59 60  1  0  0  0
 59 61  1  0  0  0
 59 62  1  0  0  0
 60134  1  0  0  0
 60135  1  0  0  0
 60136  1  0  0  0
 61137  1  0  0  0
 61138  1  0  0  0
 61139  1  0  0  0
 62140  1  0  0  0
 62141  1  0  0  0
 62142  1  0  0  0
 63 65  1  0  0  0
 63143  1  0  0  0
 63144  1  0  0  0
 63145  1  0  0  0
 64146  1  0  0  0
 65147  1  0  0  0
 68 83  1  0  0  0
 71 74  2  0  0  0
 71 75  1  0  0  0
 71148  1  0  0  0
 72 74  1  0  0  0
 72 76  2  0  0  0
 72149  1  0  0  0
 73 75  2  0  0  0
 73 76  1  0  0  0
 73150  1  0  0  0
 74 84  1  0  0  0
 75 85  1  0  0  0
 76 86  1  0  0  0
 77 78  1  0  0  0
 77 80  1  0  0  0
 77 87  2  0  0  0
 78 84  1  0  0  0
 78 88  2  0  0  0
 79 80  1  0  0  0
 79 84  1  0  0  0
 79151  1  0  0  0
 79152  1  0  0  0
 80 83  1  0  0  0
 80153  1  0  0  0
 81 86  1  0  0  0
 81154  1  0  0  0
 81155  1  0  0  0
 81156  1  0  0  0
 82 86  1  0  0  0
 82157  1  0  0  0
 82158  1  0  0  0
 82159  1  0  0  0
 83160  1  0  0  0
 83161  1  0  0  0
 85162  1  0  0  0
M  ISO  4   1 100  68 101  83 101  85 100
M  END
> <chiral flag>
0

> <version>
0

> <s_m_source_file>
/data/baiqing/PycharmProjects/Reinvent-master-3.2/result/LINK_invent/BTK/process_docking_weight1_custom_product_contain_oxygen_bond_distance_aromatic_linkinvent_7_9_3/rearranged_h_0072.sdf

> <i_m_source_file_index>
73

> <r_mmod_Potential_Energy-OPLS-2005>
298.531188964844

> <r_mmod_Stretch_Energy-OPLS-2005>
134.234619140625

> <r_mmod_Bend_Energy-OPLS-2005>
212.429458618164

> <r_mmod_Torsional_Energy-OPLS-2005>
251.189971923828

> <r_mmod_Improper_Torsional_Energy-OPLS-2005>
5.79360866546631

> <r_mmod_Van_der_Waal_Energy-OPLS-2005>
153.015350341797

> <r_mmod_Electrostatic_Energy-OPLS-2005>
-271.780578613281

> <r_mmod_Solvation_Energy-OPLS-2005>
-265.998992919922

> <b_mmod_Minimization_Converged-OPLS-2005>
0

> <r_mmod_RMS_Derivative-OPLS-2005>
1.78967082500458

$$$$
73
                    3D
 Structure written by MMmdl.
152160  0  0  1  0            999 V2000
  -30.5020  -15.0225   20.4177 C   0  0  0  0  0  0
  -30.4457  -12.6467   19.4783 C   0  0  0  0  0  0
  -29.5199  -12.5296   18.2454 C   0  0  0  0  0  0
  -28.0566  -12.3025   18.6743 C   0  0  0  0  0  0
  -27.6215  -13.2475   19.8243 C   0  0  2  0  0  0
  -28.6688  -13.3127   20.9520 C   0  0  0  0  0  0
  -25.2450  -13.8200   20.5728 C   0  0  0  0  0  0
  -24.1767  -13.0421   20.9234 C   0  0  0  0  0  0
  -24.6391  -11.6918   20.8754 C   0  0  0  0  0  0
  -23.9076  -10.4287   21.0407 C   0  0  0  0  0  0
  -24.3624   -9.4202   21.9186 C   0  0  0  0  0  0
  -23.6299   -8.2236   22.0750 C   0  0  0  0  0  0
  -22.4279   -8.0274   21.3544 C   0  0  0  0  0  0
  -21.9917   -9.0248   20.4642 C   0  0  0  0  0  0
  -22.7247  -10.2130   20.3054 C   0  0  0  0  0  0
  -21.6855   -6.0733   22.5281 C   0  0  0  0  0  0
  -21.4014   -6.5637   23.8213 C   0  0  0  0  0  0
  -21.3661   -5.6791   24.9176 C   0  0  0  0  0  0
  -21.6042   -4.3051   24.7229 C   0  0  0  0  0  0
  -21.8819   -3.8145   23.4349 C   0  0  0  0  0  0
  -21.9191   -4.6960   22.3404 C   0  0  0  0  0  0
  -22.7791  -13.5200   21.1900 C   0  0  0  0  0  0
  -22.1662   -4.2146   21.0983 F   0  0  0  0  0  0
  -21.5632   -3.4537   25.7742 F   0  0  0  0  0  0
  -29.9213  -13.7540   20.3263 N   0  0  0  0  0  0
  -26.2859  -12.9429   20.3219 N   0  0  0  0  0  0
  -25.9318  -11.6566   20.5731 N   0  0  0  0  0  0
  -22.0434  -12.8188   22.0443 N   0  0  0  0  0  0
  -25.4100  -15.1938   20.4188 N   0  0  0  0  0  0
  -31.7307  -15.0755   20.2847 O   0  0  0  0  0  0
  -21.6639   -6.8875   21.4245 O   0  0  0  0  0  0
  -22.3472  -14.5500   20.6735 O   0  0  0  0  0  0
  -24.6468  -31.8401   23.1835 C   0  0  0  0  0  0
  -25.9218  -32.4674   23.8243 C   0  0  1  0  0  0
  -27.2215  -27.0906   20.1842 C   0  0  0  0  0  0
  -25.5956  -33.8481   24.2167 N   0  0  0  0  0  0
  -23.4530  -30.4556   21.5303 C   0  0  2  0  0  0
  -24.9018  -28.8592   20.1268 C   0  0  0  0  0  0
  -22.7576  -29.4536   22.4861 C   0  0  0  0  0  0
  -18.0314  -28.1396   22.8474 C   0  0  0  0  0  0
  -24.1491  -36.7247   23.2643 C   0  0  0  0  0  0
  -26.0092  -30.7004   21.3858 C   0  0  0  0  0  0
  -26.0801  -29.3009   20.7422 C   0  0  0  0  0  0
  -27.2431  -28.4364   20.7438 C   0  0  0  0  0  0
  -26.0149  -26.7473   19.5424 C   0  0  0  0  0  0
  -24.8832  -27.5964   19.5105 C   0  0  0  0  0  0
  -23.6832  -29.7715   20.1553 C   0  0  0  0  0  0
  -25.4125  -36.3021   24.0312 C   0  0  1  0  0  0
  -20.5920  -28.3727   23.1233 C   0  0  2  0  0  0
  -20.6795  -26.9427   22.5405 C   0  0  0  0  0  0
  -19.5770  -26.6379   21.5214 C   0  0  0  0  0  0
  -18.1954  -26.7930   22.1622 C   0  0  0  0  0  0
  -19.1566  -28.8882   23.2848 C   0  0  0  0  0  0
  -18.9476  -30.1473   23.8881 C   0  0  0  0  0  0
  -17.6469  -30.6591   24.0559 C   0  0  0  0  0  0
  -25.9075  -34.9396   23.5051 C   0  0  0  0  0  0
  -16.5366  -29.9077   23.6333 C   0  0  0  0  0  0
  -16.7295  -28.6495   23.0358 C   0  0  0  0  0  0
  -26.4531  -31.6552   25.0697 C   0  0  0  0  0  0
  -25.3706  -31.3746   26.1387 C   0  0  0  0  0  0
  -27.0402  -30.2945   24.6299 C   0  0  0  0  0  0
  -27.6053  -32.4324   25.7488 C   0  0  0  0  0  0
  -27.5576  -37.1780   24.8466 C   0  0  0  0  0  0
  -21.4267  -29.3054   22.3606 N   0  0  0  0  0  0
  -26.4285  -37.3741   23.9407 N   0  0  0  0  0  0
  -24.7236  -31.0221   22.0883 N   0  0  0  0  0  0
  -23.4197  -28.8088   23.3033 O   0  0  0  0  0  0
  -28.3147  -26.1477   20.0908 O   0  0  0  0  0  0
  -26.5671  -34.8899   22.4637 O   0  0  0  0  0  0
  -23.5581  -32.1285   23.7036 O   0  0  0  0  0  0
  -29.8661  -17.8372   22.1687 C   0  0  0  0  0  0
  -29.7035  -19.0914   22.8010 C   0  0  0  0  0  0
  -29.3926  -18.9590   20.0796 C   0  0  0  0  0  0
  -29.2287  -20.3229   20.6981 C   0  0  0  0  0  0
  -29.7119  -17.6682   20.7790 C   0  0  0  0  0  0
  -29.4046  -20.2956   22.1119 C   0  0  0  0  0  0
  -29.0474  -21.7744   19.9447 C   0  0  0  0  0  0
  -28.4738  -24.7195   20.7399 C   0  0  0  0  0  0
  -28.0751  -23.0920   20.3525 C   0  0  2  0  0  0
  -29.3339  -21.4530   22.8946 N   0  0  0  0  0  0
  -29.6955  -16.2035   20.2730 N   0  0  0  0  0  0
  -29.6585  -21.9163   18.8816 O   0  0  0  0  0  0
  -27.1780  -22.6578   21.3676 O   0  0  0  0  0  0
  -31.4704  -12.8412   19.1556 H   0  0  0  0  0  0
  -30.4766  -11.7103   20.0362 H   0  0  0  0  0  0
  -29.8514  -11.7156   17.5986 H   0  0  0  0  0  0
  -29.5881  -13.4412   17.6481 H   0  0  0  0  0  0
  -27.9708  -11.2653   19.0017 H   0  0  0  0  0  0
  -27.3883  -12.4073   17.8187 H   0  0  0  0  0  0
  -27.5694  -14.2395   19.3758 H   0  0  0  0  0  0
  -28.7851  -12.3470   21.4446 H   0  0  0  0  0  0
  -28.3586  -14.0235   21.7203 H   0  0  0  0  0  0
  -25.2767   -9.5680   22.4767 H   0  0  0  0  0  0
  -23.9999   -7.4628   22.7471 H   0  0  0  0  0  0
  -21.0845   -8.8765   19.8956 H   0  0  0  0  0  0
  -22.3695  -10.9666   19.6163 H   0  0  0  0  0  0
  -21.2002   -7.6145   23.9718 H   0  0  0  0  0  0
  -21.1486   -6.0520   25.9080 H   0  0  0  0  0  0
  -22.0597   -2.7608   23.2851 H   0  0  0  0  0  0
  -22.4057  -11.9864   22.4848 H   0  0  0  0  0  0
  -21.1046  -13.1203   22.2649 H   0  0  0  0  0  0
  -24.6416  -15.8438   20.5438 H   0  0  0  0  0  0
  -26.2599  -15.6456   20.1087 H   0  0  0  0  0  0
  -26.7278  -32.5270   23.0966 H   0  0  0  0  0  0
  -25.0070  -33.9584   25.0293 H   0  0  0  0  0  0
  -22.7579  -31.2818   21.3671 H   0  0  0  0  0  0
  -23.3761  -35.9571   23.3288 H   0  0  0  0  0  0
  -24.3573  -36.8904   22.2061 H   0  0  0  0  0  0
  -23.7238  -37.6431   23.6697 H   0  0  0  0  0  0
  -26.1643  -31.4444   20.6035 H   0  0  0  0  0  0
  -26.8796  -30.7609   22.0271 H   0  0  0  0  0  0
  -28.1530  -28.7851   21.2109 H   0  0  0  0  0  0
  -25.9439  -25.7839   19.0571 H   0  0  0  0  0  0
  -23.9852  -27.2557   19.0140 H   0  0  0  0  0  0
  -23.8293  -30.5381   19.3941 H   0  0  0  0  0  0
  -22.7966  -29.2167   19.8430 H   0  0  0  0  0  0
  -25.1316  -36.1841   25.0805 H   0  0  0  0  0  0
  -21.0007  -28.3323   24.1358 H   0  0  0  0  0  0
  -20.5693  -26.2342   23.3629 H   0  0  0  0  0  0
  -21.6662  -26.7435   22.1203 H   0  0  0  0  0  0
  -19.6931  -25.6284   21.1261 H   0  0  0  0  0  0
  -19.6703  -27.3169   20.6731 H   0  0  0  0  0  0
  -17.4223  -26.6675   21.4025 H   0  0  0  0  0  0
  -18.0351  -26.0083   22.9030 H   0  0  0  0  0  0
  -19.7955  -30.7302   24.2233 H   0  0  0  0  0  0
  -17.5024  -31.6267   24.5166 H   0  0  0  0  0  0
  -15.5365  -30.2974   23.7674 H   0  0  0  0  0  0
  -15.8695  -28.0815   22.7076 H   0  0  0  0  0  0
  -24.5898  -30.7085   25.7705 H   0  0  0  0  0  0
  -24.8879  -32.2925   26.4748 H   0  0  0  0  0  0
  -25.7981  -30.8960   27.0208 H   0  0  0  0  0  0
  -26.3025  -29.6660   24.1302 H   0  0  0  0  0  0
  -27.4005  -29.7256   25.4880 H   0  0  0  0  0  0
  -27.8936  -30.4179   23.9629 H   0  0  0  0  0  0
  -27.2648  -33.3651   26.1997 H   0  0  0  0  0  0
  -28.3903  -32.6844   25.0346 H   0  0  0  0  0  0
  -28.0679  -31.8493   26.5462 H   0  0  0  0  0  0
  -28.2582  -38.0087   24.7517 H   0  0  0  0  0  0
  -28.1082  -36.2615   24.6289 H   0  0  0  0  0  0
  -27.2291  -37.1423   25.8869 H   0  0  0  0  0  0
  -20.9491  -29.8754   21.6765 H   0  0  0  0  0  0
  -26.0147  -38.2807   24.1416 H   0  0  0  0  0  0
  -30.0718  -16.9790   22.7924 H   0  0  0  0  0  0
  -29.8266  -19.1163   23.8754 H   0  0  0  0  0  0
  -29.2610  -18.9103   19.0083 H   0  0  0  0  0  0
  -29.5514  -24.6743   20.8994 H   0  0  0  0  0  0
  -28.0947  -24.8822   21.7499 H   0  0  0  0  0  0
  -27.4450  -23.1925   19.4689 H   0  0  0  0  0  0
  -29.9929  -22.1802   22.6320 H   0  0  0  0  0  0
  -29.4659  -21.2809   23.8880 H   0  0  0  0  0  0
  -28.7937  -15.9532   19.8987 H   0  0  0  0  0  0
  -27.7336  -22.2664   22.0500 H   0  0  0  0  0  0
  1 25  1  0  0  0
  1 30  2  0  0  0
  1 81  1  0  0  0
  2  3  1  0  0  0
  2 25  1  0  0  0
  2 84  1  0  0  0
  2 85  1  0  0  0
  3  4  1  0  0  0
  3 86  1  0  0  0
  3 87  1  0  0  0
  4  5  1  0  0  0
  4 88  1  0  0  0
  4 89  1  0  0  0
  5  6  1  0  0  0
  5 26  1  0  0  0
  5 90  1  0  0  0
  6 25  1  0  0  0
  6 91  1  0  0  0
  6 92  1  0  0  0
  7  8  2  0  0  0
  7 26  1  0  0  0
  7 29  1  0  0  0
  8  9  1  0  0  0
  8 22  1  0  0  0
  9 10  1  0  0  0
  9 27  2  0  0  0
 10 11  2  0  0  0
 10 15  1  0  0  0
 11 12  1  0  0  0
 11 93  1  0  0  0
 12 13  2  0  0  0
 12 94  1  0  0  0
 13 14  1  0  0  0
 13 31  1  0  0  0
 14 15  2  0  0  0
 14 95  1  0  0  0
 15 96  1  0  0  0
 16 17  2  0  0  0
 16 21  1  0  0  0
 16 31  1  0  0  0
 17 18  1  0  0  0
 17 97  1  0  0  0
 18 19  2  0  0  0
 18 98  1  0  0  0
 19 20  1  0  0  0
 19 24  1  0  0  0
 20 21  2  0  0  0
 20 99  1  0  0  0
 21 23  1  0  0  0
 22 28  1  0  0  0
 22 32  2  0  0  0
 26 27  1  0  0  0
 28100  1  0  0  0
 28101  1  0  0  0
 29102  1  0  0  0
 29103  1  0  0  0
 33 34  1  0  0  0
 33 66  1  0  0  0
 33 70  2  0  0  0
 34 36  1  0  0  0
 34 59  1  0  0  0
 34104  1  0  0  0
 35 44  2  0  0  0
 35 45  1  0  0  0
 35 68  1  0  0  0
 36 56  1  0  0  0
 36105  1  0  0  0
 37 39  1  0  0  0
 37 47  1  0  0  0
 37 66  1  0  0  0
 37106  1  0  0  0
 38 43  2  0  0  0
 38 46  1  0  0  0
 38 47  1  0  0  0
 39 64  1  0  0  0
 39 67  2  0  0  0
 40 52  1  0  0  0
 40 53  2  0  0  0
 40 58  1  0  0  0
 41107  1  0  0  0
 41108  1  0  0  0
 41109  1  0  0  0
 41 48  1  0  0  0
 42 43  1  0  0  0
 42 66  1  0  0  0
 42110  1  0  0  0
 42111  1  0  0  0
 43 44  1  0  0  0
 44112  1  0  0  0
 45 46  2  0  0  0
 45113  1  0  0  0
 46114  1  0  0  0
 47115  1  0  0  0
 47116  1  0  0  0
 48 56  1  0  0  0
 48 65  1  0  0  0
 48117  1  0  0  0
 49 50  1  0  0  0
 49 53  1  0  0  0
 49 64  1  0  0  0
 49118  1  0  0  0
 50 51  1  0  0  0
 50119  1  0  0  0
 50120  1  0  0  0
 51 52  1  0  0  0
 51121  1  0  0  0
 51122  1  0  0  0
 52123  1  0  0  0
 52124  1  0  0  0
 53 54  1  0  0  0
 54 55  2  0  0  0
 54125  1  0  0  0
 55 57  1  0  0  0
 55126  1  0  0  0
 56 69  2  0  0  0
 57 58  2  0  0  0
 57127  1  0  0  0
 58128  1  0  0  0
 59 60  1  0  0  0
 59 61  1  0  0  0
 59 62  1  0  0  0
 60129  1  0  0  0
 60130  1  0  0  0
 60131  1  0  0  0
 61132  1  0  0  0
 61133  1  0  0  0
 61134  1  0  0  0
 62135  1  0  0  0
 62136  1  0  0  0
 62137  1  0  0  0
 63 65  1  0  0  0
 63138  1  0  0  0
 63139  1  0  0  0
 63140  1  0  0  0
 64141  1  0  0  0
 65142  1  0  0  0
 68 78  1  0  0  0
 71 72  2  0  0  0
 71 75  1  0  0  0
 71143  1  0  0  0
 72 76  1  0  0  0
 72144  1  0  0  0
 73 74  1  0  0  0
 73 75  2  0  0  0
 73145  1  0  0  0
 74 76  2  0  0  0
 74 77  1  0  0  0
 75 81  1  0  0  0
 76 80  1  0  0  0
 77 79  1  0  0  0
 77 82  2  0  0  0
 78 79  1  0  0  0
 78146  1  0  0  0
 78147  1  0  0  0
 79 83  1  0  0  0
 79148  1  0  0  0
 80149  1  0  0  0
 80150  1  0  0  0
 81151  1  0  0  0
 83152  1  0  0  0
M  ISO  4   1 100  68 101  78 101  81 100
M  END
> <chiral flag>
0

> <version>
0

> <s_m_source_file>
/data/baiqing/PycharmProjects/Reinvent-master-3.2/result/LINK_invent/BTK/process_docking_weight1_custom_product_contain_oxygen_bond_distance_aromatic_linkinvent_7_9_3/rearranged_h_0072.sdf

> <i_m_source_file_index>
74

> <r_mmod_Potential_Energy-OPLS-2005>
811.752197265625

> <r_mmod_Stretch_Energy-OPLS-2005>
320.339385986328

> <r_mmod_Bend_Energy-OPLS-2005>
337.98876953125

> <r_mmod_Torsional_Energy-OPLS-2005>
326.528259277344

> <r_mmod_Improper_Torsional_Energy-OPLS-2005>
19.1542549133301

> <r_mmod_Van_der_Waal_Energy-OPLS-2005>
127.915092468262

> <r_mmod_Electrostatic_Energy-OPLS-2005>
-309.737731933594

> <r_mmod_Solvation_Energy-OPLS-2005>
-246.480484008789

> <b_mmod_Minimization_Converged-OPLS-2005>
0

> <r_mmod_RMS_Derivative-OPLS-2005>
1.57038998603821

$$$$
74
                    3D
 Structure written by MMmdl.
158166  0  0  1  0            999 V2000
  -30.6753  -14.6896   20.4728 C   0  0  0  0  0  0
  -30.4650  -12.4316   19.4661 C   0  0  0  0  0  0
  -29.5381  -12.4990   18.2308 C   0  0  0  0  0  0
  -28.0707  -12.3056   18.6617 C   0  0  0  0  0  0
  -27.6629  -13.2210   19.8477 C   0  0  2  0  0  0
  -28.7118  -13.1483   20.9833 C   0  0  0  0  0  0
  -25.2630  -13.8172   20.5673 C   0  0  0  0  0  0
  -24.1872  -13.0444   20.9116 C   0  0  0  0  0  0
  -24.6438  -11.6919   20.8629 C   0  0  0  0  0  0
  -23.9083  -10.4289   21.0325 C   0  0  0  0  0  0
  -24.3625   -9.4196   21.9127 C   0  0  0  0  0  0
  -23.6257   -8.2258   22.0744 C   0  0  0  0  0  0
  -22.4211   -8.0306   21.3567 C   0  0  0  0  0  0
  -21.9859   -9.0283   20.4665 C   0  0  0  0  0  0
  -22.7216  -10.2139   20.3020 C   0  0  0  0  0  0
  -21.6869   -6.0720   22.5283 C   0  0  0  0  0  0
  -21.4048   -6.5617   23.8213 C   0  0  0  0  0  0
  -21.3659   -5.6765   24.9162 C   0  0  0  0  0  0
  -21.6028   -4.3020   24.7234 C   0  0  0  0  0  0
  -21.8830   -3.8117   23.4352 C   0  0  0  0  0  0
  -21.9218   -4.6946   22.3405 C   0  0  0  0  0  0
  -22.7888  -13.5259   21.1748 C   0  0  0  0  0  0
  -22.1660   -4.2122   21.0973 F   0  0  0  0  0  0
  -21.5615   -3.4511   25.7758 F   0  0  0  0  0  0
  -30.0365  -13.4736   20.4214 N   0  0  0  0  0  0
  -26.3046  -12.9379   20.3200 N   0  0  0  0  0  0
  -25.9364  -11.6504   20.5616 N   0  0  0  0  0  0
  -22.0505  -12.8339   22.0347 N   0  0  0  0  0  0
  -25.4318  -15.1895   20.4233 N   0  0  0  0  0  0
  -31.8357  -14.8080   20.0752 O   0  0  0  0  0  0
  -21.6624   -6.8856   21.4245 O   0  0  0  0  0  0
  -22.3567  -14.5540   20.6542 O   0  0  0  0  0  0
  -24.6241  -31.8544   23.1997 C   0  0  0  0  0  0
  -25.9078  -32.4770   23.8319 C   0  0  1  0  0  0
  -27.2210  -27.2889   20.1246 C   0  0  0  0  0  0
  -25.5916  -33.8567   24.2297 N   0  0  0  0  0  0
  -23.4149  -30.4742   21.5417 C   0  0  2  0  0  0
  -24.8631  -28.9235   20.0963 C   0  0  0  0  0  0
  -22.7453  -29.4572   22.4939 C   0  0  0  0  0  0
  -18.0293  -28.1396   22.8452 C   0  0  0  0  0  0
  -24.1479  -36.7268   23.2656 C   0  0  0  0  0  0
  -25.9531  -30.7767   21.3652 C   0  0  0  0  0  0
  -26.0234  -29.3975   20.7198 C   0  0  0  0  0  0
  -27.1984  -28.5879   20.7284 C   0  0  0  0  0  0
  -26.0427  -26.8702   19.4712 C   0  0  0  0  0  0
  -24.8796  -27.6712   19.4568 C   0  0  0  0  0  0
  -23.6261  -29.8025   20.1551 C   0  0  0  0  0  0
  -25.4096  -36.3089   24.0367 C   0  0  1  0  0  0
  -20.5882  -28.3685   23.1324 C   0  0  2  0  0  0
  -20.6785  -26.9398   22.5457 C   0  0  0  0  0  0
  -19.5804  -26.6396   21.5207 C   0  0  0  0  0  0
  -18.1944  -26.7962   22.1555 C   0  0  0  0  0  0
  -19.1531  -28.8859   23.2895 C   0  0  0  0  0  0
  -18.9470  -30.1453   23.8906 C   0  0  0  0  0  0
  -17.6468  -30.6585   24.0570 C   0  0  0  0  0  0
  -25.9036  -34.9449   23.5138 C   0  0  0  0  0  0
  -16.5366  -29.9069   23.6331 C   0  0  0  0  0  0
  -16.7274  -28.6506   23.0325 C   0  0  0  0  0  0
  -26.4538  -31.6567   25.0645 C   0  0  0  0  0  0
  -25.3888  -31.3606   26.1474 C   0  0  0  0  0  0
  -27.0382  -30.3043   24.5971 C   0  0  0  0  0  0
  -27.6175  -32.4288   25.7298 C   0  0  0  0  0  0
  -27.5608  -37.1757   24.8463 C   0  0  0  0  0  0
  -21.4183  -29.3010   22.3703 N   0  0  0  0  0  0
  -26.4286  -37.3778   23.9463 N   0  0  0  0  0  0
  -24.6837  -31.0549   22.0927 N   0  0  0  0  0  0
  -23.4193  -28.8152   23.3036 O   0  0  0  0  0  0
  -28.3475  -26.4592   20.2493 O   0  0  0  0  0  0
  -26.5619  -34.8924   22.4714 O   0  0  0  0  0  0
  -23.5418  -32.1353   23.7352 O   0  0  0  0  0  0
  -29.2253  -19.5305   21.1596 C   0  0  0  0  0  0
  -29.3738  -18.1410   21.4592 C   0  0  0  0  0  0
  -30.4206  -19.1907   19.1169 C   0  0  0  0  0  0
  -29.6917  -20.1014   19.9496 C   0  0  0  0  0  0
  -30.0113  -17.2104   20.5888 C   0  0  0  0  0  0
  -30.5673  -17.7968   19.4098 C   0  0  0  0  0  0
  -29.3282  -21.5229   19.5036 C   0  0  0  0  0  0
  -26.7902  -23.8418   21.0032 C   0  0  0  0  0  0
  -25.4069  -23.2690   20.6773 C   0  0  0  0  0  0
  -28.5669  -25.1454   19.5850 C   0  0  0  0  0  0
  -27.8639  -23.7249   19.9139 C   0  0  1  0  0  0
  -29.5790  -21.8626   18.2374 N   0  0  0  0  0  0
  -29.9491  -15.7745   20.9071 N   0  0  0  0  0  0
  -28.7053  -22.4883   20.2701 N   0  3  0  0  0  0
  -27.0334  -24.2610   22.1339 O   0  0  0  0  0  0
  -31.1846  -17.0122   18.4933 F   0  0  0  0  0  0
  -31.5041  -12.5529   19.1542 H   0  0  0  0  0  0
  -30.4192  -11.4488   19.9392 H   0  0  0  0  0  0
  -29.8136  -11.7285   17.5095 H   0  0  0  0  0  0
  -29.6650  -13.4547   17.7196 H   0  0  0  0  0  0
  -27.9649  -11.2624   18.9616 H   0  0  0  0  0  0
  -27.4045  -12.4482   17.8109 H   0  0  0  0  0  0
  -27.6668  -14.2379   19.4588 H   0  0  0  0  0  0
  -28.7312  -12.1474   21.4209 H   0  0  0  0  0  0
  -28.4478  -13.8226   21.7972 H   0  0  0  0  0  0
  -25.2817   -9.5656   22.4635 H   0  0  0  0  0  0
  -24.0006   -7.4643   22.7433 H   0  0  0  0  0  0
  -21.0774   -8.8801   19.8974 H   0  0  0  0  0  0
  -22.3687  -10.9666   19.6085 H   0  0  0  0  0  0
  -21.2059   -7.6125   23.9710 H   0  0  0  0  0  0
  -21.1436   -6.0473   25.9051 H   0  0  0  0  0  0
  -22.0605   -2.7586   23.2853 H   0  0  0  0  0  0
  -22.4085  -12.0151   22.5011 H   0  0  0  0  0  0
  -21.1076  -13.1383   22.2389 H   0  0  0  0  0  0
  -24.6638  -15.8349   20.5675 H   0  0  0  0  0  0
  -26.2862  -15.6553   20.1471 H   0  0  0  0  0  0
  -26.7110  -32.5433   23.1028 H   0  0  0  0  0  0
  -25.0087  -33.9660   25.0463 H   0  0  0  0  0  0
  -22.7050  -31.2961   21.4049 H   0  0  0  0  0  0
  -23.3778  -35.9563   23.3284 H   0  0  0  0  0  0
  -24.3600  -36.8910   22.2082 H   0  0  0  0  0  0
  -23.7170  -37.6435   23.6682 H   0  0  0  0  0  0
  -26.0691  -31.5241   20.5797 H   0  0  0  0  0  0
  -26.8405  -30.8465   21.9798 H   0  0  0  0  0  0
  -28.0826  -28.9418   21.2385 H   0  0  0  0  0  0
  -25.9983  -25.9017   18.9967 H   0  0  0  0  0  0
  -23.9932  -27.3114   18.9533 H   0  0  0  0  0  0
  -23.7272  -30.5770   19.3948 H   0  0  0  0  0  0
  -22.7445  -29.2284   19.8651 H   0  0  0  0  0  0
  -25.1256  -36.1939   25.0862 H   0  0  0  0  0  0
  -20.9942  -28.3287   24.1474 H   0  0  0  0  0  0
  -20.5656  -26.2278   23.3660 H   0  0  0  0  0  0
  -21.6683  -26.7445   22.1306 H   0  0  0  0  0  0
  -19.6971  -25.6308   21.1240 H   0  0  0  0  0  0
  -19.6785  -27.3223   20.6752 H   0  0  0  0  0  0
  -17.4255  -26.6786   21.3891 H   0  0  0  0  0  0
  -18.0268  -26.0061   22.8908 H   0  0  0  0  0  0
  -19.7932  -30.7272   24.2274 H   0  0  0  0  0  0
  -17.5009  -31.6245   24.5213 H   0  0  0  0  0  0
  -15.5350  -30.2975   23.7636 H   0  0  0  0  0  0
  -15.8698  -28.0817   22.7024 H   0  0  0  0  0  0
  -24.5985  -30.7041   25.7825 H   0  0  0  0  0  0
  -24.9185  -32.2726   26.5145 H   0  0  0  0  0  0
  -25.8330  -30.8602   27.0087 H   0  0  0  0  0  0
  -26.2866  -29.6702   24.1266 H   0  0  0  0  0  0
  -27.4506  -29.7364   25.4312 H   0  0  0  0  0  0
  -27.8536  -30.4437   23.8881 H   0  0  0  0  0  0
  -27.2860  -33.3544   26.1994 H   0  0  0  0  0  0
  -28.3817  -32.6923   24.9977 H   0  0  0  0  0  0
  -28.1048  -31.8369   26.5044 H   0  0  0  0  0  0
  -28.2619  -38.0070   24.7600 H   0  0  0  0  0  0
  -28.1117  -36.2634   24.6132 H   0  0  0  0  0  0
  -27.2396  -37.1241   25.8882 H   0  0  0  0  0  0
  -20.9377  -29.8603   21.6803 H   0  0  0  0  0  0
  -26.0182  -38.2844   24.1528 H   0  0  0  0  0  0
  -28.6866  -20.1466   21.8587 H   0  0  0  0  0  0
  -28.9395  -17.7806   22.3797 H   0  0  0  0  0  0
  -30.8337  -19.5303   18.1772 H   0  0  0  0  0  0
  -25.5002  -22.4159   20.0011 H   0  0  0  0  0  0
  -24.7651  -24.0126   20.1987 H   0  0  0  0  0  0
  -24.9132  -22.9159   21.5820 H   0  0  0  0  0  0
  -28.4260  -25.3328   18.5227 H   0  0  0  0  0  0
  -29.6388  -24.9812   19.6827 H   0  0  0  0  0  0
  -27.3440  -23.4430   18.9975 H   0  0  0  0  0  0
  -30.1279  -21.2438   17.6613 H   0  0  0  0  0  0
  -29.2685  -22.7319   17.8389 H   0  0  0  0  0  0
  -29.1379  -15.5125   21.4470 H   0  0  0  0  0  0
  -28.6219  -22.2549   21.2525 H   0  0  0  0  0  0
  1 25  1  0  0  0
  1 30  2  0  0  0
  1 83  1  0  0  0
  2  3  1  0  0  0
  2 25  1  0  0  0
  2 87  1  0  0  0
  2 88  1  0  0  0
  3  4  1  0  0  0
  3 89  1  0  0  0
  3 90  1  0  0  0
  4  5  1  0  0  0
  4 91  1  0  0  0
  4 92  1  0  0  0
  5  6  1  0  0  0
  5 26  1  0  0  0
  5 93  1  0  0  0
  6 25  1  0  0  0
  6 94  1  0  0  0
  6 95  1  0  0  0
  7  8  2  0  0  0
  7 26  1  0  0  0
  7 29  1  0  0  0
  8  9  1  0  0  0
  8 22  1  0  0  0
  9 10  1  0  0  0
  9 27  2  0  0  0
 10 11  2  0  0  0
 10 15  1  0  0  0
 11 12  1  0  0  0
 11 96  1  0  0  0
 12 13  2  0  0  0
 12 97  1  0  0  0
 13 14  1  0  0  0
 13 31  1  0  0  0
 14 15  2  0  0  0
 14 98  1  0  0  0
 15 99  1  0  0  0
 16 17  2  0  0  0
 16 21  1  0  0  0
 16 31  1  0  0  0
 17 18  1  0  0  0
 17100  1  0  0  0
 18 19  2  0  0  0
 18101  1  0  0  0
 19 20  1  0  0  0
 19 24  1  0  0  0
 20 21  2  0  0  0
 20102  1  0  0  0
 21 23  1  0  0  0
 22 28  1  0  0  0
 22 32  2  0  0  0
 26 27  1  0  0  0
 28103  1  0  0  0
 28104  1  0  0  0
 29105  1  0  0  0
 29106  1  0  0  0
 33 34  1  0  0  0
 33 66  1  0  0  0
 33 70  2  0  0  0
 34 36  1  0  0  0
 34 59  1  0  0  0
 34107  1  0  0  0
 35 44  2  0  0  0
 35 45  1  0  0  0
 35 68  1  0  0  0
 36 56  1  0  0  0
 36108  1  0  0  0
 37 39  1  0  0  0
 37 47  1  0  0  0
 37 66  1  0  0  0
 37109  1  0  0  0
 38 43  2  0  0  0
 38 46  1  0  0  0
 38 47  1  0  0  0
 39 64  1  0  0  0
 39 67  2  0  0  0
 40 52  1  0  0  0
 40 53  2  0  0  0
 40 58  1  0  0  0
 41110  1  0  0  0
 41111  1  0  0  0
 41112  1  0  0  0
 41 48  1  0  0  0
 42 43  1  0  0  0
 42 66  1  0  0  0
 42113  1  0  0  0
 42114  1  0  0  0
 43 44  1  0  0  0
 44115  1  0  0  0
 45 46  2  0  0  0
 45116  1  0  0  0
 46117  1  0  0  0
 47118  1  0  0  0
 47119  1  0  0  0
 48 56  1  0  0  0
 48 65  1  0  0  0
 48120  1  0  0  0
 49 50  1  0  0  0
 49 53  1  0  0  0
 49 64  1  0  0  0
 49121  1  0  0  0
 50 51  1  0  0  0
 50122  1  0  0  0
 50123  1  0  0  0
 51 52  1  0  0  0
 51124  1  0  0  0
 51125  1  0  0  0
 52126  1  0  0  0
 52127  1  0  0  0
 53 54  1  0  0  0
 54 55  2  0  0  0
 54128  1  0  0  0
 55 57  1  0  0  0
 55129  1  0  0  0
 56 69  2  0  0  0
 57 58  2  0  0  0
 57130  1  0  0  0
 58131  1  0  0  0
 59 60  1  0  0  0
 59 61  1  0  0  0
 59 62  1  0  0  0
 60132  1  0  0  0
 60133  1  0  0  0
 60134  1  0  0  0
 61135  1  0  0  0
 61136  1  0  0  0
 61137  1  0  0  0
 62138  1  0  0  0
 62139  1  0  0  0
 62140  1  0  0  0
 63 65  1  0  0  0
 63141  1  0  0  0
 63142  1  0  0  0
 63143  1  0  0  0
 64144  1  0  0  0
 65145  1  0  0  0
 68 80  1  0  0  0
 71 72  2  0  0  0
 71 74  1  0  0  0
 71146  1  0  0  0
 72 75  1  0  0  0
 72147  1  0  0  0
 73 74  2  0  0  0
 73 76  1  0  0  0
 73148  1  0  0  0
 74 77  1  0  0  0
 75 76  2  0  0  0
 75 83  1  0  0  0
 76 86  1  0  0  0
 77 82  1  0  0  0
 77 84  2  0  0  0
 78 79  1  0  0  0
 78 81  1  0  0  0
 78 85  2  0  0  0
 79149  1  0  0  0
 79150  1  0  0  0
 79151  1  0  0  0
 80152  1  0  0  0
 80153  1  0  0  0
 80 81  1  0  0  0
 81 84  1  0  0  0
 81154  1  0  0  0
 82155  1  0  0  0
 82156  1  0  0  0
 83157  1  0  0  0
 84158  1  0  0  0
M  CHG  1  84   1
M  ISO  4   1 100  68 101  80 101  83 100
M  END
> <chiral flag>
0

> <version>
0

> <s_m_source_file>
/data/baiqing/PycharmProjects/Reinvent-master-3.2/result/LINK_invent/BTK/process_docking_weight1_custom_product_contain_oxygen_bond_distance_aromatic_linkinvent_7_9_3/rearranged_h_0072.sdf

> <i_m_source_file_index>
75

> <r_mmod_Potential_Energy-OPLS-2005>
-250.430130004883

> <r_mmod_Stretch_Energy-OPLS-2005>
98.4829635620117

> <r_mmod_Bend_Energy-OPLS-2005>
194.693298339844

> <r_mmod_Torsional_Energy-OPLS-2005>
238.776733398438

> <r_mmod_Improper_Torsional_Energy-OPLS-2005>
5.25123453140259

> <r_mmod_Van_der_Waal_Energy-OPLS-2005>
128.695861816406

> <r_mmod_Electrostatic_Energy-OPLS-2005>
-491.9501953125

> <r_mmod_Solvation_Energy-OPLS-2005>
-491.944030761719

> <b_mmod_Minimization_Converged-OPLS-2005>
0

> <r_mmod_RMS_Derivative-OPLS-2005>
8.21309089660645

$$$$
75
                    3D
 Structure written by MMmdl.
156165  0  0  1  0            999 V2000
  -30.6451  -14.5538   20.4962 C   0  0  0  0  0  0
  -30.4300  -12.3343   19.4420 C   0  0  0  0  0  0
  -29.4933  -12.4871   18.2231 C   0  0  0  0  0  0
  -28.0201  -12.3311   18.6446 C   0  0  0  0  0  0
  -27.6562  -13.2038   19.8723 C   0  0  2  0  0  0
  -28.7013  -13.0200   21.0002 C   0  0  0  0  0  0
  -25.2568  -13.8149   20.5678 C   0  0  0  0  0  0
  -24.1814  -13.0447   20.9201 C   0  0  0  0  0  0
  -24.6377  -11.6926   20.8764 C   0  0  0  0  0  0
  -23.9015  -10.4320   21.0414 C   0  0  0  0  0  0
  -24.3588   -9.4217   21.9171 C   0  0  0  0  0  0
  -23.6267   -8.2244   22.0735 C   0  0  0  0  0  0
  -22.4230   -8.0304   21.3551 C   0  0  0  0  0  0
  -21.9859   -9.0264   20.4648 C   0  0  0  0  0  0
  -22.7183  -10.2146   20.3077 C   0  0  0  0  0  0
  -21.6869   -6.0725   22.5280 C   0  0  0  0  0  0
  -21.4017   -6.5629   23.8210 C   0  0  0  0  0  0
  -21.3662   -5.6781   24.9167 C   0  0  0  0  0  0
  -21.6051   -4.3053   24.7203 C   0  0  0  0  0  0
  -21.8803   -3.8136   23.4321 C   0  0  0  0  0  0
  -21.9196   -4.6955   22.3387 C   0  0  0  0  0  0
  -22.7832  -13.5259   21.1827 C   0  0  0  0  0  0
  -22.1658   -4.2138   21.0956 F   0  0  0  0  0  0
  -21.5633   -3.4558   25.7718 F   0  0  0  0  0  0
  -30.0311  -13.3358   20.4482 N   0  0  0  0  0  0
  -26.3006  -12.9323   20.3405 N   0  0  0  0  0  0
  -25.9313  -11.6484   20.5775 N   0  0  0  0  0  0
  -22.0469  -12.8301   22.0421 N   0  0  0  0  0  0
  -25.4295  -15.1872   20.4060 N   0  0  0  0  0  0
  -31.7726  -14.7504   20.0391 O   0  0  0  0  0  0
  -21.6640   -6.8878   21.4245 O   0  0  0  0  0  0
  -22.3472  -14.5530   20.6629 O   0  0  0  0  0  0
  -24.6161  -31.8620   23.2038 C   0  0  0  0  0  0
  -25.9038  -32.4818   23.8350 C   0  0  1  0  0  0
  -27.2436  -27.4042   20.1291 C   0  0  0  0  0  0
  -25.5856  -33.8612   24.2287 N   0  0  0  0  0  0
  -23.4091  -30.4848   21.5412 C   0  0  2  0  0  0
  -24.8614  -28.9379   20.1236 C   0  0  0  0  0  0
  -22.7453  -29.4644   22.4940 C   0  0  0  0  0  0
  -18.0279  -28.1403   22.8479 C   0  0  0  0  0  0
  -24.1462  -36.7329   23.2650 C   0  0  0  0  0  0
  -25.9336  -30.8262   21.3530 C   0  0  0  0  0  0
  -26.0211  -29.4510   20.7186 C   0  0  0  0  0  0
  -27.2160  -28.6913   20.7227 C   0  0  0  0  0  0
  -26.0695  -26.9086   19.5243 C   0  0  0  0  0  0
  -24.8779  -27.6661   19.5241 C   0  0  0  0  0  0
  -23.6249  -29.8082   20.1600 C   0  0  0  0  0  0
  -25.4083  -36.3091   24.0325 C   0  0  1  0  0  0
  -20.5866  -28.3674   23.1298 C   0  0  2  0  0  0
  -20.6774  -26.9409   22.5430 C   0  0  0  0  0  0
  -19.5745  -26.6399   21.5227 C   0  0  0  0  0  0
  -18.1928  -26.7967   22.1612 C   0  0  0  0  0  0
  -19.1516  -28.8859   23.2891 C   0  0  0  0  0  0
  -18.9472  -30.1471   23.8904 C   0  0  0  0  0  0
  -17.6471  -30.6603   24.0583 C   0  0  0  0  0  0
  -25.9001  -34.9465   23.5108 C   0  0  0  0  0  0
  -16.5358  -29.9121   23.6318 C   0  0  0  0  0  0
  -16.7277  -28.6536   23.0340 C   0  0  0  0  0  0
  -26.4490  -31.6604   25.0678 C   0  0  0  0  0  0
  -25.3803  -31.3726   26.1490 C   0  0  0  0  0  0
  -27.0342  -30.3049   24.6036 C   0  0  0  0  0  0
  -27.6056  -32.4374   25.7431 C   0  0  0  0  0  0
  -27.5560  -37.1797   24.8466 C   0  0  0  0  0  0
  -21.4158  -29.3037   22.3676 N   0  0  0  0  0  0
  -26.4274  -37.3773   23.9391 N   0  0  0  0  0  0
  -24.6719  -31.0739   22.0925 N   0  0  0  0  0  0
  -23.4173  -28.8212   23.3026 O   0  0  0  0  0  0
  -28.3868  -26.6294   20.1064 O   0  0  0  0  0  0
  -26.5611  -34.8934   22.4688 O   0  0  0  0  0  0
  -23.5341  -32.1425   23.7428 O   0  0  0  0  0  0
  -31.7783  -19.5192   21.6630 C   0  0  0  0  0  0
  -31.3094  -18.2620   21.2361 C   0  0  0  0  0  0
  -31.0428  -20.6911   21.3904 C   0  0  0  0  0  0
  -30.1212  -18.1707   20.4912 C   0  0  0  0  0  0
  -29.8262  -20.6577   20.6571 C   0  0  0  0  0  0
  -29.4256  -19.3723   20.1506 C   0  0  0  0  0  0
  -27.3904  -23.4564   20.3725 C   0  0  0  0  0  0
  -28.4626  -24.1672   20.7048 C   0  0  0  0  0  0
  -27.7424  -22.0552   20.2423 C   0  0  0  0  0  0
  -29.6452  -23.2366   20.8467 C   0  0  0  0  0  0
  -29.6133  -16.7952   20.0061 C   0  0  0  0  0  0
  -28.4860  -25.6423   21.1618 C   0  0  0  0  0  0
  -29.0775  -21.9077   20.5004 N   0  0  0  0  0  0
  -29.8358  -15.5810   20.8350 N   0  0  0  0  0  0
  -26.9296  -21.1653   19.9795 O   0  0  0  0  0  0
  -28.3927  -19.2505   19.2818 F   0  0  0  0  0  0
  -31.4667  -12.4573   19.1336 H   0  0  0  0  0  0
  -30.3615  -11.3293   19.8598 H   0  0  0  0  0  0
  -29.7440  -11.7559   17.4495 H   0  0  0  0  0  0
  -29.6352  -13.4643   17.7653 H   0  0  0  0  0  0
  -27.8648  -11.2782   18.8845 H   0  0  0  0  0  0
  -27.3584  -12.5507   17.8077 H   0  0  0  0  0  0
  -27.6838  -14.2432   19.5417 H   0  0  0  0  0  0
  -28.6949  -11.9883   21.3602 H   0  0  0  0  0  0
  -28.4504  -13.6426   21.8600 H   0  0  0  0  0  0
  -25.2732   -9.5742   22.4707 H   0  0  0  0  0  0
  -24.0032   -7.4645   22.7432 H   0  0  0  0  0  0
  -21.0793   -8.8772   19.8922 H   0  0  0  0  0  0
  -22.3653  -10.9677   19.6185 H   0  0  0  0  0  0
  -21.2018   -7.6150   23.9739 H   0  0  0  0  0  0
  -21.1498   -6.0490   25.9075 H   0  0  0  0  0  0
  -22.0584   -2.7597   23.2820 H   0  0  0  0  0  0
  -22.4063  -12.0004   22.4898 H   0  0  0  0  0  0
  -21.1087  -13.1365   22.2558 H   0  0  0  0  0  0
  -24.6586  -15.8385   20.4970 H   0  0  0  0  0  0
  -26.2724  -15.6260   20.0624 H   0  0  0  0  0  0
  -26.7111  -32.5528   23.1116 H   0  0  0  0  0  0
  -24.9933  -33.9768   25.0393 H   0  0  0  0  0  0
  -22.6970  -31.2987   21.3960 H   0  0  0  0  0  0
  -23.3690  -35.9700   23.3356 H   0  0  0  0  0  0
  -24.3544  -36.8928   22.2057 H   0  0  0  0  0  0
  -23.7283  -37.6561   23.6680 H   0  0  0  0  0  0
  -26.0316  -31.5758   20.5674 H   0  0  0  0  0  0
  -26.8280  -30.9044   21.9584 H   0  0  0  0  0  0
  -28.1079  -29.0911   21.1874 H   0  0  0  0  0  0
  -26.0742  -25.9287   19.0636 H   0  0  0  0  0  0
  -23.9878  -27.2625   19.0648 H   0  0  0  0  0  0
  -23.7359  -30.5792   19.3949 H   0  0  0  0  0  0
  -22.7492  -29.2266   19.8671 H   0  0  0  0  0  0
  -25.1266  -36.1935   25.0821 H   0  0  0  0  0  0
  -20.9971  -28.3299   24.1417 H   0  0  0  0  0  0
  -20.5646  -26.2335   23.3638 H   0  0  0  0  0  0
  -21.6646  -26.7447   22.1226 H   0  0  0  0  0  0
  -19.6904  -25.6320   21.1250 H   0  0  0  0  0  0
  -19.6707  -27.3219   20.6745 H   0  0  0  0  0  0
  -17.4211  -26.6730   21.3997 H   0  0  0  0  0  0
  -18.0284  -26.0131   22.8997 H   0  0  0  0  0  0
  -19.7955  -30.7269   24.2297 H   0  0  0  0  0  0
  -17.5040  -31.6275   24.5195 H   0  0  0  0  0  0
  -15.5360  -30.3019   23.7666 H   0  0  0  0  0  0
  -15.8685  -28.0869   22.7038 H   0  0  0  0  0  0
  -24.5905  -30.7153   25.7856 H   0  0  0  0  0  0
  -24.9119  -32.2919   26.4999 H   0  0  0  0  0  0
  -25.8204  -30.8828   27.0186 H   0  0  0  0  0  0
  -26.2861  -29.6753   24.1218 H   0  0  0  0  0  0
  -27.4300  -29.7335   25.4439 H   0  0  0  0  0  0
  -27.8587  -30.4391   23.9055 H   0  0  0  0  0  0
  -27.2625  -33.3655   26.2019 H   0  0  0  0  0  0
  -28.3823  -32.7002   25.0237 H   0  0  0  0  0  0
  -28.0799  -31.8528   26.5335 H   0  0  0  0  0  0
  -28.2591  -38.0065   24.7441 H   0  0  0  0  0  0
  -28.1028  -36.2601   24.6355 H   0  0  0  0  0  0
  -27.2294  -37.1537   25.8874 H   0  0  0  0  0  0
  -20.9350  -29.8765   21.6875 H   0  0  0  0  0  0
  -26.0154  -38.2835   24.1417 H   0  0  0  0  0  0
  -32.7097  -19.5865   22.2086 H   0  0  0  0  0  0
  -31.8820  -17.3731   21.4550 H   0  0  0  0  0  0
  -31.4529  -21.6187   21.7592 H   0  0  0  0  0  0
  -26.3842  -23.8367   20.3086 H   0  0  0  0  0  0
  -30.0035  -23.2577   21.8771 H   0  0  0  0  0  0
  -30.4589  -23.5188   20.1753 H   0  0  0  0  0  0
  -29.9723  -16.6299   18.9882 H   0  0  0  0  0  0
  -28.5330  -16.8864   19.9128 H   0  0  0  0  0  0
  -29.4199  -25.8168   21.6998 H   0  0  0  0  0  0
  -27.6977  -25.7813   21.9040 H   0  0  0  0  0  0
  -29.0223  -15.2928   21.3618 H   0  0  0  0  0  0
  1 25  1  0  0  0
  1 30  2  0  0  0
  1 84  1  0  0  0
  2  3  1  0  0  0
  2 25  1  0  0  0
  2 87  1  0  0  0
  2 88  1  0  0  0
  3  4  1  0  0  0
  3 89  1  0  0  0
  3 90  1  0  0  0
  4  5  1  0  0  0
  4 91  1  0  0  0
  4 92  1  0  0  0
  5  6  1  0  0  0
  5 26  1  0  0  0
  5 93  1  0  0  0
  6 25  1  0  0  0
  6 94  1  0  0  0
  6 95  1  0  0  0
  7  8  2  0  0  0
  7 26  1  0  0  0
  7 29  1  0  0  0
  8  9  1  0  0  0
  8 22  1  0  0  0
  9 10  1  0  0  0
  9 27  2  0  0  0
 10 11  2  0  0  0
 10 15  1  0  0  0
 11 12  1  0  0  0
 11 96  1  0  0  0
 12 13  2  0  0  0
 12 97  1  0  0  0
 13 14  1  0  0  0
 13 31  1  0  0  0
 14 15  2  0  0  0
 14 98  1  0  0  0
 15 99  1  0  0  0
 16 17  2  0  0  0
 16 21  1  0  0  0
 16 31  1  0  0  0
 17 18  1  0  0  0
 17100  1  0  0  0
 18 19  2  0  0  0
 18101  1  0  0  0
 19 20  1  0  0  0
 19 24  1  0  0  0
 20 21  2  0  0  0
 20102  1  0  0  0
 21 23  1  0  0  0
 22 28  1  0  0  0
 22 32  2  0  0  0
 26 27  1  0  0  0
 28103  1  0  0  0
 28104  1  0  0  0
 29105  1  0  0  0
 29106  1  0  0  0
 33 34  1  0  0  0
 33 66  1  0  0  0
 33 70  2  0  0  0
 34 36  1  0  0  0
 34 59  1  0  0  0
 34107  1  0  0  0
 35 44  2  0  0  0
 35 45  1  0  0  0
 35 68  1  0  0  0
 36 56  1  0  0  0
 36108  1  0  0  0
 37 39  1  0  0  0
 37 47  1  0  0  0
 37 66  1  0  0  0
 37109  1  0  0  0
 38 43  2  0  0  0
 38 46  1  0  0  0
 38 47  1  0  0  0
 39 64  1  0  0  0
 39 67  2  0  0  0
 40 52  1  0  0  0
 40 53  2  0  0  0
 40 58  1  0  0  0
 41110  1  0  0  0
 41111  1  0  0  0
 41112  1  0  0  0
 41 48  1  0  0  0
 42 43  1  0  0  0
 42 66  1  0  0  0
 42113  1  0  0  0
 42114  1  0  0  0
 43 44  1  0  0  0
 44115  1  0  0  0
 45 46  2  0  0  0
 45116  1  0  0  0
 46117  1  0  0  0
 47118  1  0  0  0
 47119  1  0  0  0
 48 56  1  0  0  0
 48 65  1  0  0  0
 48120  1  0  0  0
 49 50  1  0  0  0
 49 53  1  0  0  0
 49 64  1  0  0  0
 49121  1  0  0  0
 50 51  1  0  0  0
 50122  1  0  0  0
 50123  1  0  0  0
 51 52  1  0  0  0
 51124  1  0  0  0
 51125  1  0  0  0
 52126  1  0  0  0
 52127  1  0  0  0
 53 54  1  0  0  0
 54 55  2  0  0  0
 54128  1  0  0  0
 55 57  1  0  0  0
 55129  1  0  0  0
 56 69  2  0  0  0
 57 58  2  0  0  0
 57130  1  0  0  0
 58131  1  0  0  0
 59 60  1  0  0  0
 59 61  1  0  0  0
 59 62  1  0  0  0
 60132  1  0  0  0
 60133  1  0  0  0
 60134  1  0  0  0
 61135  1  0  0  0
 61136  1  0  0  0
 61137  1  0  0  0
 62138  1  0  0  0
 62139  1  0  0  0
 62140  1  0  0  0
 63 65  1  0  0  0
 63141  1  0  0  0
 63142  1  0  0  0
 63143  1  0  0  0
 64144  1  0  0  0
 65145  1  0  0  0
 68 82  1  0  0  0
 71 72  2  0  0  0
 71 73  1  0  0  0
 71146  1  0  0  0
 72 74  1  0  0  0
 72147  1  0  0  0
 73 75  2  0  0  0
 73148  1  0  0  0
 74 76  2  0  0  0
 74 81  1  0  0  0
 75 76  1  0  0  0
 75 83  1  0  0  0
 76 86  1  0  0  0
 77 78  2  0  0  0
 77 79  1  0  0  0
 77149  1  0  0  0
 78 80  1  0  0  0
 78 82  1  0  0  0
 79 83  1  0  0  0
 79 85  2  0  0  0
 80 83  1  0  0  0
 80150  1  0  0  0
 80151  1  0  0  0
 81 84  1  0  0  0
 81152  1  0  0  0
 81153  1  0  0  0
 82154  1  0  0  0
 82155  1  0  0  0
 84156  1  0  0  0
M  ISO  4   1 100  68 101  82 101  84 100
M  END
> <chiral flag>
0

> <version>
0

> <s_m_source_file>
/data/baiqing/PycharmProjects/Reinvent-master-3.2/result/LINK_invent/BTK/process_docking_weight1_custom_product_contain_oxygen_bond_distance_aromatic_linkinvent_7_9_3/rearranged_h_0072.sdf

> <i_m_source_file_index>
76

> <r_mmod_Potential_Energy-OPLS-2005>
56.0470848083496

> <r_mmod_Stretch_Energy-OPLS-2005>
55.3368148803711

> <r_mmod_Bend_Energy-OPLS-2005>
155.392379760742

> <r_mmod_Torsional_Energy-OPLS-2005>
292.734588623047

> <r_mmod_Improper_Torsional_Energy-OPLS-2005>
10.2501573562622

> <r_mmod_Van_der_Waal_Energy-OPLS-2005>
147.154479980469

> <r_mmod_Electrostatic_Energy-OPLS-2005>
-404.533416748047

> <r_mmod_Solvation_Energy-OPLS-2005>
-223.594177246094

> <b_mmod_Minimization_Converged-OPLS-2005>
0

> <r_mmod_RMS_Derivative-OPLS-2005>
7.19563055038452

$$$$
76
                    3D
 Structure written by MMmdl.
155163  0  0  1  0            999 V2000
  -30.5671  -14.7561   20.4786 C   0  0  0  0  0  0
  -30.4429  -12.4634   19.4736 C   0  0  0  0  0  0
  -29.5155  -12.5353   18.2376 C   0  0  0  0  0  0
  -28.0413  -12.3449   18.6471 C   0  0  0  0  0  0
  -27.6483  -13.2270   19.8629 C   0  0  2  0  0  0
  -28.6919  -13.1218   20.9984 C   0  0  0  0  0  0
  -25.2534  -13.8180   20.5713 C   0  0  0  0  0  0
  -24.1802  -13.0432   20.9186 C   0  0  0  0  0  0
  -24.6368  -11.6906   20.8711 C   0  0  0  0  0  0
  -23.9031  -10.4296   21.0376 C   0  0  0  0  0  0
  -24.3598   -9.4227   21.9164 C   0  0  0  0  0  0
  -23.6294   -8.2248   22.0735 C   0  0  0  0  0  0
  -22.4270   -8.0266   21.3534 C   0  0  0  0  0  0
  -21.9882   -9.0233   20.4634 C   0  0  0  0  0  0
  -22.7189  -10.2125   20.3043 C   0  0  0  0  0  0
  -21.6860   -6.0716   22.5277 C   0  0  0  0  0  0
  -21.4013   -6.5623   23.8209 C   0  0  0  0  0  0
  -21.3663   -5.6786   24.9177 C   0  0  0  0  0  0
  -21.6051   -4.3044   24.7233 C   0  0  0  0  0  0
  -21.8821   -3.8124   23.4352 C   0  0  0  0  0  0
  -21.9194   -4.6939   22.3406 C   0  0  0  0  0  0
  -22.7834  -13.5224   21.1866 C   0  0  0  0  0  0
  -22.1673   -4.2116   21.0985 F   0  0  0  0  0  0
  -21.5633   -3.4534   25.7745 F   0  0  0  0  0  0
  -29.9969  -13.5005   20.4352 N   0  0  0  0  0  0
  -26.2962  -12.9379   20.3305 N   0  0  0  0  0  0
  -25.9302  -11.6523   20.5712 N   0  0  0  0  0  0
  -22.0485  -12.8218   22.0430 N   0  0  0  0  0  0
  -25.4250  -15.1911   20.4227 N   0  0  0  0  0  0
  -31.7176  -14.9248   20.0617 O   0  0  0  0  0  0
  -21.6651   -6.8855   21.4232 O   0  0  0  0  0  0
  -22.3520  -14.5533   20.6716 O   0  0  0  0  0  0
  -24.6327  -31.8558   23.1989 C   0  0  0  0  0  0
  -25.9149  -32.4759   23.8342 C   0  0  1  0  0  0
  -27.2189  -27.2464   20.1220 C   0  0  0  0  0  0
  -25.5942  -33.8566   24.2261 N   0  0  0  0  0  0
  -23.4301  -30.4801   21.5444 C   0  0  2  0  0  0
  -24.8772  -28.9272   20.1119 C   0  0  0  0  0  0
  -22.7520  -29.4604   22.4917 C   0  0  0  0  0  0
  -18.0302  -28.1396   22.8491 C   0  0  0  0  0  0
  -24.1495  -36.7282   23.2639 C   0  0  0  0  0  0
  -25.9798  -30.7618   21.3826 C   0  0  0  0  0  0
  -26.0517  -29.3839   20.7223 C   0  0  0  0  0  0
  -27.2247  -28.5565   20.7180 C   0  0  0  0  0  0
  -26.0169  -26.8702   19.4764 C   0  0  0  0  0  0
  -24.8648  -27.6777   19.4798 C   0  0  0  0  0  0
  -23.6501  -29.8167   20.1604 C   0  0  0  0  0  0
  -25.4121  -36.3069   24.0326 C   0  0  1  0  0  0
  -20.5904  -28.3705   23.1278 C   0  0  2  0  0  0
  -20.6790  -26.9421   22.5418 C   0  0  0  0  0  0
  -19.5769  -26.6389   21.5226 C   0  0  0  0  0  0
  -18.1943  -26.7943   22.1626 C   0  0  0  0  0  0
  -19.1559  -28.8871   23.2871 C   0  0  0  0  0  0
  -18.9467  -30.1472   23.8885 C   0  0  0  0  0  0
  -17.6464  -30.6587   24.0570 C   0  0  0  0  0  0
  -25.9062  -34.9442   23.5097 C   0  0  0  0  0  0
  -16.5355  -29.9088   23.6335 C   0  0  0  0  0  0
  -16.7288  -28.6511   23.0346 C   0  0  0  0  0  0
  -26.4514  -31.6582   25.0733 C   0  0  0  0  0  0
  -25.3719  -31.3743   26.1442 C   0  0  0  0  0  0
  -27.0363  -30.2994   24.6228 C   0  0  0  0  0  0
  -27.6077  -32.4320   25.7487 C   0  0  0  0  0  0
  -27.5592  -37.1791   24.8459 C   0  0  0  0  0  0
  -21.4226  -29.3040   22.3655 N   0  0  0  0  0  0
  -26.4292  -37.3772   23.9412 N   0  0  0  0  0  0
  -24.7004  -31.0507   22.0976 N   0  0  0  0  0  0
  -23.4219  -28.8140   23.3013 O   0  0  0  0  0  0
  -28.3017  -26.3243   20.1852 O   0  0  0  0  0  0
  -26.5632  -34.8915   22.4662 O   0  0  0  0  0  0
  -23.5472  -32.1393   23.7273 O   0  0  0  0  0  0
  -29.3898  -18.1736   21.7283 C   0  0  0  0  0  0
  -29.0817  -19.5682   21.5422 C   0  0  0  0  0  0
  -29.4900  -19.3212   19.2010 C   0  0  0  0  0  0
  -29.7375  -17.2866   20.6599 C   0  0  0  0  0  0
  -29.7830  -17.9193   19.3774 C   0  0  0  0  0  0
  -29.0957  -20.1894   20.2632 C   0  0  0  0  0  0
  -28.8783  -17.1320   17.3059 C   0  0  0  0  0  0
  -28.0186  -24.8547   19.9501 C   0  0  0  0  0  0
  -28.9794  -23.5850   20.3070 C   0  0  0  0  0  0
  -29.7618  -15.8098   20.8868 N   0  0  0  0  0  0
  -29.9921  -17.1174   18.2488 N   0  0  0  0  0  0
  -28.0115  -21.8621   18.4282 O   0  0  0  0  0  0
  -26.9640  -21.7904   20.6900 O   0  0  0  0  0  0
  -28.2014  -21.8445   19.8906 S   0  0  0  0  0  0
  -31.4830  -12.6053   19.1731 H   0  0  0  0  0  0
  -30.3995  -11.4740   19.9316 H   0  0  0  0  0  0
  -29.8028  -11.7839   17.5007 H   0  0  0  0  0  0
  -29.6338  -13.5036   17.7489 H   0  0  0  0  0  0
  -27.8990  -11.2922   18.8947 H   0  0  0  0  0  0
  -27.3839  -12.5516   17.8019 H   0  0  0  0  0  0
  -27.6507  -14.2562   19.5032 H   0  0  0  0  0  0
  -28.7317  -12.1053   21.3942 H   0  0  0  0  0  0
  -28.4177  -13.7589   21.8409 H   0  0  0  0  0  0
  -25.2738   -9.5732   22.4731 H   0  0  0  0  0  0
  -24.0017   -7.4637   22.7443 H   0  0  0  0  0  0
  -21.0799   -8.8731   19.8943 H   0  0  0  0  0  0
  -22.3612  -10.9662   19.6155 H   0  0  0  0  0  0
  -21.2012   -7.6132   23.9701 H   0  0  0  0  0  0
  -21.1490   -6.0517   25.9081 H   0  0  0  0  0  0
  -22.0599   -2.7575   23.2860 H   0  0  0  0  0  0
  -22.4112  -11.9899   22.4848 H   0  0  0  0  0  0
  -21.1094  -13.1234   22.2612 H   0  0  0  0  0  0
  -24.6609  -15.8466   20.5489 H   0  0  0  0  0  0
  -26.2826  -15.6359   20.1226 H   0  0  0  0  0  0
  -26.7207  -32.5409   23.1077 H   0  0  0  0  0  0
  -25.0075  -33.9708   25.0394 H   0  0  0  0  0  0
  -22.7256  -31.3015   21.3991 H   0  0  0  0  0  0
  -23.3772  -35.9601   23.3285 H   0  0  0  0  0  0
  -24.3581  -36.8926   22.2056 H   0  0  0  0  0  0
  -23.7233  -37.6470   23.6675 H   0  0  0  0  0  0
  -26.1198  -31.5218   20.6128 H   0  0  0  0  0  0
  -26.8560  -30.8108   22.0167 H   0  0  0  0  0  0
  -28.1206  -28.8999   21.2164 H   0  0  0  0  0  0
  -25.9241  -25.9214   18.9712 H   0  0  0  0  0  0
  -23.9648  -27.3231   18.9966 H   0  0  0  0  0  0
  -23.7772  -30.5938   19.4061 H   0  0  0  0  0  0
  -22.7667  -29.2542   19.8532 H   0  0  0  0  0  0
  -25.1298  -36.1917   25.0821 H   0  0  0  0  0  0
  -21.0001  -28.3288   24.1398 H   0  0  0  0  0  0
  -20.5701  -26.2317   23.3626 H   0  0  0  0  0  0
  -21.6654  -26.7456   22.1205 H   0  0  0  0  0  0
  -19.6928  -25.6297   21.1256 H   0  0  0  0  0  0
  -19.6706  -27.3198   20.6755 H   0  0  0  0  0  0
  -17.4224  -26.6712   21.4016 H   0  0  0  0  0  0
  -18.0320  -26.0075   22.9014 H   0  0  0  0  0  0
  -19.7934  -30.7300   24.2237 H   0  0  0  0  0  0
  -17.5010  -31.6260   24.5189 H   0  0  0  0  0  0
  -15.5353  -30.2981   23.7656 H   0  0  0  0  0  0
  -15.8692  -28.0829   22.7044 H   0  0  0  0  0  0
  -24.5860  -30.7148   25.7735 H   0  0  0  0  0  0
  -24.8955  -32.2932   26.4881 H   0  0  0  0  0  0
  -25.8003  -30.8871   27.0210 H   0  0  0  0  0  0
  -26.2957  -29.6728   24.1250 H   0  0  0  0  0  0
  -27.4039  -29.7266   25.4748 H   0  0  0  0  0  0
  -27.8834  -30.4262   23.9485 H   0  0  0  0  0  0
  -27.2694  -33.3610   26.2084 H   0  0  0  0  0  0
  -28.3862  -32.6902   25.0295 H   0  0  0  0  0  0
  -28.0782  -31.8442   26.5375 H   0  0  0  0  0  0
  -28.2591  -38.0105   24.7525 H   0  0  0  0  0  0
  -28.1103  -36.2639   24.6247 H   0  0  0  0  0  0
  -27.2318  -37.1395   25.8862 H   0  0  0  0  0  0
  -20.9418  -29.8745   21.6837 H   0  0  0  0  0  0
  -26.0176  -38.2844   24.1426 H   0  0  0  0  0  0
  -29.2836  -17.7643   22.7227 H   0  0  0  0  0  0
  -28.7329  -20.1469   22.3852 H   0  0  0  0  0  0
  -29.4572  -19.7268   18.2014 H   0  0  0  0  0  0
  -28.8076  -16.1771   16.7823 H   0  0  0  0  0  0
  -29.0107  -17.9177   16.5602 H   0  0  0  0  0  0
  -27.9231  -17.2999   17.8089 H   0  0  0  0  0  0
  -27.0812  -24.6391   20.4654 H   0  0  0  0  0  0
  -27.8012  -24.7623   18.8845 H   0  0  0  0  0  0
  -29.2325  -23.5742   21.3643 H   0  0  0  0  0  0
  -29.9186  -23.6469   19.7611 H   0  0  0  0  0  0
  -28.9462  -15.4765   21.3760 H   0  0  0  0  0  0
  -30.3445  -16.1905   18.4707 H   0  0  0  0  0  0
  1 25  1  0  0  0
  1 30  2  0  0  0
  1 80  1  0  0  0
  2  3  1  0  0  0
  2 25  1  0  0  0
  2 85  1  0  0  0
  2 86  1  0  0  0
  3  4  1  0  0  0
  3 87  1  0  0  0
  3 88  1  0  0  0
  4  5  1  0  0  0
  4 89  1  0  0  0
  4 90  1  0  0  0
  5  6  1  0  0  0
  5 26  1  0  0  0
  5 91  1  0  0  0
  6 25  1  0  0  0
  6 92  1  0  0  0
  6 93  1  0  0  0
  7  8  2  0  0  0
  7 26  1  0  0  0
  7 29  1  0  0  0
  8  9  1  0  0  0
  8 22  1  0  0  0
  9 10  1  0  0  0
  9 27  2  0  0  0
 10 11  2  0  0  0
 10 15  1  0  0  0
 11 12  1  0  0  0
 11 94  1  0  0  0
 12 13  2  0  0  0
 12 95  1  0  0  0
 13 14  1  0  0  0
 13 31  1  0  0  0
 14 15  2  0  0  0
 14 96  1  0  0  0
 15 97  1  0  0  0
 16 17  2  0  0  0
 16 21  1  0  0  0
 16 31  1  0  0  0
 17 18  1  0  0  0
 17 98  1  0  0  0
 18 19  2  0  0  0
 18 99  1  0  0  0
 19 20  1  0  0  0
 19 24  1  0  0  0
 20 21  2  0  0  0
 20100  1  0  0  0
 21 23  1  0  0  0
 22 28  1  0  0  0
 22 32  2  0  0  0
 26 27  1  0  0  0
 28101  1  0  0  0
 28102  1  0  0  0
 29103  1  0  0  0
 29104  1  0  0  0
 33 34  1  0  0  0
 33 66  1  0  0  0
 33 70  2  0  0  0
 34 36  1  0  0  0
 34 59  1  0  0  0
 34105  1  0  0  0
 35 44  2  0  0  0
 35 45  1  0  0  0
 35 68  1  0  0  0
 36 56  1  0  0  0
 36106  1  0  0  0
 37 39  1  0  0  0
 37 47  1  0  0  0
 37 66  1  0  0  0
 37107  1  0  0  0
 38 43  2  0  0  0
 38 46  1  0  0  0
 38 47  1  0  0  0
 39 64  1  0  0  0
 39 67  2  0  0  0
 40 52  1  0  0  0
 40 53  2  0  0  0
 40 58  1  0  0  0
 41108  1  0  0  0
 41109  1  0  0  0
 41110  1  0  0  0
 41 48  1  0  0  0
 42 43  1  0  0  0
 42 66  1  0  0  0
 42111  1  0  0  0
 42112  1  0  0  0
 43 44  1  0  0  0
 44113  1  0  0  0
 45 46  2  0  0  0
 45114  1  0  0  0
 46115  1  0  0  0
 47116  1  0  0  0
 47117  1  0  0  0
 48 56  1  0  0  0
 48 65  1  0  0  0
 48118  1  0  0  0
 49 50  1  0  0  0
 49 53  1  0  0  0
 49 64  1  0  0  0
 49119  1  0  0  0
 50 51  1  0  0  0
 50120  1  0  0  0
 50121  1  0  0  0
 51 52  1  0  0  0
 51122  1  0  0  0
 51123  1  0  0  0
 52124  1  0  0  0
 52125  1  0  0  0
 53 54  1  0  0  0
 54 55  2  0  0  0
 54126  1  0  0  0
 55 57  1  0  0  0
 55127  1  0  0  0
 56 69  2  0  0  0
 57 58  2  0  0  0
 57128  1  0  0  0
 58129  1  0  0  0
 59 60  1  0  0  0
 59 61  1  0  0  0
 59 62  1  0  0  0
 60130  1  0  0  0
 60131  1  0  0  0
 60132  1  0  0  0
 61133  1  0  0  0
 61134  1  0  0  0
 61135  1  0  0  0
 62136  1  0  0  0
 62137  1  0  0  0
 62138  1  0  0  0
 63 65  1  0  0  0
 63139  1  0  0  0
 63140  1  0  0  0
 63141  1  0  0  0
 64142  1  0  0  0
 65143  1  0  0  0
 68 78  1  0  0  0
 71 72  2  0  0  0
 71 74  1  0  0  0
 71144  1  0  0  0
 72 76  1  0  0  0
 72145  1  0  0  0
 73 75  1  0  0  0
 73 76  2  0  0  0
 73146  1  0  0  0
 74 75  2  0  0  0
 74 80  1  0  0  0
 75 81  1  0  0  0
 76 84  1  0  0  0
 77 81  1  0  0  0
 77147  1  0  0  0
 77148  1  0  0  0
 77149  1  0  0  0
 78 79  1  0  0  0
 78150  1  0  0  0
 78151  1  0  0  0
 79152  1  0  0  0
 79153  1  0  0  0
 79 84  1  0  0  0
 80154  1  0  0  0
 81155  1  0  0  0
 82 84  2  0  0  0
 83 84  2  0  0  0
M  ISO  4   1 100  68 101  78 101  80 100
M  END
> <chiral flag>
0

> <version>
0

> <s_m_source_file>
/data/baiqing/PycharmProjects/Reinvent-master-3.2/result/LINK_invent/BTK/process_docking_weight1_custom_product_contain_oxygen_bond_distance_aromatic_linkinvent_7_9_3/rearranged_h_0072.sdf

> <i_m_source_file_index>
77

> <r_mmod_Potential_Energy-OPLS-2005>
16.2236843109131

> <r_mmod_Stretch_Energy-OPLS-2005>
133.687408447266

> <r_mmod_Bend_Energy-OPLS-2005>
204.533752441406

> <r_mmod_Torsional_Energy-OPLS-2005>
249.725952148438

> <r_mmod_Improper_Torsional_Energy-OPLS-2005>
13.0444841384888

> <r_mmod_Van_der_Waal_Energy-OPLS-2005>
134.721771240234

> <r_mmod_Electrostatic_Energy-OPLS-2005>
-535.283569335938

> <r_mmod_Solvation_Energy-OPLS-2005>
-277.375

> <b_mmod_Minimization_Converged-OPLS-2005>
0

> <r_mmod_RMS_Derivative-OPLS-2005>
2.15751838684082

$$$$
77
                    3D
 Structure written by MMmdl.
156165  0  0  1  0            999 V2000
  -30.4706  -15.1186   20.4074 C   0  0  0  0  0  0
  -30.4487  -12.7115   19.4989 C   0  0  0  0  0  0
  -29.5392  -12.5665   18.2553 C   0  0  0  0  0  0
  -28.0704  -12.3272   18.6715 C   0  0  0  0  0  0
  -27.6193  -13.2673   19.8232 C   0  0  2  0  0  0
  -28.6658  -13.3515   20.9515 C   0  0  0  0  0  0
  -25.2418  -13.8213   20.5779 C   0  0  0  0  0  0
  -24.1767  -13.0386   20.9235 C   0  0  0  0  0  0
  -24.6419  -11.6895   20.8710 C   0  0  0  0  0  0
  -23.9108  -10.4262   21.0355 C   0  0  0  0  0  0
  -24.3629   -9.4175   21.9145 C   0  0  0  0  0  0
  -23.6278   -8.2226   22.0749 C   0  0  0  0  0  0
  -22.4276   -8.0267   21.3532 C   0  0  0  0  0  0
  -21.9911   -9.0256   20.4641 C   0  0  0  0  0  0
  -22.7264  -10.2115   20.3017 C   0  0  0  0  0  0
  -21.6878   -6.0732   22.5285 C   0  0  0  0  0  0
  -21.4034   -6.5634   23.8213 C   0  0  0  0  0  0
  -21.3646   -5.6783   24.9163 C   0  0  0  0  0  0
  -21.6014   -4.3047   24.7209 C   0  0  0  0  0  0
  -21.8819   -3.8150   23.4337 C   0  0  0  0  0  0
  -21.9181   -4.6961   22.3402 C   0  0  0  0  0  0
  -22.7781  -13.5161   21.1861 C   0  0  0  0  0  0
  -22.1656   -4.2160   21.0980 F   0  0  0  0  0  0
  -21.5598   -3.4524   25.7707 F   0  0  0  0  0  0
  -29.9011  -13.8332   20.3204 N   0  0  0  0  0  0
  -26.2856  -12.9488   20.3209 N   0  0  0  0  0  0
  -25.9359  -11.6593   20.5659 N   0  0  0  0  0  0
  -22.0420  -12.8177   22.0398 N   0  0  0  0  0  0
  -25.4054  -15.1941   20.4354 N   0  0  0  0  0  0
  -31.7036  -15.1481   20.2893 O   0  0  0  0  0  0
  -21.6642   -6.8872   21.4247 O   0  0  0  0  0  0
  -22.3443  -14.5449   20.6650 O   0  0  0  0  0  0
  -24.6551  -31.8467   23.1772 C   0  0  0  0  0  0
  -25.9298  -32.4750   23.8146 C   0  0  1  0  0  0
  -27.1823  -27.0275   20.1719 C   0  0  0  0  0  0
  -25.5984  -33.8547   24.2098 N   0  0  0  0  0  0
  -23.4600  -30.4572   21.5412 C   0  0  2  0  0  0
  -24.8890  -28.8602   20.1146 C   0  0  0  0  0  0
  -22.7643  -29.4563   22.4968 C   0  0  0  0  0  0
  -18.0346  -28.1562   22.8504 C   0  0  0  0  0  0
  -24.1439  -36.7253   23.2633 C   0  0  0  0  0  0
  -26.0228  -30.6762   21.3807 C   0  0  0  0  0  0
  -26.0794  -29.2798   20.7209 C   0  0  0  0  0  0
  -27.2352  -28.3921   20.7058 C   0  0  0  0  0  0
  -25.9666  -26.7406   19.5073 C   0  0  0  0  0  0
  -24.8503  -27.6075   19.4806 C   0  0  0  0  0  0
  -23.6807  -29.7899   20.1590 C   0  0  0  0  0  0
  -25.4116  -36.3119   24.0316 C   0  0  1  0  0  0
  -20.5961  -28.3869   23.1285 C   0  0  2  0  0  0
  -20.6888  -26.9572   22.5465 C   0  0  0  0  0  0
  -19.5876  -26.6499   21.5282 C   0  0  0  0  0  0
  -18.2032  -26.8134   22.1627 C   0  0  0  0  0  0
  -19.1615  -28.9034   23.2877 C   0  0  0  0  0  0
  -18.9517  -30.1622   23.8927 C   0  0  0  0  0  0
  -17.6514  -30.6752   24.0616 C   0  0  0  0  0  0
  -25.9100  -34.9501   23.5060 C   0  0  0  0  0  0
  -16.5387  -29.9251   23.6384 C   0  0  0  0  0  0
  -16.7329  -28.6661   23.0405 C   0  0  0  0  0  0
  -26.4535  -31.6710   25.0685 C   0  0  0  0  0  0
  -25.3579  -31.3882   26.1254 C   0  0  0  0  0  0
  -27.0347  -30.3114   24.6300 C   0  0  0  0  0  0
  -27.6090  -32.4438   25.7520 C   0  0  0  0  0  0
  -27.5601  -37.1791   24.8481 C   0  0  0  0  0  0
  -21.4338  -29.3090   22.3648 N   0  0  0  0  0  0
  -26.4287  -37.3861   23.9445 N   0  0  0  0  0  0
  -24.7370  -31.0171   22.0876 N   0  0  0  0  0  0
  -23.4215  -28.8175   23.3237 O   0  0  0  0  0  0
  -28.1498  -25.9197   20.2790 O   0  0  0  0  0  0
  -26.5743  -34.9039   22.4666 O   0  0  0  0  0  0
  -23.5630  -32.1351   23.6990 O   0  0  0  0  0  0
  -30.3459  -19.3169   22.6369 C   0  0  0  0  0  0
  -30.3071  -18.0454   22.0209 C   0  0  0  0  0  0
  -29.2311  -19.1503   20.1827 C   0  0  0  0  0  0
  -29.8286  -20.5468   22.0989 C   0  0  0  0  0  0
  -29.2064  -20.5673   20.7866 C   0  0  0  0  0  0
  -29.7556  -17.8446   20.7508 C   0  0  0  0  0  0
  -26.4841  -22.5652   20.6637 C   0  0  0  0  0  0
  -26.4254  -21.7084   19.6461 C   0  0  0  0  0  0
  -27.8145  -23.1171   20.6770 C   0  0  0  0  0  0
  -27.7724  -21.5213   19.1362 C   0  0  0  0  0  0
  -27.6519  -24.5755   20.6983 C   0  0  0  0  0  0
  -30.0426  -21.7665   22.9741 C   0  0  0  0  0  0
  -30.4843  -21.5565   24.4345 C   0  0  0  0  0  0
  -28.6171  -21.9180   20.1186 N   0  0  0  0  0  0
  -29.6780  -16.3373   20.2816 N   0  0  0  0  0  0
  -28.0905  -21.0524   18.0351 O   0  0  0  0  0  0
  -29.9431  -22.9312   22.5908 O   0  0  0  0  0  0
  -31.4813  -12.9054   19.1942 H   0  0  0  0  0  0
  -30.4790  -11.7837   20.0755 H   0  0  0  0  0  0
  -29.8994  -11.7518   17.6276 H   0  0  0  0  0  0
  -29.6150  -13.4709   17.6484 H   0  0  0  0  0  0
  -27.9841  -11.2929   19.0046 H   0  0  0  0  0  0
  -27.4145  -12.4271   17.8097 H   0  0  0  0  0  0
  -27.5534  -14.2585   19.3764 H   0  0  0  0  0  0
  -28.8022  -12.3801   21.4288 H   0  0  0  0  0  0
  -28.3420  -14.0391   21.7358 H   0  0  0  0  0  0
  -25.2760   -9.5661   22.4724 H   0  0  0  0  0  0
  -23.9979   -7.4627   22.7489 H   0  0  0  0  0  0
  -21.0820   -8.8759   19.8987 H   0  0  0  0  0  0
  -22.3692  -10.9627   19.6121 H   0  0  0  0  0  0
  -21.2101   -7.6150   23.9722 H   0  0  0  0  0  0
  -21.1447   -6.0511   25.9057 H   0  0  0  0  0  0
  -22.0623   -2.7617   23.2834 H   0  0  0  0  0  0
  -22.4022  -11.9894   22.4902 H   0  0  0  0  0  0
  -21.1022  -13.1205   22.2547 H   0  0  0  0  0  0
  -24.6496  -15.8508   20.6011 H   0  0  0  0  0  0
  -26.2656  -15.6478   20.1590 H   0  0  0  0  0  0
  -26.7363  -32.5264   23.0837 H   0  0  0  0  0  0
  -25.0104  -33.9581   25.0241 H   0  0  0  0  0  0
  -22.7635  -31.2855   21.3974 H   0  0  0  0  0  0
  -23.3776  -35.9504   23.3382 H   0  0  0  0  0  0
  -24.3452  -36.8818   22.2009 H   0  0  0  0  0  0
  -23.7081  -37.6439   23.6600 H   0  0  0  0  0  0
  -26.1943  -31.4138   20.5975 H   0  0  0  0  0  0
  -26.8876  -30.7188   22.0304 H   0  0  0  0  0  0
  -28.1565  -28.7329   21.1508 H   0  0  0  0  0  0
  -25.8488  -25.7686   19.0466 H   0  0  0  0  0  0
  -23.9411  -27.2913   18.9871 H   0  0  0  0  0  0
  -23.8355  -30.5738   19.4172 H   0  0  0  0  0  0
  -22.7789  -29.2620   19.8398 H   0  0  0  0  0  0
  -25.1287  -36.1996   25.0799 H   0  0  0  0  0  0
  -20.9972  -28.3475   24.1454 H   0  0  0  0  0  0
  -20.5935  -26.2449   23.3676 H   0  0  0  0  0  0
  -21.6757  -26.7768   22.1166 H   0  0  0  0  0  0
  -19.7049  -25.6379   21.1437 H   0  0  0  0  0  0
  -19.6883  -27.3219   20.6746 H   0  0  0  0  0  0
  -17.4320  -26.6908   21.3994 H   0  0  0  0  0  0
  -18.0380  -26.0320   22.9044 H   0  0  0  0  0  0
  -19.7963  -30.7475   24.2292 H   0  0  0  0  0  0
  -17.5071  -31.6423   24.5256 H   0  0  0  0  0  0
  -15.5418  -30.3165   23.7784 H   0  0  0  0  0  0
  -15.8713  -28.0995   22.7155 H   0  0  0  0  0  0
  -24.5889  -30.7193   25.7406 H   0  0  0  0  0  0
  -24.8553  -32.3000   26.4485 H   0  0  0  0  0  0
  -25.7661  -30.9108   27.0179 H   0  0  0  0  0  0
  -26.2897  -29.6946   24.1285 H   0  0  0  0  0  0
  -27.3920  -29.7401   25.4881 H   0  0  0  0  0  0
  -27.8868  -30.4398   23.9626 H   0  0  0  0  0  0
  -27.2811  -33.3832   26.2011 H   0  0  0  0  0  0
  -28.3979  -32.6884   25.0383 H   0  0  0  0  0  0
  -28.0706  -31.8587   26.5497 H   0  0  0  0  0  0
  -28.2665  -38.0071   24.7654 H   0  0  0  0  0  0
  -28.1072  -36.2638   24.6192 H   0  0  0  0  0  0
  -27.2326  -37.1332   25.8884 H   0  0  0  0  0  0
  -20.9662  -29.8498   21.6516 H   0  0  0  0  0  0
  -26.0212  -38.2958   24.1482 H   0  0  0  0  0  0
  -30.8300  -19.2889   23.6034 H   0  0  0  0  0  0
  -30.6923  -17.1888   22.5537 H   0  0  0  0  0  0
  -28.8286  -19.0390   19.1882 H   0  0  0  0  0  0
  -25.6303  -22.8942   21.2440 H   0  0  0  0  0  0
  -25.5378  -21.2113   19.2796 H   0  0  0  0  0  0
  -26.7094  -24.8403   21.1779 H   0  0  0  0  0  0
  -29.9291  -20.7507   24.9186 H   0  0  0  0  0  0
  -30.3501  -22.4578   25.0326 H   0  0  0  0  0  0
  -31.5465  -21.3049   24.4547 H   0  0  0  0  0  0
  -28.7829  -16.1124   19.8728 H   0  0  0  0  0  0
  1 25  1  0  0  0
  1 30  2  0  0  0
  1 85  1  0  0  0
  2  3  1  0  0  0
  2 25  1  0  0  0
  2 88  1  0  0  0
  2 89  1  0  0  0
  3  4  1  0  0  0
  3 90  1  0  0  0
  3 91  1  0  0  0
  4  5  1  0  0  0
  4 92  1  0  0  0
  4 93  1  0  0  0
  5  6  1  0  0  0
  5 26  1  0  0  0
  5 94  1  0  0  0
  6 25  1  0  0  0
  6 95  1  0  0  0
  6 96  1  0  0  0
  7  8  2  0  0  0
  7 26  1  0  0  0
  7 29  1  0  0  0
  8  9  1  0  0  0
  8 22  1  0  0  0
  9 10  1  0  0  0
  9 27  2  0  0  0
 10 11  2  0  0  0
 10 15  1  0  0  0
 11 12  1  0  0  0
 11 97  1  0  0  0
 12 13  2  0  0  0
 12 98  1  0  0  0
 13 14  1  0  0  0
 13 31  1  0  0  0
 14 15  2  0  0  0
 14 99  1  0  0  0
 15100  1  0  0  0
 16 17  2  0  0  0
 16 21  1  0  0  0
 16 31  1  0  0  0
 17 18  1  0  0  0
 17101  1  0  0  0
 18 19  2  0  0  0
 18102  1  0  0  0
 19 20  1  0  0  0
 19 24  1  0  0  0
 20 21  2  0  0  0
 20103  1  0  0  0
 21 23  1  0  0  0
 22 28  1  0  0  0
 22 32  2  0  0  0
 26 27  1  0  0  0
 28104  1  0  0  0
 28105  1  0  0  0
 29106  1  0  0  0
 29107  1  0  0  0
 33 34  1  0  0  0
 33 66  1  0  0  0
 33 70  2  0  0  0
 34 36  1  0  0  0
 34 59  1  0  0  0
 34108  1  0  0  0
 35 44  2  0  0  0
 35 45  1  0  0  0
 35 68  1  0  0  0
 36 56  1  0  0  0
 36109  1  0  0  0
 37 39  1  0  0  0
 37 47  1  0  0  0
 37 66  1  0  0  0
 37110  1  0  0  0
 38 43  2  0  0  0
 38 46  1  0  0  0
 38 47  1  0  0  0
 39 64  1  0  0  0
 39 67  2  0  0  0
 40 52  1  0  0  0
 40 53  2  0  0  0
 40 58  1  0  0  0
 41111  1  0  0  0
 41112  1  0  0  0
 41113  1  0  0  0
 41 48  1  0  0  0
 42 43  1  0  0  0
 42 66  1  0  0  0
 42114  1  0  0  0
 42115  1  0  0  0
 43 44  1  0  0  0
 44116  1  0  0  0
 45 46  2  0  0  0
 45117  1  0  0  0
 46118  1  0  0  0
 47119  1  0  0  0
 47120  1  0  0  0
 48 56  1  0  0  0
 48 65  1  0  0  0
 48121  1  0  0  0
 49 50  1  0  0  0
 49 53  1  0  0  0
 49 64  1  0  0  0
 49122  1  0  0  0
 50 51  1  0  0  0
 50123  1  0  0  0
 50124  1  0  0  0
 51 52  1  0  0  0
 51125  1  0  0  0
 51126  1  0  0  0
 52127  1  0  0  0
 52128  1  0  0  0
 53 54  1  0  0  0
 54 55  2  0  0  0
 54129  1  0  0  0
 55 57  1  0  0  0
 55130  1  0  0  0
 56 69  2  0  0  0
 57 58  2  0  0  0
 57131  1  0  0  0
 58132  1  0  0  0
 59 60  1  0  0  0
 59 61  1  0  0  0
 59 62  1  0  0  0
 60133  1  0  0  0
 60134  1  0  0  0
 60135  1  0  0  0
 61136  1  0  0  0
 61137  1  0  0  0
 61138  1  0  0  0
 62139  1  0  0  0
 62140  1  0  0  0
 62141  1  0  0  0
 63 65  1  0  0  0
 63142  1  0  0  0
 63143  1  0  0  0
 63144  1  0  0  0
 64145  1  0  0  0
 65146  1  0  0  0
 68 81  1  0  0  0
 71 72  2  0  0  0
 71 74  1  0  0  0
 71147  1  0  0  0
 72 76  1  0  0  0
 72148  1  0  0  0
 73 75  1  0  0  0
 73 76  2  0  0  0
 73149  1  0  0  0
 74 75  2  0  0  0
 74 82  1  0  0  0
 75 84  1  0  0  0
 76 85  1  0  0  0
 77 78  2  0  0  0
 77 79  1  0  0  0
 77150  1  0  0  0
 78 80  1  0  0  0
 78151  1  0  0  0
 79 81  2  0  0  0
 79 84  1  0  0  0
 80 84  1  0  0  0
 80 86  2  0  0  0
 81152  1  0  0  0
 82 83  1  0  0  0
 82 87  2  0  0  0
 83153  1  0  0  0
 83154  1  0  0  0
 83155  1  0  0  0
 85156  1  0  0  0
M  ISO  4   1 100  68 101  81 101  85 100
M  END
> <chiral flag>
0

> <version>
0

> <s_m_source_file>
/data/baiqing/PycharmProjects/Reinvent-master-3.2/result/LINK_invent/BTK/process_docking_weight1_custom_product_contain_oxygen_bond_distance_aromatic_linkinvent_7_9_3/rearranged_h_0072.sdf

> <i_m_source_file_index>
78

> <r_mmod_Potential_Energy-OPLS-2005>
1397.82287597656

> <r_mmod_Stretch_Energy-OPLS-2005>
427.556915283203

> <r_mmod_Bend_Energy-OPLS-2005>
565.934997558594

> <r_mmod_Torsional_Energy-OPLS-2005>
451.145904541016

> <r_mmod_Improper_Torsional_Energy-OPLS-2005>
17.0667495727539

> <r_mmod_Van_der_Waal_Energy-OPLS-2005>
152.780654907227

> <r_mmod_Electrostatic_Energy-OPLS-2005>
-318.603851318359

> <r_mmod_Solvation_Energy-OPLS-2005>
-234.491500854492

> <b_mmod_Minimization_Converged-OPLS-2005>
0

> <r_mmod_RMS_Derivative-OPLS-2005>
8.04135894775391

$$$$
78
                    3D
 Structure written by MMmdl.
160169  0  0  1  0            999 V2000
  -30.6136  -14.6056   20.5194 C   0  0  0  0  0  0
  -30.4447  -12.3785   19.4297 C   0  0  0  0  0  0
  -29.5024  -12.5136   18.2113 C   0  0  0  0  0  0
  -28.0229  -12.3614   18.6243 C   0  0  0  0  0  0
  -27.6586  -13.2103   19.8709 C   0  0  2  0  0  0
  -28.7072  -13.0162   20.9899 C   0  0  0  0  0  0
  -25.2571  -13.8147   20.5691 C   0  0  0  0  0  0
  -24.1815  -13.0422   20.9145 C   0  0  0  0  0  0
  -24.6383  -11.6893   20.8709 C   0  0  0  0  0  0
  -23.9049  -10.4281   21.0386 C   0  0  0  0  0  0
  -24.3601   -9.4201   21.9170 C   0  0  0  0  0  0
  -23.6277   -8.2240   22.0748 C   0  0  0  0  0  0
  -22.4260   -8.0274   21.3537 C   0  0  0  0  0  0
  -21.9888   -9.0248   20.4640 C   0  0  0  0  0  0
  -22.7220  -10.2124   20.3040 C   0  0  0  0  0  0
  -21.6854   -6.0725   22.5277 C   0  0  0  0  0  0
  -21.4013   -6.5627   23.8209 C   0  0  0  0  0  0
  -21.3661   -5.6783   24.9174 C   0  0  0  0  0  0
  -21.6042   -4.3045   24.7222 C   0  0  0  0  0  0
  -21.8822   -3.8136   23.4346 C   0  0  0  0  0  0
  -21.9195   -4.6954   22.3404 C   0  0  0  0  0  0
  -22.7843  -13.5226   21.1819 C   0  0  0  0  0  0
  -22.1666   -4.2143   21.0982 F   0  0  0  0  0  0
  -21.5628   -3.4527   25.7733 F   0  0  0  0  0  0
  -30.0253  -13.3723   20.4342 N   0  0  0  0  0  0
  -26.3018  -12.9330   20.3376 N   0  0  0  0  0  0
  -25.9318  -11.6477   20.5753 N   0  0  0  0  0  0
  -22.0491  -12.8231   22.0389 N   0  0  0  0  0  0
  -25.4268  -15.1871   20.4199 N   0  0  0  0  0  0
  -31.7586  -14.8172   20.1067 O   0  0  0  0  0  0
  -21.6639   -6.8864   21.4233 O   0  0  0  0  0  0
  -22.3526  -14.5539   20.6686 O   0  0  0  0  0  0
  -24.6233  -31.8607   23.2038 C   0  0  0  0  0  0
  -25.9101  -32.4775   23.8348 C   0  0  1  0  0  0
  -27.2331  -27.3397   20.1019 C   0  0  0  0  0  0
  -25.5925  -33.8577   24.2259 N   0  0  0  0  0  0
  -23.4152  -30.4850   21.5463 C   0  0  2  0  0  0
  -24.8616  -28.9380   20.1151 C   0  0  0  0  0  0
  -22.7440  -29.4642   22.4950 C   0  0  0  0  0  0
  -18.0287  -28.1396   22.8507 C   0  0  0  0  0  0
  -24.1489  -36.7270   23.2637 C   0  0  0  0  0  0
  -25.9563  -30.7950   21.3781 C   0  0  0  0  0  0
  -26.0290  -29.4268   20.7118 C   0  0  0  0  0  0
  -27.2141  -28.6381   20.6940 C   0  0  0  0  0  0
  -26.0328  -26.8856   19.5075 C   0  0  0  0  0  0
  -24.8629  -27.6707   19.5108 C   0  0  0  0  0  0
  -23.6287  -29.8157   20.1636 C   0  0  0  0  0  0
  -25.4125  -36.3064   24.0314 C   0  0  1  0  0  0
  -20.5881  -28.3693   23.1305 C   0  0  2  0  0  0
  -20.6772  -26.9422   22.5428 C   0  0  0  0  0  0
  -19.5741  -26.6399   21.5233 C   0  0  0  0  0  0
  -18.1923  -26.7943   22.1645 C   0  0  0  0  0  0
  -19.1537  -28.8863   23.2906 C   0  0  0  0  0  0
  -18.9459  -30.1471   23.8917 C   0  0  0  0  0  0
  -17.6456  -30.6607   24.0579 C   0  0  0  0  0  0
  -25.9059  -34.9441   23.5082 C   0  0  0  0  0  0
  -16.5346  -29.9099   23.6356 C   0  0  0  0  0  0
  -16.7273  -28.6513   23.0383 C   0  0  0  0  0  0
  -26.4485  -31.6605   25.0737 C   0  0  0  0  0  0
  -25.3698  -31.3795   26.1452 C   0  0  0  0  0  0
  -27.0328  -30.2991   24.6289 C   0  0  0  0  0  0
  -27.6022  -32.4360   25.7519 C   0  0  0  0  0  0
  -27.5580  -37.1797   24.8464 C   0  0  0  0  0  0
  -21.4158  -29.3030   22.3676 N   0  0  0  0  0  0
  -26.4289  -37.3770   23.9404 N   0  0  0  0  0  0
  -24.6827  -31.0631   22.0987 N   0  0  0  0  0  0
  -23.4161  -28.8197   23.3044 O   0  0  0  0  0  0
  -28.4021  -26.5680   20.1397 O   0  0  0  0  0  0
  -26.5634  -34.8904   22.4650 O   0  0  0  0  0  0
  -23.5400  -32.1403   23.7382 O   0  0  0  0  0  0
  -28.3958  -19.0591   21.3331 C   0  0  0  0  0  0
  -30.7786  -17.9100   20.4051 C   0  0  0  0  0  0
  -29.4256  -19.9454   20.9317 C   0  0  0  0  0  0
  -29.7533  -17.0402   20.8677 C   0  0  0  0  0  0
  -28.5579  -17.6518   21.3046 C   0  0  0  0  0  0
  -30.6165  -19.3329   20.4362 C   0  0  0  0  0  0
  -30.1426  -23.3666   22.7169 C   0  0  0  0  0  0
  -30.4341  -21.9746   22.1384 C   0  0  0  0  0  0
  -29.9173  -24.4031   21.6051 C   0  0  0  0  0  0
  -28.9804  -22.5510   20.1253 C   0  0  0  0  0  0
  -29.2742  -21.4787   21.2549 C   0  0  1  0  0  0
  -28.7393  -24.0305   20.6837 C   0  0  2  0  0  0
  -28.5095  -25.1889   19.6242 C   0  0  0  0  0  0
  -29.7838  -15.5887   20.9621 N   0  0  0  0  0  0
  -27.5472  -16.8625   21.7400 F   0  0  0  0  0  0
  -31.6461  -20.1106   20.0253 F   0  0  0  0  0  0
  -31.4811  -12.5218   19.1201 H   0  0  0  0  0  0
  -30.3937  -11.3728   19.8488 H   0  0  0  0  0  0
  -29.7564  -11.7698   17.4543 H   0  0  0  0  0  0
  -29.6489  -13.4870   17.7412 H   0  0  0  0  0  0
  -27.8437  -11.3060   18.8310 H   0  0  0  0  0  0
  -27.3700  -12.6249   17.7912 H   0  0  0  0  0  0
  -27.6876  -14.2538   19.5556 H   0  0  0  0  0  0
  -28.7150  -11.9783   21.3265 H   0  0  0  0  0  0
  -28.4564  -13.6048   21.8732 H   0  0  0  0  0  0
  -25.2748   -9.5690   22.4738 H   0  0  0  0  0  0
  -23.9993   -7.4638   22.7470 H   0  0  0  0  0  0
  -21.0818   -8.8760   19.8956 H   0  0  0  0  0  0
  -22.3676  -10.9652   19.6140 H   0  0  0  0  0  0
  -21.2003   -7.6134   23.9707 H   0  0  0  0  0  0
  -21.1478   -6.0513   25.9076 H   0  0  0  0  0  0
  -22.0600   -2.7597   23.2849 H   0  0  0  0  0  0
  -22.4112  -11.9899   22.4776 H   0  0  0  0  0  0
  -21.1107  -13.1253   22.2584 H   0  0  0  0  0  0
  -24.6741  -15.8398   20.6058 H   0  0  0  0  0  0
  -26.3186  -15.6468   20.2844 H   0  0  0  0  0  0
  -26.7169  -32.5447   23.1098 H   0  0  0  0  0  0
  -25.0034  -33.9717   25.0374 H   0  0  0  0  0  0
  -22.7101  -31.3069   21.4028 H   0  0  0  0  0  0
  -23.3743  -35.9612   23.3311 H   0  0  0  0  0  0
  -24.3556  -36.8882   22.2046 H   0  0  0  0  0  0
  -23.7252  -37.6474   23.6658 H   0  0  0  0  0  0
  -26.1064  -31.5700   20.6252 H   0  0  0  0  0  0
  -26.8269  -30.8229   22.0226 H   0  0  0  0  0  0
  -28.1159  -29.0163   21.1569 H   0  0  0  0  0  0
  -25.9526  -25.9153   19.0460 H   0  0  0  0  0  0
  -23.9621  -27.2837   19.0550 H   0  0  0  0  0  0
  -23.7455  -30.5900   19.4051 H   0  0  0  0  0  0
  -22.7505  -29.2415   19.8631 H   0  0  0  0  0  0
  -25.1314  -36.1900   25.0808 H   0  0  0  0  0  0
  -21.0005  -28.3284   24.1413 H   0  0  0  0  0  0
  -20.5709  -26.2297   23.3624 H   0  0  0  0  0  0
  -21.6642  -26.7477   22.1209 H   0  0  0  0  0  0
  -19.6897  -25.6310   21.1265 H   0  0  0  0  0  0
  -19.6683  -27.3216   20.6769 H   0  0  0  0  0  0
  -17.4204  -26.6730   21.4033 H   0  0  0  0  0  0
  -18.0306  -26.0066   22.9022 H   0  0  0  0  0  0
  -19.7930  -30.7305   24.2271 H   0  0  0  0  0  0
  -17.5010  -31.6294   24.5167 H   0  0  0  0  0  0
  -15.5350  -30.3014   23.7666 H   0  0  0  0  0  0
  -15.8671  -28.0842   22.7097 H   0  0  0  0  0  0
  -24.5870  -30.7140   25.7797 H   0  0  0  0  0  0
  -24.8891  -32.2981   26.4823 H   0  0  0  0  0  0
  -25.7992  -30.9014   27.0265 H   0  0  0  0  0  0
  -26.2944  -29.6749   24.1243 H   0  0  0  0  0  0
  -27.3849  -29.7267   25.4887 H   0  0  0  0  0  0
  -27.8890  -30.4188   23.9648 H   0  0  0  0  0  0
  -27.2605  -33.3656   26.2079 H   0  0  0  0  0  0
  -28.3847  -32.6938   25.0374 H   0  0  0  0  0  0
  -28.0672  -31.8507   26.5459 H   0  0  0  0  0  0
  -28.2607  -38.0089   24.7507 H   0  0  0  0  0  0
  -28.1059  -36.2611   24.6295 H   0  0  0  0  0  0
  -27.2278  -37.1465   25.8862 H   0  0  0  0  0  0
  -20.9317  -29.8678   21.6832 H   0  0  0  0  0  0
  -26.0149  -38.2830   24.1423 H   0  0  0  0  0  0
  -27.4731  -19.4544   21.7319 H   0  0  0  0  0  0
  -31.7123  -17.5010   20.0503 H   0  0  0  0  0  0
  -30.9716  -23.6825   23.3505 H   0  0  0  0  0  0
  -29.2645  -23.3201   23.3623 H   0  0  0  0  0  0
  -30.5966  -21.2766   22.9617 H   0  0  0  0  0  0
  -31.3630  -22.0031   21.5689 H   0  0  0  0  0  0
  -30.8264  -24.5041   21.0104 H   0  0  0  0  0  0
  -29.7412  -25.3780   22.0614 H   0  0  0  0  0  0
  -28.1041  -22.2382   19.5567 H   0  0  0  0  0  0
  -29.8111  -22.5591   19.4177 H   0  0  0  0  0  0
  -28.3930  -21.5214   21.8977 H   0  0  0  0  0  0
  -27.8387  -23.9916   21.2989 H   0  0  0  0  0  0
  -27.7074  -24.9073   18.9482 H   0  0  0  0  0  0
  -29.3885  -25.2044   18.9784 H   0  0  0  0  0  0
  -28.9149  -15.2172   21.3175 H   0  0  0  0  0  0
  1 25  1  0  0  0
  1 30  2  0  0  0
  1 84  1  0  0  0
  2  3  1  0  0  0
  2 25  1  0  0  0
  2 87  1  0  0  0
  2 88  1  0  0  0
  3  4  1  0  0  0
  3 89  1  0  0  0
  3 90  1  0  0  0
  4  5  1  0  0  0
  4 91  1  0  0  0
  4 92  1  0  0  0
  5  6  1  0  0  0
  5 26  1  0  0  0
  5 93  1  0  0  0
  6 25  1  0  0  0
  6 94  1  0  0  0
  6 95  1  0  0  0
  7  8  2  0  0  0
  7 26  1  0  0  0
  7 29  1  0  0  0
  8  9  1  0  0  0
  8 22  1  0  0  0
  9 10  1  0  0  0
  9 27  2  0  0  0
 10 11  2  0  0  0
 10 15  1  0  0  0
 11 12  1  0  0  0
 11 96  1  0  0  0
 12 13  2  0  0  0
 12 97  1  0  0  0
 13 14  1  0  0  0
 13 31  1  0  0  0
 14 15  2  0  0  0
 14 98  1  0  0  0
 15 99  1  0  0  0
 16 17  2  0  0  0
 16 21  1  0  0  0
 16 31  1  0  0  0
 17 18  1  0  0  0
 17100  1  0  0  0
 18 19  2  0  0  0
 18101  1  0  0  0
 19 20  1  0  0  0
 19 24  1  0  0  0
 20 21  2  0  0  0
 20102  1  0  0  0
 21 23  1  0  0  0
 22 28  1  0  0  0
 22 32  2  0  0  0
 26 27  1  0  0  0
 28103  1  0  0  0
 28104  1  0  0  0
 29105  1  0  0  0
 29106  1  0  0  0
 33 34  1  0  0  0
 33 66  1  0  0  0
 33 70  2  0  0  0
 34 36  1  0  0  0
 34 59  1  0  0  0
 34107  1  0  0  0
 35 44  2  0  0  0
 35 45  1  0  0  0
 35 68  1  0  0  0
 36 56  1  0  0  0
 36108  1  0  0  0
 37 39  1  0  0  0
 37 47  1  0  0  0
 37 66  1  0  0  0
 37109  1  0  0  0
 38 43  2  0  0  0
 38 46  1  0  0  0
 38 47  1  0  0  0
 39 64  1  0  0  0
 39 67  2  0  0  0
 40 52  1  0  0  0
 40 53  2  0  0  0
 40 58  1  0  0  0
 41110  1  0  0  0
 41111  1  0  0  0
 41112  1  0  0  0
 41 48  1  0  0  0
 42 43  1  0  0  0
 42 66  1  0  0  0
 42113  1  0  0  0
 42114  1  0  0  0
 43 44  1  0  0  0
 44115  1  0  0  0
 45 46  2  0  0  0
 45116  1  0  0  0
 46117  1  0  0  0
 47118  1  0  0  0
 47119  1  0  0  0
 48 56  1  0  0  0
 48 65  1  0  0  0
 48120  1  0  0  0
 49 50  1  0  0  0
 49 53  1  0  0  0
 49 64  1  0  0  0
 49121  1  0  0  0
 50 51  1  0  0  0
 50122  1  0  0  0
 50123  1  0  0  0
 51 52  1  0  0  0
 51124  1  0  0  0
 51125  1  0  0  0
 52126  1  0  0  0
 52127  1  0  0  0
 53 54  1  0  0  0
 54 55  2  0  0  0
 54128  1  0  0  0
 55 57  1  0  0  0
 55129  1  0  0  0
 56 69  2  0  0  0
 57 58  2  0  0  0
 57130  1  0  0  0
 58131  1  0  0  0
 59 60  1  0  0  0
 59 61  1  0  0  0
 59 62  1  0  0  0
 60132  1  0  0  0
 60133  1  0  0  0
 60134  1  0  0  0
 61135  1  0  0  0
 61136  1  0  0  0
 61137  1  0  0  0
 62138  1  0  0  0
 62139  1  0  0  0
 62140  1  0  0  0
 63 65  1  0  0  0
 63141  1  0  0  0
 63142  1  0  0  0
 63143  1  0  0  0
 64144  1  0  0  0
 65145  1  0  0  0
 68 83  1  0  0  0
 71 73  2  0  0  0
 71 75  1  0  0  0
 71146  1  0  0  0
 72 74  1  0  0  0
 72 76  2  0  0  0
 72147  1  0  0  0
 73 76  1  0  0  0
 73 81  1  0  0  0
 74 75  2  0  0  0
 74 84  1  0  0  0
 75 85  1  0  0  0
 76 86  1  0  0  0
 77 78  1  0  0  0
 77 79  1  0  0  0
 77148  1  0  0  0
 77149  1  0  0  0
 78 81  1  0  0  0
 78150  1  0  0  0
 78151  1  0  0  0
 79 82  1  0  0  0
 79152  1  0  0  0
 79153  1  0  0  0
 80 81  1  0  0  0
 80 82  1  0  0  0
 80154  1  0  0  0
 80155  1  0  0  0
 81156  1  0  0  0
 82 83  1  0  0  0
 82157  1  0  0  0
 83158  1  0  0  0
 83159  1  0  0  0
 84160  1  0  0  0
M  ISO  4   1 100  68 101  83 101  84 100
M  END
> <chiral flag>
0

> <version>
0

> <s_m_source_file>
/data/baiqing/PycharmProjects/Reinvent-master-3.2/result/LINK_invent/BTK/process_docking_weight1_custom_product_contain_oxygen_bond_distance_aromatic_linkinvent_7_9_3/rearranged_h_0072.sdf

> <i_m_source_file_index>
79

> <r_mmod_Potential_Energy-OPLS-2005>
62.7004814147949

> <r_mmod_Stretch_Energy-OPLS-2005>
71.8018264770508

> <r_mmod_Bend_Energy-OPLS-2005>
159.903579711914

> <r_mmod_Torsional_Energy-OPLS-2005>
230.238739013672

> <r_mmod_Improper_Torsional_Energy-OPLS-2005>
4.9101939201355

> <r_mmod_Van_der_Waal_Energy-OPLS-2005>
145.452453613281

> <r_mmod_Electrostatic_Energy-OPLS-2005>
-397.261108398438

> <r_mmod_Solvation_Energy-OPLS-2005>
-188.96696472168

> <b_mmod_Minimization_Converged-OPLS-2005>
0

> <r_mmod_RMS_Derivative-OPLS-2005>
1.88957107067108

$$$$
79
                    3D
 Structure written by MMmdl.
155164  0  0  1  0            999 V2000
  -30.5998  -14.6942   20.4902 C   0  0  0  0  0  0
  -30.4476  -12.4248   19.4600 C   0  0  0  0  0  0
  -29.5134  -12.5036   18.2310 C   0  0  0  0  0  0
  -28.0385  -12.3311   18.6469 C   0  0  0  0  0  0
  -27.6522  -13.2167   19.8609 C   0  0  2  0  0  0
  -28.6984  -13.0961   20.9918 C   0  0  0  0  0  0
  -25.2562  -13.8162   20.5696 C   0  0  0  0  0  0
  -24.1831  -13.0429   20.9206 C   0  0  0  0  0  0
  -24.6399  -11.6902   20.8750 C   0  0  0  0  0  0
  -23.9069  -10.4287   21.0411 C   0  0  0  0  0  0
  -24.3615   -9.4197   21.9189 C   0  0  0  0  0  0
  -23.6284   -8.2236   22.0757 C   0  0  0  0  0  0
  -22.4268   -8.0278   21.3544 C   0  0  0  0  0  0
  -21.9905   -9.0256   20.4654 C   0  0  0  0  0  0
  -22.7238  -10.2134   20.3062 C   0  0  0  0  0  0
  -21.6848   -6.0734   22.5280 C   0  0  0  0  0  0
  -21.4016   -6.5637   23.8214 C   0  0  0  0  0  0
  -21.3659   -5.6792   24.9176 C   0  0  0  0  0  0
  -21.6040   -4.3055   24.7231 C   0  0  0  0  0  0
  -21.8817   -3.8143   23.4353 C   0  0  0  0  0  0
  -21.9193   -4.6961   22.3404 C   0  0  0  0  0  0
  -22.7851  -13.5228   21.1857 C   0  0  0  0  0  0
  -22.1657   -4.2145   21.0982 F   0  0  0  0  0  0
  -21.5627   -3.4539   25.7741 F   0  0  0  0  0  0
  -30.0083  -13.4551   20.4246 N   0  0  0  0  0  0
  -26.2989  -12.9344   20.3322 N   0  0  0  0  0  0
  -25.9328  -11.6499   20.5768 N   0  0  0  0  0  0
  -22.0482  -12.8239   22.0420 N   0  0  0  0  0  0
  -25.4254  -15.1890   20.4109 N   0  0  0  0  0  0
  -31.7693  -14.8608   20.1302 O   0  0  0  0  0  0
  -21.6626   -6.8878   21.4238 O   0  0  0  0  0  0
  -22.3547  -14.5534   20.6699 O   0  0  0  0  0  0
  -24.6310  -31.8566   23.2024 C   0  0  0  0  0  0
  -25.9141  -32.4763   23.8353 C   0  0  1  0  0  0
  -27.2176  -27.2752   20.1180 C   0  0  0  0  0  0
  -25.5942  -33.8565   24.2272 N   0  0  0  0  0  0
  -23.4263  -30.4829   21.5458 C   0  0  2  0  0  0
  -24.8717  -28.9363   20.1132 C   0  0  0  0  0  0
  -22.7502  -29.4612   22.4923 C   0  0  0  0  0  0
  -18.0294  -28.1389   22.8483 C   0  0  0  0  0  0
  -24.1487  -36.7285   23.2641 C   0  0  0  0  0  0
  -25.9736  -30.7725   21.3830 C   0  0  0  0  0  0
  -26.0448  -29.3977   20.7230 C   0  0  0  0  0  0
  -27.2209  -28.5803   20.7157 C   0  0  0  0  0  0
  -26.0187  -26.8893   19.4720 C   0  0  0  0  0  0
  -24.8632  -27.6889   19.4787 C   0  0  0  0  0  0
  -23.6441  -29.8230   20.1605 C   0  0  0  0  0  0
  -25.4115  -36.3075   24.0324 C   0  0  1  0  0  0
  -20.5899  -28.3697   23.1269 C   0  0  2  0  0  0
  -20.6783  -26.9419   22.5403 C   0  0  0  0  0  0
  -19.5755  -26.6386   21.5208 C   0  0  0  0  0  0
  -18.1936  -26.7930   22.1626 C   0  0  0  0  0  0
  -19.1546  -28.8861   23.2870 C   0  0  0  0  0  0
  -18.9469  -30.1463   23.8887 C   0  0  0  0  0  0
  -17.6467  -30.6590   24.0561 C   0  0  0  0  0  0
  -25.9056  -34.9444   23.5097 C   0  0  0  0  0  0
  -16.5358  -29.9087   23.6332 C   0  0  0  0  0  0
  -16.7280  -28.6506   23.0351 C   0  0  0  0  0  0
  -26.4515  -31.6590   25.0737 C   0  0  0  0  0  0
  -25.3738  -31.3738   26.1456 C   0  0  0  0  0  0
  -27.0373  -30.3010   24.6228 C   0  0  0  0  0  0
  -27.6064  -32.4343   25.7503 C   0  0  0  0  0  0
  -27.5576  -37.1801   24.8469 C   0  0  0  0  0  0
  -21.4214  -29.3045   22.3663 N   0  0  0  0  0  0
  -26.4291  -37.3772   23.9407 N   0  0  0  0  0  0
  -24.6959  -31.0544   22.0998 N   0  0  0  0  0  0
  -23.4203  -28.8141   23.3011 O   0  0  0  0  0  0
  -28.3205  -26.3885   20.1529 O   0  0  0  0  0  0
  -26.5624  -34.8917   22.4664 O   0  0  0  0  0  0
  -23.5462  -32.1388   23.7326 O   0  0  0  0  0  0
  -30.3439  -19.5058   21.4385 C   0  0  0  0  0  0
  -30.4813  -18.0804   21.5277 C   0  0  0  0  0  0
  -29.0806  -17.8597   19.6147 C   0  0  0  0  0  0
  -29.5804  -20.1970   20.4446 C   0  0  0  0  0  0
  -29.8452  -17.2010   20.6141 C   0  0  0  0  0  0
  -28.9677  -19.2855   19.5251 C   0  0  0  0  0  0
  -29.4204  -22.7656   21.2764 C   0  0  0  0  0  0
  -28.7888  -22.4254   19.3363 C   0  0  0  0  0  0
  -29.1722  -23.7745   20.0661 C   0  0  2  0  0  0
  -30.4856  -24.4423   19.6472 C   0  0  0  0  0  0
  -28.0519  -24.9108   20.2597 C   0  0  0  0  0  0
  -29.4769  -21.6774   20.3915 N   0  0  0  0  0  0
  -29.7637  -15.7418   20.8075 N   0  0  0  0  0  0
  -29.4833  -22.8197   22.4871 O   0  0  0  0  0  0
  -28.2089  -19.7852   18.5198 F   0  0  0  0  0  0
  -31.4851  -12.5675   19.1525 H   0  0  0  0  0  0
  -30.4044  -11.4347   19.9168 H   0  0  0  0  0  0
  -29.7854  -11.7386   17.5025 H   0  0  0  0  0  0
  -29.6442  -13.4635   17.7292 H   0  0  0  0  0  0
  -27.8924  -11.2803   18.8988 H   0  0  0  0  0  0
  -27.3792  -12.5349   17.8029 H   0  0  0  0  0  0
  -27.6614  -14.2463   19.5031 H   0  0  0  0  0  0
  -28.7250  -12.0777   21.3824 H   0  0  0  0  0  0
  -28.4361  -13.7330   21.8382 H   0  0  0  0  0  0
  -25.2755   -9.5667   22.4769 H   0  0  0  0  0  0
  -23.9984   -7.4627   22.7480 H   0  0  0  0  0  0
  -21.0830   -8.8784   19.8965 H   0  0  0  0  0  0
  -22.3692  -10.9678   19.6178 H   0  0  0  0  0  0
  -21.2006   -7.6148   23.9719 H   0  0  0  0  0  0
  -21.1481   -6.0522   25.9082 H   0  0  0  0  0  0
  -22.0596   -2.7606   23.2854 H   0  0  0  0  0  0
  -22.4079  -11.9902   22.4823 H   0  0  0  0  0  0
  -21.1109  -13.1291   22.2624 H   0  0  0  0  0  0
  -24.6538  -15.8381   20.5215 H   0  0  0  0  0  0
  -26.2664  -15.6320   20.0643 H   0  0  0  0  0  0
  -26.7203  -32.5420   23.1089 H   0  0  0  0  0  0
  -25.0091  -33.9698   25.0420 H   0  0  0  0  0  0
  -22.7228  -31.3058   21.4037 H   0  0  0  0  0  0
  -23.3745  -35.9623   23.3312 H   0  0  0  0  0  0
  -24.3576  -36.8899   22.2055 H   0  0  0  0  0  0
  -23.7247  -37.6491   23.6660 H   0  0  0  0  0  0
  -26.1161  -31.5354   20.6163 H   0  0  0  0  0  0
  -26.8499  -30.8165   22.0185 H   0  0  0  0  0  0
  -28.1188  -28.9302   21.2052 H   0  0  0  0  0  0
  -25.9268  -25.9597   18.9350 H   0  0  0  0  0  0
  -23.9686  -27.3350   18.9844 H   0  0  0  0  0  0
  -23.7723  -30.6023   19.4080 H   0  0  0  0  0  0
  -22.7622  -29.2588   19.8516 H   0  0  0  0  0  0
  -25.1300  -36.1921   25.0815 H   0  0  0  0  0  0
  -20.9986  -28.3266   24.1392 H   0  0  0  0  0  0
  -20.5687  -26.2305   23.3603 H   0  0  0  0  0  0
  -21.6649  -26.7442   22.1194 H   0  0  0  0  0  0
  -19.6914  -25.6294   21.1244 H   0  0  0  0  0  0
  -19.6692  -27.3189   20.6731 H   0  0  0  0  0  0
  -17.4206  -26.6670   21.4031 H   0  0  0  0  0  0
  -18.0344  -26.0073   22.9026 H   0  0  0  0  0  0
  -19.7946  -30.7280   24.2248 H   0  0  0  0  0  0
  -17.5023  -31.6267   24.5169 H   0  0  0  0  0  0
  -15.5357  -30.2986   23.7661 H   0  0  0  0  0  0
  -15.8681  -28.0820   22.7067 H   0  0  0  0  0  0
  -24.5897  -30.7109   25.7779 H   0  0  0  0  0  0
  -24.8952  -32.2910   26.4896 H   0  0  0  0  0  0
  -25.8050  -30.8895   27.0226 H   0  0  0  0  0  0
  -26.2964  -29.6746   24.1245 H   0  0  0  0  0  0
  -27.4053  -29.7286   25.4754 H   0  0  0  0  0  0
  -27.8842  -30.4292   23.9480 H   0  0  0  0  0  0
  -27.2660  -33.3638   26.2078 H   0  0  0  0  0  0
  -28.3867  -32.6918   25.0329 H   0  0  0  0  0  0
  -28.0743  -31.8479   26.5422 H   0  0  0  0  0  0
  -28.2607  -38.0087   24.7500 H   0  0  0  0  0  0
  -28.1058  -36.2617   24.6312 H   0  0  0  0  0  0
  -27.2291  -37.1471   25.8873 H   0  0  0  0  0  0
  -20.9399  -29.8771   21.6872 H   0  0  0  0  0  0
  -26.0168  -38.2844   24.1407 H   0  0  0  0  0  0
  -30.8532  -20.0973   22.1858 H   0  0  0  0  0  0
  -31.0557  -17.6665   22.3451 H   0  0  0  0  0  0
  -28.5345  -17.2654   18.8973 H   0  0  0  0  0  0
  -29.2351  -22.3031   18.3480 H   0  0  0  0  0  0
  -27.7142  -22.2261   19.3141 H   0  0  0  0  0  0
  -31.2956  -23.7203   19.5338 H   0  0  0  0  0  0
  -30.8081  -25.1815   20.3816 H   0  0  0  0  0  0
  -30.3762  -24.9554   18.6920 H   0  0  0  0  0  0
  -27.5669  -24.7653   21.2262 H   0  0  0  0  0  0
  -27.2922  -24.6377   19.5362 H   0  0  0  0  0  0
  -28.8390  -15.4114   21.0379 H   0  0  0  0  0  0
  1 25  1  0  0  0
  1 30  2  0  0  0
  1 83  1  0  0  0
  2  3  1  0  0  0
  2 25  1  0  0  0
  2 86  1  0  0  0
  2 87  1  0  0  0
  3  4  1  0  0  0
  3 88  1  0  0  0
  3 89  1  0  0  0
  4  5  1  0  0  0
  4 90  1  0  0  0
  4 91  1  0  0  0
  5  6  1  0  0  0
  5 26  1  0  0  0
  5 92  1  0  0  0
  6 25  1  0  0  0
  6 93  1  0  0  0
  6 94  1  0  0  0
  7  8  2  0  0  0
  7 26  1  0  0  0
  7 29  1  0  0  0
  8  9  1  0  0  0
  8 22  1  0  0  0
  9 10  1  0  0  0
  9 27  2  0  0  0
 10 11  2  0  0  0
 10 15  1  0  0  0
 11 12  1  0  0  0
 11 95  1  0  0  0
 12 13  2  0  0  0
 12 96  1  0  0  0
 13 14  1  0  0  0
 13 31  1  0  0  0
 14 15  2  0  0  0
 14 97  1  0  0  0
 15 98  1  0  0  0
 16 17  2  0  0  0
 16 21  1  0  0  0
 16 31  1  0  0  0
 17 18  1  0  0  0
 17 99  1  0  0  0
 18 19  2  0  0  0
 18100  1  0  0  0
 19 20  1  0  0  0
 19 24  1  0  0  0
 20 21  2  0  0  0
 20101  1  0  0  0
 21 23  1  0  0  0
 22 28  1  0  0  0
 22 32  2  0  0  0
 26 27  1  0  0  0
 28102  1  0  0  0
 28103  1  0  0  0
 29104  1  0  0  0
 29105  1  0  0  0
 33 34  1  0  0  0
 33 66  1  0  0  0
 33 70  2  0  0  0
 34 36  1  0  0  0
 34 59  1  0  0  0
 34106  1  0  0  0
 35 44  2  0  0  0
 35 45  1  0  0  0
 35 68  1  0  0  0
 36 56  1  0  0  0
 36107  1  0  0  0
 37 39  1  0  0  0
 37 47  1  0  0  0
 37 66  1  0  0  0
 37108  1  0  0  0
 38 43  2  0  0  0
 38 46  1  0  0  0
 38 47  1  0  0  0
 39 64  1  0  0  0
 39 67  2  0  0  0
 40 52  1  0  0  0
 40 53  2  0  0  0
 40 58  1  0  0  0
 41109  1  0  0  0
 41110  1  0  0  0
 41111  1  0  0  0
 41 48  1  0  0  0
 42 43  1  0  0  0
 42 66  1  0  0  0
 42112  1  0  0  0
 42113  1  0  0  0
 43 44  1  0  0  0
 44114  1  0  0  0
 45 46  2  0  0  0
 45115  1  0  0  0
 46116  1  0  0  0
 47117  1  0  0  0
 47118  1  0  0  0
 48 56  1  0  0  0
 48 65  1  0  0  0
 48119  1  0  0  0
 49 50  1  0  0  0
 49 53  1  0  0  0
 49 64  1  0  0  0
 49120  1  0  0  0
 50 51  1  0  0  0
 50121  1  0  0  0
 50122  1  0  0  0
 51 52  1  0  0  0
 51123  1  0  0  0
 51124  1  0  0  0
 52125  1  0  0  0
 52126  1  0  0  0
 53 54  1  0  0  0
 54 55  2  0  0  0
 54127  1  0  0  0
 55 57  1  0  0  0
 55128  1  0  0  0
 56 69  2  0  0  0
 57 58  2  0  0  0
 57129  1  0  0  0
 58130  1  0  0  0
 59 60  1  0  0  0
 59 61  1  0  0  0
 59 62  1  0  0  0
 60131  1  0  0  0
 60132  1  0  0  0
 60133  1  0  0  0
 61134  1  0  0  0
 61135  1  0  0  0
 61136  1  0  0  0
 62137  1  0  0  0
 62138  1  0  0  0
 62139  1  0  0  0
 63 65  1  0  0  0
 63140  1  0  0  0
 63141  1  0  0  0
 63142  1  0  0  0
 64143  1  0  0  0
 65144  1  0  0  0
 68 81  1  0  0  0
 71 72  2  0  0  0
 71 74  1  0  0  0
 71145  1  0  0  0
 72 75  1  0  0  0
 72146  1  0  0  0
 73 75  2  0  0  0
 73 76  1  0  0  0
 73147  1  0  0  0
 74 76  2  0  0  0
 74 82  1  0  0  0
 75 83  1  0  0  0
 76 85  1  0  0  0
 77 79  1  0  0  0
 77 82  1  0  0  0
 77 84  2  0  0  0
 78 79  1  0  0  0
 78 82  1  0  0  0
 78148  1  0  0  0
 78149  1  0  0  0
 79 80  1  0  0  0
 79 81  1  0  0  0
 80150  1  0  0  0
 80151  1  0  0  0
 80152  1  0  0  0
 81153  1  0  0  0
 81154  1  0  0  0
 83155  1  0  0  0
M  ISO  4   1 100  68 101  81 101  83 100
M  END
> <chiral flag>
0

> <version>
0

> <s_m_source_file>
/data/baiqing/PycharmProjects/Reinvent-master-3.2/result/LINK_invent/BTK/process_docking_weight1_custom_product_contain_oxygen_bond_distance_aromatic_linkinvent_7_9_3/rearranged_h_0072.sdf

> <i_m_source_file_index>
80

> <r_mmod_Potential_Energy-OPLS-2005>
167.259063720703

> <r_mmod_Stretch_Energy-OPLS-2005>
100.854057312012

> <r_mmod_Bend_Energy-OPLS-2005>
184.273406982422

> <r_mmod_Torsional_Energy-OPLS-2005>
270.920806884766

> <r_mmod_Improper_Torsional_Energy-OPLS-2005>
7.50788450241089

> <r_mmod_Van_der_Waal_Energy-OPLS-2005>
141.765289306641

> <r_mmod_Electrostatic_Energy-OPLS-2005>
-387.652191162109

> <r_mmod_Solvation_Energy-OPLS-2005>
-219.694869995117

> <b_mmod_Minimization_Converged-OPLS-2005>
0

> <r_mmod_RMS_Derivative-OPLS-2005>
0.991704761981964

$$$$
80
                    3D
 Structure written by MMmdl.
160169  0  0  1  0            999 V2000
  -30.6147  -14.7565   20.4657 C   0  0  0  0  0  0
  -30.4321  -12.4396   19.4826 C   0  0  0  0  0  0
  -29.5146  -12.4996   18.2410 C   0  0  0  0  0  0
  -28.0371  -12.3269   18.6469 C   0  0  0  0  0  0
  -27.6346  -13.2342   19.8406 C   0  0  2  0  0  0
  -28.6634  -13.1777   20.9838 C   0  0  0  0  0  0
  -25.2486  -13.8208   20.5667 C   0  0  0  0  0  0
  -24.1781  -13.0447   20.9176 C   0  0  0  0  0  0
  -24.6375  -11.6924   20.8724 C   0  0  0  0  0  0
  -23.9065  -10.4298   21.0400 C   0  0  0  0  0  0
  -24.3624   -9.4217   21.9179 C   0  0  0  0  0  0
  -23.6299   -8.2251   22.0752 C   0  0  0  0  0  0
  -22.4283   -8.0283   21.3543 C   0  0  0  0  0  0
  -21.9910   -9.0253   20.4645 C   0  0  0  0  0  0
  -22.7236  -10.2135   20.3054 C   0  0  0  0  0  0
  -21.6857   -6.0740   22.5281 C   0  0  0  0  0  0
  -21.4016   -6.5642   23.8213 C   0  0  0  0  0  0
  -21.3659   -5.6794   24.9172 C   0  0  0  0  0  0
  -21.6045   -4.3056   24.7225 C   0  0  0  0  0  0
  -21.8820   -3.8147   23.4347 C   0  0  0  0  0  0
  -21.9195   -4.6965   22.3403 C   0  0  0  0  0  0
  -22.7815  -13.5227   21.1863 C   0  0  0  0  0  0
  -22.1663   -4.2148   21.0982 F   0  0  0  0  0  0
  -21.5627   -3.4544   25.7739 F   0  0  0  0  0  0
  -29.9739  -13.4887   20.4151 N   0  0  0  0  0  0
  -26.2884  -12.9410   20.3192 N   0  0  0  0  0  0
  -25.9295  -11.6549   20.5691 N   0  0  0  0  0  0
  -22.0480  -12.8206   22.0426 N   0  0  0  0  0  0
  -25.4222  -15.1935   20.4152 N   0  0  0  0  0  0
  -31.8018  -14.8944   20.1647 O   0  0  0  0  0  0
  -21.6644   -6.8880   21.4243 O   0  0  0  0  0  0
  -22.3491  -14.5534   20.6717 O   0  0  0  0  0  0
  -24.6321  -31.8549   23.1946 C   0  0  0  0  0  0
  -25.9134  -32.4752   23.8321 C   0  0  1  0  0  0
  -27.2212  -27.2505   20.1381 C   0  0  0  0  0  0
  -25.5917  -33.8552   24.2256 N   0  0  0  0  0  0
  -23.4301  -30.4738   21.5392 C   0  0  2  0  0  0
  -24.8765  -28.9102   20.1177 C   0  0  0  0  0  0
  -22.7504  -29.4603   22.4917 C   0  0  0  0  0  0
  -18.0297  -28.1404   22.8499 C   0  0  0  0  0  0
  -24.1485  -36.7282   23.2643 C   0  0  0  0  0  0
  -25.9752  -30.7621   21.3772 C   0  0  0  0  0  0
  -26.0473  -29.3798   20.7272 C   0  0  0  0  0  0
  -27.2227  -28.5619   20.7252 C   0  0  0  0  0  0
  -26.0282  -26.8423   19.5067 C   0  0  0  0  0  0
  -24.8715  -27.6492   19.4984 C   0  0  0  0  0  0
  -23.6495  -29.8009   20.1587 C   0  0  0  0  0  0
  -25.4115  -36.3073   24.0329 C   0  0  1  0  0  0
  -20.5898  -28.3723   23.1276 C   0  0  2  0  0  0
  -20.6784  -26.9437   22.5416 C   0  0  0  0  0  0
  -19.5751  -26.6395   21.5228 C   0  0  0  0  0  0
  -18.1931  -26.7947   22.1633 C   0  0  0  0  0  0
  -19.1549  -28.8880   23.2889 C   0  0  0  0  0  0
  -18.9472  -30.1476   23.8917 C   0  0  0  0  0  0
  -17.6464  -30.6608   24.0568 C   0  0  0  0  0  0
  -25.9051  -34.9441   23.5104 C   0  0  0  0  0  0
  -16.5360  -29.9102   23.6318 C   0  0  0  0  0  0
  -16.7279  -28.6514   23.0360 C   0  0  0  0  0  0
  -26.4493  -31.6581   25.0719 C   0  0  0  0  0  0
  -25.3700  -31.3752   26.1431 C   0  0  0  0  0  0
  -27.0337  -30.2985   24.6228 C   0  0  0  0  0  0
  -27.6058  -32.4318   25.7489 C   0  0  0  0  0  0
  -27.5583  -37.1800   24.8466 C   0  0  0  0  0  0
  -21.4214  -29.3065   22.3658 N   0  0  0  0  0  0
  -26.4297  -37.3764   23.9404 N   0  0  0  0  0  0
  -24.6984  -31.0497   22.0930 N   0  0  0  0  0  0
  -23.4191  -28.8159   23.3041 O   0  0  0  0  0  0
  -28.3421  -26.3909   20.1236 O   0  0  0  0  0  0
  -26.5634  -34.8918   22.4680 O   0  0  0  0  0  0
  -23.5463  -32.1395   23.7216 O   0  0  0  0  0  0
  -28.3702  -18.9589   20.3589 C   0  0  0  0  0  0
  -27.9497  -20.2799   19.9667 C   0  0  0  0  0  0
  -30.1515  -21.1182   20.3301 C   0  0  0  0  0  0
  -29.7144  -18.6489   20.7123 C   0  0  0  0  0  0
  -30.5797  -19.8002   20.7224 C   0  0  0  0  0  0
  -28.8299  -21.4105   19.8983 C   0  0  0  0  0  0
  -28.5486  -24.0617   19.2022 C   0  0  0  0  0  0
  -28.8299  -24.6172   17.8723 C   0  0  0  0  0  0
  -28.5378  -22.3288   17.7048 C   0  0  0  0  0  0
  -28.2552  -24.9604   20.2185 C   0  0  0  0  0  0
  -28.6894  -23.5534   16.8226 C   0  0  0  0  0  0
  -32.0343  -19.6474   21.1378 C   0  0  0  0  0  0
  -29.9997  -17.1339   22.7523 C   0  0  0  0  0  0
  -30.2265  -17.2099   21.2337 C   0  0  1  0  0  0
  -28.5298  -22.5991   19.0399 N   0  0  0  0  0  0
  -29.1343  -25.7788   17.5779 O   0  0  0  0  0  0
  -28.4340  -21.2127   17.1781 O   0  0  0  0  0  0
  -29.7337  -15.8941   20.7309 O   0  0  0  0  0  0
  -31.4750  -12.5778   19.1915 H   0  0  0  0  0  0
  -30.3755  -11.4606   19.9604 H   0  0  0  0  0  0
  -29.7976  -11.7270   17.5250 H   0  0  0  0  0  0
  -29.6454  -13.4552   17.7300 H   0  0  0  0  0  0
  -27.8907  -11.2796   18.9131 H   0  0  0  0  0  0
  -27.3855  -12.5145   17.7927 H   0  0  0  0  0  0
  -27.6309  -14.2548   19.4574 H   0  0  0  0  0  0
  -28.6793  -12.1898   21.4458 H   0  0  0  0  0  0
  -28.4038  -13.8865   21.7719 H   0  0  0  0  0  0
  -25.2774   -9.5696   22.4745 H   0  0  0  0  0  0
  -24.0015   -7.4645   22.7471 H   0  0  0  0  0  0
  -21.0842   -8.8767   19.8952 H   0  0  0  0  0  0
  -22.3691  -10.9671   19.6162 H   0  0  0  0  0  0
  -21.2005   -7.6152   23.9715 H   0  0  0  0  0  0
  -21.1481   -6.0524   25.9074 H   0  0  0  0  0  0
  -22.0600   -2.7608   23.2849 H   0  0  0  0  0  0
  -22.4116  -11.9866   22.4796 H   0  0  0  0  0  0
  -21.1099  -13.1216   22.2651 H   0  0  0  0  0  0
  -24.6660  -15.8568   20.5415 H   0  0  0  0  0  0
  -26.2906  -15.6293   20.1287 H   0  0  0  0  0  0
  -26.7212  -32.5412   23.1079 H   0  0  0  0  0  0
  -25.0042  -33.9677   25.0387 H   0  0  0  0  0  0
  -22.7291  -31.2968   21.3875 H   0  0  0  0  0  0
  -23.3741  -35.9620   23.3334 H   0  0  0  0  0  0
  -24.3568  -36.8858   22.2047 H   0  0  0  0  0  0
  -23.7236  -37.6496   23.6646 H   0  0  0  0  0  0
  -26.1136  -31.5176   20.6030 H   0  0  0  0  0  0
  -26.8528  -30.8150   22.0102 H   0  0  0  0  0  0
  -28.1280  -28.9172   21.1978 H   0  0  0  0  0  0
  -25.9822  -25.8761   19.0257 H   0  0  0  0  0  0
  -23.9748  -27.2849   19.0154 H   0  0  0  0  0  0
  -23.7778  -30.5732   19.3992 H   0  0  0  0  0  0
  -22.7670  -29.2351   19.8530 H   0  0  0  0  0  0
  -25.1288  -36.1936   25.0818 H   0  0  0  0  0  0
  -21.0007  -28.3315   24.1390 H   0  0  0  0  0  0
  -20.5694  -26.2334   23.3624 H   0  0  0  0  0  0
  -21.6648  -26.7457   22.1212 H   0  0  0  0  0  0
  -19.6910  -25.6306   21.1251 H   0  0  0  0  0  0
  -19.6682  -27.3211   20.6767 H   0  0  0  0  0  0
  -17.4199  -26.6720   21.4034 H   0  0  0  0  0  0
  -18.0329  -26.0090   22.9029 H   0  0  0  0  0  0
  -19.7944  -30.7292   24.2301 H   0  0  0  0  0  0
  -17.5012  -31.6274   24.5184 H   0  0  0  0  0  0
  -15.5359  -30.3004   23.7634 H   0  0  0  0  0  0
  -15.8685  -28.0818   22.7086 H   0  0  0  0  0  0
  -24.5886  -30.7084   25.7767 H   0  0  0  0  0  0
  -24.8877  -32.2923   26.4824 H   0  0  0  0  0  0
  -25.7987  -30.8956   27.0234 H   0  0  0  0  0  0
  -26.2931  -29.6736   24.1217 H   0  0  0  0  0  0
  -27.3964  -29.7248   25.4769 H   0  0  0  0  0  0
  -27.8832  -30.4244   23.9509 H   0  0  0  0  0  0
  -27.2678  -33.3613   26.2086 H   0  0  0  0  0  0
  -28.3860  -32.6874   25.0306 H   0  0  0  0  0  0
  -28.0748  -31.8428   26.5382 H   0  0  0  0  0  0
  -28.2617  -38.0086   24.7495 H   0  0  0  0  0  0
  -28.1058  -36.2610   24.6312 H   0  0  0  0  0  0
  -27.2298  -37.1479   25.8871 H   0  0  0  0  0  0
  -20.9414  -29.8737   21.6810 H   0  0  0  0  0  0
  -26.0180  -38.2841   24.1390 H   0  0  0  0  0  0
  -27.6406  -18.1611   20.3636 H   0  0  0  0  0  0
  -26.9337  -20.3982   19.6162 H   0  0  0  0  0  0
  -30.8872  -21.9088   20.2673 H   0  0  0  0  0  0
  -27.9662  -24.6442   21.2108 H   0  0  0  0  0  0
  -29.5804  -23.4852   16.1997 H   0  0  0  0  0  0
  -27.8076  -23.7129   16.2043 H   0  0  0  0  0  0
  -32.5665  -20.5982   21.1027 H   0  0  0  0  0  0
  -32.5556  -18.9570   20.4744 H   0  0  0  0  0  0
  -32.1125  -19.2729   22.1580 H   0  0  0  0  0  0
  -30.4623  -17.9746   23.2678 H   0  0  0  0  0  0
  -30.4200  -16.2219   23.1761 H   0  0  0  0  0  0
  -28.9360  -17.1487   22.9913 H   0  0  0  0  0  0
  -31.3023  -17.1992   21.0664 H   0  0  0  0  0  0
  1 25  1  0  0  0
  1 30  2  0  0  0
  1 88  1  0  0  0
  2  3  1  0  0  0
  2 25  1  0  0  0
  2 89  1  0  0  0
  2 90  1  0  0  0
  3  4  1  0  0  0
  3 91  1  0  0  0
  3 92  1  0  0  0
  4  5  1  0  0  0
  4 93  1  0  0  0
  4 94  1  0  0  0
  5  6  1  0  0  0
  5 26  1  0  0  0
  5 95  1  0  0  0
  6 25  1  0  0  0
  6 96  1  0  0  0
  6 97  1  0  0  0
  7  8  2  0  0  0
  7 26  1  0  0  0
  7 29  1  0  0  0
  8  9  1  0  0  0
  8 22  1  0  0  0
  9 10  1  0  0  0
  9 27  2  0  0  0
 10 11  2  0  0  0
 10 15  1  0  0  0
 11 12  1  0  0  0
 11 98  1  0  0  0
 12 13  2  0  0  0
 12 99  1  0  0  0
 13 14  1  0  0  0
 13 31  1  0  0  0
 14 15  2  0  0  0
 14100  1  0  0  0
 15101  1  0  0  0
 16 17  2  0  0  0
 16 21  1  0  0  0
 16 31  1  0  0  0
 17 18  1  0  0  0
 17102  1  0  0  0
 18 19  2  0  0  0
 18103  1  0  0  0
 19 20  1  0  0  0
 19 24  1  0  0  0
 20 21  2  0  0  0
 20104  1  0  0  0
 21 23  1  0  0  0
 22 28  1  0  0  0
 22 32  2  0  0  0
 26 27  1  0  0  0
 28105  1  0  0  0
 28106  1  0  0  0
 29107  1  0  0  0
 29108  1  0  0  0
 33 34  1  0  0  0
 33 66  1  0  0  0
 33 70  2  0  0  0
 34 36  1  0  0  0
 34 59  1  0  0  0
 34109  1  0  0  0
 35 44  2  0  0  0
 35 45  1  0  0  0
 35 68  1  0  0  0
 36 56  1  0  0  0
 36110  1  0  0  0
 37 39  1  0  0  0
 37 47  1  0  0  0
 37 66  1  0  0  0
 37111  1  0  0  0
 38 43  2  0  0  0
 38 46  1  0  0  0
 38 47  1  0  0  0
 39 64  1  0  0  0
 39 67  2  0  0  0
 40 52  1  0  0  0
 40 53  2  0  0  0
 40 58  1  0  0  0
 41112  1  0  0  0
 41113  1  0  0  0
 41114  1  0  0  0
 41 48  1  0  0  0
 42 43  1  0  0  0
 42 66  1  0  0  0
 42115  1  0  0  0
 42116  1  0  0  0
 43 44  1  0  0  0
 44117  1  0  0  0
 45 46  2  0  0  0
 45118  1  0  0  0
 46119  1  0  0  0
 47120  1  0  0  0
 47121  1  0  0  0
 48 56  1  0  0  0
 48 65  1  0  0  0
 48122  1  0  0  0
 49 50  1  0  0  0
 49 53  1  0  0  0
 49 64  1  0  0  0
 49123  1  0  0  0
 50 51  1  0  0  0
 50124  1  0  0  0
 50125  1  0  0  0
 51 52  1  0  0  0
 51126  1  0  0  0
 51127  1  0  0  0
 52128  1  0  0  0
 52129  1  0  0  0
 53 54  1  0  0  0
 54 55  2  0  0  0
 54130  1  0  0  0
 55 57  1  0  0  0
 55131  1  0  0  0
 56 69  2  0  0  0
 57 58  2  0  0  0
 57132  1  0  0  0
 58133  1  0  0  0
 59 60  1  0  0  0
 59 61  1  0  0  0
 59 62  1  0  0  0
 60134  1  0  0  0
 60135  1  0  0  0
 60136  1  0  0  0
 61137  1  0  0  0
 61138  1  0  0  0
 61139  1  0  0  0
 62140  1  0  0  0
 62141  1  0  0  0
 62142  1  0  0  0
 63 65  1  0  0  0
 63143  1  0  0  0
 63144  1  0  0  0
 63145  1  0  0  0
 64146  1  0  0  0
 65147  1  0  0  0
 68 80  1  0  0  0
 71 72  2  0  0  0
 71 74  1  0  0  0
 71148  1  0  0  0
 72 76  1  0  0  0
 72149  1  0  0  0
 73 75  1  0  0  0
 73 76  2  0  0  0
 73150  1  0  0  0
 74 75  2  0  0  0
 74 84  1  0  0  0
 75 82  1  0  0  0
 76 85  1  0  0  0
 77 78  1  0  0  0
 77 80  2  0  0  0
 77 85  1  0  0  0
 78 81  1  0  0  0
 78 86  2  0  0  0
 79 81  1  0  0  0
 79 85  1  0  0  0
 79 87  2  0  0  0
 80151  1  0  0  0
 81152  1  0  0  0
 81153  1  0  0  0
 82154  1  0  0  0
 82155  1  0  0  0
 82156  1  0  0  0
 83157  1  0  0  0
 83158  1  0  0  0
 83159  1  0  0  0
 83 84  1  0  0  0
 84 88  1  0  0  0
 84160  1  0  0  0
M  ISO  4   1 100  68 101  80 101  88 100
M  END
> <chiral flag>
0

> <version>
0

> <s_m_source_file>
/data/baiqing/PycharmProjects/Reinvent-master-3.2/result/LINK_invent/BTK/process_docking_weight1_custom_product_contain_oxygen_bond_distance_aromatic_linkinvent_7_9_3/rearranged_h_0072.sdf

> <i_m_source_file_index>
81

> <r_mmod_Potential_Energy-OPLS-2005>
339.832061767578

> <r_mmod_Stretch_Energy-OPLS-2005>
139.511703491211

> <r_mmod_Bend_Energy-OPLS-2005>
242.885147094727

> <r_mmod_Torsional_Energy-OPLS-2005>
270.354370117188

> <r_mmod_Improper_Torsional_Energy-OPLS-2005>
9.13791465759277

> <r_mmod_Van_der_Waal_Energy-OPLS-2005>
131.819091796875

> <r_mmod_Electrostatic_Energy-OPLS-2005>
-318.612121582031

> <r_mmod_Solvation_Energy-OPLS-2005>
-220.747116088867

> <b_mmod_Minimization_Converged-OPLS-2005>
0

> <r_mmod_RMS_Derivative-OPLS-2005>
1.61496329307556

$$$$
81
                    3D
 Structure written by MMmdl.
164173  0  0  1  0            999 V2000
  -30.6697  -14.7655   20.4256 C   0  0  0  0  0  0
  -30.4159  -12.4648   19.4766 C   0  0  0  0  0  0
  -29.5018  -12.5081   18.2355 C   0  0  0  0  0  0
  -28.0306  -12.3401   18.6528 C   0  0  0  0  0  0
  -27.6383  -13.2475   19.8500 C   0  0  2  0  0  0
  -28.6912  -13.2319   20.9810 C   0  0  0  0  0  0
  -25.2500  -13.8223   20.5747 C   0  0  0  0  0  0
  -24.1809  -13.0445   20.9243 C   0  0  0  0  0  0
  -24.6428  -11.6931   20.8765 C   0  0  0  0  0  0
  -23.9097  -10.4299   21.0394 C   0  0  0  0  0  0
  -24.3649   -9.4213   21.9182 C   0  0  0  0  0  0
  -23.6328   -8.2249   22.0742 C   0  0  0  0  0  0
  -22.4301   -8.0284   21.3535 C   0  0  0  0  0  0
  -21.9944   -9.0256   20.4638 C   0  0  0  0  0  0
  -22.7270  -10.2141   20.3054 C   0  0  0  0  0  0
  -21.6873   -6.0744   22.5278 C   0  0  0  0  0  0
  -21.4016   -6.5646   23.8211 C   0  0  0  0  0  0
  -21.3663   -5.6799   24.9176 C   0  0  0  0  0  0
  -21.6052   -4.3064   24.7229 C   0  0  0  0  0  0
  -21.8820   -3.8161   23.4345 C   0  0  0  0  0  0
  -21.9198   -4.6969   22.3400 C   0  0  0  0  0  0
  -22.7826  -13.5215   21.1905 C   0  0  0  0  0  0
  -22.1669   -4.2160   21.0975 F   0  0  0  0  0  0
  -21.5631   -3.4541   25.7740 F   0  0  0  0  0  0
  -29.9891  -13.5630   20.3795 N   0  0  0  0  0  0
  -26.2949  -12.9462   20.3351 N   0  0  0  0  0  0
  -25.9369  -11.6590   20.5802 N   0  0  0  0  0  0
  -22.0506  -12.8156   22.0445 N   0  0  0  0  0  0
  -25.4190  -15.1942   20.4149 N   0  0  0  0  0  0
  -31.8627  -14.7583   20.1229 O   0  0  0  0  0  0
  -21.6663   -6.8878   21.4238 O   0  0  0  0  0  0
  -22.3494  -14.5531   20.6776 O   0  0  0  0  0  0
  -24.6330  -31.8540   23.1985 C   0  0  0  0  0  0
  -25.9158  -32.4756   23.8349 C   0  0  1  0  0  0
  -27.2202  -27.2636   20.1346 C   0  0  0  0  0  0
  -25.5961  -33.8564   24.2293 N   0  0  0  0  0  0
  -23.4282  -30.4756   21.5424 C   0  0  2  0  0  0
  -24.8723  -28.9141   20.1163 C   0  0  0  0  0  0
  -22.7488  -29.4608   22.4939 C   0  0  0  0  0  0
  -18.0287  -28.1407   22.8501 C   0  0  0  0  0  0
  -24.1475  -36.7258   23.2646 C   0  0  0  0  0  0
  -25.9716  -30.7710   21.3711 C   0  0  0  0  0  0
  -26.0456  -29.3896   20.7191 C   0  0  0  0  0  0
  -27.2262  -28.5789   20.7091 C   0  0  0  0  0  0
  -26.0256  -26.8463   19.5144 C   0  0  0  0  0  0
  -24.8669  -27.6488   19.5044 C   0  0  0  0  0  0
  -23.6436  -29.8025   20.1612 C   0  0  0  0  0  0
  -25.4098  -36.3075   24.0355 C   0  0  1  0  0  0
  -20.5883  -28.3712   23.1280 C   0  0  2  0  0  0
  -20.6766  -26.9429   22.5418 C   0  0  0  0  0  0
  -19.5731  -26.6390   21.5228 C   0  0  0  0  0  0
  -18.1912  -26.7952   22.1630 C   0  0  0  0  0  0
  -19.1539  -28.8876   23.2885 C   0  0  0  0  0  0
  -18.9471  -30.1478   23.8908 C   0  0  0  0  0  0
  -17.6467  -30.6611   24.0574 C   0  0  0  0  0  0
  -25.9050  -34.9446   23.5120 C   0  0  0  0  0  0
  -16.5363  -29.9109   23.6352 C   0  0  0  0  0  0
  -16.7275  -28.6519   23.0385 C   0  0  0  0  0  0
  -26.4518  -31.6591   25.0749 C   0  0  0  0  0  0
  -25.3750  -31.3758   26.1484 C   0  0  0  0  0  0
  -27.0370  -30.3009   24.6246 C   0  0  0  0  0  0
  -27.6094  -32.4320   25.7494 C   0  0  0  0  0  0
  -27.5579  -37.1767   24.8468 C   0  0  0  0  0  0
  -21.4197  -29.3060   22.3669 N   0  0  0  0  0  0
  -26.4257  -37.3792   23.9471 N   0  0  0  0  0  0
  -24.6978  -31.0491   22.0958 N   0  0  0  0  0  0
  -23.4167  -28.8157   23.3058 O   0  0  0  0  0  0
  -28.3202  -26.3792   20.1356 O   0  0  0  0  0  0
  -26.5591  -34.8929   22.4671 O   0  0  0  0  0  0
  -23.5477  -32.1380   23.7274 O   0  0  0  0  0  0
  -31.4092  -20.1205   20.2370 C   0  0  0  0  0  0
  -31.8085  -17.7140   20.4482 C   0  0  0  0  0  0
  -29.5376  -18.5726   20.3871 C   0  0  0  0  0  0
  -32.3007  -19.0308   20.3101 C   0  0  0  0  0  0
  -30.0042  -19.9610   20.2897 C   0  0  0  0  0  0
  -30.4222  -17.4060   20.4700 C   0  0  0  0  0  0
  -29.4860  -22.5283   20.4505 C   0  0  0  0  0  0
  -27.2686  -22.6524   19.7035 C   0  0  0  0  0  0
  -27.8363  -21.2085   19.5633 C   0  0  0  0  0  0
  -28.4696  -23.6028   19.8926 C   0  0  1  0  0  0
  -34.3339  -20.1449   21.3770 C   0  0  0  0  0  0
  -34.2265  -19.8691   18.8637 C   0  0  0  0  0  0
  -28.1523  -24.9892   20.6931 C   0  0  0  0  0  0
  -33.8109  -19.2745   20.2213 C   0  0  0  0  0  0
  -29.1656  -21.2050   20.1729 N   0  0  0  0  0  0
  -29.9740  -15.9717   20.5820 N   0  0  0  0  0  0
  -30.4703  -22.8906   21.1019 O   0  0  0  0  0  0
  -31.4596  -12.5504   19.1725 H   0  0  0  0  0  0
  -30.3339  -11.5005   19.9814 H   0  0  0  0  0  0
  -29.7780  -11.7240   17.5292 H   0  0  0  0  0  0
  -29.6307  -13.4555   17.7098 H   0  0  0  0  0  0
  -27.8890  -11.2924   18.9203 H   0  0  0  0  0  0
  -27.3708  -12.5283   17.8051 H   0  0  0  0  0  0
  -27.6164  -14.2622   19.4517 H   0  0  0  0  0  0
  -28.7291  -12.2590   21.4729 H   0  0  0  0  0  0
  -28.4325  -13.9583   21.7535 H   0  0  0  0  0  0
  -25.2786   -9.5690   22.4763 H   0  0  0  0  0  0
  -24.0048   -7.4631   22.7445 H   0  0  0  0  0  0
  -21.0885   -8.8766   19.8936 H   0  0  0  0  0  0
  -22.3725  -10.9679   19.6164 H   0  0  0  0  0  0
  -21.1996   -7.6151   23.9717 H   0  0  0  0  0  0
  -21.1488   -6.0531   25.9076 H   0  0  0  0  0  0
  -22.0593   -2.7622   23.2853 H   0  0  0  0  0  0
  -22.4167  -11.9805   22.4769 H   0  0  0  0  0  0
  -21.1116  -13.1141   22.2673 H   0  0  0  0  0  0
  -24.6546  -15.8517   20.5216 H   0  0  0  0  0  0
  -26.2664  -15.6310   20.0758 H   0  0  0  0  0  0
  -26.7239  -32.5396   23.1106 H   0  0  0  0  0  0
  -25.0217  -33.9725   25.0508 H   0  0  0  0  0  0
  -22.7295  -31.3009   21.3919 H   0  0  0  0  0  0
  -23.3789  -35.9530   23.3245 H   0  0  0  0  0  0
  -24.3589  -36.8933   22.2075 H   0  0  0  0  0  0
  -23.7158  -37.6418   23.6692 H   0  0  0  0  0  0
  -26.1005  -31.5302   20.5983 H   0  0  0  0  0  0
  -26.8545  -30.8285   21.9965 H   0  0  0  0  0  0
  -28.1275  -28.9410   21.1840 H   0  0  0  0  0  0
  -25.9818  -25.8730   19.0456 H   0  0  0  0  0  0
  -23.9645  -27.2753   19.0391 H   0  0  0  0  0  0
  -23.7708  -30.5778   19.4052 H   0  0  0  0  0  0
  -22.7596  -29.2374   19.8578 H   0  0  0  0  0  0
  -25.1264  -36.1913   25.0843 H   0  0  0  0  0  0
  -20.9988  -28.3307   24.1393 H   0  0  0  0  0  0
  -20.5676  -26.2341   23.3647 H   0  0  0  0  0  0
  -21.6637  -26.7448   22.1194 H   0  0  0  0  0  0
  -19.6909  -25.6301   21.1262 H   0  0  0  0  0  0
  -19.6671  -27.3195   20.6754 H   0  0  0  0  0  0
  -17.4182  -26.6763   21.4024 H   0  0  0  0  0  0
  -18.0262  -26.0087   22.8999 H   0  0  0  0  0  0
  -19.7949  -30.7299   24.2273 H   0  0  0  0  0  0
  -17.5018  -31.6296   24.5169 H   0  0  0  0  0  0
  -15.5366  -30.3008   23.7672 H   0  0  0  0  0  0
  -15.8671  -28.0820   22.7140 H   0  0  0  0  0  0
  -24.5930  -30.7092   25.7827 H   0  0  0  0  0  0
  -24.8934  -32.2933   26.4884 H   0  0  0  0  0  0
  -25.8071  -30.8973   27.0280 H   0  0  0  0  0  0
  -26.2976  -29.6732   24.1260 H   0  0  0  0  0  0
  -27.4054  -29.7299   25.4780 H   0  0  0  0  0  0
  -27.8839  -30.4303   23.9504 H   0  0  0  0  0  0
  -27.2775  -33.3678   26.2000 H   0  0  0  0  0  0
  -28.3930  -32.6771   25.0314 H   0  0  0  0  0  0
  -28.0730  -31.8482   26.5458 H   0  0  0  0  0  0
  -28.2526  -38.0124   24.7594 H   0  0  0  0  0  0
  -28.1139  -36.2666   24.6167 H   0  0  0  0  0  0
  -27.2327  -37.1265   25.8870 H   0  0  0  0  0  0
  -20.9381  -29.8791   21.6881 H   0  0  0  0  0  0
  -26.0127  -38.2842   24.1559 H   0  0  0  0  0  0
  -31.8411  -21.1024   20.1137 H   0  0  0  0  0  0
  -32.5481  -16.9348   20.5309 H   0  0  0  0  0  0
  -28.4706  -18.4008   20.3978 H   0  0  0  0  0  0
  -26.6173  -22.6901   20.5791 H   0  0  0  0  0  0
  -26.6581  -22.9315   18.8440 H   0  0  0  0  0  0
  -27.9383  -20.9471   18.5088 H   0  0  0  0  0  0
  -27.1764  -20.4724   20.0228 H   0  0  0  0  0  0
  -28.8572  -23.8761   18.9105 H   0  0  0  0  0  0
  -34.1275  -19.6846   22.3434 H   0  0  0  0  0  0
  -33.8840  -21.1377   21.3756 H   0  0  0  0  0  0
  -35.4146  -20.2823   21.3048 H   0  0  0  0  0  0
  -33.9172  -19.2327   18.0334 H   0  0  0  0  0  0
  -35.3117  -19.9735   18.8013 H   0  0  0  0  0  0
  -33.7979  -20.8591   18.7050 H   0  0  0  0  0  0
  -28.7762  -24.9808   21.5868 H   0  0  0  0  0  0
  -27.1437  -24.9124   21.1032 H   0  0  0  0  0  0
  -34.3144  -18.3091   20.3044 H   0  0  0  0  0  0
  -28.9880  -15.8481   20.7482 H   0  0  0  0  0  0
  1 25  1  0  0  0
  1 30  2  0  0  0
  1 86  1  0  0  0
  2  3  1  0  0  0
  2 25  1  0  0  0
  2 88  1  0  0  0
  2 89  1  0  0  0
  3  4  1  0  0  0
  3 90  1  0  0  0
  3 91  1  0  0  0
  4  5  1  0  0  0
  4 92  1  0  0  0
  4 93  1  0  0  0
  5  6  1  0  0  0
  5 26  1  0  0  0
  5 94  1  0  0  0
  6 25  1  0  0  0
  6 95  1  0  0  0
  6 96  1  0  0  0
  7  8  2  0  0  0
  7 26  1  0  0  0
  7 29  1  0  0  0
  8  9  1  0  0  0
  8 22  1  0  0  0
  9 10  1  0  0  0
  9 27  2  0  0  0
 10 11  2  0  0  0
 10 15  1  0  0  0
 11 12  1  0  0  0
 11 97  1  0  0  0
 12 13  2  0  0  0
 12 98  1  0  0  0
 13 14  1  0  0  0
 13 31  1  0  0  0
 14 15  2  0  0  0
 14 99  1  0  0  0
 15100  1  0  0  0
 16 17  2  0  0  0
 16 21  1  0  0  0
 16 31  1  0  0  0
 17 18  1  0  0  0
 17101  1  0  0  0
 18 19  2  0  0  0
 18102  1  0  0  0
 19 20  1  0  0  0
 19 24  1  0  0  0
 20 21  2  0  0  0
 20103  1  0  0  0
 21 23  1  0  0  0
 22 28  1  0  0  0
 22 32  2  0  0  0
 26 27  1  0  0  0
 28104  1  0  0  0
 28105  1  0  0  0
 29106  1  0  0  0
 29107  1  0  0  0
 33 34  1  0  0  0
 33 66  1  0  0  0
 33 70  2  0  0  0
 34 36  1  0  0  0
 34 59  1  0  0  0
 34108  1  0  0  0
 35 44  2  0  0  0
 35 45  1  0  0  0
 35 68  1  0  0  0
 36 56  1  0  0  0
 36109  1  0  0  0
 37 39  1  0  0  0
 37 47  1  0  0  0
 37 66  1  0  0  0
 37110  1  0  0  0
 38 43  2  0  0  0
 38 46  1  0  0  0
 38 47  1  0  0  0
 39 64  1  0  0  0
 39 67  2  0  0  0
 40 52  1  0  0  0
 40 53  2  0  0  0
 40 58  1  0  0  0
 41111  1  0  0  0
 41112  1  0  0  0
 41113  1  0  0  0
 41 48  1  0  0  0
 42 43  1  0  0  0
 42 66  1  0  0  0
 42114  1  0  0  0
 42115  1  0  0  0
 43 44  1  0  0  0
 44116  1  0  0  0
 45 46  2  0  0  0
 45117  1  0  0  0
 46118  1  0  0  0
 47119  1  0  0  0
 47120  1  0  0  0
 48 56  1  0  0  0
 48 65  1  0  0  0
 48121  1  0  0  0
 49 50  1  0  0  0
 49 53  1  0  0  0
 49 64  1  0  0  0
 49122  1  0  0  0
 50 51  1  0  0  0
 50123  1  0  0  0
 50124  1  0  0  0
 51 52  1  0  0  0
 51125  1  0  0  0
 51126  1  0  0  0
 52127  1  0  0  0
 52128  1  0  0  0
 53 54  1  0  0  0
 54 55  2  0  0  0
 54129  1  0  0  0
 55 57  1  0  0  0
 55130  1  0  0  0
 56 69  2  0  0  0
 57 58  2  0  0  0
 57131  1  0  0  0
 58132  1  0  0  0
 59 60  1  0  0  0
 59 61  1  0  0  0
 59 62  1  0  0  0
 60133  1  0  0  0
 60134  1  0  0  0
 60135  1  0  0  0
 61136  1  0  0  0
 61137  1  0  0  0
 61138  1  0  0  0
 62139  1  0  0  0
 62140  1  0  0  0
 62141  1  0  0  0
 63 65  1  0  0  0
 63142  1  0  0  0
 63143  1  0  0  0
 63144  1  0  0  0
 64145  1  0  0  0
 65146  1  0  0  0
 68 83  1  0  0  0
 71 74  2  0  0  0
 71 75  1  0  0  0
 71147  1  0  0  0
 72 74  1  0  0  0
 72 76  2  0  0  0
 72148  1  0  0  0
 73 75  2  0  0  0
 73 76  1  0  0  0
 73149  1  0  0  0
 74 84  1  0  0  0
 75 85  1  0  0  0
 76 86  1  0  0  0
 77 80  1  0  0  0
 77 85  1  0  0  0
 77 87  2  0  0  0
 78 79  1  0  0  0
 78 80  1  0  0  0
 78150  1  0  0  0
 78151  1  0  0  0
 79 85  1  0  0  0
 79152  1  0  0  0
 79153  1  0  0  0
 80 83  1  0  0  0
 80154  1  0  0  0
 81155  1  0  0  0
 81156  1  0  0  0
 81157  1  0  0  0
 81 84  1  0  0  0
 82 84  1  0  0  0
 82158  1  0  0  0
 82159  1  0  0  0
 82160  1  0  0  0
 83161  1  0  0  0
 83162  1  0  0  0
 84163  1  0  0  0
 86164  1  0  0  0
M  ISO  4   1 100  68 101  83 101  86 100
M  END
> <chiral flag>
0

> <version>
0

> <s_m_source_file>
/data/baiqing/PycharmProjects/Reinvent-master-3.2/result/LINK_invent/BTK/process_docking_weight1_custom_product_contain_oxygen_bond_distance_aromatic_linkinvent_7_9_3/rearranged_h_0072.sdf

> <i_m_source_file_index>
82

> <r_mmod_Potential_Energy-OPLS-2005>
294.114379882812

> <r_mmod_Stretch_Energy-OPLS-2005>
140.648498535156

> <r_mmod_Bend_Energy-OPLS-2005>
204.180404663086

> <r_mmod_Torsional_Energy-OPLS-2005>
285.183044433594

> <r_mmod_Improper_Torsional_Energy-OPLS-2005>
5.19758701324463

> <r_mmod_Van_der_Waal_Energy-OPLS-2005>
140.100814819336

> <r_mmod_Electrostatic_Energy-OPLS-2005>
-352.313903808594

> <r_mmod_Solvation_Energy-OPLS-2005>
-218.979995727539

> <b_mmod_Minimization_Converged-OPLS-2005>
0

> <r_mmod_RMS_Derivative-OPLS-2005>
2.72587633132935

$$$$
82
                    3D
 Structure written by MMmdl.
150157  0  0  1  0            999 V2000
  -30.4254  -15.3121   20.3650 C   0  0  0  0  0  0
  -30.4360  -12.8485   19.5126 C   0  0  0  0  0  0
  -29.5318  -12.5799   18.2836 C   0  0  0  0  0  0
  -28.0849  -12.2926   18.7211 C   0  0  0  0  0  0
  -27.6051  -13.2780   19.8144 C   0  0  2  0  0  0
  -28.6403  -13.4830   20.9402 C   0  0  0  0  0  0
  -25.2368  -13.8246   20.5758 C   0  0  0  0  0  0
  -24.1724  -13.0432   20.9281 C   0  0  0  0  0  0
  -24.6394  -11.6930   20.8783 C   0  0  0  0  0  0
  -23.9088  -10.4289   21.0421 C   0  0  0  0  0  0
  -24.3631   -9.4199   21.9199 C   0  0  0  0  0  0
  -23.6293   -8.2238   22.0758 C   0  0  0  0  0  0
  -22.4274   -8.0286   21.3551 C   0  0  0  0  0  0
  -21.9921   -9.0263   20.4652 C   0  0  0  0  0  0
  -22.7261  -10.2135   20.3068 C   0  0  0  0  0  0
  -21.6849   -6.0744   22.5291 C   0  0  0  0  0  0
  -21.4017   -6.5645   23.8224 C   0  0  0  0  0  0
  -21.3656   -5.6799   24.9187 C   0  0  0  0  0  0
  -21.6039   -4.3059   24.7233 C   0  0  0  0  0  0
  -21.8813   -3.8154   23.4353 C   0  0  0  0  0  0
  -21.9185   -4.6968   22.3409 C   0  0  0  0  0  0
  -22.7747  -13.5181   21.1923 C   0  0  0  0  0  0
  -22.1651   -4.2158   21.0987 F   0  0  0  0  0  0
  -21.5623   -3.4539   25.7743 F   0  0  0  0  0  0
  -29.8579  -14.0038   20.2951 N   0  0  0  0  0  0
  -26.2790  -12.9526   20.3208 N   0  0  0  0  0  0
  -25.9331  -11.6629   20.5730 N   0  0  0  0  0  0
  -22.0380  -12.8181   22.0469 N   0  0  0  0  0  0
  -25.3976  -15.1985   20.4192 N   0  0  0  0  0  0
  -31.6581  -15.2840   20.2316 O   0  0  0  0  0  0
  -21.6632   -6.8887   21.4253 O   0  0  0  0  0  0
  -22.3431  -14.5485   20.6757 O   0  0  0  0  0  0
  -24.6650  -31.8219   23.1682 C   0  0  0  0  0  0
  -25.9319  -32.4583   23.8160 C   0  0  1  0  0  0
  -27.2177  -26.9002   20.1932 C   0  0  0  0  0  0
  -25.5982  -33.8398   24.2070 N   0  0  0  0  0  0
  -23.4809  -30.4316   21.5191 C   0  0  2  0  0  0
  -24.9341  -28.8104   20.1197 C   0  0  0  0  0  0
  -22.7670  -29.4433   22.4782 C   0  0  0  0  0  0
  -18.0324  -28.1410   22.8464 C   0  0  0  0  0  0
  -24.1492  -36.7203   23.2648 C   0  0  0  0  0  0
  -26.0525  -30.6192   21.4027 C   0  0  0  0  0  0
  -26.1209  -29.2048   20.7509 C   0  0  0  0  0  0
  -27.2599  -28.2741   20.7562 C   0  0  0  0  0  0
  -25.9994  -26.6629   19.5186 C   0  0  0  0  0  0
  -24.9000  -27.5599   19.4830 C   0  0  0  0  0  0
  -23.7231  -29.7437   20.1480 C   0  0  0  0  0  0
  -25.4133  -36.2966   24.0301 C   0  0  1  0  0  0
  -20.5947  -28.3758   23.1184 C   0  0  2  0  0  0
  -20.6806  -26.9440   22.5402 C   0  0  0  0  0  0
  -19.5782  -26.6377   21.5215 C   0  0  0  0  0  0
  -18.1961  -26.7941   22.1618 C   0  0  0  0  0  0
  -19.1584  -28.8905   23.2809 C   0  0  0  0  0  0
  -18.9495  -30.1492   23.8849 C   0  0  0  0  0  0
  -17.6490  -30.6600   24.0552 C   0  0  0  0  0  0
  -25.9099  -34.9348   23.5009 C   0  0  0  0  0  0
  -16.5380  -29.9086   23.6345 C   0  0  0  0  0  0
  -16.7305  -28.6504   23.0369 C   0  0  0  0  0  0
  -26.4562  -31.6535   25.0697 C   0  0  0  0  0  0
  -25.3681  -31.3793   26.1348 C   0  0  0  0  0  0
  -27.0468  -30.2899   24.6450 C   0  0  0  0  0  0
  -27.6045  -32.4351   25.7508 C   0  0  0  0  0  0
  -27.5568  -37.1759   24.8465 C   0  0  0  0  0  0
  -21.4337  -29.3041   22.3528 N   0  0  0  0  0  0
  -26.4278  -37.3700   23.9406 N   0  0  0  0  0  0
  -24.7546  -30.9848   22.0839 N   0  0  0  0  0  0
  -23.4206  -28.8005   23.3033 O   0  0  0  0  0  0
  -28.2225  -25.7871   20.1976 O   0  0  0  0  0  0
  -26.5711  -34.8888   22.4606 O   0  0  0  0  0  0
  -23.5712  -32.1212   23.6755 O   0  0  0  0  0  0
  -28.7393  -22.7023   19.9564 C   0  0  0  0  0  0
  -29.7080  -18.4237   22.1549 C   0  0  0  0  0  0
  -31.3626  -18.5352   20.3055 C   0  0  0  0  0  0
  -27.9614  -24.1807   20.5448 C   0  0  0  0  0  0
  -29.0346  -19.7277   19.9671 C   0  0  0  0  0  0
  -29.8850  -18.2648   20.6360 C   0  0  0  0  0  0
  -28.7914  -21.3119   20.5037 N   0  0  0  0  0  0
  -29.6632  -16.6031   20.3868 N   0  0  0  0  0  0
  -29.2838  -22.8385   18.8597 O   0  0  0  0  0  0
  -31.4485  -13.0676   19.1711 H   0  0  0  0  0  0
  -30.5225  -11.9579   20.1368 H   0  0  0  0  0  0
  -29.9207  -11.7452   17.6987 H   0  0  0  0  0  0
  -29.5476  -13.4513   17.6269 H   0  0  0  0  0  0
  -28.0565  -11.2744   19.1117 H   0  0  0  0  0  0
  -27.4118  -12.3101   17.8634 H   0  0  0  0  0  0
  -27.5079  -14.2349   19.3002 H   0  0  0  0  0  0
  -28.8260  -12.5596   21.4909 H   0  0  0  0  0  0
  -28.2724  -14.2097   21.6665 H   0  0  0  0  0  0
  -25.2767   -9.5670   22.4796 H   0  0  0  0  0  0
  -23.9992   -7.4622   22.7482 H   0  0  0  0  0  0
  -21.0846   -8.8795   19.8961 H   0  0  0  0  0  0
  -22.3719  -10.9684   19.6190 H   0  0  0  0  0  0
  -21.2022   -7.6157   23.9738 H   0  0  0  0  0  0
  -21.1477   -6.0526   25.9092 H   0  0  0  0  0  0
  -22.0591   -2.7613   23.2857 H   0  0  0  0  0  0
  -22.3960  -11.9844   22.4897 H   0  0  0  0  0  0
  -21.1007  -13.1242   22.2655 H   0  0  0  0  0  0
  -24.6256  -15.8457   20.5374 H   0  0  0  0  0  0
  -26.2361  -15.6435   20.0708 H   0  0  0  0  0  0
  -26.7390  -32.5117   23.0875 H   0  0  0  0  0  0
  -25.0077  -33.9473   25.0187 H   0  0  0  0  0  0
  -22.7948  -31.2636   21.3458 H   0  0  0  0  0  0
  -23.3770  -35.9517   23.3278 H   0  0  0  0  0  0
  -24.3566  -36.8882   22.2068 H   0  0  0  0  0  0
  -23.7238  -37.6377   23.6725 H   0  0  0  0  0  0
  -26.2340  -31.3568   20.6201 H   0  0  0  0  0  0
  -26.9125  -30.6793   22.0580 H   0  0  0  0  0  0
  -28.1653  -28.5804   21.2622 H   0  0  0  0  0  0
  -25.8724  -25.7117   19.0221 H   0  0  0  0  0  0
  -23.9988  -27.2514   18.9702 H   0  0  0  0  0  0
  -23.8831  -30.5123   19.3909 H   0  0  0  0  0  0
  -22.8317  -29.2012   19.8279 H   0  0  0  0  0  0
  -25.1333  -36.1760   25.0792 H   0  0  0  0  0  0
  -21.0028  -28.3373   24.1310 H   0  0  0  0  0  0
  -20.5699  -26.2374   23.3640 H   0  0  0  0  0  0
  -21.6668  -26.7427   22.1202 H   0  0  0  0  0  0
  -19.6945  -25.6275   21.1282 H   0  0  0  0  0  0
  -19.6726  -27.3155   20.6719 H   0  0  0  0  0  0
  -17.4230  -26.6682   21.4022 H   0  0  0  0  0  0
  -18.0359  -26.0094   22.9027 H   0  0  0  0  0  0
  -19.7971  -30.7318   24.2197 H   0  0  0  0  0  0
  -17.5044  -31.6274   24.5164 H   0  0  0  0  0  0
  -15.5380  -30.2976   23.7692 H   0  0  0  0  0  0
  -15.8704  -28.0802   22.7123 H   0  0  0  0  0  0
  -24.5878  -30.7130   25.7654 H   0  0  0  0  0  0
  -24.8856  -32.2998   26.4642 H   0  0  0  0  0  0
  -25.7906  -30.9046   27.0214 H   0  0  0  0  0  0
  -26.3147  -29.6561   24.1437 H   0  0  0  0  0  0
  -27.3971  -29.7275   25.5117 H   0  0  0  0  0  0
  -27.9097  -30.4077   23.9892 H   0  0  0  0  0  0
  -27.2607  -33.3697   26.1952 H   0  0  0  0  0  0
  -28.3930  -32.6842   25.0393 H   0  0  0  0  0  0
  -28.0634  -31.8571   26.5539 H   0  0  0  0  0  0
  -28.2567  -38.0071   24.7510 H   0  0  0  0  0  0
  -28.1086  -36.2598   24.6299 H   0  0  0  0  0  0
  -27.2283  -37.1404   25.8867 H   0  0  0  0  0  0
  -20.9593  -29.8705   21.6634 H   0  0  0  0  0  0
  -26.0128  -38.2758   24.1415 H   0  0  0  0  0  0
  -30.0061  -19.4182   22.4899 H   0  0  0  0  0  0
  -30.3030  -17.7003   22.7140 H   0  0  0  0  0  0
  -28.6655  -18.2852   22.4429 H   0  0  0  0  0  0
  -31.6371  -19.5678   20.5262 H   0  0  0  0  0  0
  -31.5594  -18.3685   19.2461 H   0  0  0  0  0  0
  -32.0379  -17.8939   20.8725 H   0  0  0  0  0  0
  -28.0424  -24.1203   21.6297 H   0  0  0  0  0  0
  -26.9021  -24.0159   20.3495 H   0  0  0  0  0  0
  -28.0098  -19.3843   19.8229 H   0  0  0  0  0  0
  -29.3996  -19.8456   18.9455 H   0  0  0  0  0  0
  -28.4021  -21.3045   21.4379 H   0  0  0  0  0  0
  -28.6775  -16.3923   20.3306 H   0  0  0  0  0  0
  1 25  1  0  0  0
  1 30  2  0  0  0
  1 78  1  0  0  0
  2  3  1  0  0  0
  2 25  1  0  0  0
  2 80  1  0  0  0
  2 81  1  0  0  0
  3  4  1  0  0  0
  3 82  1  0  0  0
  3 83  1  0  0  0
  4  5  1  0  0  0
  4 84  1  0  0  0
  4 85  1  0  0  0
  5  6  1  0  0  0
  5 26  1  0  0  0
  5 86  1  0  0  0
  6 25  1  0  0  0
  6 87  1  0  0  0
  6 88  1  0  0  0
  7  8  2  0  0  0
  7 26  1  0  0  0
  7 29  1  0  0  0
  8  9  1  0  0  0
  8 22  1  0  0  0
  9 10  1  0  0  0
  9 27  2  0  0  0
 10 11  2  0  0  0
 10 15  1  0  0  0
 11 12  1  0  0  0
 11 89  1  0  0  0
 12 13  2  0  0  0
 12 90  1  0  0  0
 13 14  1  0  0  0
 13 31  1  0  0  0
 14 15  2  0  0  0
 14 91  1  0  0  0
 15 92  1  0  0  0
 16 17  2  0  0  0
 16 21  1  0  0  0
 16 31  1  0  0  0
 17 18  1  0  0  0
 17 93  1  0  0  0
 18 19  2  0  0  0
 18 94  1  0  0  0
 19 20  1  0  0  0
 19 24  1  0  0  0
 20 21  2  0  0  0
 20 95  1  0  0  0
 21 23  1  0  0  0
 22 28  1  0  0  0
 22 32  2  0  0  0
 26 27  1  0  0  0
 28 96  1  0  0  0
 28 97  1  0  0  0
 29 98  1  0  0  0
 29 99  1  0  0  0
 33 34  1  0  0  0
 33 66  1  0  0  0
 33 70  2  0  0  0
 34 36  1  0  0  0
 34 59  1  0  0  0
 34100  1  0  0  0
 35 44  2  0  0  0
 35 45  1  0  0  0
 35 68  1  0  0  0
 36 56  1  0  0  0
 36101  1  0  0  0
 37 39  1  0  0  0
 37 47  1  0  0  0
 37 66  1  0  0  0
 37102  1  0  0  0
 38 43  2  0  0  0
 38 46  1  0  0  0
 38 47  1  0  0  0
 39 64  1  0  0  0
 39 67  2  0  0  0
 40 52  1  0  0  0
 40 53  2  0  0  0
 40 58  1  0  0  0
 41103  1  0  0  0
 41104  1  0  0  0
 41105  1  0  0  0
 41 48  1  0  0  0
 42 43  1  0  0  0
 42 66  1  0  0  0
 42106  1  0  0  0
 42107  1  0  0  0
 43 44  1  0  0  0
 44108  1  0  0  0
 45 46  2  0  0  0
 45109  1  0  0  0
 46110  1  0  0  0
 47111  1  0  0  0
 47112  1  0  0  0
 48 56  1  0  0  0
 48 65  1  0  0  0
 48113  1  0  0  0
 49 50  1  0  0  0
 49 53  1  0  0  0
 49 64  1  0  0  0
 49114  1  0  0  0
 50 51  1  0  0  0
 50115  1  0  0  0
 50116  1  0  0  0
 51 52  1  0  0  0
 51117  1  0  0  0
 51118  1  0  0  0
 52119  1  0  0  0
 52120  1  0  0  0
 53 54  1  0  0  0
 54 55  2  0  0  0
 54121  1  0  0  0
 55 57  1  0  0  0
 55122  1  0  0  0
 56 69  2  0  0  0
 57 58  2  0  0  0
 57123  1  0  0  0
 58124  1  0  0  0
 59 60  1  0  0  0
 59 61  1  0  0  0
 59 62  1  0  0  0
 60125  1  0  0  0
 60126  1  0  0  0
 60127  1  0  0  0
 61128  1  0  0  0
 61129  1  0  0  0
 61130  1  0  0  0
 62131  1  0  0  0
 62132  1  0  0  0
 62133  1  0  0  0
 63 65  1  0  0  0
 63134  1  0  0  0
 63135  1  0  0  0
 63136  1  0  0  0
 64137  1  0  0  0
 65138  1  0  0  0
 68 74  1  0  0  0
 71 74  1  0  0  0
 71 77  1  0  0  0
 71 79  2  0  0  0
 72139  1  0  0  0
 72140  1  0  0  0
 72141  1  0  0  0
 72 76  1  0  0  0
 73 76  1  0  0  0
 73142  1  0  0  0
 73143  1  0  0  0
 73144  1  0  0  0
 74145  1  0  0  0
 74146  1  0  0  0
 75 76  1  0  0  0
 75 77  1  0  0  0
 75147  1  0  0  0
 75148  1  0  0  0
 76 78  1  0  0  0
 77149  1  0  0  0
 78150  1  0  0  0
M  ISO  4   1 100  68 101  74 101  78 100
M  END
> <chiral flag>
0

> <version>
0

> <s_m_source_file>
/data/baiqing/PycharmProjects/Reinvent-master-3.2/result/LINK_invent/BTK/process_docking_weight1_custom_product_contain_oxygen_bond_distance_aromatic_linkinvent_7_9_3/rearranged_h_0072.sdf

> <i_m_source_file_index>
83

> <r_mmod_Potential_Energy-OPLS-2005>
1306.86022949219

> <r_mmod_Stretch_Energy-OPLS-2005>
657.642333984375

> <r_mmod_Bend_Energy-OPLS-2005>
466.986419677734

> <r_mmod_Torsional_Energy-OPLS-2005>
233.785446166992

> <r_mmod_Improper_Torsional_Energy-OPLS-2005>
4.97630882263184

> <r_mmod_Van_der_Waal_Energy-OPLS-2005>
105.653907775879

> <r_mmod_Electrostatic_Energy-OPLS-2005>
-411.3203125

> <r_mmod_Solvation_Energy-OPLS-2005>
-254.076736450195

> <b_mmod_Minimization_Converged-OPLS-2005>
0

> <r_mmod_RMS_Derivative-OPLS-2005>
1.18061006069183

$$$$
83
                    3D
 Structure written by MMmdl.
157165  0  0  1  0            999 V2000
  -30.6811  -14.4565   20.6302 C   0  0  0  0  0  0
  -30.4382  -12.3166   19.4087 C   0  0  0  0  0  0
  -29.4971  -12.5190   18.2015 C   0  0  0  0  0  0
  -28.0182  -12.3721   18.6140 C   0  0  0  0  0  0
  -27.6679  -13.1962   19.8809 C   0  0  2  0  0  0
  -28.7065  -12.9289   20.9927 C   0  0  0  0  0  0
  -25.2621  -13.8133   20.5664 C   0  0  0  0  0  0
  -24.1857  -13.0431   20.9163 C   0  0  0  0  0  0
  -24.6394  -11.6892   20.8727 C   0  0  0  0  0  0
  -23.9054  -10.4287   21.0406 C   0  0  0  0  0  0
  -24.3609   -9.4204   21.9186 C   0  0  0  0  0  0
  -23.6286   -8.2239   22.0753 C   0  0  0  0  0  0
  -22.4268   -8.0279   21.3544 C   0  0  0  0  0  0
  -21.9903   -9.0250   20.4644 C   0  0  0  0  0  0
  -22.7229  -10.2130   20.3052 C   0  0  0  0  0  0
  -21.6850   -6.0733   22.5280 C   0  0  0  0  0  0
  -21.4013   -6.5637   23.8214 C   0  0  0  0  0  0
  -21.3659   -5.6791   24.9177 C   0  0  0  0  0  0
  -21.6044   -4.3054   24.7228 C   0  0  0  0  0  0
  -21.8820   -3.8145   23.4350 C   0  0  0  0  0  0
  -21.9193   -4.6961   22.3405 C   0  0  0  0  0  0
  -22.7883  -13.5243   21.1837 C   0  0  0  0  0  0
  -22.1663   -4.2147   21.0982 F   0  0  0  0  0  0
  -21.5628   -3.4537   25.7741 F   0  0  0  0  0  0
  -30.0437  -13.2646   20.4618 N   0  0  0  0  0  0
  -26.3053  -12.9281   20.3373 N   0  0  0  0  0  0
  -25.9317  -11.6450   20.5751 N   0  0  0  0  0  0
  -22.0515  -12.8237   22.0389 N   0  0  0  0  0  0
  -25.4368  -15.1845   20.4065 N   0  0  0  0  0  0
  -31.7560  -14.7303   20.0855 O   0  0  0  0  0  0
  -21.6635   -6.8875   21.4241 O   0  0  0  0  0  0
  -22.3573  -14.5554   20.6692 O   0  0  0  0  0  0
  -24.6133  -31.8676   23.2098 C   0  0  0  0  0  0
  -25.9027  -32.4823   23.8395 C   0  0  1  0  0  0
  -27.2401  -27.4398   20.0997 C   0  0  0  0  0  0
  -25.5890  -33.8621   24.2331 N   0  0  0  0  0  0
  -23.4034  -30.4885   21.5494 C   0  0  2  0  0  0
  -24.8538  -28.9516   20.1178 C   0  0  0  0  0  0
  -22.7413  -29.4646   22.4995 C   0  0  0  0  0  0
  -18.0273  -28.1368   22.8486 C   0  0  0  0  0  0
  -24.1488  -36.7313   23.2640 C   0  0  0  0  0  0
  -25.9312  -30.8343   21.3634 C   0  0  0  0  0  0
  -26.0121  -29.4668   20.7146 C   0  0  0  0  0  0
  -27.2114  -28.7173   20.7043 C   0  0  0  0  0  0
  -26.0694  -26.9352   19.5001 C   0  0  0  0  0  0
  -24.8761  -27.6842   19.5080 C   0  0  0  0  0  0
  -23.6144  -29.8173   20.1652 C   0  0  0  0  0  0
  -25.4110  -36.3112   24.0343 C   0  0  1  0  0  0
  -20.5863  -28.3655   23.1320 C   0  0  2  0  0  0
  -20.6766  -26.9393   22.5417 C   0  0  0  0  0  0
  -19.5749  -26.6382   21.5207 C   0  0  0  0  0  0
  -18.1925  -26.7914   22.1618 C   0  0  0  0  0  0
  -19.1521  -28.8829   23.2899 C   0  0  0  0  0  0
  -18.9451  -30.1436   23.8907 C   0  0  0  0  0  0
  -17.6455  -30.6579   24.0560 C   0  0  0  0  0  0
  -25.9031  -34.9476   23.5135 C   0  0  0  0  0  0
  -16.5344  -29.9082   23.6322 C   0  0  0  0  0  0
  -16.7264  -28.6497   23.0345 C   0  0  0  0  0  0
  -26.4465  -31.6599   25.0716 C   0  0  0  0  0  0
  -25.3732  -31.3701   26.1465 C   0  0  0  0  0  0
  -27.0300  -30.3050   24.6076 C   0  0  0  0  0  0
  -27.6044  -32.4317   25.7472 C   0  0  0  0  0  0
  -27.5584  -37.1811   24.8471 C   0  0  0  0  0  0
  -21.4140  -29.3021   22.3730 N   0  0  0  0  0  0
  -26.4300  -37.3794   23.9410 N   0  0  0  0  0  0
  -24.6672  -31.0778   22.0998 N   0  0  0  0  0  0
  -23.4184  -28.8185   23.3039 O   0  0  0  0  0  0
  -28.3879  -26.6827   20.0655 O   0  0  0  0  0  0
  -26.5594  -34.8922   22.4696 O   0  0  0  0  0  0
  -23.5326  -32.1432   23.7484 O   0  0  0  0  0  0
  -28.9011  -18.6700   22.5343 C   0  0  0  0  0  0
  -30.8878  -17.6271   20.8376 C   0  0  0  0  0  0
  -29.7907  -19.5648   21.8974 C   0  0  0  0  0  0
  -30.0111  -16.7380   21.5099 C   0  0  0  0  0  0
  -29.0122  -17.2805   22.3428 C   0  0  0  0  0  0
  -30.7756  -19.0298   21.0276 C   0  0  0  0  0  0
  -31.1917  -23.9598   21.8648 C   0  0  0  0  0  0
  -29.7119  -20.9995   22.2512 C   0  0  0  0  0  0
  -28.9963  -24.3431   20.6374 C   0  0  0  0  0  0
  -28.4712  -25.7151   21.1241 C   0  0  0  0  0  0
  -29.7422  -23.4791   21.6812 C   0  0  1  0  0  0
  -30.0186  -15.3121   21.4267 N   0  0  0  0  0  0
  -29.7225  -22.0180   21.3610 N   0  0  0  0  0  0
  -29.6029  -21.3017   23.5511 N   0  3  0  0  0  0
  -32.0470  -23.3307   22.4946 O   0  0  0  0  0  0
  -28.7972  -23.9599   19.4777 O   0  0  0  0  0  0
  -28.1522  -16.4467   22.9776 F   0  0  0  0  0  0
  -31.6460  -19.8543   20.3958 F   0  0  0  0  0  0
  -31.4789  -12.4468   19.1048 H   0  0  0  0  0  0
  -30.3661  -11.2946   19.7832 H   0  0  0  0  0  0
  -29.7376  -11.8020   17.4153 H   0  0  0  0  0  0
  -29.6597  -13.5082   17.7708 H   0  0  0  0  0  0
  -27.8293  -11.3138   18.7995 H   0  0  0  0  0  0
  -27.3661  -12.6552   17.7868 H   0  0  0  0  0  0
  -27.7262  -14.2502   19.6085 H   0  0  0  0  0  0
  -28.6857  -11.8747   21.2741 H   0  0  0  0  0  0
  -28.4451  -13.4637   21.9064 H   0  0  0  0  0  0
  -25.2755   -9.5678   22.4760 H   0  0  0  0  0  0
  -23.9997   -7.4628   22.7468 H   0  0  0  0  0  0
  -21.0836   -8.8767   19.8949 H   0  0  0  0  0  0
  -22.3692  -10.9668   19.6159 H   0  0  0  0  0  0
  -21.2003   -7.6144   23.9717 H   0  0  0  0  0  0
  -21.1481   -6.0520   25.9081 H   0  0  0  0  0  0
  -22.0600   -2.7606   23.2850 H   0  0  0  0  0  0
  -22.4119  -11.9893   22.4772 H   0  0  0  0  0  0
  -21.1135  -13.1270   22.2587 H   0  0  0  0  0  0
  -24.6761  -15.8450   20.5221 H   0  0  0  0  0  0
  -26.2960  -15.6208   20.0977 H   0  0  0  0  0  0
  -26.7100  -32.5547   23.1164 H   0  0  0  0  0  0
  -25.0046  -33.9787   25.0477 H   0  0  0  0  0  0
  -22.6914  -31.3038   21.4077 H   0  0  0  0  0  0
  -23.3745  -35.9653   23.3320 H   0  0  0  0  0  0
  -24.3585  -36.8910   22.2054 H   0  0  0  0  0  0
  -23.7246  -37.6523   23.6640 H   0  0  0  0  0  0
  -26.0407  -31.5988   20.5929 H   0  0  0  0  0  0
  -26.8195  -30.8916   21.9802 H   0  0  0  0  0  0
  -28.1091  -29.1127   21.1597 H   0  0  0  0  0  0
  -26.0835  -25.9629   19.0282 H   0  0  0  0  0  0
  -23.9863  -27.2814   19.0437 H   0  0  0  0  0  0
  -23.7216  -30.5906   19.4037 H   0  0  0  0  0  0
  -22.7391  -29.2344   19.8715 H   0  0  0  0  0  0
  -25.1285  -36.1983   25.0838 H   0  0  0  0  0  0
  -20.9952  -28.3218   24.1441 H   0  0  0  0  0  0
  -20.5673  -26.2260   23.3601 H   0  0  0  0  0  0
  -21.6639  -26.7442   22.1206 H   0  0  0  0  0  0
  -19.6912  -25.6297   21.1226 H   0  0  0  0  0  0
  -19.6691  -27.3202   20.6741 H   0  0  0  0  0  0
  -17.4197  -26.6662   21.4016 H   0  0  0  0  0  0
  -18.0325  -26.0053   22.9009 H   0  0  0  0  0  0
  -19.7930  -30.7243   24.2286 H   0  0  0  0  0  0
  -17.5015  -31.6264   24.5154 H   0  0  0  0  0  0
  -15.5347  -30.2989   23.7642 H   0  0  0  0  0  0
  -15.8662  -28.0827   22.7050 H   0  0  0  0  0  0
  -24.5897  -30.7060   25.7802 H   0  0  0  0  0  0
  -24.8923  -32.2855   26.4922 H   0  0  0  0  0  0
  -25.8081  -30.8859   27.0218 H   0  0  0  0  0  0
  -26.2843  -29.6806   24.1139 H   0  0  0  0  0  0
  -27.4102  -29.7288   25.4521 H   0  0  0  0  0  0
  -27.8662  -30.4390   23.9210 H   0  0  0  0  0  0
  -27.2669  -33.3609   26.2077 H   0  0  0  0  0  0
  -28.3831  -32.6895   25.0280 H   0  0  0  0  0  0
  -28.0735  -31.8423   26.5360 H   0  0  0  0  0  0
  -28.2608  -38.0099   24.7503 H   0  0  0  0  0  0
  -28.1069  -36.2628   24.6309 H   0  0  0  0  0  0
  -27.2298  -37.1481   25.8873 H   0  0  0  0  0  0
  -20.9301  -29.8743   21.6950 H   0  0  0  0  0  0
  -26.0188  -38.2878   24.1398 H   0  0  0  0  0  0
  -28.1317  -19.0394   23.1963 H   0  0  0  0  0  0
  -31.6627  -17.2541   20.1859 H   0  0  0  0  0  0
  -31.4010  -24.9177   21.3871 H   0  0  0  0  0  0
  -29.1296  -26.1037   21.9014 H   0  0  0  0  0  0
  -27.4951  -25.5571   21.5861 H   0  0  0  0  0  0
  -29.2243  -23.6287   22.6287 H   0  0  0  0  0  0
  -29.2442  -14.8887   21.9157 H   0  0  0  0  0  0
  -29.7489  -21.7939   20.3746 H   0  0  0  0  0  0
  -29.6386  -20.5599   24.2331 H   0  0  0  0  0  0
  -29.5797  -22.2484   23.8859 H   0  0  0  0  0  0
  1 25  1  0  0  0
  1 30  2  0  0  0
  1 82  1  0  0  0
  2  3  1  0  0  0
  2 25  1  0  0  0
  2 89  1  0  0  0
  2 90  1  0  0  0
  3  4  1  0  0  0
  3 91  1  0  0  0
  3 92  1  0  0  0
  4  5  1  0  0  0
  4 93  1  0  0  0
  4 94  1  0  0  0
  5  6  1  0  0  0
  5 26  1  0  0  0
  5 95  1  0  0  0
  6 25  1  0  0  0
  6 96  1  0  0  0
  6 97  1  0  0  0
  7  8  2  0  0  0
  7 26  1  0  0  0
  7 29  1  0  0  0
  8  9  1  0  0  0
  8 22  1  0  0  0
  9 10  1  0  0  0
  9 27  2  0  0  0
 10 11  2  0  0  0
 10 15  1  0  0  0
 11 12  1  0  0  0
 11 98  1  0  0  0
 12 13  2  0  0  0
 12 99  1  0  0  0
 13 14  1  0  0  0
 13 31  1  0  0  0
 14 15  2  0  0  0
 14100  1  0  0  0
 15101  1  0  0  0
 16 17  2  0  0  0
 16 21  1  0  0  0
 16 31  1  0  0  0
 17 18  1  0  0  0
 17102  1  0  0  0
 18 19  2  0  0  0
 18103  1  0  0  0
 19 20  1  0  0  0
 19 24  1  0  0  0
 20 21  2  0  0  0
 20104  1  0  0  0
 21 23  1  0  0  0
 22 28  1  0  0  0
 22 32  2  0  0  0
 26 27  1  0  0  0
 28105  1  0  0  0
 28106  1  0  0  0
 29107  1  0  0  0
 29108  1  0  0  0
 33 34  1  0  0  0
 33 66  1  0  0  0
 33 70  2  0  0  0
 34 36  1  0  0  0
 34 59  1  0  0  0
 34109  1  0  0  0
 35 44  2  0  0  0
 35 45  1  0  0  0
 35 68  1  0  0  0
 36 56  1  0  0  0
 36110  1  0  0  0
 37 39  1  0  0  0
 37 47  1  0  0  0
 37 66  1  0  0  0
 37111  1  0  0  0
 38 43  2  0  0  0
 38 46  1  0  0  0
 38 47  1  0  0  0
 39 64  1  0  0  0
 39 67  2  0  0  0
 40 52  1  0  0  0
 40 53  2  0  0  0
 40 58  1  0  0  0
 41112  1  0  0  0
 41113  1  0  0  0
 41114  1  0  0  0
 41 48  1  0  0  0
 42 43  1  0  0  0
 42 66  1  0  0  0
 42115  1  0  0  0
 42116  1  0  0  0
 43 44  1  0  0  0
 44117  1  0  0  0
 45 46  2  0  0  0
 45118  1  0  0  0
 46119  1  0  0  0
 47120  1  0  0  0
 47121  1  0  0  0
 48 56  1  0  0  0
 48 65  1  0  0  0
 48122  1  0  0  0
 49 50  1  0  0  0
 49 53  1  0  0  0
 49 64  1  0  0  0
 49123  1  0  0  0
 50 51  1  0  0  0
 50124  1  0  0  0
 50125  1  0  0  0
 51 52  1  0  0  0
 51126  1  0  0  0
 51127  1  0  0  0
 52128  1  0  0  0
 52129  1  0  0  0
 53 54  1  0  0  0
 54 55  2  0  0  0
 54130  1  0  0  0
 55 57  1  0  0  0
 55131  1  0  0  0
 56 69  2  0  0  0
 57 58  2  0  0  0
 57132  1  0  0  0
 58133  1  0  0  0
 59 60  1  0  0  0
 59 61  1  0  0  0
 59 62  1  0  0  0
 60134  1  0  0  0
 60135  1  0  0  0
 60136  1  0  0  0
 61137  1  0  0  0
 61138  1  0  0  0
 61139  1  0  0  0
 62140  1  0  0  0
 62141  1  0  0  0
 62142  1  0  0  0
 63 65  1  0  0  0
 63143  1  0  0  0
 63144  1  0  0  0
 63145  1  0  0  0
 64146  1  0  0  0
 65147  1  0  0  0
 68 80  1  0  0  0
 71 73  2  0  0  0
 71 75  1  0  0  0
 71148  1  0  0  0
 72 74  1  0  0  0
 72 76  2  0  0  0
 72149  1  0  0  0
 73 76  1  0  0  0
 73 78  1  0  0  0
 74 75  2  0  0  0
 74 82  1  0  0  0
 75 87  1  0  0  0
 76 88  1  0  0  0
 77 81  1  0  0  0
 77 85  2  0  0  0
 77150  1  0  0  0
 78 83  1  0  0  0
 78 84  2  0  0  0
 79 80  1  0  0  0
 79 81  1  0  0  0
 79 86  2  0  0  0
 80151  1  0  0  0
 80152  1  0  0  0
 81 83  1  0  0  0
 81153  1  0  0  0
 82154  1  0  0  0
 83155  1  0  0  0
 84156  1  0  0  0
 84157  1  0  0  0
M  CHG  1  84   1
M  ISO  4   1 100  68 101  80 101  82 100
M  END
> <chiral flag>
0

> <version>
0

> <s_m_source_file>
/data/baiqing/PycharmProjects/Reinvent-master-3.2/result/LINK_invent/BTK/process_docking_weight1_custom_product_contain_oxygen_bond_distance_aromatic_linkinvent_7_9_3/rearranged_h_0072.sdf

> <i_m_source_file_index>
84

> <r_mmod_Potential_Energy-OPLS-2005>
-464.284301757812

> <r_mmod_Stretch_Energy-OPLS-2005>
39.6655731201172

> <r_mmod_Bend_Energy-OPLS-2005>
106.536308288574

> <r_mmod_Torsional_Energy-OPLS-2005>
243.375671386719

> <r_mmod_Improper_Torsional_Energy-OPLS-2005>
3.04273629188538

> <r_mmod_Van_der_Waal_Energy-OPLS-2005>
153.26823425293

> <r_mmod_Electrostatic_Energy-OPLS-2005>
-542.681762695312

> <r_mmod_Solvation_Energy-OPLS-2005>
-478.086456298828

> <b_mmod_Minimization_Converged-OPLS-2005>
0

> <r_mmod_RMS_Derivative-OPLS-2005>
0.828594923019409

$$$$
84
                    3D
 Structure written by MMmdl.
155164  0  0  1  0            999 V2000
  -30.5934  -14.7012   20.4917 C   0  0  0  0  0  0
  -30.4455  -12.4300   19.4630 C   0  0  0  0  0  0
  -29.5135  -12.5166   18.2323 C   0  0  0  0  0  0
  -28.0376  -12.3429   18.6436 C   0  0  0  0  0  0
  -27.6529  -13.2204   19.8641 C   0  0  2  0  0  0
  -28.6976  -13.0922   20.9957 C   0  0  0  0  0  0
  -25.2557  -13.8173   20.5689 C   0  0  0  0  0  0
  -24.1826  -13.0436   20.9188 C   0  0  0  0  0  0
  -24.6400  -11.6909   20.8737 C   0  0  0  0  0  0
  -23.9067  -10.4292   21.0402 C   0  0  0  0  0  0
  -24.3617   -9.4206   21.9181 C   0  0  0  0  0  0
  -23.6291   -8.2243   22.0754 C   0  0  0  0  0  0
  -22.4273   -8.0281   21.3544 C   0  0  0  0  0  0
  -21.9908   -9.0255   20.4647 C   0  0  0  0  0  0
  -22.7238  -10.2133   20.3054 C   0  0  0  0  0  0
  -21.6853   -6.0735   22.5278 C   0  0  0  0  0  0
  -21.4015   -6.5638   23.8211 C   0  0  0  0  0  0
  -21.3660   -5.6791   24.9173 C   0  0  0  0  0  0
  -21.6044   -4.3054   24.7225 C   0  0  0  0  0  0
  -21.8819   -3.8146   23.4346 C   0  0  0  0  0  0
  -21.9193   -4.6962   22.3402 C   0  0  0  0  0  0
  -22.7848  -13.5228   21.1852 C   0  0  0  0  0  0
  -22.1661   -4.2147   21.0979 F   0  0  0  0  0  0
  -21.5628   -3.4538   25.7738 F   0  0  0  0  0  0
  -30.0086  -13.4570   20.4339 N   0  0  0  0  0  0
  -26.2990  -12.9361   20.3323 N   0  0  0  0  0  0
  -25.9331  -11.6512   20.5757 N   0  0  0  0  0  0
  -22.0491  -12.8223   22.0411 N   0  0  0  0  0  0
  -25.4267  -15.1894   20.4105 N   0  0  0  0  0  0
  -31.7489  -14.8708   20.0926 O   0  0  0  0  0  0
  -21.6639   -6.8878   21.4240 O   0  0  0  0  0  0
  -22.3532  -14.5534   20.6701 O   0  0  0  0  0  0
  -24.6298  -31.8569   23.2004 C   0  0  0  0  0  0
  -25.9131  -32.4762   23.8342 C   0  0  1  0  0  0
  -27.2234  -27.2817   20.1202 C   0  0  0  0  0  0
  -25.5933  -33.8565   24.2265 N   0  0  0  0  0  0
  -23.4254  -30.4806   21.5437 C   0  0  2  0  0  0
  -24.8727  -28.9329   20.1094 C   0  0  0  0  0  0
  -22.7494  -29.4610   22.4919 C   0  0  0  0  0  0
  -18.0291  -28.1386   22.8485 C   0  0  0  0  0  0
  -24.1490  -36.7288   23.2639 C   0  0  0  0  0  0
  -25.9706  -30.7754   21.3785 C   0  0  0  0  0  0
  -26.0438  -29.4006   20.7186 C   0  0  0  0  0  0
  -27.2209  -28.5872   20.7143 C   0  0  0  0  0  0
  -26.0278  -26.8828   19.4769 C   0  0  0  0  0  0
  -24.8690  -27.6810   19.4786 C   0  0  0  0  0  0
  -23.6424  -29.8169   20.1589 C   0  0  0  0  0  0
  -25.4116  -36.3075   24.0326 C   0  0  1  0  0  0
  -20.5894  -28.3696   23.1272 C   0  0  2  0  0  0
  -20.6779  -26.9415   22.5407 C   0  0  0  0  0  0
  -19.5753  -26.6384   21.5212 C   0  0  0  0  0  0
  -18.1935  -26.7929   22.1626 C   0  0  0  0  0  0
  -19.1544  -28.8858   23.2874 C   0  0  0  0  0  0
  -18.9465  -30.1460   23.8891 C   0  0  0  0  0  0
  -17.6464  -30.6588   24.0562 C   0  0  0  0  0  0
  -25.9055  -34.9444   23.5097 C   0  0  0  0  0  0
  -16.5356  -29.9085   23.6331 C   0  0  0  0  0  0
  -16.7277  -28.6503   23.0352 C   0  0  0  0  0  0
  -26.4502  -31.6584   25.0726 C   0  0  0  0  0  0
  -25.3726  -31.3734   26.1448 C   0  0  0  0  0  0
  -27.0349  -30.3001   24.6210 C   0  0  0  0  0  0
  -27.6055  -32.4325   25.7500 C   0  0  0  0  0  0
  -27.5579  -37.1799   24.8464 C   0  0  0  0  0  0
  -21.4203  -29.3045   22.3663 N   0  0  0  0  0  0
  -26.4291  -37.3772   23.9407 N   0  0  0  0  0  0
  -24.6943  -31.0549   22.0973 N   0  0  0  0  0  0
  -23.4202  -28.8148   23.3010 O   0  0  0  0  0  0
  -28.3251  -26.3980   20.1873 O   0  0  0  0  0  0
  -26.5627  -34.8916   22.4665 O   0  0  0  0  0  0
  -23.5452  -32.1384   23.7309 O   0  0  0  0  0  0
  -30.2083  -19.4089   19.6860 C   0  0  0  0  0  0
  -28.9120  -19.3750   21.6554 C   0  0  0  0  0  0
  -29.4736  -20.1958   20.6331 C   0  0  0  0  0  0
  -29.7947  -17.2011   20.7896 C   0  0  0  0  0  0
  -30.3719  -17.9791   19.7459 C   0  0  0  0  0  0
  -29.0496  -17.9546   21.7316 C   0  0  0  0  0  0
  -28.6267  -22.6647   21.3425 C   0  0  0  0  0  0
  -29.4332  -22.5321   19.4411 C   0  0  0  0  0  0
  -29.1666  -23.7961   20.3608 C   0  0  2  0  0  0
  -30.3951  -24.4803   20.9703 C   0  0  0  0  0  0
  -28.1015  -24.9325   19.9472 C   0  0  0  0  0  0
  -29.3213  -21.6743   20.6270 N   0  0  0  0  0  0
  -29.7875  -15.7294   20.9213 N   0  0  0  0  0  0
  -27.8805  -22.5903   22.2962 O   0  0  0  0  0  0
  -31.0589  -17.3630   18.7543 F   0  0  0  0  0  0
  -28.4334  -17.2933   22.7425 F   0  0  0  0  0  0
  -31.4844  -12.5691   19.1589 H   0  0  0  0  0  0
  -30.3978  -11.4379   19.9146 H   0  0  0  0  0  0
  -29.7879  -11.7592   17.4969 H   0  0  0  0  0  0
  -29.6446  -13.4817   17.7402 H   0  0  0  0  0  0
  -27.8845  -11.2903   18.8846 H   0  0  0  0  0  0
  -27.3813  -12.5596   17.7998 H   0  0  0  0  0  0
  -27.6656  -14.2531   19.5151 H   0  0  0  0  0  0
  -28.7232  -12.0713   21.3798 H   0  0  0  0  0  0
  -28.4300  -13.7204   21.8464 H   0  0  0  0  0  0
  -25.2763   -9.5682   22.4755 H   0  0  0  0  0  0
  -23.9999   -7.4635   22.7474 H   0  0  0  0  0  0
  -21.0838   -8.8775   19.8954 H   0  0  0  0  0  0
  -22.3695  -10.9672   19.6164 H   0  0  0  0  0  0
  -21.2008   -7.6147   23.9714 H   0  0  0  0  0  0
  -21.1482   -6.0522   25.9076 H   0  0  0  0  0  0
  -22.0598   -2.7608   23.2847 H   0  0  0  0  0  0
  -22.4106  -11.9884   22.4800 H   0  0  0  0  0  0
  -21.1111  -13.1252   22.2620 H   0  0  0  0  0  0
  -24.6606  -15.8442   20.5241 H   0  0  0  0  0  0
  -26.2777  -15.6298   20.0855 H   0  0  0  0  0  0
  -26.7197  -32.5418   23.1085 H   0  0  0  0  0  0
  -25.0073  -33.9705   25.0406 H   0  0  0  0  0  0
  -22.7210  -31.3025   21.3996 H   0  0  0  0  0  0
  -23.3751  -35.9622   23.3300 H   0  0  0  0  0  0
  -24.3581  -36.8911   22.2053 H   0  0  0  0  0  0
  -23.7246  -37.6490   23.6663 H   0  0  0  0  0  0
  -26.1087  -31.5381   20.6109 H   0  0  0  0  0  0
  -26.8485  -30.8223   22.0113 H   0  0  0  0  0  0
  -28.1161  -28.9397   21.2071 H   0  0  0  0  0  0
  -25.9527  -25.9303   18.9748 H   0  0  0  0  0  0
  -23.9734  -27.3185   18.9929 H   0  0  0  0  0  0
  -23.7649  -30.5944   19.4039 H   0  0  0  0  0  0
  -22.7613  -29.2493   19.8542 H   0  0  0  0  0  0
  -25.1297  -36.1923   25.0818 H   0  0  0  0  0  0
  -20.9987  -28.3274   24.1392 H   0  0  0  0  0  0
  -20.5681  -26.2305   23.3610 H   0  0  0  0  0  0
  -21.6647  -26.7442   22.1199 H   0  0  0  0  0  0
  -19.6915  -25.6294   21.1244 H   0  0  0  0  0  0
  -19.6689  -27.3192   20.6740 H   0  0  0  0  0  0
  -17.4202  -26.6671   21.4032 H   0  0  0  0  0  0
  -18.0339  -26.0073   22.9026 H   0  0  0  0  0  0
  -19.7941  -30.7278   24.2257 H   0  0  0  0  0  0
  -17.5018  -31.6267   24.5165 H   0  0  0  0  0  0
  -15.5356  -30.2985   23.7658 H   0  0  0  0  0  0
  -15.8677  -28.0821   22.7069 H   0  0  0  0  0  0
  -24.5901  -30.7084   25.7777 H   0  0  0  0  0  0
  -24.8919  -32.2905   26.4863 H   0  0  0  0  0  0
  -25.8043  -30.8917   27.0230 H   0  0  0  0  0  0
  -26.2934  -29.6746   24.1225 H   0  0  0  0  0  0
  -27.4021  -29.7265   25.4731 H   0  0  0  0  0  0
  -27.8816  -30.4274   23.9460 H   0  0  0  0  0  0
  -27.2660  -33.3628   26.2068 H   0  0  0  0  0  0
  -28.3871  -32.6882   25.0333 H   0  0  0  0  0  0
  -28.0716  -31.8458   26.5426 H   0  0  0  0  0  0
  -28.2594  -38.0099   24.7512 H   0  0  0  0  0  0
  -28.1078  -36.2630   24.6288 H   0  0  0  0  0  0
  -27.2297  -37.1445   25.8867 H   0  0  0  0  0  0
  -20.9385  -29.8770   21.6871 H   0  0  0  0  0  0
  -26.0170  -38.2845   24.1408 H   0  0  0  0  0  0
  -30.6813  -19.9199   18.8605 H   0  0  0  0  0  0
  -28.3329  -19.8499   22.4335 H   0  0  0  0  0  0
  -30.4188  -22.5153   18.9731 H   0  0  0  0  0  0
  -28.6426  -22.3409   18.7110 H   0  0  0  0  0  0
  -31.1415  -23.7599   21.3081 H   0  0  0  0  0  0
  -30.1240  -25.0933   21.8304 H   0  0  0  0  0  0
  -30.8824  -25.1313   20.2446 H   0  0  0  0  0  0
  -27.1553  -24.6743   20.4253 H   0  0  0  0  0  0
  -27.9171  -24.8293   18.8773 H   0  0  0  0  0  0
  -28.9676  -15.3933   21.4020 H   0  0  0  0  0  0
  1 25  1  0  0  0
  1 30  2  0  0  0
  1 83  1  0  0  0
  2  3  1  0  0  0
  2 25  1  0  0  0
  2 87  1  0  0  0
  2 88  1  0  0  0
  3  4  1  0  0  0
  3 89  1  0  0  0
  3 90  1  0  0  0
  4  5  1  0  0  0
  4 91  1  0  0  0
  4 92  1  0  0  0
  5  6  1  0  0  0
  5 26  1  0  0  0
  5 93  1  0  0  0
  6 25  1  0  0  0
  6 94  1  0  0  0
  6 95  1  0  0  0
  7  8  2  0  0  0
  7 26  1  0  0  0
  7 29  1  0  0  0
  8  9  1  0  0  0
  8 22  1  0  0  0
  9 10  1  0  0  0
  9 27  2  0  0  0
 10 11  2  0  0  0
 10 15  1  0  0  0
 11 12  1  0  0  0
 11 96  1  0  0  0
 12 13  2  0  0  0
 12 97  1  0  0  0
 13 14  1  0  0  0
 13 31  1  0  0  0
 14 15  2  0  0  0
 14 98  1  0  0  0
 15 99  1  0  0  0
 16 17  2  0  0  0
 16 21  1  0  0  0
 16 31  1  0  0  0
 17 18  1  0  0  0
 17100  1  0  0  0
 18 19  2  0  0  0
 18101  1  0  0  0
 19 20  1  0  0  0
 19 24  1  0  0  0
 20 21  2  0  0  0
 20102  1  0  0  0
 21 23  1  0  0  0
 22 28  1  0  0  0
 22 32  2  0  0  0
 26 27  1  0  0  0
 28103  1  0  0  0
 28104  1  0  0  0
 29105  1  0  0  0
 29106  1  0  0  0
 33 34  1  0  0  0
 33 66  1  0  0  0
 33 70  2  0  0  0
 34 36  1  0  0  0
 34 59  1  0  0  0
 34107  1  0  0  0
 35 44  2  0  0  0
 35 45  1  0  0  0
 35 68  1  0  0  0
 36 56  1  0  0  0
 36108  1  0  0  0
 37 39  1  0  0  0
 37 47  1  0  0  0
 37 66  1  0  0  0
 37109  1  0  0  0
 38 43  2  0  0  0
 38 46  1  0  0  0
 38 47  1  0  0  0
 39 64  1  0  0  0
 39 67  2  0  0  0
 40 52  1  0  0  0
 40 53  2  0  0  0
 40 58  1  0  0  0
 41110  1  0  0  0
 41111  1  0  0  0
 41112  1  0  0  0
 41 48  1  0  0  0
 42 43  1  0  0  0
 42 66  1  0  0  0
 42113  1  0  0  0
 42114  1  0  0  0
 43 44  1  0  0  0
 44115  1  0  0  0
 45 46  2  0  0  0
 45116  1  0  0  0
 46117  1  0  0  0
 47118  1  0  0  0
 47119  1  0  0  0
 48 56  1  0  0  0
 48 65  1  0  0  0
 48120  1  0  0  0
 49 50  1  0  0  0
 49 53  1  0  0  0
 49 64  1  0  0  0
 49121  1  0  0  0
 50 51  1  0  0  0
 50122  1  0  0  0
 50123  1  0  0  0
 51 52  1  0  0  0
 51124  1  0  0  0
 51125  1  0  0  0
 52126  1  0  0  0
 52127  1  0  0  0
 53 54  1  0  0  0
 54 55  2  0  0  0
 54128  1  0  0  0
 55 57  1  0  0  0
 55129  1  0  0  0
 56 69  2  0  0  0
 57 58  2  0  0  0
 57130  1  0  0  0
 58131  1  0  0  0
 59 60  1  0  0  0
 59 61  1  0  0  0
 59 62  1  0  0  0
 60132  1  0  0  0
 60133  1  0  0  0
 60134  1  0  0  0
 61135  1  0  0  0
 61136  1  0  0  0
 61137  1  0  0  0
 62138  1  0  0  0
 62139  1  0  0  0
 62140  1  0  0  0
 63 65  1  0  0  0
 63141  1  0  0  0
 63142  1  0  0  0
 63143  1  0  0  0
 64144  1  0  0  0
 65145  1  0  0  0
 68 81  1  0  0  0
 71 73  2  0  0  0
 71 75  1  0  0  0
 71146  1  0  0  0
 72 73  1  0  0  0
 72 76  2  0  0  0
 72147  1  0  0  0
 73 82  1  0  0  0
 74 75  2  0  0  0
 74 76  1  0  0  0
 74 83  1  0  0  0
 75 85  1  0  0  0
 76 86  1  0  0  0
 77 79  1  0  0  0
 77 82  1  0  0  0
 77 84  2  0  0  0
 78 79  1  0  0  0
 78 82  1  0  0  0
 78148  1  0  0  0
 78149  1  0  0  0
 79 80  1  0  0  0
 79 81  1  0  0  0
 80150  1  0  0  0
 80151  1  0  0  0
 80152  1  0  0  0
 81153  1  0  0  0
 81154  1  0  0  0
 83155  1  0  0  0
M  ISO  4   1 100  68 101  81 101  83 100
M  END
> <chiral flag>
0

> <version>
0

> <s_m_source_file>
/data/baiqing/PycharmProjects/Reinvent-master-3.2/result/LINK_invent/BTK/process_docking_weight1_custom_product_contain_oxygen_bond_distance_aromatic_linkinvent_7_9_3/rearranged_h_0072.sdf

> <i_m_source_file_index>
85

> <r_mmod_Potential_Energy-OPLS-2005>
84.9421081542969

> <r_mmod_Stretch_Energy-OPLS-2005>
101.919395446777

> <r_mmod_Bend_Energy-OPLS-2005>
191.160034179688

> <r_mmod_Torsional_Energy-OPLS-2005>
239.46028137207

> <r_mmod_Improper_Torsional_Energy-OPLS-2005>
4.69117736816406

> <r_mmod_Van_der_Waal_Energy-OPLS-2005>
140.64094543457

> <r_mmod_Electrostatic_Energy-OPLS-2005>
-442.275817871094

> <r_mmod_Solvation_Energy-OPLS-2005>
-220.047576904297

> <b_mmod_Minimization_Converged-OPLS-2005>
0

> <r_mmod_RMS_Derivative-OPLS-2005>
0.217274308204651

$$$$
85
                    3D
 Structure written by MMmdl.
161170  0  0  1  0            999 V2000
  -30.6307  -14.8039   20.4317 C   0  0  0  0  0  0
  -30.4228  -12.4917   19.4869 C   0  0  0  0  0  0
  -29.5098  -12.5054   18.2424 C   0  0  0  0  0  0
  -28.0382  -12.3245   18.6586 C   0  0  0  0  0  0
  -27.6343  -13.2436   19.8425 C   0  0  2  0  0  0
  -28.6788  -13.2346   20.9794 C   0  0  0  0  0  0
  -25.2481  -13.8221   20.5713 C   0  0  0  0  0  0
  -24.1788  -13.0453   20.9231 C   0  0  0  0  0  0
  -24.6395  -11.6934   20.8760 C   0  0  0  0  0  0
  -23.9082  -10.4303   21.0412 C   0  0  0  0  0  0
  -24.3630   -9.4212   21.9184 C   0  0  0  0  0  0
  -23.6303   -8.2245   22.0750 C   0  0  0  0  0  0
  -22.4283   -8.0285   21.3544 C   0  0  0  0  0  0
  -21.9926   -9.0258   20.4642 C   0  0  0  0  0  0
  -22.7257  -10.2140   20.3056 C   0  0  0  0  0  0
  -21.6854   -6.0742   22.5281 C   0  0  0  0  0  0
  -21.4014   -6.5644   23.8215 C   0  0  0  0  0  0
  -21.3658   -5.6794   24.9174 C   0  0  0  0  0  0
  -21.6044   -4.3060   24.7221 C   0  0  0  0  0  0
  -21.8819   -3.8155   23.4343 C   0  0  0  0  0  0
  -21.9194   -4.6971   22.3405 C   0  0  0  0  0  0
  -22.7808  -13.5224   21.1886 C   0  0  0  0  0  0
  -22.1662   -4.2160   21.0982 F   0  0  0  0  0  0
  -21.5629   -3.4542   25.7732 F   0  0  0  0  0  0
  -29.9711  -13.5887   20.3828 N   0  0  0  0  0  0
  -26.2906  -12.9448   20.3270 N   0  0  0  0  0  0
  -25.9329  -11.6584   20.5757 N   0  0  0  0  0  0
  -22.0450  -12.8205   22.0428 N   0  0  0  0  0  0
  -25.4162  -15.1946   20.4136 N   0  0  0  0  0  0
  -31.8369  -14.7935   20.1806 O   0  0  0  0  0  0
  -21.6645   -6.8885   21.4242 O   0  0  0  0  0  0
  -22.3497  -14.5527   20.6724 O   0  0  0  0  0  0
  -24.6359  -31.8531   23.1962 C   0  0  0  0  0  0
  -25.9168  -32.4736   23.8323 C   0  0  1  0  0  0
  -27.2060  -27.2166   20.1366 C   0  0  0  0  0  0
  -25.5953  -33.8545   24.2250 N   0  0  0  0  0  0
  -23.4332  -30.4780   21.5400 C   0  0  2  0  0  0
  -24.8794  -28.9223   20.1049 C   0  0  0  0  0  0
  -22.7521  -29.4602   22.4884 C   0  0  0  0  0  0
  -18.0299  -28.1402   22.8476 C   0  0  0  0  0  0
  -24.1490  -36.7258   23.2641 C   0  0  0  0  0  0
  -25.9838  -30.7508   21.3842 C   0  0  0  0  0  0
  -26.0532  -29.3716   20.7228 C   0  0  0  0  0  0
  -27.2192  -28.5318   20.7278 C   0  0  0  0  0  0
  -26.0141  -26.8608   19.4636 C   0  0  0  0  0  0
  -24.8679  -27.6772   19.4614 C   0  0  0  0  0  0
  -23.6535  -29.8151   20.1550 C   0  0  0  0  0  0
  -25.4117  -36.3051   24.0327 C   0  0  1  0  0  0
  -20.5908  -28.3723   23.1246 C   0  0  2  0  0  0
  -20.6783  -26.9440   22.5395 C   0  0  0  0  0  0
  -19.5755  -26.6397   21.5206 C   0  0  0  0  0  0
  -18.1937  -26.7942   22.1623 C   0  0  0  0  0  0
  -19.1554  -28.8881   23.2854 C   0  0  0  0  0  0
  -18.9470  -30.1477   23.8883 C   0  0  0  0  0  0
  -17.6468  -30.6598   24.0567 C   0  0  0  0  0  0
  -25.9059  -34.9428   23.5081 C   0  0  0  0  0  0
  -16.5360  -29.9092   23.6341 C   0  0  0  0  0  0
  -16.7283  -28.6510   23.0360 C   0  0  0  0  0  0
  -26.4526  -31.6572   25.0727 C   0  0  0  0  0  0
  -25.3740  -31.3737   26.1440 C   0  0  0  0  0  0
  -27.0381  -30.2980   24.6250 C   0  0  0  0  0  0
  -27.6078  -32.4323   25.7496 C   0  0  0  0  0  0
  -27.5580  -37.1783   24.8471 C   0  0  0  0  0  0
  -21.4224  -29.3058   22.3624 N   0  0  0  0  0  0
  -26.4283  -37.3760   23.9422 N   0  0  0  0  0  0
  -24.7035  -31.0466   22.0955 N   0  0  0  0  0  0
  -23.4207  -28.8145   23.2999 O   0  0  0  0  0  0
  -28.2646  -26.2666   20.2299 O   0  0  0  0  0  0
  -26.5630  -34.8906   22.4650 O   0  0  0  0  0  0
  -23.5499  -32.1379   23.7226 O   0  0  0  0  0  0
  -31.2577  -20.1183   19.6866 C   0  0  0  0  0  0
  -31.5886  -17.6935   19.7041 C   0  0  0  0  0  0
  -29.5319  -18.6818   20.5337 C   0  0  0  0  0  0
  -32.0488  -18.9881   19.4193 C   0  0  0  0  0  0
  -29.9571  -20.0736   20.2480 C   0  0  0  0  0  0
  -30.3232  -17.4540   20.2877 C   0  0  0  0  0  0
  -28.1033  -22.0816   20.7265 C   0  0  0  0  0  0
  -33.3764  -19.1665   18.8357 C   0  0  0  0  0  0
  -29.8992  -22.7037   19.9280 C   0  0  0  0  0  0
  -28.8094  -23.5405   20.6998 C   0  0  2  0  0  0
  -29.1377  -23.9560   22.1377 C   0  0  0  0  0  0
  -27.9691  -24.7795   20.0381 C   0  0  0  0  0  0
  -29.3299  -21.4375   20.4582 N   0  0  0  0  0  0
  -34.2229  -20.0597   19.3416 N   0  0  0  0  0  0
  -29.9202  -16.0152   20.5619 N   0  0  0  0  0  0
  -33.7546  -18.4387   17.7876 N   0  3  0  0  0  0
  -26.9853  -21.6353   20.8723 O   0  0  0  0  0  0
  -31.4654  -12.5984   19.1818 H   0  0  0  0  0  0
  -30.3624  -11.5308   19.9995 H   0  0  0  0  0  0
  -29.8017  -11.7155   17.5490 H   0  0  0  0  0  0
  -29.6302  -13.4464   17.7039 H   0  0  0  0  0  0
  -27.9069  -11.2800   18.9425 H   0  0  0  0  0  0
  -27.3789  -12.4913   17.8060 H   0  0  0  0  0  0
  -27.6117  -14.2539   19.4338 H   0  0  0  0  0  0
  -28.7301  -12.2557   21.4578 H   0  0  0  0  0  0
  -28.4061  -13.9458   21.7604 H   0  0  0  0  0  0
  -25.2770   -9.5688   22.4767 H   0  0  0  0  0  0
  -24.0012   -7.4637   22.7467 H   0  0  0  0  0  0
  -21.0861   -8.8782   19.8945 H   0  0  0  0  0  0
  -22.3715  -10.9680   19.6169 H   0  0  0  0  0  0
  -21.2003   -7.6148   23.9720 H   0  0  0  0  0  0
  -21.1480   -6.0522   25.9076 H   0  0  0  0  0  0
  -22.0598   -2.7618   23.2841 H   0  0  0  0  0  0
  -22.4065  -11.9870   22.4823 H   0  0  0  0  0  0
  -21.1060  -13.1223   22.2616 H   0  0  0  0  0  0
  -24.6467  -15.8465   20.5197 H   0  0  0  0  0  0
  -26.2586  -15.6336   20.0657 H   0  0  0  0  0  0
  -26.7231  -32.5370   23.1058 H   0  0  0  0  0  0
  -25.0114  -33.9684   25.0408 H   0  0  0  0  0  0
  -22.7307  -31.3013   21.3947 H   0  0  0  0  0  0
  -23.3758  -35.9586   23.3288 H   0  0  0  0  0  0
  -24.3572  -36.8892   22.2057 H   0  0  0  0  0  0
  -23.7234  -37.6449   23.6669 H   0  0  0  0  0  0
  -26.1329  -31.5101   20.6153 H   0  0  0  0  0  0
  -26.8569  -30.7955   22.0231 H   0  0  0  0  0  0
  -28.1121  -28.8654   21.2383 H   0  0  0  0  0  0
  -25.9310  -25.9175   18.9456 H   0  0  0  0  0  0
  -23.9728  -27.3325   18.9609 H   0  0  0  0  0  0
  -23.7818  -30.5930   19.4017 H   0  0  0  0  0  0
  -22.7697  -29.2520   19.8475 H   0  0  0  0  0  0
  -25.1303  -36.1884   25.0819 H   0  0  0  0  0  0
  -21.0003  -28.3298   24.1367 H   0  0  0  0  0  0
  -20.5676  -26.2344   23.3607 H   0  0  0  0  0  0
  -21.6655  -26.7450   22.1209 H   0  0  0  0  0  0
  -19.6903  -25.6298   21.1256 H   0  0  0  0  0  0
  -19.6687  -27.3191   20.6722 H   0  0  0  0  0  0
  -17.4213  -26.6698   21.4017 H   0  0  0  0  0  0
  -18.0330  -26.0086   22.9026 H   0  0  0  0  0  0
  -19.7943  -30.7300   24.2251 H   0  0  0  0  0  0
  -17.5023  -31.6277   24.5173 H   0  0  0  0  0  0
  -15.5354  -30.2997   23.7671 H   0  0  0  0  0  0
  -15.8683  -28.0823   22.7094 H   0  0  0  0  0  0
  -24.5921  -30.7080   25.7769 H   0  0  0  0  0  0
  -24.8930  -32.2913   26.4836 H   0  0  0  0  0  0
  -25.8054  -30.8934   27.0232 H   0  0  0  0  0  0
  -26.2978  -29.6704   24.1274 H   0  0  0  0  0  0
  -27.4042  -29.7272   25.4794 H   0  0  0  0  0  0
  -27.8871  -30.4243   23.9527 H   0  0  0  0  0  0
  -27.2702  -33.3661   26.2009 H   0  0  0  0  0  0
  -28.3918  -32.6820   25.0331 H   0  0  0  0  0  0
  -28.0713  -31.8485   26.5459 H   0  0  0  0  0  0
  -28.2594  -38.0087   24.7529 H   0  0  0  0  0  0
  -28.1079  -36.2613   24.6279 H   0  0  0  0  0  0
  -27.2297  -37.1418   25.8877 H   0  0  0  0  0  0
  -20.9415  -29.8779   21.6826 H   0  0  0  0  0  0
  -26.0142  -38.2826   24.1430 H   0  0  0  0  0  0
  -31.7021  -21.0652   19.4228 H   0  0  0  0  0  0
  -32.2664  -16.8959   19.4573 H   0  0  0  0  0  0
  -28.5545  -18.5561   20.9755 H   0  0  0  0  0  0
  -30.9121  -22.9294   20.2667 H   0  0  0  0  0  0
  -29.8199  -22.7794   18.8404 H   0  0  0  0  0  0
  -29.6601  -23.1713   22.6869 H   0  0  0  0  0  0
  -28.2346  -24.1993   22.6988 H   0  0  0  0  0  0
  -29.7750  -24.8399   22.1540 H   0  0  0  0  0  0
  -26.9479  -24.6284   20.3882 H   0  0  0  0  0  0
  -27.9181  -24.6169   18.9614 H   0  0  0  0  0  0
  -33.9711  -20.5526   20.1862 H   0  0  0  0  0  0
  -35.1418  -20.2219   18.9603 H   0  0  0  0  0  0
  -28.9517  -15.8868   20.8110 H   0  0  0  0  0  0
  -33.0918  -17.8020   17.3696 H   0  0  0  0  0  0
  -34.6591  -18.5356   17.3544 H   0  0  0  0  0  0
  1 25  1  0  0  0
  1 30  2  0  0  0
  1 85  1  0  0  0
  2  3  1  0  0  0
  2 25  1  0  0  0
  2 88  1  0  0  0
  2 89  1  0  0  0
  3  4  1  0  0  0
  3 90  1  0  0  0
  3 91  1  0  0  0
  4  5  1  0  0  0
  4 92  1  0  0  0
  4 93  1  0  0  0
  5  6  1  0  0  0
  5 26  1  0  0  0
  5 94  1  0  0  0
  6 25  1  0  0  0
  6 95  1  0  0  0
  6 96  1  0  0  0
  7  8  2  0  0  0
  7 26  1  0  0  0
  7 29  1  0  0  0
  8  9  1  0  0  0
  8 22  1  0  0  0
  9 10  1  0  0  0
  9 27  2  0  0  0
 10 11  2  0  0  0
 10 15  1  0  0  0
 11 12  1  0  0  0
 11 97  1  0  0  0
 12 13  2  0  0  0
 12 98  1  0  0  0
 13 14  1  0  0  0
 13 31  1  0  0  0
 14 15  2  0  0  0
 14 99  1  0  0  0
 15100  1  0  0  0
 16 17  2  0  0  0
 16 21  1  0  0  0
 16 31  1  0  0  0
 17 18  1  0  0  0
 17101  1  0  0  0
 18 19  2  0  0  0
 18102  1  0  0  0
 19 20  1  0  0  0
 19 24  1  0  0  0
 20 21  2  0  0  0
 20103  1  0  0  0
 21 23  1  0  0  0
 22 28  1  0  0  0
 22 32  2  0  0  0
 26 27  1  0  0  0
 28104  1  0  0  0
 28105  1  0  0  0
 29106  1  0  0  0
 29107  1  0  0  0
 33 34  1  0  0  0
 33 66  1  0  0  0
 33 70  2  0  0  0
 34 36  1  0  0  0
 34 59  1  0  0  0
 34108  1  0  0  0
 35 44  2  0  0  0
 35 45  1  0  0  0
 35 68  1  0  0  0
 36 56  1  0  0  0
 36109  1  0  0  0
 37 39  1  0  0  0
 37 47  1  0  0  0
 37 66  1  0  0  0
 37110  1  0  0  0
 38 43  2  0  0  0
 38 46  1  0  0  0
 38 47  1  0  0  0
 39 64  1  0  0  0
 39 67  2  0  0  0
 40 52  1  0  0  0
 40 53  2  0  0  0
 40 58  1  0  0  0
 41111  1  0  0  0
 41112  1  0  0  0
 41113  1  0  0  0
 41 48  1  0  0  0
 42 43  1  0  0  0
 42 66  1  0  0  0
 42114  1  0  0  0
 42115  1  0  0  0
 43 44  1  0  0  0
 44116  1  0  0  0
 45 46  2  0  0  0
 45117  1  0  0  0
 46118  1  0  0  0
 47119  1  0  0  0
 47120  1  0  0  0
 48 56  1  0  0  0
 48 65  1  0  0  0
 48121  1  0  0  0
 49 50  1  0  0  0
 49 53  1  0  0  0
 49 64  1  0  0  0
 49122  1  0  0  0
 50 51  1  0  0  0
 50123  1  0  0  0
 50124  1  0  0  0
 51 52  1  0  0  0
 51125  1  0  0  0
 51126  1  0  0  0
 52127  1  0  0  0
 52128  1  0  0  0
 53 54  1  0  0  0
 54 55  2  0  0  0
 54129  1  0  0  0
 55 57  1  0  0  0
 55130  1  0  0  0
 56 69  2  0  0  0
 57 58  2  0  0  0
 57131  1  0  0  0
 58132  1  0  0  0
 59 60  1  0  0  0
 59 61  1  0  0  0
 59 62  1  0  0  0
 60133  1  0  0  0
 60134  1  0  0  0
 60135  1  0  0  0
 61136  1  0  0  0
 61137  1  0  0  0
 61138  1  0  0  0
 62139  1  0  0  0
 62140  1  0  0  0
 62141  1  0  0  0
 63 65  1  0  0  0
 63142  1  0  0  0
 63143  1  0  0  0
 63144  1  0  0  0
 64145  1  0  0  0
 65146  1  0  0  0
 68 82  1  0  0  0
 71 74  2  0  0  0
 71 75  1  0  0  0
 71147  1  0  0  0
 72 74  1  0  0  0
 72 76  2  0  0  0
 72148  1  0  0  0
 73 75  2  0  0  0
 73 76  1  0  0  0
 73149  1  0  0  0
 74 78  1  0  0  0
 75 83  1  0  0  0
 76 85  1  0  0  0
 77 80  1  0  0  0
 77 83  1  0  0  0
 77 87  2  0  0  0
 78 84  1  0  0  0
 78 86  2  0  0  0
 79 80  1  0  0  0
 79 83  1  0  0  0
 79150  1  0  0  0
 79151  1  0  0  0
 80 81  1  0  0  0
 80 82  1  0  0  0
 81152  1  0  0  0
 81153  1  0  0  0
 81154  1  0  0  0
 82155  1  0  0  0
 82156  1  0  0  0
 84157  1  0  0  0
 84158  1  0  0  0
 85159  1  0  0  0
 86160  1  0  0  0
 86161  1  0  0  0
M  CHG  1  86   1
M  ISO  4   1 100  68 101  82 101  85 100
M  END
> <chiral flag>
0

> <version>
0

> <s_m_source_file>
/data/baiqing/PycharmProjects/Reinvent-master-3.2/result/LINK_invent/BTK/process_docking_weight1_custom_product_contain_oxygen_bond_distance_aromatic_linkinvent_7_9_3/rearranged_h_0072.sdf

> <i_m_source_file_index>
86

> <r_mmod_Potential_Energy-OPLS-2005>
-0.419259339570999

> <r_mmod_Stretch_Energy-OPLS-2005>
173.333541870117

> <r_mmod_Bend_Energy-OPLS-2005>
235.60856628418

> <r_mmod_Torsional_Energy-OPLS-2005>
238.867828369141

> <r_mmod_Improper_Torsional_Energy-OPLS-2005>
5.4395866394043

> <r_mmod_Van_der_Waal_Energy-OPLS-2005>
155.975051879883

> <r_mmod_Electrostatic_Energy-OPLS-2005>
-480.252838134766

> <r_mmod_Solvation_Energy-OPLS-2005>
-449.061553955078

> <b_mmod_Minimization_Converged-OPLS-2005>
0

> <r_mmod_RMS_Derivative-OPLS-2005>
1.40607523918152

$$$$
86
                    3D
 Structure written by MMmdl.
156165  0  0  1  0            999 V2000
  -30.7117  -14.5130   20.4711 C   0  0  0  0  0  0
  -30.4082  -12.3069   19.4486 C   0  0  0  0  0  0
  -29.4948  -12.4759   18.2175 C   0  0  0  0  0  0
  -28.0163  -12.3433   18.6285 C   0  0  0  0  0  0
  -27.6506  -13.2179   19.8587 C   0  0  2  0  0  0
  -28.6946  -13.0813   20.9913 C   0  0  0  0  0  0
  -25.2543  -13.8185   20.5682 C   0  0  0  0  0  0
  -24.1815  -13.0445   20.9197 C   0  0  0  0  0  0
  -24.6386  -11.6918   20.8752 C   0  0  0  0  0  0
  -23.9062  -10.4297   21.0411 C   0  0  0  0  0  0
  -24.3617   -9.4208   21.9183 C   0  0  0  0  0  0
  -23.6294   -8.2244   22.0751 C   0  0  0  0  0  0
  -22.4275   -8.0283   21.3542 C   0  0  0  0  0  0
  -21.9908   -9.0258   20.4647 C   0  0  0  0  0  0
  -22.7236  -10.2136   20.3059 C   0  0  0  0  0  0
  -21.6853   -6.0735   22.5278 C   0  0  0  0  0  0
  -21.4016   -6.5640   23.8213 C   0  0  0  0  0  0
  -21.3658   -5.6791   24.9174 C   0  0  0  0  0  0
  -21.6043   -4.3055   24.7226 C   0  0  0  0  0  0
  -21.8820   -3.8145   23.4346 C   0  0  0  0  0  0
  -21.9193   -4.6963   22.3401 C   0  0  0  0  0  0
  -22.7837  -13.5233   21.1857 C   0  0  0  0  0  0
  -22.1661   -4.2146   21.0978 F   0  0  0  0  0  0
  -21.5628   -3.4539   25.7739 F   0  0  0  0  0  0
  -30.0198  -13.3438   20.4183 N   0  0  0  0  0  0
  -26.2973  -12.9375   20.3313 N   0  0  0  0  0  0
  -25.9315  -11.6528   20.5774 N   0  0  0  0  0  0
  -22.0481  -12.8229   22.0419 N   0  0  0  0  0  0
  -25.4241  -15.1904   20.4064 N   0  0  0  0  0  0
  -31.9084  -14.5708   20.1820 O   0  0  0  0  0  0
  -21.6641   -6.8879   21.4240 O   0  0  0  0  0  0
  -22.3522  -14.5536   20.6700 O   0  0  0  0  0  0
  -24.6153  -31.8678   23.2092 C   0  0  0  0  0  0
  -25.9043  -32.4819   23.8390 C   0  0  1  0  0  0
  -27.2277  -27.4261   20.1041 C   0  0  0  0  0  0
  -25.5901  -33.8617   24.2326 N   0  0  0  0  0  0
  -23.4049  -30.4907   21.5490 C   0  0  2  0  0  0
  -24.8532  -28.9580   20.1111 C   0  0  0  0  0  0
  -22.7420  -29.4654   22.4973 C   0  0  0  0  0  0
  -18.0276  -28.1375   22.8488 C   0  0  0  0  0  0
  -24.1489  -36.7316   23.2636 C   0  0  0  0  0  0
  -25.9347  -30.8317   21.3638 C   0  0  0  0  0  0
  -26.0142  -29.4661   20.7103 C   0  0  0  0  0  0
  -27.2093  -28.7071   20.7050 C   0  0  0  0  0  0
  -26.0560  -26.9363   19.4943 C   0  0  0  0  0  0
  -24.8692  -27.6929   19.4976 C   0  0  0  0  0  0
  -23.6143  -29.8243   20.1628 C   0  0  0  0  0  0
  -25.4106  -36.3109   24.0336 C   0  0  1  0  0  0
  -20.5870  -28.3664   23.1311 C   0  0  2  0  0  0
  -20.6766  -26.9396   22.5415 C   0  0  0  0  0  0
  -19.5746  -26.6379   21.5209 C   0  0  0  0  0  0
  -18.1924  -26.7919   22.1622 C   0  0  0  0  0  0
  -19.1526  -28.8833   23.2899 C   0  0  0  0  0  0
  -18.9454  -30.1439   23.8908 C   0  0  0  0  0  0
  -17.6458  -30.6578   24.0565 C   0  0  0  0  0  0
  -25.9033  -34.9474   23.5128 C   0  0  0  0  0  0
  -16.5350  -29.9079   23.6325 C   0  0  0  0  0  0
  -16.7266  -28.6498   23.0344 C   0  0  0  0  0  0
  -26.4473  -31.6591   25.0715 C   0  0  0  0  0  0
  -25.3742  -31.3714   26.1472 C   0  0  0  0  0  0
  -27.0286  -30.3023   24.6088 C   0  0  0  0  0  0
  -27.6057  -32.4301   25.7472 C   0  0  0  0  0  0
  -27.5584  -37.1809   24.8460 C   0  0  0  0  0  0
  -21.4144  -29.3031   22.3712 N   0  0  0  0  0  0
  -26.4294  -37.3791   23.9408 N   0  0  0  0  0  0
  -24.6697  -31.0774   22.0994 N   0  0  0  0  0  0
  -23.4189  -28.8196   23.3017 O   0  0  0  0  0  0
  -28.3377  -26.6128   20.1333 O   0  0  0  0  0  0
  -26.5595  -34.8928   22.4689 O   0  0  0  0  0  0
  -23.5341  -32.1428   23.7481 O   0  0  0  0  0  0
  -30.7677  -19.3713   20.0830 C   0  0  0  0  0  0
  -28.5820  -18.5039   20.6232 C   0  0  0  0  0  0
  -30.3022  -20.6886   20.2760 C   0  0  0  0  0  0
  -28.1300  -19.8356   20.8166 C   0  0  0  0  0  0
  -29.9136  -18.2565   20.2300 C   0  0  0  0  0  0
  -28.9605  -20.9726   20.6223 C   0  0  0  0  0  0
  -28.4638  -24.3005   20.9042 C   0  0  0  0  0  0
  -28.4011  -23.2041   21.8357 C   0  0  0  0  0  0
  -28.2860  -25.6291   21.0996 C   0  0  0  0  0  0
  -28.7818  -23.3484   19.7700 C   0  0  0  0  0  0
  -30.2167  -16.7233   18.2795 C   0  0  0  0  0  0
  -30.4455  -16.8774   19.7963 C   0  0  2  0  0  0
  -28.4555  -22.3053   20.7673 N   0  0  0  0  0  0
  -29.9762  -15.6519   20.4925 N   0  0  0  0  0  0
  -28.4369  -23.1650   23.0482 O   0  0  0  0  0  0
  -31.4559  -12.3751   19.1513 H   0  0  0  0  0  0
  -30.2862  -11.3158   19.8886 H   0  0  0  0  0  0
  -29.7401  -11.7294   17.4610 H   0  0  0  0  0  0
  -29.6653  -13.4495   17.7550 H   0  0  0  0  0  0
  -27.8338  -11.2923   18.8552 H   0  0  0  0  0  0
  -27.3671  -12.5874   17.7867 H   0  0  0  0  0  0
  -27.6693  -14.2512   19.5136 H   0  0  0  0  0  0
  -28.6699  -12.0792   21.4215 H   0  0  0  0  0  0
  -28.4740  -13.7708   21.8077 H   0  0  0  0  0  0
  -25.2764   -9.5681   22.4756 H   0  0  0  0  0  0
  -24.0004   -7.4631   22.7466 H   0  0  0  0  0  0
  -21.0838   -8.8777   19.8952 H   0  0  0  0  0  0
  -22.3694  -10.9678   19.6170 H   0  0  0  0  0  0
  -21.2010   -7.6150   23.9715 H   0  0  0  0  0  0
  -21.1480   -6.0523   25.9076 H   0  0  0  0  0  0
  -22.0601   -2.7607   23.2849 H   0  0  0  0  0  0
  -22.4102  -11.9894   22.4816 H   0  0  0  0  0  0
  -21.1100  -13.1252   22.2623 H   0  0  0  0  0  0
  -24.6532  -15.8415   20.5081 H   0  0  0  0  0  0
  -26.2635  -15.6260   20.0473 H   0  0  0  0  0  0
  -26.7119  -32.5539   23.1158 H   0  0  0  0  0  0
  -25.0055  -33.9774   25.0471 H   0  0  0  0  0  0
  -22.6936  -31.3076   21.4102 H   0  0  0  0  0  0
  -23.3744  -35.9659   23.3303 H   0  0  0  0  0  0
  -24.3585  -36.8921   22.2050 H   0  0  0  0  0  0
  -23.7251  -37.6527   23.6644 H   0  0  0  0  0  0
  -26.0476  -31.5981   20.5954 H   0  0  0  0  0  0
  -26.8216  -30.8851   21.9829 H   0  0  0  0  0  0
  -28.1038  -29.0856   21.1793 H   0  0  0  0  0  0
  -26.0614  -25.9586   19.0338 H   0  0  0  0  0  0
  -23.9767  -27.2955   19.0338 H   0  0  0  0  0  0
  -23.7219  -30.6005   19.4042 H   0  0  0  0  0  0
  -22.7383  -29.2442   19.8669 H   0  0  0  0  0  0
  -25.1280  -36.1975   25.0828 H   0  0  0  0  0  0
  -20.9966  -28.3235   24.1431 H   0  0  0  0  0  0
  -20.5661  -26.2273   23.3605 H   0  0  0  0  0  0
  -21.6641  -26.7433   22.1219 H   0  0  0  0  0  0
  -19.6911  -25.6293   21.1228 H   0  0  0  0  0  0
  -19.6685  -27.3198   20.6746 H   0  0  0  0  0  0
  -17.4197  -26.6664   21.4024 H   0  0  0  0  0  0
  -18.0329  -26.0056   22.9012 H   0  0  0  0  0  0
  -19.7932  -30.7250   24.2283 H   0  0  0  0  0  0
  -17.5013  -31.6259   24.5162 H   0  0  0  0  0  0
  -15.5351  -30.2988   23.7633 H   0  0  0  0  0  0
  -15.8670  -28.0821   22.7050 H   0  0  0  0  0  0
  -24.5898  -30.7077   25.7819 H   0  0  0  0  0  0
  -24.8962  -32.2884   26.4932 H   0  0  0  0  0  0
  -25.8096  -30.8874   27.0222 H   0  0  0  0  0  0
  -26.2825  -29.6798   24.1139 H   0  0  0  0  0  0
  -27.4046  -29.7247   25.4542 H   0  0  0  0  0  0
  -27.8669  -30.4329   23.9238 H   0  0  0  0  0  0
  -27.2680  -33.3584   26.2094 H   0  0  0  0  0  0
  -28.3845  -32.6885   25.0283 H   0  0  0  0  0  0
  -28.0751  -31.8397   26.5352 H   0  0  0  0  0  0
  -28.2607  -38.0102   24.7509 H   0  0  0  0  0  0
  -28.1077  -36.2637   24.6279 H   0  0  0  0  0  0
  -27.2308  -37.1451   25.8865 H   0  0  0  0  0  0
  -20.9298  -29.8761   21.6944 H   0  0  0  0  0  0
  -26.0185  -38.2872   24.1408 H   0  0  0  0  0  0
  -31.7929  -19.2267   19.7721 H   0  0  0  0  0  0
  -27.8856  -17.6848   20.7316 H   0  0  0  0  0  0
  -31.0037  -21.4983   20.1329 H   0  0  0  0  0  0
  -27.0953  -19.9881   21.0908 H   0  0  0  0  0  0
  -28.0507  -26.0344   22.0748 H   0  0  0  0  0  0
  -29.8194  -23.3275   19.4338 H   0  0  0  0  0  0
  -28.1035  -23.3228   18.9159 H   0  0  0  0  0  0
  -30.6631  -17.5542   17.7318 H   0  0  0  0  0  0
  -29.1533  -16.7045   18.0369 H   0  0  0  0  0  0
  -30.6656  -15.8108   17.8871 H   0  0  0  0  0  0
  -31.5239  -16.9480   19.9535 H   0  0  0  0  0  0
  -28.9950  -15.5736   20.7066 H   0  0  0  0  0  0
  1 25  1  0  0  0
  1 30  2  0  0  0
  1 84  1  0  0  0
  2  3  1  0  0  0
  2 25  1  0  0  0
  2 86  1  0  0  0
  2 87  1  0  0  0
  3  4  1  0  0  0
  3 88  1  0  0  0
  3 89  1  0  0  0
  4  5  1  0  0  0
  4 90  1  0  0  0
  4 91  1  0  0  0
  5  6  1  0  0  0
  5 26  1  0  0  0
  5 92  1  0  0  0
  6 25  1  0  0  0
  6 93  1  0  0  0
  6 94  1  0  0  0
  7  8  2  0  0  0
  7 26  1  0  0  0
  7 29  1  0  0  0
  8  9  1  0  0  0
  8 22  1  0  0  0
  9 10  1  0  0  0
  9 27  2  0  0  0
 10 11  2  0  0  0
 10 15  1  0  0  0
 11 12  1  0  0  0
 11 95  1  0  0  0
 12 13  2  0  0  0
 12 96  1  0  0  0
 13 14  1  0  0  0
 13 31  1  0  0  0
 14 15  2  0  0  0
 14 97  1  0  0  0
 15 98  1  0  0  0
 16 17  2  0  0  0
 16 21  1  0  0  0
 16 31  1  0  0  0
 17 18  1  0  0  0
 17 99  1  0  0  0
 18 19  2  0  0  0
 18100  1  0  0  0
 19 20  1  0  0  0
 19 24  1  0  0  0
 20 21  2  0  0  0
 20101  1  0  0  0
 21 23  1  0  0  0
 22 28  1  0  0  0
 22 32  2  0  0  0
 26 27  1  0  0  0
 28102  1  0  0  0
 28103  1  0  0  0
 29104  1  0  0  0
 29105  1  0  0  0
 33 34  1  0  0  0
 33 66  1  0  0  0
 33 70  2  0  0  0
 34 36  1  0  0  0
 34 59  1  0  0  0
 34106  1  0  0  0
 35 44  2  0  0  0
 35 45  1  0  0  0
 35 68  1  0  0  0
 36 56  1  0  0  0
 36107  1  0  0  0
 37 39  1  0  0  0
 37 47  1  0  0  0
 37 66  1  0  0  0
 37108  1  0  0  0
 38 43  2  0  0  0
 38 46  1  0  0  0
 38 47  1  0  0  0
 39 64  1  0  0  0
 39 67  2  0  0  0
 40 52  1  0  0  0
 40 53  2  0  0  0
 40 58  1  0  0  0
 41109  1  0  0  0
 41110  1  0  0  0
 41111  1  0  0  0
 41 48  1  0  0  0
 42 43  1  0  0  0
 42 66  1  0  0  0
 42112  1  0  0  0
 42113  1  0  0  0
 43 44  1  0  0  0
 44114  1  0  0  0
 45 46  2  0  0  0
 45115  1  0  0  0
 46116  1  0  0  0
 47117  1  0  0  0
 47118  1  0  0  0
 48 56  1  0  0  0
 48 65  1  0  0  0
 48119  1  0  0  0
 49 50  1  0  0  0
 49 53  1  0  0  0
 49 64  1  0  0  0
 49120  1  0  0  0
 50 51  1  0  0  0
 50121  1  0  0  0
 50122  1  0  0  0
 51 52  1  0  0  0
 51123  1  0  0  0
 51124  1  0  0  0
 52125  1  0  0  0
 52126  1  0  0  0
 53 54  1  0  0  0
 54 55  2  0  0  0
 54127  1  0  0  0
 55 57  1  0  0  0
 55128  1  0  0  0
 56 69  2  0  0  0
 57 58  2  0  0  0
 57129  1  0  0  0
 58130  1  0  0  0
 59 60  1  0  0  0
 59 61  1  0  0  0
 59 62  1  0  0  0
 60131  1  0  0  0
 60132  1  0  0  0
 60133  1  0  0  0
 61134  1  0  0  0
 61135  1  0  0  0
 61136  1  0  0  0
 62137  1  0  0  0
 62138  1  0  0  0
 62139  1  0  0  0
 63 65  1  0  0  0
 63140  1  0  0  0
 63141  1  0  0  0
 63142  1  0  0  0
 64143  1  0  0  0
 65144  1  0  0  0
 68 79  1  0  0  0
 71 73  2  0  0  0
 71 75  1  0  0  0
 71145  1  0  0  0
 72 74  1  0  0  0
 72 75  2  0  0  0
 72146  1  0  0  0
 73 76  1  0  0  0
 73147  1  0  0  0
 74 76  2  0  0  0
 74148  1  0  0  0
 75 82  1  0  0  0
 76 83  1  0  0  0
 77 78  1  0  0  0
 77 79  2  0  0  0
 77 80  1  0  0  0
 78 83  1  0  0  0
 78 85  2  0  0  0
 79149  1  0  0  0
 80 83  1  0  0  0
 80150  1  0  0  0
 80151  1  0  0  0
 81152  1  0  0  0
 81153  1  0  0  0
 81154  1  0  0  0
 81 82  1  0  0  0
 82 84  1  0  0  0
 82155  1  0  0  0
 84156  1  0  0  0
M  ISO  4   1 100  68 101  79 101  84 100
M  END
> <chiral flag>
0

> <version>
0

> <s_m_source_file>
/data/baiqing/PycharmProjects/Reinvent-master-3.2/result/LINK_invent/BTK/process_docking_weight1_custom_product_contain_oxygen_bond_distance_aromatic_linkinvent_7_9_3/rearranged_h_0072.sdf

> <i_m_source_file_index>
87

> <r_mmod_Potential_Energy-OPLS-2005>
23.9866142272949

> <r_mmod_Stretch_Energy-OPLS-2005>
40.4052619934082

> <r_mmod_Bend_Energy-OPLS-2005>
167.213729858398

> <r_mmod_Torsional_Energy-OPLS-2005>
262.1904296875

> <r_mmod_Improper_Torsional_Energy-OPLS-2005>
16.1926155090332

> <r_mmod_Van_der_Waal_Energy-OPLS-2005>
140.551727294922

> <r_mmod_Electrostatic_Energy-OPLS-2005>
-410.06396484375

> <r_mmod_Solvation_Energy-OPLS-2005>
-218.982971191406

> <b_mmod_Minimization_Converged-OPLS-2005>
0

> <r_mmod_RMS_Derivative-OPLS-2005>
0.734663426876068

$$$$
87
                    3D
 Structure written by MMmdl.
160169  0  0  1  0            999 V2000
  -30.6214  -14.7332   20.4778 C   0  0  0  0  0  0
  -30.4390  -12.4464   19.4899 C   0  0  0  0  0  0
  -29.5227  -12.5100   18.2459 C   0  0  0  0  0  0
  -28.0447  -12.3424   18.6511 C   0  0  0  0  0  0
  -27.6521  -13.2349   19.8585 C   0  0  2  0  0  0
  -28.6921  -13.1535   21.0004 C   0  0  0  0  0  0
  -25.2558  -13.8204   20.5694 C   0  0  0  0  0  0
  -24.1827  -13.0449   20.9181 C   0  0  0  0  0  0
  -24.6403  -11.6918   20.8701 C   0  0  0  0  0  0
  -23.9072  -10.4291   21.0368 C   0  0  0  0  0  0
  -24.3610   -9.4214   21.9160 C   0  0  0  0  0  0
  -23.6291   -8.2238   22.0744 C   0  0  0  0  0  0
  -22.4272   -8.0259   21.3528 C   0  0  0  0  0  0
  -21.9892   -9.0250   20.4650 C   0  0  0  0  0  0
  -22.7223  -10.2138   20.3047 C   0  0  0  0  0  0
  -21.6861   -6.0717   22.5273 C   0  0  0  0  0  0
  -21.4019   -6.5641   23.8205 C   0  0  0  0  0  0
  -21.3657   -5.6788   24.9161 C   0  0  0  0  0  0
  -21.6053   -4.3057   24.7216 C   0  0  0  0  0  0
  -21.8822   -3.8131   23.4349 C   0  0  0  0  0  0
  -21.9202   -4.6936   22.3399 C   0  0  0  0  0  0
  -22.7844  -13.5231   21.1857 C   0  0  0  0  0  0
  -22.1667   -4.2120   21.0978 F   0  0  0  0  0  0
  -21.5627   -3.4557   25.7741 F   0  0  0  0  0  0
  -30.0045  -13.5020   20.4392 N   0  0  0  0  0  0
  -26.2988  -12.9428   20.3291 N   0  0  0  0  0  0
  -25.9346  -11.6563   20.5699 N   0  0  0  0  0  0
  -22.0485  -12.8235   22.0420 N   0  0  0  0  0  0
  -25.4312  -15.1912   20.4136 N   0  0  0  0  0  0
  -31.7784  -14.8497   20.0619 O   0  0  0  0  0  0
  -21.6639   -6.8854   21.4231 O   0  0  0  0  0  0
  -22.3533  -14.5538   20.6698 O   0  0  0  0  0  0
  -24.6331  -31.8568   23.1998 C   0  0  0  0  0  0
  -25.9149  -32.4766   23.8351 C   0  0  1  0  0  0
  -27.2085  -27.2454   20.1256 C   0  0  0  0  0  0
  -25.5936  -33.8570   24.2263 N   0  0  0  0  0  0
  -23.4296  -30.4820   21.5448 C   0  0  2  0  0  0
  -24.8734  -28.9347   20.1053 C   0  0  0  0  0  0
  -22.7522  -29.4611   22.4920 C   0  0  0  0  0  0
  -18.0302  -28.1390   22.8478 C   0  0  0  0  0  0
  -24.1484  -36.7290   23.2638 C   0  0  0  0  0  0
  -25.9794  -30.7598   21.3887 C   0  0  0  0  0  0
  -26.0457  -29.3844   20.7251 C   0  0  0  0  0  0
  -27.2121  -28.5500   20.7298 C   0  0  0  0  0  0
  -26.0185  -26.8870   19.4452 C   0  0  0  0  0  0
  -24.8669  -27.6942   19.4535 C   0  0  0  0  0  0
  -23.6454  -29.8231   20.1585 C   0  0  0  0  0  0
  -25.4108  -36.3079   24.0330 C   0  0  1  0  0  0
  -20.5906  -28.3708   23.1267 C   0  0  2  0  0  0
  -20.6786  -26.9425   22.5419 C   0  0  0  0  0  0
  -19.5757  -26.6383   21.5223 C   0  0  0  0  0  0
  -18.1936  -26.7932   22.1625 C   0  0  0  0  0  0
  -19.1555  -28.8868   23.2860 C   0  0  0  0  0  0
  -18.9475  -30.1469   23.8881 C   0  0  0  0  0  0
  -17.6472  -30.6592   24.0573 C   0  0  0  0  0  0
  -25.9054  -34.9448   23.5096 C   0  0  0  0  0  0
  -16.5363  -29.9091   23.6335 C   0  0  0  0  0  0
  -16.7289  -28.6508   23.0349 C   0  0  0  0  0  0
  -26.4484  -31.6603   25.0763 C   0  0  0  0  0  0
  -25.3683  -31.3817   26.1477 C   0  0  0  0  0  0
  -27.0337  -30.2998   24.6312 C   0  0  0  0  0  0
  -27.6026  -32.4370   25.7528 C   0  0  0  0  0  0
  -27.5584  -37.1795   24.8453 C   0  0  0  0  0  0
  -21.4232  -29.3045   22.3651 N   0  0  0  0  0  0
  -26.4283  -37.3781   23.9417 N   0  0  0  0  0  0
  -24.6996  -31.0508   22.0996 N   0  0  0  0  0  0
  -23.4209  -28.8156   23.3032 O   0  0  0  0  0  0
  -28.2884  -26.3261   20.2256 O   0  0  0  0  0  0
  -26.5640  -34.8922   22.4674 O   0  0  0  0  0  0
  -23.5473  -32.1423   23.7258 O   0  0  0  0  0  0
  -29.1647  -19.5065   18.6070 C   0  0  0  0  0  0
  -29.6783  -18.4861   20.7608 C   0  0  0  0  0  0
  -29.5396  -17.0864   18.7660 C   0  0  0  0  0  0
  -29.3960  -19.6962   19.9873 C   0  0  0  0  0  0
  -29.2450  -18.2351   18.0046 C   0  0  0  0  0  0
  -29.7541  -17.1535   20.1615 C   0  0  0  0  0  0
  -30.4854  -21.8342   20.6949 C   0  0  0  0  0  0
  -28.2989  -22.1256   20.1528 C   0  0  0  0  0  0
  -30.2745  -23.3748   20.6068 C   0  0  1  0  0  0
  -28.7491  -23.5837   20.6250 C   0  0  1  0  0  0
  -31.0189  -24.1529   21.7073 C   0  0  0  0  0  0
  -28.0897  -24.8681   19.8756 C   0  0  0  0  0  0
  -29.3663  -21.1108   20.4645 N   0  0  0  0  0  0
  -29.0187  -18.1056   16.6358 N   0  0  0  0  0  0
  -29.9033  -15.8544   20.8694 N   0  0  0  0  0  0
  -31.5917  -21.3501   20.9589 O   0  0  0  0  0  0
  -31.4825  -12.5620   19.1901 H   0  0  0  0  0  0
  -30.3812  -11.4660   19.9661 H   0  0  0  0  0  0
  -29.8067  -11.7351   17.5329 H   0  0  0  0  0  0
  -29.6634  -13.4626   17.7325 H   0  0  0  0  0  0
  -27.8940  -11.2935   18.9070 H   0  0  0  0  0  0
  -27.3940  -12.5469   17.8013 H   0  0  0  0  0  0
  -27.6563  -14.2613   19.4929 H   0  0  0  0  0  0
  -28.7176  -12.1534   21.4339 H   0  0  0  0  0  0
  -28.4221  -13.8271   21.8162 H   0  0  0  0  0  0
  -25.2750   -9.5715   22.4734 H   0  0  0  0  0  0
  -24.0025   -7.4643   22.7482 H   0  0  0  0  0  0
  -21.0811   -8.8767   19.8973 H   0  0  0  0  0  0
  -22.3653  -10.9677   19.6155 H   0  0  0  0  0  0
  -21.2008   -7.6145   23.9710 H   0  0  0  0  0  0
  -21.1478   -6.0506   25.9082 H   0  0  0  0  0  0
  -22.0601   -2.7587   23.2845 H   0  0  0  0  0  0
  -22.4095  -11.9913   22.4831 H   0  0  0  0  0  0
  -21.1103  -13.1272   22.2601 H   0  0  0  0  0  0
  -24.6783  -15.8552   20.5577 H   0  0  0  0  0  0
  -26.2898  -15.6262   20.1015 H   0  0  0  0  0  0
  -26.7223  -32.5387   23.1097 H   0  0  0  0  0  0
  -25.0061  -33.9718   25.0393 H   0  0  0  0  0  0
  -22.7251  -31.3047   21.4040 H   0  0  0  0  0  0
  -23.3760  -35.9606   23.3276 H   0  0  0  0  0  0
  -24.3582  -36.8945   22.2059 H   0  0  0  0  0  0
  -23.7220  -37.6474   23.6684 H   0  0  0  0  0  0
  -26.1282  -31.5205   20.6211 H   0  0  0  0  0  0
  -26.8523  -30.7987   22.0291 H   0  0  0  0  0  0
  -28.1038  -28.8826   21.2418 H   0  0  0  0  0  0
  -25.9272  -25.9608   18.9005 H   0  0  0  0  0  0
  -23.9748  -27.3506   18.9481 H   0  0  0  0  0  0
  -23.7698  -30.6036   19.4075 H   0  0  0  0  0  0
  -22.7612  -29.2621   19.8514 H   0  0  0  0  0  0
  -25.1281  -36.1929   25.0822 H   0  0  0  0  0  0
  -20.9990  -28.3295   24.1390 H   0  0  0  0  0  0
  -20.5695  -26.2332   23.3633 H   0  0  0  0  0  0
  -21.6654  -26.7455   22.1219 H   0  0  0  0  0  0
  -19.6927  -25.6290   21.1266 H   0  0  0  0  0  0
  -19.6691  -27.3187   20.6745 H   0  0  0  0  0  0
  -17.4220  -26.6703   21.4010 H   0  0  0  0  0  0
  -18.0312  -26.0077   22.9014 H   0  0  0  0  0  0
  -19.7951  -30.7290   24.2235 H   0  0  0  0  0  0
  -17.5031  -31.6255   24.5193 H   0  0  0  0  0  0
  -15.5366  -30.2988   23.7657 H   0  0  0  0  0  0
  -15.8692  -28.0829   22.7057 H   0  0  0  0  0  0
  -24.5823  -30.7198   25.7822 H   0  0  0  0  0  0
  -24.8913  -32.3021   26.4853 H   0  0  0  0  0  0
  -25.7958  -30.9024   27.0292 H   0  0  0  0  0  0
  -26.2953  -29.6750   24.1270 H   0  0  0  0  0  0
  -27.3901  -29.7262   25.4879 H   0  0  0  0  0  0
  -27.8877  -30.4236   23.9652 H   0  0  0  0  0  0
  -27.2596  -33.3654   26.2103 H   0  0  0  0  0  0
  -28.3811  -32.6973   25.0350 H   0  0  0  0  0  0
  -28.0722  -31.8527   26.5448 H   0  0  0  0  0  0
  -28.2583  -38.0110   24.7530 H   0  0  0  0  0  0
  -28.1098  -36.2649   24.6221 H   0  0  0  0  0  0
  -27.2326  -37.1378   25.8862 H   0  0  0  0  0  0
  -20.9433  -29.8749   21.6834 H   0  0  0  0  0  0
  -26.0164  -38.2854   24.1428 H   0  0  0  0  0  0
  -28.9484  -20.3632   17.9841 H   0  0  0  0  0  0
  -29.8351  -18.5849   21.8267 H   0  0  0  0  0  0
  -29.5681  -16.1268   18.2693 H   0  0  0  0  0  0
  -28.1085  -22.1322   19.0793 H   0  0  0  0  0  0
  -27.3661  -21.8363   20.6380 H   0  0  0  0  0  0
  -30.6631  -23.6836   19.6359 H   0  0  0  0  0  0
  -28.4504  -23.6705   21.6712 H   0  0  0  0  0  0
  -30.6235  -23.9207   22.6958 H   0  0  0  0  0  0
  -30.9255  -25.2279   21.5554 H   0  0  0  0  0  0
  -32.0834  -23.9150   21.7137 H   0  0  0  0  0  0
  -27.0350  -24.6401   20.0100 H   0  0  0  0  0  0
  -28.2818  -24.7725   18.8061 H   0  0  0  0  0  0
  -29.0193  -18.9201   16.0288 H   0  0  0  0  0  0
  -29.2219  -17.2329   16.1569 H   0  0  0  0  0  0
  -29.1308  -15.6367   21.4824 H   0  0  0  0  0  0
  1 25  1  0  0  0
  1 30  2  0  0  0
  1 85  1  0  0  0
  2  3  1  0  0  0
  2 25  1  0  0  0
  2 87  1  0  0  0
  2 88  1  0  0  0
  3  4  1  0  0  0
  3 89  1  0  0  0
  3 90  1  0  0  0
  4  5  1  0  0  0
  4 91  1  0  0  0
  4 92  1  0  0  0
  5  6  1  0  0  0
  5 26  1  0  0  0
  5 93  1  0  0  0
  6 25  1  0  0  0
  6 94  1  0  0  0
  6 95  1  0  0  0
  7  8  2  0  0  0
  7 26  1  0  0  0
  7 29  1  0  0  0
  8  9  1  0  0  0
  8 22  1  0  0  0
  9 10  1  0  0  0
  9 27  2  0  0  0
 10 11  2  0  0  0
 10 15  1  0  0  0
 11 12  1  0  0  0
 11 96  1  0  0  0
 12 13  2  0  0  0
 12 97  1  0  0  0
 13 14  1  0  0  0
 13 31  1  0  0  0
 14 15  2  0  0  0
 14 98  1  0  0  0
 15 99  1  0  0  0
 16 17  2  0  0  0
 16 21  1  0  0  0
 16 31  1  0  0  0
 17 18  1  0  0  0
 17100  1  0  0  0
 18 19  2  0  0  0
 18101  1  0  0  0
 19 20  1  0  0  0
 19 24  1  0  0  0
 20 21  2  0  0  0
 20102  1  0  0  0
 21 23  1  0  0  0
 22 28  1  0  0  0
 22 32  2  0  0  0
 26 27  1  0  0  0
 28103  1  0  0  0
 28104  1  0  0  0
 29105  1  0  0  0
 29106  1  0  0  0
 33 34  1  0  0  0
 33 66  1  0  0  0
 33 70  2  0  0  0
 34 36  1  0  0  0
 34 59  1  0  0  0
 34107  1  0  0  0
 35 44  2  0  0  0
 35 45  1  0  0  0
 35 68  1  0  0  0
 36 56  1  0  0  0
 36108  1  0  0  0
 37 39  1  0  0  0
 37 47  1  0  0  0
 37 66  1  0  0  0
 37109  1  0  0  0
 38 43  2  0  0  0
 38 46  1  0  0  0
 38 47  1  0  0  0
 39 64  1  0  0  0
 39 67  2  0  0  0
 40 52  1  0  0  0
 40 53  2  0  0  0
 40 58  1  0  0  0
 41110  1  0  0  0
 41111  1  0  0  0
 41112  1  0  0  0
 41 48  1  0  0  0
 42 43  1  0  0  0
 42 66  1  0  0  0
 42113  1  0  0  0
 42114  1  0  0  0
 43 44  1  0  0  0
 44115  1  0  0  0
 45 46  2  0  0  0
 45116  1  0  0  0
 46117  1  0  0  0
 47118  1  0  0  0
 47119  1  0  0  0
 48 56  1  0  0  0
 48 65  1  0  0  0
 48120  1  0  0  0
 49 50  1  0  0  0
 49 53  1  0  0  0
 49 64  1  0  0  0
 49121  1  0  0  0
 50 51  1  0  0  0
 50122  1  0  0  0
 50123  1  0  0  0
 51 52  1  0  0  0
 51124  1  0  0  0
 51125  1  0  0  0
 52126  1  0  0  0
 52127  1  0  0  0
 53 54  1  0  0  0
 54 55  2  0  0  0
 54128  1  0  0  0
 55 57  1  0  0  0
 55129  1  0  0  0
 56 69  2  0  0  0
 57 58  2  0  0  0
 57130  1  0  0  0
 58131  1  0  0  0
 59 60  1  0  0  0
 59 61  1  0  0  0
 59 62  1  0  0  0
 60132  1  0  0  0
 60133  1  0  0  0
 60134  1  0  0  0
 61135  1  0  0  0
 61136  1  0  0  0
 61137  1  0  0  0
 62138  1  0  0  0
 62139  1  0  0  0
 62140  1  0  0  0
 63 65  1  0  0  0
 63141  1  0  0  0
 63142  1  0  0  0
 63143  1  0  0  0
 64144  1  0  0  0
 65145  1  0  0  0
 68 82  1  0  0  0
 71 74  2  0  0  0
 71 75  1  0  0  0
 71146  1  0  0  0
 72 74  1  0  0  0
 72 76  2  0  0  0
 72147  1  0  0  0
 73 75  2  0  0  0
 73 76  1  0  0  0
 73148  1  0  0  0
 74 83  1  0  0  0
 75 84  1  0  0  0
 76 85  1  0  0  0
 77 79  1  0  0  0
 77 83  1  0  0  0
 77 86  2  0  0  0
 78 80  1  0  0  0
 78 83  1  0  0  0
 78149  1  0  0  0
 78150  1  0  0  0
 79 80  1  0  0  0
 79 81  1  0  0  0
 79151  1  0  0  0
 80 82  1  0  0  0
 80152  1  0  0  0
 81153  1  0  0  0
 81154  1  0  0  0
 81155  1  0  0  0
 82156  1  0  0  0
 82157  1  0  0  0
 84158  1  0  0  0
 84159  1  0  0  0
 85160  1  0  0  0
M  ISO  4   1 100  68 101  82 101  85 100
M  END
> <chiral flag>
0

> <version>
0

> <s_m_source_file>
/data/baiqing/PycharmProjects/Reinvent-master-3.2/result/LINK_invent/BTK/process_docking_weight1_custom_product_contain_oxygen_bond_distance_aromatic_linkinvent_7_9_3/rearranged_h_0072.sdf

> <i_m_source_file_index>
88

> <r_mmod_Potential_Energy-OPLS-2005>
326.791778564453

> <r_mmod_Stretch_Energy-OPLS-2005>
127.777137756348

> <r_mmod_Bend_Energy-OPLS-2005>
205.810302734375

> <r_mmod_Torsional_Energy-OPLS-2005>
323.861541748047

> <r_mmod_Improper_Torsional_Energy-OPLS-2005>
7.9940185546875

> <r_mmod_Van_der_Waal_Energy-OPLS-2005>
133.870086669922

> <r_mmod_Electrostatic_Energy-OPLS-2005>
-321.230072021484

> <r_mmod_Solvation_Energy-OPLS-2005>
-240.668960571289

> <b_mmod_Minimization_Converged-OPLS-2005>
0

> <r_mmod_RMS_Derivative-OPLS-2005>
2.95302104949951

$$$$
88
                    3D
 Structure written by MMmdl.
154163  0  0  1  0            999 V2000
  -30.6134  -14.7101   20.5224 C   0  0  0  0  0  0
  -30.4389  -12.4451   19.4610 C   0  0  0  0  0  0
  -29.5088  -12.5391   18.2300 C   0  0  0  0  0  0
  -28.0317  -12.3640   18.6371 C   0  0  0  0  0  0
  -27.6520  -13.2255   19.8708 C   0  0  2  0  0  0
  -28.7004  -13.0672   20.9936 C   0  0  0  0  0  0
  -25.2546  -13.8184   20.5710 C   0  0  0  0  0  0
  -24.1825  -13.0424   20.9184 C   0  0  0  0  0  0
  -24.6410  -11.6903   20.8735 C   0  0  0  0  0  0
  -23.9079  -10.4282   21.0395 C   0  0  0  0  0  0
  -24.3626   -9.4202   21.9177 C   0  0  0  0  0  0
  -23.6297   -8.2241   22.0755 C   0  0  0  0  0  0
  -22.4278   -8.0282   21.3546 C   0  0  0  0  0  0
  -21.9916   -9.0252   20.4644 C   0  0  0  0  0  0
  -22.7247  -10.2130   20.3048 C   0  0  0  0  0  0
  -21.6856   -6.0738   22.5283 C   0  0  0  0  0  0
  -21.4015   -6.5644   23.8216 C   0  0  0  0  0  0
  -21.3655   -5.6799   24.9177 C   0  0  0  0  0  0
  -21.6038   -4.3060   24.7225 C   0  0  0  0  0  0
  -21.8820   -3.8148   23.4346 C   0  0  0  0  0  0
  -21.9198   -4.6964   22.3404 C   0  0  0  0  0  0
  -22.7847  -13.5209   21.1844 C   0  0  0  0  0  0
  -22.1667   -4.2152   21.0980 F   0  0  0  0  0  0
  -21.5618   -3.4541   25.7730 F   0  0  0  0  0  0
  -29.9997  -13.4724   20.4376 N   0  0  0  0  0  0
  -26.2990  -12.9383   20.3374 N   0  0  0  0  0  0
  -25.9346  -11.6527   20.5774 N   0  0  0  0  0  0
  -22.0501  -12.8195   22.0402 N   0  0  0  0  0  0
  -25.4241  -15.1910   20.4153 N   0  0  0  0  0  0
  -31.7613  -14.8137   20.0707 O   0  0  0  0  0  0
  -21.6635   -6.8883   21.4247 O   0  0  0  0  0  0
  -22.3522  -14.5512   20.6699 O   0  0  0  0  0  0
  -24.6306  -31.8571   23.2021 C   0  0  0  0  0  0
  -25.9140  -32.4764   23.8355 C   0  0  1  0  0  0
  -27.2181  -27.2713   20.1163 C   0  0  0  0  0  0
  -25.5945  -33.8564   24.2279 N   0  0  0  0  0  0
  -23.4259  -30.4828   21.5455 C   0  0  2  0  0  0
  -24.8724  -28.9377   20.1080 C   0  0  0  0  0  0
  -22.7491  -29.4613   22.4917 C   0  0  0  0  0  0
  -18.0289  -28.1384   22.8488 C   0  0  0  0  0  0
  -24.1492  -36.7279   23.2639 C   0  0  0  0  0  0
  -25.9731  -30.7689   21.3868 C   0  0  0  0  0  0
  -26.0421  -29.3939   20.7269 C   0  0  0  0  0  0
  -27.2122  -28.5691   20.7304 C   0  0  0  0  0  0
  -26.0308  -26.9044   19.4361 C   0  0  0  0  0  0
  -24.8718  -27.6998   19.4539 C   0  0  0  0  0  0
  -23.6433  -29.8221   20.1597 C   0  0  0  0  0  0
  -25.4117  -36.3075   24.0332 C   0  0  1  0  0  0
  -20.5893  -28.3696   23.1270 C   0  0  2  0  0  0
  -20.6777  -26.9414   22.5407 C   0  0  0  0  0  0
  -19.5755  -26.6386   21.5208 C   0  0  0  0  0  0
  -18.1934  -26.7931   22.1621 C   0  0  0  0  0  0
  -19.1543  -28.8858   23.2875 C   0  0  0  0  0  0
  -18.9464  -30.1458   23.8895 C   0  0  0  0  0  0
  -17.6465  -30.6588   24.0564 C   0  0  0  0  0  0
  -25.9060  -34.9444   23.5107 C   0  0  0  0  0  0
  -16.5356  -29.9088   23.6329 C   0  0  0  0  0  0
  -16.7275  -28.6499   23.0359 C   0  0  0  0  0  0
  -26.4510  -31.6579   25.0739 C   0  0  0  0  0  0
  -25.3731  -31.3717   26.1456 C   0  0  0  0  0  0
  -27.0366  -30.2995   24.6234 C   0  0  0  0  0  0
  -27.6067  -32.4316   25.7505 C   0  0  0  0  0  0
  -27.5584  -37.1796   24.8464 C   0  0  0  0  0  0
  -21.4201  -29.3045   22.3654 N   0  0  0  0  0  0
  -26.4291  -37.3776   23.9415 N   0  0  0  0  0  0
  -24.6951  -31.0542   22.1002 N   0  0  0  0  0  0
  -23.4193  -28.8142   23.3006 O   0  0  0  0  0  0
  -28.3191  -26.3823   20.2074 O   0  0  0  0  0  0
  -26.5623  -34.8912   22.4669 O   0  0  0  0  0  0
  -23.5460  -32.1393   23.7324 O   0  0  0  0  0  0
  -29.1835  -18.3284   18.0377 C   0  0  0  0  0  0
  -29.4871  -17.2135   18.8452 C   0  0  0  0  0  0
  -29.1374  -19.6332   18.5711 C   0  0  0  0  0  0
  -29.7436  -18.7242   20.7411 C   0  0  0  0  0  0
  -29.7695  -17.3641   20.2203 C   0  0  0  0  0  0
  -29.4236  -19.8848   19.9308 C   0  0  0  0  0  0
  -30.5294  -22.0566   20.5678 C   0  0  0  0  0  0
  -28.2868  -22.2520   20.1093 C   0  0  0  0  0  0
  -28.7819  -23.6757   20.5752 C   0  0  2  0  0  0
  -28.2137  -24.9486   19.7623 C   0  0  0  0  0  0
  -29.9416  -16.0608   21.1188 C   0  0  0  0  0  0
  -29.3801  -21.2910   20.3900 N   0  0  0  0  0  0
  -31.6838  -21.6553   20.7227 O   0  0  0  0  0  0
  -30.1818  -23.3925   20.5265 O   0  0  0  0  0  0
  -30.6635  -16.4163   22.1829 F   0  0  0  0  0  0
  -28.7077  -15.8174   21.5511 F   0  0  0  0  0  0
  -31.4788  -12.5726   19.1559 H   0  0  0  0  0  0
  -30.3880  -11.4484   19.9023 H   0  0  0  0  0  0
  -29.7860  -11.7912   17.4868 H   0  0  0  0  0  0
  -29.6384  -13.5103   17.7494 H   0  0  0  0  0  0
  -27.8720  -11.3084   18.8606 H   0  0  0  0  0  0
  -27.3777  -12.5984   17.7959 H   0  0  0  0  0  0
  -27.6693  -14.2645   19.5409 H   0  0  0  0  0  0
  -28.7387  -12.0262   21.3173 H   0  0  0  0  0  0
  -28.4317  -13.6153   21.8940 H   0  0  0  0  0  0
  -25.2773   -9.5671   22.4751 H   0  0  0  0  0  0
  -24.0003   -7.4633   22.7482 H   0  0  0  0  0  0
  -21.0843   -8.8775   19.8949 H   0  0  0  0  0  0
  -22.3710  -10.9668   19.6157 H   0  0  0  0  0  0
  -21.2017   -7.6155   23.9713 H   0  0  0  0  0  0
  -21.1471   -6.0531   25.9079 H   0  0  0  0  0  0
  -22.0603   -2.7608   23.2846 H   0  0  0  0  0  0
  -22.4135  -11.9856   22.4779 H   0  0  0  0  0  0
  -21.1115  -13.1201   22.2608 H   0  0  0  0  0  0
  -24.6615  -15.8476   20.5406 H   0  0  0  0  0  0
  -26.2905  -15.6375   20.1433 H   0  0  0  0  0  0
  -26.7204  -32.5420   23.1089 H   0  0  0  0  0  0
  -25.0104  -33.9699   25.0432 H   0  0  0  0  0  0
  -22.7226  -31.3057   21.4029 H   0  0  0  0  0  0
  -23.3770  -35.9594   23.3284 H   0  0  0  0  0  0
  -24.3583  -36.8917   22.2053 H   0  0  0  0  0  0
  -23.7226  -37.6465   23.6670 H   0  0  0  0  0  0
  -26.1185  -31.5315   20.6206 H   0  0  0  0  0  0
  -26.8487  -30.8120   22.0230 H   0  0  0  0  0  0
  -28.1009  -28.9094   21.2432 H   0  0  0  0  0  0
  -25.9442  -25.9910   18.8710 H   0  0  0  0  0  0
  -23.9821  -27.3543   18.9452 H   0  0  0  0  0  0
  -23.7668  -30.6007   19.4062 H   0  0  0  0  0  0
  -22.7620  -29.2554   19.8534 H   0  0  0  0  0  0
  -25.1296  -36.1926   25.0822 H   0  0  0  0  0  0
  -20.9987  -28.3284   24.1392 H   0  0  0  0  0  0
  -20.5676  -26.2302   23.3610 H   0  0  0  0  0  0
  -21.6647  -26.7438   22.1208 H   0  0  0  0  0  0
  -19.6915  -25.6299   21.1234 H   0  0  0  0  0  0
  -19.6691  -27.3195   20.6736 H   0  0  0  0  0  0
  -17.4200  -26.6684   21.4025 H   0  0  0  0  0  0
  -18.0330  -26.0067   22.9013 H   0  0  0  0  0  0
  -19.7941  -30.7276   24.2265 H   0  0  0  0  0  0
  -17.5020  -31.6267   24.5171 H   0  0  0  0  0  0
  -15.5358  -30.2993   23.7649 H   0  0  0  0  0  0
  -15.8674  -28.0815   22.7088 H   0  0  0  0  0  0
  -24.5931  -30.7034   25.7787 H   0  0  0  0  0  0
  -24.8887  -32.2875   26.4853 H   0  0  0  0  0  0
  -25.8057  -30.8925   27.0247 H   0  0  0  0  0  0
  -26.2962  -29.6730   24.1252 H   0  0  0  0  0  0
  -27.4035  -29.7272   25.4764 H   0  0  0  0  0  0
  -27.8845  -30.4266   23.9499 H   0  0  0  0  0  0
  -27.2692  -33.3633   26.2058 H   0  0  0  0  0  0
  -28.3889  -32.6846   25.0335 H   0  0  0  0  0  0
  -28.0721  -31.8452   26.5438 H   0  0  0  0  0  0
  -28.2590  -38.0105   24.7537 H   0  0  0  0  0  0
  -28.1096  -36.2640   24.6267 H   0  0  0  0  0  0
  -27.2301  -37.1411   25.8864 H   0  0  0  0  0  0
  -20.9378  -29.8777   21.6872 H   0  0  0  0  0  0
  -26.0175  -38.2847   24.1435 H   0  0  0  0  0  0
  -28.9669  -18.1790   16.9886 H   0  0  0  0  0  0
  -29.4695  -16.2293   18.3966 H   0  0  0  0  0  0
  -28.8988  -20.4504   17.9058 H   0  0  0  0  0  0
  -29.9376  -18.8760   21.7938 H   0  0  0  0  0  0
  -28.0777  -22.2639   19.0389 H   0  0  0  0  0  0
  -27.3686  -21.9648   20.6224 H   0  0  0  0  0  0
  -28.5202  -23.7975   21.6266 H   0  0  0  0  0  0
  -27.1666  -24.6721   19.7186 H   0  0  0  0  0  0
  -28.5725  -24.8997   18.7337 H   0  0  0  0  0  0
  1 25  1  0  0  0
  1 30  2  0  0  0
  1 81  1  0  0  0
  2  3  1  0  0  0
  2 25  1  0  0  0
  2 87  1  0  0  0
  2 88  1  0  0  0
  3  4  1  0  0  0
  3 89  1  0  0  0
  3 90  1  0  0  0
  4  5  1  0  0  0
  4 91  1  0  0  0
  4 92  1  0  0  0
  5  6  1  0  0  0
  5 26  1  0  0  0
  5 93  1  0  0  0
  6 25  1  0  0  0
  6 94  1  0  0  0
  6 95  1  0  0  0
  7  8  2  0  0  0
  7 26  1  0  0  0
  7 29  1  0  0  0
  8  9  1  0  0  0
  8 22  1  0  0  0
  9 10  1  0  0  0
  9 27  2  0  0  0
 10 11  2  0  0  0
 10 15  1  0  0  0
 11 12  1  0  0  0
 11 96  1  0  0  0
 12 13  2  0  0  0
 12 97  1  0  0  0
 13 14  1  0  0  0
 13 31  1  0  0  0
 14 15  2  0  0  0
 14 98  1  0  0  0
 15 99  1  0  0  0
 16 17  2  0  0  0
 16 21  1  0  0  0
 16 31  1  0  0  0
 17 18  1  0  0  0
 17100  1  0  0  0
 18 19  2  0  0  0
 18101  1  0  0  0
 19 20  1  0  0  0
 19 24  1  0  0  0
 20 21  2  0  0  0
 20102  1  0  0  0
 21 23  1  0  0  0
 22 28  1  0  0  0
 22 32  2  0  0  0
 26 27  1  0  0  0
 28103  1  0  0  0
 28104  1  0  0  0
 29105  1  0  0  0
 29106  1  0  0  0
 33 34  1  0  0  0
 33 66  1  0  0  0
 33 70  2  0  0  0
 34 36  1  0  0  0
 34 59  1  0  0  0
 34107  1  0  0  0
 35 44  2  0  0  0
 35 45  1  0  0  0
 35 68  1  0  0  0
 36 56  1  0  0  0
 36108  1  0  0  0
 37 39  1  0  0  0
 37 47  1  0  0  0
 37 66  1  0  0  0
 37109  1  0  0  0
 38 43  2  0  0  0
 38 46  1  0  0  0
 38 47  1  0  0  0
 39 64  1  0  0  0
 39 67  2  0  0  0
 40 52  1  0  0  0
 40 53  2  0  0  0
 40 58  1  0  0  0
 41110  1  0  0  0
 41111  1  0  0  0
 41112  1  0  0  0
 41 48  1  0  0  0
 42 43  1  0  0  0
 42 66  1  0  0  0
 42113  1  0  0  0
 42114  1  0  0  0
 43 44  1  0  0  0
 44115  1  0  0  0
 45 46  2  0  0  0
 45116  1  0  0  0
 46117  1  0  0  0
 47118  1  0  0  0
 47119  1  0  0  0
 48 56  1  0  0  0
 48 65  1  0  0  0
 48120  1  0  0  0
 49 50  1  0  0  0
 49 53  1  0  0  0
 49 64  1  0  0  0
 49121  1  0  0  0
 50 51  1  0  0  0
 50122  1  0  0  0
 50123  1  0  0  0
 51 52  1  0  0  0
 51124  1  0  0  0
 51125  1  0  0  0
 52126  1  0  0  0
 52127  1  0  0  0
 53 54  1  0  0  0
 54 55  2  0  0  0
 54128  1  0  0  0
 55 57  1  0  0  0
 55129  1  0  0  0
 56 69  2  0  0  0
 57 58  2  0  0  0
 57130  1  0  0  0
 58131  1  0  0  0
 59 60  1  0  0  0
 59 61  1  0  0  0
 59 62  1  0  0  0
 60132  1  0  0  0
 60133  1  0  0  0
 60134  1  0  0  0
 61135  1  0  0  0
 61136  1  0  0  0
 61137  1  0  0  0
 62138  1  0  0  0
 62139  1  0  0  0
 62140  1  0  0  0
 63 65  1  0  0  0
 63141  1  0  0  0
 63142  1  0  0  0
 63143  1  0  0  0
 64144  1  0  0  0
 65145  1  0  0  0
 68 80  1  0  0  0
 71 72  2  0  0  0
 71 73  1  0  0  0
 71146  1  0  0  0
 72 75  1  0  0  0
 72147  1  0  0  0
 73 76  2  0  0  0
 73148  1  0  0  0
 74 75  2  0  0  0
 74 76  1  0  0  0
 74149  1  0  0  0
 75 81  1  0  0  0
 76 82  1  0  0  0
 77 82  1  0  0  0
 77 83  2  0  0  0
 77 84  1  0  0  0
 78 79  1  0  0  0
 78 82  1  0  0  0
 78150  1  0  0  0
 78151  1  0  0  0
 79 80  1  0  0  0
 79 84  1  0  0  0
 79152  1  0  0  0
 80153  1  0  0  0
 80154  1  0  0  0
 81 85  1  0  0  0
 81 86  1  0  0  0
M  ISO  4   1 100  68 101  80 101  81 100
M  END
> <chiral flag>
0

> <version>
0

> <s_m_source_file>
/data/baiqing/PycharmProjects/Reinvent-master-3.2/result/LINK_invent/BTK/process_docking_weight1_custom_product_contain_oxygen_bond_distance_aromatic_linkinvent_7_9_3/rearranged_h_0072.sdf

> <i_m_source_file_index>
89

> <r_mmod_Potential_Energy-OPLS-2005>
312.024475097656

> <r_mmod_Stretch_Energy-OPLS-2005>
115.866889953613

> <r_mmod_Bend_Energy-OPLS-2005>
197.105102539062

> <r_mmod_Torsional_Energy-OPLS-2005>
219.683456420898

> <r_mmod_Improper_Torsional_Energy-OPLS-2005>
3.98145508766174

> <r_mmod_Van_der_Waal_Energy-OPLS-2005>
142.720428466797

> <r_mmod_Electrostatic_Energy-OPLS-2005>
-224.785339355469

> <r_mmod_Solvation_Energy-OPLS-2005>
-212.977142333984

> <b_mmod_Minimization_Converged-OPLS-2005>
0

> <r_mmod_RMS_Derivative-OPLS-2005>
0.994523465633392

$$$$
89
                    3D
 Structure written by MMmdl.
155163  0  0  1  0            999 V2000
  -30.6628  -14.4842   20.5987 C   0  0  0  0  0  0
  -30.4351  -12.3102   19.4517 C   0  0  0  0  0  0
  -29.5110  -12.4913   18.2291 C   0  0  0  0  0  0
  -28.0290  -12.3566   18.6283 C   0  0  0  0  0  0
  -27.6654  -13.1992   19.8787 C   0  0  2  0  0  0
  -28.6944  -12.9704   21.0089 C   0  0  0  0  0  0
  -25.2597  -13.8141   20.5644 C   0  0  0  0  0  0
  -24.1834  -13.0437   20.9151 C   0  0  0  0  0  0
  -24.6368  -11.6898   20.8708 C   0  0  0  0  0  0
  -23.9010  -10.4303   21.0405 C   0  0  0  0  0  0
  -24.3580   -9.4237   21.9187 C   0  0  0  0  0  0
  -23.6274   -8.2254   22.0755 C   0  0  0  0  0  0
  -22.4261   -8.0280   21.3537 C   0  0  0  0  0  0
  -21.9864   -9.0247   20.4635 C   0  0  0  0  0  0
  -22.7177  -10.2137   20.3058 C   0  0  0  0  0  0
  -21.6850   -6.0724   22.5271 C   0  0  0  0  0  0
  -21.4002   -6.5642   23.8204 C   0  0  0  0  0  0
  -21.3660   -5.6795   24.9159 C   0  0  0  0  0  0
  -21.6052   -4.3047   24.7214 C   0  0  0  0  0  0
  -21.8829   -3.8141   23.4338 C   0  0  0  0  0  0
  -21.9202   -4.6955   22.3386 C   0  0  0  0  0  0
  -22.7870  -13.5259   21.1831 C   0  0  0  0  0  0
  -22.1689   -4.2142   21.0958 F   0  0  0  0  0  0
  -21.5616   -3.4542   25.7732 F   0  0  0  0  0  0
  -30.0367  -13.2820   20.4824 N   0  0  0  0  0  0
  -26.3026  -12.9294   20.3330 N   0  0  0  0  0  0
  -25.9284  -11.6460   20.5716 N   0  0  0  0  0  0
  -22.0487  -12.8271   22.0382 N   0  0  0  0  0  0
  -25.4364  -15.1847   20.4064 N   0  0  0  0  0  0
  -31.7383  -14.7399   20.0437 O   0  0  0  0  0  0
  -21.6641   -6.8870   21.4233 O   0  0  0  0  0  0
  -22.3574  -14.5579   20.6698 O   0  0  0  0  0  0
  -24.6137  -31.8670   23.2115 C   0  0  0  0  0  0
  -25.9034  -32.4811   23.8402 C   0  0  1  0  0  0
  -27.2302  -27.4249   20.0806 C   0  0  0  0  0  0
  -25.5893  -33.8614   24.2337 N   0  0  0  0  0  0
  -23.4007  -30.4913   21.5535 C   0  0  2  0  0  0
  -24.8430  -28.9577   20.1156 C   0  0  0  0  0  0
  -22.7402  -29.4637   22.5005 C   0  0  0  0  0  0
  -18.0264  -28.1361   22.8488 C   0  0  0  0  0  0
  -24.1484  -36.7307   23.2639 C   0  0  0  0  0  0
  -25.9315  -30.8264   21.3677 C   0  0  0  0  0  0
  -26.0042  -29.4613   20.7119 C   0  0  0  0  0  0
  -27.1955  -28.6995   20.6965 C   0  0  0  0  0  0
  -26.0371  -26.9269   19.5046 C   0  0  0  0  0  0
  -24.8536  -27.6876   19.5165 C   0  0  0  0  0  0
  -23.6067  -29.8266   20.1671 C   0  0  0  0  0  0
  -25.4100  -36.3107   24.0343 C   0  0  1  0  0  0
  -20.5854  -28.3636   23.1333 C   0  0  2  0  0  0
  -20.6756  -26.9370   22.5438 C   0  0  0  0  0  0
  -19.5741  -26.6365   21.5223 C   0  0  0  0  0  0
  -18.1912  -26.7911   22.1616 C   0  0  0  0  0  0
  -19.1515  -28.8816   23.2903 C   0  0  0  0  0  0
  -18.9443  -30.1432   23.8903 C   0  0  0  0  0  0
  -17.6448  -30.6565   24.0565 C   0  0  0  0  0  0
  -25.9028  -34.9467   23.5137 C   0  0  0  0  0  0
  -16.5340  -29.9070   23.6325 C   0  0  0  0  0  0
  -16.7257  -28.6491   23.0338 C   0  0  0  0  0  0
  -26.4473  -31.6585   25.0718 C   0  0  0  0  0  0
  -25.3760  -31.3702   26.1487 C   0  0  0  0  0  0
  -27.0289  -30.3019   24.6094 C   0  0  0  0  0  0
  -27.6058  -32.4299   25.7467 C   0  0  0  0  0  0
  -27.5580  -37.1802   24.8457 C   0  0  0  0  0  0
  -21.4130  -29.3004   22.3740 N   0  0  0  0  0  0
  -26.4289  -37.3789   23.9406 N   0  0  0  0  0  0
  -24.6671  -31.0766   22.1021 N   0  0  0  0  0  0
  -23.4180  -28.8165   23.3026 O   0  0  0  0  0  0
  -28.4205  -26.7202   20.0967 O   0  0  0  0  0  0
  -26.5598  -34.8921   22.4704 O   0  0  0  0  0  0
  -23.5335  -32.1428   23.7513 O   0  0  0  0  0  0
  -28.7722  -18.9277   21.6804 C   0  0  0  0  0  0
  -28.8269  -18.3620   19.3233 C   0  0  0  0  0  0
  -29.2962  -17.6511   21.9938 C   0  0  0  0  0  0
  -29.3832  -17.0978   19.6316 C   0  0  0  0  0  0
  -28.5063  -19.2944   20.3403 C   0  0  0  0  0  0
  -29.6107  -16.7191   20.9775 C   0  0  0  0  0  0
  -27.8320  -20.6019   19.9998 C   0  0  0  0  0  0
  -28.6313  -25.5867   19.2347 C   0  0  0  0  0  0
  -28.9520  -24.2698   19.9894 C   0  0  0  0  0  0
  -28.2365  -21.7019   20.5688 N   0  0  0  0  0  0
  -26.7936  -20.4445   19.1015 N   0  0  0  0  0  0
  -30.0153  -15.3973   21.3523 N   0  0  0  0  0  0
  -26.6359  -23.2154   19.1255 O   0  0  0  0  0  0
  -26.8973  -23.6568   21.6018 O   0  0  0  0  0  0
  -27.4856  -23.2047   20.3299 S   0  0  0  0  0  0
  -31.4795  -12.4233   19.1563 H   0  0  0  0  0  0
  -30.3496  -11.2987   19.8516 H   0  0  0  0  0  0
  -29.7597  -11.7510   17.4676 H   0  0  0  0  0  0
  -29.6870  -13.4700   17.7811 H   0  0  0  0  0  0
  -27.8341  -11.3027   18.8298 H   0  0  0  0  0  0
  -27.3865  -12.6278   17.7904 H   0  0  0  0  0  0
  -27.7125  -14.2476   19.5838 H   0  0  0  0  0  0
  -28.6650  -11.9320   21.3427 H   0  0  0  0  0  0
  -28.4273  -13.5593   21.8871 H   0  0  0  0  0  0
  -25.2725   -9.5719   22.4759 H   0  0  0  0  0  0
  -23.9990   -7.4640   22.7468 H   0  0  0  0  0  0
  -21.0797   -8.8742   19.8940 H   0  0  0  0  0  0
  -22.3624  -10.9667   19.6162 H   0  0  0  0  0  0
  -21.1997   -7.6148   23.9703 H   0  0  0  0  0  0
  -21.1470   -6.0515   25.9059 H   0  0  0  0  0  0
  -22.0609   -2.7594   23.2840 H   0  0  0  0  0  0
  -22.4056  -11.9915   22.4784 H   0  0  0  0  0  0
  -21.1102  -13.1309   22.2550 H   0  0  0  0  0  0
  -24.6724  -15.8454   20.5026 H   0  0  0  0  0  0
  -26.2973  -15.6124   20.0914 H   0  0  0  0  0  0
  -26.7090  -32.5514   23.1151 H   0  0  0  0  0  0
  -25.0046  -33.9784   25.0483 H   0  0  0  0  0  0
  -22.6884  -31.3074   21.4180 H   0  0  0  0  0  0
  -23.3749  -35.9641   23.3310 H   0  0  0  0  0  0
  -24.3585  -36.8912   22.2055 H   0  0  0  0  0  0
  -23.7232  -37.6510   23.6649 H   0  0  0  0  0  0
  -26.0506  -31.5928   20.6011 H   0  0  0  0  0  0
  -26.8176  -30.8754   21.9887 H   0  0  0  0  0  0
  -28.0936  -29.0861   21.1580 H   0  0  0  0  0  0
  -25.9789  -25.9469   19.0579 H   0  0  0  0  0  0
  -23.9538  -27.2850   19.0722 H   0  0  0  0  0  0
  -23.7162  -30.6038   19.4102 H   0  0  0  0  0  0
  -22.7281  -29.2504   19.8708 H   0  0  0  0  0  0
  -25.1269  -36.1989   25.0838 H   0  0  0  0  0  0
  -20.9942  -28.3208   24.1457 H   0  0  0  0  0  0
  -20.5642  -26.2237   23.3618 H   0  0  0  0  0  0
  -21.6630  -26.7403   22.1241 H   0  0  0  0  0  0
  -19.6903  -25.6286   21.1221 H   0  0  0  0  0  0
  -19.6690  -27.3203   20.6780 H   0  0  0  0  0  0
  -17.4189  -26.6675   21.4009 H   0  0  0  0  0  0
  -18.0286  -26.0045   22.8993 H   0  0  0  0  0  0
  -19.7924  -30.7251   24.2257 H   0  0  0  0  0  0
  -17.5000  -31.6247   24.5165 H   0  0  0  0  0  0
  -15.5338  -30.2967   23.7647 H   0  0  0  0  0  0
  -15.8660  -28.0820   22.7032 H   0  0  0  0  0  0
  -24.5899  -30.7083   25.7839 H   0  0  0  0  0  0
  -24.9008  -32.2872   26.4980 H   0  0  0  0  0  0
  -25.8128  -30.8831   27.0211 H   0  0  0  0  0  0
  -26.2824  -29.6779   24.1162 H   0  0  0  0  0  0
  -27.4070  -29.7252   25.4544 H   0  0  0  0  0  0
  -27.8663  -30.4329   23.9236 H   0  0  0  0  0  0
  -27.2680  -33.3579   26.2095 H   0  0  0  0  0  0
  -28.3836  -32.6882   25.0269 H   0  0  0  0  0  0
  -28.0756  -31.8390   26.5338 H   0  0  0  0  0  0
  -28.2600  -38.0095   24.7507 H   0  0  0  0  0  0
  -28.1070  -36.2630   24.6268 H   0  0  0  0  0  0
  -27.2302  -37.1441   25.8862 H   0  0  0  0  0  0
  -20.9274  -29.8751   21.6999 H   0  0  0  0  0  0
  -26.0180  -38.2868   24.1422 H   0  0  0  0  0  0
  -28.5246  -19.6090   22.4820 H   0  0  0  0  0  0
  -28.6252  -18.6077   18.2896 H   0  0  0  0  0  0
  -29.4356  -17.3855   23.0322 H   0  0  0  0  0  0
  -29.5811  -16.4079   18.8235 H   0  0  0  0  0  0
  -27.8823  -25.4356   18.4609 H   0  0  0  0  0  0
  -29.5213  -25.8498   18.6622 H   0  0  0  0  0  0
  -29.4916  -24.4397   20.9177 H   0  0  0  0  0  0
  -29.6004  -23.6660   19.3576 H   0  0  0  0  0  0
  -26.4680  -19.5502   18.7540 H   0  0  0  0  0  0
  -26.2494  -21.2083   18.7132 H   0  0  0  0  0  0
  -29.4434  -14.9856   22.0749 H   0  0  0  0  0  0
  1 25  1  0  0  0
  1 30  2  0  0  0
  1 82  1  0  0  0
  2  3  1  0  0  0
  2 25  1  0  0  0
  2 86  1  0  0  0
  2 87  1  0  0  0
  3  4  1  0  0  0
  3 88  1  0  0  0
  3 89  1  0  0  0
  4  5  1  0  0  0
  4 90  1  0  0  0
  4 91  1  0  0  0
  5  6  1  0  0  0
  5 26  1  0  0  0
  5 92  1  0  0  0
  6 25  1  0  0  0
  6 93  1  0  0  0
  6 94  1  0  0  0
  7  8  2  0  0  0
  7 26  1  0  0  0
  7 29  1  0  0  0
  8  9  1  0  0  0
  8 22  1  0  0  0
  9 10  1  0  0  0
  9 27  2  0  0  0
 10 11  2  0  0  0
 10 15  1  0  0  0
 11 12  1  0  0  0
 11 95  1  0  0  0
 12 13  2  0  0  0
 12 96  1  0  0  0
 13 14  1  0  0  0
 13 31  1  0  0  0
 14 15  2  0  0  0
 14 97  1  0  0  0
 15 98  1  0  0  0
 16 17  2  0  0  0
 16 21  1  0  0  0
 16 31  1  0  0  0
 17 18  1  0  0  0
 17 99  1  0  0  0
 18 19  2  0  0  0
 18100  1  0  0  0
 19 20  1  0  0  0
 19 24  1  0  0  0
 20 21  2  0  0  0
 20101  1  0  0  0
 21 23  1  0  0  0
 22 28  1  0  0  0
 22 32  2  0  0  0
 26 27  1  0  0  0
 28102  1  0  0  0
 28103  1  0  0  0
 29104  1  0  0  0
 29105  1  0  0  0
 33 34  1  0  0  0
 33 66  1  0  0  0
 33 70  2  0  0  0
 34 36  1  0  0  0
 34 59  1  0  0  0
 34106  1  0  0  0
 35 44  2  0  0  0
 35 45  1  0  0  0
 35 68  1  0  0  0
 36 56  1  0  0  0
 36107  1  0  0  0
 37 39  1  0  0  0
 37 47  1  0  0  0
 37 66  1  0  0  0
 37108  1  0  0  0
 38 43  2  0  0  0
 38 46  1  0  0  0
 38 47  1  0  0  0
 39 64  1  0  0  0
 39 67  2  0  0  0
 40 52  1  0  0  0
 40 53  2  0  0  0
 40 58  1  0  0  0
 41109  1  0  0  0
 41110  1  0  0  0
 41111  1  0  0  0
 41 48  1  0  0  0
 42 43  1  0  0  0
 42 66  1  0  0  0
 42112  1  0  0  0
 42113  1  0  0  0
 43 44  1  0  0  0
 44114  1  0  0  0
 45 46  2  0  0  0
 45115  1  0  0  0
 46116  1  0  0  0
 47117  1  0  0  0
 47118  1  0  0  0
 48 56  1  0  0  0
 48 65  1  0  0  0
 48119  1  0  0  0
 49 50  1  0  0  0
 49 53  1  0  0  0
 49 64  1  0  0  0
 49120  1  0  0  0
 50 51  1  0  0  0
 50121  1  0  0  0
 50122  1  0  0  0
 51 52  1  0  0  0
 51123  1  0  0  0
 51124  1  0  0  0
 52125  1  0  0  0
 52126  1  0  0  0
 53 54  1  0  0  0
 54 55  2  0  0  0
 54127  1  0  0  0
 55 57  1  0  0  0
 55128  1  0  0  0
 56 69  2  0  0  0
 57 58  2  0  0  0
 57129  1  0  0  0
 58130  1  0  0  0
 59 60  1  0  0  0
 59 61  1  0  0  0
 59 62  1  0  0  0
 60131  1  0  0  0
 60132  1  0  0  0
 60133  1  0  0  0
 61134  1  0  0  0
 61135  1  0  0  0
 61136  1  0  0  0
 62137  1  0  0  0
 62138  1  0  0  0
 62139  1  0  0  0
 63 65  1  0  0  0
 63140  1  0  0  0
 63141  1  0  0  0
 63142  1  0  0  0
 64143  1  0  0  0
 65144  1  0  0  0
 68 78  1  0  0  0
 71 73  2  0  0  0
 71 75  1  0  0  0
 71145  1  0  0  0
 72 74  1  0  0  0
 72 75  2  0  0  0
 72146  1  0  0  0
 73 76  1  0  0  0
 73147  1  0  0  0
 74 76  2  0  0  0
 74148  1  0  0  0
 75 77  1  0  0  0
 76 82  1  0  0  0
 77 80  2  0  0  0
 77 81  1  0  0  0
 78 79  1  0  0  0
 78149  1  0  0  0
 78150  1  0  0  0
 79151  1  0  0  0
 79152  1  0  0  0
 79 85  1  0  0  0
 80 85  1  0  0  0
 81153  1  0  0  0
 81154  1  0  0  0
 82155  1  0  0  0
 83 85  2  0  0  0
 84 85  2  0  0  0
M  ISO  4   1 100  68 101  78 101  82 100
M  END
> <chiral flag>
0

> <version>
0

> <s_m_source_file>
/data/baiqing/PycharmProjects/Reinvent-master-3.2/result/LINK_invent/BTK/process_docking_weight1_custom_product_contain_oxygen_bond_distance_aromatic_linkinvent_7_9_3/rearranged_h_0072.sdf

> <i_m_source_file_index>
90

> <r_mmod_Potential_Energy-OPLS-2005>
-171.301452636719

> <r_mmod_Stretch_Energy-OPLS-2005>
40.9085426330566

> <r_mmod_Bend_Energy-OPLS-2005>
120.906410217285

> <r_mmod_Torsional_Energy-OPLS-2005>
245.999710083008

> <r_mmod_Improper_Torsional_Energy-OPLS-2005>
4.63827991485596

> <r_mmod_Van_der_Waal_Energy-OPLS-2005>
150.997375488281

> <r_mmod_Electrostatic_Energy-OPLS-2005>
-491.541839599609

> <r_mmod_Solvation_Energy-OPLS-2005>
-257.826080322266

> <b_mmod_Minimization_Converged-OPLS-2005>
0

> <r_mmod_RMS_Derivative-OPLS-2005>
2.65051531791687

$$$$
90
                    3D
 Structure written by MMmdl.
158167  0  0  1  0            999 V2000
  -30.5852  -14.7101   20.4857 C   0  0  0  0  0  0
  -30.4511  -12.4333   19.4605 C   0  0  0  0  0  0
  -29.5172  -12.5070   18.2307 C   0  0  0  0  0  0
  -28.0417  -12.3309   18.6443 C   0  0  0  0  0  0
  -27.6524  -13.2163   19.8578 C   0  0  2  0  0  0
  -28.6985  -13.0950   20.9900 C   0  0  0  0  0  0
  -25.2568  -13.8169   20.5678 C   0  0  0  0  0  0
  -24.1827  -13.0440   20.9197 C   0  0  0  0  0  0
  -24.6391  -11.6916   20.8733 C   0  0  0  0  0  0
  -23.9061  -10.4294   21.0397 C   0  0  0  0  0  0
  -24.3611   -9.4212   21.9181 C   0  0  0  0  0  0
  -23.6283   -8.2253   22.0759 C   0  0  0  0  0  0
  -22.4261   -8.0292   21.3557 C   0  0  0  0  0  0
  -21.9895   -9.0267   20.4657 C   0  0  0  0  0  0
  -22.7232  -10.2139   20.3055 C   0  0  0  0  0  0
  -21.6849   -6.0726   22.5276 C   0  0  0  0  0  0
  -21.4020   -6.5629   23.8210 C   0  0  0  0  0  0
  -21.3658   -5.6789   24.9172 C   0  0  0  0  0  0
  -21.6042   -4.3052   24.7223 C   0  0  0  0  0  0
  -21.8824   -3.8142   23.4344 C   0  0  0  0  0  0
  -21.9191   -4.6954   22.3396 C   0  0  0  0  0  0
  -22.7849  -13.5247   21.1849 C   0  0  0  0  0  0
  -22.1659   -4.2141   21.0970 F   0  0  0  0  0  0
  -21.5625   -3.4537   25.7734 F   0  0  0  0  0  0
  -30.0078  -13.4616   20.4264 N   0  0  0  0  0  0
  -26.2986  -12.9349   20.3287 N   0  0  0  0  0  0
  -25.9320  -11.6508   20.5742 N   0  0  0  0  0  0
  -22.0471  -12.8266   22.0403 N   0  0  0  0  0  0
  -25.4303  -15.1896   20.4073 N   0  0  0  0  0  0
  -31.7494  -14.8867   20.1140 O   0  0  0  0  0  0
  -21.6640   -6.8881   21.4242 O   0  0  0  0  0  0
  -22.3549  -14.5545   20.6677 O   0  0  0  0  0  0
  -24.6292  -31.8559   23.1993 C   0  0  0  0  0  0
  -25.9124  -32.4757   23.8333 C   0  0  1  0  0  0
  -27.2304  -27.2849   20.1199 C   0  0  0  0  0  0
  -25.5923  -33.8560   24.2254 N   0  0  0  0  0  0
  -23.4252  -30.4791   21.5420 C   0  0  2  0  0  0
  -24.8744  -28.9290   20.1105 C   0  0  0  0  0  0
  -22.7492  -29.4611   22.4914 C   0  0  0  0  0  0
  -18.0289  -28.1397   22.8486 C   0  0  0  0  0  0
  -24.1489  -36.7297   23.2637 C   0  0  0  0  0  0
  -25.9686  -30.7760   21.3753 C   0  0  0  0  0  0
  -26.0437  -29.4004   20.7182 C   0  0  0  0  0  0
  -27.2232  -28.5902   20.7136 C   0  0  0  0  0  0
  -26.0355  -26.8810   19.4774 C   0  0  0  0  0  0
  -24.8737  -27.6773   19.4795 C   0  0  0  0  0  0
  -23.6424  -29.8108   20.1588 C   0  0  0  0  0  0
  -25.4112  -36.3070   24.0324 C   0  0  1  0  0  0
  -20.5890  -28.3703   23.1261 C   0  0  2  0  0  0
  -20.6773  -26.9418   22.5401 C   0  0  0  0  0  0
  -19.5749  -26.6384   21.5200 C   0  0  0  0  0  0
  -18.1934  -26.7944   22.1616 C   0  0  0  0  0  0
  -19.1541  -28.8867   23.2877 C   0  0  0  0  0  0
  -18.9469  -30.1470   23.8899 C   0  0  0  0  0  0
  -17.6467  -30.6598   24.0564 C   0  0  0  0  0  0
  -25.9054  -34.9438   23.5096 C   0  0  0  0  0  0
  -16.5357  -29.9096   23.6328 C   0  0  0  0  0  0
  -16.7272  -28.6510   23.0350 C   0  0  0  0  0  0
  -26.4492  -31.6585   25.0726 C   0  0  0  0  0  0
  -25.3715  -31.3735   26.1450 C   0  0  0  0  0  0
  -27.0325  -30.3001   24.6199 C   0  0  0  0  0  0
  -27.6061  -32.4313   25.7491 C   0  0  0  0  0  0
  -27.5577  -37.1795   24.8458 C   0  0  0  0  0  0
  -21.4202  -29.3053   22.3654 N   0  0  0  0  0  0
  -26.4281  -37.3776   23.9411 N   0  0  0  0  0  0
  -24.6929  -31.0546   22.0955 N   0  0  0  0  0  0
  -23.4196  -28.8149   23.3010 O   0  0  0  0  0  0
  -28.3405  -26.4117   20.1885 O   0  0  0  0  0  0
  -26.5637  -34.8914   22.4669 O   0  0  0  0  0  0
  -23.5449  -32.1360   23.7310 O   0  0  0  0  0  0
  -30.6092  -19.4965   20.1930 C   0  0  0  0  0  0
  -30.7599  -18.0650   20.2345 C   0  0  0  0  0  0
  -28.5584  -17.9106   21.1169 C   0  0  0  0  0  0
  -28.4143  -19.3354   21.0684 C   0  0  0  0  0  0
  -29.4508  -20.2229   20.6267 C   0  0  0  0  0  0
  -29.7289  -17.2157   20.7173 C   0  0  0  0  0  0
  -28.7645  -22.7426   21.3758 C   0  0  0  0  0  0
  -29.4101  -22.5188   19.4286 C   0  0  0  0  0  0
  -29.2313  -23.8230   20.3086 C   0  0  2  0  0  0
  -27.0709  -19.8936   21.5087 C   0  0  0  0  0  0
  -30.5158  -24.5163   20.7761 C   0  0  0  0  0  0
  -28.1462  -24.9486   19.9184 C   0  0  0  0  0  0
  -29.3980  -21.7087   20.6528 N   0  0  0  0  0  0
  -29.7342  -15.7402   20.8292 N   0  0  0  0  0  0
  -28.0866  -22.7329   22.3823 O   0  0  0  0  0  0
  -31.4889  -12.5785   19.1571 H   0  0  0  0  0  0
  -30.4108  -11.4432   19.9163 H   0  0  0  0  0  0
  -29.7930  -11.7448   17.5012 H   0  0  0  0  0  0
  -29.6466  -13.4681   17.7310 H   0  0  0  0  0  0
  -27.8947  -11.2794   18.8974 H   0  0  0  0  0  0
  -27.3856  -12.5344   17.7971 H   0  0  0  0  0  0
  -27.6616  -14.2446   19.4963 H   0  0  0  0  0  0
  -28.7274  -12.0751   21.3767 H   0  0  0  0  0  0
  -28.4325  -13.7263   21.8394 H   0  0  0  0  0  0
  -25.2755   -9.5676   22.4758 H   0  0  0  0  0  0
  -23.9983   -7.4639   22.7478 H   0  0  0  0  0  0
  -21.0824   -8.8791   19.8967 H   0  0  0  0  0  0
  -22.3697  -10.9676   19.6159 H   0  0  0  0  0  0
  -21.2022   -7.6138   23.9713 H   0  0  0  0  0  0
  -21.1469   -6.0513   25.9075 H   0  0  0  0  0  0
  -22.0599   -2.7602   23.2848 H   0  0  0  0  0  0
  -22.4056  -11.9928   22.4822 H   0  0  0  0  0  0
  -21.1090  -13.1321   22.2581 H   0  0  0  0  0  0
  -24.6625  -15.8429   20.5144 H   0  0  0  0  0  0
  -26.2648  -15.6201   20.0316 H   0  0  0  0  0  0
  -26.7197  -32.5413   23.1083 H   0  0  0  0  0  0
  -25.0025  -33.9689   25.0367 H   0  0  0  0  0  0
  -22.7213  -31.3009   21.3956 H   0  0  0  0  0  0
  -23.3736  -35.9641   23.3292 H   0  0  0  0  0  0
  -24.3582  -36.8931   22.2052 H   0  0  0  0  0  0
  -23.7255  -37.6502   23.6673 H   0  0  0  0  0  0
  -26.1003  -31.5339   20.6022 H   0  0  0  0  0  0
  -26.8493  -30.8293   22.0032 H   0  0  0  0  0  0
  -28.1193  -28.9450   21.2026 H   0  0  0  0  0  0
  -25.9632  -25.9277   18.9765 H   0  0  0  0  0  0
  -23.9782  -27.3150   18.9931 H   0  0  0  0  0  0
  -23.7638  -30.5833   19.3993 H   0  0  0  0  0  0
  -22.7629  -29.2400   19.8571 H   0  0  0  0  0  0
  -25.1286  -36.1915   25.0814 H   0  0  0  0  0  0
  -20.9986  -28.3290   24.1378 H   0  0  0  0  0  0
  -20.5640  -26.2322   23.3609 H   0  0  0  0  0  0
  -21.6648  -26.7426   22.1211 H   0  0  0  0  0  0
  -19.6903  -25.6286   21.1241 H   0  0  0  0  0  0
  -19.6685  -27.3180   20.6716 H   0  0  0  0  0  0
  -17.4195  -26.6680   21.4035 H   0  0  0  0  0  0
  -18.0350  -26.0085   22.9007 H   0  0  0  0  0  0
  -19.7948  -30.7291   24.2271 H   0  0  0  0  0  0
  -17.5019  -31.6278   24.5168 H   0  0  0  0  0  0
  -15.5361  -30.2992   23.7666 H   0  0  0  0  0  0
  -15.8671  -28.0827   22.7070 H   0  0  0  0  0  0
  -24.5898  -30.7074   25.7780 H   0  0  0  0  0  0
  -24.8892  -32.2901   26.4858 H   0  0  0  0  0  0
  -25.8026  -30.8925   27.0240 H   0  0  0  0  0  0
  -26.2897  -29.6764   24.1212 H   0  0  0  0  0  0
  -27.3994  -29.7259   25.4719 H   0  0  0  0  0  0
  -27.8785  -30.4277   23.9441 H   0  0  0  0  0  0
  -27.2691  -33.3615   26.2075 H   0  0  0  0  0  0
  -28.3865  -32.6863   25.0311 H   0  0  0  0  0  0
  -28.0734  -31.8428   26.5396 H   0  0  0  0  0  0
  -28.2585  -38.0098   24.7513 H   0  0  0  0  0  0
  -28.1078  -36.2633   24.6262 H   0  0  0  0  0  0
  -27.2308  -37.1432   25.8864 H   0  0  0  0  0  0
  -20.9392  -29.8790   21.6868 H   0  0  0  0  0  0
  -26.0153  -38.2846   24.1421 H   0  0  0  0  0  0
  -31.4537  -20.0668   19.8319 H   0  0  0  0  0  0
  -31.6901  -17.6318   19.8940 H   0  0  0  0  0  0
  -27.7220  -17.3293   21.4793 H   0  0  0  0  0  0
  -30.3519  -22.4653   18.8790 H   0  0  0  0  0  0
  -28.5581  -22.3061   18.7775 H   0  0  0  0  0  0
  -26.2871  -19.1375   21.4553 H   0  0  0  0  0  0
  -26.7573  -20.7188   20.8685 H   0  0  0  0  0  0
  -27.1230  -20.2487   22.5382 H   0  0  0  0  0  0
  -31.2856  -23.8002   21.0667 H   0  0  0  0  0  0
  -30.3323  -25.1598   21.6369 H   0  0  0  0  0  0
  -30.9361  -25.1378   19.9854 H   0  0  0  0  0  0
  -27.1999  -24.6584   20.3781 H   0  0  0  0  0  0
  -27.9769  -24.8717   18.8444 H   0  0  0  0  0  0
  -28.8536  -15.3672   21.1465 H   0  0  0  0  0  0
  1 25  1  0  0  0
  1 30  2  0  0  0
  1 84  1  0  0  0
  2  3  1  0  0  0
  2 25  1  0  0  0
  2 86  1  0  0  0
  2 87  1  0  0  0
  3  4  1  0  0  0
  3 88  1  0  0  0
  3 89  1  0  0  0
  4  5  1  0  0  0
  4 90  1  0  0  0
  4 91  1  0  0  0
  5  6  1  0  0  0
  5 26  1  0  0  0
  5 92  1  0  0  0
  6 25  1  0  0  0
  6 93  1  0  0  0
  6 94  1  0  0  0
  7  8  2  0  0  0
  7 26  1  0  0  0
  7 29  1  0  0  0
  8  9  1  0  0  0
  8 22  1  0  0  0
  9 10  1  0  0  0
  9 27  2  0  0  0
 10 11  2  0  0  0
 10 15  1  0  0  0
 11 12  1  0  0  0
 11 95  1  0  0  0
 12 13  2  0  0  0
 12 96  1  0  0  0
 13 14  1  0  0  0
 13 31  1  0  0  0
 14 15  2  0  0  0
 14 97  1  0  0  0
 15 98  1  0  0  0
 16 17  2  0  0  0
 16 21  1  0  0  0
 16 31  1  0  0  0
 17 18  1  0  0  0
 17 99  1  0  0  0
 18 19  2  0  0  0
 18100  1  0  0  0
 19 20  1  0  0  0
 19 24  1  0  0  0
 20 21  2  0  0  0
 20101  1  0  0  0
 21 23  1  0  0  0
 22 28  1  0  0  0
 22 32  2  0  0  0
 26 27  1  0  0  0
 28102  1  0  0  0
 28103  1  0  0  0
 29104  1  0  0  0
 29105  1  0  0  0
 33 34  1  0  0  0
 33 66  1  0  0  0
 33 70  2  0  0  0
 34 36  1  0  0  0
 34 59  1  0  0  0
 34106  1  0  0  0
 35 44  2  0  0  0
 35 45  1  0  0  0
 35 68  1  0  0  0
 36 56  1  0  0  0
 36107  1  0  0  0
 37 39  1  0  0  0
 37 47  1  0  0  0
 37 66  1  0  0  0
 37108  1  0  0  0
 38 43  2  0  0  0
 38 46  1  0  0  0
 38 47  1  0  0  0
 39 64  1  0  0  0
 39 67  2  0  0  0
 40 52  1  0  0  0
 40 53  2  0  0  0
 40 58  1  0  0  0
 41109  1  0  0  0
 41110  1  0  0  0
 41111  1  0  0  0
 41 48  1  0  0  0
 42 43  1  0  0  0
 42 66  1  0  0  0
 42112  1  0  0  0
 42113  1  0  0  0
 43 44  1  0  0  0
 44114  1  0  0  0
 45 46  2  0  0  0
 45115  1  0  0  0
 46116  1  0  0  0
 47117  1  0  0  0
 47118  1  0  0  0
 48 56  1  0  0  0
 48 65  1  0  0  0
 48119  1  0  0  0
 49 50  1  0  0  0
 49 53  1  0  0  0
 49 64  1  0  0  0
 49120  1  0  0  0
 50 51  1  0  0  0
 50121  1  0  0  0
 50122  1  0  0  0
 51 52  1  0  0  0
 51123  1  0  0  0
 51124  1  0  0  0
 52125  1  0  0  0
 52126  1  0  0  0
 53 54  1  0  0  0
 54 55  2  0  0  0
 54127  1  0  0  0
 55 57  1  0  0  0
 55128  1  0  0  0
 56 69  2  0  0  0
 57 58  2  0  0  0
 57129  1  0  0  0
 58130  1  0  0  0
 59 60  1  0  0  0
 59 61  1  0  0  0
 59 62  1  0  0  0
 60131  1  0  0  0
 60132  1  0  0  0
 60133  1  0  0  0
 61134  1  0  0  0
 61135  1  0  0  0
 61136  1  0  0  0
 62137  1  0  0  0
 62138  1  0  0  0
 62139  1  0  0  0
 63 65  1  0  0  0
 63140  1  0  0  0
 63141  1  0  0  0
 63142  1  0  0  0
 64143  1  0  0  0
 65144  1  0  0  0
 68 82  1  0  0  0
 71 72  2  0  0  0
 71 75  1  0  0  0
 71145  1  0  0  0
 72 76  1  0  0  0
 72146  1  0  0  0
 73 74  1  0  0  0
 73 76  2  0  0  0
 73147  1  0  0  0
 74 75  2  0  0  0
 74 80  1  0  0  0
 75 83  1  0  0  0
 76 84  1  0  0  0
 77 79  1  0  0  0
 77 83  1  0  0  0
 77 85  2  0  0  0
 78 79  1  0  0  0
 78 83  1  0  0  0
 78148  1  0  0  0
 78149  1  0  0  0
 79 81  1  0  0  0
 79 82  1  0  0  0
 80150  1  0  0  0
 80151  1  0  0  0
 80152  1  0  0  0
 81153  1  0  0  0
 81154  1  0  0  0
 81155  1  0  0  0
 82156  1  0  0  0
 82157  1  0  0  0
 84158  1  0  0  0
M  ISO  4   1 100  68 101  82 101  84 100
M  END
> <chiral flag>
0

> <version>
0

> <s_m_source_file>
/data/baiqing/PycharmProjects/Reinvent-master-3.2/result/LINK_invent/BTK/process_docking_weight1_custom_product_contain_oxygen_bond_distance_aromatic_linkinvent_7_9_3/rearranged_h_0072.sdf

> <i_m_source_file_index>
91

> <r_mmod_Potential_Energy-OPLS-2005>
131.282440185547

> <r_mmod_Stretch_Energy-OPLS-2005>
104.38094329834

> <r_mmod_Bend_Energy-OPLS-2005>
192.148498535156

> <r_mmod_Torsional_Energy-OPLS-2005>
245.61750793457

> <r_mmod_Improper_Torsional_Energy-OPLS-2005>
6.53686666488647

> <r_mmod_Van_der_Waal_Energy-OPLS-2005>
139.456344604492

> <r_mmod_Electrostatic_Energy-OPLS-2005>
-408.346923828125

> <r_mmod_Solvation_Energy-OPLS-2005>
-219.211151123047

> <b_mmod_Minimization_Converged-OPLS-2005>
0

> <r_mmod_RMS_Derivative-OPLS-2005>
2.0015070438385

$$$$
91
                    3D
 Structure written by MMmdl.
168177  0  0  1  0            999 V2000
  -30.6375  -14.6379   20.5417 C   0  0  0  0  0  0
  -30.4301  -12.4090   19.4231 C   0  0  0  0  0  0
  -29.4881  -12.5214   18.2064 C   0  0  0  0  0  0
  -28.0228  -12.3243   18.6462 C   0  0  0  0  0  0
  -27.6451  -13.2102   19.8651 C   0  0  2  0  0  0
  -28.6985  -13.0648   20.9851 C   0  0  0  0  0  0
  -25.2509  -13.8113   20.5695 C   0  0  0  0  0  0
  -24.1799  -13.0370   20.9223 C   0  0  0  0  0  0
  -24.6363  -11.6851   20.8786 C   0  0  0  0  0  0
  -23.9035  -10.4237   21.0416 C   0  0  0  0  0  0
  -24.3593   -9.4147   21.9193 C   0  0  0  0  0  0
  -23.6294   -8.2167   22.0763 C   0  0  0  0  0  0
  -22.4293   -8.0213   21.3529 C   0  0  0  0  0  0
  -21.9896   -9.0175   20.4630 C   0  0  0  0  0  0
  -22.7210  -10.2059   20.3061 C   0  0  0  0  0  0
  -21.6830   -6.0702   22.5272 C   0  0  0  0  0  0
  -21.3970   -6.5618   23.8187 C   0  0  0  0  0  0
  -21.3679   -5.6791   24.9165 C   0  0  0  0  0  0
  -21.6074   -4.3055   24.7224 C   0  0  0  0  0  0
  -21.8824   -3.8133   23.4350 C   0  0  0  0  0  0
  -21.9168   -4.6931   22.3396 C   0  0  0  0  0  0
  -22.7813  -13.5147   21.1903 C   0  0  0  0  0  0
  -22.1670   -4.2126   21.0968 F   0  0  0  0  0  0
  -21.5641   -3.4542   25.7729 F   0  0  0  0  0  0
  -29.9972  -13.4335   20.3986 N   0  0  0  0  0  0
  -26.2950  -12.9311   20.3395 N   0  0  0  0  0  0
  -25.9284  -11.6471   20.5826 N   0  0  0  0  0  0
  -22.0515  -12.8070   22.0453 N   0  0  0  0  0  0
  -25.4105  -15.1838   20.4061 N   0  0  0  0  0  0
  -31.8163  -14.7733   20.2109 O   0  0  0  0  0  0
  -21.6629   -6.8851   21.4253 O   0  0  0  0  0  0
  -22.3447  -14.5443   20.6737 O   0  0  0  0  0  0
  -24.6453  -31.8573   23.2043 C   0  0  0  0  0  0
  -25.9221  -32.4765   23.8419 C   0  0  1  0  0  0
  -27.2335  -27.2370   20.1171 C   0  0  0  0  0  0
  -25.5955  -33.8563   24.2280 N   0  0  0  0  0  0
  -23.4603  -30.4797   21.5611 C   0  0  2  0  0  0
  -24.8786  -28.9051   20.1352 C   0  0  0  0  0  0
  -22.7808  -29.4781   22.5193 C   0  0  0  0  0  0
  -17.9951  -28.1193   22.8796 C   0  0  0  0  0  0
  -24.1496  -36.7267   23.2643 C   0  0  0  0  0  0
  -26.0036  -30.7436   21.4019 C   0  0  0  0  0  0
  -26.0574  -29.3689   20.7368 C   0  0  0  0  0  0
  -27.2301  -28.5480   20.7134 C   0  0  0  0  0  0
  -26.0223  -26.8414   19.5148 C   0  0  0  0  0  0
  -24.8662  -27.6474   19.5182 C   0  0  0  0  0  0
  -23.6566  -29.7991   20.1813 C   0  0  0  0  0  0
  -25.4118  -36.3037   24.0309 C   0  0  1  0  0  0
  -20.4824  -28.4594   22.7797 C   0  0  2  0  0  0
  -20.6938  -26.9594   22.5319 C   0  0  0  0  0  0
  -19.5526  -26.4520   21.6237 C   0  0  0  0  0  0
  -18.1580  -26.7493   22.2191 C   0  0  0  0  0  0
  -19.1161  -28.8989   23.2526 C   0  0  0  0  0  0
  -18.9340  -30.1499   23.8769 C   0  0  0  0  0  0
  -17.6355  -30.6532   24.0737 C   0  0  0  0  0  0
  -25.9059  -34.9403   23.5105 C   0  0  0  0  0  0
  -16.5192  -29.8941   23.6732 C   0  0  0  0  0  0
  -16.6992  -28.6228   23.0945 C   0  0  0  0  0  0
  -26.4498  -31.6620   25.0858 C   0  0  0  0  0  0
  -25.3635  -31.3866   26.1520 C   0  0  0  0  0  0
  -27.0375  -30.2993   24.6514 C   0  0  0  0  0  0
  -27.6012  -32.4424   25.7635 C   0  0  0  0  0  0
  -27.5568  -37.1796   24.8440 C   0  0  0  0  0  0
  -21.4604  -29.4420   22.3868 N   0  0  0  0  0  0
  -26.4305  -37.3736   23.9380 N   0  0  0  0  0  0
  -24.7240  -31.0503   22.1046 N   0  0  0  0  0  0
  -23.4213  -28.7564   23.2837 O   0  0  0  0  0  0
  -28.4150  -26.4731   19.9784 O   0  0  0  0  0  0
  -26.5650  -34.8884   22.4689 O   0  0  0  0  0  0
  -23.5564  -32.1404   23.7259 O   0  0  0  0  0  0
  -28.1992  -17.7683   22.7196 C   0  0  0  0  0  0
  -28.4541  -16.9349   23.8321 C   0  0  0  0  0  0
  -30.6285  -16.4112   22.8914 C   0  0  0  0  0  0
  -29.2010  -17.9875   21.7329 C   0  0  0  0  0  0
  -30.1748  -16.9069   21.6430 C   0  0  0  0  0  0
  -29.7191  -16.3435   23.9658 C   0  0  0  0  0  0
  -29.2700  -21.2434   19.4474 C   0  0  0  0  0  0
  -29.0556  -21.9053   21.7518 C   0  0  0  0  0  0
  -29.2445  -19.6894   19.8267 C   0  0  0  0  0  0
  -28.8966  -20.4141   22.2000 C   0  0  0  0  0  0
  -28.4041  -22.1541   20.3794 C   0  0  0  0  0  0
  -26.5933  -23.8715   20.9224 C   0  0  0  0  0  0
  -27.3788  -23.5348   18.5275 C   0  0  0  0  0  0
  -28.7180  -24.9984   20.1946 C   0  0  0  0  0  0
  -27.8260  -23.6599   20.0074 C   0  0  0  0  0  0
  -29.3807  -19.3583   21.2663 N   0  0  0  0  0  0
  -29.8564  -15.7339   20.8283 N   0  0  0  0  0  0
  -30.1110  -15.4397   25.3824 Cl  0  0  0  0  0  0
  -31.4667  -12.5429   19.1051 H   0  0  0  0  0  0
  -30.3797  -11.4105   19.8610 H   0  0  0  0  0  0
  -29.7597  -11.7906   17.4430 H   0  0  0  0  0  0
  -29.5967  -13.5024   17.7397 H   0  0  0  0  0  0
  -27.8947  -11.2787   18.9176 H   0  0  0  0  0  0
  -27.3448  -12.5060   17.8146 H   0  0  0  0  0  0
  -27.6633  -14.2443   19.5193 H   0  0  0  0  0  0
  -28.7285  -12.0308   21.3390 H   0  0  0  0  0  0
  -28.4501  -13.6708   21.8581 H   0  0  0  0  0  0
  -25.2749   -9.5603   22.4757 H   0  0  0  0  0  0
  -23.9992   -7.4545   22.7454 H   0  0  0  0  0  0
  -21.0847   -8.8666   19.8915 H   0  0  0  0  0  0
  -22.3697  -10.9571   19.6151 H   0  0  0  0  0  0
  -21.1963   -7.6124   23.9679 H   0  0  0  0  0  0
  -21.1540   -6.0524   25.9057 H   0  0  0  0  0  0
  -22.0615   -2.7604   23.2833 H   0  0  0  0  0  0
  -22.4194  -11.9717   22.4745 H   0  0  0  0  0  0
  -21.1113  -13.0956   22.2719 H   0  0  0  0  0  0
  -24.6284  -15.8196   20.5165 H   0  0  0  0  0  0
  -26.2415  -15.6335   20.0520 H   0  0  0  0  0  0
  -26.7313  -32.5382   23.1171 H   0  0  0  0  0  0
  -25.0010  -33.9694   25.0355 H   0  0  0  0  0  0
  -22.7650  -31.3054   21.4037 H   0  0  0  0  0  0
  -23.3742  -35.9623   23.3346 H   0  0  0  0  0  0
  -24.3532  -36.8870   22.2048 H   0  0  0  0  0  0
  -23.7285  -37.6485   23.6659 H   0  0  0  0  0  0
  -26.1866  -31.5141   20.6492 H   0  0  0  0  0  0
  -26.8590  -30.7596   22.0639 H   0  0  0  0  0  0
  -28.1447  -28.9113   21.1621 H   0  0  0  0  0  0
  -25.9511  -25.9064   19.0010 H   0  0  0  0  0  0
  -23.9699  -27.2862   19.0321 H   0  0  0  0  0  0
  -23.7728  -30.5560   19.4043 H   0  0  0  0  0  0
  -22.7707  -29.2277   19.8942 H   0  0  0  0  0  0
  -25.1320  -36.1894   25.0805 H   0  0  0  0  0  0
  -20.1617  -28.6759   21.7582 H   0  0  0  0  0  0
  -21.6534  -26.7583   22.0584 H   0  0  0  0  0  0
  -20.6912  -26.4230   23.4813 H   0  0  0  0  0  0
  -19.6532  -25.3775   21.4651 H   0  0  0  0  0  0
  -19.6339  -26.9048   20.6374 H   0  0  0  0  0  0
  -17.3960  -26.6253   21.4461 H   0  0  0  0  0  0
  -17.9270  -26.0059   22.9825 H   0  0  0  0  0  0
  -19.7896  -30.7548   24.1452 H   0  0  0  0  0  0
  -17.4897  -31.6266   24.5251 H   0  0  0  0  0  0
  -15.5202  -30.2761   23.8223 H   0  0  0  0  0  0
  -15.8341  -28.0362   22.8087 H   0  0  0  0  0  0
  -24.5740  -30.7319   25.7805 H   0  0  0  0  0  0
  -24.8913  -32.3103   26.4896 H   0  0  0  0  0  0
  -25.7809  -30.9014   27.0347 H   0  0  0  0  0  0
  -26.3045  -29.6746   24.1399 H   0  0  0  0  0  0
  -27.3790  -29.7275   25.5156 H   0  0  0  0  0  0
  -27.9029  -30.4216   23.9993 H   0  0  0  0  0  0
  -27.2531  -33.3700   26.2219 H   0  0  0  0  0  0
  -28.3772  -32.7089   25.0432 H   0  0  0  0  0  0
  -28.0754  -31.8608   26.5553 H   0  0  0  0  0  0
  -28.2585  -38.0101   24.7437 H   0  0  0  0  0  0
  -28.1081  -36.2605   24.6342 H   0  0  0  0  0  0
  -27.2249  -37.1508   25.8839 H   0  0  0  0  0  0
  -21.0849  -30.1466   21.7648 H   0  0  0  0  0  0
  -26.0173  -38.2812   24.1367 H   0  0  0  0  0  0
  -27.2974  -18.3573   22.7556 H   0  0  0  0  0  0
  -27.7153  -16.8282   24.6196 H   0  0  0  0  0  0
  -31.4889  -15.7582   22.9563 H   0  0  0  0  0  0
  -28.9576  -21.3254   18.4066 H   0  0  0  0  0  0
  -30.2977  -21.6036   19.4622 H   0  0  0  0  0  0
  -30.1149  -22.1694   21.7284 H   0  0  0  0  0  0
  -28.6034  -22.5534   22.4985 H   0  0  0  0  0  0
  -30.0593  -19.1959   19.2948 H   0  0  0  0  0  0
  -28.3297  -19.2383   19.4436 H   0  0  0  0  0  0
  -27.8376  -20.2926   22.4151 H   0  0  0  0  0  0
  -29.4146  -20.2815   23.1542 H   0  0  0  0  0  0
  -27.4846  -21.5657   20.3839 H   0  0  0  0  0  0
  -26.7903  -24.6031   21.7059 H   0  0  0  0  0  0
  -26.2855  -22.9674   21.4448 H   0  0  0  0  0  0
  -25.7165  -24.2164   20.3817 H   0  0  0  0  0  0
  -26.6474  -22.7369   18.4019 H   0  0  0  0  0  0
  -28.2185  -23.3059   17.8742 H   0  0  0  0  0  0
  -26.9455  -24.4355   18.1125 H   0  0  0  0  0  0
  -29.5505  -24.8456   19.5047 H   0  0  0  0  0  0
  -29.1979  -24.9384   21.1756 H   0  0  0  0  0  0
  -28.8675  -15.5647   20.7334 H   0  0  0  0  0  0
  1 25  1  0  0  0
  1 30  2  0  0  0
  1 87  1  0  0  0
  2  3  1  0  0  0
  2 25  1  0  0  0
  2 89  1  0  0  0
  2 90  1  0  0  0
  3  4  1  0  0  0
  3 91  1  0  0  0
  3 92  1  0  0  0
  4  5  1  0  0  0
  4 93  1  0  0  0
  4 94  1  0  0  0
  5  6  1  0  0  0
  5 26  1  0  0  0
  5 95  1  0  0  0
  6 25  1  0  0  0
  6 96  1  0  0  0
  6 97  1  0  0  0
  7  8  2  0  0  0
  7 26  1  0  0  0
  7 29  1  0  0  0
  8  9  1  0  0  0
  8 22  1  0  0  0
  9 10  1  0  0  0
  9 27  2  0  0  0
 10 11  2  0  0  0
 10 15  1  0  0  0
 11 12  1  0  0  0
 11 98  1  0  0  0
 12 13  2  0  0  0
 12 99  1  0  0  0
 13 14  1  0  0  0
 13 31  1  0  0  0
 14 15  2  0  0  0
 14100  1  0  0  0
 15101  1  0  0  0
 16 17  2  0  0  0
 16 21  1  0  0  0
 16 31  1  0  0  0
 17 18  1  0  0  0
 17102  1  0  0  0
 18 19  2  0  0  0
 18103  1  0  0  0
 19 20  1  0  0  0
 19 24  1  0  0  0
 20 21  2  0  0  0
 20104  1  0  0  0
 21 23  1  0  0  0
 22 28  1  0  0  0
 22 32  2  0  0  0
 26 27  1  0  0  0
 28105  1  0  0  0
 28106  1  0  0  0
 29107  1  0  0  0
 29108  1  0  0  0
 33 34  1  0  0  0
 33 66  1  0  0  0
 33 70  2  0  0  0
 34 36  1  0  0  0
 34 59  1  0  0  0
 34109  1  0  0  0
 35 44  2  0  0  0
 35 45  1  0  0  0
 35 68  1  0  0  0
 36 56  1  0  0  0
 36110  1  0  0  0
 37 39  1  0  0  0
 37 47  1  0  0  0
 37 66  1  0  0  0
 37111  1  0  0  0
 38 43  2  0  0  0
 38 46  1  0  0  0
 38 47  1  0  0  0
 39 64  1  0  0  0
 39 67  2  0  0  0
 40 52  1  0  0  0
 40 53  2  0  0  0
 40 58  1  0  0  0
 41112  1  0  0  0
 41113  1  0  0  0
 41114  1  0  0  0
 41 48  1  0  0  0
 42 43  1  0  0  0
 42 66  1  0  0  0
 42115  1  0  0  0
 42116  1  0  0  0
 43 44  1  0  0  0
 44117  1  0  0  0
 45 46  2  0  0  0
 45118  1  0  0  0
 46119  1  0  0  0
 47120  1  0  0  0
 47121  1  0  0  0
 48 56  1  0  0  0
 48 65  1  0  0  0
 48122  1  0  0  0
 49 50  1  0  0  0
 49 53  1  0  0  0
 49 64  1  0  0  0
 49123  1  0  0  0
 50 51  1  0  0  0
 50124  1  0  0  0
 50125  1  0  0  0
 51 52  1  0  0  0
 51126  1  0  0  0
 51127  1  0  0  0
 52128  1  0  0  0
 52129  1  0  0  0
 53 54  1  0  0  0
 54 55  2  0  0  0
 54130  1  0  0  0
 55 57  1  0  0  0
 55131  1  0  0  0
 56 69  2  0  0  0
 57 58  2  0  0  0
 57132  1  0  0  0
 58133  1  0  0  0
 59 60  1  0  0  0
 59 61  1  0  0  0
 59 62  1  0  0  0
 60134  1  0  0  0
 60135  1  0  0  0
 60136  1  0  0  0
 61137  1  0  0  0
 61138  1  0  0  0
 61139  1  0  0  0
 62140  1  0  0  0
 62141  1  0  0  0
 62142  1  0  0  0
 63 65  1  0  0  0
 63143  1  0  0  0
 63144  1  0  0  0
 63145  1  0  0  0
 64146  1  0  0  0
 65147  1  0  0  0
 68 84  1  0  0  0
 71 72  2  0  0  0
 71 74  1  0  0  0
 71148  1  0  0  0
 72 76  1  0  0  0
 72149  1  0  0  0
 73 75  1  0  0  0
 73 76  2  0  0  0
 73150  1  0  0  0
 74 75  2  0  0  0
 74 86  1  0  0  0
 75 87  1  0  0  0
 76 88  1  0  0  0
 77 79  1  0  0  0
 77151  1  0  0  0
 77152  1  0  0  0
 77 81  1  0  0  0
 78 80  1  0  0  0
 78 81  1  0  0  0
 78153  1  0  0  0
 78154  1  0  0  0
 79 86  1  0  0  0
 79155  1  0  0  0
 79156  1  0  0  0
 80 86  1  0  0  0
 80157  1  0  0  0
 80158  1  0  0  0
 81 85  1  0  0  0
 81159  1  0  0  0
 82160  1  0  0  0
 82161  1  0  0  0
 82162  1  0  0  0
 82 85  1  0  0  0
 83 85  1  0  0  0
 83163  1  0  0  0
 83164  1  0  0  0
 83165  1  0  0  0
 84 85  1  0  0  0
 84166  1  0  0  0
 84167  1  0  0  0
 87168  1  0  0  0
M  ISO  4   1 100  68 101  84 101  87 100
M  END
> <chiral flag>
0

> <version>
0

> <s_m_source_file>
/data/baiqing/PycharmProjects/Reinvent-master-3.2/result/LINK_invent/BTK/process_docking_weight1_custom_product_contain_oxygen_bond_distance_aromatic_linkinvent_7_9_3/rearranged_h_0072.sdf

> <i_m_source_file_index>
92

> <r_mmod_Potential_Energy-OPLS-2005>
672.287719726562

> <r_mmod_Stretch_Energy-OPLS-2005>
123.515312194824

> <r_mmod_Bend_Energy-OPLS-2005>
388.723510742188

> <r_mmod_Torsional_Energy-OPLS-2005>
520.604248046875

> <r_mmod_Improper_Torsional_Energy-OPLS-2005>
36.8159408569336

> <r_mmod_Van_der_Waal_Energy-OPLS-2005>
165.251770019531

> <r_mmod_Electrostatic_Energy-OPLS-2005>
-422.959167480469

> <r_mmod_Solvation_Energy-OPLS-2005>
-219.610397338867

> <b_mmod_Minimization_Converged-OPLS-2005>
0

> <r_mmod_RMS_Derivative-OPLS-2005>
7.88983297348022

$$$$
92
                    3D
 Structure written by MMmdl.
166175  0  0  1  0            999 V2000
  -30.5706  -14.9330   20.4875 C   0  0  0  0  0  0
  -30.4368  -12.5869   19.5097 C   0  0  0  0  0  0
  -29.5211  -12.5511   18.2637 C   0  0  0  0  0  0
  -28.0545  -12.3330   18.6754 C   0  0  0  0  0  0
  -27.6342  -13.2528   19.8510 C   0  0  2  0  0  0
  -28.6723  -13.2541   20.9921 C   0  0  0  0  0  0
  -25.2415  -13.8189   20.5643 C   0  0  0  0  0  0
  -24.1737  -13.0404   20.9127 C   0  0  0  0  0  0
  -24.6395  -11.6906   20.8719 C   0  0  0  0  0  0
  -23.9085  -10.4277   21.0390 C   0  0  0  0  0  0
  -24.3630   -9.4200   21.9179 C   0  0  0  0  0  0
  -23.6299   -8.2240   22.0756 C   0  0  0  0  0  0
  -22.4281   -8.0277   21.3545 C   0  0  0  0  0  0
  -21.9918   -9.0247   20.4644 C   0  0  0  0  0  0
  -22.7253  -10.2120   20.3046 C   0  0  0  0  0  0
  -21.6853   -6.0734   22.5281 C   0  0  0  0  0  0
  -21.4013   -6.5640   23.8213 C   0  0  0  0  0  0
  -21.3661   -5.6793   24.9176 C   0  0  0  0  0  0
  -21.6045   -4.3055   24.7226 C   0  0  0  0  0  0
  -21.8819   -3.8147   23.4348 C   0  0  0  0  0  0
  -21.9192   -4.6963   22.3404 C   0  0  0  0  0  0
  -22.7765  -13.5176   21.1830 C   0  0  0  0  0  0
  -22.1662   -4.2150   21.0981 F   0  0  0  0  0  0
  -21.5629   -3.4538   25.7739 F   0  0  0  0  0  0
  -29.9617  -13.6737   20.4206 N   0  0  0  0  0  0
  -26.2907  -12.9466   20.3318 N   0  0  0  0  0  0
  -25.9350  -11.6584   20.5784 N   0  0  0  0  0  0
  -22.0447  -12.8164   22.0413 N   0  0  0  0  0  0
  -25.4009  -15.1901   20.4064 N   0  0  0  0  0  0
  -31.7070  -15.0260   20.0082 O   0  0  0  0  0  0
  -21.6640   -6.8877   21.4244 O   0  0  0  0  0  0
  -22.3441  -14.5502   20.6724 O   0  0  0  0  0  0
  -24.6436  -31.8431   23.1879 C   0  0  0  0  0  0
  -25.9207  -32.4687   23.8269 C   0  0  1  0  0  0
  -27.2177  -27.1261   20.1490 C   0  0  0  0  0  0
  -25.5953  -33.8495   24.2181 N   0  0  0  0  0  0
  -23.4477  -30.4622   21.5334 C   0  0  2  0  0  0
  -24.8974  -28.8893   20.1075 C   0  0  0  0  0  0
  -22.7569  -29.4538   22.4855 C   0  0  0  0  0  0
  -18.0304  -28.1396   22.8477 C   0  0  0  0  0  0
  -24.1492  -36.7252   23.2643 C   0  0  0  0  0  0
  -26.0041  -30.7123   21.3903 C   0  0  0  0  0  0
  -26.0733  -29.3232   20.7310 C   0  0  0  0  0  0
  -27.2306  -28.4563   20.7377 C   0  0  0  0  0  0
  -26.0185  -26.8042   19.4733 C   0  0  0  0  0  0
  -24.8840  -27.6441   19.4630 C   0  0  0  0  0  0
  -23.6743  -29.7921   20.1522 C   0  0  0  0  0  0
  -25.4126  -36.3027   24.0314 C   0  0  1  0  0  0
  -20.5916  -28.3721   23.1234 C   0  0  2  0  0  0
  -20.6788  -26.9423   22.5404 C   0  0  0  0  0  0
  -19.5761  -26.6382   21.5213 C   0  0  0  0  0  0
  -18.1943  -26.7935   22.1624 C   0  0  0  0  0  0
  -19.1561  -28.8878   23.2848 C   0  0  0  0  0  0
  -18.9478  -30.1475   23.8871 C   0  0  0  0  0  0
  -17.6473  -30.6591   24.0561 C   0  0  0  0  0  0
  -25.9076  -34.9402   23.5057 C   0  0  0  0  0  0
  -16.5364  -29.9084   23.6337 C   0  0  0  0  0  0
  -16.7289  -28.6505   23.0355 C   0  0  0  0  0  0
  -26.4528  -31.6562   25.0717 C   0  0  0  0  0  0
  -25.3710  -31.3759   26.1410 C   0  0  0  0  0  0
  -27.0403  -30.2957   24.6315 C   0  0  0  0  0  0
  -27.6049  -32.4339   25.7507 C   0  0  0  0  0  0
  -27.5575  -37.1784   24.8466 C   0  0  0  0  0  0
  -21.4260  -29.3043   22.3603 N   0  0  0  0  0  0
  -26.4288  -37.3741   23.9406 N   0  0  0  0  0  0
  -24.7180  -31.0278   22.0918 N   0  0  0  0  0  0
  -23.4210  -28.8089   23.3011 O   0  0  0  0  0  0
  -28.2784  -26.1473   20.2527 O   0  0  0  0  0  0
  -26.5664  -34.8901   22.4637 O   0  0  0  0  0  0
  -23.5552  -32.1315   23.7092 O   0  0  0  0  0  0
  -30.1765  -19.7363   19.5464 C   0  0  0  0  0  0
  -30.3770  -18.3105   19.7857 C   0  0  0  0  0  0
  -28.5338  -19.8242   21.2098 C   0  0  0  0  0  0
  -28.7005  -18.3881   21.4481 C   0  0  0  0  0  0
  -29.2506  -20.6000   20.2456 C   0  0  0  0  0  0
  -29.6683  -17.5300   20.7618 C   0  0  0  0  0  0
  -29.1137  -22.6531   18.6978 C   0  0  0  0  0  0
  -27.7102  -17.7996   22.3979 C   0  0  0  0  0  0
  -28.6360  -23.3119   20.8180 C   0  0  0  0  0  0
  -28.1532  -24.6147   19.9329 C   0  0  1  0  0  0
  -28.8435  -24.1983   18.6072 C   0  0  0  0  0  0
  -27.3574  -18.6091   23.6412 C   0  0  0  0  0  0
  -30.2016  -24.9148   18.4473 C   0  0  0  0  0  0
  -27.9513  -24.5253   17.3903 C   0  0  0  0  0  0
  -30.1708  -15.8811   22.6038 C   0  0  0  0  0  0
  -29.0186  -22.1043   19.9358 N   0  0  0  0  0  0
  -29.9704  -16.0492   21.1492 N   0  0  0  0  0  0
  -29.3897  -22.0141   17.6762 O   0  0  0  0  0  0
  -27.1803  -16.6994   22.2343 O   0  0  0  0  0  0
  -31.4734  -12.7309   19.2018 H   0  0  0  0  0  0
  -30.4196  -11.6252   20.0254 H   0  0  0  0  0  0
  -29.8397  -11.7632   17.5797 H   0  0  0  0  0  0
  -29.6126  -13.4901   17.7157 H   0  0  0  0  0  0
  -27.9465  -11.2880   18.9685 H   0  0  0  0  0  0
  -27.3927  -12.4795   17.8211 H   0  0  0  0  0  0
  -27.6050  -14.2644   19.4439 H   0  0  0  0  0  0
  -28.7515  -12.2688   21.4537 H   0  0  0  0  0  0
  -28.3456  -13.9323   21.7780 H   0  0  0  0  0  0
  -25.2774   -9.5679   22.4753 H   0  0  0  0  0  0
  -24.0005   -7.4635   22.7480 H   0  0  0  0  0  0
  -21.0848   -8.8766   19.8951 H   0  0  0  0  0  0
  -22.3712  -10.9654   19.6151 H   0  0  0  0  0  0
  -21.2004   -7.6147   23.9716 H   0  0  0  0  0  0
  -21.1484   -6.0523   25.9078 H   0  0  0  0  0  0
  -22.0597   -2.7609   23.2847 H   0  0  0  0  0  0
  -22.4079  -11.9818   22.4773 H   0  0  0  0  0  0
  -21.1074  -13.1186   22.2662 H   0  0  0  0  0  0
  -24.6437  -15.8067   20.6772 H   0  0  0  0  0  0
  -26.3089  -15.6152   20.5665 H   0  0  0  0  0  0
  -26.7271  -32.5289   23.0994 H   0  0  0  0  0  0
  -25.0077  -33.9610   25.0313 H   0  0  0  0  0  0
  -22.7505  -31.2882   21.3789 H   0  0  0  0  0  0
  -23.3758  -35.9580   23.3293 H   0  0  0  0  0  0
  -24.3575  -36.8900   22.2060 H   0  0  0  0  0  0
  -23.7243  -37.6442   23.6692 H   0  0  0  0  0  0
  -26.1631  -31.4667   20.6185 H   0  0  0  0  0  0
  -26.8733  -30.7608   22.0347 H   0  0  0  0  0  0
  -28.1232  -28.7811   21.2536 H   0  0  0  0  0  0
  -25.9121  -25.8655   18.9548 H   0  0  0  0  0  0
  -23.9893  -27.3106   18.9555 H   0  0  0  0  0  0
  -23.8106  -30.5670   19.3967 H   0  0  0  0  0  0
  -22.7893  -29.2341   19.8417 H   0  0  0  0  0  0
  -25.1315  -36.1853   25.0806 H   0  0  0  0  0  0
  -21.0009  -28.3314   24.1356 H   0  0  0  0  0  0
  -20.5682  -26.2336   23.3626 H   0  0  0  0  0  0
  -21.6655  -26.7429   22.1202 H   0  0  0  0  0  0
  -19.6922  -25.6288   21.1257 H   0  0  0  0  0  0
  -19.6697  -27.3181   20.6735 H   0  0  0  0  0  0
  -17.4211  -26.6679   21.4028 H   0  0  0  0  0  0
  -18.0340  -26.0083   22.9027 H   0  0  0  0  0  0
  -19.7954  -30.7300   24.2226 H   0  0  0  0  0  0
  -17.5026  -31.6268   24.5168 H   0  0  0  0  0  0
  -15.5363  -30.2976   23.7678 H   0  0  0  0  0  0
  -15.8691  -28.0817   22.7080 H   0  0  0  0  0  0
  -24.5892  -30.7103   25.7732 H   0  0  0  0  0  0
  -24.8896  -32.2945   26.4775 H   0  0  0  0  0  0
  -25.7989  -30.8970   27.0226 H   0  0  0  0  0  0
  -26.3031  -29.6669   24.1309 H   0  0  0  0  0  0
  -27.3994  -29.7266   25.4901 H   0  0  0  0  0  0
  -27.8945  -30.4187   23.9654 H   0  0  0  0  0  0
  -27.2631  -33.3657   26.2022 H   0  0  0  0  0  0
  -28.3894  -32.6871   25.0363 H   0  0  0  0  0  0
  -28.0682  -31.8509   26.5477 H   0  0  0  0  0  0
  -28.2584  -38.0087   24.7510 H   0  0  0  0  0  0
  -28.1079  -36.2615   24.6297 H   0  0  0  0  0  0
  -27.2291  -37.1435   25.8869 H   0  0  0  0  0  0
  -20.9473  -29.8752   21.6776 H   0  0  0  0  0  0
  -26.0151  -38.2808   24.1409 H   0  0  0  0  0  0
  -30.7948  -20.1807   18.7793 H   0  0  0  0  0  0
  -31.1396  -17.8135   19.2024 H   0  0  0  0  0  0
  -27.7713  -20.3573   21.7597 H   0  0  0  0  0  0
  -29.5193  -23.5814   21.3977 H   0  0  0  0  0  0
  -27.8675  -23.0268   21.5363 H   0  0  0  0  0  0
  -27.0902  -24.4130   19.8269 H   0  0  0  0  0  0
  -27.0537  -17.9438   24.4490 H   0  0  0  0  0  0
  -26.5348  -19.2911   23.4285 H   0  0  0  0  0  0
  -28.2168  -19.1872   23.9795 H   0  0  0  0  0  0
  -30.8533  -24.7320   19.3027 H   0  0  0  0  0  0
  -30.0748  -25.9940   18.3592 H   0  0  0  0  0  0
  -30.7297  -24.5767   17.5545 H   0  0  0  0  0  0
  -26.9914  -24.0107   17.4475 H   0  0  0  0  0  0
  -28.4250  -24.2284   16.4536 H   0  0  0  0  0  0
  -27.7502  -25.5947   17.3259 H   0  0  0  0  0  0
  -30.3743  -16.8359   23.0899 H   0  0  0  0  0  0
  -31.0218  -15.2447   22.8622 H   0  0  0  0  0  0
  -29.2967  -15.4460   23.0856 H   0  0  0  0  0  0
  1 25  1  0  0  0
  1 30  2  0  0  0
  1 87  1  0  0  0
  2  3  1  0  0  0
  2 25  1  0  0  0
  2 90  1  0  0  0
  2 91  1  0  0  0
  3  4  1  0  0  0
  3 92  1  0  0  0
  3 93  1  0  0  0
  4  5  1  0  0  0
  4 94  1  0  0  0
  4 95  1  0  0  0
  5  6  1  0  0  0
  5 26  1  0  0  0
  5 96  1  0  0  0
  6 25  1  0  0  0
  6 97  1  0  0  0
  6 98  1  0  0  0
  7  8  2  0  0  0
  7 26  1  0  0  0
  7 29  1  0  0  0
  8  9  1  0  0  0
  8 22  1  0  0  0
  9 10  1  0  0  0
  9 27  2  0  0  0
 10 11  2  0  0  0
 10 15  1  0  0  0
 11 12  1  0  0  0
 11 99  1  0  0  0
 12 13  2  0  0  0
 12100  1  0  0  0
 13 14  1  0  0  0
 13 31  1  0  0  0
 14 15  2  0  0  0
 14101  1  0  0  0
 15102  1  0  0  0
 16 17  2  0  0  0
 16 21  1  0  0  0
 16 31  1  0  0  0
 17 18  1  0  0  0
 17103  1  0  0  0
 18 19  2  0  0  0
 18104  1  0  0  0
 19 20  1  0  0  0
 19 24  1  0  0  0
 20 21  2  0  0  0
 20105  1  0  0  0
 21 23  1  0  0  0
 22 28  1  0  0  0
 22 32  2  0  0  0
 26 27  1  0  0  0
 28106  1  0  0  0
 28107  1  0  0  0
 29108  1  0  0  0
 29109  1  0  0  0
 33 34  1  0  0  0
 33 66  1  0  0  0
 33 70  2  0  0  0
 34 36  1  0  0  0
 34 59  1  0  0  0
 34110  1  0  0  0
 35 44  2  0  0  0
 35 45  1  0  0  0
 35 68  1  0  0  0
 36 56  1  0  0  0
 36111  1  0  0  0
 37 39  1  0  0  0
 37 47  1  0  0  0
 37 66  1  0  0  0
 37112  1  0  0  0
 38 43  2  0  0  0
 38 46  1  0  0  0
 38 47  1  0  0  0
 39 64  1  0  0  0
 39 67  2  0  0  0
 40 52  1  0  0  0
 40 53  2  0  0  0
 40 58  1  0  0  0
 41113  1  0  0  0
 41114  1  0  0  0
 41115  1  0  0  0
 41 48  1  0  0  0
 42 43  1  0  0  0
 42 66  1  0  0  0
 42116  1  0  0  0
 42117  1  0  0  0
 43 44  1  0  0  0
 44118  1  0  0  0
 45 46  2  0  0  0
 45119  1  0  0  0
 46120  1  0  0  0
 47121  1  0  0  0
 47122  1  0  0  0
 48 56  1  0  0  0
 48 65  1  0  0  0
 48123  1  0  0  0
 49 50  1  0  0  0
 49 53  1  0  0  0
 49 64  1  0  0  0
 49124  1  0  0  0
 50 51  1  0  0  0
 50125  1  0  0  0
 50126  1  0  0  0
 51 52  1  0  0  0
 51127  1  0  0  0
 51128  1  0  0  0
 52129  1  0  0  0
 52130  1  0  0  0
 53 54  1  0  0  0
 54 55  2  0  0  0
 54131  1  0  0  0
 55 57  1  0  0  0
 55132  1  0  0  0
 56 69  2  0  0  0
 57 58  2  0  0  0
 57133  1  0  0  0
 58134  1  0  0  0
 59 60  1  0  0  0
 59 61  1  0  0  0
 59 62  1  0  0  0
 60135  1  0  0  0
 60136  1  0  0  0
 60137  1  0  0  0
 61138  1  0  0  0
 61139  1  0  0  0
 61140  1  0  0  0
 62141  1  0  0  0
 62142  1  0  0  0
 62143  1  0  0  0
 63 65  1  0  0  0
 63144  1  0  0  0
 63145  1  0  0  0
 63146  1  0  0  0
 64147  1  0  0  0
 65148  1  0  0  0
 68 80  1  0  0  0
 71 72  2  0  0  0
 71 75  1  0  0  0
 71149  1  0  0  0
 72 76  1  0  0  0
 72150  1  0  0  0
 73 74  1  0  0  0
 73 75  2  0  0  0
 73151  1  0  0  0
 74 76  2  0  0  0
 74 78  1  0  0  0
 75 86  1  0  0  0
 76 87  1  0  0  0
 77 81  1  0  0  0
 77 86  1  0  0  0
 77 88  2  0  0  0
 78 82  1  0  0  0
 78 89  2  0  0  0
 79 80  1  0  0  0
 79 86  1  0  0  0
 79152  1  0  0  0
 79153  1  0  0  0
 80 81  1  0  0  0
 80154  1  0  0  0
 81 83  1  0  0  0
 81 84  1  0  0  0
 82155  1  0  0  0
 82156  1  0  0  0
 82157  1  0  0  0
 83158  1  0  0  0
 83159  1  0  0  0
 83160  1  0  0  0
 84161  1  0  0  0
 84162  1  0  0  0
 84163  1  0  0  0
 85 87  1  0  0  0
 85164  1  0  0  0
 85165  1  0  0  0
 85166  1  0  0  0
M  ISO  4   1 100  68 101  80 101  87 100
M  END
> <chiral flag>
0

> <version>
0

> <s_m_source_file>
/data/baiqing/PycharmProjects/Reinvent-master-3.2/result/LINK_invent/BTK/process_docking_weight1_custom_product_contain_oxygen_bond_distance_aromatic_linkinvent_7_9_3/rearranged_h_0072.sdf

> <i_m_source_file_index>
93

> <r_mmod_Potential_Energy-OPLS-2005>
802.330932617188

> <r_mmod_Stretch_Energy-OPLS-2005>
256.493041992188

> <r_mmod_Bend_Energy-OPLS-2005>
302.567291259766

> <r_mmod_Torsional_Energy-OPLS-2005>
391.679046630859

> <r_mmod_Improper_Torsional_Energy-OPLS-2005>
7.56078910827637

> <r_mmod_Van_der_Waal_Energy-OPLS-2005>
142.286712646484

> <r_mmod_Electrostatic_Energy-OPLS-2005>
-283.949645996094

> <r_mmod_Solvation_Energy-OPLS-2005>
-201.951446533203

> <b_mmod_Minimization_Converged-OPLS-2005>
0

> <r_mmod_RMS_Derivative-OPLS-2005>
0.372640043497086

$$$$
93
                    3D
 Structure written by MMmdl.
164172  0  0  1  0            999 V2000
  -30.6890  -14.5181   20.5282 C   0  0  0  0  0  0
  -30.4210  -12.3248   19.4361 C   0  0  0  0  0  0
  -29.4932  -12.5134   18.2185 C   0  0  0  0  0  0
  -28.0161  -12.3643   18.6292 C   0  0  0  0  0  0
  -27.6528  -13.2183   19.8715 C   0  0  2  0  0  0
  -28.6953  -13.0355   20.9991 C   0  0  0  0  0  0
  -25.2507  -13.8176   20.5654 C   0  0  0  0  0  0
  -24.1789  -13.0420   20.9155 C   0  0  0  0  0  0
  -24.6378  -11.6893   20.8707 C   0  0  0  0  0  0
  -23.9082  -10.4250   21.0368 C   0  0  0  0  0  0
  -24.3632   -9.4183   21.9161 C   0  0  0  0  0  0
  -23.6284   -8.2237   22.0768 C   0  0  0  0  0  0
  -22.4276   -8.0259   21.3555 C   0  0  0  0  0  0
  -21.9896   -9.0240   20.4670 C   0  0  0  0  0  0
  -22.7237  -10.2101   20.3035 C   0  0  0  0  0  0
  -21.6854   -6.0702   22.5267 C   0  0  0  0  0  0
  -21.4022   -6.5616   23.8193 C   0  0  0  0  0  0
  -21.3674   -5.6786   24.9168 C   0  0  0  0  0  0
  -21.6056   -4.3046   24.7235 C   0  0  0  0  0  0
  -21.8829   -3.8120   23.4354 C   0  0  0  0  0  0
  -21.9206   -4.6928   22.3403 C   0  0  0  0  0  0
  -22.7813  -13.5196   21.1826 C   0  0  0  0  0  0
  -22.1646   -4.2103   21.0976 F   0  0  0  0  0  0
  -21.5652   -3.4541   25.7752 F   0  0  0  0  0  0
  -30.0302  -13.3266   20.4453 N   0  0  0  0  0  0
  -26.2964  -12.9388   20.3327 N   0  0  0  0  0  0
  -25.9308  -11.6544   20.5768 N   0  0  0  0  0  0
  -22.0468  -12.8185   22.0401 N   0  0  0  0  0  0
  -25.4193  -15.1895   20.4035 N   0  0  0  0  0  0
  -31.8286  -14.6680   20.0784 O   0  0  0  0  0  0
  -21.6662   -6.8837   21.4225 O   0  0  0  0  0  0
  -22.3470  -14.5485   20.6660 O   0  0  0  0  0  0
  -24.6153  -31.8672   23.2105 C   0  0  0  0  0  0
  -25.9074  -32.4797   23.8385 C   0  0  1  0  0  0
  -27.2254  -27.4296   20.0923 C   0  0  0  0  0  0
  -25.5969  -33.8607   24.2324 N   0  0  0  0  0  0
  -23.4003  -30.4951   21.5532 C   0  0  2  0  0  0
  -24.8440  -28.9524   20.1216 C   0  0  0  0  0  0
  -22.7374  -29.4720   22.4999 C   0  0  0  0  0  0
  -18.0256  -28.1380   22.8485 C   0  0  0  0  0  0
  -24.1510  -36.7319   23.2653 C   0  0  0  0  0  0
  -25.9290  -30.8348   21.3588 C   0  0  0  0  0  0
  -26.0050  -29.4606   20.7185 C   0  0  0  0  0  0
  -27.1976  -28.7041   20.7097 C   0  0  0  0  0  0
  -26.0564  -26.9398   19.4789 C   0  0  0  0  0  0
  -24.8629  -27.6876   19.5035 C   0  0  0  0  0  0
  -23.6052  -29.8193   20.1705 C   0  0  0  0  0  0
  -25.4125  -36.3094   24.0324 C   0  0  1  0  0  0
  -20.5834  -28.3691   23.1313 C   0  0  2  0  0  0
  -20.6768  -26.9434   22.5420 C   0  0  0  0  0  0
  -19.5762  -26.6403   21.5220 C   0  0  0  0  0  0
  -18.1919  -26.7935   22.1609 C   0  0  0  0  0  0
  -19.1501  -28.8843   23.2896 C   0  0  0  0  0  0
  -18.9448  -30.1433   23.8925 C   0  0  0  0  0  0
  -17.6465  -30.6597   24.0570 C   0  0  0  0  0  0
  -25.9045  -34.9461   23.5097 C   0  0  0  0  0  0
  -16.5342  -29.9099   23.6328 C   0  0  0  0  0  0
  -16.7261  -28.6506   23.0356 C   0  0  0  0  0  0
  -26.4472  -31.6565   25.0698 C   0  0  0  0  0  0
  -25.3725  -31.3675   26.1442 C   0  0  0  0  0  0
  -27.0341  -30.3023   24.6070 C   0  0  0  0  0  0
  -27.6045  -32.4287   25.7446 C   0  0  0  0  0  0
  -27.5552  -37.1802   24.8453 C   0  0  0  0  0  0
  -21.4105  -29.3066   22.3714 N   0  0  0  0  0  0
  -26.4276  -37.3784   23.9396 N   0  0  0  0  0  0
  -24.6675  -31.0804   22.0982 N   0  0  0  0  0  0
  -23.4142  -28.8226   23.3009 O   0  0  0  0  0  0
  -28.3885  -26.7032   19.9981 O   0  0  0  0  0  0
  -26.5598  -34.8909   22.4650 O   0  0  0  0  0  0
  -23.5355  -32.1406   23.7521 O   0  0  0  0  0  0
  -31.2448  -19.5039   22.8817 C   0  0  0  0  0  0
  -30.6821  -20.6928   22.3917 C   0  0  0  0  0  0
  -29.6580  -19.4301   20.6039 C   0  0  0  0  0  0
  -31.0388  -18.2641   22.2368 C   0  0  0  0  0  0
  -30.2195  -18.1995   21.0703 C   0  0  0  0  0  0
  -29.8686  -20.6797   21.2397 C   0  0  0  0  0  0
  -28.7555  -17.0803   18.0182 C   0  0  0  0  0  0
  -28.7628  -16.9947   19.3578 C   0  0  0  0  0  0
  -29.2386  -23.1390   21.1443 C   0  0  0  0  0  0
  -31.7707  -17.0624   22.8100 C   0  0  0  0  0  0
  -28.5691  -25.6422   20.9499 C   0  0  0  0  0  0
  -30.0120  -16.9072   20.2197 C   0  0  2  0  0  0
  -28.4027  -24.1910   20.3729 C   0  0  2  0  0  0
  -29.2623  -21.8615   20.6738 N   0  0  0  0  0  0
  -29.9432  -15.5839   20.8903 N   0  0  0  0  0  0
  -26.9876  -23.7599   20.3985 N   0  3  0  0  0  0
  -29.7983  -23.4875   22.1823 O   0  0  0  0  0  0
  -31.4619  -12.4251   19.1219 H   0  0  0  0  0  0
  -30.3281  -11.3193   19.8503 H   0  0  0  0  0  0
  -29.7390  -11.7896   17.4412 H   0  0  0  0  0  0
  -29.6531  -13.5022   17.7829 H   0  0  0  0  0  0
  -27.8350  -11.3101   18.8383 H   0  0  0  0  0  0
  -27.3702  -12.6264   17.7918 H   0  0  0  0  0  0
  -27.6817  -14.2603   19.5564 H   0  0  0  0  0  0
  -28.6717  -12.0092   21.3707 H   0  0  0  0  0  0
  -28.4623  -13.6709   21.8563 H   0  0  0  0  0  0
  -25.2766   -9.5676   22.4742 H   0  0  0  0  0  0
  -23.9991   -7.4650   22.7490 H   0  0  0  0  0  0
  -21.0835   -8.8769   19.8970 H   0  0  0  0  0  0
  -22.3690  -10.9658   19.6157 H   0  0  0  0  0  0
  -21.1992   -7.6119   23.9683 H   0  0  0  0  0  0
  -21.1491   -6.0510   25.9071 H   0  0  0  0  0  0
  -22.0596   -2.7572   23.2884 H   0  0  0  0  0  0
  -22.4120  -11.9858   22.4786 H   0  0  0  0  0  0
  -21.1089  -13.1204   22.2648 H   0  0  0  0  0  0
  -24.6495  -15.8415   20.5106 H   0  0  0  0  0  0
  -26.2621  -15.6276   20.0594 H   0  0  0  0  0  0
  -26.7178  -32.5464   23.1178 H   0  0  0  0  0  0
  -25.0111  -33.9782   25.0457 H   0  0  0  0  0  0
  -22.6963  -31.3191   21.4070 H   0  0  0  0  0  0
  -23.3739  -35.9678   23.3317 H   0  0  0  0  0  0
  -24.3644  -36.8942   22.2079 H   0  0  0  0  0  0
  -23.7302  -37.6530   23.6669 H   0  0  0  0  0  0
  -26.0410  -31.6030   20.5907 H   0  0  0  0  0  0
  -26.8221  -30.8895   21.9712 H   0  0  0  0  0  0
  -28.0966  -29.1060   21.1562 H   0  0  0  0  0  0
  -26.0735  -25.9977   18.9521 H   0  0  0  0  0  0
  -23.9686  -27.2992   19.0405 H   0  0  0  0  0  0
  -23.7088  -30.5928   19.4111 H   0  0  0  0  0  0
  -22.7298  -29.2346   19.8775 H   0  0  0  0  0  0
  -25.1300  -36.1949   25.0805 H   0  0  0  0  0  0
  -20.9903  -28.3299   24.1442 H   0  0  0  0  0  0
  -20.5707  -26.2301   23.3595 H   0  0  0  0  0  0
  -21.6627  -26.7525   22.1165 H   0  0  0  0  0  0
  -19.6948  -25.6319   21.1243 H   0  0  0  0  0  0
  -19.6716  -27.3227   20.6751 H   0  0  0  0  0  0
  -17.4176  -26.6692   21.4008 H   0  0  0  0  0  0
  -18.0318  -26.0046   22.8967 H   0  0  0  0  0  0
  -19.7925  -30.7222   24.2315 H   0  0  0  0  0  0
  -17.5022  -31.6283   24.5176 H   0  0  0  0  0  0
  -15.5348  -30.3025   23.7635 H   0  0  0  0  0  0
  -15.8638  -28.0844   22.7096 H   0  0  0  0  0  0
  -24.5932  -30.7005   25.7746 H   0  0  0  0  0  0
  -24.8869  -32.2805   26.4864 H   0  0  0  0  0  0
  -25.8032  -30.8831   27.0226 H   0  0  0  0  0  0
  -26.2876  -29.6755   24.1160 H   0  0  0  0  0  0
  -27.4183  -29.7281   25.4528 H   0  0  0  0  0  0
  -27.8662  -30.4363   23.9161 H   0  0  0  0  0  0
  -27.2708  -33.3615   26.1983 H   0  0  0  0  0  0
  -28.3826  -32.6816   25.0250 H   0  0  0  0  0  0
  -28.0731  -31.8443   26.5372 H   0  0  0  0  0  0
  -28.2551  -38.0115   24.7475 H   0  0  0  0  0  0
  -28.1032  -36.2617   24.6254 H   0  0  0  0  0  0
  -27.2240  -37.1417   25.8849 H   0  0  0  0  0  0
  -20.9247  -29.8801   21.6943 H   0  0  0  0  0  0
  -26.0152  -38.2839   24.1419 H   0  0  0  0  0  0
  -31.8681  -19.5685   23.7632 H   0  0  0  0  0  0
  -30.9181  -21.6011   22.9208 H   0  0  0  0  0  0
  -29.0591  -19.4388   19.7052 H   0  0  0  0  0  0
  -27.8240  -17.1530   17.4732 H   0  0  0  0  0  0
  -29.6716  -17.0793   17.4448 H   0  0  0  0  0  0
  -27.8231  -17.0021   19.8917 H   0  0  0  0  0  0
  -32.5019  -17.3752   23.5570 H   0  0  0  0  0  0
  -32.3232  -16.5379   22.0302 H   0  0  0  0  0  0
  -31.0805  -16.3692   23.2930 H   0  0  0  0  0  0
  -29.5954  -25.7876   21.2864 H   0  0  0  0  0  0
  -27.9479  -25.7946   21.8339 H   0  0  0  0  0  0
  -30.8613  -16.9085   19.5309 H   0  0  0  0  0  0
  -28.7516  -24.1860   19.3398 H   0  0  0  0  0  0
  -28.7954  -21.7108   19.7894 H   0  0  0  0  0  0
  -29.0511  -15.3557   21.3012 H   0  0  0  0  0  0
  -26.6830  -23.6741   21.3547 H   0  0  0  0  0  0
  -26.8916  -22.8571   19.9676 H   0  0  0  0  0  0
  -26.3878  -24.4033   19.9175 H   0  0  0  0  0  0
  1 25  1  0  0  0
  1 30  2  0  0  0
  1 85  1  0  0  0
  2  3  1  0  0  0
  2 25  1  0  0  0
  2 88  1  0  0  0
  2 89  1  0  0  0
  3  4  1  0  0  0
  3 90  1  0  0  0
  3 91  1  0  0  0
  4  5  1  0  0  0
  4 92  1  0  0  0
  4 93  1  0  0  0
  5  6  1  0  0  0
  5 26  1  0  0  0
  5 94  1  0  0  0
  6 25  1  0  0  0
  6 95  1  0  0  0
  6 96  1  0  0  0
  7  8  2  0  0  0
  7 26  1  0  0  0
  7 29  1  0  0  0
  8  9  1  0  0  0
  8 22  1  0  0  0
  9 10  1  0  0  0
  9 27  2  0  0  0
 10 11  2  0  0  0
 10 15  1  0  0  0
 11 12  1  0  0  0
 11 97  1  0  0  0
 12 13  2  0  0  0
 12 98  1  0  0  0
 13 14  1  0  0  0
 13 31  1  0  0  0
 14 15  2  0  0  0
 14 99  1  0  0  0
 15100  1  0  0  0
 16 17  2  0  0  0
 16 21  1  0  0  0
 16 31  1  0  0  0
 17 18  1  0  0  0
 17101  1  0  0  0
 18 19  2  0  0  0
 18102  1  0  0  0
 19 20  1  0  0  0
 19 24  1  0  0  0
 20 21  2  0  0  0
 20103  1  0  0  0
 21 23  1  0  0  0
 22 28  1  0  0  0
 22 32  2  0  0  0
 26 27  1  0  0  0
 28104  1  0  0  0
 28105  1  0  0  0
 29106  1  0  0  0
 29107  1  0  0  0
 33 34  1  0  0  0
 33 66  1  0  0  0
 33 70  2  0  0  0
 34 36  1  0  0  0
 34 59  1  0  0  0
 34108  1  0  0  0
 35 44  2  0  0  0
 35 45  1  0  0  0
 35 68  1  0  0  0
 36 56  1  0  0  0
 36109  1  0  0  0
 37 39  1  0  0  0
 37 47  1  0  0  0
 37 66  1  0  0  0
 37110  1  0  0  0
 38 43  2  0  0  0
 38 46  1  0  0  0
 38 47  1  0  0  0
 39 64  1  0  0  0
 39 67  2  0  0  0
 40 52  1  0  0  0
 40 53  2  0  0  0
 40 58  1  0  0  0
 41111  1  0  0  0
 41112  1  0  0  0
 41113  1  0  0  0
 41 48  1  0  0  0
 42 43  1  0  0  0
 42 66  1  0  0  0
 42114  1  0  0  0
 42115  1  0  0  0
 43 44  1  0  0  0
 44116  1  0  0  0
 45 46  2  0  0  0
 45117  1  0  0  0
 46118  1  0  0  0
 47119  1  0  0  0
 47120  1  0  0  0
 48 56  1  0  0  0
 48 65  1  0  0  0
 48121  1  0  0  0
 49 50  1  0  0  0
 49 53  1  0  0  0
 49 64  1  0  0  0
 49122  1  0  0  0
 50 51  1  0  0  0
 50123  1  0  0  0
 50124  1  0  0  0
 51 52  1  0  0  0
 51125  1  0  0  0
 51126  1  0  0  0
 52127  1  0  0  0
 52128  1  0  0  0
 53 54  1  0  0  0
 54 55  2  0  0  0
 54129  1  0  0  0
 55 57  1  0  0  0
 55130  1  0  0  0
 56 69  2  0  0  0
 57 58  2  0  0  0
 57131  1  0  0  0
 58132  1  0  0  0
 59 60  1  0  0  0
 59 61  1  0  0  0
 59 62  1  0  0  0
 60133  1  0  0  0
 60134  1  0  0  0
 60135  1  0  0  0
 61136  1  0  0  0
 61137  1  0  0  0
 61138  1  0  0  0
 62139  1  0  0  0
 62140  1  0  0  0
 62141  1  0  0  0
 63 65  1  0  0  0
 63142  1  0  0  0
 63143  1  0  0  0
 63144  1  0  0  0
 64145  1  0  0  0
 65146  1  0  0  0
 68 81  1  0  0  0
 71 72  2  0  0  0
 71 74  1  0  0  0
 71147  1  0  0  0
 72 76  1  0  0  0
 72148  1  0  0  0
 73 75  1  0  0  0
 73 76  2  0  0  0
 73149  1  0  0  0
 74 75  2  0  0  0
 74 80  1  0  0  0
 75 82  1  0  0  0
 76 84  1  0  0  0
 77 78  2  0  0  0
 77150  1  0  0  0
 77151  1  0  0  0
 78 82  1  0  0  0
 78152  1  0  0  0
 79 83  1  0  0  0
 79 84  1  0  0  0
 79 87  2  0  0  0
 80153  1  0  0  0
 80154  1  0  0  0
 80155  1  0  0  0
 81 83  1  0  0  0
 81156  1  0  0  0
 81157  1  0  0  0
 82 85  1  0  0  0
 82158  1  0  0  0
 83 86  1  0  0  0
 83159  1  0  0  0
 84160  1  0  0  0
 85161  1  0  0  0
 86162  1  0  0  0
 86163  1  0  0  0
 86164  1  0  0  0
M  CHG  1  86   1
M  ISO  4   1 100  68 101  81 101  85 100
M  END
> <chiral flag>
0

> <version>
0

> <s_m_source_file>
/data/baiqing/PycharmProjects/Reinvent-master-3.2/result/LINK_invent/BTK/process_docking_weight1_custom_product_contain_oxygen_bond_distance_aromatic_linkinvent_7_9_3/rearranged_h_0072.sdf

> <i_m_source_file_index>
94

> <r_mmod_Potential_Energy-OPLS-2005>
-361.695678710938

> <r_mmod_Stretch_Energy-OPLS-2005>
47.8155059814453

> <r_mmod_Bend_Energy-OPLS-2005>
116.767471313477

> <r_mmod_Torsional_Energy-OPLS-2005>
267.149658203125

> <r_mmod_Improper_Torsional_Energy-OPLS-2005>
9.01080513000488

> <r_mmod_Van_der_Waal_Energy-OPLS-2005>
159.339004516602

> <r_mmod_Electrostatic_Energy-OPLS-2005>
-470.079010009766

> <r_mmod_Solvation_Energy-OPLS-2005>
-507.457885742188

> <b_mmod_Minimization_Converged-OPLS-2005>
0

> <r_mmod_RMS_Derivative-OPLS-2005>
5.30136060714722

$$$$
94
                    3D
 Structure written by MMmdl.
159168  0  0  1  0            999 V2000
  -30.6991  -14.6235   20.5843 C   0  0  0  0  0  0
  -30.4235  -12.4005   19.4679 C   0  0  0  0  0  0
  -29.5114  -12.5258   18.2305 C   0  0  0  0  0  0
  -28.0306  -12.3675   18.6297 C   0  0  0  0  0  0
  -27.6508  -13.2316   19.8601 C   0  0  2  0  0  0
  -28.6869  -13.0965   20.9921 C   0  0  0  0  0  0
  -25.2544  -13.8210   20.5705 C   0  0  0  0  0  0
  -24.1814  -13.0455   20.9173 C   0  0  0  0  0  0
  -24.6394  -11.6929   20.8706 C   0  0  0  0  0  0
  -23.9058  -10.4303   21.0387 C   0  0  0  0  0  0
  -24.3613   -9.4218   21.9177 C   0  0  0  0  0  0
  -23.6286   -8.2248   22.0745 C   0  0  0  0  0  0
  -22.4264   -8.0283   21.3539 C   0  0  0  0  0  0
  -21.9895   -9.0255   20.4641 C   0  0  0  0  0  0
  -22.7227  -10.2134   20.3043 C   0  0  0  0  0  0
  -21.6848   -6.0740   22.5277 C   0  0  0  0  0  0
  -21.4014   -6.5634   23.8212 C   0  0  0  0  0  0
  -21.3661   -5.6778   24.9163 C   0  0  0  0  0  0
  -21.6039   -4.3046   24.7207 C   0  0  0  0  0  0
  -21.8811   -3.8146   23.4321 C   0  0  0  0  0  0
  -21.9193   -4.6972   22.3390 C   0  0  0  0  0  0
  -22.7834  -13.5243   21.1815 C   0  0  0  0  0  0
  -22.1660   -4.2161   21.0967 F   0  0  0  0  0  0
  -21.5623   -3.4524   25.7718 F   0  0  0  0  0  0
  -30.0137  -13.4340   20.4458 N   0  0  0  0  0  0
  -26.2972  -12.9422   20.3291 N   0  0  0  0  0  0
  -25.9329  -11.6554   20.5705 N   0  0  0  0  0  0
  -22.0464  -12.8272   22.0394 N   0  0  0  0  0  0
  -25.4246  -15.1944   20.4210 N   0  0  0  0  0  0
  -31.8011  -14.7722   20.0502 O   0  0  0  0  0  0
  -21.6624   -6.8882   21.4238 O   0  0  0  0  0  0
  -22.3516  -14.5532   20.6627 O   0  0  0  0  0  0
  -24.6268  -31.8598   23.2015 C   0  0  0  0  0  0
  -25.9117  -32.4769   23.8339 C   0  0  1  0  0  0
  -27.2182  -27.3048   20.1263 C   0  0  0  0  0  0
  -25.5924  -33.8567   24.2266 N   0  0  0  0  0  0
  -23.4202  -30.4847   21.5440 C   0  0  2  0  0  0
  -24.8672  -28.9393   20.1109 C   0  0  0  0  0  0
  -22.7471  -29.4635   22.4921 C   0  0  0  0  0  0
  -18.0290  -28.1384   22.8484 C   0  0  0  0  0  0
  -24.1486  -36.7288   23.2637 C   0  0  0  0  0  0
  -25.9632  -30.7855   21.3768 C   0  0  0  0  0  0
  -26.0361  -29.4114   20.7211 C   0  0  0  0  0  0
  -27.2150  -28.6053   20.7216 C   0  0  0  0  0  0
  -26.0310  -26.9001   19.4728 C   0  0  0  0  0  0
  -24.8674  -27.6894   19.4767 C   0  0  0  0  0  0
  -23.6355  -29.8193   20.1596 C   0  0  0  0  0  0
  -25.4108  -36.3074   24.0327 C   0  0  1  0  0  0
  -20.5888  -28.3698   23.1272 C   0  0  2  0  0  0
  -20.6778  -26.9415   22.5412 C   0  0  0  0  0  0
  -19.5759  -26.6381   21.5206 C   0  0  0  0  0  0
  -18.1935  -26.7930   22.1617 C   0  0  0  0  0  0
  -19.1542  -28.8853   23.2875 C   0  0  0  0  0  0
  -18.9466  -30.1457   23.8891 C   0  0  0  0  0  0
  -17.6467  -30.6585   24.0559 C   0  0  0  0  0  0
  -25.9052  -34.9445   23.5098 C   0  0  0  0  0  0
  -16.5362  -29.9085   23.6335 C   0  0  0  0  0  0
  -16.7276  -28.6508   23.0350 C   0  0  0  0  0  0
  -26.4499  -31.6574   25.0710 C   0  0  0  0  0  0
  -25.3724  -31.3724   26.1433 C   0  0  0  0  0  0
  -27.0336  -30.2991   24.6171 C   0  0  0  0  0  0
  -27.6059  -32.4307   25.7479 C   0  0  0  0  0  0
  -27.5587  -37.1779   24.8450 C   0  0  0  0  0  0
  -21.4182  -29.3050   22.3656 N   0  0  0  0  0  0
  -26.4280  -37.3776   23.9423 N   0  0  0  0  0  0
  -24.6885  -31.0602   22.0969 N   0  0  0  0  0  0
  -23.4195  -28.8182   23.3002 O   0  0  0  0  0  0
  -28.3211  -26.4327   20.1778 O   0  0  0  0  0  0
  -26.5630  -34.8923   22.4673 O   0  0  0  0  0  0
  -23.5428  -32.1400   23.7339 O   0  0  0  0  0  0
  -29.6684  -19.4839   21.7224 C   0  0  0  0  0  0
  -29.8422  -18.0896   21.9757 C   0  0  0  0  0  0
  -29.7369  -19.0358   19.3868 C   0  0  0  0  0  0
  -29.8880  -17.6266   19.6261 C   0  0  0  0  0  0
  -29.6281  -20.0192   20.4135 C   0  0  0  0  0  0
  -29.9784  -17.0897   20.9558 C   0  0  0  0  0  0
  -29.8722  -22.1427   18.9956 C   0  0  0  0  0  0
  -28.8835  -22.4752   21.0655 C   0  0  0  0  0  0
  -29.1915  -23.8904   20.4429 C   0  0  2  0  0  0
  -29.9129  -16.7348   18.3952 C   0  0  0  0  0  0
  -30.1709  -15.3411   22.7768 C   0  0  0  0  0  0
  -28.0337  -24.9901   20.4255 C   0  0  0  0  0  0
  -29.4749  -21.4720   20.1536 N   0  0  0  0  0  0
  -30.1424  -15.6473   21.3323 N   0  0  0  0  0  0
  -30.3870  -21.6806   17.9766 O   0  0  0  0  0  0
  -29.5946  -23.4685   19.1441 O   0  0  0  0  0  0
  -31.4720  -12.4921   19.1797 H   0  0  0  0  0  0
  -30.3262  -11.4066   19.9104 H   0  0  0  0  0  0
  -29.7817  -11.7767   17.4842 H   0  0  0  0  0  0
  -29.6657  -13.4958   17.7583 H   0  0  0  0  0  0
  -27.8582  -11.3144   18.8522 H   0  0  0  0  0  0
  -27.3859  -12.6120   17.7853 H   0  0  0  0  0  0
  -27.6673  -14.2695   19.5287 H   0  0  0  0  0  0
  -28.6891  -12.0806   21.3893 H   0  0  0  0  0  0
  -28.3937  -13.7385   21.8206 H   0  0  0  0  0  0
  -25.2750   -9.5705   22.4750 H   0  0  0  0  0  0
  -23.9991   -7.4644   22.7474 H   0  0  0  0  0  0
  -21.0809   -8.8771   19.8976 H   0  0  0  0  0  0
  -22.3667  -10.9667   19.6146 H   0  0  0  0  0  0
  -21.2003   -7.6141   23.9721 H   0  0  0  0  0  0
  -21.1493   -6.0499   25.9070 H   0  0  0  0  0  0
  -22.0591   -2.7616   23.2802 H   0  0  0  0  0  0
  -22.4052  -11.9951   22.4831 H   0  0  0  0  0  0
  -21.1096  -13.1351   22.2582 H   0  0  0  0  0  0
  -24.6593  -15.8471   20.5504 H   0  0  0  0  0  0
  -26.2818  -15.6464   20.1275 H   0  0  0  0  0  0
  -26.7177  -32.5449   23.1078 H   0  0  0  0  0  0
  -25.0040  -33.9692   25.0389 H   0  0  0  0  0  0
  -22.7149  -31.3057   21.3996 H   0  0  0  0  0  0
  -23.3753  -35.9612   23.3270 H   0  0  0  0  0  0
  -24.3592  -36.8940   22.2058 H   0  0  0  0  0  0
  -23.7224  -37.6472   23.6683 H   0  0  0  0  0  0
  -26.0960  -31.5461   20.6061 H   0  0  0  0  0  0
  -26.8436  -30.8350   22.0060 H   0  0  0  0  0  0
  -28.1072  -28.9580   21.2195 H   0  0  0  0  0  0
  -25.9711  -25.9620   18.9441 H   0  0  0  0  0  0
  -23.9757  -27.3265   18.9838 H   0  0  0  0  0  0
  -23.7534  -30.5922   19.3990 H   0  0  0  0  0  0
  -22.7562  -29.2458   19.8610 H   0  0  0  0  0  0
  -25.1280  -36.1910   25.0815 H   0  0  0  0  0  0
  -20.9991  -28.3284   24.1388 H   0  0  0  0  0  0
  -20.5669  -26.2308   23.3617 H   0  0  0  0  0  0
  -21.6652  -26.7439   22.1221 H   0  0  0  0  0  0
  -19.6924  -25.6288   21.1242 H   0  0  0  0  0  0
  -19.6691  -27.3181   20.6726 H   0  0  0  0  0  0
  -17.4206  -26.6675   21.4016 H   0  0  0  0  0  0
  -18.0336  -26.0069   22.9012 H   0  0  0  0  0  0
  -19.7941  -30.7271   24.2256 H   0  0  0  0  0  0
  -17.5024  -31.6269   24.5161 H   0  0  0  0  0  0
  -15.5357  -30.2986   23.7652 H   0  0  0  0  0  0
  -15.8680  -28.0819   22.7066 H   0  0  0  0  0  0
  -24.5891  -30.7082   25.7764 H   0  0  0  0  0  0
  -24.8922  -32.2895   26.4855 H   0  0  0  0  0  0
  -25.8038  -30.8898   27.0210 H   0  0  0  0  0  0
  -26.2909  -29.6736   24.1206 H   0  0  0  0  0  0
  -27.4034  -29.7252   25.4678 H   0  0  0  0  0  0
  -27.8782  -30.4257   23.9395 H   0  0  0  0  0  0
  -27.2675  -33.3613   26.2047 H   0  0  0  0  0  0
  -28.3875  -32.6851   25.0308 H   0  0  0  0  0  0
  -28.0723  -31.8435   26.5399 H   0  0  0  0  0  0
  -28.2552  -38.0127   24.7571 H   0  0  0  0  0  0
  -28.1128  -36.2662   24.6165 H   0  0  0  0  0  0
  -27.2330  -37.1306   25.8856 H   0  0  0  0  0  0
  -20.9360  -29.8757   21.6855 H   0  0  0  0  0  0
  -26.0153  -38.2838   24.1463 H   0  0  0  0  0  0
  -29.5827  -20.1476   22.5701 H   0  0  0  0  0  0
  -29.8653  -17.8179   23.0194 H   0  0  0  0  0  0
  -29.6768  -19.3603   18.3593 H   0  0  0  0  0  0
  -27.8081  -22.3053   21.1249 H   0  0  0  0  0  0
  -29.2922  -22.4004   22.0729 H   0  0  0  0  0  0
  -30.0637  -24.3066   20.9473 H   0  0  0  0  0  0
  -29.6127  -17.2795   17.4997 H   0  0  0  0  0  0
  -29.2199  -15.9014   18.5064 H   0  0  0  0  0  0
  -30.9157  -16.3477   18.2135 H   0  0  0  0  0  0
  -30.9473  -15.9192   23.2800 H   0  0  0  0  0  0
  -30.3900  -14.2957   23.0113 H   0  0  0  0  0  0
  -29.2078  -15.5660   23.2356 H   0  0  0  0  0  0
  -27.5618  -24.9617   21.4092 H   0  0  0  0  0  0
  -27.2844  -24.6054   19.7387 H   0  0  0  0  0  0
  1 25  1  0  0  0
  1 30  2  0  0  0
  1 84  1  0  0  0
  2  3  1  0  0  0
  2 25  1  0  0  0
  2 87  1  0  0  0
  2 88  1  0  0  0
  3  4  1  0  0  0
  3 89  1  0  0  0
  3 90  1  0  0  0
  4  5  1  0  0  0
  4 91  1  0  0  0
  4 92  1  0  0  0
  5  6  1  0  0  0
  5 26  1  0  0  0
  5 93  1  0  0  0
  6 25  1  0  0  0
  6 94  1  0  0  0
  6 95  1  0  0  0
  7  8  2  0  0  0
  7 26  1  0  0  0
  7 29  1  0  0  0
  8  9  1  0  0  0
  8 22  1  0  0  0
  9 10  1  0  0  0
  9 27  2  0  0  0
 10 11  2  0  0  0
 10 15  1  0  0  0
 11 12  1  0  0  0
 11 96  1  0  0  0
 12 13  2  0  0  0
 12 97  1  0  0  0
 13 14  1  0  0  0
 13 31  1  0  0  0
 14 15  2  0  0  0
 14 98  1  0  0  0
 15 99  1  0  0  0
 16 17  2  0  0  0
 16 21  1  0  0  0
 16 31  1  0  0  0
 17 18  1  0  0  0
 17100  1  0  0  0
 18 19  2  0  0  0
 18101  1  0  0  0
 19 20  1  0  0  0
 19 24  1  0  0  0
 20 21  2  0  0  0
 20102  1  0  0  0
 21 23  1  0  0  0
 22 28  1  0  0  0
 22 32  2  0  0  0
 26 27  1  0  0  0
 28103  1  0  0  0
 28104  1  0  0  0
 29105  1  0  0  0
 29106  1  0  0  0
 33 34  1  0  0  0
 33 66  1  0  0  0
 33 70  2  0  0  0
 34 36  1  0  0  0
 34 59  1  0  0  0
 34107  1  0  0  0
 35 44  2  0  0  0
 35 45  1  0  0  0
 35 68  1  0  0  0
 36 56  1  0  0  0
 36108  1  0  0  0
 37 39  1  0  0  0
 37 47  1  0  0  0
 37 66  1  0  0  0
 37109  1  0  0  0
 38 43  2  0  0  0
 38 46  1  0  0  0
 38 47  1  0  0  0
 39 64  1  0  0  0
 39 67  2  0  0  0
 40 52  1  0  0  0
 40 53  2  0  0  0
 40 58  1  0  0  0
 41110  1  0  0  0
 41111  1  0  0  0
 41112  1  0  0  0
 41 48  1  0  0  0
 42 43  1  0  0  0
 42 66  1  0  0  0
 42113  1  0  0  0
 42114  1  0  0  0
 43 44  1  0  0  0
 44115  1  0  0  0
 45 46  2  0  0  0
 45116  1  0  0  0
 46117  1  0  0  0
 47118  1  0  0  0
 47119  1  0  0  0
 48 56  1  0  0  0
 48 65  1  0  0  0
 48120  1  0  0  0
 49 50  1  0  0  0
 49 53  1  0  0  0
 49 64  1  0  0  0
 49121  1  0  0  0
 50 51  1  0  0  0
 50122  1  0  0  0
 50123  1  0  0  0
 51 52  1  0  0  0
 51124  1  0  0  0
 51125  1  0  0  0
 52126  1  0  0  0
 52127  1  0  0  0
 53 54  1  0  0  0
 54 55  2  0  0  0
 54128  1  0  0  0
 55 57  1  0  0  0
 55129  1  0  0  0
 56 69  2  0  0  0
 57 58  2  0  0  0
 57130  1  0  0  0
 58131  1  0  0  0
 59 60  1  0  0  0
 59 61  1  0  0  0
 59 62  1  0  0  0
 60132  1  0  0  0
 60133  1  0  0  0
 60134  1  0  0  0
 61135  1  0  0  0
 61136  1  0  0  0
 61137  1  0  0  0
 62138  1  0  0  0
 62139  1  0  0  0
 62140  1  0  0  0
 63 65  1  0  0  0
 63141  1  0  0  0
 63142  1  0  0  0
 63143  1  0  0  0
 64144  1  0  0  0
 65145  1  0  0  0
 68 82  1  0  0  0
 71 72  2  0  0  0
 71 75  1  0  0  0
 71146  1  0  0  0
 72 76  1  0  0  0
 72147  1  0  0  0
 73 74  1  0  0  0
 73 75  2  0  0  0
 73148  1  0  0  0
 74 76  2  0  0  0
 74 80  1  0  0  0
 75 83  1  0  0  0
 76 84  1  0  0  0
 77 83  1  0  0  0
 77 85  2  0  0  0
 77 86  1  0  0  0
 78 79  1  0  0  0
 78 83  1  0  0  0
 78149  1  0  0  0
 78150  1  0  0  0
 79 82  1  0  0  0
 79 86  1  0  0  0
 79151  1  0  0  0
 80152  1  0  0  0
 80153  1  0  0  0
 80154  1  0  0  0
 81 84  1  0  0  0
 81155  1  0  0  0
 81156  1  0  0  0
 81157  1  0  0  0
 82158  1  0  0  0
 82159  1  0  0  0
M  ISO  4   1 100  68 101  82 101  84 100
M  END
> <chiral flag>
0

> <version>
0

> <s_m_source_file>
/data/baiqing/PycharmProjects/Reinvent-master-3.2/result/LINK_invent/BTK/process_docking_weight1_custom_product_contain_oxygen_bond_distance_aromatic_linkinvent_7_9_3/rearranged_h_0072.sdf

> <i_m_source_file_index>
95

> <r_mmod_Potential_Energy-OPLS-2005>
256.898254394531

> <r_mmod_Stretch_Energy-OPLS-2005>
100.459075927734

> <r_mmod_Bend_Energy-OPLS-2005>
175.865875244141

> <r_mmod_Torsional_Energy-OPLS-2005>
304.924926757812

> <r_mmod_Improper_Torsional_Energy-OPLS-2005>
2.8751208782196

> <r_mmod_Van_der_Waal_Energy-OPLS-2005>
158.247695922852

> <r_mmod_Electrostatic_Energy-OPLS-2005>
-324.040252685547

> <r_mmod_Solvation_Energy-OPLS-2005>
-210.566192626953

> <b_mmod_Minimization_Converged-OPLS-2005>
0

> <r_mmod_RMS_Derivative-OPLS-2005>
2.10388946533203

$$$$
95
                    3D
 Structure written by MMmdl.
154162  0  0  1  0            999 V2000
  -30.5861  -14.6744   20.4821 C   0  0  0  0  0  0
  -30.4421  -12.4088   19.4566 C   0  0  0  0  0  0
  -29.5139  -12.5090   18.2242 C   0  0  0  0  0  0
  -28.0370  -12.3363   18.6363 C   0  0  0  0  0  0
  -27.6509  -13.2111   19.8598 C   0  0  2  0  0  0
  -28.6944  -13.0724   20.9915 C   0  0  0  0  0  0
  -25.2568  -13.8132   20.5687 C   0  0  0  0  0  0
  -24.1833  -13.0418   20.9196 C   0  0  0  0  0  0
  -24.6383  -11.6882   20.8737 C   0  0  0  0  0  0
  -23.9036  -10.4288   21.0407 C   0  0  0  0  0  0
  -24.3595   -9.4209   21.9188 C   0  0  0  0  0  0
  -23.6283   -8.2240   22.0766 C   0  0  0  0  0  0
  -22.4267   -8.0270   21.3554 C   0  0  0  0  0  0
  -21.9893   -9.0242   20.4657 C   0  0  0  0  0  0
  -22.7209  -10.2123   20.3060 C   0  0  0  0  0  0
  -21.6854   -6.0730   22.5286 C   0  0  0  0  0  0
  -21.4014   -6.5640   23.8216 C   0  0  0  0  0  0
  -21.3660   -5.6797   24.9180 C   0  0  0  0  0  0
  -21.6036   -4.3059   24.7233 C   0  0  0  0  0  0
  -21.8817   -3.8146   23.4357 C   0  0  0  0  0  0
  -21.9190   -4.6958   22.3410 C   0  0  0  0  0  0
  -22.7862  -13.5243   21.1858 C   0  0  0  0  0  0
  -22.1660   -4.2135   21.0989 F   0  0  0  0  0  0
  -21.5624   -3.4541   25.7752 F   0  0  0  0  0  0
  -30.0057  -13.4315   20.4282 N   0  0  0  0  0  0
  -26.2973  -12.9302   20.3275 N   0  0  0  0  0  0
  -25.9308  -11.6463   20.5729 N   0  0  0  0  0  0
  -22.0474  -12.8258   22.0394 N   0  0  0  0  0  0
  -25.4273  -15.1858   20.4086 N   0  0  0  0  0  0
  -31.7545  -14.8466   20.1181 O   0  0  0  0  0  0
  -21.6632   -6.8863   21.4249 O   0  0  0  0  0  0
  -22.3562  -14.5562   20.6701 O   0  0  0  0  0  0
  -24.6262  -31.8583   23.2024 C   0  0  0  0  0  0
  -25.9104  -32.4776   23.8353 C   0  0  1  0  0  0
  -27.2253  -27.3032   20.1162 C   0  0  0  0  0  0
  -25.5915  -33.8585   24.2272 N   0  0  0  0  0  0
  -23.4211  -30.4806   21.5451 C   0  0  2  0  0  0
  -24.8646  -28.9297   20.1147 C   0  0  0  0  0  0
  -22.7476  -29.4610   22.4948 C   0  0  0  0  0  0
  -18.0297  -28.1376   22.8513 C   0  0  0  0  0  0
  -24.1476  -36.7276   23.2642 C   0  0  0  0  0  0
  -25.9614  -30.7826   21.3735 C   0  0  0  0  0  0
  -26.0330  -29.4069   20.7194 C   0  0  0  0  0  0
  -27.2127  -28.6055   20.7101 C   0  0  0  0  0  0
  -26.0264  -26.8738   19.5015 C   0  0  0  0  0  0
  -24.8640  -27.6700   19.4975 C   0  0  0  0  0  0
  -23.6351  -29.8131   20.1611 C   0  0  0  0  0  0
  -25.4111  -36.3083   24.0329 C   0  0  1  0  0  0
  -20.5894  -28.3680   23.1289 C   0  0  2  0  0  0
  -20.6766  -26.9407   22.5413 C   0  0  0  0  0  0
  -19.5735  -26.6386   21.5221 C   0  0  0  0  0  0
  -18.1923  -26.7925   22.1648 C   0  0  0  0  0  0
  -19.1548  -28.8847   23.2896 C   0  0  0  0  0  0
  -18.9468  -30.1449   23.8921 C   0  0  0  0  0  0
  -17.6465  -30.6586   24.0571 C   0  0  0  0  0  0
  -25.9053  -34.9457   23.5107 C   0  0  0  0  0  0
  -16.5358  -29.9091   23.6327 C   0  0  0  0  0  0
  -16.7284  -28.6494   23.0381 C   0  0  0  0  0  0
  -26.4495  -31.6584   25.0727 C   0  0  0  0  0  0
  -25.3721  -31.3743   26.1446 C   0  0  0  0  0  0
  -27.0326  -30.3014   24.6154 C   0  0  0  0  0  0
  -27.6054  -32.4309   25.7505 C   0  0  0  0  0  0
  -27.5573  -37.1805   24.8481 C   0  0  0  0  0  0
  -21.4190  -29.3039   22.3682 N   0  0  0  0  0  0
  -26.4289  -37.3779   23.9418 N   0  0  0  0  0  0
  -24.6888  -31.0576   22.0978 N   0  0  0  0  0  0
  -23.4184  -28.8154   23.3045 O   0  0  0  0  0  0
  -28.3763  -26.4955   20.1616 O   0  0  0  0  0  0
  -26.5628  -34.8928   22.4680 O   0  0  0  0  0  0
  -23.5420  -32.1386   23.7342 O   0  0  0  0  0  0
  -30.8575  -19.3699   20.1993 C   0  0  0  0  0  0
  -28.5607  -19.3631   20.8938 C   0  0  0  0  0  0
  -30.9042  -17.9412   20.2507 C   0  0  0  0  0  0
  -28.6061  -17.9327   20.9474 C   0  0  0  0  0  0
  -29.6968  -20.1326   20.5266 C   0  0  0  0  0  0
  -29.7771  -17.1738   20.6465 C   0  0  0  0  0  0
  -29.7728  -21.6806   20.6248 C   0  0  0  0  0  0
  -27.3609  -24.0489   21.8464 C   0  0  0  0  0  0
  -28.4117  -25.0628   19.7503 C   0  0  0  0  0  0
  -28.5507  -23.9483   20.8818 C   0  0  2  0  0  0
  -29.7317  -15.7099   20.7842 N   0  0  0  0  0  0
  -28.6860  -22.4954   20.4578 N   0  0  0  0  0  0
  -30.8739  -22.1822   20.8647 O   0  0  0  0  0  0
  -31.4844  -12.5429   19.1599 H   0  0  0  0  0  0
  -30.3795  -11.4138   19.9002 H   0  0  0  0  0  0
  -29.7861  -11.7535   17.4864 H   0  0  0  0  0  0
  -29.6539  -13.4743   17.7355 H   0  0  0  0  0  0
  -27.8895  -11.2836   18.8780 H   0  0  0  0  0  0
  -27.3794  -12.5439   17.7908 H   0  0  0  0  0  0
  -27.6629  -14.2432   19.5123 H   0  0  0  0  0  0
  -28.7178  -12.0486   21.3711 H   0  0  0  0  0  0
  -28.4334  -13.6995   21.8459 H   0  0  0  0  0  0
  -25.2730   -9.5693   22.4769 H   0  0  0  0  0  0
  -23.9986   -7.4635   22.7502 H   0  0  0  0  0  0
  -21.0816   -8.8763   19.8977 H   0  0  0  0  0  0
  -22.3663  -10.9666   19.6180 H   0  0  0  0  0  0
  -21.2013   -7.6148   23.9723 H   0  0  0  0  0  0
  -21.1480   -6.0524   25.9083 H   0  0  0  0  0  0
  -22.0594   -2.7604   23.2866 H   0  0  0  0  0  0
  -22.4056  -11.9926   22.4829 H   0  0  0  0  0  0
  -21.1099  -13.1342   22.2569 H   0  0  0  0  0  0
  -24.6496  -15.8306   20.5008 H   0  0  0  0  0  0
  -26.2554  -15.6226   20.0259 H   0  0  0  0  0  0
  -26.7178  -32.5421   23.1098 H   0  0  0  0  0  0
  -25.0103  -33.9745   25.0438 H   0  0  0  0  0  0
  -22.7163  -31.3023   21.4015 H   0  0  0  0  0  0
  -23.3755  -35.9593   23.3317 H   0  0  0  0  0  0
  -24.3566  -36.8879   22.2058 H   0  0  0  0  0  0
  -23.7212  -37.6480   23.6641 H   0  0  0  0  0  0
  -26.0885  -31.5411   20.5995 H   0  0  0  0  0  0
  -26.8452  -30.8373   21.9976 H   0  0  0  0  0  0
  -28.1111  -28.9719   21.1887 H   0  0  0  0  0  0
  -25.9359  -25.9132   19.0216 H   0  0  0  0  0  0
  -23.9691  -27.2959   19.0183 H   0  0  0  0  0  0
  -23.7571  -30.5865   19.4031 H   0  0  0  0  0  0
  -22.7522  -29.2461   19.8591 H   0  0  0  0  0  0
  -25.1290  -36.1960   25.0823 H   0  0  0  0  0  0
  -21.0007  -28.3252   24.1402 H   0  0  0  0  0  0
  -20.5659  -26.2310   23.3621 H   0  0  0  0  0  0
  -21.6630  -26.7421   22.1209 H   0  0  0  0  0  0
  -19.6887  -25.6298   21.1246 H   0  0  0  0  0  0
  -19.6646  -27.3201   20.6749 H   0  0  0  0  0  0
  -17.4191  -26.6707   21.4050 H   0  0  0  0  0  0
  -18.0305  -26.0049   22.9022 H   0  0  0  0  0  0
  -19.7945  -30.7256   24.2297 H   0  0  0  0  0  0
  -17.5029  -31.6276   24.5158 H   0  0  0  0  0  0
  -15.5358  -30.3009   23.7616 H   0  0  0  0  0  0
  -15.8691  -28.0800   22.7111 H   0  0  0  0  0  0
  -24.5897  -30.7086   25.7788 H   0  0  0  0  0  0
  -24.8903  -32.2922   26.4826 H   0  0  0  0  0  0
  -25.8030  -30.8964   27.0247 H   0  0  0  0  0  0
  -26.2891  -29.6810   24.1139 H   0  0  0  0  0  0
  -27.4018  -29.7219   25.4626 H   0  0  0  0  0  0
  -27.8758  -30.4345   23.9371 H   0  0  0  0  0  0
  -27.2670  -33.3610   26.2078 H   0  0  0  0  0  0
  -28.3870  -32.6870   25.0344 H   0  0  0  0  0  0
  -28.0711  -31.8445   26.5430 H   0  0  0  0  0  0
  -28.2618  -38.0076   24.7495 H   0  0  0  0  0  0
  -28.1026  -36.2607   24.6322 H   0  0  0  0  0  0
  -27.2280  -37.1476   25.8881 H   0  0  0  0  0  0
  -20.9365  -29.8780   21.6907 H   0  0  0  0  0  0
  -26.0169  -38.2854   24.1416 H   0  0  0  0  0  0
  -31.7625  -19.8965   19.9254 H   0  0  0  0  0  0
  -27.6481  -19.8676   21.1802 H   0  0  0  0  0  0
  -31.8335  -17.4476   20.0034 H   0  0  0  0  0  0
  -27.7104  -17.4134   21.2589 H   0  0  0  0  0  0
  -27.4645  -23.3546   22.6811 H   0  0  0  0  0  0
  -26.4201  -23.8306   21.3402 H   0  0  0  0  0  0
  -27.2838  -25.0504   22.2708 H   0  0  0  0  0  0
  -29.2997  -24.9740   19.1235 H   0  0  0  0  0  0
  -27.6022  -24.7834   19.0828 H   0  0  0  0  0  0
  -29.4368  -24.2056   21.4635 H   0  0  0  0  0  0
  -28.8341  -15.3629   21.0809 H   0  0  0  0  0  0
  -27.8308  -22.0313   20.1871 H   0  0  0  0  0  0
  1 25  1  0  0  0
  1 30  2  0  0  0
  1 81  1  0  0  0
  2  3  1  0  0  0
  2 25  1  0  0  0
  2 84  1  0  0  0
  2 85  1  0  0  0
  3  4  1  0  0  0
  3 86  1  0  0  0
  3 87  1  0  0  0
  4  5  1  0  0  0
  4 88  1  0  0  0
  4 89  1  0  0  0
  5  6  1  0  0  0
  5 26  1  0  0  0
  5 90  1  0  0  0
  6 25  1  0  0  0
  6 91  1  0  0  0
  6 92  1  0  0  0
  7  8  2  0  0  0
  7 26  1  0  0  0
  7 29  1  0  0  0
  8  9  1  0  0  0
  8 22  1  0  0  0
  9 10  1  0  0  0
  9 27  2  0  0  0
 10 11  2  0  0  0
 10 15  1  0  0  0
 11 12  1  0  0  0
 11 93  1  0  0  0
 12 13  2  0  0  0
 12 94  1  0  0  0
 13 14  1  0  0  0
 13 31  1  0  0  0
 14 15  2  0  0  0
 14 95  1  0  0  0
 15 96  1  0  0  0
 16 17  2  0  0  0
 16 21  1  0  0  0
 16 31  1  0  0  0
 17 18  1  0  0  0
 17 97  1  0  0  0
 18 19  2  0  0  0
 18 98  1  0  0  0
 19 20  1  0  0  0
 19 24  1  0  0  0
 20 21  2  0  0  0
 20 99  1  0  0  0
 21 23  1  0  0  0
 22 28  1  0  0  0
 22 32  2  0  0  0
 26 27  1  0  0  0
 28100  1  0  0  0
 28101  1  0  0  0
 29102  1  0  0  0
 29103  1  0  0  0
 33 34  1  0  0  0
 33 66  1  0  0  0
 33 70  2  0  0  0
 34 36  1  0  0  0
 34 59  1  0  0  0
 34104  1  0  0  0
 35 44  2  0  0  0
 35 45  1  0  0  0
 35 68  1  0  0  0
 36 56  1  0  0  0
 36105  1  0  0  0
 37 39  1  0  0  0
 37 47  1  0  0  0
 37 66  1  0  0  0
 37106  1  0  0  0
 38 43  2  0  0  0
 38 46  1  0  0  0
 38 47  1  0  0  0
 39 64  1  0  0  0
 39 67  2  0  0  0
 40 52  1  0  0  0
 40 53  2  0  0  0
 40 58  1  0  0  0
 41107  1  0  0  0
 41108  1  0  0  0
 41109  1  0  0  0
 41 48  1  0  0  0
 42 43  1  0  0  0
 42 66  1  0  0  0
 42110  1  0  0  0
 42111  1  0  0  0
 43 44  1  0  0  0
 44112  1  0  0  0
 45 46  2  0  0  0
 45113  1  0  0  0
 46114  1  0  0  0
 47115  1  0  0  0
 47116  1  0  0  0
 48 56  1  0  0  0
 48 65  1  0  0  0
 48117  1  0  0  0
 49 50  1  0  0  0
 49 53  1  0  0  0
 49 64  1  0  0  0
 49118  1  0  0  0
 50 51  1  0  0  0
 50119  1  0  0  0
 50120  1  0  0  0
 51 52  1  0  0  0
 51121  1  0  0  0
 51122  1  0  0  0
 52123  1  0  0  0
 52124  1  0  0  0
 53 54  1  0  0  0
 54 55  2  0  0  0
 54125  1  0  0  0
 55 57  1  0  0  0
 55126  1  0  0  0
 56 69  2  0  0  0
 57 58  2  0  0  0
 57127  1  0  0  0
 58128  1  0  0  0
 59 60  1  0  0  0
 59 61  1  0  0  0
 59 62  1  0  0  0
 60129  1  0  0  0
 60130  1  0  0  0
 60131  1  0  0  0
 61132  1  0  0  0
 61133  1  0  0  0
 61134  1  0  0  0
 62135  1  0  0  0
 62136  1  0  0  0
 62137  1  0  0  0
 63 65  1  0  0  0
 63138  1  0  0  0
 63139  1  0  0  0
 63140  1  0  0  0
 64141  1  0  0  0
 65142  1  0  0  0
 68 79  1  0  0  0
 71 73  2  0  0  0
 71 75  1  0  0  0
 71143  1  0  0  0
 72 74  1  0  0  0
 72 75  2  0  0  0
 72144  1  0  0  0
 73 76  1  0  0  0
 73145  1  0  0  0
 74 76  2  0  0  0
 74146  1  0  0  0
 75 77  1  0  0  0
 76 81  1  0  0  0
 77 82  1  0  0  0
 77 83  2  0  0  0
 78147  1  0  0  0
 78148  1  0  0  0
 78149  1  0  0  0
 78 80  1  0  0  0
 79 80  1  0  0  0
 79150  1  0  0  0
 79151  1  0  0  0
 80 82  1  0  0  0
 80152  1  0  0  0
 81153  1  0  0  0
 82154  1  0  0  0
M  ISO  4   1 100  68 101  79 101  81 100
M  END
> <chiral flag>
0

> <version>
0

> <s_m_source_file>
/data/baiqing/PycharmProjects/Reinvent-master-3.2/result/LINK_invent/BTK/process_docking_weight1_custom_product_contain_oxygen_bond_distance_aromatic_linkinvent_7_9_3/rearranged_h_0072.sdf

> <i_m_source_file_index>
96

> <r_mmod_Potential_Energy-OPLS-2005>
16.2020835876465

> <r_mmod_Stretch_Energy-OPLS-2005>
86.9369125366211

> <r_mmod_Bend_Energy-OPLS-2005>
160.122589111328

> <r_mmod_Torsional_Energy-OPLS-2005>
217.440811157227

> <r_mmod_Improper_Torsional_Energy-OPLS-2005>
5.54198837280273

> <r_mmod_Van_der_Waal_Energy-OPLS-2005>
140.146850585938

> <r_mmod_Electrostatic_Energy-OPLS-2005>
-418.150939941406

> <r_mmod_Solvation_Energy-OPLS-2005>
-231.530487060547

> <b_mmod_Minimization_Converged-OPLS-2005>
0

> <r_mmod_RMS_Derivative-OPLS-2005>
2.45797801017761

$$$$
96
                    3D
 Structure written by MMmdl.
164173  0  0  1  0            999 V2000
  -30.6207  -14.7212   20.4623 C   0  0  0  0  0  0
  -30.4366  -12.4328   19.4876 C   0  0  0  0  0  0
  -29.5197  -12.4945   18.2444 C   0  0  0  0  0  0
  -28.0382  -12.3534   18.6453 C   0  0  0  0  0  0
  -27.6509  -13.2368   19.8614 C   0  0  2  0  0  0
  -28.6930  -13.1468   20.9992 C   0  0  0  0  0  0
  -25.2552  -13.8230   20.5725 C   0  0  0  0  0  0
  -24.1818  -13.0468   20.9188 C   0  0  0  0  0  0
  -24.6420  -11.6943   20.8744 C   0  0  0  0  0  0
  -23.9092  -10.4317   21.0424 C   0  0  0  0  0  0
  -24.3639   -9.4214   21.9184 C   0  0  0  0  0  0
  -23.6294   -8.2260   22.0735 C   0  0  0  0  0  0
  -22.4274   -8.0310   21.3528 C   0  0  0  0  0  0
  -21.9918   -9.0295   20.4635 C   0  0  0  0  0  0
  -22.7270  -10.2162   20.3055 C   0  0  0  0  0  0
  -21.6851   -6.0752   22.5270 C   0  0  0  0  0  0
  -21.4018   -6.5631   23.8215 C   0  0  0  0  0  0
  -21.3653   -5.6774   24.9167 C   0  0  0  0  0  0
  -21.6036   -4.3039   24.7197 C   0  0  0  0  0  0
  -21.8819   -3.8146   23.4309 C   0  0  0  0  0  0
  -21.9188   -4.6981   22.3371 C   0  0  0  0  0  0
  -22.7833  -13.5249   21.1869 C   0  0  0  0  0  0
  -22.1654   -4.2186   21.0944 F   0  0  0  0  0  0
  -21.5628   -3.4502   25.7695 F   0  0  0  0  0  0
  -30.0041  -13.4912   20.4322 N   0  0  0  0  0  0
  -26.2989  -12.9442   20.3327 N   0  0  0  0  0  0
  -25.9353  -11.6581   20.5783 N   0  0  0  0  0  0
  -22.0467  -12.8258   22.0438 N   0  0  0  0  0  0
  -25.4315  -15.1954   20.4188 N   0  0  0  0  0  0
  -31.7880  -14.8368   20.0756 O   0  0  0  0  0  0
  -21.6639   -6.8905   21.4235 O   0  0  0  0  0  0
  -22.3515  -14.5548   20.6716 O   0  0  0  0  0  0
  -24.6326  -31.8532   23.1968 C   0  0  0  0  0  0
  -25.9144  -32.4743   23.8313 C   0  0  1  0  0  0
  -27.2321  -27.2544   20.1314 C   0  0  0  0  0  0
  -25.5941  -33.8543   24.2244 N   0  0  0  0  0  0
  -23.4315  -30.4740   21.5387 C   0  0  2  0  0  0
  -24.8840  -28.9230   20.1089 C   0  0  0  0  0  0
  -22.7503  -29.4577   22.4877 C   0  0  0  0  0  0
  -18.0298  -28.1400   22.8474 C   0  0  0  0  0  0
  -24.1487  -36.7281   23.2633 C   0  0  0  0  0  0
  -25.9785  -30.7630   21.3805 C   0  0  0  0  0  0
  -26.0542  -29.3849   20.7241 C   0  0  0  0  0  0
  -27.2289  -28.5631   20.7264 C   0  0  0  0  0  0
  -26.0373  -26.8714   19.4761 C   0  0  0  0  0  0
  -24.8823  -27.6749   19.4720 C   0  0  0  0  0  0
  -23.6528  -29.8070   20.1557 C   0  0  0  0  0  0
  -25.4105  -36.3049   24.0315 C   0  0  1  0  0  0
  -20.5899  -28.3704   23.1258 C   0  0  2  0  0  0
  -20.6782  -26.9417   22.5404 C   0  0  0  0  0  0
  -19.5762  -26.6385   21.5202 C   0  0  0  0  0  0
  -18.1940  -26.7944   22.1610 C   0  0  0  0  0  0
  -19.1549  -28.8868   23.2868 C   0  0  0  0  0  0
  -18.9470  -30.1464   23.8895 C   0  0  0  0  0  0
  -17.6467  -30.6594   24.0563 C   0  0  0  0  0  0
  -25.9057  -34.9426   23.5081 C   0  0  0  0  0  0
  -16.5361  -29.9086   23.6327 C   0  0  0  0  0  0
  -16.7284  -28.6505   23.0347 C   0  0  0  0  0  0
  -26.4507  -31.6572   25.0709 C   0  0  0  0  0  0
  -25.3718  -31.3747   26.1429 C   0  0  0  0  0  0
  -27.0339  -30.2970   24.6218 C   0  0  0  0  0  0
  -27.6069  -32.4297   25.7489 C   0  0  0  0  0  0
  -27.5576  -37.1779   24.8443 C   0  0  0  0  0  0
  -21.4205  -29.3048   22.3634 N   0  0  0  0  0  0
  -26.4267  -37.3755   23.9414 N   0  0  0  0  0  0
  -24.6995  -31.0481   22.0954 N   0  0  0  0  0  0
  -23.4185  -28.8101   23.2975 O   0  0  0  0  0  0
  -28.3212  -26.3451   20.2068 O   0  0  0  0  0  0
  -26.5615  -34.8905   22.4642 O   0  0  0  0  0  0
  -23.5475  -32.1365   23.7254 O   0  0  0  0  0  0
  -29.1973  -19.4493   18.4751 C   0  0  0  0  0  0
  -29.6630  -18.4594   20.6452 C   0  0  0  0  0  0
  -29.2756  -18.1683   17.8934 C   0  0  0  0  0  0
  -29.3934  -19.6687   19.8610 C   0  0  0  0  0  0
  -29.7476  -17.1197   20.0691 C   0  0  0  0  0  0
  -29.5386  -17.0259   18.6730 C   0  0  0  0  0  0
  -29.6263  -21.6042   21.5409 C   0  0  0  0  0  0
  -28.7484  -22.2487   19.5379 C   0  0  0  0  0  0
  -29.0705  -23.6375   20.2422 C   0  0  2  0  0  0
  -29.3087  -23.1300   21.6922 C   0  0  0  0  0  0
  -29.0602  -17.9982   16.3999 C   0  0  0  0  0  0
  -28.0600  -23.2749   22.5844 C   0  0  0  0  0  0
  -30.4838  -23.8848   22.3524 C   0  0  0  0  0  0
  -28.0603  -24.8826   19.9479 C   0  0  0  0  0  0
  -29.2844  -21.0902   20.3384 N   0  0  0  0  0  0
  -29.8840  -15.8415   20.8133 N   0  0  0  0  0  0
  -30.1433  -20.9643   22.4624 O   0  0  0  0  0  0
  -29.5284  -15.8209   18.0579 F   0  0  0  0  0  0
  -31.4799  -12.5455   19.1857 H   0  0  0  0  0  0
  -30.3692  -11.4556   19.9676 H   0  0  0  0  0  0
  -29.7895  -11.7096   17.5377 H   0  0  0  0  0  0
  -29.6723  -13.4328   17.7143 H   0  0  0  0  0  0
  -27.8607  -11.3041   18.8781 H   0  0  0  0  0  0
  -27.3966  -12.5831   17.7941 H   0  0  0  0  0  0
  -27.6552  -14.2660   19.5023 H   0  0  0  0  0  0
  -28.7131  -12.1429   21.4236 H   0  0  0  0  0  0
  -28.4311  -13.8158   21.8201 H   0  0  0  0  0  0
  -25.2787   -9.5663   22.4763 H   0  0  0  0  0  0
  -23.9994   -7.4631   22.7430 H   0  0  0  0  0  0
  -21.0841   -8.8831   19.8937 H   0  0  0  0  0  0
  -22.3743  -10.9705   19.6163 H   0  0  0  0  0  0
  -21.2030   -7.6134   23.9711 H   0  0  0  0  0  0
  -21.1477   -6.0506   25.9074 H   0  0  0  0  0  0
  -22.0617   -2.7609   23.2788 H   0  0  0  0  0  0
  -22.4019  -11.9887   22.4817 H   0  0  0  0  0  0
  -21.1095  -13.1335   22.2661 H   0  0  0  0  0  0
  -24.6761  -15.8627   20.5279 H   0  0  0  0  0  0
  -26.2931  -15.6237   20.1041 H   0  0  0  0  0  0
  -26.7217  -32.5394   23.1061 H   0  0  0  0  0  0
  -25.0063  -33.9675   25.0375 H   0  0  0  0  0  0
  -22.7274  -31.2952   21.3891 H   0  0  0  0  0  0
  -23.3750  -35.9613   23.3251 H   0  0  0  0  0  0
  -24.3595  -36.8957   22.2062 H   0  0  0  0  0  0
  -23.7253  -37.6468   23.6699 H   0  0  0  0  0  0
  -26.1156  -31.5198   20.6076 H   0  0  0  0  0  0
  -26.8577  -30.8174   22.0109 H   0  0  0  0  0  0
  -28.1203  -28.9075   21.2316 H   0  0  0  0  0  0
  -25.9561  -25.9224   18.9691 H   0  0  0  0  0  0
  -23.9905  -27.3207   18.9740 H   0  0  0  0  0  0
  -23.7758  -30.5824   19.3993 H   0  0  0  0  0  0
  -22.7745  -29.2360   19.8493 H   0  0  0  0  0  0
  -25.1293  -36.1872   25.0804 H   0  0  0  0  0  0
  -20.9989  -28.3304   24.1379 H   0  0  0  0  0  0
  -20.5668  -26.2307   23.3603 H   0  0  0  0  0  0
  -21.6654  -26.7431   22.1210 H   0  0  0  0  0  0
  -19.6912  -25.6289   21.1244 H   0  0  0  0  0  0
  -19.6705  -27.3172   20.6714 H   0  0  0  0  0  0
  -17.4199  -26.6681   21.4028 H   0  0  0  0  0  0
  -18.0346  -26.0098   22.9016 H   0  0  0  0  0  0
  -19.7947  -30.7286   24.2256 H   0  0  0  0  0  0
  -17.5025  -31.6278   24.5159 H   0  0  0  0  0  0
  -15.5365  -30.2983   23.7662 H   0  0  0  0  0  0
  -15.8682  -28.0821   22.7062 H   0  0  0  0  0  0
  -24.5895  -30.7088   25.7772 H   0  0  0  0  0  0
  -24.8913  -32.2927   26.4821 H   0  0  0  0  0  0
  -25.8028  -30.8953   27.0229 H   0  0  0  0  0  0
  -26.2920  -29.6719   24.1237 H   0  0  0  0  0  0
  -27.3989  -29.7237   25.4756 H   0  0  0  0  0  0
  -27.8820  -30.4215   23.9477 H   0  0  0  0  0  0
  -27.2698  -33.3612   26.2050 H   0  0  0  0  0  0
  -28.3905  -32.6826   25.0331 H   0  0  0  0  0  0
  -28.0707  -31.8423   26.5430 H   0  0  0  0  0  0
  -28.2545  -38.0124   24.7542 H   0  0  0  0  0  0
  -28.1126  -36.2660   24.6186 H   0  0  0  0  0  0
  -27.2312  -37.1332   25.8850 H   0  0  0  0  0  0
  -20.9367  -29.8779   21.6862 H   0  0  0  0  0  0
  -26.0136  -38.2810   24.1467 H   0  0  0  0  0  0
  -28.9798  -20.2710   17.8111 H   0  0  0  0  0  0
  -29.7893  -18.5536   21.7141 H   0  0  0  0  0  0
  -29.1598  -22.2621   18.5300 H   0  0  0  0  0  0
  -27.6694  -22.1228   19.4486 H   0  0  0  0  0  0
  -30.0367  -23.9474   19.8431 H   0  0  0  0  0  0
  -28.8487  -18.9454   15.9034 H   0  0  0  0  0  0
  -28.2269  -17.3221   16.2062 H   0  0  0  0  0  0
  -29.9492  -17.5658   15.9414 H   0  0  0  0  0  0
  -27.1861  -22.8016   22.1334 H   0  0  0  0  0  0
  -27.8183  -24.3223   22.7663 H   0  0  0  0  0  0
  -28.2162  -22.8097   23.5589 H   0  0  0  0  0  0
  -31.4004  -23.8007   21.7682 H   0  0  0  0  0  0
  -30.6954  -23.5011   23.3514 H   0  0  0  0  0  0
  -30.2549  -24.9459   22.4534 H   0  0  0  0  0  0
  -27.1078  -24.6198   20.4079 H   0  0  0  0  0  0
  -27.8827  -24.8345   18.8738 H   0  0  0  0  0  0
  -29.0798  -15.6227   21.3823 H   0  0  0  0  0  0
  1 25  1  0  0  0
  1 30  2  0  0  0
  1 86  1  0  0  0
  2  3  1  0  0  0
  2 25  1  0  0  0
  2 89  1  0  0  0
  2 90  1  0  0  0
  3  4  1  0  0  0
  3 91  1  0  0  0
  3 92  1  0  0  0
  4  5  1  0  0  0
  4 93  1  0  0  0
  4 94  1  0  0  0
  5  6  1  0  0  0
  5 26  1  0  0  0
  5 95  1  0  0  0
  6 25  1  0  0  0
  6 96  1  0  0  0
  6 97  1  0  0  0
  7  8  2  0  0  0
  7 26  1  0  0  0
  7 29  1  0  0  0
  8  9  1  0  0  0
  8 22  1  0  0  0
  9 10  1  0  0  0
  9 27  2  0  0  0
 10 11  2  0  0  0
 10 15  1  0  0  0
 11 12  1  0  0  0
 11 98  1  0  0  0
 12 13  2  0  0  0
 12 99  1  0  0  0
 13 14  1  0  0  0
 13 31  1  0  0  0
 14 15  2  0  0  0
 14100  1  0  0  0
 15101  1  0  0  0
 16 17  2  0  0  0
 16 21  1  0  0  0
 16 31  1  0  0  0
 17 18  1  0  0  0
 17102  1  0  0  0
 18 19  2  0  0  0
 18103  1  0  0  0
 19 20  1  0  0  0
 19 24  1  0  0  0
 20 21  2  0  0  0
 20104  1  0  0  0
 21 23  1  0  0  0
 22 28  1  0  0  0
 22 32  2  0  0  0
 26 27  1  0  0  0
 28105  1  0  0  0
 28106  1  0  0  0
 29107  1  0  0  0
 29108  1  0  0  0
 33 34  1  0  0  0
 33 66  1  0  0  0
 33 70  2  0  0  0
 34 36  1  0  0  0
 34 59  1  0  0  0
 34109  1  0  0  0
 35 44  2  0  0  0
 35 45  1  0  0  0
 35 68  1  0  0  0
 36 56  1  0  0  0
 36110  1  0  0  0
 37 39  1  0  0  0
 37 47  1  0  0  0
 37 66  1  0  0  0
 37111  1  0  0  0
 38 43  2  0  0  0
 38 46  1  0  0  0
 38 47  1  0  0  0
 39 64  1  0  0  0
 39 67  2  0  0  0
 40 52  1  0  0  0
 40 53  2  0  0  0
 40 58  1  0  0  0
 41112  1  0  0  0
 41113  1  0  0  0
 41114  1  0  0  0
 41 48  1  0  0  0
 42 43  1  0  0  0
 42 66  1  0  0  0
 42115  1  0  0  0
 42116  1  0  0  0
 43 44  1  0  0  0
 44117  1  0  0  0
 45 46  2  0  0  0
 45118  1  0  0  0
 46119  1  0  0  0
 47120  1  0  0  0
 47121  1  0  0  0
 48 56  1  0  0  0
 48 65  1  0  0  0
 48122  1  0  0  0
 49 50  1  0  0  0
 49 53  1  0  0  0
 49 64  1  0  0  0
 49123  1  0  0  0
 50 51  1  0  0  0
 50124  1  0  0  0
 50125  1  0  0  0
 51 52  1  0  0  0
 51126  1  0  0  0
 51127  1  0  0  0
 52128  1  0  0  0
 52129  1  0  0  0
 53 54  1  0  0  0
 54 55  2  0  0  0
 54130  1  0  0  0
 55 57  1  0  0  0
 55131  1  0  0  0
 56 69  2  0  0  0
 57 58  2  0  0  0
 57132  1  0  0  0
 58133  1  0  0  0
 59 60  1  0  0  0
 59 61  1  0  0  0
 59 62  1  0  0  0
 60134  1  0  0  0
 60135  1  0  0  0
 60136  1  0  0  0
 61137  1  0  0  0
 61138  1  0  0  0
 61139  1  0  0  0
 62140  1  0  0  0
 62141  1  0  0  0
 62142  1  0  0  0
 63 65  1  0  0  0
 63143  1  0  0  0
 63144  1  0  0  0
 63145  1  0  0  0
 64146  1  0  0  0
 65147  1  0  0  0
 68 84  1  0  0  0
 71 73  2  0  0  0
 71 74  1  0  0  0
 71148  1  0  0  0
 72 74  2  0  0  0
 72 75  1  0  0  0
 72149  1  0  0  0
 73 76  1  0  0  0
 73 81  1  0  0  0
 74 85  1  0  0  0
 75 76  2  0  0  0
 75 86  1  0  0  0
 76 88  1  0  0  0
 77 80  1  0  0  0
 77 85  1  0  0  0
 77 87  2  0  0  0
 78 79  1  0  0  0
 78 85  1  0  0  0
 78150  1  0  0  0
 78151  1  0  0  0
 79 80  1  0  0  0
 79 84  1  0  0  0
 79152  1  0  0  0
 80 82  1  0  0  0
 80 83  1  0  0  0
 81153  1  0  0  0
 81154  1  0  0  0
 81155  1  0  0  0
 82156  1  0  0  0
 82157  1  0  0  0
 82158  1  0  0  0
 83159  1  0  0  0
 83160  1  0  0  0
 83161  1  0  0  0
 84162  1  0  0  0
 84163  1  0  0  0
 86164  1  0  0  0
M  ISO  4   1 100  68 101  84 101  86 100
M  END
> <chiral flag>
0

> <version>
0

> <s_m_source_file>
/data/baiqing/PycharmProjects/Reinvent-master-3.2/result/LINK_invent/BTK/process_docking_weight1_custom_product_contain_oxygen_bond_distance_aromatic_linkinvent_7_9_3/rearranged_h_0072.sdf

> <i_m_source_file_index>
97

> <r_mmod_Potential_Energy-OPLS-2005>
274.7900390625

> <r_mmod_Stretch_Energy-OPLS-2005>
129.919998168945

> <r_mmod_Bend_Energy-OPLS-2005>
199.758834838867

> <r_mmod_Torsional_Energy-OPLS-2005>
303.985260009766

> <r_mmod_Improper_Torsional_Energy-OPLS-2005>
5.32092475891113

> <r_mmod_Van_der_Waal_Energy-OPLS-2005>
143.342620849609

> <r_mmod_Electrostatic_Energy-OPLS-2005>
-372.332946777344

> <r_mmod_Solvation_Energy-OPLS-2005>
-217.782424926758

> <b_mmod_Minimization_Converged-OPLS-2005>
0

> <r_mmod_RMS_Derivative-OPLS-2005>
3.12219142913818

$$$$
97
                    3D
 Structure written by MMmdl.
159168  0  0  1  0            999 V2000
  -30.5847  -14.7911   20.4624 C   0  0  0  0  0  0
  -30.4343  -12.4822   19.4792 C   0  0  0  0  0  0
  -29.5051  -12.4944   18.2469 C   0  0  0  0  0  0
  -28.0402  -12.2907   18.6809 C   0  0  0  0  0  0
  -27.6258  -13.2313   19.8389 C   0  0  2  0  0  0
  -28.6752  -13.2124   20.9724 C   0  0  0  0  0  0
  -25.2425  -13.8208   20.5731 C   0  0  0  0  0  0
  -24.1763  -13.0427   20.9261 C   0  0  0  0  0  0
  -24.6343  -11.6902   20.8757 C   0  0  0  0  0  0
  -23.9077  -10.4274   21.0448 C   0  0  0  0  0  0
  -24.3604   -9.4177   21.9187 C   0  0  0  0  0  0
  -23.6265   -8.2231   22.0770 C   0  0  0  0  0  0
  -22.4240   -8.0244   21.3573 C   0  0  0  0  0  0
  -21.9905   -9.0259   20.4712 C   0  0  0  0  0  0
  -22.7269  -10.2111   20.3120 C   0  0  0  0  0  0
  -21.6836   -6.0713   22.5265 C   0  0  0  0  0  0
  -21.4005   -6.5648   23.8193 C   0  0  0  0  0  0
  -21.3667   -5.6808   24.9178 C   0  0  0  0  0  0
  -21.6049   -4.3076   24.7230 C   0  0  0  0  0  0
  -21.8806   -3.8160   23.4356 C   0  0  0  0  0  0
  -21.9213   -4.6962   22.3418 C   0  0  0  0  0  0
  -22.7786  -13.5117   21.1903 C   0  0  0  0  0  0
  -22.1672   -4.2152   21.0994 F   0  0  0  0  0  0
  -21.5620   -3.4569   25.7763 F   0  0  0  0  0  0
  -29.9695  -13.5646   20.3738 N   0  0  0  0  0  0
  -26.2831  -12.9428   20.3272 N   0  0  0  0  0  0
  -25.9261  -11.6579   20.5767 N   0  0  0  0  0  0
  -22.0504  -12.8087   22.0478 N   0  0  0  0  0  0
  -25.4182  -15.1932   20.4087 N   0  0  0  0  0  0
  -31.8025  -14.8784   20.2672 O   0  0  0  0  0  0
  -21.6598   -6.8850   21.4230 O   0  0  0  0  0  0
  -22.3449  -14.5421   20.6787 O   0  0  0  0  0  0
  -24.6298  -31.8505   23.2003 C   0  0  0  0  0  0
  -25.9114  -32.4735   23.8373 C   0  0  1  0  0  0
  -27.2171  -27.2740   20.0805 C   0  0  0  0  0  0
  -25.5904  -33.8562   24.2243 N   0  0  0  0  0  0
  -23.4268  -30.4747   21.5419 C   0  0  2  0  0  0
  -24.8820  -28.9318   20.1067 C   0  0  0  0  0  0
  -22.7532  -29.4540   22.4878 C   0  0  0  0  0  0
  -18.0297  -28.1290   22.8507 C   0  0  0  0  0  0
  -24.1522  -36.7306   23.2621 C   0  0  0  0  0  0
  -25.9782  -30.7626   21.3903 C   0  0  0  0  0  0
  -26.0519  -29.3878   20.7242 C   0  0  0  0  0  0
  -27.2265  -28.5652   20.7072 C   0  0  0  0  0  0
  -26.0300  -26.9019   19.4215 C   0  0  0  0  0  0
  -24.8725  -27.6969   19.4438 C   0  0  0  0  0  0
  -23.6508  -29.8107   20.1595 C   0  0  0  0  0  0
  -25.4118  -36.3069   24.0335 C   0  0  1  0  0  0
  -20.5894  -28.3674   23.1259 C   0  0  2  0  0  0
  -20.6845  -26.9444   22.5220 C   0  0  0  0  0  0
  -19.5668  -26.6202   21.5235 C   0  0  0  0  0  0
  -18.1976  -26.7722   22.1912 C   0  0  0  0  0  0
  -19.1537  -28.8828   23.2817 C   0  0  0  0  0  0
  -18.9450  -30.1510   23.8660 C   0  0  0  0  0  0
  -17.6426  -30.6608   24.0372 C   0  0  0  0  0  0
  -25.9052  -34.9428   23.5090 C   0  0  0  0  0  0
  -16.5346  -29.9013   23.6240 C   0  0  0  0  0  0
  -16.7256  -28.6388   23.0389 C   0  0  0  0  0  0
  -26.4486  -31.6570   25.0749 C   0  0  0  0  0  0
  -25.3717  -31.3787   26.1473 C   0  0  0  0  0  0
  -27.0304  -30.2972   24.6264 C   0  0  0  0  0  0
  -27.6019  -32.4305   25.7499 C   0  0  0  0  0  0
  -27.5589  -37.1801   24.8462 C   0  0  0  0  0  0
  -21.4229  -29.3109   22.3804 N   0  0  0  0  0  0
  -26.4304  -37.3754   23.9409 N   0  0  0  0  0  0
  -24.6938  -31.0466   22.0981 N   0  0  0  0  0  0
  -23.4282  -28.7921   23.2827 O   0  0  0  0  0  0
  -28.3021  -26.3700   20.0561 O   0  0  0  0  0  0
  -26.5615  -34.8891   22.4661 O   0  0  0  0  0  0
  -23.5444  -32.1335   23.7263 O   0  0  0  0  0  0
  -29.9095  -19.8616   22.2529 C   0  0  0  0  0  0
  -30.3702  -17.4585   22.2560 C   0  0  0  0  0  0
  -29.5384  -18.5536   20.2440 C   0  0  0  0  0  0
  -30.2808  -18.6887   22.9443 C   0  0  0  0  0  0
  -29.5567  -19.8794   20.8754 C   0  0  0  0  0  0
  -29.9401  -17.3199   20.9194 C   0  0  0  0  0  0
  -29.1099  -22.4688   20.7929 C   0  0  0  0  0  0
  -30.5834  -18.7330   24.4241 C   0  0  0  0  0  0
  -28.3914  -22.7918   18.6013 C   0  0  0  0  0  0
  -29.1156  -21.4145   18.7891 C   0  0  0  0  0  0
  -28.8874  -23.6565   19.7872 C   0  0  1  0  0  0
  -28.0179  -24.9186   20.3369 C   0  0  0  0  0  0
  -29.2526  -21.2086   20.2307 N   0  0  0  0  0  0
  -29.9831  -19.6652   25.1607 N   0  0  0  0  0  0
  -29.7740  -15.9248   20.4185 N   0  0  0  0  0  0
  -29.1052  -22.7117   22.0003 O   0  0  0  0  0  0
  -31.2931  -17.8793   24.9505 O   0  0  0  0  0  0
  -31.4780  -12.6115   19.1825 H   0  0  0  0  0  0
  -30.3806  -11.5170   19.9896 H   0  0  0  0  0  0
  -29.8005  -11.7240   17.5374 H   0  0  0  0  0  0
  -29.5969  -13.4461   17.7264 H   0  0  0  0  0  0
  -27.9478  -11.2545   19.0049 H   0  0  0  0  0  0
  -27.3674  -12.3952   17.8320 H   0  0  0  0  0  0
  -27.5960  -14.2339   19.4059 H   0  0  0  0  0  0
  -28.7265  -12.2287   21.4485 H   0  0  0  0  0  0
  -28.4012  -13.9204   21.7552 H   0  0  0  0  0  0
  -25.2757   -9.5637   22.4725 H   0  0  0  0  0  0
  -24.0003   -7.4658   22.7471 H   0  0  0  0  0  0
  -21.0877   -8.8813   19.9003 H   0  0  0  0  0  0
  -22.3764  -10.9635   19.6230 H   0  0  0  0  0  0
  -21.1942   -7.6145   23.9695 H   0  0  0  0  0  0
  -21.1515   -6.0550   25.9058 H   0  0  0  0  0  0
  -22.0556   -2.7606   23.2874 H   0  0  0  0  0  0
  -22.4162  -11.9709   22.4797 H   0  0  0  0  0  0
  -21.1163  -13.1173   22.2762 H   0  0  0  0  0  0
  -24.6705  -15.8620   20.5541 H   0  0  0  0  0  0
  -26.2848  -15.6237   20.1164 H   0  0  0  0  0  0
  -26.7139  -32.5442   23.1099 H   0  0  0  0  0  0
  -25.0155  -33.9766   25.0438 H   0  0  0  0  0  0
  -22.7171  -31.2965   21.3895 H   0  0  0  0  0  0
  -23.3801  -35.9636   23.3287 H   0  0  0  0  0  0
  -24.3621  -36.8922   22.2036 H   0  0  0  0  0  0
  -23.7305  -37.6519   23.6645 H   0  0  0  0  0  0
  -26.1348  -31.5369   20.6377 H   0  0  0  0  0  0
  -26.8551  -30.7972   22.0302 H   0  0  0  0  0  0
  -28.1317  -28.8938   21.1935 H   0  0  0  0  0  0
  -25.9914  -25.9762   18.8629 H   0  0  0  0  0  0
  -23.9797  -27.3637   18.9360 H   0  0  0  0  0  0
  -23.7850  -30.5863   19.4076 H   0  0  0  0  0  0
  -22.7735  -29.2461   19.8426 H   0  0  0  0  0  0
  -25.1295  -36.1903   25.0836 H   0  0  0  0  0  0
  -20.9996  -28.3230   24.1375 H   0  0  0  0  0  0
  -20.6034  -26.2207   23.3332 H   0  0  0  0  0  0
  -21.6657  -26.7584   22.0825 H   0  0  0  0  0  0
  -19.6849  -25.6037   21.1476 H   0  0  0  0  0  0
  -19.6423  -27.2813   20.6610 H   0  0  0  0  0  0
  -17.4006  -26.6050   21.4687 H   0  0  0  0  0  0
  -18.0720  -26.0025   22.9548 H   0  0  0  0  0  0
  -19.7938  -30.7373   24.1873 H   0  0  0  0  0  0
  -17.5008  -31.6332   24.4810 H   0  0  0  0  0  0
  -15.5349  -30.2911   23.7549 H   0  0  0  0  0  0
  -15.8637  -28.0656   22.7292 H   0  0  0  0  0  0
  -24.5879  -30.7122   25.7863 H   0  0  0  0  0  0
  -24.8913  -32.2995   26.4804 H   0  0  0  0  0  0
  -25.8041  -30.9034   27.0297 H   0  0  0  0  0  0
  -26.2904  -29.6736   24.1248 H   0  0  0  0  0  0
  -27.3931  -29.7194   25.4782 H   0  0  0  0  0  0
  -27.8798  -30.4233   23.9553 H   0  0  0  0  0  0
  -27.2631  -33.3600   26.2098 H   0  0  0  0  0  0
  -28.3831  -32.6909   25.0338 H   0  0  0  0  0  0
  -28.0708  -31.8423   26.5401 H   0  0  0  0  0  0
  -28.2572  -38.0112   24.7452 H   0  0  0  0  0  0
  -28.1100  -36.2633   24.6327 H   0  0  0  0  0  0
  -27.2298  -37.1480   25.8857 H   0  0  0  0  0  0
  -20.9362  -29.9082   21.7313 H   0  0  0  0  0  0
  -26.0192  -38.2841   24.1395 H   0  0  0  0  0  0
  -29.9226  -20.7607   22.8411 H   0  0  0  0  0  0
  -30.6978  -16.5788   22.7899 H   0  0  0  0  0  0
  -29.1884  -18.4779   19.2239 H   0  0  0  0  0  0
  -27.3116  -22.6424   18.6618 H   0  0  0  0  0  0
  -28.6014  -23.2342   17.6222 H   0  0  0  0  0  0
  -30.1209  -21.4735   18.3716 H   0  0  0  0  0  0
  -28.6164  -20.5778   18.3007 H   0  0  0  0  0  0
  -29.8753  -24.0310   19.5171 H   0  0  0  0  0  0
  -28.1249  -24.8916   21.4222 H   0  0  0  0  0  0
  -26.9649  -24.6811   20.1975 H   0  0  0  0  0  0
  -29.3894  -20.3768   24.7515 H   0  0  0  0  0  0
  -30.1072  -19.6436   26.1626 H   0  0  0  0  0  0
  -28.8234  -15.7036   20.1675 H   0  0  0  0  0  0
  1 25  1  0  0  0
  1 30  2  0  0  0
  1 85  1  0  0  0
  2  3  1  0  0  0
  2 25  1  0  0  0
  2 88  1  0  0  0
  2 89  1  0  0  0
  3  4  1  0  0  0
  3 90  1  0  0  0
  3 91  1  0  0  0
  4  5  1  0  0  0
  4 92  1  0  0  0
  4 93  1  0  0  0
  5  6  1  0  0  0
  5 26  1  0  0  0
  5 94  1  0  0  0
  6 25  1  0  0  0
  6 95  1  0  0  0
  6 96  1  0  0  0
  7  8  2  0  0  0
  7 26  1  0  0  0
  7 29  1  0  0  0
  8  9  1  0  0  0
  8 22  1  0  0  0
  9 10  1  0  0  0
  9 27  2  0  0  0
 10 11  2  0  0  0
 10 15  1  0  0  0
 11 12  1  0  0  0
 11 97  1  0  0  0
 12 13  2  0  0  0
 12 98  1  0  0  0
 13 14  1  0  0  0
 13 31  1  0  0  0
 14 15  2  0  0  0
 14 99  1  0  0  0
 15100  1  0  0  0
 16 17  2  0  0  0
 16 21  1  0  0  0
 16 31  1  0  0  0
 17 18  1  0  0  0
 17101  1  0  0  0
 18 19  2  0  0  0
 18102  1  0  0  0
 19 20  1  0  0  0
 19 24  1  0  0  0
 20 21  2  0  0  0
 20103  1  0  0  0
 21 23  1  0  0  0
 22 28  1  0  0  0
 22 32  2  0  0  0
 26 27  1  0  0  0
 28104  1  0  0  0
 28105  1  0  0  0
 29106  1  0  0  0
 29107  1  0  0  0
 33 34  1  0  0  0
 33 66  1  0  0  0
 33 70  2  0  0  0
 34 36  1  0  0  0
 34 59  1  0  0  0
 34108  1  0  0  0
 35 44  2  0  0  0
 35 45  1  0  0  0
 35 68  1  0  0  0
 36 56  1  0  0  0
 36109  1  0  0  0
 37 39  1  0  0  0
 37 47  1  0  0  0
 37 66  1  0  0  0
 37110  1  0  0  0
 38 43  2  0  0  0
 38 46  1  0  0  0
 38 47  1  0  0  0
 39 64  1  0  0  0
 39 67  2  0  0  0
 40 52  1  0  0  0
 40 53  2  0  0  0
 40 58  1  0  0  0
 41111  1  0  0  0
 41112  1  0  0  0
 41113  1  0  0  0
 41 48  1  0  0  0
 42 43  1  0  0  0
 42 66  1  0  0  0
 42114  1  0  0  0
 42115  1  0  0  0
 43 44  1  0  0  0
 44116  1  0  0  0
 45 46  2  0  0  0
 45117  1  0  0  0
 46118  1  0  0  0
 47119  1  0  0  0
 47120  1  0  0  0
 48 56  1  0  0  0
 48 65  1  0  0  0
 48121  1  0  0  0
 49 50  1  0  0  0
 49 53  1  0  0  0
 49 64  1  0  0  0
 49122  1  0  0  0
 50 51  1  0  0  0
 50123  1  0  0  0
 50124  1  0  0  0
 51 52  1  0  0  0
 51125  1  0  0  0
 51126  1  0  0  0
 52127  1  0  0  0
 52128  1  0  0  0
 53 54  1  0  0  0
 54 55  2  0  0  0
 54129  1  0  0  0
 55 57  1  0  0  0
 55130  1  0  0  0
 56 69  2  0  0  0
 57 58  2  0  0  0
 57131  1  0  0  0
 58132  1  0  0  0
 59 60  1  0  0  0
 59 61  1  0  0  0
 59 62  1  0  0  0
 60133  1  0  0  0
 60134  1  0  0  0
 60135  1  0  0  0
 61136  1  0  0  0
 61137  1  0  0  0
 61138  1  0  0  0
 62139  1  0  0  0
 62140  1  0  0  0
 62141  1  0  0  0
 63 65  1  0  0  0
 63142  1  0  0  0
 63143  1  0  0  0
 63144  1  0  0  0
 64145  1  0  0  0
 65146  1  0  0  0
 68 82  1  0  0  0
 71 74  2  0  0  0
 71 75  1  0  0  0
 71147  1  0  0  0
 72 74  1  0  0  0
 72 76  2  0  0  0
 72148  1  0  0  0
 73 75  2  0  0  0
 73 76  1  0  0  0
 73149  1  0  0  0
 74 78  1  0  0  0
 75 83  1  0  0  0
 76 85  1  0  0  0
 77 81  1  0  0  0
 77 83  1  0  0  0
 77 86  2  0  0  0
 78 84  1  0  0  0
 78 87  2  0  0  0
 79 80  1  0  0  0
 79 81  1  0  0  0
 79150  1  0  0  0
 79151  1  0  0  0
 80 83  1  0  0  0
 80152  1  0  0  0
 80153  1  0  0  0
 81 82  1  0  0  0
 81154  1  0  0  0
 82155  1  0  0  0
 82156  1  0  0  0
 84157  1  0  0  0
 84158  1  0  0  0
 85159  1  0  0  0
M  ISO  4   1 100  68 101  82 101  85 100
M  END
> <chiral flag>
0

> <version>
0

> <s_m_source_file>
/data/baiqing/PycharmProjects/Reinvent-master-3.2/result/LINK_invent/BTK/process_docking_weight1_custom_product_contain_oxygen_bond_distance_aromatic_linkinvent_7_9_3/rearranged_h_0072.sdf

> <i_m_source_file_index>
98

> <r_mmod_Potential_Energy-OPLS-2005>
168.128128051758

> <r_mmod_Stretch_Energy-OPLS-2005>
129.839416503906

> <r_mmod_Bend_Energy-OPLS-2005>
214.428634643555

> <r_mmod_Torsional_Energy-OPLS-2005>
308.691253662109

> <r_mmod_Improper_Torsional_Energy-OPLS-2005>
10.9631090164185

> <r_mmod_Van_der_Waal_Energy-OPLS-2005>
152.260391235352

> <r_mmod_Electrostatic_Energy-OPLS-2005>
-491.411651611328

> <r_mmod_Solvation_Energy-OPLS-2005>
-259.076843261719

> <b_mmod_Minimization_Converged-OPLS-2005>
0

> <r_mmod_RMS_Derivative-OPLS-2005>
10.8715438842773

$$$$
