0
                    3D
 Structure written by MMmdl.
160169  0  0  1  0            999 V2000
  -30.6311  -14.6051   20.5159 C   0  0  0  0  0  0
  -30.4360  -12.3715   19.4506 C   0  0  0  0  0  0
  -29.5069  -12.5110   18.2240 C   0  0  0  0  0  0
  -28.0283  -12.3563   18.6325 C   0  0  0  0  0  0
  -27.6575  -13.2148   19.8712 C   0  0  2  0  0  0
  -28.7004  -13.0431   20.9991 C   0  0  0  0  0  0
  -25.2572  -13.8170   20.5685 C   0  0  0  0  0  0
  -24.1833  -13.0435   20.9178 C   0  0  0  0  0  0
  -24.6401  -11.6907   20.8738 C   0  0  0  0  0  0
  -23.9071  -10.4291   21.0408 C   0  0  0  0  0  0
  -24.3623   -9.4205   21.9184 C   0  0  0  0  0  0
  -23.6297   -8.2241   22.0755 C   0  0  0  0  0  0
  -22.4279   -8.0282   21.3546 C   0  0  0  0  0  0
  -21.9916   -9.0255   20.4646 C   0  0  0  0  0  0
  -22.7246  -10.2133   20.3055 C   0  0  0  0  0  0
  -21.6852   -6.0739   22.5282 C   0  0  0  0  0  0
  -21.4014   -6.5642   23.8215 C   0  0  0  0  0  0
  -21.3660   -5.6795   24.9177 C   0  0  0  0  0  0
  -21.6045   -4.3057   24.7226 C   0  0  0  0  0  0
  -21.8821   -3.8149   23.4347 C   0  0  0  0  0  0
  -21.9190   -4.6966   22.3404 C   0  0  0  0  0  0
  -22.7854  -13.5226   21.1844 C   0  0  0  0  0  0
  -22.1658   -4.2152   21.0980 F   0  0  0  0  0  0
  -21.5629   -3.4541   25.7738 F   0  0  0  0  0  0
  -30.0212  -13.3811   20.4436 N   0  0  0  0  0  0
  -26.3009  -12.9350   20.3350 N   0  0  0  0  0  0
  -25.9332  -11.6505   20.5769 N   0  0  0  0  0  0
  -22.0498  -12.8218   22.0402 N   0  0  0  0  0  0
  -25.4287  -15.1891   20.4103 N   0  0  0  0  0  0
  -31.7758  -14.7812   20.0869 O   0  0  0  0  0  0
  -21.6638   -6.8883   21.4246 O   0  0  0  0  0  0
  -22.3537  -14.5533   20.6696 O   0  0  0  0  0  0
  -24.6232  -31.8618   23.2047 C   0  0  0  0  0  0
  -25.9090  -32.4788   23.8366 C   0  0  1  0  0  0
  -27.2234  -27.3439   20.1181 C   0  0  0  0  0  0
  -25.5917  -33.8589   24.2291 N   0  0  0  0  0  0
  -23.4154  -30.4854   21.5471 C   0  0  2  0  0  0
  -24.8614  -28.9427   20.1129 C   0  0  0  0  0  0
  -22.7452  -29.4637   22.4958 C   0  0  0  0  0  0
  -18.0280  -28.1386   22.8497 C   0  0  0  0  0  0
  -24.1485  -36.7295   23.2638 C   0  0  0  0  0  0
  -25.9536  -30.8001   21.3723 C   0  0  0  0  0  0
  -26.0284  -29.4289   20.7166 C   0  0  0  0  0  0
  -27.2138  -28.6409   20.7093 C   0  0  0  0  0  0
  -26.0404  -26.9093   19.4800 C   0  0  0  0  0  0
  -24.8676  -27.6867   19.4866 C   0  0  0  0  0  0
  -23.6278  -29.8191   20.1624 C   0  0  0  0  0  0
  -25.4110  -36.3091   24.0332 C   0  0  1  0  0  0
  -20.5878  -28.3686   23.1297 C   0  0  2  0  0  0
  -20.6769  -26.9413   22.5417 C   0  0  0  0  0  0
  -19.5743  -26.6389   21.5219 C   0  0  0  0  0  0
  -18.1923  -26.7932   22.1630 C   0  0  0  0  0  0
  -19.1531  -28.8853   23.2893 C   0  0  0  0  0  0
  -18.9455  -30.1457   23.8908 C   0  0  0  0  0  0
  -17.6456  -30.6592   24.0568 C   0  0  0  0  0  0
  -25.9047  -34.9458   23.5111 C   0  0  0  0  0  0
  -16.5348  -29.9092   23.6331 C   0  0  0  0  0  0
  -16.7268  -28.6506   23.0359 C   0  0  0  0  0  0
  -26.4485  -31.6595   25.0729 C   0  0  0  0  0  0
  -25.3727  -31.3723   26.1461 C   0  0  0  0  0  0
  -27.0328  -30.3023   24.6169 C   0  0  0  0  0  0
  -27.6046  -32.4329   25.7499 C   0  0  0  0  0  0
  -27.5582  -37.1798   24.8460 C   0  0  0  0  0  0
  -21.4170  -29.3042   22.3693 N   0  0  0  0  0  0
  -26.4286  -37.3786   23.9415 N   0  0  0  0  0  0
  -24.6829  -31.0652   22.0984 N   0  0  0  0  0  0
  -23.4184  -28.8179   23.3032 O   0  0  0  0  0  0
  -28.3507  -26.5188   20.1395 O   0  0  0  0  0  0
  -26.5618  -34.8919   22.4678 O   0  0  0  0  0  0
  -23.5403  -32.1405   23.7390 O   0  0  0  0  0  0
  -29.0854  -19.3392   21.4635 C   0  0  0  0  0  0
  -29.1224  -17.9187   21.6141 C   0  0  0  0  0  0
  -30.6606  -17.7112   19.7507 C   0  0  0  0  0  0
  -29.8387  -19.9528   20.4390 C   0  0  0  0  0  0
  -30.5993  -19.1248   19.6050 C   0  0  0  0  0  0
  -29.9139  -17.0723   20.7799 C   0  0  0  0  0  0
  -31.3296  -19.9424   18.5741 C   0  0  0  0  0  0
  -30.7194  -21.3582   18.7157 C   0  0  0  0  0  0
  -30.0520  -21.4583   20.1114 C   0  0  1  0  0  0
  -29.1000  -24.2573   18.3106 C   0  0  0  0  0  0
  -28.8604  -22.5071   20.2170 C   0  0  0  0  0  0
  -28.1582  -25.0978   20.4929 C   0  0  0  0  0  0
  -29.1344  -24.0393   19.8357 C   0  0  2  0  0  0
  -29.8556  -15.6288   20.9808 N   0  0  0  0  0  0
  -31.4791  -12.4900   19.1511 H   0  0  0  0  0  0
  -30.3613  -11.3704   19.8786 H   0  0  0  0  0  0
  -29.7650  -11.7683   17.4681 H   0  0  0  0  0  0
  -29.6579  -13.4861   17.7580 H   0  0  0  0  0  0
  -27.8540  -11.3015   18.8483 H   0  0  0  0  0  0
  -27.3775  -12.6055   17.7934 H   0  0  0  0  0  0
  -27.6846  -14.2552   19.5475 H   0  0  0  0  0  0
  -28.7027  -12.0143   21.3629 H   0  0  0  0  0  0
  -28.4473  -13.6584   21.8636 H   0  0  0  0  0  0
  -25.2770   -9.5676   22.4756 H   0  0  0  0  0  0
  -24.0004   -7.4634   22.7477 H   0  0  0  0  0  0
  -21.0847   -8.8778   19.8950 H   0  0  0  0  0  0
  -22.3710  -10.9674   19.6163 H   0  0  0  0  0  0
  -21.2010   -7.6151   23.9720 H   0  0  0  0  0  0
  -21.1480   -6.0524   25.9080 H   0  0  0  0  0  0
  -22.0599   -2.7611   23.2848 H   0  0  0  0  0  0
  -22.4116  -11.9873   22.4782 H   0  0  0  0  0  0
  -21.1117  -13.1244   22.2617 H   0  0  0  0  0  0
  -24.6631  -15.8454   20.5192 H   0  0  0  0  0  0
  -26.2829  -15.6292   20.0915 H   0  0  0  0  0  0
  -26.7161  -32.5468   23.1122 H   0  0  0  0  0  0
  -25.0061  -33.9740   25.0431 H   0  0  0  0  0  0
  -22.7083  -31.3052   21.4047 H   0  0  0  0  0  0
  -23.3755  -35.9619   23.3287 H   0  0  0  0  0  0
  -24.3580  -36.8929   22.2055 H   0  0  0  0  0  0
  -23.7224  -37.6487   23.6667 H   0  0  0  0  0  0
  -26.0806  -31.5644   20.6043 H   0  0  0  0  0  0
  -26.8356  -30.8494   21.9990 H   0  0  0  0  0  0
  -28.1111  -29.0094   21.1866 H   0  0  0  0  0  0
  -26.0096  -25.9594   18.9665 H   0  0  0  0  0  0
  -23.9761  -27.3125   19.0022 H   0  0  0  0  0  0
  -23.7421  -30.5944   19.4038 H   0  0  0  0  0  0
  -22.7486  -29.2449   19.8638 H   0  0  0  0  0  0
  -25.1286  -36.1944   25.0826 H   0  0  0  0  0  0
  -20.9972  -28.3261   24.1418 H   0  0  0  0  0  0
  -20.5678  -26.2295   23.3613 H   0  0  0  0  0  0
  -21.6637  -26.7449   22.1207 H   0  0  0  0  0  0
  -19.6905  -25.6301   21.1245 H   0  0  0  0  0  0
  -19.6680  -27.3203   20.6753 H   0  0  0  0  0  0
  -17.4194  -26.6688   21.4030 H   0  0  0  0  0  0
  -18.0318  -26.0071   22.9023 H   0  0  0  0  0  0
  -19.7929  -30.7272   24.2279 H   0  0  0  0  0  0
  -17.5010  -31.6273   24.5167 H   0  0  0  0  0  0
  -15.5349  -30.2999   23.7646 H   0  0  0  0  0  0
  -15.8668  -28.0827   22.7075 H   0  0  0  0  0  0
  -24.5897  -30.7077   25.7792 H   0  0  0  0  0  0
  -24.8922  -32.2886   26.4901 H   0  0  0  0  0  0
  -25.8058  -30.8892   27.0229 H   0  0  0  0  0  0
  -26.2900  -29.6779   24.1192 H   0  0  0  0  0  0
  -27.4031  -29.7274   25.4669 H   0  0  0  0  0  0
  -27.8765  -30.4318   23.9386 H   0  0  0  0  0  0
  -27.2656  -33.3626   26.2081 H   0  0  0  0  0  0
  -28.3853  -32.6895   25.0327 H   0  0  0  0  0  0
  -28.0718  -31.8452   26.5413 H   0  0  0  0  0  0
  -28.2582  -38.0113   24.7543 H   0  0  0  0  0  0
  -28.1097  -36.2647   24.6244 H   0  0  0  0  0  0
  -27.2306  -37.1396   25.8863 H   0  0  0  0  0  0
  -20.9341  -29.8764   21.6908 H   0  0  0  0  0  0
  -26.0168  -38.2855   24.1444 H   0  0  0  0  0  0
  -28.4919  -19.9410   22.1377 H   0  0  0  0  0  0
  -28.5286  -17.4771   22.4025 H   0  0  0  0  0  0
  -31.2664  -17.1331   19.0671 H   0  0  0  0  0  0
  -31.2001  -19.5371   17.5695 H   0  0  0  0  0  0
  -32.3946  -19.9485   18.8087 H   0  0  0  0  0  0
  -29.9353  -21.4377   17.9622 H   0  0  0  0  0  0
  -31.4409  -22.1519   18.5201 H   0  0  0  0  0  0
  -30.8205  -21.7875   20.8124 H   0  0  0  0  0  0
  -29.8778  -23.7061   17.7893 H   0  0  0  0  0  0
  -29.2558  -25.3071   18.0600 H   0  0  0  0  0  0
  -28.1385  -23.9626   17.8894 H   0  0  0  0  0  0
  -28.5153  -22.4831   21.2512 H   0  0  0  0  0  0
  -28.0154  -22.1447   19.6307 H   0  0  0  0  0  0
  -28.2736  -25.0354   21.5756 H   0  0  0  0  0  0
  -27.1403  -24.7586   20.3120 H   0  0  0  0  0  0
  -30.1373  -24.2879   20.1850 H   0  0  0  0  0  0
  -29.0225  -15.3049   21.4482 H   0  0  0  0  0  0
  1 25  1  0  0  0
  1 30  2  0  0  0
  1 84  1  0  0  0
  2  3  1  0  0  0
  2 25  1  0  0  0
  2 85  1  0  0  0
  2 86  1  0  0  0
  3  4  1  0  0  0
  3 87  1  0  0  0
  3 88  1  0  0  0
  4  5  1  0  0  0
  4 89  1  0  0  0
  4 90  1  0  0  0
  5  6  1  0  0  0
  5 26  1  0  0  0
  5 91  1  0  0  0
  6 25  1  0  0  0
  6 92  1  0  0  0
  6 93  1  0  0  0
  7  8  2  0  0  0
  7 26  1  0  0  0
  7 29  1  0  0  0
  8  9  1  0  0  0
  8 22  1  0  0  0
  9 10  1  0  0  0
  9 27  2  0  0  0
 10 11  2  0  0  0
 10 15  1  0  0  0
 11 12  1  0  0  0
 11 94  1  0  0  0
 12 13  2  0  0  0
 12 95  1  0  0  0
 13 14  1  0  0  0
 13 31  1  0  0  0
 14 15  2  0  0  0
 14 96  1  0  0  0
 15 97  1  0  0  0
 16 17  2  0  0  0
 16 21  1  0  0  0
 16 31  1  0  0  0
 17 18  1  0  0  0
 17 98  1  0  0  0
 18 19  2  0  0  0
 18 99  1  0  0  0
 19 20  1  0  0  0
 19 24  1  0  0  0
 20 21  2  0  0  0
 20100  1  0  0  0
 21 23  1  0  0  0
 22 28  1  0  0  0
 22 32  2  0  0  0
 26 27  1  0  0  0
 28101  1  0  0  0
 28102  1  0  0  0
 29103  1  0  0  0
 29104  1  0  0  0
 33 34  1  0  0  0
 33 66  1  0  0  0
 33 70  2  0  0  0
 34 36  1  0  0  0
 34 59  1  0  0  0
 34105  1  0  0  0
 35 44  2  0  0  0
 35 45  1  0  0  0
 35 68  1  0  0  0
 36 56  1  0  0  0
 36106  1  0  0  0
 37 39  1  0  0  0
 37 47  1  0  0  0
 37 66  1  0  0  0
 37107  1  0  0  0
 38 43  2  0  0  0
 38 46  1  0  0  0
 38 47  1  0  0  0
 39 64  1  0  0  0
 39 67  2  0  0  0
 40 52  1  0  0  0
 40 53  2  0  0  0
 40 58  1  0  0  0
 41108  1  0  0  0
 41109  1  0  0  0
 41110  1  0  0  0
 41 48  1  0  0  0
 42 43  1  0  0  0
 42 66  1  0  0  0
 42111  1  0  0  0
 42112  1  0  0  0
 43 44  1  0  0  0
 44113  1  0  0  0
 45 46  2  0  0  0
 45114  1  0  0  0
 46115  1  0  0  0
 47116  1  0  0  0
 47117  1  0  0  0
 48 56  1  0  0  0
 48 65  1  0  0  0
 48118  1  0  0  0
 49 50  1  0  0  0
 49 53  1  0  0  0
 49 64  1  0  0  0
 49119  1  0  0  0
 50 51  1  0  0  0
 50120  1  0  0  0
 50121  1  0  0  0
 51 52  1  0  0  0
 51122  1  0  0  0
 51123  1  0  0  0
 52124  1  0  0  0
 52125  1  0  0  0
 53 54  1  0  0  0
 54 55  2  0  0  0
 54126  1  0  0  0
 55 57  1  0  0  0
 55127  1  0  0  0
 56 69  2  0  0  0
 57 58  2  0  0  0
 57128  1  0  0  0
 58129  1  0  0  0
 59 60  1  0  0  0
 59 61  1  0  0  0
 59 62  1  0  0  0
 60130  1  0  0  0
 60131  1  0  0  0
 60132  1  0  0  0
 61133  1  0  0  0
 61134  1  0  0  0
 61135  1  0  0  0
 62136  1  0  0  0
 62137  1  0  0  0
 62138  1  0  0  0
 63 65  1  0  0  0
 63139  1  0  0  0
 63140  1  0  0  0
 63141  1  0  0  0
 64142  1  0  0  0
 65143  1  0  0  0
 68 82  1  0  0  0
 71 72  2  0  0  0
 71 74  1  0  0  0
 71144  1  0  0  0
 72 76  1  0  0  0
 72145  1  0  0  0
 73 75  1  0  0  0
 73 76  2  0  0  0
 73146  1  0  0  0
 74 75  2  0  0  0
 74 79  1  0  0  0
 75 77  1  0  0  0
 76 84  1  0  0  0
 77 78  1  0  0  0
 77147  1  0  0  0
 77148  1  0  0  0
 78 79  1  0  0  0
 78149  1  0  0  0
 78150  1  0  0  0
 79 81  1  0  0  0
 79151  1  0  0  0
 80152  1  0  0  0
 80153  1  0  0  0
 80154  1  0  0  0
 80 83  1  0  0  0
 81 83  1  0  0  0
 81155  1  0  0  0
 81156  1  0  0  0
 82 83  1  0  0  0
 82157  1  0  0  0
 82158  1  0  0  0
 83159  1  0  0  0
 84160  1  0  0  0
M  ISO  4   1 100  68 101  82 101  84 100
M  END
> <chiral flag>
0

> <version>
0

> <s_m_source_file>
/data/baiqing/PycharmProjects/Reinvent-master-3.2/result/LINK_invent/BTK/process_docking_weight1_custom_product_contain_oxygen_bond_distance_aromatic_linkinvent_7_9_3/rearranged_h_0133.sdf

> <i_m_source_file_index>
1

> <r_mmod_Potential_Energy-OPLS-2005>
95.3745727539062

> <r_mmod_Stretch_Energy-OPLS-2005>
70.425910949707

> <r_mmod_Bend_Energy-OPLS-2005>
175.015594482422

> <r_mmod_Torsional_Energy-OPLS-2005>
246.269073486328

> <r_mmod_Improper_Torsional_Energy-OPLS-2005>
3.39979577064514

> <r_mmod_Van_der_Waal_Energy-OPLS-2005>
139.246505737305

> <r_mmod_Electrostatic_Energy-OPLS-2005>
-376.8310546875

> <r_mmod_Solvation_Energy-OPLS-2005>
-199.037857055664

> <b_mmod_Minimization_Converged-OPLS-2005>
0

> <r_mmod_RMS_Derivative-OPLS-2005>
0.522810518741608

$$$$
1
                    3D
 Structure written by MMmdl.
167176  0  0  1  0            999 V2000
  -30.7022  -14.4227   20.5611 C   0  0  0  0  0  0
  -30.4199  -12.2620   19.4274 C   0  0  0  0  0  0
  -29.4983  -12.4747   18.2082 C   0  0  0  0  0  0
  -28.0185  -12.3305   18.6182 C   0  0  0  0  0  0
  -27.6588  -13.1835   19.8608 C   0  0  2  0  0  0
  -28.6985  -12.9871   20.9888 C   0  0  0  0  0  0
  -25.2636  -13.8091   20.5675 C   0  0  0  0  0  0
  -24.1860  -13.0426   20.9197 C   0  0  0  0  0  0
  -24.6382  -11.6873   20.8776 C   0  0  0  0  0  0
  -23.9034  -10.4270   21.0421 C   0  0  0  0  0  0
  -24.3601   -9.4171   21.9184 C   0  0  0  0  0  0
  -23.6280   -8.2208   22.0750 C   0  0  0  0  0  0
  -22.4253   -8.0271   21.3550 C   0  0  0  0  0  0
  -21.9887   -9.0236   20.4642 C   0  0  0  0  0  0
  -22.7220  -10.2114   20.3049 C   0  0  0  0  0  0
  -21.6826   -6.0733   22.5294 C   0  0  0  0  0  0
  -21.3992   -6.5641   23.8228 C   0  0  0  0  0  0
  -21.3655   -5.6808   24.9198 C   0  0  0  0  0  0
  -21.6046   -4.3071   24.7236 C   0  0  0  0  0  0
  -21.8810   -3.8155   23.4357 C   0  0  0  0  0  0
  -21.9180   -4.6967   22.3410 C   0  0  0  0  0  0
  -22.7888  -13.5240   21.1875 C   0  0  0  0  0  0
  -22.1661   -4.2152   21.0987 F   0  0  0  0  0  0
  -21.5608   -3.4552   25.7741 F   0  0  0  0  0  0
  -30.0388  -13.2466   20.4470 N   0  0  0  0  0  0
  -26.3021  -12.9207   20.3300 N   0  0  0  0  0  0
  -25.9286  -11.6392   20.5727 N   0  0  0  0  0  0
  -22.0543  -12.8224   22.0438 N   0  0  0  0  0  0
  -25.4463  -15.1806   20.4115 N   0  0  0  0  0  0
  -31.8655  -14.5806   20.1796 O   0  0  0  0  0  0
  -21.6612   -6.8879   21.4261 O   0  0  0  0  0  0
  -22.3570  -14.5546   20.6725 O   0  0  0  0  0  0
  -24.6097  -31.8714   23.2197 C   0  0  0  0  0  0
  -25.9021  -32.4845   23.8448 C   0  0  1  0  0  0
  -27.2264  -27.4617   20.0591 C   0  0  0  0  0  0
  -25.5889  -33.8650   24.2371 N   0  0  0  0  0  0
  -23.3954  -30.4980   21.5605 C   0  0  2  0  0  0
  -24.8344  -28.9715   20.1200 C   0  0  0  0  0  0
  -22.7390  -29.4665   22.5036 C   0  0  0  0  0  0
  -18.0298  -28.1396   22.8531 C   0  0  0  0  0  0
  -24.1482  -36.7329   23.2649 C   0  0  0  0  0  0
  -25.9245  -30.8376   21.3723 C   0  0  0  0  0  0
  -25.9953  -29.4749   20.7186 C   0  0  0  0  0  0
  -27.1875  -28.7201   20.7001 C   0  0  0  0  0  0
  -26.0452  -26.9799   19.4482 C   0  0  0  0  0  0
  -24.8508  -27.7170   19.4920 C   0  0  0  0  0  0
  -23.5993  -29.8381   20.1722 C   0  0  0  0  0  0
  -25.4106  -36.3134   24.0340 C   0  0  1  0  0  0
  -20.5879  -28.3679   23.1380 C   0  0  2  0  0  0
  -20.6806  -26.9404   22.5498 C   0  0  0  0  0  0
  -19.5796  -26.6330   21.5305 C   0  0  0  0  0  0
  -18.1970  -26.7910   22.1692 C   0  0  0  0  0  0
  -19.1534  -28.8848   23.2960 C   0  0  0  0  0  0
  -18.9462  -30.1481   23.8927 C   0  0  0  0  0  0
  -17.6461  -30.6618   24.0567 C   0  0  0  0  0  0
  -25.9028  -34.9486   23.5145 C   0  0  0  0  0  0
  -16.5358  -29.9113   23.6336 C   0  0  0  0  0  0
  -16.7279  -28.6525   23.0373 C   0  0  0  0  0  0
  -26.4457  -31.6626   25.0766 C   0  0  0  0  0  0
  -25.3765  -31.3704   26.1546 C   0  0  0  0  0  0
  -27.0264  -30.3081   24.6101 C   0  0  0  0  0  0
  -27.6028  -32.4339   25.7515 C   0  0  0  0  0  0
  -27.5579  -37.1828   24.8467 C   0  0  0  0  0  0
  -21.4122  -29.3029   22.3757 N   0  0  0  0  0  0
  -26.4298  -37.3812   23.9396 N   0  0  0  0  0  0
  -24.6615  -31.0831   22.1098 N   0  0  0  0  0  0
  -23.4169  -28.8206   23.3066 O   0  0  0  0  0  0
  -28.4251  -26.7824   20.0409 O   0  0  0  0  0  0
  -26.5606  -34.8907   22.4719 O   0  0  0  0  0  0
  -23.5286  -32.1469   23.7592 O   0  0  0  0  0  0
  -26.9425  -19.3259   21.8709 C   0  0  0  0  0  0
  -27.6282  -17.2389   22.9293 C   0  0  0  0  0  0
  -29.2056  -18.5007   21.5608 C   0  0  0  0  0  0
  -26.6507  -18.2302   22.7073 C   0  0  0  0  0  0
  -28.2250  -19.4704   21.3021 C   0  0  0  0  0  0
  -28.9012  -17.3595   22.3309 C   0  0  0  0  0  0
  -26.6393  -22.3583   20.4893 C   0  0  0  0  0  0
  -26.6410  -23.8212   20.0375 C   0  0  0  0  0  0
  -28.9212  -23.1100   20.1750 C   0  0  0  0  0  0
  -28.0984  -21.9952   20.8188 C   0  0  2  0  0  0
  -28.0539  -24.3586   20.3115 C   0  0  1  0  0  0
  -25.2735  -18.0995   23.3293 C   0  0  0  0  0  0
  -28.5470  -20.6036   20.3431 C   0  0  0  0  0  0
  -29.8682  -16.1925   22.3101 C   0  0  0  0  0  0
  -29.8996  -15.6889   20.8603 C   0  0  0  0  0  0
  -28.5233  -25.5122   19.3975 C   0  0  0  0  0  0
  -31.4664  -12.3460   19.1306 H   0  0  0  0  0  0
  -30.3025  -11.2518   19.8219 H   0  0  0  0  0  0
  -29.7337  -11.7502   17.4283 H   0  0  0  0  0  0
  -29.6791  -13.4633   17.7835 H   0  0  0  0  0  0
  -27.8410  -11.2777   18.8366 H   0  0  0  0  0  0
  -27.3626  -12.5798   17.7820 H   0  0  0  0  0  0
  -27.6819  -14.2132   19.5181 H   0  0  0  0  0  0
  -28.6564  -11.9641   21.3614 H   0  0  0  0  0  0
  -28.4734  -13.6177   21.8499 H   0  0  0  0  0  0
  -25.2730   -9.5633   22.4797 H   0  0  0  0  0  0
  -23.9959   -7.4583   22.7476 H   0  0  0  0  0  0
  -21.0801   -8.8782   19.8958 H   0  0  0  0  0  0
  -22.3683  -10.9683   19.6180 H   0  0  0  0  0  0
  -21.1995   -7.6147   23.9729 H   0  0  0  0  0  0
  -21.1486   -6.0540   25.9103 H   0  0  0  0  0  0
  -22.0584   -2.7614   23.2862 H   0  0  0  0  0  0
  -22.4102  -11.9818   22.4749 H   0  0  0  0  0  0
  -21.1190  -13.1292   22.2658 H   0  0  0  0  0  0
  -24.7055  -15.8534   20.5712 H   0  0  0  0  0  0
  -26.3274  -15.6182   20.1710 H   0  0  0  0  0  0
  -26.7076  -32.5554   23.1190 H   0  0  0  0  0  0
  -24.9979  -33.9817   25.0469 H   0  0  0  0  0  0
  -22.6841  -31.3154   21.4295 H   0  0  0  0  0  0
  -23.3712  -35.9691   23.3333 H   0  0  0  0  0  0
  -24.3569  -36.8934   22.2059 H   0  0  0  0  0  0
  -23.7254  -37.6556   23.6629 H   0  0  0  0  0  0
  -26.0416  -31.6011   20.6008 H   0  0  0  0  0  0
  -26.8143  -30.8891   21.9881 H   0  0  0  0  0  0
  -28.0857  -29.1090   21.1592 H   0  0  0  0  0  0
  -26.0167  -26.0483   18.9116 H   0  0  0  0  0  0
  -23.9621  -27.3263   19.0167 H   0  0  0  0  0  0
  -23.7094  -30.6190   19.4188 H   0  0  0  0  0  0
  -22.7210  -29.2612   19.8736 H   0  0  0  0  0  0
  -25.1270  -36.2025   25.0828 H   0  0  0  0  0  0
  -20.9945  -28.3252   24.1522 H   0  0  0  0  0  0
  -20.5758  -26.2309   23.3706 H   0  0  0  0  0  0
  -21.6707  -26.7478   22.1338 H   0  0  0  0  0  0
  -19.6982  -25.6240   21.1356 H   0  0  0  0  0  0
  -19.6762  -27.3124   20.6813 H   0  0  0  0  0  0
  -17.4269  -26.6638   21.4050 H   0  0  0  0  0  0
  -18.0389  -26.0064   22.9095 H   0  0  0  0  0  0
  -19.7927  -30.7300   24.2309 H   0  0  0  0  0  0
  -17.5017  -31.6306   24.5163 H   0  0  0  0  0  0
  -15.5364  -30.3041   23.7664 H   0  0  0  0  0  0
  -15.8687  -28.0841   22.7082 H   0  0  0  0  0  0
  -24.5895  -30.7103   25.7895 H   0  0  0  0  0  0
  -24.8992  -32.2841   26.5073 H   0  0  0  0  0  0
  -25.8149  -30.8816   27.0260 H   0  0  0  0  0  0
  -26.2779  -29.6883   24.1159 H   0  0  0  0  0  0
  -27.4064  -29.7274   25.4515 H   0  0  0  0  0  0
  -27.8590  -30.4402   23.9198 H   0  0  0  0  0  0
  -27.2629  -33.3580   26.2174 H   0  0  0  0  0  0
  -28.3770  -32.7030   25.0332 H   0  0  0  0  0  0
  -28.0767  -31.8460   26.5380 H   0  0  0  0  0  0
  -28.2625  -38.0105   24.7477 H   0  0  0  0  0  0
  -28.1052  -36.2634   24.6311 H   0  0  0  0  0  0
  -27.2290  -37.1497   25.8879 H   0  0  0  0  0  0
  -20.9282  -29.8703   21.6960 H   0  0  0  0  0  0
  -26.0192  -38.2898   24.1382 H   0  0  0  0  0  0
  -26.1690  -20.0422   21.6473 H   0  0  0  0  0  0
  -27.3857  -16.3634   23.5152 H   0  0  0  0  0  0
  -30.1710  -18.5790   21.0769 H   0  0  0  0  0  0
  -26.2252  -21.7232   19.7023 H   0  0  0  0  0  0
  -26.0085  -22.2337   21.3669 H   0  0  0  0  0  0
  -25.8722  -24.3958   20.5515 H   0  0  0  0  0  0
  -26.4238  -23.8525   18.9690 H   0  0  0  0  0  0
  -29.8978  -23.2246   20.6516 H   0  0  0  0  0  0
  -29.0881  -22.8867   19.1202 H   0  0  0  0  0  0
  -28.2484  -22.0696   21.8981 H   0  0  0  0  0  0
  -28.1035  -24.6883   21.3506 H   0  0  0  0  0  0
  -24.9148  -17.0731   23.2596 H   0  0  0  0  0  0
  -24.5484  -18.7432   22.8303 H   0  0  0  0  0  0
  -25.3060  -18.3901   24.3781 H   0  0  0  0  0  0
  -28.1502  -20.3725   19.3545 H   0  0  0  0  0  0
  -29.6296  -20.6294   20.2208 H   0  0  0  0  0  0
  -30.8593  -16.5144   22.6346 H   0  0  0  0  0  0
  -29.5361  -15.4102   22.9945 H   0  0  0  0  0  0
  -30.3146  -16.4651   20.2171 H   0  0  0  0  0  0
  -28.8761  -15.5830   20.5193 H   0  0  0  0  0  0
  -28.0567  -25.4882   18.4112 H   0  0  0  0  0  0
  -29.5869  -25.3829   19.1943 H   0  0  0  0  0  0
  1 25  1  0  0  0
  1 30  2  0  0  0
  1 85  1  0  0  0
  2  3  1  0  0  0
  2 25  1  0  0  0
  2 87  1  0  0  0
  2 88  1  0  0  0
  3  4  1  0  0  0
  3 89  1  0  0  0
  3 90  1  0  0  0
  4  5  1  0  0  0
  4 91  1  0  0  0
  4 92  1  0  0  0
  5  6  1  0  0  0
  5 26  1  0  0  0
  5 93  1  0  0  0
  6 25  1  0  0  0
  6 94  1  0  0  0
  6 95  1  0  0  0
  7  8  2  0  0  0
  7 26  1  0  0  0
  7 29  1  0  0  0
  8  9  1  0  0  0
  8 22  1  0  0  0
  9 10  1  0  0  0
  9 27  2  0  0  0
 10 11  2  0  0  0
 10 15  1  0  0  0
 11 12  1  0  0  0
 11 96  1  0  0  0
 12 13  2  0  0  0
 12 97  1  0  0  0
 13 14  1  0  0  0
 13 31  1  0  0  0
 14 15  2  0  0  0
 14 98  1  0  0  0
 15 99  1  0  0  0
 16 17  2  0  0  0
 16 21  1  0  0  0
 16 31  1  0  0  0
 17 18  1  0  0  0
 17100  1  0  0  0
 18 19  2  0  0  0
 18101  1  0  0  0
 19 20  1  0  0  0
 19 24  1  0  0  0
 20 21  2  0  0  0
 20102  1  0  0  0
 21 23  1  0  0  0
 22 28  1  0  0  0
 22 32  2  0  0  0
 26 27  1  0  0  0
 28103  1  0  0  0
 28104  1  0  0  0
 29105  1  0  0  0
 29106  1  0  0  0
 33 34  1  0  0  0
 33 66  1  0  0  0
 33 70  2  0  0  0
 34 36  1  0  0  0
 34 59  1  0  0  0
 34107  1  0  0  0
 35 44  2  0  0  0
 35 45  1  0  0  0
 35 68  1  0  0  0
 36 56  1  0  0  0
 36108  1  0  0  0
 37 39  1  0  0  0
 37 47  1  0  0  0
 37 66  1  0  0  0
 37109  1  0  0  0
 38 43  2  0  0  0
 38 46  1  0  0  0
 38 47  1  0  0  0
 39 64  1  0  0  0
 39 67  2  0  0  0
 40 52  1  0  0  0
 40 53  2  0  0  0
 40 58  1  0  0  0
 41110  1  0  0  0
 41111  1  0  0  0
 41112  1  0  0  0
 41 48  1  0  0  0
 42 43  1  0  0  0
 42 66  1  0  0  0
 42113  1  0  0  0
 42114  1  0  0  0
 43 44  1  0  0  0
 44115  1  0  0  0
 45 46  2  0  0  0
 45116  1  0  0  0
 46117  1  0  0  0
 47118  1  0  0  0
 47119  1  0  0  0
 48 56  1  0  0  0
 48 65  1  0  0  0
 48120  1  0  0  0
 49 50  1  0  0  0
 49 53  1  0  0  0
 49 64  1  0  0  0
 49121  1  0  0  0
 50 51  1  0  0  0
 50122  1  0  0  0
 50123  1  0  0  0
 51 52  1  0  0  0
 51124  1  0  0  0
 51125  1  0  0  0
 52126  1  0  0  0
 52127  1  0  0  0
 53 54  1  0  0  0
 54 55  2  0  0  0
 54128  1  0  0  0
 55 57  1  0  0  0
 55129  1  0  0  0
 56 69  2  0  0  0
 57 58  2  0  0  0
 57130  1  0  0  0
 58131  1  0  0  0
 59 60  1  0  0  0
 59 61  1  0  0  0
 59 62  1  0  0  0
 60132  1  0  0  0
 60133  1  0  0  0
 60134  1  0  0  0
 61135  1  0  0  0
 61136  1  0  0  0
 61137  1  0  0  0
 62138  1  0  0  0
 62139  1  0  0  0
 62140  1  0  0  0
 63 65  1  0  0  0
 63141  1  0  0  0
 63142  1  0  0  0
 63143  1  0  0  0
 64144  1  0  0  0
 65145  1  0  0  0
 68 86  1  0  0  0
 71 74  2  0  0  0
 71 75  1  0  0  0
 71146  1  0  0  0
 72 74  1  0  0  0
 72 76  2  0  0  0
 72147  1  0  0  0
 73 75  2  0  0  0
 73 76  1  0  0  0
 73148  1  0  0  0
 74 82  1  0  0  0
 75 83  1  0  0  0
 76 84  1  0  0  0
 77 78  1  0  0  0
 77 80  1  0  0  0
 77149  1  0  0  0
 77150  1  0  0  0
 78 81  1  0  0  0
 78151  1  0  0  0
 78152  1  0  0  0
 79 80  1  0  0  0
 79 81  1  0  0  0
 79153  1  0  0  0
 79154  1  0  0  0
 80 83  1  0  0  0
 80155  1  0  0  0
 81 86  1  0  0  0
 81156  1  0  0  0
 82157  1  0  0  0
 82158  1  0  0  0
 82159  1  0  0  0
 83160  1  0  0  0
 83161  1  0  0  0
 84 85  1  0  0  0
 84162  1  0  0  0
 84163  1  0  0  0
 85164  1  0  0  0
 85165  1  0  0  0
 86166  1  0  0  0
 86167  1  0  0  0
M  ISO  4   1 100  68 101  85 100  86 101
M  END
> <chiral flag>
0

> <version>
0

> <s_m_source_file>
/data/baiqing/PycharmProjects/Reinvent-master-3.2/result/LINK_invent/BTK/process_docking_weight1_custom_product_contain_oxygen_bond_distance_aromatic_linkinvent_7_9_3/rearranged_h_0133.sdf

> <i_m_source_file_index>
2

> <r_mmod_Potential_Energy-OPLS-2005>
63.8702278137207

> <r_mmod_Stretch_Energy-OPLS-2005>
30.2575950622559

> <r_mmod_Bend_Energy-OPLS-2005>
126.252342224121

> <r_mmod_Torsional_Energy-OPLS-2005>
242.277236938477

> <r_mmod_Improper_Torsional_Energy-OPLS-2005>
8.53354835510254

> <r_mmod_Van_der_Waal_Energy-OPLS-2005>
153.630004882812

> <r_mmod_Electrostatic_Energy-OPLS-2005>
-331.952545166016

> <r_mmod_Solvation_Energy-OPLS-2005>
-179.593170166016

> <b_mmod_Minimization_Converged-OPLS-2005>
0

> <r_mmod_RMS_Derivative-OPLS-2005>
4.53445959091187

$$$$
2
                    3D
 Structure written by MMmdl.
157166  0  0  1  0            999 V2000
  -30.5939  -14.8500   20.5201 C   0  0  0  0  0  0
  -30.4395  -12.5385   19.4900 C   0  0  0  0  0  0
  -29.5198  -12.5376   18.2470 C   0  0  0  0  0  0
  -28.0491  -12.3300   18.6540 C   0  0  0  0  0  0
  -27.6388  -13.2366   19.8419 C   0  0  2  0  0  0
  -28.6737  -13.1912   20.9814 C   0  0  0  0  0  0
  -25.2519  -13.8197   20.5686 C   0  0  0  0  0  0
  -24.1813  -13.0439   20.9188 C   0  0  0  0  0  0
  -24.6405  -11.6918   20.8723 C   0  0  0  0  0  0
  -23.9081  -10.4293   21.0389 C   0  0  0  0  0  0
  -24.3629   -9.4210   21.9170 C   0  0  0  0  0  0
  -23.6301   -8.2248   22.0749 C   0  0  0  0  0  0
  -22.4281   -8.0284   21.3544 C   0  0  0  0  0  0
  -21.9916   -9.0254   20.4646 C   0  0  0  0  0  0
  -22.7248  -10.2131   20.3045 C   0  0  0  0  0  0
  -21.6859   -6.0734   22.5277 C   0  0  0  0  0  0
  -21.4018   -6.5636   23.8210 C   0  0  0  0  0  0
  -21.3662   -5.6789   24.9172 C   0  0  0  0  0  0
  -21.6045   -4.3051   24.7222 C   0  0  0  0  0  0
  -21.8823   -3.8144   23.4343 C   0  0  0  0  0  0
  -21.9197   -4.6962   22.3400 C   0  0  0  0  0  0
  -22.7838  -13.5222   21.1859 C   0  0  0  0  0  0
  -22.1664   -4.2148   21.0978 F   0  0  0  0  0  0
  -21.5629   -3.4533   25.7733 F   0  0  0  0  0  0
  -29.9742  -13.6031   20.4247 N   0  0  0  0  0  0
  -26.2927  -12.9404   20.3207 N   0  0  0  0  0  0
  -25.9332  -11.6543   20.5695 N   0  0  0  0  0  0
  -22.0496  -12.8211   22.0421 N   0  0  0  0  0  0
  -25.4242  -15.1924   20.4163 N   0  0  0  0  0  0
  -31.7182  -14.9727   20.0211 O   0  0  0  0  0  0
  -21.6650   -6.8877   21.4240 O   0  0  0  0  0  0
  -22.3515  -14.5523   20.6706 O   0  0  0  0  0  0
  -24.6410  -31.8465   23.1921 C   0  0  0  0  0  0
  -25.9197  -32.4706   23.8300 C   0  0  1  0  0  0
  -27.2152  -27.1699   20.1370 C   0  0  0  0  0  0
  -25.5955  -33.8514   24.2211 N   0  0  0  0  0  0
  -23.4418  -30.4689   21.5366 C   0  0  2  0  0  0
  -24.8893  -28.9032   20.1081 C   0  0  0  0  0  0
  -22.7552  -29.4565   22.4873 C   0  0  0  0  0  0
  -18.0302  -28.1389   22.8483 C   0  0  0  0  0  0
  -24.1490  -36.7264   23.2643 C   0  0  0  0  0  0
  -25.9963  -30.7305   21.3860 C   0  0  0  0  0  0
  -26.0663  -29.3458   20.7249 C   0  0  0  0  0  0
  -27.2300  -28.4941   20.7251 C   0  0  0  0  0  0
  -26.0131  -26.8249   19.4786 C   0  0  0  0  0  0
  -24.8734  -27.6545   19.4710 C   0  0  0  0  0  0
  -23.6651  -29.8013   20.1545 C   0  0  0  0  0  0
  -25.4120  -36.3037   24.0318 C   0  0  1  0  0  0
  -20.5911  -28.3714   23.1242 C   0  0  2  0  0  0
  -20.6784  -26.9422   22.5402 C   0  0  0  0  0  0
  -19.5757  -26.6377   21.5213 C   0  0  0  0  0  0
  -18.1940  -26.7927   22.1628 C   0  0  0  0  0  0
  -19.1557  -28.8871   23.2853 C   0  0  0  0  0  0
  -18.9477  -30.1471   23.8874 C   0  0  0  0  0  0
  -17.6471  -30.6587   24.0563 C   0  0  0  0  0  0
  -25.9068  -34.9411   23.5069 C   0  0  0  0  0  0
  -16.5362  -29.9080   23.6337 C   0  0  0  0  0  0
  -16.7284  -28.6497   23.0359 C   0  0  0  0  0  0
  -26.4526  -31.6565   25.0731 C   0  0  0  0  0  0
  -25.3724  -31.3748   26.1437 C   0  0  0  0  0  0
  -27.0384  -30.2959   24.6301 C   0  0  0  0  0  0
  -27.6054  -32.4336   25.7506 C   0  0  0  0  0  0
  -27.5575  -37.1788   24.8466 C   0  0  0  0  0  0
  -21.4247  -29.3049   22.3623 N   0  0  0  0  0  0
  -26.4284  -37.3748   23.9410 N   0  0  0  0  0  0
  -24.7128  -31.0355   22.0934 N   0  0  0  0  0  0
  -23.4210  -28.8108   23.3008 O   0  0  0  0  0  0
  -28.2725  -26.1998   20.2132 O   0  0  0  0  0  0
  -26.5650  -34.8898   22.4644 O   0  0  0  0  0  0
  -23.5539  -32.1326   23.7159 O   0  0  0  0  0  0
  -29.6817  -19.4608   19.3225 C   0  0  0  0  0  0
  -29.9838  -18.0601   19.5833 C   0  0  0  0  0  0
  -28.8486  -19.7170   21.5109 C   0  0  0  0  0  0
  -29.1404  -18.3243   21.7826 C   0  0  0  0  0  0
  -29.0878  -20.3697   20.2684 C   0  0  0  0  0  0
  -29.7228  -17.4011   20.8307 C   0  0  0  0  0  0
  -28.7785  -17.8461   23.1798 C   0  0  0  0  0  0
  -28.7567  -16.3249   23.3226 C   0  0  0  0  0  0
  -29.9817  -15.6979   22.6552 C   0  0  0  0  0  0
  -28.4759  -21.8427   19.8825 C   0  0  0  0  0  0
  -28.9237  -23.3701   20.3657 C   0  0  0  0  0  0
  -27.9953  -24.7011   19.9655 C   0  0  0  0  0  0
  -29.9808  -15.9319   21.1991 N   0  0  0  0  0  0
  -31.4754  -12.6840   19.1815 H   0  0  0  0  0  0
  -30.4179  -11.5657   19.9834 H   0  0  0  0  0  0
  -29.8271  -11.7566   17.5500 H   0  0  0  0  0  0
  -29.6249  -13.4839   17.7140 H   0  0  0  0  0  0
  -27.9270  -11.2818   18.9296 H   0  0  0  0  0  0
  -27.3911  -12.4985   17.8004 H   0  0  0  0  0  0
  -27.6274  -14.2561   19.4554 H   0  0  0  0  0  0
  -28.7369  -12.1927   21.4146 H   0  0  0  0  0  0
  -28.3375  -13.8439   21.7832 H   0  0  0  0  0  0
  -25.2772   -9.5687   22.4747 H   0  0  0  0  0  0
  -24.0011   -7.4639   22.7467 H   0  0  0  0  0  0
  -21.0842   -8.8769   19.8957 H   0  0  0  0  0  0
  -22.3694  -10.9668   19.6157 H   0  0  0  0  0  0
  -21.2010   -7.6143   23.9711 H   0  0  0  0  0  0
  -21.1484   -6.0518   25.9074 H   0  0  0  0  0  0
  -22.0603   -2.7608   23.2842 H   0  0  0  0  0  0
  -22.4121  -11.9878   22.4812 H   0  0  0  0  0  0
  -21.1114  -13.1232   22.2625 H   0  0  0  0  0  0
  -24.6657  -15.8524   20.5458 H   0  0  0  0  0  0
  -26.2887  -15.6347   20.1300 H   0  0  0  0  0  0
  -26.7261  -32.5315   23.1031 H   0  0  0  0  0  0
  -25.0092  -33.9637   25.0352 H   0  0  0  0  0  0
  -22.7431  -31.2945   21.3854 H   0  0  0  0  0  0
  -23.3751  -35.9599   23.3292 H   0  0  0  0  0  0
  -24.3581  -36.8909   22.2062 H   0  0  0  0  0  0
  -23.7245  -37.6458   23.6684 H   0  0  0  0  0  0
  -26.1502  -31.4880   20.6160 H   0  0  0  0  0  0
  -26.8676  -30.7766   22.0279 H   0  0  0  0  0  0
  -28.1257  -28.8259   21.2309 H   0  0  0  0  0  0
  -25.9149  -25.8735   18.9783 H   0  0  0  0  0  0
  -23.9745  -27.3127   18.9760 H   0  0  0  0  0  0
  -23.7975  -30.5769   19.3988 H   0  0  0  0  0  0
  -22.7805  -29.2408   19.8461 H   0  0  0  0  0  0
  -25.1304  -36.1872   25.0810 H   0  0  0  0  0  0
  -21.0003  -28.3299   24.1363 H   0  0  0  0  0  0
  -20.5677  -26.2334   23.3620 H   0  0  0  0  0  0
  -21.6651  -26.7427   22.1203 H   0  0  0  0  0  0
  -19.6917  -25.6283   21.1256 H   0  0  0  0  0  0
  -19.6686  -27.3178   20.6734 H   0  0  0  0  0  0
  -17.4208  -26.6678   21.4031 H   0  0  0  0  0  0
  -18.0339  -26.0068   22.9022 H   0  0  0  0  0  0
  -19.7953  -30.7299   24.2223 H   0  0  0  0  0  0
  -17.5022  -31.6262   24.5175 H   0  0  0  0  0  0
  -15.5361  -30.2976   23.7666 H   0  0  0  0  0  0
  -15.8686  -28.0804   22.7089 H   0  0  0  0  0  0
  -24.5901  -30.7093   25.7767 H   0  0  0  0  0  0
  -24.8920  -32.2928   26.4830 H   0  0  0  0  0  0
  -25.8023  -30.8946   27.0237 H   0  0  0  0  0  0
  -26.2997  -29.6687   24.1299 H   0  0  0  0  0  0
  -27.3982  -29.7254   25.4874 H   0  0  0  0  0  0
  -27.8910  -30.4189   23.9620 H   0  0  0  0  0  0
  -27.2638  -33.3648   26.2038 H   0  0  0  0  0  0
  -28.3879  -32.6887   25.0345 H   0  0  0  0  0  0
  -28.0708  -31.8502   26.5463 H   0  0  0  0  0  0
  -28.2582  -38.0093   24.7505 H   0  0  0  0  0  0
  -28.1076  -36.2620   24.6288 H   0  0  0  0  0  0
  -27.2296  -37.1433   25.8870 H   0  0  0  0  0  0
  -20.9451  -29.8772   21.6814 H   0  0  0  0  0  0
  -26.0151  -38.2816   24.1412 H   0  0  0  0  0  0
  -29.8753  -19.8300   18.3247 H   0  0  0  0  0  0
  -30.4187  -17.4811   18.7804 H   0  0  0  0  0  0
  -28.3674  -20.2960   22.2870 H   0  0  0  0  0  0
  -27.8076  -18.2514   23.4703 H   0  0  0  0  0  0
  -29.5101  -18.2652   23.8720 H   0  0  0  0  0  0
  -27.8484  -15.9261   22.8677 H   0  0  0  0  0  0
  -28.7144  -16.0537   24.3781 H   0  0  0  0  0  0
  -30.0411  -14.6436   22.9356 H   0  0  0  0  0  0
  -30.8881  -16.1451   23.0672 H   0  0  0  0  0  0
  -27.4214  -21.7590   20.1472 H   0  0  0  0  0  0
  -28.4641  -21.8696   18.7925 H   0  0  0  0  0  0
  -29.9329  -23.5452   19.9929 H   0  0  0  0  0  0
  -29.0180  -23.3555   21.4516 H   0  0  0  0  0  0
  -27.0271  -24.4989   20.4252 H   0  0  0  0  0  0
  -27.8239  -24.6210   18.8914 H   0  0  0  0  0  0
  1 25  1  0  0  0
  1 30  2  0  0  0
  1 83  1  0  0  0
  2  3  1  0  0  0
  2 25  1  0  0  0
  2 84  1  0  0  0
  2 85  1  0  0  0
  3  4  1  0  0  0
  3 86  1  0  0  0
  3 87  1  0  0  0
  4  5  1  0  0  0
  4 88  1  0  0  0
  4 89  1  0  0  0
  5  6  1  0  0  0
  5 26  1  0  0  0
  5 90  1  0  0  0
  6 25  1  0  0  0
  6 91  1  0  0  0
  6 92  1  0  0  0
  7  8  2  0  0  0
  7 26  1  0  0  0
  7 29  1  0  0  0
  8  9  1  0  0  0
  8 22  1  0  0  0
  9 10  1  0  0  0
  9 27  2  0  0  0
 10 11  2  0  0  0
 10 15  1  0  0  0
 11 12  1  0  0  0
 11 93  1  0  0  0
 12 13  2  0  0  0
 12 94  1  0  0  0
 13 14  1  0  0  0
 13 31  1  0  0  0
 14 15  2  0  0  0
 14 95  1  0  0  0
 15 96  1  0  0  0
 16 17  2  0  0  0
 16 21  1  0  0  0
 16 31  1  0  0  0
 17 18  1  0  0  0
 17 97  1  0  0  0
 18 19  2  0  0  0
 18 98  1  0  0  0
 19 20  1  0  0  0
 19 24  1  0  0  0
 20 21  2  0  0  0
 20 99  1  0  0  0
 21 23  1  0  0  0
 22 28  1  0  0  0
 22 32  2  0  0  0
 26 27  1  0  0  0
 28100  1  0  0  0
 28101  1  0  0  0
 29102  1  0  0  0
 29103  1  0  0  0
 33 34  1  0  0  0
 33 66  1  0  0  0
 33 70  2  0  0  0
 34 36  1  0  0  0
 34 59  1  0  0  0
 34104  1  0  0  0
 35 44  2  0  0  0
 35 45  1  0  0  0
 35 68  1  0  0  0
 36 56  1  0  0  0
 36105  1  0  0  0
 37 39  1  0  0  0
 37 47  1  0  0  0
 37 66  1  0  0  0
 37106  1  0  0  0
 38 43  2  0  0  0
 38 46  1  0  0  0
 38 47  1  0  0  0
 39 64  1  0  0  0
 39 67  2  0  0  0
 40 52  1  0  0  0
 40 53  2  0  0  0
 40 58  1  0  0  0
 41107  1  0  0  0
 41108  1  0  0  0
 41109  1  0  0  0
 41 48  1  0  0  0
 42 43  1  0  0  0
 42 66  1  0  0  0
 42110  1  0  0  0
 42111  1  0  0  0
 43 44  1  0  0  0
 44112  1  0  0  0
 45 46  2  0  0  0
 45113  1  0  0  0
 46114  1  0  0  0
 47115  1  0  0  0
 47116  1  0  0  0
 48 56  1  0  0  0
 48 65  1  0  0  0
 48117  1  0  0  0
 49 50  1  0  0  0
 49 53  1  0  0  0
 49 64  1  0  0  0
 49118  1  0  0  0
 50 51  1  0  0  0
 50119  1  0  0  0
 50120  1  0  0  0
 51 52  1  0  0  0
 51121  1  0  0  0
 51122  1  0  0  0
 52123  1  0  0  0
 52124  1  0  0  0
 53 54  1  0  0  0
 54 55  2  0  0  0
 54125  1  0  0  0
 55 57  1  0  0  0
 55126  1  0  0  0
 56 69  2  0  0  0
 57 58  2  0  0  0
 57127  1  0  0  0
 58128  1  0  0  0
 59 60  1  0  0  0
 59 61  1  0  0  0
 59 62  1  0  0  0
 60129  1  0  0  0
 60130  1  0  0  0
 60131  1  0  0  0
 61132  1  0  0  0
 61133  1  0  0  0
 61134  1  0  0  0
 62135  1  0  0  0
 62136  1  0  0  0
 62137  1  0  0  0
 63 65  1  0  0  0
 63138  1  0  0  0
 63139  1  0  0  0
 63140  1  0  0  0
 64141  1  0  0  0
 65142  1  0  0  0
 68 82  1  0  0  0
 71 72  2  0  0  0
 71 75  1  0  0  0
 71143  1  0  0  0
 72 76  1  0  0  0
 72144  1  0  0  0
 73 74  1  0  0  0
 73 75  2  0  0  0
 73145  1  0  0  0
 74 76  2  0  0  0
 74 77  1  0  0  0
 75 80  1  0  0  0
 76 83  1  0  0  0
 77 78  1  0  0  0
 77146  1  0  0  0
 77147  1  0  0  0
 78 79  1  0  0  0
 78148  1  0  0  0
 78149  1  0  0  0
 79 83  1  0  0  0
 79150  1  0  0  0
 79151  1  0  0  0
 80 81  1  0  0  0
 80152  1  0  0  0
 80153  1  0  0  0
 81 82  1  0  0  0
 81154  1  0  0  0
 81155  1  0  0  0
 82156  1  0  0  0
 82157  1  0  0  0
M  ISO  4   1 100  68 101  82 101  83 100
M  END
> <chiral flag>
0

> <version>
0

> <s_m_source_file>
/data/baiqing/PycharmProjects/Reinvent-master-3.2/result/LINK_invent/BTK/process_docking_weight1_custom_product_contain_oxygen_bond_distance_aromatic_linkinvent_7_9_3/rearranged_h_0133.sdf

> <i_m_source_file_index>
3

> <r_mmod_Potential_Energy-OPLS-2005>
558.230773925781

> <r_mmod_Stretch_Energy-OPLS-2005>
211.389572143555

> <r_mmod_Bend_Energy-OPLS-2005>
249.507461547852

> <r_mmod_Torsional_Energy-OPLS-2005>
284.226898193359

> <r_mmod_Improper_Torsional_Energy-OPLS-2005>
4.78414392471313

> <r_mmod_Van_der_Waal_Energy-OPLS-2005>
143.202362060547

> <r_mmod_Electrostatic_Energy-OPLS-2005>
-288.129974365234

> <r_mmod_Solvation_Energy-OPLS-2005>
-189.872924804688

> <b_mmod_Minimization_Converged-OPLS-2005>
0

> <r_mmod_RMS_Derivative-OPLS-2005>
0.91595584154129

$$$$
3
                    3D
 Structure written by MMmdl.
165173  0  0  1  0            999 V2000
  -30.7954  -14.3646   20.6855 C   0  0  0  0  0  0
  -30.4023  -12.2812   19.4155 C   0  0  0  0  0  0
  -29.4884  -12.5252   18.2015 C   0  0  0  0  0  0
  -28.0084  -12.3894   18.6037 C   0  0  0  0  0  0
  -27.6630  -13.2108   19.8754 C   0  0  2  0  0  0
  -28.6985  -12.9838   20.9990 C   0  0  0  0  0  0
  -25.2592  -13.8156   20.5676 C   0  0  0  0  0  0
  -24.1848  -13.0423   20.9143 C   0  0  0  0  0  0
  -24.6410  -11.6890   20.8717 C   0  0  0  0  0  0
  -23.9076  -10.4279   21.0395 C   0  0  0  0  0  0
  -24.3609   -9.4205   21.9188 C   0  0  0  0  0  0
  -23.6289   -8.2244   22.0758 C   0  0  0  0  0  0
  -22.4285   -8.0267   21.3529 C   0  0  0  0  0  0
  -21.9927   -9.0238   20.4626 C   0  0  0  0  0  0
  -22.7253  -10.2116   20.3047 C   0  0  0  0  0  0
  -21.6850   -6.0734   22.5268 C   0  0  0  0  0  0
  -21.4017   -6.5636   23.8207 C   0  0  0  0  0  0
  -21.3663   -5.6790   24.9171 C   0  0  0  0  0  0
  -21.6044   -4.3056   24.7228 C   0  0  0  0  0  0
  -21.8821   -3.8147   23.4357 C   0  0  0  0  0  0
  -21.9195   -4.6960   22.3411 C   0  0  0  0  0  0
  -22.7871  -13.5208   21.1827 C   0  0  0  0  0  0
  -22.1660   -4.2155   21.0989 F   0  0  0  0  0  0
  -21.5625   -3.4540   25.7747 F   0  0  0  0  0  0
  -30.0451  -13.2507   20.4634 N   0  0  0  0  0  0
  -26.3036  -12.9346   20.3350 N   0  0  0  0  0  0
  -25.9346  -11.6497   20.5761 N   0  0  0  0  0  0
  -22.0524  -12.8184   22.0366 N   0  0  0  0  0  0
  -25.4350  -15.1890   20.4109 N   0  0  0  0  0  0
  -31.8202  -14.5989   20.0400 O   0  0  0  0  0  0
  -21.6642   -6.8872   21.4230 O   0  0  0  0  0  0
  -22.3560  -14.5544   20.6727 O   0  0  0  0  0  0
  -24.6124  -31.8700   23.2130 C   0  0  0  0  0  0
  -25.9033  -32.4832   23.8422 C   0  0  1  0  0  0
  -27.2495  -27.4595   20.0935 C   0  0  0  0  0  0
  -25.5910  -33.8629   24.2354 N   0  0  0  0  0  0
  -23.4002  -30.4918   21.5516 C   0  0  2  0  0  0
  -24.8528  -28.9589   20.1222 C   0  0  0  0  0  0
  -22.7395  -29.4664   22.4999 C   0  0  0  0  0  0
  -18.0272  -28.1363   22.8493 C   0  0  0  0  0  0
  -24.1477  -36.7306   23.2636 C   0  0  0  0  0  0
  -25.9271  -30.8407   21.3673 C   0  0  0  0  0  0
  -26.0092  -29.4727   20.7247 C   0  0  0  0  0  0
  -27.2117  -28.7285   20.7200 C   0  0  0  0  0  0
  -26.0785  -26.9610   19.4891 C   0  0  0  0  0  0
  -24.8793  -27.6963   19.5070 C   0  0  0  0  0  0
  -23.6114  -29.8223   20.1672 C   0  0  0  0  0  0
  -25.4096  -36.3111   24.0341 C   0  0  1  0  0  0
  -20.5857  -28.3650   23.1316 C   0  0  2  0  0  0
  -20.6756  -26.9387   22.5414 C   0  0  0  0  0  0
  -19.5736  -26.6369   21.5208 C   0  0  0  0  0  0
  -18.1911  -26.7915   22.1613 C   0  0  0  0  0  0
  -19.1516  -28.8825   23.2903 C   0  0  0  0  0  0
  -18.9450  -30.1436   23.8900 C   0  0  0  0  0  0
  -17.6458  -30.6578   24.0562 C   0  0  0  0  0  0
  -25.9030  -34.9483   23.5139 C   0  0  0  0  0  0
  -16.5348  -29.9072   23.6337 C   0  0  0  0  0  0
  -16.7265  -28.6486   23.0358 C   0  0  0  0  0  0
  -26.4480  -31.6597   25.0737 C   0  0  0  0  0  0
  -25.3773  -31.3644   26.1489 C   0  0  0  0  0  0
  -27.0325  -30.3058   24.6079 C   0  0  0  0  0  0
  -27.6035  -32.4310   25.7540 C   0  0  0  0  0  0
  -27.5582  -37.1791   24.8456 C   0  0  0  0  0  0
  -21.4124  -29.3028   22.3736 N   0  0  0  0  0  0
  -26.4267  -37.3809   23.9444 N   0  0  0  0  0  0
  -24.6636  -31.0817   22.1021 N   0  0  0  0  0  0
  -23.4166  -28.8210   23.3048 O   0  0  0  0  0  0
  -28.3692  -26.6681   19.9864 O   0  0  0  0  0  0
  -26.5582  -34.8928   22.4693 O   0  0  0  0  0  0
  -23.5321  -32.1439   23.7540 O   0  0  0  0  0  0
  -30.8985  -17.5564   19.2882 C   0  0  0  0  0  0
  -32.0523  -19.6997   19.4115 C   0  0  0  0  0  0
  -30.8513  -18.8433   21.3559 C   0  0  0  0  0  0
  -31.6870  -18.5527   18.6799 C   0  0  0  0  0  0
  -30.4853  -17.6866   20.6300 C   0  0  0  0  0  0
  -31.6258  -19.8584   20.7468 C   0  0  0  0  0  0
  -29.8595  -25.3413   21.3149 C   0  0  0  0  0  0
  -32.1421  -18.3877   17.2429 C   0  0  0  0  0  0
  -29.6358  -16.5969   21.2797 C   0  0  0  0  0  0
  -32.0196  -21.1078   21.5243 C   0  0  0  0  0  0
  -31.3573  -25.0221   21.1903 C   0  0  0  0  0  0
  -29.4038  -26.7644   20.9608 C   0  0  0  0  0  0
  -30.4339  -15.3739   21.7905 C   0  0  0  0  0  0
  -31.4270  -22.4112   20.9430 C   0  0  0  0  0  0
  -31.8124  -23.6584   21.7714 C   0  0  0  0  0  0
  -29.0452  -24.4935   21.6952 O   0  0  0  0  0  0
  -31.4533  -12.3399   19.1264 H   0  0  0  0  0  0
  -30.2596  -11.2672   19.7948 H   0  0  0  0  0  0
  -29.7221  -11.8201   17.4028 H   0  0  0  0  0  0
  -29.6778  -13.5223   17.7991 H   0  0  0  0  0  0
  -27.8001  -11.3303   18.7699 H   0  0  0  0  0  0
  -27.3665  -12.6961   17.7760 H   0  0  0  0  0  0
  -27.7132  -14.2622   19.5915 H   0  0  0  0  0  0
  -28.6516  -11.9551   21.3573 H   0  0  0  0  0  0
  -28.4332  -13.5995   21.8555 H   0  0  0  0  0  0
  -25.2737   -9.5677   22.4787 H   0  0  0  0  0  0
  -23.9973   -7.4647   22.7504 H   0  0  0  0  0  0
  -21.0853   -8.8743   19.8943 H   0  0  0  0  0  0
  -22.3690  -10.9648   19.6163 H   0  0  0  0  0  0
  -21.2010   -7.6142   23.9716 H   0  0  0  0  0  0
  -21.1483   -6.0523   25.9070 H   0  0  0  0  0  0
  -22.0604   -2.7613   23.2874 H   0  0  0  0  0  0
  -22.4117  -11.9787   22.4671 H   0  0  0  0  0  0
  -21.1165  -13.1222   22.2624 H   0  0  0  0  0  0
  -24.6738  -15.8506   20.5226 H   0  0  0  0  0  0
  -26.2922  -15.6238   20.0955 H   0  0  0  0  0  0
  -26.7116  -32.5585   23.1205 H   0  0  0  0  0  0
  -25.0110  -33.9803   25.0529 H   0  0  0  0  0  0
  -22.6880  -31.3073   21.4099 H   0  0  0  0  0  0
  -23.3754  -35.9615   23.3237 H   0  0  0  0  0  0
  -24.3593  -36.8985   22.2065 H   0  0  0  0  0  0
  -23.7186  -37.6470   23.6691 H   0  0  0  0  0  0
  -26.0363  -31.6023   20.5937 H   0  0  0  0  0  0
  -26.8148  -30.9008   21.9845 H   0  0  0  0  0  0
  -28.1009  -29.1428   21.1733 H   0  0  0  0  0  0
  -26.0972  -25.9963   19.0019 H   0  0  0  0  0  0
  -23.9917  -27.2915   19.0407 H   0  0  0  0  0  0
  -23.7175  -30.5952   19.4048 H   0  0  0  0  0  0
  -22.7363  -29.2406   19.8709 H   0  0  0  0  0  0
  -25.1255  -36.1968   25.0825 H   0  0  0  0  0  0
  -20.9947  -28.3205   24.1437 H   0  0  0  0  0  0
  -20.5659  -26.2247   23.3592 H   0  0  0  0  0  0
  -21.6631  -26.7421   22.1215 H   0  0  0  0  0  0
  -19.6898  -25.6279   21.1238 H   0  0  0  0  0  0
  -19.6684  -27.3183   20.6737 H   0  0  0  0  0  0
  -17.4184  -26.6675   21.4011 H   0  0  0  0  0  0
  -18.0306  -26.0050   22.8995 H   0  0  0  0  0  0
  -19.7925  -30.7262   24.2257 H   0  0  0  0  0  0
  -17.5008  -31.6260   24.5150 H   0  0  0  0  0  0
  -15.5351  -30.2976   23.7657 H   0  0  0  0  0  0
  -15.8660  -28.0821   22.7067 H   0  0  0  0  0  0
  -24.5962  -30.6974   25.7823 H   0  0  0  0  0  0
  -24.8962  -32.2775   26.5000 H   0  0  0  0  0  0
  -25.8173  -30.8778   27.0203 H   0  0  0  0  0  0
  -26.2855  -29.6815   24.1159 H   0  0  0  0  0  0
  -27.4146  -29.7294   25.4514 H   0  0  0  0  0  0
  -27.8672  -30.4401   23.9192 H   0  0  0  0  0  0
  -27.2634  -33.3593   26.2143 H   0  0  0  0  0  0
  -28.3871  -32.6884   25.0402 H   0  0  0  0  0  0
  -28.0669  -31.8417   26.5462 H   0  0  0  0  0  0
  -28.2517  -38.0170   24.7626 H   0  0  0  0  0  0
  -28.1162  -36.2709   24.6115 H   0  0  0  0  0  0
  -27.2327  -37.1242   25.8860 H   0  0  0  0  0  0
  -20.9270  -29.8768   21.6984 H   0  0  0  0  0  0
  -26.0143  -38.2862   24.1531 H   0  0  0  0  0  0
  -30.6208  -16.6769   18.7252 H   0  0  0  0  0  0
  -32.6594  -20.4631   18.9440 H   0  0  0  0  0  0
  -30.5354  -18.9510   22.3849 H   0  0  0  0  0  0
  -31.5105  -17.6798   16.7043 H   0  0  0  0  0  0
  -33.1685  -18.0204   17.2107 H   0  0  0  0  0  0
  -32.1016  -19.3384   16.7102 H   0  0  0  0  0  0
  -28.8669  -16.2779   20.5746 H   0  0  0  0  0  0
  -29.0940  -17.0372   22.1170 H   0  0  0  0  0  0
  -33.1094  -21.1654   21.5396 H   0  0  0  0  0  0
  -31.7081  -20.9987   22.5638 H   0  0  0  0  0  0
  -31.8942  -25.8209   21.7039 H   0  0  0  0  0  0
  -31.6399  -25.0924   20.1397 H   0  0  0  0  0  0
  -30.2386  -27.3424   20.5642 H   0  0  0  0  0  0
  -29.0553  -27.2459   21.8738 H   0  0  0  0  0  0
  -29.9000  -14.8756   22.5963 H   0  0  0  0  0  0
  -31.3533  -15.7161   22.2661 H   0  0  0  0  0  0
  -30.3419  -22.3174   20.8964 H   0  0  0  0  0  0
  -31.7676  -22.5417   19.9150 H   0  0  0  0  0  0
  -31.4258  -23.5515   22.7856 H   0  0  0  0  0  0
  -32.8983  -23.6847   21.8727 H   0  0  0  0  0  0
  1 25  1  0  0  0
  1 30  2  0  0  0
  1 83  1  0  0  0
  2  3  1  0  0  0
  2 25  1  0  0  0
  2 87  1  0  0  0
  2 88  1  0  0  0
  3  4  1  0  0  0
  3 89  1  0  0  0
  3 90  1  0  0  0
  4  5  1  0  0  0
  4 91  1  0  0  0
  4 92  1  0  0  0
  5  6  1  0  0  0
  5 26  1  0  0  0
  5 93  1  0  0  0
  6 25  1  0  0  0
  6 94  1  0  0  0
  6 95  1  0  0  0
  7  8  2  0  0  0
  7 26  1  0  0  0
  7 29  1  0  0  0
  8  9  1  0  0  0
  8 22  1  0  0  0
  9 10  1  0  0  0
  9 27  2  0  0  0
 10 11  2  0  0  0
 10 15  1  0  0  0
 11 12  1  0  0  0
 11 96  1  0  0  0
 12 13  2  0  0  0
 12 97  1  0  0  0
 13 14  1  0  0  0
 13 31  1  0  0  0
 14 15  2  0  0  0
 14 98  1  0  0  0
 15 99  1  0  0  0
 16 17  2  0  0  0
 16 21  1  0  0  0
 16 31  1  0  0  0
 17 18  1  0  0  0
 17100  1  0  0  0
 18 19  2  0  0  0
 18101  1  0  0  0
 19 20  1  0  0  0
 19 24  1  0  0  0
 20 21  2  0  0  0
 20102  1  0  0  0
 21 23  1  0  0  0
 22 28  1  0  0  0
 22 32  2  0  0  0
 26 27  1  0  0  0
 28103  1  0  0  0
 28104  1  0  0  0
 29105  1  0  0  0
 29106  1  0  0  0
 33 34  1  0  0  0
 33 66  1  0  0  0
 33 70  2  0  0  0
 34 36  1  0  0  0
 34 59  1  0  0  0
 34107  1  0  0  0
 35 44  2  0  0  0
 35 45  1  0  0  0
 35 68  1  0  0  0
 36 56  1  0  0  0
 36108  1  0  0  0
 37 39  1  0  0  0
 37 47  1  0  0  0
 37 66  1  0  0  0
 37109  1  0  0  0
 38 43  2  0  0  0
 38 46  1  0  0  0
 38 47  1  0  0  0
 39 64  1  0  0  0
 39 67  2  0  0  0
 40 52  1  0  0  0
 40 53  2  0  0  0
 40 58  1  0  0  0
 41110  1  0  0  0
 41111  1  0  0  0
 41112  1  0  0  0
 41 48  1  0  0  0
 42 43  1  0  0  0
 42 66  1  0  0  0
 42113  1  0  0  0
 42114  1  0  0  0
 43 44  1  0  0  0
 44115  1  0  0  0
 45 46  2  0  0  0
 45116  1  0  0  0
 46117  1  0  0  0
 47118  1  0  0  0
 47119  1  0  0  0
 48 56  1  0  0  0
 48 65  1  0  0  0
 48120  1  0  0  0
 49 50  1  0  0  0
 49 53  1  0  0  0
 49 64  1  0  0  0
 49121  1  0  0  0
 50 51  1  0  0  0
 50122  1  0  0  0
 50123  1  0  0  0
 51 52  1  0  0  0
 51124  1  0  0  0
 51125  1  0  0  0
 52126  1  0  0  0
 52127  1  0  0  0
 53 54  1  0  0  0
 54 55  2  0  0  0
 54128  1  0  0  0
 55 57  1  0  0  0
 55129  1  0  0  0
 56 69  2  0  0  0
 57 58  2  0  0  0
 57130  1  0  0  0
 58131  1  0  0  0
 59 60  1  0  0  0
 59 61  1  0  0  0
 59 62  1  0  0  0
 60132  1  0  0  0
 60133  1  0  0  0
 60134  1  0  0  0
 61135  1  0  0  0
 61136  1  0  0  0
 61137  1  0  0  0
 62138  1  0  0  0
 62139  1  0  0  0
 62140  1  0  0  0
 63 65  1  0  0  0
 63141  1  0  0  0
 63142  1  0  0  0
 63143  1  0  0  0
 64144  1  0  0  0
 65145  1  0  0  0
 68 82  1  0  0  0
 71 74  2  0  0  0
 71 75  1  0  0  0
 71146  1  0  0  0
 72 74  1  0  0  0
 72 76  2  0  0  0
 72147  1  0  0  0
 73 75  2  0  0  0
 73 76  1  0  0  0
 73148  1  0  0  0
 74 78  1  0  0  0
 75 79  1  0  0  0
 76 80  1  0  0  0
 77 81  1  0  0  0
 77 82  1  0  0  0
 77 86  2  0  0  0
 78149  1  0  0  0
 78150  1  0  0  0
 78151  1  0  0  0
 79 83  1  0  0  0
 79152  1  0  0  0
 79153  1  0  0  0
 80 84  1  0  0  0
 80154  1  0  0  0
 80155  1  0  0  0
 81 85  1  0  0  0
 81156  1  0  0  0
 81157  1  0  0  0
 82158  1  0  0  0
 82159  1  0  0  0
 83160  1  0  0  0
 83161  1  0  0  0
 84 85  1  0  0  0
 84162  1  0  0  0
 84163  1  0  0  0
 85164  1  0  0  0
 85165  1  0  0  0
M  ISO  4   1 100  68 101  82 101  83 100
M  END
> <chiral flag>
0

> <version>
0

> <s_m_source_file>
/data/baiqing/PycharmProjects/Reinvent-master-3.2/result/LINK_invent/BTK/process_docking_weight1_custom_product_contain_oxygen_bond_distance_aromatic_linkinvent_7_9_3/rearranged_h_0133.sdf

> <i_m_source_file_index>
4

> <r_mmod_Potential_Energy-OPLS-2005>
-50.116283416748

> <r_mmod_Stretch_Energy-OPLS-2005>
34.0610694885254

> <r_mmod_Bend_Energy-OPLS-2005>
98.9381713867188

> <r_mmod_Torsional_Energy-OPLS-2005>
180.067153930664

> <r_mmod_Improper_Torsional_Energy-OPLS-2005>
1.71538984775543

> <r_mmod_Van_der_Waal_Energy-OPLS-2005>
140.774078369141

> <r_mmod_Electrostatic_Energy-OPLS-2005>
-300.722412109375

> <r_mmod_Solvation_Energy-OPLS-2005>
-212.673629760742

> <b_mmod_Minimization_Converged-OPLS-2005>
0

> <r_mmod_RMS_Derivative-OPLS-2005>
2.3673996925354

$$$$
4
                    3D
 Structure written by MMmdl.
161169  0  0  1  0            999 V2000
  -30.7373  -14.4202   20.5181 C   0  0  0  0  0  0
  -30.4006  -12.2529   19.4367 C   0  0  0  0  0  0
  -29.4960  -12.4868   18.2094 C   0  0  0  0  0  0
  -28.0118  -12.3680   18.6108 C   0  0  0  0  0  0
  -27.6592  -13.2109   19.8674 C   0  0  2  0  0  0
  -28.6968  -13.0073   20.9943 C   0  0  0  0  0  0
  -25.2591  -13.8181   20.5686 C   0  0  0  0  0  0
  -24.1840  -13.0461   20.9183 C   0  0  0  0  0  0
  -24.6386  -11.6916   20.8719 C   0  0  0  0  0  0
  -23.9046  -10.4306   21.0376 C   0  0  0  0  0  0
  -24.3615   -9.4230   21.9172 C   0  0  0  0  0  0
  -23.6302   -8.2258   22.0751 C   0  0  0  0  0  0
  -22.4279   -8.0291   21.3541 C   0  0  0  0  0  0
  -21.9902   -9.0257   20.4639 C   0  0  0  0  0  0
  -22.7212  -10.2147   20.3035 C   0  0  0  0  0  0
  -21.6851   -6.0742   22.5279 C   0  0  0  0  0  0
  -21.4012   -6.5633   23.8221 C   0  0  0  0  0  0
  -21.3668   -5.6781   24.9179 C   0  0  0  0  0  0
  -21.6053   -4.3050   24.7221 C   0  0  0  0  0  0
  -21.8822   -3.8142   23.4342 C   0  0  0  0  0  0
  -21.9195   -4.6965   22.3402 C   0  0  0  0  0  0
  -22.7869  -13.5258   21.1850 C   0  0  0  0  0  0
  -22.1662   -4.2148   21.0983 F   0  0  0  0  0  0
  -21.5638   -3.4532   25.7739 F   0  0  0  0  0  0
  -30.0355  -13.2590   20.4449 N   0  0  0  0  0  0
  -26.3017  -12.9355   20.3327 N   0  0  0  0  0  0
  -25.9310  -11.6507   20.5749 N   0  0  0  0  0  0
  -22.0478  -12.8274   22.0390 N   0  0  0  0  0  0
  -25.4351  -15.1904   20.4136 N   0  0  0  0  0  0
  -31.9035  -14.5060   20.1241 O   0  0  0  0  0  0
  -21.6646   -6.8883   21.4242 O   0  0  0  0  0  0
  -22.3575  -14.5582   20.6696 O   0  0  0  0  0  0
  -24.6131  -31.8712   23.2123 C   0  0  0  0  0  0
  -25.9044  -32.4833   23.8414 C   0  0  1  0  0  0
  -27.2223  -27.4455   20.1173 C   0  0  0  0  0  0
  -25.5901  -33.8631   24.2335 N   0  0  0  0  0  0
  -23.4005  -30.4983   21.5474 C   0  0  2  0  0  0
  -24.8503  -28.9730   20.1099 C   0  0  0  0  0  0
  -22.7415  -29.4687   22.4936 C   0  0  0  0  0  0
  -18.0288  -28.1396   22.8495 C   0  0  0  0  0  0
  -24.1490  -36.7313   23.2629 C   0  0  0  0  0  0
  -25.9289  -30.8464   21.3657 C   0  0  0  0  0  0
  -26.0078  -29.4825   20.7122 C   0  0  0  0  0  0
  -27.2006  -28.7243   20.7155 C   0  0  0  0  0  0
  -26.0560  -26.9588   19.4887 C   0  0  0  0  0  0
  -24.8684  -27.7105   19.4937 C   0  0  0  0  0  0
  -23.6121  -29.8370   20.1589 C   0  0  0  0  0  0
  -25.4107  -36.3107   24.0328 C   0  0  1  0  0  0
  -20.5880  -28.3689   23.1300 C   0  0  2  0  0  0
  -20.6779  -26.9425   22.5402 C   0  0  0  0  0  0
  -19.5747  -26.6396   21.5214 C   0  0  0  0  0  0
  -18.1930  -26.7943   22.1628 C   0  0  0  0  0  0
  -19.1539  -28.8855   23.2902 C   0  0  0  0  0  0
  -18.9466  -30.1455   23.8919 C   0  0  0  0  0  0
  -17.6465  -30.6596   24.0569 C   0  0  0  0  0  0
  -25.9035  -34.9474   23.5123 C   0  0  0  0  0  0
  -16.5356  -29.9101   23.6325 C   0  0  0  0  0  0
  -16.7275  -28.6520   23.0344 C   0  0  0  0  0  0
  -26.4478  -31.6608   25.0736 C   0  0  0  0  0  0
  -25.3731  -31.3755   26.1480 C   0  0  0  0  0  0
  -27.0299  -30.3032   24.6146 C   0  0  0  0  0  0
  -27.6086  -32.4300   25.7480 C   0  0  0  0  0  0
  -27.5590  -37.1793   24.8444 C   0  0  0  0  0  0
  -21.4136  -29.3056   22.3694 N   0  0  0  0  0  0
  -26.4283  -37.3802   23.9421 N   0  0  0  0  0  0
  -24.6646  -31.0858   22.1002 N   0  0  0  0  0  0
  -23.4202  -28.8227   23.2964 O   0  0  0  0  0  0
  -28.3565  -26.6705   20.1576 O   0  0  0  0  0  0
  -26.5604  -34.8924   22.4689 O   0  0  0  0  0  0
  -23.5332  -32.1445   23.7541 O   0  0  0  0  0  0
  -28.6160  -18.4100   20.9936 C   0  0  0  0  0  0
  -28.1705  -19.7473   21.0810 C   0  0  0  0  0  0
  -29.7991  -20.3955   19.3964 C   0  0  0  0  0  0
  -29.6525  -18.0509   20.1032 C   0  0  0  0  0  0
  -28.7584  -20.7470   20.2756 C   0  0  0  0  0  0
  -30.2557  -19.0649   19.3110 C   0  0  0  0  0  0
  -30.1689  -16.6725   20.0231 C   0  0  0  0  0  0
  -29.9882  -15.6233   20.8546 C   0  0  0  0  0  0
  -31.4107  -18.7629   18.3653 C   0  0  0  0  0  0
  -30.5408  -25.2229   21.5638 C   0  0  0  0  0  0
  -28.3076  -22.2022   20.3395 C   0  0  0  0  0  0
  -29.2532  -23.0771   21.1948 C   0  0  0  0  0  0
  -28.1494  -25.3791   20.7551 C   0  0  0  0  0  0
  -29.4427  -24.5449   20.7261 C   0  0  1  0  0  0
  -31.4511  -12.2996   19.1456 H   0  0  0  0  0  0
  -30.2522  -11.2484   19.8353 H   0  0  0  0  0  0
  -29.7294  -11.7656   17.4247 H   0  0  0  0  0  0
  -29.6934  -13.4726   17.7854 H   0  0  0  0  0  0
  -27.8072  -11.3140   18.7990 H   0  0  0  0  0  0
  -27.3717  -12.6558   17.7758 H   0  0  0  0  0  0
  -27.7002  -14.2582   19.5675 H   0  0  0  0  0  0
  -28.6497  -11.9865   21.3793 H   0  0  0  0  0  0
  -28.4765  -13.6530   21.8444 H   0  0  0  0  0  0
  -25.2759   -9.5730   22.4754 H   0  0  0  0  0  0
  -24.0023   -7.4654   22.7459 H   0  0  0  0  0  0
  -21.0837   -8.8748   19.8944 H   0  0  0  0  0  0
  -22.3642  -10.9694   19.6151 H   0  0  0  0  0  0
  -21.1993   -7.6141   23.9732 H   0  0  0  0  0  0
  -21.1490   -6.0504   25.9091 H   0  0  0  0  0  0
  -22.0595   -2.7601   23.2832 H   0  0  0  0  0  0
  -22.4045  -11.9942   22.4832 H   0  0  0  0  0  0
  -21.1100  -13.1345   22.2560 H   0  0  0  0  0  0
  -24.6780  -15.8528   20.5387 H   0  0  0  0  0  0
  -26.3026  -15.6278   20.1268 H   0  0  0  0  0  0
  -26.7138  -32.5588   23.1211 H   0  0  0  0  0  0
  -25.0024  -33.9791   25.0462 H   0  0  0  0  0  0
  -22.6877  -31.3146   21.4092 H   0  0  0  0  0  0
  -23.3750  -35.9645   23.3269 H   0  0  0  0  0  0
  -24.3602  -36.8955   22.2049 H   0  0  0  0  0  0
  -23.7239  -37.6507   23.6669 H   0  0  0  0  0  0
  -26.0428  -31.6203   20.6047 H   0  0  0  0  0  0
  -26.8134  -30.8972   21.9883 H   0  0  0  0  0  0
  -28.0893  -29.1044   21.2017 H   0  0  0  0  0  0
  -26.0639  -25.9992   18.9934 H   0  0  0  0  0  0
  -23.9809  -27.3170   19.0178 H   0  0  0  0  0  0
  -23.7218  -30.6147   19.4017 H   0  0  0  0  0  0
  -22.7399  -29.2546   19.8572 H   0  0  0  0  0  0
  -25.1284  -36.1947   25.0819 H   0  0  0  0  0  0
  -20.9996  -28.3263   24.1410 H   0  0  0  0  0  0
  -20.5707  -26.2298   23.3593 H   0  0  0  0  0  0
  -21.6644  -26.7479   22.1173 H   0  0  0  0  0  0
  -19.6899  -25.6308   21.1239 H   0  0  0  0  0  0
  -19.6679  -27.3215   20.6754 H   0  0  0  0  0  0
  -17.4197  -26.6709   21.4028 H   0  0  0  0  0  0
  -18.0323  -26.0083   22.9024 H   0  0  0  0  0  0
  -19.7938  -30.7274   24.2296 H   0  0  0  0  0  0
  -17.5020  -31.6284   24.5156 H   0  0  0  0  0  0
  -15.5361  -30.3018   23.7620 H   0  0  0  0  0  0
  -15.8676  -28.0847   22.7041 H   0  0  0  0  0  0
  -24.5880  -30.7138   25.7807 H   0  0  0  0  0  0
  -24.8956  -32.2939   26.4908 H   0  0  0  0  0  0
  -25.8041  -30.8915   27.0249 H   0  0  0  0  0  0
  -26.2859  -29.6789   24.1184 H   0  0  0  0  0  0
  -27.4024  -29.7282   25.4637 H   0  0  0  0  0  0
  -27.8717  -30.4319   23.9336 H   0  0  0  0  0  0
  -27.2743  -33.3584   26.2123 H   0  0  0  0  0  0
  -28.3860  -32.6876   25.0272 H   0  0  0  0  0  0
  -28.0801  -31.8374   26.5333 H   0  0  0  0  0  0
  -28.2558  -38.0139   24.7567 H   0  0  0  0  0  0
  -28.1129  -36.2676   24.6161 H   0  0  0  0  0  0
  -27.2326  -37.1303   25.8846 H   0  0  0  0  0  0
  -20.9286  -29.8805   21.6947 H   0  0  0  0  0  0
  -26.0154  -38.2858   24.1492 H   0  0  0  0  0  0
  -28.1504  -17.6608   21.6173 H   0  0  0  0  0  0
  -27.3788  -19.9963   21.7736 H   0  0  0  0  0  0
  -30.2620  -21.1606   18.7883 H   0  0  0  0  0  0
  -30.7832  -16.4830   19.1539 H   0  0  0  0  0  0
  -29.3658  -15.6829   21.7347 H   0  0  0  0  0  0
  -31.8706  -19.6746   17.9840 H   0  0  0  0  0  0
  -31.0644  -18.1812   17.5098 H   0  0  0  0  0  0
  -32.1962  -18.1984   18.8703 H   0  0  0  0  0  0
  -31.4673  -24.6480   21.5370 H   0  0  0  0  0  0
  -30.2410  -25.3188   22.6085 H   0  0  0  0  0  0
  -30.7679  -26.2232   21.1938 H   0  0  0  0  0  0
  -27.2862  -22.2581   20.7200 H   0  0  0  0  0  0
  -28.2682  -22.5786   19.3158 H   0  0  0  0  0  0
  -30.2425  -22.6162   21.1631 H   0  0  0  0  0  0
  -28.9480  -23.0340   22.2413 H   0  0  0  0  0  0
  -27.8128  -25.5117   21.7858 H   0  0  0  0  0  0
  -27.3677  -24.8178   20.2444 H   0  0  0  0  0  0
  -29.7874  -24.5133   19.6919 H   0  0  0  0  0  0
  1 25  1  0  0  0
  1 30  2  0  0  0
  1 78  1  0  0  0
  2  3  1  0  0  0
  2 25  1  0  0  0
  2 85  1  0  0  0
  2 86  1  0  0  0
  3  4  1  0  0  0
  3 87  1  0  0  0
  3 88  1  0  0  0
  4  5  1  0  0  0
  4 89  1  0  0  0
  4 90  1  0  0  0
  5  6  1  0  0  0
  5 26  1  0  0  0
  5 91  1  0  0  0
  6 25  1  0  0  0
  6 92  1  0  0  0
  6 93  1  0  0  0
  7  8  2  0  0  0
  7 26  1  0  0  0
  7 29  1  0  0  0
  8  9  1  0  0  0
  8 22  1  0  0  0
  9 10  1  0  0  0
  9 27  2  0  0  0
 10 11  2  0  0  0
 10 15  1  0  0  0
 11 12  1  0  0  0
 11 94  1  0  0  0
 12 13  2  0  0  0
 12 95  1  0  0  0
 13 14  1  0  0  0
 13 31  1  0  0  0
 14 15  2  0  0  0
 14 96  1  0  0  0
 15 97  1  0  0  0
 16 17  2  0  0  0
 16 21  1  0  0  0
 16 31  1  0  0  0
 17 18  1  0  0  0
 17 98  1  0  0  0
 18 19  2  0  0  0
 18 99  1  0  0  0
 19 20  1  0  0  0
 19 24  1  0  0  0
 20 21  2  0  0  0
 20100  1  0  0  0
 21 23  1  0  0  0
 22 28  1  0  0  0
 22 32  2  0  0  0
 26 27  1  0  0  0
 28101  1  0  0  0
 28102  1  0  0  0
 29103  1  0  0  0
 29104  1  0  0  0
 33 34  1  0  0  0
 33 66  1  0  0  0
 33 70  2  0  0  0
 34 36  1  0  0  0
 34 59  1  0  0  0
 34105  1  0  0  0
 35 44  2  0  0  0
 35 45  1  0  0  0
 35 68  1  0  0  0
 36 56  1  0  0  0
 36106  1  0  0  0
 37 39  1  0  0  0
 37 47  1  0  0  0
 37 66  1  0  0  0
 37107  1  0  0  0
 38 43  2  0  0  0
 38 46  1  0  0  0
 38 47  1  0  0  0
 39 64  1  0  0  0
 39 67  2  0  0  0
 40 52  1  0  0  0
 40 53  2  0  0  0
 40 58  1  0  0  0
 41108  1  0  0  0
 41109  1  0  0  0
 41110  1  0  0  0
 41 48  1  0  0  0
 42 43  1  0  0  0
 42 66  1  0  0  0
 42111  1  0  0  0
 42112  1  0  0  0
 43 44  1  0  0  0
 44113  1  0  0  0
 45 46  2  0  0  0
 45114  1  0  0  0
 46115  1  0  0  0
 47116  1  0  0  0
 47117  1  0  0  0
 48 56  1  0  0  0
 48 65  1  0  0  0
 48118  1  0  0  0
 49 50  1  0  0  0
 49 53  1  0  0  0
 49 64  1  0  0  0
 49119  1  0  0  0
 50 51  1  0  0  0
 50120  1  0  0  0
 50121  1  0  0  0
 51 52  1  0  0  0
 51122  1  0  0  0
 51123  1  0  0  0
 52124  1  0  0  0
 52125  1  0  0  0
 53 54  1  0  0  0
 54 55  2  0  0  0
 54126  1  0  0  0
 55 57  1  0  0  0
 55127  1  0  0  0
 56 69  2  0  0  0
 57 58  2  0  0  0
 57128  1  0  0  0
 58129  1  0  0  0
 59 60  1  0  0  0
 59 61  1  0  0  0
 59 62  1  0  0  0
 60130  1  0  0  0
 60131  1  0  0  0
 60132  1  0  0  0
 61133  1  0  0  0
 61134  1  0  0  0
 61135  1  0  0  0
 62136  1  0  0  0
 62137  1  0  0  0
 62138  1  0  0  0
 63 65  1  0  0  0
 63139  1  0  0  0
 63140  1  0  0  0
 63141  1  0  0  0
 64142  1  0  0  0
 65143  1  0  0  0
 68 83  1  0  0  0
 71 72  2  0  0  0
 71 74  1  0  0  0
 71144  1  0  0  0
 72 75  1  0  0  0
 72145  1  0  0  0
 73 75  2  0  0  0
 73 76  1  0  0  0
 73146  1  0  0  0
 74 76  2  0  0  0
 74 77  1  0  0  0
 75 81  1  0  0  0
 76 79  1  0  0  0
 77 78  2  0  0  0
 77147  1  0  0  0
 78148  1  0  0  0
 79149  1  0  0  0
 79150  1  0  0  0
 79151  1  0  0  0
 80152  1  0  0  0
 80153  1  0  0  0
 80154  1  0  0  0
 80 84  1  0  0  0
 81 82  1  0  0  0
 81155  1  0  0  0
 81156  1  0  0  0
 82 84  1  0  0  0
 82157  1  0  0  0
 82158  1  0  0  0
 83 84  1  0  0  0
 83159  1  0  0  0
 83160  1  0  0  0
 84161  1  0  0  0
M  ISO  4   1 100  68 101  78 100  83 101
M  END
> <chiral flag>
0

> <version>
0

> <s_m_source_file>
/data/baiqing/PycharmProjects/Reinvent-master-3.2/result/LINK_invent/BTK/process_docking_weight1_custom_product_contain_oxygen_bond_distance_aromatic_linkinvent_7_9_3/rearranged_h_0133.sdf

> <i_m_source_file_index>
5

> <r_mmod_Potential_Energy-OPLS-2005>
4.94710683822632

> <r_mmod_Stretch_Energy-OPLS-2005>
34.34130859375

> <r_mmod_Bend_Energy-OPLS-2005>
96.3339462280273

> <r_mmod_Torsional_Energy-OPLS-2005>
219.512268066406

> <r_mmod_Improper_Torsional_Energy-OPLS-2005>
5.40088605880737

> <r_mmod_Van_der_Waal_Energy-OPLS-2005>
161.666763305664

> <r_mmod_Electrostatic_Energy-OPLS-2005>
-346.846557617188

> <r_mmod_Solvation_Energy-OPLS-2005>
-183.36083984375

> <b_mmod_Minimization_Converged-OPLS-2005>
0

> <r_mmod_RMS_Derivative-OPLS-2005>
2.58966255187988

$$$$
5
                    3D
 Structure written by MMmdl.
162170  0  0  1  0            999 V2000
  -30.6714  -14.4663   20.4812 C   0  0  0  0  0  0
  -30.4132  -12.2820   19.4222 C   0  0  0  0  0  0
  -29.4852  -12.4808   18.2022 C   0  0  0  0  0  0
  -28.0055  -12.3454   18.6149 C   0  0  0  0  0  0
  -27.6505  -13.1956   19.8640 C   0  0  2  0  0  0
  -28.6923  -12.9975   20.9876 C   0  0  0  0  0  0
  -25.2554  -13.8144   20.5693 C   0  0  0  0  0  0
  -24.1790  -13.0453   20.9160 C   0  0  0  0  0  0
  -24.6328  -11.6915   20.8734 C   0  0  0  0  0  0
  -23.9011  -10.4312   21.0425 C   0  0  0  0  0  0
  -24.3591   -9.4240   21.9198 C   0  0  0  0  0  0
  -23.6290   -8.2270   22.0768 C   0  0  0  0  0  0
  -22.4281   -8.0281   21.3547 C   0  0  0  0  0  0
  -21.9889   -9.0259   20.4658 C   0  0  0  0  0  0
  -22.7199  -10.2151   20.3069 C   0  0  0  0  0  0
  -21.6858   -6.0736   22.5281 C   0  0  0  0  0  0
  -21.4023   -6.5634   23.8215 C   0  0  0  0  0  0
  -21.3656   -5.6779   24.9166 C   0  0  0  0  0  0
  -21.6028   -4.3041   24.7218 C   0  0  0  0  0  0
  -21.8833   -3.8144   23.4341 C   0  0  0  0  0  0
  -21.9205   -4.6962   22.3397 C   0  0  0  0  0  0
  -22.7819  -13.5280   21.1819 C   0  0  0  0  0  0
  -22.1661   -4.2134   21.0978 F   0  0  0  0  0  0
  -21.5628   -3.4536   25.7740 F   0  0  0  0  0  0
  -30.0211  -13.2780   20.4270 N   0  0  0  0  0  0
  -26.2955  -12.9286   20.3348 N   0  0  0  0  0  0
  -25.9245  -11.6459   20.5773 N   0  0  0  0  0  0
  -22.0457  -12.8301   22.0371 N   0  0  0  0  0  0
  -25.4310  -15.1881   20.4182 N   0  0  0  0  0  0
  -31.8680  -14.5998   20.2239 O   0  0  0  0  0  0
  -21.6652   -6.8883   21.4246 O   0  0  0  0  0  0
  -22.3515  -14.5590   20.6643 O   0  0  0  0  0  0
  -24.6149  -31.8662   23.2112 C   0  0  0  0  0  0
  -25.9053  -32.4823   23.8402 C   0  0  1  0  0  0
  -27.2572  -27.4434   20.1098 C   0  0  0  0  0  0
  -25.5935  -33.8620   24.2332 N   0  0  0  0  0  0
  -23.4010  -30.4861   21.5499 C   0  0  2  0  0  0
  -24.8522  -28.9452   20.1242 C   0  0  0  0  0  0
  -22.7406  -29.4630   22.4980 C   0  0  0  0  0  0
  -18.0261  -28.1413   22.8502 C   0  0  0  0  0  0
  -24.1491  -36.7331   23.2640 C   0  0  0  0  0  0
  -25.9279  -30.8397   21.3567 C   0  0  0  0  0  0
  -26.0091  -29.4704   20.7121 C   0  0  0  0  0  0
  -27.2095  -28.7272   20.7006 C   0  0  0  0  0  0
  -26.0765  -26.9208   19.5303 C   0  0  0  0  0  0
  -24.8787  -27.6642   19.5430 C   0  0  0  0  0  0
  -23.6132  -29.8128   20.1658 C   0  0  0  0  0  0
  -25.4113  -36.3102   24.0321 C   0  0  1  0  0  0
  -20.5853  -28.3610   23.1341 C   0  0  2  0  0  0
  -20.6701  -26.9365   22.5389 C   0  0  0  0  0  0
  -19.5635  -26.6402   21.5219 C   0  0  0  0  0  0
  -18.1868  -26.7917   22.1752 C   0  0  0  0  0  0
  -19.1540  -28.8812   23.2933 C   0  0  0  0  0  0
  -18.9483  -30.1358   23.9063 C   0  0  0  0  0  0
  -17.6485  -30.6519   24.0728 C   0  0  0  0  0  0
  -25.9045  -34.9463   23.5112 C   0  0  0  0  0  0
  -16.5356  -29.9124   23.6390 C   0  0  0  0  0  0
  -16.7258  -28.6591   23.0322 C   0  0  0  0  0  0
  -26.4472  -31.6629   25.0751 C   0  0  0  0  0  0
  -25.3748  -31.3767   26.1517 C   0  0  0  0  0  0
  -27.0330  -30.3074   24.6168 C   0  0  0  0  0  0
  -27.6020  -32.4383   25.7540 C   0  0  0  0  0  0
  -27.5572  -37.1810   24.8459 C   0  0  0  0  0  0
  -21.4140  -29.2982   22.3752 N   0  0  0  0  0  0
  -26.4285  -37.3786   23.9397 N   0  0  0  0  0  0
  -24.6654  -31.0770   22.1001 N   0  0  0  0  0  0
  -23.4186  -28.8195   23.3032 O   0  0  0  0  0  0
  -28.4589  -26.7631   20.1501 O   0  0  0  0  0  0
  -26.5583  -34.8914   22.4658 O   0  0  0  0  0  0
  -23.5350  -32.1402   23.7521 O   0  0  0  0  0  0
  -27.5852  -18.1618   22.5904 C   0  0  0  0  0  0
  -28.9851  -16.1711   22.4303 C   0  0  0  0  0  0
  -27.7151  -18.3861   21.2059 C   0  0  0  0  0  0
  -28.4793  -17.4820   20.4179 C   0  0  0  0  0  0
  -29.1189  -16.3720   21.0383 C   0  0  0  0  0  0
  -28.2120  -17.0603   23.1990 C   0  0  0  0  0  0
  -28.6111  -17.6671   18.9055 C   0  0  0  0  0  0
  -27.0441  -19.6249   20.6182 C   0  0  0  0  0  0
  -28.0108  -20.8221   20.5055 C   0  0  0  0  0  0
  -27.5561  -21.8405   19.4408 C   0  0  0  0  0  0
  -28.5201  -23.0204   19.1988 C   0  0  0  0  0  0
  -28.2672  -24.2640   20.0857 C   0  0  0  0  0  0
  -28.6606  -25.5787   19.3717 C   0  0  0  0  0  0
  -29.8799  -15.5137   20.1993 N   0  0  0  0  0  0
  -28.0693  -16.8629   24.5319 F   0  0  0  0  0  0
  -31.4575  -12.3791   19.1177 H   0  0  0  0  0  0
  -30.3081  -11.2749   19.8264 H   0  0  0  0  0  0
  -29.7242  -11.7531   17.4252 H   0  0  0  0  0  0
  -29.6477  -13.4670   17.7616 H   0  0  0  0  0  0
  -27.8177  -11.2907   18.8206 H   0  0  0  0  0  0
  -27.3532  -12.6129   17.7840 H   0  0  0  0  0  0
  -27.6794  -14.2368   19.5452 H   0  0  0  0  0  0
  -28.6612  -11.9803   21.3801 H   0  0  0  0  0  0
  -28.4626  -13.6443   21.8306 H   0  0  0  0  0  0
  -25.2764   -9.5714   22.4730 H   0  0  0  0  0  0
  -24.0007   -7.4670   22.7488 H   0  0  0  0  0  0
  -21.0822   -8.8781   19.8963 H   0  0  0  0  0  0
  -22.3680  -10.9684   19.6150 H   0  0  0  0  0  0
  -21.2019   -7.6143   23.9710 H   0  0  0  0  0  0
  -21.1446   -6.0508   25.9061 H   0  0  0  0  0  0
  -22.0616   -2.7608   23.2851 H   0  0  0  0  0  0
  -22.4093  -12.0000   22.4801 H   0  0  0  0  0  0
  -21.1052  -13.1305   22.2535 H   0  0  0  0  0  0
  -24.6716  -15.8470   20.5523 H   0  0  0  0  0  0
  -26.3107  -15.6412   20.2049 H   0  0  0  0  0  0
  -26.7151  -32.5548   23.1189 H   0  0  0  0  0  0
  -25.0132  -33.9792   25.0513 H   0  0  0  0  0  0
  -22.6856  -31.2994   21.4058 H   0  0  0  0  0  0
  -23.3716  -35.9704   23.3323 H   0  0  0  0  0  0
  -24.3585  -36.8938   22.2056 H   0  0  0  0  0  0
  -23.7287  -37.6552   23.6664 H   0  0  0  0  0  0
  -26.0362  -31.6068   20.5865 H   0  0  0  0  0  0
  -26.8165  -30.8997   21.9740 H   0  0  0  0  0  0
  -28.1032  -29.1414   21.1485 H   0  0  0  0  0  0
  -26.0590  -25.9346   19.0897 H   0  0  0  0  0  0
  -23.9844  -27.2331   19.1183 H   0  0  0  0  0  0
  -23.7327  -30.5862   19.4054 H   0  0  0  0  0  0
  -22.7354  -29.2386   19.8639 H   0  0  0  0  0  0
  -25.1286  -36.1941   25.0807 H   0  0  0  0  0  0
  -20.9951  -28.3144   24.1457 H   0  0  0  0  0  0
  -20.5598  -26.2223   23.3547 H   0  0  0  0  0  0
  -21.6561  -26.7358   22.1166 H   0  0  0  0  0  0
  -19.6750  -25.6350   21.1187 H   0  0  0  0  0  0
  -19.6467  -27.3266   20.6779 H   0  0  0  0  0  0
  -17.4002  -26.6520   21.4335 H   0  0  0  0  0  0
  -18.0435  -26.0154   22.9284 H   0  0  0  0  0  0
  -19.7953  -30.7080   24.2643 H   0  0  0  0  0  0
  -17.5048  -31.6096   24.5542 H   0  0  0  0  0  0
  -15.5356  -30.3029   23.7805 H   0  0  0  0  0  0
  -15.8610  -28.0980   22.7022 H   0  0  0  0  0  0
  -24.5853  -30.7184   25.7874 H   0  0  0  0  0  0
  -24.9026  -32.2957   26.5011 H   0  0  0  0  0  0
  -25.8098  -30.8894   27.0253 H   0  0  0  0  0  0
  -26.2903  -29.6817   24.1214 H   0  0  0  0  0  0
  -27.4088  -29.7328   25.4643 H   0  0  0  0  0  0
  -27.8734  -30.4390   23.9350 H   0  0  0  0  0  0
  -27.2583  -33.3634   26.2184 H   0  0  0  0  0  0
  -28.3820  -32.7040   25.0392 H   0  0  0  0  0  0
  -28.0733  -31.8501   26.5427 H   0  0  0  0  0  0
  -28.2580  -38.0106   24.7468 H   0  0  0  0  0  0
  -28.1052  -36.2622   24.6305 H   0  0  0  0  0  0
  -27.2290  -37.1511   25.8860 H   0  0  0  0  0  0
  -20.9277  -29.8709   21.6968 H   0  0  0  0  0  0
  -26.0161  -38.2861   24.1355 H   0  0  0  0  0  0
  -27.0041  -18.8402   23.1982 H   0  0  0  0  0  0
  -29.4680  -15.3417   22.9251 H   0  0  0  0  0  0
  -28.3165  -18.6508   18.5468 H   0  0  0  0  0  0
  -27.9948  -16.9280   18.3944 H   0  0  0  0  0  0
  -29.6399  -17.5313   18.5727 H   0  0  0  0  0  0
  -26.1914  -19.9123   21.2336 H   0  0  0  0  0  0
  -26.6051  -19.3780   19.6501 H   0  0  0  0  0  0
  -28.1116  -21.3015   21.4789 H   0  0  0  0  0  0
  -29.0074  -20.4580   20.2414 H   0  0  0  0  0  0
  -26.5524  -22.2079   19.6633 H   0  0  0  0  0  0
  -27.4659  -21.3004   18.4958 H   0  0  0  0  0  0
  -28.4096  -23.3098   18.1531 H   0  0  0  0  0  0
  -29.5572  -22.6861   19.2838 H   0  0  0  0  0  0
  -28.8333  -24.1538   21.0116 H   0  0  0  0  0  0
  -27.2183  -24.3132   20.3790 H   0  0  0  0  0  0
  -28.1784  -25.6729   18.3984 H   0  0  0  0  0  0
  -29.7297  -25.5300   19.1617 H   0  0  0  0  0  0
  -30.2263  -16.0032   19.3903 H   0  0  0  0  0  0
  1 25  1  0  0  0
  1 30  2  0  0  0
  1 84  1  0  0  0
  2  3  1  0  0  0
  2 25  1  0  0  0
  2 86  1  0  0  0
  2 87  1  0  0  0
  3  4  1  0  0  0
  3 88  1  0  0  0
  3 89  1  0  0  0
  4  5  1  0  0  0
  4 90  1  0  0  0
  4 91  1  0  0  0
  5  6  1  0  0  0
  5 26  1  0  0  0
  5 92  1  0  0  0
  6 25  1  0  0  0
  6 93  1  0  0  0
  6 94  1  0  0  0
  7  8  2  0  0  0
  7 26  1  0  0  0
  7 29  1  0  0  0
  8  9  1  0  0  0
  8 22  1  0  0  0
  9 10  1  0  0  0
  9 27  2  0  0  0
 10 11  2  0  0  0
 10 15  1  0  0  0
 11 12  1  0  0  0
 11 95  1  0  0  0
 12 13  2  0  0  0
 12 96  1  0  0  0
 13 14  1  0  0  0
 13 31  1  0  0  0
 14 15  2  0  0  0
 14 97  1  0  0  0
 15 98  1  0  0  0
 16 17  2  0  0  0
 16 21  1  0  0  0
 16 31  1  0  0  0
 17 18  1  0  0  0
 17 99  1  0  0  0
 18 19  2  0  0  0
 18100  1  0  0  0
 19 20  1  0  0  0
 19 24  1  0  0  0
 20 21  2  0  0  0
 20101  1  0  0  0
 21 23  1  0  0  0
 22 28  1  0  0  0
 22 32  2  0  0  0
 26 27  1  0  0  0
 28102  1  0  0  0
 28103  1  0  0  0
 29104  1  0  0  0
 29105  1  0  0  0
 33 34  1  0  0  0
 33 66  1  0  0  0
 33 70  2  0  0  0
 34 36  1  0  0  0
 34 59  1  0  0  0
 34106  1  0  0  0
 35 44  2  0  0  0
 35 45  1  0  0  0
 35 68  1  0  0  0
 36 56  1  0  0  0
 36107  1  0  0  0
 37 39  1  0  0  0
 37 47  1  0  0  0
 37 66  1  0  0  0
 37108  1  0  0  0
 38 43  2  0  0  0
 38 46  1  0  0  0
 38 47  1  0  0  0
 39 64  1  0  0  0
 39 67  2  0  0  0
 40 52  1  0  0  0
 40 53  2  0  0  0
 40 58  1  0  0  0
 41109  1  0  0  0
 41110  1  0  0  0
 41111  1  0  0  0
 41 48  1  0  0  0
 42 43  1  0  0  0
 42 66  1  0  0  0
 42112  1  0  0  0
 42113  1  0  0  0
 43 44  1  0  0  0
 44114  1  0  0  0
 45 46  2  0  0  0
 45115  1  0  0  0
 46116  1  0  0  0
 47117  1  0  0  0
 47118  1  0  0  0
 48 56  1  0  0  0
 48 65  1  0  0  0
 48119  1  0  0  0
 49 50  1  0  0  0
 49 53  1  0  0  0
 49 64  1  0  0  0
 49120  1  0  0  0
 50 51  1  0  0  0
 50121  1  0  0  0
 50122  1  0  0  0
 51 52  1  0  0  0
 51123  1  0  0  0
 51124  1  0  0  0
 52125  1  0  0  0
 52126  1  0  0  0
 53 54  1  0  0  0
 54 55  2  0  0  0
 54127  1  0  0  0
 55 57  1  0  0  0
 55128  1  0  0  0
 56 69  2  0  0  0
 57 58  2  0  0  0
 57129  1  0  0  0
 58130  1  0  0  0
 59 60  1  0  0  0
 59 61  1  0  0  0
 59 62  1  0  0  0
 60131  1  0  0  0
 60132  1  0  0  0
 60133  1  0  0  0
 61134  1  0  0  0
 61135  1  0  0  0
 61136  1  0  0  0
 62137  1  0  0  0
 62138  1  0  0  0
 62139  1  0  0  0
 63 65  1  0  0  0
 63140  1  0  0  0
 63141  1  0  0  0
 63142  1  0  0  0
 64143  1  0  0  0
 65144  1  0  0  0
 68 83  1  0  0  0
 71 73  2  0  0  0
 71 76  1  0  0  0
 71145  1  0  0  0
 72 75  1  0  0  0
 72 76  2  0  0  0
 72146  1  0  0  0
 73 74  1  0  0  0
 73 78  1  0  0  0
 74 75  2  0  0  0
 74 77  1  0  0  0
 75 84  1  0  0  0
 76 85  1  0  0  0
 77147  1  0  0  0
 77148  1  0  0  0
 77149  1  0  0  0
 78 79  1  0  0  0
 78150  1  0  0  0
 78151  1  0  0  0
 79 80  1  0  0  0
 79152  1  0  0  0
 79153  1  0  0  0
 80 81  1  0  0  0
 80154  1  0  0  0
 80155  1  0  0  0
 81 82  1  0  0  0
 81156  1  0  0  0
 81157  1  0  0  0
 82 83  1  0  0  0
 82158  1  0  0  0
 82159  1  0  0  0
 83160  1  0  0  0
 83161  1  0  0  0
 84162  1  0  0  0
M  ISO  4   1 100  68 101  83 101  84 100
M  END
> <chiral flag>
0

> <version>
0

> <s_m_source_file>
/data/baiqing/PycharmProjects/Reinvent-master-3.2/result/LINK_invent/BTK/process_docking_weight1_custom_product_contain_oxygen_bond_distance_aromatic_linkinvent_7_9_3/rearranged_h_0133.sdf

> <i_m_source_file_index>
6

> <r_mmod_Potential_Energy-OPLS-2005>
46.1020965576172

> <r_mmod_Stretch_Energy-OPLS-2005>
35.2046165466309

> <r_mmod_Bend_Energy-OPLS-2005>
118.82006072998

> <r_mmod_Torsional_Energy-OPLS-2005>
266.150054931641

> <r_mmod_Improper_Torsional_Energy-OPLS-2005>
23.8291454315186

> <r_mmod_Van_der_Waal_Energy-OPLS-2005>
145.833389282227

> <r_mmod_Electrostatic_Energy-OPLS-2005>
-378.159149169922

> <r_mmod_Solvation_Energy-OPLS-2005>
-185.992736816406

> <b_mmod_Minimization_Converged-OPLS-2005>
0

> <r_mmod_RMS_Derivative-OPLS-2005>
4.7856240272522

$$$$
6
                    3D
 Structure written by MMmdl.
166174  0  0  1  0            999 V2000
  -30.6812  -14.5673   20.5002 C   0  0  0  0  0  0
  -30.4275  -12.3397   19.4605 C   0  0  0  0  0  0
  -29.5090  -12.4949   18.2313 C   0  0  0  0  0  0
  -28.0272  -12.3664   18.6319 C   0  0  0  0  0  0
  -27.6634  -13.2213   19.8782 C   0  0  2  0  0  0
  -28.7078  -13.0607   21.0073 C   0  0  0  0  0  0
  -25.2589  -13.8209   20.5674 C   0  0  0  0  0  0
  -24.1857  -13.0474   20.9181 C   0  0  0  0  0  0
  -24.6453  -11.6963   20.8775 C   0  0  0  0  0  0
  -23.9136  -10.4331   21.0406 C   0  0  0  0  0  0
  -24.3687   -9.4230   21.9168 C   0  0  0  0  0  0
  -23.6331   -8.2272   22.0752 C   0  0  0  0  0  0
  -22.4304   -8.0325   21.3541 C   0  0  0  0  0  0
  -21.9952   -9.0312   20.4650 C   0  0  0  0  0  0
  -22.7308  -10.2177   20.3054 C   0  0  0  0  0  0
  -21.6869   -6.0760   22.5251 C   0  0  0  0  0  0
  -21.4029   -6.5650   23.8195 C   0  0  0  0  0  0
  -21.3670   -5.6794   24.9144 C   0  0  0  0  0  0
  -21.6042   -4.3047   24.7183 C   0  0  0  0  0  0
  -21.8825   -3.8165   23.4293 C   0  0  0  0  0  0
  -21.9204   -4.6998   22.3364 C   0  0  0  0  0  0
  -22.7861  -13.5248   21.1796 C   0  0  0  0  0  0
  -22.1650   -4.2191   21.0931 F   0  0  0  0  0  0
  -21.5652   -3.4530   25.7686 F   0  0  0  0  0  0
  -30.0322  -13.3661   20.4442 N   0  0  0  0  0  0
  -26.3059  -12.9427   20.3402 N   0  0  0  0  0  0
  -25.9399  -11.6582   20.5852 N   0  0  0  0  0  0
  -22.0508  -12.8263   22.0380 N   0  0  0  0  0  0
  -25.4246  -15.1932   20.4045 N   0  0  0  0  0  0
  -31.8147  -14.7108   20.0365 O   0  0  0  0  0  0
  -21.6650   -6.8917   21.4233 O   0  0  0  0  0  0
  -22.3537  -14.5547   20.6618 O   0  0  0  0  0  0
  -24.6216  -31.8609   23.2046 C   0  0  0  0  0  0
  -25.9087  -32.4769   23.8352 C   0  0  1  0  0  0
  -27.2178  -27.3547   20.1018 C   0  0  0  0  0  0
  -25.5910  -33.8567   24.2256 N   0  0  0  0  0  0
  -23.4124  -30.4863   21.5462 C   0  0  2  0  0  0
  -24.8566  -28.9462   20.1099 C   0  0  0  0  0  0
  -22.7458  -29.4614   22.4952 C   0  0  0  0  0  0
  -18.0282  -28.1386   22.8478 C   0  0  0  0  0  0
  -24.1486  -36.7299   23.2636 C   0  0  0  0  0  0
  -25.9519  -30.8017   21.3723 C   0  0  0  0  0  0
  -26.0245  -29.4341   20.7109 C   0  0  0  0  0  0
  -27.2122  -28.6487   20.6969 C   0  0  0  0  0  0
  -26.0329  -26.9100   19.4804 C   0  0  0  0  0  0
  -24.8602  -27.6883   19.4875 C   0  0  0  0  0  0
  -23.6237  -29.8230   20.1593 C   0  0  0  0  0  0
  -25.4105  -36.3056   24.0317 C   0  0  1  0  0  0
  -20.5866  -28.3668   23.1304 C   0  0  2  0  0  0
  -20.6768  -26.9394   22.5420 C   0  0  0  0  0  0
  -19.5747  -26.6373   21.5222 C   0  0  0  0  0  0
  -18.1929  -26.7930   22.1624 C   0  0  0  0  0  0
  -19.1531  -28.8841   23.2880 C   0  0  0  0  0  0
  -18.9461  -30.1458   23.8885 C   0  0  0  0  0  0
  -17.6458  -30.6585   24.0560 C   0  0  0  0  0  0
  -25.9039  -34.9443   23.5081 C   0  0  0  0  0  0
  -16.5353  -29.9081   23.6327 C   0  0  0  0  0  0
  -16.7271  -28.6507   23.0330 C   0  0  0  0  0  0
  -26.4479  -31.6593   25.0727 C   0  0  0  0  0  0
  -25.3736  -31.3774   26.1484 C   0  0  0  0  0  0
  -27.0308  -30.2998   24.6186 C   0  0  0  0  0  0
  -27.5993  -32.4377   25.7520 C   0  0  0  0  0  0
  -27.5576  -37.1793   24.8447 C   0  0  0  0  0  0
  -21.4165  -29.3021   22.3705 N   0  0  0  0  0  0
  -26.4266  -37.3767   23.9414 N   0  0  0  0  0  0
  -24.6801  -31.0661   22.0978 N   0  0  0  0  0  0
  -23.4216  -28.8147   23.3000 O   0  0  0  0  0  0
  -28.3437  -26.5317   20.1006 O   0  0  0  0  0  0
  -26.5621  -34.8911   22.4649 O   0  0  0  0  0  0
  -23.5395  -32.1401   23.7412 O   0  0  0  0  0  0
  -32.0647  -18.8773   23.3649 C   0  0  0  0  0  0
  -31.0101  -20.5657   22.0040 C   0  0  0  0  0  0
  -31.8507  -20.2254   23.0709 C   0  0  0  0  0  0
  -31.4800  -17.8616   22.5881 C   0  0  0  0  0  0
  -30.6489  -18.1807   21.4623 C   0  0  0  0  0  0
  -30.3878  -19.5856   21.1906 C   0  0  0  0  0  0
  -31.8287  -16.4504   23.0312 C   0  0  0  0  0  0
  -32.0477  -21.3422   25.3467 C   0  0  0  0  0  0
  -32.5407  -21.2980   23.8937 C   0  0  0  0  0  0
  -30.1522  -17.0713   20.4775 C   0  0  0  0  0  0
  -28.9233  -24.0011   19.7780 C   0  0  0  0  0  0
  -28.7326  -22.5314   20.3405 C   0  0  0  0  0  0
  -28.1593  -25.1449   20.5504 C   0  0  0  0  0  0
  -29.5992  -21.3954   19.6620 C   0  0  0  0  0  0
  -29.9548  -15.6457   20.9033 N   0  0  0  0  0  0
  -29.5349  -20.0183   20.1695 O   0  0  0  0  0  0
  -31.4739  -12.4293   19.1626 H   0  0  0  0  0  0
  -30.3305  -11.3465   19.9012 H   0  0  0  0  0  0
  -29.7619  -11.7460   17.4810 H   0  0  0  0  0  0
  -29.6800  -13.4676   17.7682 H   0  0  0  0  0  0
  -27.8318  -11.3126   18.8355 H   0  0  0  0  0  0
  -27.3882  -12.6336   17.7894 H   0  0  0  0  0  0
  -27.6905  -14.2626   19.5617 H   0  0  0  0  0  0
  -28.7027  -12.0467   21.4068 H   0  0  0  0  0  0
  -28.4700  -13.7121   21.8498 H   0  0  0  0  0  0
  -25.2837   -9.5703   22.4722 H   0  0  0  0  0  0
  -24.0044   -7.4683   22.7473 H   0  0  0  0  0  0
  -21.0877   -8.8864   19.8947 H   0  0  0  0  0  0
  -22.3782  -10.9735   19.6166 H   0  0  0  0  0  0
  -21.1999   -7.6159   23.9715 H   0  0  0  0  0  0
  -21.1490   -6.0495   25.9050 H   0  0  0  0  0  0
  -22.0598   -2.7634   23.2751 H   0  0  0  0  0  0
  -22.4144  -11.9973   22.4819 H   0  0  0  0  0  0
  -21.1122  -13.1297   22.2557 H   0  0  0  0  0  0
  -24.6563  -15.8457   20.5162 H   0  0  0  0  0  0
  -26.2735  -15.6381   20.0792 H   0  0  0  0  0  0
  -26.7148  -32.5438   23.1100 H   0  0  0  0  0  0
  -25.0047  -33.9717   25.0390 H   0  0  0  0  0  0
  -22.7017  -31.3043   21.4085 H   0  0  0  0  0  0
  -23.3726  -35.9649   23.3274 H   0  0  0  0  0  0
  -24.3589  -36.8953   22.2056 H   0  0  0  0  0  0
  -23.7274  -37.6501   23.6692 H   0  0  0  0  0  0
  -26.0865  -31.5724   20.6128 H   0  0  0  0  0  0
  -26.8297  -30.8412   22.0051 H   0  0  0  0  0  0
  -28.1113  -29.0201   21.1666 H   0  0  0  0  0  0
  -26.0089  -25.9505   18.9841 H   0  0  0  0  0  0
  -23.9657  -27.3120   19.0125 H   0  0  0  0  0  0
  -23.7416  -30.6027   19.4056 H   0  0  0  0  0  0
  -22.7426  -29.2524   19.8568 H   0  0  0  0  0  0
  -25.1293  -36.1874   25.0808 H   0  0  0  0  0  0
  -20.9963  -28.3231   24.1422 H   0  0  0  0  0  0
  -20.5671  -26.2273   23.3610 H   0  0  0  0  0  0
  -21.6636  -26.7428   22.1211 H   0  0  0  0  0  0
  -19.6896  -25.6285   21.1247 H   0  0  0  0  0  0
  -19.6686  -27.3180   20.6751 H   0  0  0  0  0  0
  -17.4198  -26.6663   21.4029 H   0  0  0  0  0  0
  -18.0316  -26.0086   22.9031 H   0  0  0  0  0  0
  -19.7934  -30.7274   24.2224 H   0  0  0  0  0  0
  -17.5017  -31.6255   24.5174 H   0  0  0  0  0  0
  -15.5352  -30.2976   23.7662 H   0  0  0  0  0  0
  -15.8673  -28.0836   22.7027 H   0  0  0  0  0  0
  -24.5850  -30.7171   25.7860 H   0  0  0  0  0  0
  -24.9018  -32.2982   26.4929 H   0  0  0  0  0  0
  -25.8095  -30.8946   27.0241 H   0  0  0  0  0  0
  -26.2882  -29.6781   24.1165 H   0  0  0  0  0  0
  -27.3931  -29.7223   25.4704 H   0  0  0  0  0  0
  -27.8793  -30.4248   23.9451 H   0  0  0  0  0  0
  -27.2499  -33.3641   26.2097 H   0  0  0  0  0  0
  -28.3813  -32.7022   25.0391 H   0  0  0  0  0  0
  -28.0648  -31.8535   26.5467 H   0  0  0  0  0  0
  -28.2542  -38.0134   24.7524 H   0  0  0  0  0  0
  -28.1117  -36.2668   24.6212 H   0  0  0  0  0  0
  -27.2315  -37.1373   25.8852 H   0  0  0  0  0  0
  -20.9339  -29.8767   21.6941 H   0  0  0  0  0  0
  -26.0124  -38.2816   24.1458 H   0  0  0  0  0  0
  -32.7153  -18.6240   24.1922 H   0  0  0  0  0  0
  -30.8679  -21.6184   21.8194 H   0  0  0  0  0  0
  -30.9314  -15.8835   23.2744 H   0  0  0  0  0  0
  -32.4416  -16.4571   23.9337 H   0  0  0  0  0  0
  -32.4125  -15.9383   22.2688 H   0  0  0  0  0  0
  -32.5866  -22.1040   25.9107 H   0  0  0  0  0  0
  -32.1966  -20.3881   25.8524 H   0  0  0  0  0  0
  -30.9859  -21.5784   25.3983 H   0  0  0  0  0  0
  -32.4103  -22.2760   23.4276 H   0  0  0  0  0  0
  -33.6127  -21.0976   23.8800 H   0  0  0  0  0  0
  -30.8565  -17.0796   19.6454 H   0  0  0  0  0  0
  -29.2055  -17.3965   20.0452 H   0  0  0  0  0  0
  -28.6163  -24.0139   18.7310 H   0  0  0  0  0  0
  -29.9885  -24.2366   19.7735 H   0  0  0  0  0  0
  -27.6793  -22.2646   20.2430 H   0  0  0  0  0  0
  -28.9243  -22.5444   21.4125 H   0  0  0  0  0  0
  -28.5060  -25.1234   21.5841 H   0  0  0  0  0  0
  -27.1065  -24.8662   20.6118 H   0  0  0  0  0  0
  -30.6413  -21.7119   19.6003 H   0  0  0  0  0  0
  -29.2791  -21.3295   18.6200 H   0  0  0  0  0  0
  -29.0586  -15.4339   21.3124 H   0  0  0  0  0  0
  1 25  1  0  0  0
  1 30  2  0  0  0
  1 85  1  0  0  0
  2  3  1  0  0  0
  2 25  1  0  0  0
  2 87  1  0  0  0
  2 88  1  0  0  0
  3  4  1  0  0  0
  3 89  1  0  0  0
  3 90  1  0  0  0
  4  5  1  0  0  0
  4 91  1  0  0  0
  4 92  1  0  0  0
  5  6  1  0  0  0
  5 26  1  0  0  0
  5 93  1  0  0  0
  6 25  1  0  0  0
  6 94  1  0  0  0
  6 95  1  0  0  0
  7  8  2  0  0  0
  7 26  1  0  0  0
  7 29  1  0  0  0
  8  9  1  0  0  0
  8 22  1  0  0  0
  9 10  1  0  0  0
  9 27  2  0  0  0
 10 11  2  0  0  0
 10 15  1  0  0  0
 11 12  1  0  0  0
 11 96  1  0  0  0
 12 13  2  0  0  0
 12 97  1  0  0  0
 13 14  1  0  0  0
 13 31  1  0  0  0
 14 15  2  0  0  0
 14 98  1  0  0  0
 15 99  1  0  0  0
 16 17  2  0  0  0
 16 21  1  0  0  0
 16 31  1  0  0  0
 17 18  1  0  0  0
 17100  1  0  0  0
 18 19  2  0  0  0
 18101  1  0  0  0
 19 20  1  0  0  0
 19 24  1  0  0  0
 20 21  2  0  0  0
 20102  1  0  0  0
 21 23  1  0  0  0
 22 28  1  0  0  0
 22 32  2  0  0  0
 26 27  1  0  0  0
 28103  1  0  0  0
 28104  1  0  0  0
 29105  1  0  0  0
 29106  1  0  0  0
 33 34  1  0  0  0
 33 66  1  0  0  0
 33 70  2  0  0  0
 34 36  1  0  0  0
 34 59  1  0  0  0
 34107  1  0  0  0
 35 44  2  0  0  0
 35 45  1  0  0  0
 35 68  1  0  0  0
 36 56  1  0  0  0
 36108  1  0  0  0
 37 39  1  0  0  0
 37 47  1  0  0  0
 37 66  1  0  0  0
 37109  1  0  0  0
 38 43  2  0  0  0
 38 46  1  0  0  0
 38 47  1  0  0  0
 39 64  1  0  0  0
 39 67  2  0  0  0
 40 52  1  0  0  0
 40 53  2  0  0  0
 40 58  1  0  0  0
 41110  1  0  0  0
 41111  1  0  0  0
 41112  1  0  0  0
 41 48  1  0  0  0
 42 43  1  0  0  0
 42 66  1  0  0  0
 42113  1  0  0  0
 42114  1  0  0  0
 43 44  1  0  0  0
 44115  1  0  0  0
 45 46  2  0  0  0
 45116  1  0  0  0
 46117  1  0  0  0
 47118  1  0  0  0
 47119  1  0  0  0
 48 56  1  0  0  0
 48 65  1  0  0  0
 48120  1  0  0  0
 49 50  1  0  0  0
 49 53  1  0  0  0
 49 64  1  0  0  0
 49121  1  0  0  0
 50 51  1  0  0  0
 50122  1  0  0  0
 50123  1  0  0  0
 51 52  1  0  0  0
 51124  1  0  0  0
 51125  1  0  0  0
 52126  1  0  0  0
 52127  1  0  0  0
 53 54  1  0  0  0
 54 55  2  0  0  0
 54128  1  0  0  0
 55 57  1  0  0  0
 55129  1  0  0  0
 56 69  2  0  0  0
 57 58  2  0  0  0
 57130  1  0  0  0
 58131  1  0  0  0
 59 60  1  0  0  0
 59 61  1  0  0  0
 59 62  1  0  0  0
 60132  1  0  0  0
 60133  1  0  0  0
 60134  1  0  0  0
 61135  1  0  0  0
 61136  1  0  0  0
 61137  1  0  0  0
 62138  1  0  0  0
 62139  1  0  0  0
 62140  1  0  0  0
 63 65  1  0  0  0
 63141  1  0  0  0
 63142  1  0  0  0
 63143  1  0  0  0
 64144  1  0  0  0
 65145  1  0  0  0
 68 83  1  0  0  0
 71 73  2  0  0  0
 71 74  1  0  0  0
 71146  1  0  0  0
 72 73  1  0  0  0
 72 76  2  0  0  0
 72147  1  0  0  0
 73 79  1  0  0  0
 74 75  2  0  0  0
 74 77  1  0  0  0
 75 76  1  0  0  0
 75 80  1  0  0  0
 76 86  1  0  0  0
 77148  1  0  0  0
 77149  1  0  0  0
 77150  1  0  0  0
 78 79  1  0  0  0
 78151  1  0  0  0
 78152  1  0  0  0
 78153  1  0  0  0
 79154  1  0  0  0
 79155  1  0  0  0
 80 85  1  0  0  0
 80156  1  0  0  0
 80157  1  0  0  0
 81 82  1  0  0  0
 81 83  1  0  0  0
 81158  1  0  0  0
 81159  1  0  0  0
 82 84  1  0  0  0
 82160  1  0  0  0
 82161  1  0  0  0
 83162  1  0  0  0
 83163  1  0  0  0
 84 86  1  0  0  0
 84164  1  0  0  0
 84165  1  0  0  0
 85166  1  0  0  0
M  ISO  4   1 100  68 101  83 101  85 100
M  END
> <chiral flag>
0

> <version>
0

> <s_m_source_file>
/data/baiqing/PycharmProjects/Reinvent-master-3.2/result/LINK_invent/BTK/process_docking_weight1_custom_product_contain_oxygen_bond_distance_aromatic_linkinvent_7_9_3/rearranged_h_0133.sdf

> <i_m_source_file_index>
7

> <r_mmod_Potential_Energy-OPLS-2005>
6.27876329421997

> <r_mmod_Stretch_Energy-OPLS-2005>
73.6169357299805

> <r_mmod_Bend_Energy-OPLS-2005>
137.906723022461

> <r_mmod_Torsional_Energy-OPLS-2005>
217.483520507812

> <r_mmod_Improper_Torsional_Energy-OPLS-2005>
5.70459032058716

> <r_mmod_Van_der_Waal_Energy-OPLS-2005>
158.431732177734

> <r_mmod_Electrostatic_Energy-OPLS-2005>
-411.369201660156

> <r_mmod_Solvation_Energy-OPLS-2005>
-206.735198974609

> <b_mmod_Minimization_Converged-OPLS-2005>
0

> <r_mmod_RMS_Derivative-OPLS-2005>
3.8058443069458

$$$$
7
                    3D
 Structure written by MMmdl.
162170  0  0  1  0            999 V2000
  -30.7202  -14.4659   20.6206 C   0  0  0  0  0  0
  -30.4198  -12.3284   19.4095 C   0  0  0  0  0  0
  -29.4866  -12.5195   18.1982 C   0  0  0  0  0  0
  -28.0118  -12.3651   18.6167 C   0  0  0  0  0  0
  -27.6585  -13.2073   19.8711 C   0  0  2  0  0  0
  -28.6991  -12.9935   20.9912 C   0  0  0  0  0  0
  -25.2589  -13.8159   20.5683 C   0  0  0  0  0  0
  -24.1838  -13.0436   20.9163 C   0  0  0  0  0  0
  -24.6386  -11.6900   20.8720 C   0  0  0  0  0  0
  -23.9049  -10.4291   21.0393 C   0  0  0  0  0  0
  -24.3601   -9.4215   21.9175 C   0  0  0  0  0  0
  -23.6285   -8.2242   22.0752 C   0  0  0  0  0  0
  -22.4266   -8.0277   21.3541 C   0  0  0  0  0  0
  -21.9900   -9.0246   20.4640 C   0  0  0  0  0  0
  -22.7220  -10.2131   20.3050 C   0  0  0  0  0  0
  -21.6866   -6.0733   22.5272 C   0  0  0  0  0  0
  -21.4020   -6.5632   23.8204 C   0  0  0  0  0  0
  -21.3663   -5.6792   24.9165 C   0  0  0  0  0  0
  -21.6047   -4.3055   24.7216 C   0  0  0  0  0  0
  -21.8826   -3.8145   23.4337 C   0  0  0  0  0  0
  -21.9200   -4.6961   22.3401 C   0  0  0  0  0  0
  -22.7865  -13.5240   21.1845 C   0  0  0  0  0  0
  -22.1667   -4.2147   21.0979 F   0  0  0  0  0  0
  -21.5633   -3.4547   25.7729 F   0  0  0  0  0  0
  -30.0287  -13.3064   20.4391 N   0  0  0  0  0  0
  -26.3012  -12.9326   20.3357 N   0  0  0  0  0  0
  -25.9311  -11.6484   20.5736 N   0  0  0  0  0  0
  -22.0514  -12.8220   22.0396 N   0  0  0  0  0  0
  -25.4363  -15.1870   20.4104 N   0  0  0  0  0  0
  -31.8231  -14.6691   20.1047 O   0  0  0  0  0  0
  -21.6637   -6.8869   21.4232 O   0  0  0  0  0  0
  -22.3548  -14.5553   20.6721 O   0  0  0  0  0  0
  -24.6155  -31.8673   23.2087 C   0  0  0  0  0  0
  -25.9044  -32.4825   23.8384 C   0  0  1  0  0  0
  -27.2278  -27.4170   20.1039 C   0  0  0  0  0  0
  -25.5893  -33.8620   24.2320 N   0  0  0  0  0  0
  -23.4039  -30.4905   21.5503 C   0  0  2  0  0  0
  -24.8479  -28.9522   20.1176 C   0  0  0  0  0  0
  -22.7406  -29.4667   22.4995 C   0  0  0  0  0  0
  -18.0274  -28.1379   22.8498 C   0  0  0  0  0  0
  -24.1489  -36.7316   23.2640 C   0  0  0  0  0  0
  -25.9331  -30.8292   21.3618 C   0  0  0  0  0  0
  -26.0090  -29.4606   20.7125 C   0  0  0  0  0  0
  -27.2035  -28.7023   20.6965 C   0  0  0  0  0  0
  -26.0484  -26.9273   19.5001 C   0  0  0  0  0  0
  -24.8633  -27.6862   19.5076 C   0  0  0  0  0  0
  -23.6114  -29.8213   20.1656 C   0  0  0  0  0  0
  -25.4114  -36.3121   24.0337 C   0  0  1  0  0  0
  -20.5860  -28.3672   23.1317 C   0  0  2  0  0  0
  -20.6761  -26.9410   22.5418 C   0  0  0  0  0  0
  -19.5741  -26.6393   21.5211 C   0  0  0  0  0  0
  -18.1919  -26.7927   22.1623 C   0  0  0  0  0  0
  -19.1521  -28.8843   23.2897 C   0  0  0  0  0  0
  -18.9448  -30.1447   23.8916 C   0  0  0  0  0  0
  -17.6451  -30.6586   24.0573 C   0  0  0  0  0  0
  -25.9043  -34.9482   23.5129 C   0  0  0  0  0  0
  -16.5343  -29.9096   23.6325 C   0  0  0  0  0  0
  -16.7263  -28.6504   23.0358 C   0  0  0  0  0  0
  -26.4468  -31.6599   25.0709 C   0  0  0  0  0  0
  -25.3732  -31.3691   26.1454 C   0  0  0  0  0  0
  -27.0292  -30.3044   24.6071 C   0  0  0  0  0  0
  -27.6052  -32.4306   25.7468 C   0  0  0  0  0  0
  -27.5589  -37.1815   24.8462 C   0  0  0  0  0  0
  -21.4134  -29.3034   22.3726 N   0  0  0  0  0  0
  -26.4301  -37.3802   23.9412 N   0  0  0  0  0  0
  -24.6696  -31.0768   22.0992 N   0  0  0  0  0  0
  -23.4166  -28.8216   23.3051 O   0  0  0  0  0  0
  -28.4020  -26.6909   20.0870 O   0  0  0  0  0  0
  -26.5611  -34.8934   22.4695 O   0  0  0  0  0  0
  -23.5338  -32.1433   23.7467 O   0  0  0  0  0  0
  -30.5615  -19.9656   19.9204 C   0  0  0  0  0  0
  -28.6585  -19.8734   21.4239 C   0  0  0  0  0  0
  -30.9535  -18.6721   20.3359 C   0  0  0  0  0  0
  -29.0505  -18.5780   21.8389 C   0  0  0  0  0  0
  -29.4171  -20.5877   20.4694 C   0  0  0  0  0  0
  -30.2145  -17.9707   21.3139 C   0  0  0  0  0  0
  -30.0476  -24.6350   18.6791 C   0  0  0  0  0  0
  -30.7894  -25.4189   20.9363 C   0  0  0  0  0  0
  -29.0094  -22.0011   20.0216 C   0  0  0  0  0  0
  -30.7354  -16.6399   21.8760 C   0  0  0  0  0  0
  -29.7978  -23.1318   20.7385 C   0  0  0  0  0  0
  -28.3367  -25.2857   20.4189 C   0  0  0  0  0  0
  -29.7163  -24.6012   20.1853 C   0  0  0  0  0  0
  -30.1122  -15.4096   21.3639 N   0  0  0  0  0  0
  -31.4601  -12.4388   19.0997 H   0  0  0  0  0  0
  -30.3332  -11.3152   19.8051 H   0  0  0  0  0  0
  -29.7285  -11.7994   17.4156 H   0  0  0  0  0  0
  -29.6463  -13.5086   17.7649 H   0  0  0  0  0  0
  -27.8345  -11.3075   18.8178 H   0  0  0  0  0  0
  -27.3547  -12.6294   17.7871 H   0  0  0  0  0  0
  -27.7038  -14.2547   19.5716 H   0  0  0  0  0  0
  -28.6804  -11.9568   21.3321 H   0  0  0  0  0  0
  -28.4467  -13.5915   21.8677 H   0  0  0  0  0  0
  -25.2750   -9.5703   22.4732 H   0  0  0  0  0  0
  -24.0018   -7.4639   22.7467 H   0  0  0  0  0  0
  -21.0846   -8.8744   19.8930 H   0  0  0  0  0  0
  -22.3673  -10.9657   19.6151 H   0  0  0  0  0  0
  -21.2000   -7.6135   23.9702 H   0  0  0  0  0  0
  -21.1489   -6.0519   25.9069 H   0  0  0  0  0  0
  -22.0601   -2.7606   23.2836 H   0  0  0  0  0  0
  -22.4146  -11.9877   22.4751 H   0  0  0  0  0  0
  -21.1128  -13.1215   22.2619 H   0  0  0  0  0  0
  -24.6799  -15.8528   20.5232 H   0  0  0  0  0  0
  -26.3020  -15.6199   20.1130 H   0  0  0  0  0  0
  -26.7114  -32.5535   23.1144 H   0  0  0  0  0  0
  -25.0039  -33.9784   25.0461 H   0  0  0  0  0  0
  -22.6940  -31.3078   21.4104 H   0  0  0  0  0  0
  -23.3758  -35.9641   23.3303 H   0  0  0  0  0  0
  -24.3578  -36.8929   22.2054 H   0  0  0  0  0  0
  -23.7225  -37.6514   23.6649 H   0  0  0  0  0  0
  -26.0426  -31.5931   20.5910 H   0  0  0  0  0  0
  -26.8218  -30.8843   21.9788 H   0  0  0  0  0  0
  -28.1035  -29.0937   21.1498 H   0  0  0  0  0  0
  -26.0330  -25.9698   19.0015 H   0  0  0  0  0  0
  -23.9727  -27.2928   19.0363 H   0  0  0  0  0  0
  -23.7210  -30.5946   19.4043 H   0  0  0  0  0  0
  -22.7342  -29.2420   19.8715 H   0  0  0  0  0  0
  -25.1292  -36.1996   25.0829 H   0  0  0  0  0  0
  -20.9948  -28.3238   24.1436 H   0  0  0  0  0  0
  -20.5674  -26.2281   23.3603 H   0  0  0  0  0  0
  -21.6633  -26.7463   22.1211 H   0  0  0  0  0  0
  -19.6910  -25.6307   21.1240 H   0  0  0  0  0  0
  -19.6683  -27.3207   20.6745 H   0  0  0  0  0  0
  -17.4193  -26.6682   21.4019 H   0  0  0  0  0  0
  -18.0320  -26.0061   22.9012 H   0  0  0  0  0  0
  -19.7925  -30.7260   24.2293 H   0  0  0  0  0  0
  -17.5010  -31.6270   24.5172 H   0  0  0  0  0  0
  -15.5347  -30.3010   23.7638 H   0  0  0  0  0  0
  -15.8657  -28.0838   22.7063 H   0  0  0  0  0  0
  -24.5891  -30.7067   25.7769 H   0  0  0  0  0  0
  -24.8942  -32.2841   26.4947 H   0  0  0  0  0  0
  -25.8079  -30.8811   27.0184 H   0  0  0  0  0  0
  -26.2825  -29.6813   24.1137 H   0  0  0  0  0  0
  -27.4077  -29.7277   25.4519 H   0  0  0  0  0  0
  -27.8654  -30.4373   23.9204 H   0  0  0  0  0  0
  -27.2682  -33.3584   26.2100 H   0  0  0  0  0  0
  -28.3828  -32.6896   25.0271 H   0  0  0  0  0  0
  -28.0756  -31.8394   26.5331 H   0  0  0  0  0  0
  -28.2615  -38.0109   24.7521 H   0  0  0  0  0  0
  -28.1079  -36.2643   24.6279 H   0  0  0  0  0  0
  -27.2306  -37.1459   25.8863 H   0  0  0  0  0  0
  -20.9299  -29.8744   21.6937 H   0  0  0  0  0  0
  -26.0199  -38.2885   24.1402 H   0  0  0  0  0  0
  -31.1590  -20.4867   19.1844 H   0  0  0  0  0  0
  -27.7755  -20.3234   21.8572 H   0  0  0  0  0  0
  -31.8505  -18.2323   19.9216 H   0  0  0  0  0  0
  -28.4721  -18.0653   22.5948 H   0  0  0  0  0  0
  -31.0019  -24.1541   18.4664 H   0  0  0  0  0  0
  -30.1108  -25.6596   18.3091 H   0  0  0  0  0  0
  -29.2832  -24.1362   18.0840 H   0  0  0  0  0  0
  -31.7816  -24.9807   20.8248 H   0  0  0  0  0  0
  -30.5714  -25.4699   22.0039 H   0  0  0  0  0  0
  -30.8545  -26.4434   20.5694 H   0  0  0  0  0  0
  -27.9385  -22.1413   20.1710 H   0  0  0  0  0  0
  -29.1689  -22.0499   18.9452 H   0  0  0  0  0  0
  -30.5788  -16.6518   22.9558 H   0  0  0  0  0  0
  -31.8202  -16.6059   21.7576 H   0  0  0  0  0  0
  -30.8478  -22.8366   20.7074 H   0  0  0  0  0  0
  -29.5307  -23.1249   21.7963 H   0  0  0  0  0  0
  -28.0520  -25.1970   21.4685 H   0  0  0  0  0  0
  -27.5778  -24.7554   19.8463 H   0  0  0  0  0  0
  -29.1929  -15.1875   21.7140 H   0  0  0  0  0  0
  1 25  1  0  0  0
  1 30  2  0  0  0
  1 84  1  0  0  0
  2  3  1  0  0  0
  2 25  1  0  0  0
  2 85  1  0  0  0
  2 86  1  0  0  0
  3  4  1  0  0  0
  3 87  1  0  0  0
  3 88  1  0  0  0
  4  5  1  0  0  0
  4 89  1  0  0  0
  4 90  1  0  0  0
  5  6  1  0  0  0
  5 26  1  0  0  0
  5 91  1  0  0  0
  6 25  1  0  0  0
  6 92  1  0  0  0
  6 93  1  0  0  0
  7  8  2  0  0  0
  7 26  1  0  0  0
  7 29  1  0  0  0
  8  9  1  0  0  0
  8 22  1  0  0  0
  9 10  1  0  0  0
  9 27  2  0  0  0
 10 11  2  0  0  0
 10 15  1  0  0  0
 11 12  1  0  0  0
 11 94  1  0  0  0
 12 13  2  0  0  0
 12 95  1  0  0  0
 13 14  1  0  0  0
 13 31  1  0  0  0
 14 15  2  0  0  0
 14 96  1  0  0  0
 15 97  1  0  0  0
 16 17  2  0  0  0
 16 21  1  0  0  0
 16 31  1  0  0  0
 17 18  1  0  0  0
 17 98  1  0  0  0
 18 19  2  0  0  0
 18 99  1  0  0  0
 19 20  1  0  0  0
 19 24  1  0  0  0
 20 21  2  0  0  0
 20100  1  0  0  0
 21 23  1  0  0  0
 22 28  1  0  0  0
 22 32  2  0  0  0
 26 27  1  0  0  0
 28101  1  0  0  0
 28102  1  0  0  0
 29103  1  0  0  0
 29104  1  0  0  0
 33 34  1  0  0  0
 33 66  1  0  0  0
 33 70  2  0  0  0
 34 36  1  0  0  0
 34 59  1  0  0  0
 34105  1  0  0  0
 35 44  2  0  0  0
 35 45  1  0  0  0
 35 68  1  0  0  0
 36 56  1  0  0  0
 36106  1  0  0  0
 37 39  1  0  0  0
 37 47  1  0  0  0
 37 66  1  0  0  0
 37107  1  0  0  0
 38 43  2  0  0  0
 38 46  1  0  0  0
 38 47  1  0  0  0
 39 64  1  0  0  0
 39 67  2  0  0  0
 40 52  1  0  0  0
 40 53  2  0  0  0
 40 58  1  0  0  0
 41108  1  0  0  0
 41109  1  0  0  0
 41110  1  0  0  0
 41 48  1  0  0  0
 42 43  1  0  0  0
 42 66  1  0  0  0
 42111  1  0  0  0
 42112  1  0  0  0
 43 44  1  0  0  0
 44113  1  0  0  0
 45 46  2  0  0  0
 45114  1  0  0  0
 46115  1  0  0  0
 47116  1  0  0  0
 47117  1  0  0  0
 48 56  1  0  0  0
 48 65  1  0  0  0
 48118  1  0  0  0
 49 50  1  0  0  0
 49 53  1  0  0  0
 49 64  1  0  0  0
 49119  1  0  0  0
 50 51  1  0  0  0
 50120  1  0  0  0
 50121  1  0  0  0
 51 52  1  0  0  0
 51122  1  0  0  0
 51123  1  0  0  0
 52124  1  0  0  0
 52125  1  0  0  0
 53 54  1  0  0  0
 54 55  2  0  0  0
 54126  1  0  0  0
 55 57  1  0  0  0
 55127  1  0  0  0
 56 69  2  0  0  0
 57 58  2  0  0  0
 57128  1  0  0  0
 58129  1  0  0  0
 59 60  1  0  0  0
 59 61  1  0  0  0
 59 62  1  0  0  0
 60130  1  0  0  0
 60131  1  0  0  0
 60132  1  0  0  0
 61133  1  0  0  0
 61134  1  0  0  0
 61135  1  0  0  0
 62136  1  0  0  0
 62137  1  0  0  0
 62138  1  0  0  0
 63 65  1  0  0  0
 63139  1  0  0  0
 63140  1  0  0  0
 63141  1  0  0  0
 64142  1  0  0  0
 65143  1  0  0  0
 68 82  1  0  0  0
 71 73  2  0  0  0
 71 75  1  0  0  0
 71144  1  0  0  0
 72 74  1  0  0  0
 72 75  2  0  0  0
 72145  1  0  0  0
 73 76  1  0  0  0
 73146  1  0  0  0
 74 76  2  0  0  0
 74147  1  0  0  0
 75 79  1  0  0  0
 76 80  1  0  0  0
 77148  1  0  0  0
 77149  1  0  0  0
 77150  1  0  0  0
 77 83  1  0  0  0
 78 83  1  0  0  0
 78151  1  0  0  0
 78152  1  0  0  0
 78153  1  0  0  0
 79 81  1  0  0  0
 79154  1  0  0  0
 79155  1  0  0  0
 80 84  1  0  0  0
 80156  1  0  0  0
 80157  1  0  0  0
 81 83  1  0  0  0
 81158  1  0  0  0
 81159  1  0  0  0
 82 83  1  0  0  0
 82160  1  0  0  0
 82161  1  0  0  0
 84162  1  0  0  0
M  ISO  4   1 100  68 101  82 101  84 100
M  END
> <chiral flag>
0

> <version>
0

> <s_m_source_file>
/data/baiqing/PycharmProjects/Reinvent-master-3.2/result/LINK_invent/BTK/process_docking_weight1_custom_product_contain_oxygen_bond_distance_aromatic_linkinvent_7_9_3/rearranged_h_0133.sdf

> <i_m_source_file_index>
8

> <r_mmod_Potential_Energy-OPLS-2005>
-84.4648361206055

> <r_mmod_Stretch_Energy-OPLS-2005>
40.8066558837891

> <r_mmod_Bend_Energy-OPLS-2005>
102.399032592773

> <r_mmod_Torsional_Energy-OPLS-2005>
217.858154296875

> <r_mmod_Improper_Torsional_Energy-OPLS-2005>
2.34735298156738

> <r_mmod_Van_der_Waal_Energy-OPLS-2005>
149.268478393555

> <r_mmod_Electrostatic_Energy-OPLS-2005>
-413.354583740234

> <r_mmod_Solvation_Energy-OPLS-2005>
-196.157257080078

> <b_mmod_Minimization_Converged-OPLS-2005>
0

> <r_mmod_RMS_Derivative-OPLS-2005>
1.6178058385849

$$$$
8
                    3D
 Structure written by MMmdl.
165173  0  0  1  0            999 V2000
  -30.6198  -14.6710   20.4923 C   0  0  0  0  0  0
  -30.4401  -12.4091   19.4563 C   0  0  0  0  0  0
  -29.5201  -12.5018   18.2201 C   0  0  0  0  0  0
  -28.0428  -12.3244   18.6352 C   0  0  0  0  0  0
  -27.6480  -13.2153   19.8431 C   0  0  2  0  0  0
  -28.6891  -13.1180   20.9787 C   0  0  0  0  0  0
  -25.2583  -13.8158   20.5717 C   0  0  0  0  0  0
  -24.1838  -13.0444   20.9229 C   0  0  0  0  0  0
  -24.6394  -11.6908   20.8731 C   0  0  0  0  0  0
  -23.9063  -10.4299   21.0398 C   0  0  0  0  0  0
  -24.3611   -9.4213   21.9186 C   0  0  0  0  0  0
  -23.6285   -8.2255   22.0763 C   0  0  0  0  0  0
  -22.4262   -8.0302   21.3568 C   0  0  0  0  0  0
  -21.9896   -9.0265   20.4657 C   0  0  0  0  0  0
  -22.7230  -10.2139   20.3042 C   0  0  0  0  0  0
  -21.6848   -6.0754   22.5288 C   0  0  0  0  0  0
  -21.4013   -6.5634   23.8234 C   0  0  0  0  0  0
  -21.3651   -5.6773   24.9178 C   0  0  0  0  0  0
  -21.6027   -4.3039   24.7211 C   0  0  0  0  0  0
  -21.8814   -3.8157   23.4334 C   0  0  0  0  0  0
  -21.9208   -4.6991   22.3407 C   0  0  0  0  0  0
  -22.7866  -13.5279   21.1854 C   0  0  0  0  0  0
  -22.1674   -4.2186   21.0982 F   0  0  0  0  0  0
  -21.5632   -3.4509   25.7724 F   0  0  0  0  0  0
  -29.9961  -13.4558   20.3983 N   0  0  0  0  0  0
  -26.2964  -12.9333   20.3194 N   0  0  0  0  0  0
  -25.9299  -11.6487   20.5638 N   0  0  0  0  0  0
  -22.0443  -12.8289   22.0363 N   0  0  0  0  0  0
  -25.4320  -15.1879   20.4212 N   0  0  0  0  0  0
  -31.8146  -14.7974   20.2161 O   0  0  0  0  0  0
  -21.6623   -6.8899   21.4255 O   0  0  0  0  0  0
  -22.3601  -14.5617   20.6707 O   0  0  0  0  0  0
  -24.6302  -31.8584   23.2025 C   0  0  0  0  0  0
  -25.9136  -32.4793   23.8366 C   0  0  1  0  0  0
  -27.2177  -27.2814   20.1425 C   0  0  0  0  0  0
  -25.5940  -33.8578   24.2295 N   0  0  0  0  0  0
  -23.4254  -30.4825   21.5430 C   0  0  2  0  0  0
  -24.8744  -28.9333   20.1131 C   0  0  0  0  0  0
  -22.7487  -29.4613   22.4927 C   0  0  0  0  0  0
  -18.0283  -28.1429   22.8524 C   0  0  0  0  0  0
  -24.1441  -36.7219   23.2649 C   0  0  0  0  0  0
  -25.9702  -30.7823   21.3762 C   0  0  0  0  0  0
  -26.0435  -29.4041   20.7226 C   0  0  0  0  0  0
  -27.2206  -28.5915   20.7247 C   0  0  0  0  0  0
  -26.0284  -26.8791   19.4951 C   0  0  0  0  0  0
  -24.8700  -27.6775   19.4888 C   0  0  0  0  0  0
  -23.6463  -29.8195   20.1574 C   0  0  0  0  0  0
  -25.4079  -36.3089   24.0354 C   0  0  1  0  0  0
  -20.5884  -28.3725   23.1295 C   0  0  2  0  0  0
  -20.6751  -26.9437   22.5436 C   0  0  0  0  0  0
  -19.5719  -26.6435   21.5236 C   0  0  0  0  0  0
  -18.1905  -26.7986   22.1644 C   0  0  0  0  0  0
  -19.1543  -28.8888   23.2906 C   0  0  0  0  0  0
  -18.9474  -30.1489   23.8929 C   0  0  0  0  0  0
  -17.6484  -30.6637   24.0588 C   0  0  0  0  0  0
  -25.9039  -34.9465   23.5121 C   0  0  0  0  0  0
  -16.5372  -29.9150   23.6348 C   0  0  0  0  0  0
  -16.7268  -28.6548   23.0397 C   0  0  0  0  0  0
  -26.4508  -31.6618   25.0741 C   0  0  0  0  0  0
  -25.3742  -31.3766   26.1482 C   0  0  0  0  0  0
  -27.0337  -30.3049   24.6179 C   0  0  0  0  0  0
  -27.6048  -32.4375   25.7509 C   0  0  0  0  0  0
  -27.5552  -37.1750   24.8467 C   0  0  0  0  0  0
  -21.4194  -29.3069   22.3667 N   0  0  0  0  0  0
  -26.4237  -37.3813   23.9466 N   0  0  0  0  0  0
  -24.6941  -31.0585   22.0981 N   0  0  0  0  0  0
  -23.4191  -28.8161   23.3026 O   0  0  0  0  0  0
  -28.3191  -26.3992   20.1830 O   0  0  0  0  0  0
  -26.5607  -34.8924   22.4693 O   0  0  0  0  0  0
  -23.5457  -32.1418   23.7319 O   0  0  0  0  0  0
  -30.1209  -19.7283   22.3301 C   0  0  0  0  0  0
  -30.4100  -18.5684   23.0788 C   0  0  0  0  0  0
  -29.7151  -18.3256   20.3894 C   0  0  0  0  0  0
  -29.7783  -19.6575   20.9642 C   0  0  0  0  0  0
  -30.3705  -17.2765   22.5043 C   0  0  0  0  0  0
  -30.0142  -17.1172   21.1368 C   0  0  0  0  0  0
  -30.6737  -16.0822   23.4045 C   0  0  0  0  0  0
  -30.6022  -23.3465   17.9396 C   0  0  0  0  0  0
  -30.4862  -24.2875   20.8270 C   0  0  0  0  0  0
  -29.6510  -21.0122   20.1454 C   0  0  0  0  0  0
  -29.3094  -23.8772   18.5881 C   0  0  0  0  0  0
  -28.8495  -22.3161   20.6750 C   0  0  0  0  0  0
  -28.0754  -24.9480   20.4893 C   0  0  0  0  0  0
  -29.1853  -23.8262   20.1406 C   0  0  1  0  0  0
  -29.7924  -15.7673   20.6072 N   0  0  0  0  0  0
  -31.4887  -12.5213   19.1718 H   0  0  0  0  0  0
  -30.3563  -11.4249   19.9191 H   0  0  0  0  0  0
  -29.8021  -11.7464   17.4842 H   0  0  0  0  0  0
  -29.6578  -13.4685   17.7330 H   0  0  0  0  0  0
  -27.8985  -11.2757   18.8960 H   0  0  0  0  0  0
  -27.3889  -12.5244   17.7853 H   0  0  0  0  0  0
  -27.6533  -14.2381   19.4676 H   0  0  0  0  0  0
  -28.7069  -12.1132   21.4045 H   0  0  0  0  0  0
  -28.4282  -13.7941   21.7943 H   0  0  0  0  0  0
  -25.2757   -9.5697   22.4754 H   0  0  0  0  0  0
  -24.0013   -7.4631   22.7452 H   0  0  0  0  0  0
  -21.0863   -8.8758   19.8938 H   0  0  0  0  0  0
  -22.3711  -10.9659   19.6124 H   0  0  0  0  0  0
  -21.1977   -7.6135   23.9744 H   0  0  0  0  0  0
  -21.1471   -6.0492   25.9084 H   0  0  0  0  0  0
  -22.0603   -2.7628   23.2804 H   0  0  0  0  0  0
  -22.4000  -11.9938   22.4778 H   0  0  0  0  0  0
  -21.1044  -13.1329   22.2480 H   0  0  0  0  0  0
  -24.6683  -15.8425   20.5498 H   0  0  0  0  0  0
  -26.2707  -15.6272   20.0662 H   0  0  0  0  0  0
  -26.7204  -32.5429   23.1095 H   0  0  0  0  0  0
  -25.0089  -33.9721   25.0456 H   0  0  0  0  0  0
  -22.7214  -31.3049   21.3973 H   0  0  0  0  0  0
  -23.3761  -35.9490   23.3309 H   0  0  0  0  0  0
  -24.3537  -36.8850   22.2069 H   0  0  0  0  0  0
  -23.7098  -37.6379   23.6652 H   0  0  0  0  0  0
  -26.0997  -31.5437   20.6067 H   0  0  0  0  0  0
  -26.8525  -30.8368   22.0019 H   0  0  0  0  0  0
  -28.1126  -28.9502   21.2173 H   0  0  0  0  0  0
  -25.9673  -25.9309   18.9841 H   0  0  0  0  0  0
  -23.9765  -27.3121   19.0017 H   0  0  0  0  0  0
  -23.7735  -30.5989   19.4036 H   0  0  0  0  0  0
  -22.7660  -29.2548   19.8462 H   0  0  0  0  0  0
  -25.1240  -36.1940   25.0845 H   0  0  0  0  0  0
  -20.9985  -28.3324   24.1408 H   0  0  0  0  0  0
  -20.5660  -26.2342   23.3655 H   0  0  0  0  0  0
  -21.6625  -26.7469   22.1221 H   0  0  0  0  0  0
  -19.6850  -25.6351   21.1256 H   0  0  0  0  0  0
  -19.6647  -27.3260   20.6775 H   0  0  0  0  0  0
  -17.4175  -26.6798   21.4032 H   0  0  0  0  0  0
  -18.0244  -26.0134   22.9034 H   0  0  0  0  0  0
  -19.7954  -30.7295   24.2323 H   0  0  0  0  0  0
  -17.5043  -31.6307   24.5218 H   0  0  0  0  0  0
  -15.5375  -30.3076   23.7638 H   0  0  0  0  0  0
  -15.8663  -28.0860   22.7149 H   0  0  0  0  0  0
  -24.5923  -30.7092   25.7847 H   0  0  0  0  0  0
  -24.8914  -32.2934   26.4873 H   0  0  0  0  0  0
  -25.8125  -30.9005   27.0266 H   0  0  0  0  0  0
  -26.2908  -29.6832   24.1168 H   0  0  0  0  0  0
  -27.4015  -29.7288   25.4675 H   0  0  0  0  0  0
  -27.8795  -30.4343   23.9414 H   0  0  0  0  0  0
  -27.2643  -33.3703   26.2006 H   0  0  0  0  0  0
  -28.3892  -32.6915   25.0366 H   0  0  0  0  0  0
  -28.0654  -31.8553   26.5495 H   0  0  0  0  0  0
  -28.2561  -38.0061   24.7626 H   0  0  0  0  0  0
  -28.1060  -36.2610   24.6167 H   0  0  0  0  0  0
  -27.2286  -37.1279   25.8872 H   0  0  0  0  0  0
  -20.9395  -29.8827   21.6899 H   0  0  0  0  0  0
  -26.0103  -38.2860   24.1612 H   0  0  0  0  0  0
  -30.2020  -20.6891   22.8166 H   0  0  0  0  0  0
  -30.6672  -18.6845   24.1232 H   0  0  0  0  0  0
  -29.4453  -18.2223   19.3458 H   0  0  0  0  0  0
  -30.8510  -16.3854   24.4371 H   0  0  0  0  0  0
  -31.5706  -15.5613   23.0682 H   0  0  0  0  0  0
  -29.8459  -15.3714   23.4112 H   0  0  0  0  0  0
  -30.6020  -23.5691   16.8717 H   0  0  0  0  0  0
  -30.7102  -22.2699   18.0306 H   0  0  0  0  0  0
  -31.4922  -23.8157   18.3582 H   0  0  0  0  0  0
  -31.2974  -23.5727   20.6941 H   0  0  0  0  0  0
  -30.3358  -24.4038   21.9015 H   0  0  0  0  0  0
  -30.8180  -25.2516   20.4371 H   0  0  0  0  0  0
  -29.2753  -20.7646   19.1544 H   0  0  0  0  0  0
  -30.6878  -21.3106   20.0007 H   0  0  0  0  0  0
  -28.4472  -23.3788   18.1419 H   0  0  0  0  0  0
  -29.2267  -24.9175   18.2697 H   0  0  0  0  0  0
  -28.9566  -22.3447   21.7583 H   0  0  0  0  0  0
  -27.7880  -22.1232   20.5116 H   0  0  0  0  0  0
  -27.8492  -24.8888   21.5539 H   0  0  0  0  0  0
  -27.1644  -24.6032   20.0100 H   0  0  0  0  0  0
  -28.8219  -15.5346   20.4715 H   0  0  0  0  0  0
  1 25  1  0  0  0
  1 30  2  0  0  0
  1 85  1  0  0  0
  2  3  1  0  0  0
  2 25  1  0  0  0
  2 86  1  0  0  0
  2 87  1  0  0  0
  3  4  1  0  0  0
  3 88  1  0  0  0
  3 89  1  0  0  0
  4  5  1  0  0  0
  4 90  1  0  0  0
  4 91  1  0  0  0
  5  6  1  0  0  0
  5 26  1  0  0  0
  5 92  1  0  0  0
  6 25  1  0  0  0
  6 93  1  0  0  0
  6 94  1  0  0  0
  7  8  2  0  0  0
  7 26  1  0  0  0
  7 29  1  0  0  0
  8  9  1  0  0  0
  8 22  1  0  0  0
  9 10  1  0  0  0
  9 27  2  0  0  0
 10 11  2  0  0  0
 10 15  1  0  0  0
 11 12  1  0  0  0
 11 95  1  0  0  0
 12 13  2  0  0  0
 12 96  1  0  0  0
 13 14  1  0  0  0
 13 31  1  0  0  0
 14 15  2  0  0  0
 14 97  1  0  0  0
 15 98  1  0  0  0
 16 17  2  0  0  0
 16 21  1  0  0  0
 16 31  1  0  0  0
 17 18  1  0  0  0
 17 99  1  0  0  0
 18 19  2  0  0  0
 18100  1  0  0  0
 19 20  1  0  0  0
 19 24  1  0  0  0
 20 21  2  0  0  0
 20101  1  0  0  0
 21 23  1  0  0  0
 22 28  1  0  0  0
 22 32  2  0  0  0
 26 27  1  0  0  0
 28102  1  0  0  0
 28103  1  0  0  0
 29104  1  0  0  0
 29105  1  0  0  0
 33 34  1  0  0  0
 33 66  1  0  0  0
 33 70  2  0  0  0
 34 36  1  0  0  0
 34 59  1  0  0  0
 34106  1  0  0  0
 35 44  2  0  0  0
 35 45  1  0  0  0
 35 68  1  0  0  0
 36 56  1  0  0  0
 36107  1  0  0  0
 37 39  1  0  0  0
 37 47  1  0  0  0
 37 66  1  0  0  0
 37108  1  0  0  0
 38 43  2  0  0  0
 38 46  1  0  0  0
 38 47  1  0  0  0
 39 64  1  0  0  0
 39 67  2  0  0  0
 40 52  1  0  0  0
 40 53  2  0  0  0
 40 58  1  0  0  0
 41109  1  0  0  0
 41110  1  0  0  0
 41111  1  0  0  0
 41 48  1  0  0  0
 42 43  1  0  0  0
 42 66  1  0  0  0
 42112  1  0  0  0
 42113  1  0  0  0
 43 44  1  0  0  0
 44114  1  0  0  0
 45 46  2  0  0  0
 45115  1  0  0  0
 46116  1  0  0  0
 47117  1  0  0  0
 47118  1  0  0  0
 48 56  1  0  0  0
 48 65  1  0  0  0
 48119  1  0  0  0
 49 50  1  0  0  0
 49 53  1  0  0  0
 49 64  1  0  0  0
 49120  1  0  0  0
 50 51  1  0  0  0
 50121  1  0  0  0
 50122  1  0  0  0
 51 52  1  0  0  0
 51123  1  0  0  0
 51124  1  0  0  0
 52125  1  0  0  0
 52126  1  0  0  0
 53 54  1  0  0  0
 54 55  2  0  0  0
 54127  1  0  0  0
 55 57  1  0  0  0
 55128  1  0  0  0
 56 69  2  0  0  0
 57 58  2  0  0  0
 57129  1  0  0  0
 58130  1  0  0  0
 59 60  1  0  0  0
 59 61  1  0  0  0
 59 62  1  0  0  0
 60131  1  0  0  0
 60132  1  0  0  0
 60133  1  0  0  0
 61134  1  0  0  0
 61135  1  0  0  0
 61136  1  0  0  0
 62137  1  0  0  0
 62138  1  0  0  0
 62139  1  0  0  0
 63 65  1  0  0  0
 63140  1  0  0  0
 63141  1  0  0  0
 63142  1  0  0  0
 64143  1  0  0  0
 65144  1  0  0  0
 68 83  1  0  0  0
 71 72  2  0  0  0
 71 74  1  0  0  0
 71145  1  0  0  0
 72 75  1  0  0  0
 72146  1  0  0  0
 73 74  2  0  0  0
 73 76  1  0  0  0
 73147  1  0  0  0
 74 80  1  0  0  0
 75 76  2  0  0  0
 75 77  1  0  0  0
 76 85  1  0  0  0
 77148  1  0  0  0
 77149  1  0  0  0
 77150  1  0  0  0
 78 81  1  0  0  0
 78151  1  0  0  0
 78152  1  0  0  0
 78153  1  0  0  0
 79154  1  0  0  0
 79155  1  0  0  0
 79156  1  0  0  0
 79 84  1  0  0  0
 80 82  1  0  0  0
 80157  1  0  0  0
 80158  1  0  0  0
 81 84  1  0  0  0
 81159  1  0  0  0
 81160  1  0  0  0
 82 84  1  0  0  0
 82161  1  0  0  0
 82162  1  0  0  0
 83 84  1  0  0  0
 83163  1  0  0  0
 83164  1  0  0  0
 85165  1  0  0  0
M  ISO  4   1 100  68 101  83 101  85 100
M  END
> <chiral flag>
0

> <version>
0

> <s_m_source_file>
/data/baiqing/PycharmProjects/Reinvent-master-3.2/result/LINK_invent/BTK/process_docking_weight1_custom_product_contain_oxygen_bond_distance_aromatic_linkinvent_7_9_3/rearranged_h_0133.sdf

> <i_m_source_file_index>
9

> <r_mmod_Potential_Energy-OPLS-2005>
187.369903564453

> <r_mmod_Stretch_Energy-OPLS-2005>
114.146377563477

> <r_mmod_Bend_Energy-OPLS-2005>
160.93359375

> <r_mmod_Torsional_Energy-OPLS-2005>
275.969207763672

> <r_mmod_Improper_Torsional_Energy-OPLS-2005>
8.96278095245361

> <r_mmod_Van_der_Waal_Energy-OPLS-2005>
140.436157226562

> <r_mmod_Electrostatic_Energy-OPLS-2005>
-386.247467041016

> <r_mmod_Solvation_Energy-OPLS-2005>
-193.861801147461

> <b_mmod_Minimization_Converged-OPLS-2005>
0

> <r_mmod_RMS_Derivative-OPLS-2005>
4.30994844436646

$$$$
9
                    3D
 Structure written by MMmdl.
156164  0  0  1  0            999 V2000
  -30.7132  -14.5071   20.5831 C   0  0  0  0  0  0
  -30.4265  -12.3351   19.4403 C   0  0  0  0  0  0
  -29.5021  -12.4927   18.2158 C   0  0  0  0  0  0
  -28.0239  -12.3500   18.6249 C   0  0  0  0  0  0
  -27.6566  -13.2101   19.8654 C   0  0  2  0  0  0
  -28.6957  -13.0359   20.9947 C   0  0  0  0  0  0
  -25.2548  -13.8161   20.5673 C   0  0  0  0  0  0
  -24.1812  -13.0431   20.9175 C   0  0  0  0  0  0
  -24.6385  -11.6906   20.8740 C   0  0  0  0  0  0
  -23.9068  -10.4286   21.0404 C   0  0  0  0  0  0
  -24.3615   -9.4202   21.9179 C   0  0  0  0  0  0
  -23.6288   -8.2236   22.0753 C   0  0  0  0  0  0
  -22.4271   -8.0285   21.3537 C   0  0  0  0  0  0
  -21.9906   -9.0264   20.4659 C   0  0  0  0  0  0
  -22.7236  -10.2141   20.3065 C   0  0  0  0  0  0
  -21.6848   -6.0750   22.5281 C   0  0  0  0  0  0
  -21.4020   -6.5651   23.8218 C   0  0  0  0  0  0
  -21.3654   -5.6792   24.9177 C   0  0  0  0  0  0
  -21.6034   -4.3058   24.7220 C   0  0  0  0  0  0
  -21.8813   -3.8155   23.4340 C   0  0  0  0  0  0
  -21.9185   -4.6986   22.3402 C   0  0  0  0  0  0
  -22.7828  -13.5236   21.1818 C   0  0  0  0  0  0
  -22.1642   -4.2165   21.0975 F   0  0  0  0  0  0
  -21.5628   -3.4532   25.7736 F   0  0  0  0  0  0
  -30.0250  -13.3391   20.4391 N   0  0  0  0  0  0
  -26.2990  -12.9349   20.3317 N   0  0  0  0  0  0
  -25.9311  -11.6507   20.5746 N   0  0  0  0  0  0
  -22.0445  -12.8281   22.0385 N   0  0  0  0  0  0
  -25.4219  -15.1887   20.4125 N   0  0  0  0  0  0
  -31.8406  -14.6712   20.1128 O   0  0  0  0  0  0
  -21.6629   -6.8890   21.4237 O   0  0  0  0  0  0
  -22.3523  -14.5532   20.6646 O   0  0  0  0  0  0
  -24.6159  -31.8663   23.2089 C   0  0  0  0  0  0
  -25.9042  -32.4815   23.8381 C   0  0  1  0  0  0
  -27.2310  -27.3995   20.1052 C   0  0  0  0  0  0
  -25.5909  -33.8614   24.2328 N   0  0  0  0  0  0
  -23.4039  -30.4906   21.5500 C   0  0  2  0  0  0
  -24.8508  -28.9589   20.1105 C   0  0  0  0  0  0
  -22.7410  -29.4660   22.4975 C   0  0  0  0  0  0
  -18.0273  -28.1414   22.8469 C   0  0  0  0  0  0
  -24.1486  -36.7325   23.2636 C   0  0  0  0  0  0
  -25.9332  -30.8252   21.3604 C   0  0  0  0  0  0
  -26.0122  -29.4537   20.7163 C   0  0  0  0  0  0
  -27.2012  -28.6802   20.7171 C   0  0  0  0  0  0
  -26.0526  -26.9486   19.4607 C   0  0  0  0  0  0
  -24.8695  -27.7077   19.4764 C   0  0  0  0  0  0
  -23.6118  -29.8259   20.1630 C   0  0  0  0  0  0
  -25.4101  -36.3101   24.0333 C   0  0  1  0  0  0
  -20.5863  -28.3694   23.1319 C   0  0  2  0  0  0
  -20.6784  -26.9432   22.5427 C   0  0  0  0  0  0
  -19.5762  -26.6408   21.5225 C   0  0  0  0  0  0
  -18.1928  -26.7957   22.1615 C   0  0  0  0  0  0
  -19.1522  -28.8868   23.2889 C   0  0  0  0  0  0
  -18.9448  -30.1478   23.8890 C   0  0  0  0  0  0
  -17.6450  -30.6601   24.0581 C   0  0  0  0  0  0
  -25.9033  -34.9469   23.5127 C   0  0  0  0  0  0
  -16.5341  -29.9108   23.6334 C   0  0  0  0  0  0
  -16.7264  -28.6546   23.0311 C   0  0  0  0  0  0
  -26.4494  -31.6570   25.0678 C   0  0  0  0  0  0
  -25.3818  -31.3624   26.1463 C   0  0  0  0  0  0
  -27.0307  -30.3024   24.5993 C   0  0  0  0  0  0
  -27.6076  -32.4277   25.7438 C   0  0  0  0  0  0
  -27.5571  -37.1811   24.8468 C   0  0  0  0  0  0
  -21.4138  -29.3046   22.3710 N   0  0  0  0  0  0
  -26.4284  -37.3785   23.9413 N   0  0  0  0  0  0
  -24.6698  -31.0754   22.0996 N   0  0  0  0  0  0
  -23.4179  -28.8214   23.3029 O   0  0  0  0  0  0
  -28.3809  -26.6168   20.1628 O   0  0  0  0  0  0
  -26.5579  -34.8921   22.4676 O   0  0  0  0  0  0
  -23.5346  -32.1420   23.7488 O   0  0  0  0  0  0
  -28.9128  -19.6301   19.5948 C   0  0  0  0  0  0
  -29.1085  -18.2186   19.7278 C   0  0  0  0  0  0
  -29.6832  -20.2527   20.5375 C   0  0  0  0  0  0
  -29.9671  -18.0538   20.7862 C   0  0  0  0  0  0
  -28.5015  -17.1454   18.8647 C   0  0  0  0  0  0
  -29.9698  -21.7050   20.8833 C   0  0  0  0  0  0
  -30.6073  -16.8640   21.4838 C   0  0  0  0  0  0
  -29.0604  -22.7552   20.1788 C   0  0  0  0  0  0
  -29.3089  -24.2569   20.5287 C   0  0  0  0  0  0
  -28.2286  -25.1947   19.9161 C   0  0  0  0  0  0
  -30.0549  -15.5246   21.1804 N   0  0  0  0  0  0
  -30.3271  -19.2911   21.2716 O   0  0  0  0  0  0
  -31.4684  -12.4415   19.1366 H   0  0  0  0  0  0
  -30.3413  -11.3332   19.8644 H   0  0  0  0  0  0
  -29.7575  -11.7452   17.4631 H   0  0  0  0  0  0
  -29.6646  -13.4655   17.7486 H   0  0  0  0  0  0
  -27.8420  -11.2972   18.8419 H   0  0  0  0  0  0
  -27.3739  -12.5999   17.7845 H   0  0  0  0  0  0
  -27.6908  -14.2489   19.5397 H   0  0  0  0  0  0
  -28.6753  -12.0148   21.3806 H   0  0  0  0  0  0
  -28.4449  -13.6717   21.8446 H   0  0  0  0  0  0
  -25.2774   -9.5671   22.4749 H   0  0  0  0  0  0
  -23.9999   -7.4628   22.7479 H   0  0  0  0  0  0
  -21.0824   -8.8801   19.8980 H   0  0  0  0  0  0
  -22.3698  -10.9683   19.6177 H   0  0  0  0  0  0
  -21.2026   -7.6159   23.9731 H   0  0  0  0  0  0
  -21.1473   -6.0521   25.9071 H   0  0  0  0  0  0
  -22.0603   -2.7628   23.2833 H   0  0  0  0  0  0
  -22.4027  -11.9980   22.4868 H   0  0  0  0  0  0
  -21.1058  -13.1338   22.2529 H   0  0  0  0  0  0
  -24.6536  -15.8401   20.5319 H   0  0  0  0  0  0
  -26.2766  -15.6359   20.1102 H   0  0  0  0  0  0
  -26.7105  -32.5533   23.1136 H   0  0  0  0  0  0
  -25.0094  -33.9785   25.0498 H   0  0  0  0  0  0
  -22.6925  -31.3079   21.4138 H   0  0  0  0  0  0
  -23.3728  -35.9681   23.3307 H   0  0  0  0  0  0
  -24.3588  -36.8932   22.2053 H   0  0  0  0  0  0
  -23.7269  -37.6544   23.6649 H   0  0  0  0  0  0
  -26.0299  -31.5800   20.5794 H   0  0  0  0  0  0
  -26.8302  -30.8995   21.9623 H   0  0  0  0  0  0
  -28.0860  -29.0520   21.2147 H   0  0  0  0  0  0
  -26.0208  -26.0033   18.9388 H   0  0  0  0  0  0
  -23.9842  -27.3260   18.9861 H   0  0  0  0  0  0
  -23.7141  -30.6036   19.4057 H   0  0  0  0  0  0
  -22.7368  -29.2435   19.8674 H   0  0  0  0  0  0
  -25.1274  -36.1957   25.0823 H   0  0  0  0  0  0
  -20.9949  -28.3289   24.1447 H   0  0  0  0  0  0
  -20.5735  -26.2296   23.3614 H   0  0  0  0  0  0
  -21.6652  -26.7513   22.1195 H   0  0  0  0  0  0
  -19.6939  -25.6326   21.1242 H   0  0  0  0  0  0
  -19.6725  -27.3233   20.6771 H   0  0  0  0  0  0
  -17.4214  -26.6691   21.4009 H   0  0  0  0  0  0
  -18.0328  -26.0120   22.9030 H   0  0  0  0  0  0
  -19.7924  -30.7306   24.2243 H   0  0  0  0  0  0
  -17.5005  -31.6276   24.5204 H   0  0  0  0  0  0
  -15.5344  -30.3006   23.7687 H   0  0  0  0  0  0
  -15.8660  -28.0901   22.6975 H   0  0  0  0  0  0
  -24.6022  -30.6921   25.7824 H   0  0  0  0  0  0
  -24.8986  -32.2752   26.4955 H   0  0  0  0  0  0
  -25.8258  -30.8794   27.0182 H   0  0  0  0  0  0
  -26.2796  -29.6769   24.1152 H   0  0  0  0  0  0
  -27.4226  -29.7255   25.4380 H   0  0  0  0  0  0
  -27.8570  -30.4357   23.9005 H   0  0  0  0  0  0
  -27.2710  -33.3581   26.2019 H   0  0  0  0  0  0
  -28.3887  -32.6821   25.0265 H   0  0  0  0  0  0
  -28.0739  -31.8394   26.5351 H   0  0  0  0  0  0
  -28.2589  -38.0102   24.7480 H   0  0  0  0  0  0
  -28.1055  -36.2629   24.6317 H   0  0  0  0  0  0
  -27.2291  -37.1495   25.8871 H   0  0  0  0  0  0
  -20.9305  -29.8726   21.6888 H   0  0  0  0  0  0
  -26.0162  -38.2854   24.1428 H   0  0  0  0  0  0
  -28.2935  -20.1380   18.8676 H   0  0  0  0  0  0
  -28.0490  -17.5682   17.9679 H   0  0  0  0  0  0
  -27.7305  -16.6124   19.4190 H   0  0  0  0  0  0
  -29.2626  -16.4308   18.5493 H   0  0  0  0  0  0
  -31.0095  -21.9200   20.6355 H   0  0  0  0  0  0
  -29.8971  -21.8334   21.9640 H   0  0  0  0  0  0
  -30.5166  -17.0032   22.5617 H   0  0  0  0  0  0
  -31.6798  -16.8846   21.2903 H   0  0  0  0  0  0
  -28.0265  -22.5113   20.4209 H   0  0  0  0  0  0
  -29.1499  -22.6382   19.0985 H   0  0  0  0  0  0
  -30.3012  -24.5572   20.1882 H   0  0  0  0  0  0
  -29.2998  -24.3751   21.6138 H   0  0  0  0  0  0
  -27.2795  -24.8472   20.3264 H   0  0  0  0  0  0
  -28.1891  -25.0414   18.8364 H   0  0  0  0  0  0
  -29.1194  -15.3390   21.5049 H   0  0  0  0  0  0
  1 25  1  0  0  0
  1 30  2  0  0  0
  1 81  1  0  0  0
  2  3  1  0  0  0
  2 25  1  0  0  0
  2 83  1  0  0  0
  2 84  1  0  0  0
  3  4  1  0  0  0
  3 85  1  0  0  0
  3 86  1  0  0  0
  4  5  1  0  0  0
  4 87  1  0  0  0
  4 88  1  0  0  0
  5  6  1  0  0  0
  5 26  1  0  0  0
  5 89  1  0  0  0
  6 25  1  0  0  0
  6 90  1  0  0  0
  6 91  1  0  0  0
  7  8  2  0  0  0
  7 26  1  0  0  0
  7 29  1  0  0  0
  8  9  1  0  0  0
  8 22  1  0  0  0
  9 10  1  0  0  0
  9 27  2  0  0  0
 10 11  2  0  0  0
 10 15  1  0  0  0
 11 12  1  0  0  0
 11 92  1  0  0  0
 12 13  2  0  0  0
 12 93  1  0  0  0
 13 14  1  0  0  0
 13 31  1  0  0  0
 14 15  2  0  0  0
 14 94  1  0  0  0
 15 95  1  0  0  0
 16 17  2  0  0  0
 16 21  1  0  0  0
 16 31  1  0  0  0
 17 18  1  0  0  0
 17 96  1  0  0  0
 18 19  2  0  0  0
 18 97  1  0  0  0
 19 20  1  0  0  0
 19 24  1  0  0  0
 20 21  2  0  0  0
 20 98  1  0  0  0
 21 23  1  0  0  0
 22 28  1  0  0  0
 22 32  2  0  0  0
 26 27  1  0  0  0
 28 99  1  0  0  0
 28100  1  0  0  0
 29101  1  0  0  0
 29102  1  0  0  0
 33 34  1  0  0  0
 33 66  1  0  0  0
 33 70  2  0  0  0
 34 36  1  0  0  0
 34 59  1  0  0  0
 34103  1  0  0  0
 35 44  2  0  0  0
 35 45  1  0  0  0
 35 68  1  0  0  0
 36 56  1  0  0  0
 36104  1  0  0  0
 37 39  1  0  0  0
 37 47  1  0  0  0
 37 66  1  0  0  0
 37105  1  0  0  0
 38 43  2  0  0  0
 38 46  1  0  0  0
 38 47  1  0  0  0
 39 64  1  0  0  0
 39 67  2  0  0  0
 40 52  1  0  0  0
 40 53  2  0  0  0
 40 58  1  0  0  0
 41106  1  0  0  0
 41107  1  0  0  0
 41108  1  0  0  0
 41 48  1  0  0  0
 42 43  1  0  0  0
 42 66  1  0  0  0
 42109  1  0  0  0
 42110  1  0  0  0
 43 44  1  0  0  0
 44111  1  0  0  0
 45 46  2  0  0  0
 45112  1  0  0  0
 46113  1  0  0  0
 47114  1  0  0  0
 47115  1  0  0  0
 48 56  1  0  0  0
 48 65  1  0  0  0
 48116  1  0  0  0
 49 50  1  0  0  0
 49 53  1  0  0  0
 49 64  1  0  0  0
 49117  1  0  0  0
 50 51  1  0  0  0
 50118  1  0  0  0
 50119  1  0  0  0
 51 52  1  0  0  0
 51120  1  0  0  0
 51121  1  0  0  0
 52122  1  0  0  0
 52123  1  0  0  0
 53 54  1  0  0  0
 54 55  2  0  0  0
 54124  1  0  0  0
 55 57  1  0  0  0
 55125  1  0  0  0
 56 69  2  0  0  0
 57 58  2  0  0  0
 57126  1  0  0  0
 58127  1  0  0  0
 59 60  1  0  0  0
 59 61  1  0  0  0
 59 62  1  0  0  0
 60128  1  0  0  0
 60129  1  0  0  0
 60130  1  0  0  0
 61131  1  0  0  0
 61132  1  0  0  0
 61133  1  0  0  0
 62134  1  0  0  0
 62135  1  0  0  0
 62136  1  0  0  0
 63 65  1  0  0  0
 63137  1  0  0  0
 63138  1  0  0  0
 63139  1  0  0  0
 64140  1  0  0  0
 65141  1  0  0  0
 68 80  1  0  0  0
 71 72  1  0  0  0
 71 73  2  0  0  0
 71142  1  0  0  0
 72 74  2  0  0  0
 72 75  1  0  0  0
 73 76  1  0  0  0
 73 82  1  0  0  0
 74 77  1  0  0  0
 74 82  1  0  0  0
 75143  1  0  0  0
 75144  1  0  0  0
 75145  1  0  0  0
 76 78  1  0  0  0
 76146  1  0  0  0
 76147  1  0  0  0
 77 81  1  0  0  0
 77148  1  0  0  0
 77149  1  0  0  0
 78 79  1  0  0  0
 78150  1  0  0  0
 78151  1  0  0  0
 79 80  1  0  0  0
 79152  1  0  0  0
 79153  1  0  0  0
 80154  1  0  0  0
 80155  1  0  0  0
 81156  1  0  0  0
M  ISO  4   1 100  68 101  80 101  81 100
M  END
> <chiral flag>
0

> <version>
0

> <s_m_source_file>
/data/baiqing/PycharmProjects/Reinvent-master-3.2/result/LINK_invent/BTK/process_docking_weight1_custom_product_contain_oxygen_bond_distance_aromatic_linkinvent_7_9_3/rearranged_h_0133.sdf

> <i_m_source_file_index>
10

> <r_mmod_Potential_Energy-OPLS-2005>
-146.195541381836

> <r_mmod_Stretch_Energy-OPLS-2005>
42.0961380004883

> <r_mmod_Bend_Energy-OPLS-2005>
101.013877868652

> <r_mmod_Torsional_Energy-OPLS-2005>
186.144790649414

> <r_mmod_Improper_Torsional_Energy-OPLS-2005>
2.41737222671509

> <r_mmod_Van_der_Waal_Energy-OPLS-2005>
124.748138427734

> <r_mmod_Electrostatic_Energy-OPLS-2005>
-415.275543212891

> <r_mmod_Solvation_Energy-OPLS-2005>
-207.495254516602

> <b_mmod_Minimization_Converged-OPLS-2005>
0

> <r_mmod_RMS_Derivative-OPLS-2005>
2.83437585830688

$$$$
10
                    3D
 Structure written by MMmdl.
168176  0  0  1  0            999 V2000
  -30.7165  -14.4005   20.6220 C   0  0  0  0  0  0
  -30.4164  -12.2915   19.3712 C   0  0  0  0  0  0
  -29.4773  -12.5510   18.1758 C   0  0  0  0  0  0
  -27.9981  -12.4248   18.5906 C   0  0  0  0  0  0
  -27.6712  -13.2060   19.8900 C   0  0  2  0  0  0
  -28.7191  -12.9013   20.9848 C   0  0  0  0  0  0
  -25.2645  -13.8168   20.5712 C   0  0  0  0  0  0
  -24.1871  -13.0439   20.9160 C   0  0  0  0  0  0
  -24.6417  -11.6911   20.8715 C   0  0  0  0  0  0
  -23.9081  -10.4309   21.0413 C   0  0  0  0  0  0
  -24.3633   -9.4230   21.9196 C   0  0  0  0  0  0
  -23.6309   -8.2268   22.0775 C   0  0  0  0  0  0
  -22.4302   -8.0287   21.3554 C   0  0  0  0  0  0
  -21.9929   -9.0257   20.4667 C   0  0  0  0  0  0
  -22.7254  -10.2139   20.3082 C   0  0  0  0  0  0
  -21.6861   -6.0752   22.5288 C   0  0  0  0  0  0
  -21.4020   -6.5666   23.8216 C   0  0  0  0  0  0
  -21.3653   -5.6823   24.9178 C   0  0  0  0  0  0
  -21.6034   -4.3078   24.7237 C   0  0  0  0  0  0
  -21.8828   -3.8172   23.4361 C   0  0  0  0  0  0
  -21.9210   -4.6986   22.3412 C   0  0  0  0  0  0
  -22.7880  -13.5218   21.1810 C   0  0  0  0  0  0
  -22.1677   -4.2168   21.0980 F   0  0  0  0  0  0
  -21.5618   -3.4549   25.7743 F   0  0  0  0  0  0
  -30.0452  -13.2306   20.4406 N   0  0  0  0  0  0
  -26.3086  -12.9329   20.3455 N   0  0  0  0  0  0
  -25.9337  -11.6478   20.5739 N   0  0  0  0  0  0
  -22.0520  -12.8205   22.0383 N   0  0  0  0  0  0
  -25.4400  -15.1880   20.4120 N   0  0  0  0  0  0
  -31.8038  -14.6182   20.0753 O   0  0  0  0  0  0
  -21.6658   -6.8888   21.4247 O   0  0  0  0  0  0
  -22.3549  -14.5526   20.6684 O   0  0  0  0  0  0
  -24.6097  -31.8725   23.2131 C   0  0  0  0  0  0
  -25.9004  -32.4864   23.8415 C   0  0  1  0  0  0
  -27.2404  -27.4696   20.0891 C   0  0  0  0  0  0
  -25.5884  -33.8660   24.2359 N   0  0  0  0  0  0
  -23.3941  -30.4938   21.5551 C   0  0  2  0  0  0
  -24.8400  -28.9637   20.1161 C   0  0  0  0  0  0
  -22.7383  -29.4677   22.5043 C   0  0  0  0  0  0
  -18.0265  -28.1383   22.8497 C   0  0  0  0  0  0
  -24.1493  -36.7333   23.2634 C   0  0  0  0  0  0
  -25.9155  -30.8500   21.3566 C   0  0  0  0  0  0
  -25.9944  -29.4830   20.7110 C   0  0  0  0  0  0
  -27.1928  -28.7400   20.7001 C   0  0  0  0  0  0
  -26.0658  -26.9547   19.4918 C   0  0  0  0  0  0
  -24.8672  -27.6967   19.5062 C   0  0  0  0  0  0
  -23.5987  -29.8251   20.1686 C   0  0  0  0  0  0
  -25.4114  -36.3139   24.0338 C   0  0  1  0  0  0
  -20.5855  -28.3657   23.1368 C   0  0  2  0  0  0
  -20.6775  -26.9410   22.5445 C   0  0  0  0  0  0
  -19.5757  -26.6389   21.5240 C   0  0  0  0  0  0
  -18.1919  -26.7946   22.1621 C   0  0  0  0  0  0
  -19.1507  -28.8844   23.2925 C   0  0  0  0  0  0
  -18.9435  -30.1454   23.8922 C   0  0  0  0  0  0
  -17.6430  -30.6597   24.0574 C   0  0  0  0  0  0
  -25.9033  -34.9502   23.5141 C   0  0  0  0  0  0
  -16.5329  -29.9091   23.6335 C   0  0  0  0  0  0
  -16.7254  -28.6516   23.0356 C   0  0  0  0  0  0
  -26.4444  -31.6614   25.0712 C   0  0  0  0  0  0
  -25.3713  -31.3672   26.1448 C   0  0  0  0  0  0
  -27.0279  -30.3094   24.6009 C   0  0  0  0  0  0
  -27.6039  -32.4301   25.7468 C   0  0  0  0  0  0
  -27.5600  -37.1813   24.8443 C   0  0  0  0  0  0
  -21.4121  -29.3023   22.3781 N   0  0  0  0  0  0
  -26.4307  -37.3816   23.9404 N   0  0  0  0  0  0
  -24.6580  -31.0865   22.1017 N   0  0  0  0  0  0
  -23.4182  -28.8226   23.3082 O   0  0  0  0  0  0
  -28.4484  -26.8034   20.0999 O   0  0  0  0  0  0
  -26.5592  -34.8931   22.4704 O   0  0  0  0  0  0
  -23.5302  -32.1450   23.7577 O   0  0  0  0  0  0
  -30.4447  -21.8862   20.3898 C   0  0  0  0  0  0
  -31.0021  -21.4520   21.6085 C   0  0  0  0  0  0
  -29.4544  -19.6842   20.0609 C   0  0  0  0  0  0
  -29.6561  -21.0108   19.6182 C   0  0  0  0  0  0
  -30.8041  -20.1251   22.0472 C   0  0  0  0  0  0
  -30.0397  -19.2289   21.2661 C   0  0  0  0  0  0
  -28.5810  -25.1163   18.3576 C   0  0  0  0  0  0
  -28.3648  -23.9313   17.7463 C   0  0  0  0  0  0
  -31.4211  -19.6551   23.3525 C   0  0  0  0  0  0
  -28.2715  -25.0925   15.4361 C   0  0  0  0  0  0
  -29.0375  -21.4975   18.3149 C   0  0  0  0  0  0
  -28.4848  -25.4026   19.8436 C   0  0  0  0  0  0
  -28.4330  -23.7792   16.2258 C   0  0  0  0  0  0
  -28.0271  -22.6514   18.5120 C   0  0  0  0  0  0
  -30.1104  -15.5373   21.4681 C   0  0  0  0  0  0
  -30.2854  -16.9213   20.8106 C   0  0  0  0  0  0
  -29.8670  -17.9408   21.7162 O   0  0  0  0  0  0
  -31.4566  -12.3915   19.0551 H   0  0  0  0  0  0
  -30.3079  -11.2600   19.7099 H   0  0  0  0  0  0
  -29.6888  -11.8534   17.3647 H   0  0  0  0  0  0
  -29.6645  -13.5498   17.7758 H   0  0  0  0  0  0
  -27.7767  -11.3647   18.7194 H   0  0  0  0  0  0
  -27.3589  -12.7800   17.7801 H   0  0  0  0  0  0
  -27.7412  -14.2683   19.6522 H   0  0  0  0  0  0
  -28.6895  -11.8393   21.2365 H   0  0  0  0  0  0
  -28.4916  -13.4030   21.9229 H   0  0  0  0  0  0
  -25.2790   -9.5688   22.4746 H   0  0  0  0  0  0
  -24.0044   -7.4662   22.7477 H   0  0  0  0  0  0
  -21.0885   -8.8779   19.8940 H   0  0  0  0  0  0
  -22.3749  -10.9679   19.6188 H   0  0  0  0  0  0
  -21.2013   -7.6169   23.9720 H   0  0  0  0  0  0
  -21.1452   -6.0547   25.9073 H   0  0  0  0  0  0
  -22.0611   -2.7633   23.2859 H   0  0  0  0  0  0
  -22.4128  -11.9879   22.4794 H   0  0  0  0  0  0
  -21.1108  -13.1206   22.2522 H   0  0  0  0  0  0
  -24.6776  -15.8474   20.5229 H   0  0  0  0  0  0
  -26.3013  -15.6303   20.1114 H   0  0  0  0  0  0
  -26.7086  -32.5595   23.1195 H   0  0  0  0  0  0
  -25.0034  -33.9842   25.0498 H   0  0  0  0  0  0
  -22.6765  -31.3076   21.4209 H   0  0  0  0  0  0
  -23.3773  -35.9647   23.3269 H   0  0  0  0  0  0
  -24.3581  -36.8983   22.2052 H   0  0  0  0  0  0
  -23.7220  -37.6510   23.6674 H   0  0  0  0  0  0
  -26.0039  -31.6138   20.5823 H   0  0  0  0  0  0
  -26.8125  -30.9187   21.9600 H   0  0  0  0  0  0
  -28.0837  -29.1427   21.1628 H   0  0  0  0  0  0
  -26.0592  -25.9943   18.9987 H   0  0  0  0  0  0
  -23.9804  -27.2958   19.0347 H   0  0  0  0  0  0
  -23.6952  -30.6000   19.4069 H   0  0  0  0  0  0
  -22.7249  -29.2381   19.8804 H   0  0  0  0  0  0
  -25.1298  -36.2013   25.0832 H   0  0  0  0  0  0
  -20.9906  -28.3228   24.1507 H   0  0  0  0  0  0
  -20.5740  -26.2259   23.3617 H   0  0  0  0  0  0
  -21.6644  -26.7511   22.1213 H   0  0  0  0  0  0
  -19.6923  -25.6298   21.1277 H   0  0  0  0  0  0
  -19.6733  -27.3212   20.6787 H   0  0  0  0  0  0
  -17.4220  -26.6741   21.3988 H   0  0  0  0  0  0
  -18.0271  -26.0077   22.8997 H   0  0  0  0  0  0
  -19.7896  -30.7280   24.2310 H   0  0  0  0  0  0
  -17.4975  -31.6280   24.5160 H   0  0  0  0  0  0
  -15.5329  -30.2999   23.7631 H   0  0  0  0  0  0
  -15.8660  -28.0840   22.7050 H   0  0  0  0  0  0
  -24.5877  -30.7061   25.7729 H   0  0  0  0  0  0
  -24.8915  -32.2818   26.4950 H   0  0  0  0  0  0
  -25.8046  -30.8758   27.0174 H   0  0  0  0  0  0
  -26.2814  -29.6856   24.1088 H   0  0  0  0  0  0
  -27.4131  -29.7312   25.4417 H   0  0  0  0  0  0
  -27.8598  -30.4465   23.9094 H   0  0  0  0  0  0
  -27.2684  -33.3584   26.2102 H   0  0  0  0  0  0
  -28.3812  -32.6883   25.0264 H   0  0  0  0  0  0
  -28.0744  -31.8381   26.5323 H   0  0  0  0  0  0
  -28.2569  -38.0158   24.7570 H   0  0  0  0  0  0
  -28.1144  -36.2693   24.6182 H   0  0  0  0  0  0
  -27.2318  -37.1357   25.8839 H   0  0  0  0  0  0
  -20.9275  -29.8707   21.6977 H   0  0  0  0  0  0
  -26.0203  -38.2893   24.1426 H   0  0  0  0  0  0
  -30.6149  -22.8979   20.0490 H   0  0  0  0  0  0
  -31.5882  -22.1436   22.1984 H   0  0  0  0  0  0
  -28.8428  -19.0164   19.4706 H   0  0  0  0  0  0
  -28.8529  -25.9787   17.7686 H   0  0  0  0  0  0
  -32.1203  -20.3878   23.7557 H   0  0  0  0  0  0
  -31.9575  -18.7152   23.2077 H   0  0  0  0  0  0
  -30.6390  -19.4893   24.0943 H   0  0  0  0  0  0
  -28.1147  -24.8967   14.3763 H   0  0  0  0  0  0
  -29.1574  -25.7250   15.5186 H   0  0  0  0  0  0
  -27.4083  -25.6634   15.7860 H   0  0  0  0  0  0
  -28.5359  -20.6642   17.8196 H   0  0  0  0  0  0
  -29.8467  -21.7883   17.6481 H   0  0  0  0  0  0
  -29.3764  -25.0053   20.3253 H   0  0  0  0  0  0
  -27.6344  -24.8992   20.3034 H   0  0  0  0  0  0
  -27.6406  -23.0974   15.9143 H   0  0  0  0  0  0
  -29.3763  -23.3057   15.9508 H   0  0  0  0  0  0
  -27.0373  -22.3246   18.1946 H   0  0  0  0  0  0
  -27.9177  -22.8551   19.5766 H   0  0  0  0  0  0
  -29.0448  -15.4021   21.6414 H   0  0  0  0  0  0
  -30.6002  -15.5179   22.4422 H   0  0  0  0  0  0
  -29.7043  -16.9564   19.8878 H   0  0  0  0  0  0
  -31.3259  -17.1019   20.5371 H   0  0  0  0  0  0
  1 25  1  0  0  0
  1 30  2  0  0  0
  1 85  1  0  0  0
  2  3  1  0  0  0
  2 25  1  0  0  0
  2 88  1  0  0  0
  2 89  1  0  0  0
  3  4  1  0  0  0
  3 90  1  0  0  0
  3 91  1  0  0  0
  4  5  1  0  0  0
  4 92  1  0  0  0
  4 93  1  0  0  0
  5  6  1  0  0  0
  5 26  1  0  0  0
  5 94  1  0  0  0
  6 25  1  0  0  0
  6 95  1  0  0  0
  6 96  1  0  0  0
  7  8  2  0  0  0
  7 26  1  0  0  0
  7 29  1  0  0  0
  8  9  1  0  0  0
  8 22  1  0  0  0
  9 10  1  0  0  0
  9 27  2  0  0  0
 10 11  2  0  0  0
 10 15  1  0  0  0
 11 12  1  0  0  0
 11 97  1  0  0  0
 12 13  2  0  0  0
 12 98  1  0  0  0
 13 14  1  0  0  0
 13 31  1  0  0  0
 14 15  2  0  0  0
 14 99  1  0  0  0
 15100  1  0  0  0
 16 17  2  0  0  0
 16 21  1  0  0  0
 16 31  1  0  0  0
 17 18  1  0  0  0
 17101  1  0  0  0
 18 19  2  0  0  0
 18102  1  0  0  0
 19 20  1  0  0  0
 19 24  1  0  0  0
 20 21  2  0  0  0
 20103  1  0  0  0
 21 23  1  0  0  0
 22 28  1  0  0  0
 22 32  2  0  0  0
 26 27  1  0  0  0
 28104  1  0  0  0
 28105  1  0  0  0
 29106  1  0  0  0
 29107  1  0  0  0
 33 34  1  0  0  0
 33 66  1  0  0  0
 33 70  2  0  0  0
 34 36  1  0  0  0
 34 59  1  0  0  0
 34108  1  0  0  0
 35 44  2  0  0  0
 35 45  1  0  0  0
 35 68  1  0  0  0
 36 56  1  0  0  0
 36109  1  0  0  0
 37 39  1  0  0  0
 37 47  1  0  0  0
 37 66  1  0  0  0
 37110  1  0  0  0
 38 43  2  0  0  0
 38 46  1  0  0  0
 38 47  1  0  0  0
 39 64  1  0  0  0
 39 67  2  0  0  0
 40 52  1  0  0  0
 40 53  2  0  0  0
 40 58  1  0  0  0
 41111  1  0  0  0
 41112  1  0  0  0
 41113  1  0  0  0
 41 48  1  0  0  0
 42 43  1  0  0  0
 42 66  1  0  0  0
 42114  1  0  0  0
 42115  1  0  0  0
 43 44  1  0  0  0
 44116  1  0  0  0
 45 46  2  0  0  0
 45117  1  0  0  0
 46118  1  0  0  0
 47119  1  0  0  0
 47120  1  0  0  0
 48 56  1  0  0  0
 48 65  1  0  0  0
 48121  1  0  0  0
 49 50  1  0  0  0
 49 53  1  0  0  0
 49 64  1  0  0  0
 49122  1  0  0  0
 50 51  1  0  0  0
 50123  1  0  0  0
 50124  1  0  0  0
 51 52  1  0  0  0
 51125  1  0  0  0
 51126  1  0  0  0
 52127  1  0  0  0
 52128  1  0  0  0
 53 54  1  0  0  0
 54 55  2  0  0  0
 54129  1  0  0  0
 55 57  1  0  0  0
 55130  1  0  0  0
 56 69  2  0  0  0
 57 58  2  0  0  0
 57131  1  0  0  0
 58132  1  0  0  0
 59 60  1  0  0  0
 59 61  1  0  0  0
 59 62  1  0  0  0
 60133  1  0  0  0
 60134  1  0  0  0
 60135  1  0  0  0
 61136  1  0  0  0
 61137  1  0  0  0
 61138  1  0  0  0
 62139  1  0  0  0
 62140  1  0  0  0
 62141  1  0  0  0
 63 65  1  0  0  0
 63142  1  0  0  0
 63143  1  0  0  0
 63144  1  0  0  0
 64145  1  0  0  0
 65146  1  0  0  0
 68 82  1  0  0  0
 71 72  2  0  0  0
 71 74  1  0  0  0
 71147  1  0  0  0
 72 75  1  0  0  0
 72148  1  0  0  0
 73 74  2  0  0  0
 73 76  1  0  0  0
 73149  1  0  0  0
 74 81  1  0  0  0
 75 76  2  0  0  0
 75 79  1  0  0  0
 76 87  1  0  0  0
 77 78  2  0  0  0
 77 82  1  0  0  0
 77150  1  0  0  0
 78 83  1  0  0  0
 78 84  1  0  0  0
 79151  1  0  0  0
 79152  1  0  0  0
 79153  1  0  0  0
 80 83  1  0  0  0
 80154  1  0  0  0
 80155  1  0  0  0
 80156  1  0  0  0
 81 84  1  0  0  0
 81157  1  0  0  0
 81158  1  0  0  0
 82159  1  0  0  0
 82160  1  0  0  0
 83161  1  0  0  0
 83162  1  0  0  0
 84163  1  0  0  0
 84164  1  0  0  0
 85 86  1  0  0  0
 85165  1  0  0  0
 85166  1  0  0  0
 86 87  1  0  0  0
 86167  1  0  0  0
 86168  1  0  0  0
M  ISO  4   1 100  68 101  82 101  85 100
M  END
> <chiral flag>
0

> <version>
0

> <s_m_source_file>
/data/baiqing/PycharmProjects/Reinvent-master-3.2/result/LINK_invent/BTK/process_docking_weight1_custom_product_contain_oxygen_bond_distance_aromatic_linkinvent_7_9_3/rearranged_h_0133.sdf

> <i_m_source_file_index>
11

> <r_mmod_Potential_Energy-OPLS-2005>
-44.7200012207031

> <r_mmod_Stretch_Energy-OPLS-2005>
34.1591796875

> <r_mmod_Bend_Energy-OPLS-2005>
99.143440246582

> <r_mmod_Torsional_Energy-OPLS-2005>
193.548217773438

> <r_mmod_Improper_Torsional_Energy-OPLS-2005>
2.12515068054199

> <r_mmod_Van_der_Waal_Energy-OPLS-2005>
160.559814453125

> <r_mmod_Electrostatic_Energy-OPLS-2005>
-356.218841552734

> <r_mmod_Solvation_Energy-OPLS-2005>
-187.144973754883

> <b_mmod_Minimization_Converged-OPLS-2005>
0

> <r_mmod_RMS_Derivative-OPLS-2005>
4.0991063117981

$$$$
11
                    3D
 Structure written by MMmdl.
163171  0  0  1  0            999 V2000
  -30.7095  -14.4318   20.5822 C   0  0  0  0  0  0
  -30.4212  -12.2823   19.4173 C   0  0  0  0  0  0
  -29.4918  -12.5066   18.2053 C   0  0  0  0  0  0
  -28.0108  -12.3681   18.6151 C   0  0  0  0  0  0
  -27.6618  -13.1946   19.8803 C   0  0  2  0  0  0
  -28.7061  -12.9495   20.9927 C   0  0  0  0  0  0
  -25.2602  -13.8126   20.5685 C   0  0  0  0  0  0
  -24.1837  -13.0423   20.9180 C   0  0  0  0  0  0
  -24.6376  -11.6890   20.8733 C   0  0  0  0  0  0
  -23.9043  -10.4287   21.0402 C   0  0  0  0  0  0
  -24.3608   -9.4207   21.9180 C   0  0  0  0  0  0
  -23.6295   -8.2235   22.0751 C   0  0  0  0  0  0
  -22.4277   -8.0277   21.3541 C   0  0  0  0  0  0
  -21.9902   -9.0244   20.4642 C   0  0  0  0  0  0
  -22.7219  -10.2130   20.3053 C   0  0  0  0  0  0
  -21.6851   -6.0736   22.5279 C   0  0  0  0  0  0
  -21.4007   -6.5641   23.8213 C   0  0  0  0  0  0
  -21.3655   -5.6796   24.9173 C   0  0  0  0  0  0
  -21.6043   -4.3057   24.7224 C   0  0  0  0  0  0
  -21.8821   -3.8154   23.4346 C   0  0  0  0  0  0
  -21.9188   -4.6966   22.3402 C   0  0  0  0  0  0
  -22.7863  -13.5227   21.1848 C   0  0  0  0  0  0
  -22.1665   -4.2156   21.0975 F   0  0  0  0  0  0
  -21.5632   -3.4539   25.7735 F   0  0  0  0  0  0
  -30.0407  -13.2540   20.4535 N   0  0  0  0  0  0
  -26.3026  -12.9261   20.3406 N   0  0  0  0  0  0
  -25.9298  -11.6436   20.5784 N   0  0  0  0  0  0
  -22.0516  -12.8211   22.0414 N   0  0  0  0  0  0
  -25.4339  -15.1840   20.4080 N   0  0  0  0  0  0
  -31.8341  -14.6036   20.1024 O   0  0  0  0  0  0
  -21.6638   -6.8880   21.4247 O   0  0  0  0  0  0
  -22.3524  -14.5524   20.6698 O   0  0  0  0  0  0
  -24.6113  -31.8712   23.2142 C   0  0  0  0  0  0
  -25.9019  -32.4840   23.8423 C   0  0  1  0  0  0
  -27.2414  -27.4674   20.0767 C   0  0  0  0  0  0
  -25.5891  -33.8644   24.2340 N   0  0  0  0  0  0
  -23.3979  -30.4948   21.5544 C   0  0  2  0  0  0
  -24.8425  -28.9659   20.1176 C   0  0  0  0  0  0
  -22.7394  -29.4666   22.5018 C   0  0  0  0  0  0
  -18.0268  -28.1384   22.8485 C   0  0  0  0  0  0
  -24.1480  -36.7325   23.2644 C   0  0  0  0  0  0
  -25.9233  -30.8428   21.3658 C   0  0  0  0  0  0
  -25.9987  -29.4774   20.7179 C   0  0  0  0  0  0
  -27.1936  -28.7286   20.7078 C   0  0  0  0  0  0
  -26.0616  -26.9629   19.4772 C   0  0  0  0  0  0
  -24.8653  -27.7030   19.5026 C   0  0  0  0  0  0
  -23.6043  -29.8303   20.1672 C   0  0  0  0  0  0
  -25.4106  -36.3131   24.0335 C   0  0  1  0  0  0
  -20.5851  -28.3664   23.1326 C   0  0  2  0  0  0
  -20.6768  -26.9406   22.5422 C   0  0  0  0  0  0
  -19.5749  -26.6388   21.5220 C   0  0  0  0  0  0
  -18.1921  -26.7928   22.1625 C   0  0  0  0  0  0
  -19.1509  -28.8844   23.2904 C   0  0  0  0  0  0
  -18.9441  -30.1446   23.8914 C   0  0  0  0  0  0
  -17.6447  -30.6589   24.0565 C   0  0  0  0  0  0
  -25.9028  -34.9494   23.5136 C   0  0  0  0  0  0
  -16.5336  -29.9090   23.6325 C   0  0  0  0  0  0
  -16.7258  -28.6510   23.0337 C   0  0  0  0  0  0
  -26.4482  -31.6620   25.0744 C   0  0  0  0  0  0
  -25.3766  -31.3693   26.1499 C   0  0  0  0  0  0
  -27.0328  -30.3076   24.6107 C   0  0  0  0  0  0
  -27.6063  -32.4355   25.7484 C   0  0  0  0  0  0
  -27.5579  -37.1815   24.8465 C   0  0  0  0  0  0
  -21.4125  -29.3038   22.3746 N   0  0  0  0  0  0
  -26.4296  -37.3811   23.9411 N   0  0  0  0  0  0
  -24.6624  -31.0832   22.1039 N   0  0  0  0  0  0
  -23.4176  -28.8202   23.3050 O   0  0  0  0  0  0
  -28.4451  -26.7942   20.0732 O   0  0  0  0  0  0
  -26.5593  -34.8933   22.4703 O   0  0  0  0  0  0
  -23.5311  -32.1449   23.7550 O   0  0  0  0  0  0
  -27.3694  -19.0452   17.3408 C   0  0  0  0  0  0
  -26.6620  -20.1478   17.8464 C   0  0  0  0  0  0
  -28.1159  -18.2264   18.2072 C   0  0  0  0  0  0
  -27.4510  -19.6146   20.0906 C   0  0  0  0  0  0
  -26.7143  -20.4525   19.2236 C   0  0  0  0  0  0
  -28.1506  -18.4911   19.6008 C   0  0  0  0  0  0
  -28.1757  -24.3800   19.7431 C   0  0  0  0  0  0
  -24.4825  -21.3889   19.9186 C   0  0  0  0  0  0
  -27.7073  -23.3230   18.7460 C   0  0  0  0  0  0
  -28.6311  -25.7197   19.1497 C   0  0  0  0  0  0
  -30.0225  -15.6739   21.1767 C   0  0  0  0  0  0
  -26.2215  -22.9432   18.9277 C   0  0  0  0  0  0
  -29.5571  -16.5938   20.0344 C   0  0  0  0  0  0
  -25.9838  -21.6739   19.7739 C   0  0  2  0  0  0
  -28.1726  -24.1649   20.9599 O   0  0  0  0  0  0
  -28.8258  -17.7145   20.5230 O   0  0  0  0  0  0
  -31.4658  -12.3702   19.1155 H   0  0  0  0  0  0
  -30.3122  -11.2650   19.7979 H   0  0  0  0  0  0
  -29.7268  -11.7926   17.4153 H   0  0  0  0  0  0
  -29.6648  -13.4976   17.7832 H   0  0  0  0  0  0
  -27.8139  -11.3115   18.7993 H   0  0  0  0  0  0
  -27.3614  -12.6568   17.7875 H   0  0  0  0  0  0
  -27.7033  -14.2419   19.5956 H   0  0  0  0  0  0
  -28.6770  -11.9028   21.2993 H   0  0  0  0  0  0
  -28.4629  -13.5031   21.8967 H   0  0  0  0  0  0
  -25.2756   -9.5681   22.4748 H   0  0  0  0  0  0
  -24.0009   -7.4616   22.7452 H   0  0  0  0  0  0
  -21.0841   -8.8747   19.8939 H   0  0  0  0  0  0
  -22.3672  -10.9665   19.6162 H   0  0  0  0  0  0
  -21.2004   -7.6150   23.9717 H   0  0  0  0  0  0
  -21.1477   -6.0525   25.9071 H   0  0  0  0  0  0
  -22.0608   -2.7618   23.2837 H   0  0  0  0  0  0
  -22.4144  -11.9869   22.4786 H   0  0  0  0  0  0
  -21.1137  -13.1226   22.2644 H   0  0  0  0  0  0
  -24.6694  -15.8427   20.5112 H   0  0  0  0  0  0
  -26.2943  -15.6240   20.1076 H   0  0  0  0  0  0
  -26.7098  -32.5567   23.1196 H   0  0  0  0  0  0
  -25.0059  -33.9830   25.0494 H   0  0  0  0  0  0
  -22.6844  -31.3103   21.4181 H   0  0  0  0  0  0
  -23.3745  -35.9658   23.3333 H   0  0  0  0  0  0
  -24.3570  -36.8923   22.2057 H   0  0  0  0  0  0
  -23.7227  -37.6532   23.6649 H   0  0  0  0  0  0
  -26.0295  -31.6077   20.5950 H   0  0  0  0  0  0
  -26.8135  -30.8993   21.9798 H   0  0  0  0  0  0
  -28.0883  -29.1245   21.1686 H   0  0  0  0  0  0
  -26.0388  -26.0069   18.9793 H   0  0  0  0  0  0
  -23.9739  -27.3029   19.0389 H   0  0  0  0  0  0
  -23.7088  -30.6068   19.4080 H   0  0  0  0  0  0
  -22.7292  -29.2482   19.8720 H   0  0  0  0  0  0
  -25.1280  -36.2007   25.0826 H   0  0  0  0  0  0
  -20.9929  -28.3238   24.1452 H   0  0  0  0  0  0
  -20.5689  -26.2281   23.3614 H   0  0  0  0  0  0
  -21.6641  -26.7465   22.1205 H   0  0  0  0  0  0
  -19.6918  -25.6304   21.1242 H   0  0  0  0  0  0
  -19.6687  -27.3212   20.6760 H   0  0  0  0  0  0
  -17.4199  -26.6680   21.4019 H   0  0  0  0  0  0
  -18.0314  -26.0065   22.9014 H   0  0  0  0  0  0
  -19.7918  -30.7254   24.2299 H   0  0  0  0  0  0
  -17.4997  -31.6264   24.5179 H   0  0  0  0  0  0
  -15.5338  -30.3001   23.7634 H   0  0  0  0  0  0
  -15.8657  -28.0844   22.7037 H   0  0  0  0  0  0
  -24.5912  -30.7080   25.7817 H   0  0  0  0  0  0
  -24.8990  -32.2837   26.5027 H   0  0  0  0  0  0
  -25.8126  -30.8786   27.0207 H   0  0  0  0  0  0
  -26.2857  -29.6805   24.1222 H   0  0  0  0  0  0
  -27.4185  -29.7343   25.4548 H   0  0  0  0  0  0
  -27.8653  -30.4426   23.9195 H   0  0  0  0  0  0
  -27.2680  -33.3629   26.2120 H   0  0  0  0  0  0
  -28.3818  -32.6971   25.0270 H   0  0  0  0  0  0
  -28.0806  -31.8463   26.5343 H   0  0  0  0  0  0
  -28.2613  -38.0096   24.7509 H   0  0  0  0  0  0
  -28.1048  -36.2632   24.6288 H   0  0  0  0  0  0
  -27.2296  -37.1470   25.8866 H   0  0  0  0  0  0
  -20.9291  -29.8782   21.6980 H   0  0  0  0  0  0
  -26.0186  -38.2884   24.1430 H   0  0  0  0  0  0
  -27.3382  -18.8274   16.2822 H   0  0  0  0  0  0
  -26.0901  -20.7608   17.1640 H   0  0  0  0  0  0
  -28.6467  -17.3975   17.7647 H   0  0  0  0  0  0
  -27.4832  -19.8332   21.1487 H   0  0  0  0  0  0
  -24.3056  -20.5414   20.5813 H   0  0  0  0  0  0
  -24.0263  -21.1596   18.9552 H   0  0  0  0  0  0
  -23.9566  -22.2475   20.3379 H   0  0  0  0  0  0
  -28.3574  -22.4511   18.8171 H   0  0  0  0  0  0
  -27.8527  -23.7233   17.7427 H   0  0  0  0  0  0
  -28.1271  -25.9166   18.2026 H   0  0  0  0  0  0
  -29.6944  -25.6446   18.9231 H   0  0  0  0  0  0
  -29.1895  -15.4410   21.8325 H   0  0  0  0  0  0
  -30.7447  -16.2010   21.7997 H   0  0  0  0  0  0
  -25.7715  -22.8231   17.9424 H   0  0  0  0  0  0
  -25.6745  -23.7713   19.3801 H   0  0  0  0  0  0
  -30.4139  -16.9476   19.4575 H   0  0  0  0  0  0
  -28.9331  -16.0081   19.3623 H   0  0  0  0  0  0
  -26.3761  -21.8722   20.7731 H   0  0  0  0  0  0
  1 25  1  0  0  0
  1 30  2  0  0  0
  1 81  1  0  0  0
  2  3  1  0  0  0
  2 25  1  0  0  0
  2 87  1  0  0  0
  2 88  1  0  0  0
  3  4  1  0  0  0
  3 89  1  0  0  0
  3 90  1  0  0  0
  4  5  1  0  0  0
  4 91  1  0  0  0
  4 92  1  0  0  0
  5  6  1  0  0  0
  5 26  1  0  0  0
  5 93  1  0  0  0
  6 25  1  0  0  0
  6 94  1  0  0  0
  6 95  1  0  0  0
  7  8  2  0  0  0
  7 26  1  0  0  0
  7 29  1  0  0  0
  8  9  1  0  0  0
  8 22  1  0  0  0
  9 10  1  0  0  0
  9 27  2  0  0  0
 10 11  2  0  0  0
 10 15  1  0  0  0
 11 12  1  0  0  0
 11 96  1  0  0  0
 12 13  2  0  0  0
 12 97  1  0  0  0
 13 14  1  0  0  0
 13 31  1  0  0  0
 14 15  2  0  0  0
 14 98  1  0  0  0
 15 99  1  0  0  0
 16 17  2  0  0  0
 16 21  1  0  0  0
 16 31  1  0  0  0
 17 18  1  0  0  0
 17100  1  0  0  0
 18 19  2  0  0  0
 18101  1  0  0  0
 19 20  1  0  0  0
 19 24  1  0  0  0
 20 21  2  0  0  0
 20102  1  0  0  0
 21 23  1  0  0  0
 22 28  1  0  0  0
 22 32  2  0  0  0
 26 27  1  0  0  0
 28103  1  0  0  0
 28104  1  0  0  0
 29105  1  0  0  0
 29106  1  0  0  0
 33 34  1  0  0  0
 33 66  1  0  0  0
 33 70  2  0  0  0
 34 36  1  0  0  0
 34 59  1  0  0  0
 34107  1  0  0  0
 35 44  2  0  0  0
 35 45  1  0  0  0
 35 68  1  0  0  0
 36 56  1  0  0  0
 36108  1  0  0  0
 37 39  1  0  0  0
 37 47  1  0  0  0
 37 66  1  0  0  0
 37109  1  0  0  0
 38 43  2  0  0  0
 38 46  1  0  0  0
 38 47  1  0  0  0
 39 64  1  0  0  0
 39 67  2  0  0  0
 40 52  1  0  0  0
 40 53  2  0  0  0
 40 58  1  0  0  0
 41110  1  0  0  0
 41111  1  0  0  0
 41112  1  0  0  0
 41 48  1  0  0  0
 42 43  1  0  0  0
 42 66  1  0  0  0
 42113  1  0  0  0
 42114  1  0  0  0
 43 44  1  0  0  0
 44115  1  0  0  0
 45 46  2  0  0  0
 45116  1  0  0  0
 46117  1  0  0  0
 47118  1  0  0  0
 47119  1  0  0  0
 48 56  1  0  0  0
 48 65  1  0  0  0
 48120  1  0  0  0
 49 50  1  0  0  0
 49 53  1  0  0  0
 49 64  1  0  0  0
 49121  1  0  0  0
 50 51  1  0  0  0
 50122  1  0  0  0
 50123  1  0  0  0
 51 52  1  0  0  0
 51124  1  0  0  0
 51125  1  0  0  0
 52126  1  0  0  0
 52127  1  0  0  0
 53 54  1  0  0  0
 54 55  2  0  0  0
 54128  1  0  0  0
 55 57  1  0  0  0
 55129  1  0  0  0
 56 69  2  0  0  0
 57 58  2  0  0  0
 57130  1  0  0  0
 58131  1  0  0  0
 59 60  1  0  0  0
 59 61  1  0  0  0
 59 62  1  0  0  0
 60132  1  0  0  0
 60133  1  0  0  0
 60134  1  0  0  0
 61135  1  0  0  0
 61136  1  0  0  0
 61137  1  0  0  0
 62138  1  0  0  0
 62139  1  0  0  0
 62140  1  0  0  0
 63 65  1  0  0  0
 63141  1  0  0  0
 63142  1  0  0  0
 63143  1  0  0  0
 64144  1  0  0  0
 65145  1  0  0  0
 68 80  1  0  0  0
 71 72  2  0  0  0
 71 73  1  0  0  0
 71146  1  0  0  0
 72 75  1  0  0  0
 72147  1  0  0  0
 73 76  2  0  0  0
 73148  1  0  0  0
 74 75  2  0  0  0
 74 76  1  0  0  0
 74149  1  0  0  0
 75 84  1  0  0  0
 76 86  1  0  0  0
 77 79  1  0  0  0
 77 80  1  0  0  0
 77 85  2  0  0  0
 78150  1  0  0  0
 78151  1  0  0  0
 78152  1  0  0  0
 78 84  1  0  0  0
 79 82  1  0  0  0
 79153  1  0  0  0
 79154  1  0  0  0
 80155  1  0  0  0
 80156  1  0  0  0
 81 83  1  0  0  0
 81157  1  0  0  0
 81158  1  0  0  0
 82 84  1  0  0  0
 82159  1  0  0  0
 82160  1  0  0  0
 83 86  1  0  0  0
 83161  1  0  0  0
 83162  1  0  0  0
 84163  1  0  0  0
M  ISO  4   1 100  68 101  80 101  81 100
M  END
> <chiral flag>
0

> <version>
0

> <s_m_source_file>
/data/baiqing/PycharmProjects/Reinvent-master-3.2/result/LINK_invent/BTK/process_docking_weight1_custom_product_contain_oxygen_bond_distance_aromatic_linkinvent_7_9_3/rearranged_h_0133.sdf

> <i_m_source_file_index>
12

> <r_mmod_Potential_Energy-OPLS-2005>
-62.1388816833496

> <r_mmod_Stretch_Energy-OPLS-2005>
33.4286041259766

> <r_mmod_Bend_Energy-OPLS-2005>
102.032890319824

> <r_mmod_Torsional_Energy-OPLS-2005>
177.80061340332

> <r_mmod_Improper_Torsional_Energy-OPLS-2005>
3.51011919975281

> <r_mmod_Van_der_Waal_Energy-OPLS-2005>
157.141586303711

> <r_mmod_Electrostatic_Energy-OPLS-2005>
-335.268218994141

> <r_mmod_Solvation_Energy-OPLS-2005>
-211.082214355469

> <b_mmod_Minimization_Converged-OPLS-2005>
0

> <r_mmod_RMS_Derivative-OPLS-2005>
1.44038844108582

$$$$
12
                    3D
 Structure written by MMmdl.
161169  0  0  1  0            999 V2000
  -30.7875  -14.3734   20.5555 C   0  0  0  0  0  0
  -30.3872  -12.2382   19.4335 C   0  0  0  0  0  0
  -29.4848  -12.4803   18.2092 C   0  0  0  0  0  0
  -28.0040  -12.3671   18.6163 C   0  0  0  0  0  0
  -27.6588  -13.2127   19.8734 C   0  0  2  0  0  0
  -28.6975  -13.0064   20.9999 C   0  0  0  0  0  0
  -25.2573  -13.8185   20.5698 C   0  0  0  0  0  0
  -24.1829  -13.0452   20.9184 C   0  0  0  0  0  0
  -24.6389  -11.6920   20.8743 C   0  0  0  0  0  0
  -23.9063  -10.4298   21.0404 C   0  0  0  0  0  0
  -24.3615   -9.4211   21.9182 C   0  0  0  0  0  0
  -23.6289   -8.2246   22.0754 C   0  0  0  0  0  0
  -22.4271   -8.0285   21.3542 C   0  0  0  0  0  0
  -21.9906   -9.0261   20.4648 C   0  0  0  0  0  0
  -22.7235  -10.2140   20.3055 C   0  0  0  0  0  0
  -21.6850   -6.0740   22.5279 C   0  0  0  0  0  0
  -21.4017   -6.5641   23.8215 C   0  0  0  0  0  0
  -21.3660   -5.6793   24.9176 C   0  0  0  0  0  0
  -21.6039   -4.3054   24.7226 C   0  0  0  0  0  0
  -21.8819   -3.8148   23.4346 C   0  0  0  0  0  0
  -21.9193   -4.6969   22.3402 C   0  0  0  0  0  0
  -22.7850  -13.5248   21.1843 C   0  0  0  0  0  0
  -22.1659   -4.2155   21.0980 F   0  0  0  0  0  0
  -21.5628   -3.4537   25.7737 F   0  0  0  0  0  0
  -30.0350  -13.2491   20.4436 N   0  0  0  0  0  0
  -26.3011  -12.9370   20.3380 N   0  0  0  0  0  0
  -25.9317  -11.6521   20.5775 N   0  0  0  0  0  0
  -22.0487  -12.8249   22.0400 N   0  0  0  0  0  0
  -25.4293  -15.1902   20.4119 N   0  0  0  0  0  0
  -31.9272  -14.4196   20.0832 O   0  0  0  0  0  0
  -21.6633   -6.8882   21.4239 O   0  0  0  0  0  0
  -22.3540  -14.5553   20.6690 O   0  0  0  0  0  0
  -24.6038  -31.8730   23.2124 C   0  0  0  0  0  0
  -25.8968  -32.4848   23.8406 C   0  0  1  0  0  0
  -27.2614  -27.5136   20.1151 C   0  0  0  0  0  0
  -25.5860  -33.8644   24.2354 N   0  0  0  0  0  0
  -23.3868  -30.4931   21.5504 C   0  0  2  0  0  0
  -24.8374  -28.9635   20.1156 C   0  0  0  0  0  0
  -22.7349  -29.4677   22.5031 C   0  0  0  0  0  0
  -18.0256  -28.1379   22.8498 C   0  0  0  0  0  0
  -24.1480  -36.7337   23.2641 C   0  0  0  0  0  0
  -25.8990  -30.8757   21.3401 C   0  0  0  0  0  0
  -25.9839  -29.5122   20.6968 C   0  0  0  0  0  0
  -27.1949  -28.8065   20.6790 C   0  0  0  0  0  0
  -26.1027  -26.9698   19.5201 C   0  0  0  0  0  0
  -24.8889  -27.6891   19.5180 C   0  0  0  0  0  0
  -23.5900  -29.8145   20.1662 C   0  0  0  0  0  0
  -25.4101  -36.3130   24.0342 C   0  0  1  0  0  0
  -20.5839  -28.3645   23.1360 C   0  0  2  0  0  0
  -20.6750  -26.9394   22.5432 C   0  0  0  0  0  0
  -19.5734  -26.6394   21.5219 C   0  0  0  0  0  0
  -18.1909  -26.7930   22.1624 C   0  0  0  0  0  0
  -19.1503  -28.8825   23.2927 C   0  0  0  0  0  0
  -18.9438  -30.1439   23.8929 C   0  0  0  0  0  0
  -17.6443  -30.6586   24.0574 C   0  0  0  0  0  0
  -25.9015  -34.9490   23.5147 C   0  0  0  0  0  0
  -16.5333  -29.9097   23.6323 C   0  0  0  0  0  0
  -16.7248  -28.6514   23.0339 C   0  0  0  0  0  0
  -26.4447  -31.6600   25.0690 C   0  0  0  0  0  0
  -25.3754  -31.3661   26.1467 C   0  0  0  0  0  0
  -27.0273  -30.3070   24.5982 C   0  0  0  0  0  0
  -27.6048  -32.4296   25.7439 C   0  0  0  0  0  0
  -27.5580  -37.1821   24.8466 C   0  0  0  0  0  0
  -21.4089  -29.3017   22.3770 N   0  0  0  0  0  0
  -26.4294  -37.3806   23.9408 N   0  0  0  0  0  0
  -24.6482  -31.0924   22.0959 N   0  0  0  0  0  0
  -23.4164  -28.8242   23.3055 O   0  0  0  0  0  0
  -28.4193  -26.7719   20.1017 O   0  0  0  0  0  0
  -26.5582  -34.8932   22.4708 O   0  0  0  0  0  0
  -23.5259  -32.1430   23.7591 O   0  0  0  0  0  0
  -31.4571  -18.7765   22.2300 C   0  0  0  0  0  0
  -31.5880  -20.1714   22.1574 C   0  0  0  0  0  0
  -29.9555  -20.2128   20.3466 C   0  0  0  0  0  0
  -30.6399  -18.0865   21.3109 C   0  0  0  0  0  0
  -30.8891  -20.8768   21.1639 C   0  0  0  0  0  0
  -29.8217  -18.8126   20.4045 C   0  0  0  0  0  0
  -30.9424  -16.6709   21.1447 C   0  0  0  0  0  0
  -30.1422  -15.5902   21.0309 C   0  0  0  0  0  0
  -28.8975  -18.1680   19.3807 C   0  0  0  0  0  0
  -31.1958  -22.3306   20.9105 C   0  0  0  0  0  0
  -30.2685  -23.2599   21.6811 C   0  0  0  0  0  0
  -30.3644  -24.6778   21.1268 C   0  0  0  0  0  0
  -29.5116  -25.6575   21.9238 C   0  0  0  0  0  0
  -29.3409  -26.9779   21.1827 C   0  0  0  0  0  0
  -31.4376  -12.2597   19.1380 H   0  0  0  0  0  0
  -30.2245  -11.2378   19.8368 H   0  0  0  0  0  0
  -29.7133  -11.7567   17.4253 H   0  0  0  0  0  0
  -29.6829  -13.4664   17.7863 H   0  0  0  0  0  0
  -27.7986  -11.3141   18.8117 H   0  0  0  0  0  0
  -27.3603  -12.6493   17.7823 H   0  0  0  0  0  0
  -27.7032  -14.2590   19.5707 H   0  0  0  0  0  0
  -28.6472  -11.9850   21.3799 H   0  0  0  0  0  0
  -28.4835  -13.6438   21.8581 H   0  0  0  0  0  0
  -25.2762   -9.5687   22.4760 H   0  0  0  0  0  0
  -24.0001   -7.4636   22.7471 H   0  0  0  0  0  0
  -21.0840   -8.8780   19.8955 H   0  0  0  0  0  0
  -22.3692  -10.9682   19.6167 H   0  0  0  0  0  0
  -21.2008   -7.6150   23.9722 H   0  0  0  0  0  0
  -21.1481   -6.0520   25.9080 H   0  0  0  0  0  0
  -22.0597   -2.7613   23.2840 H   0  0  0  0  0  0
  -22.4096  -11.9912   22.4800 H   0  0  0  0  0  0
  -21.1107  -13.1284   22.2603 H   0  0  0  0  0  0
  -24.6656  -15.8480   20.5250 H   0  0  0  0  0  0
  -26.2886  -15.6298   20.1076 H   0  0  0  0  0  0
  -26.7049  -32.5614   23.1197 H   0  0  0  0  0  0
  -25.0006  -33.9810   25.0495 H   0  0  0  0  0  0
  -22.6699  -31.3050   21.4111 H   0  0  0  0  0  0
  -23.3724  -35.9690   23.3326 H   0  0  0  0  0  0
  -24.3575  -36.8927   22.2053 H   0  0  0  0  0  0
  -23.7251  -37.6559   23.6638 H   0  0  0  0  0  0
  -25.9824  -31.6409   20.5669 H   0  0  0  0  0  0
  -26.7956  -30.9456   21.9435 H   0  0  0  0  0  0
  -28.0689  -29.2918   21.0867 H   0  0  0  0  0  0
  -26.1432  -25.9882   19.0695 H   0  0  0  0  0  0
  -24.0079  -27.2585   19.0624 H   0  0  0  0  0  0
  -23.6830  -30.5840   19.3987 H   0  0  0  0  0  0
  -22.7200  -29.2204   19.8814 H   0  0  0  0  0  0
  -25.1273  -36.2010   25.0836 H   0  0  0  0  0  0
  -20.9932  -28.3208   24.1481 H   0  0  0  0  0  0
  -20.5667  -26.2245   23.3601 H   0  0  0  0  0  0
  -21.6625  -26.7461   22.1218 H   0  0  0  0  0  0
  -19.6896  -25.6315   21.1223 H   0  0  0  0  0  0
  -19.6681  -27.3227   20.6770 H   0  0  0  0  0  0
  -17.4184  -26.6682   21.4020 H   0  0  0  0  0  0
  -18.0305  -26.0065   22.9012 H   0  0  0  0  0  0
  -19.7915  -30.7247   24.2309 H   0  0  0  0  0  0
  -17.5001  -31.6270   24.5176 H   0  0  0  0  0  0
  -15.5337  -30.3010   23.7633 H   0  0  0  0  0  0
  -15.8646  -28.0853   22.7029 H   0  0  0  0  0  0
  -24.5915  -30.7017   25.7814 H   0  0  0  0  0  0
  -24.8947  -32.2793   26.4983 H   0  0  0  0  0  0
  -25.8140  -30.8792   27.0185 H   0  0  0  0  0  0
  -26.2776  -29.6821   24.1115 H   0  0  0  0  0  0
  -27.4178  -29.7311   25.4384 H   0  0  0  0  0  0
  -27.8543  -30.4432   23.9005 H   0  0  0  0  0  0
  -27.2694  -33.3568   26.2097 H   0  0  0  0  0  0
  -28.3824  -32.6897   25.0243 H   0  0  0  0  0  0
  -28.0762  -31.8367   26.5288 H   0  0  0  0  0  0
  -28.2618  -38.0099   24.7499 H   0  0  0  0  0  0
  -28.1050  -36.2632   24.6304 H   0  0  0  0  0  0
  -27.2296  -37.1500   25.8869 H   0  0  0  0  0  0
  -20.9230  -29.8721   21.6990 H   0  0  0  0  0  0
  -26.0191  -38.2888   24.1395 H   0  0  0  0  0  0
  -32.0852  -18.2279   22.9188 H   0  0  0  0  0  0
  -32.2881  -20.6811   22.8056 H   0  0  0  0  0  0
  -29.4029  -20.7717   19.6027 H   0  0  0  0  0  0
  -32.0076  -16.5404   21.0031 H   0  0  0  0  0  0
  -29.0803  -15.6584   21.2069 H   0  0  0  0  0  0
  -29.2451  -18.3935   18.3723 H   0  0  0  0  0  0
  -27.8921  -18.5773   19.4844 H   0  0  0  0  0  0
  -28.8121  -17.0892   19.4588 H   0  0  0  0  0  0
  -31.1089  -22.5138   19.8383 H   0  0  0  0  0  0
  -32.2362  -22.5397   21.1641 H   0  0  0  0  0  0
  -30.5130  -23.2327   22.7437 H   0  0  0  0  0  0
  -29.2377  -22.9156   21.5855 H   0  0  0  0  0  0
  -30.0447  -24.6740   20.0834 H   0  0  0  0  0  0
  -31.4018  -25.0160   21.1288 H   0  0  0  0  0  0
  -29.9852  -25.8353   22.8906 H   0  0  0  0  0  0
  -28.5277  -25.2364   22.1364 H   0  0  0  0  0  0
  -30.2934  -27.3376   20.7915 H   0  0  0  0  0  0
  -29.0249  -27.6910   21.9408 H   0  0  0  0  0  0
  1 25  1  0  0  0
  1 30  2  0  0  0
  1 78  1  0  0  0
  2  3  1  0  0  0
  2 25  1  0  0  0
  2 85  1  0  0  0
  2 86  1  0  0  0
  3  4  1  0  0  0
  3 87  1  0  0  0
  3 88  1  0  0  0
  4  5  1  0  0  0
  4 89  1  0  0  0
  4 90  1  0  0  0
  5  6  1  0  0  0
  5 26  1  0  0  0
  5 91  1  0  0  0
  6 25  1  0  0  0
  6 92  1  0  0  0
  6 93  1  0  0  0
  7  8  2  0  0  0
  7 26  1  0  0  0
  7 29  1  0  0  0
  8  9  1  0  0  0
  8 22  1  0  0  0
  9 10  1  0  0  0
  9 27  2  0  0  0
 10 11  2  0  0  0
 10 15  1  0  0  0
 11 12  1  0  0  0
 11 94  1  0  0  0
 12 13  2  0  0  0
 12 95  1  0  0  0
 13 14  1  0  0  0
 13 31  1  0  0  0
 14 15  2  0  0  0
 14 96  1  0  0  0
 15 97  1  0  0  0
 16 17  2  0  0  0
 16 21  1  0  0  0
 16 31  1  0  0  0
 17 18  1  0  0  0
 17 98  1  0  0  0
 18 19  2  0  0  0
 18 99  1  0  0  0
 19 20  1  0  0  0
 19 24  1  0  0  0
 20 21  2  0  0  0
 20100  1  0  0  0
 21 23  1  0  0  0
 22 28  1  0  0  0
 22 32  2  0  0  0
 26 27  1  0  0  0
 28101  1  0  0  0
 28102  1  0  0  0
 29103  1  0  0  0
 29104  1  0  0  0
 33 34  1  0  0  0
 33 66  1  0  0  0
 33 70  2  0  0  0
 34 36  1  0  0  0
 34 59  1  0  0  0
 34105  1  0  0  0
 35 44  2  0  0  0
 35 45  1  0  0  0
 35 68  1  0  0  0
 36 56  1  0  0  0
 36106  1  0  0  0
 37 39  1  0  0  0
 37 47  1  0  0  0
 37 66  1  0  0  0
 37107  1  0  0  0
 38 43  2  0  0  0
 38 46  1  0  0  0
 38 47  1  0  0  0
 39 64  1  0  0  0
 39 67  2  0  0  0
 40 52  1  0  0  0
 40 53  2  0  0  0
 40 58  1  0  0  0
 41108  1  0  0  0
 41109  1  0  0  0
 41110  1  0  0  0
 41 48  1  0  0  0
 42 43  1  0  0  0
 42 66  1  0  0  0
 42111  1  0  0  0
 42112  1  0  0  0
 43 44  1  0  0  0
 44113  1  0  0  0
 45 46  2  0  0  0
 45114  1  0  0  0
 46115  1  0  0  0
 47116  1  0  0  0
 47117  1  0  0  0
 48 56  1  0  0  0
 48 65  1  0  0  0
 48118  1  0  0  0
 49 50  1  0  0  0
 49 53  1  0  0  0
 49 64  1  0  0  0
 49119  1  0  0  0
 50 51  1  0  0  0
 50120  1  0  0  0
 50121  1  0  0  0
 51 52  1  0  0  0
 51122  1  0  0  0
 51123  1  0  0  0
 52124  1  0  0  0
 52125  1  0  0  0
 53 54  1  0  0  0
 54 55  2  0  0  0
 54126  1  0  0  0
 55 57  1  0  0  0
 55127  1  0  0  0
 56 69  2  0  0  0
 57 58  2  0  0  0
 57128  1  0  0  0
 58129  1  0  0  0
 59 60  1  0  0  0
 59 61  1  0  0  0
 59 62  1  0  0  0
 60130  1  0  0  0
 60131  1  0  0  0
 60132  1  0  0  0
 61133  1  0  0  0
 61134  1  0  0  0
 61135  1  0  0  0
 62136  1  0  0  0
 62137  1  0  0  0
 62138  1  0  0  0
 63 65  1  0  0  0
 63139  1  0  0  0
 63140  1  0  0  0
 63141  1  0  0  0
 64142  1  0  0  0
 65143  1  0  0  0
 68 84  1  0  0  0
 71 72  2  0  0  0
 71 74  1  0  0  0
 71144  1  0  0  0
 72 75  1  0  0  0
 72145  1  0  0  0
 73 75  2  0  0  0
 73 76  1  0  0  0
 73146  1  0  0  0
 74 76  2  0  0  0
 74 77  1  0  0  0
 75 80  1  0  0  0
 76 79  1  0  0  0
 77 78  2  0  0  0
 77147  1  0  0  0
 78148  1  0  0  0
 79149  1  0  0  0
 79150  1  0  0  0
 79151  1  0  0  0
 80 81  1  0  0  0
 80152  1  0  0  0
 80153  1  0  0  0
 81 82  1  0  0  0
 81154  1  0  0  0
 81155  1  0  0  0
 82 83  1  0  0  0
 82156  1  0  0  0
 82157  1  0  0  0
 83 84  1  0  0  0
 83158  1  0  0  0
 83159  1  0  0  0
 84160  1  0  0  0
 84161  1  0  0  0
M  ISO  4   1 100  68 101  78 100  84 101
M  END
> <chiral flag>
0

> <version>
0

> <s_m_source_file>
/data/baiqing/PycharmProjects/Reinvent-master-3.2/result/LINK_invent/BTK/process_docking_weight1_custom_product_contain_oxygen_bond_distance_aromatic_linkinvent_7_9_3/rearranged_h_0133.sdf

> <i_m_source_file_index>
13

> <r_mmod_Potential_Energy-OPLS-2005>
41.9909172058105

> <r_mmod_Stretch_Energy-OPLS-2005>
31.1578254699707

> <r_mmod_Bend_Energy-OPLS-2005>
111.131141662598

> <r_mmod_Torsional_Energy-OPLS-2005>
224.128158569336

> <r_mmod_Improper_Torsional_Energy-OPLS-2005>
9.89471912384033

> <r_mmod_Van_der_Waal_Energy-OPLS-2005>
174.999603271484

> <r_mmod_Electrostatic_Energy-OPLS-2005>
-339.465484619141

> <r_mmod_Solvation_Energy-OPLS-2005>
-187.068099975586

> <b_mmod_Minimization_Converged-OPLS-2005>
0

> <r_mmod_RMS_Derivative-OPLS-2005>
0.926031768321991

$$$$
13
                    3D
 Structure written by MMmdl.
167176  0  0  1  0            999 V2000
  -30.6524  -14.5049   20.4896 C   0  0  0  0  0  0
  -30.4191  -12.2908   19.4472 C   0  0  0  0  0  0
  -29.5040  -12.4717   18.2157 C   0  0  0  0  0  0
  -28.0191  -12.3393   18.6177 C   0  0  0  0  0  0
  -27.6542  -13.2003   19.8570 C   0  0  2  0  0  0
  -28.6925  -13.0100   20.9851 C   0  0  0  0  0  0
  -25.2593  -13.8141   20.5645 C   0  0  0  0  0  0
  -24.1847  -13.0439   20.9151 C   0  0  0  0  0  0
  -24.6389  -11.6890   20.8727 C   0  0  0  0  0  0
  -23.9059  -10.4286   21.0409 C   0  0  0  0  0  0
  -24.3613   -9.4200   21.9185 C   0  0  0  0  0  0
  -23.6285   -8.2238   22.0754 C   0  0  0  0  0  0
  -22.4263   -8.0280   21.3546 C   0  0  0  0  0  0
  -21.9904   -9.0252   20.4644 C   0  0  0  0  0  0
  -22.7235  -10.2126   20.3051 C   0  0  0  0  0  0
  -21.6841   -6.0737   22.5282 C   0  0  0  0  0  0
  -21.4013   -6.5639   23.8217 C   0  0  0  0  0  0
  -21.3656   -5.6797   24.9175 C   0  0  0  0  0  0
  -21.6039   -4.3057   24.7228 C   0  0  0  0  0  0
  -21.8817   -3.8148   23.4348 C   0  0  0  0  0  0
  -21.9187   -4.6968   22.3401 C   0  0  0  0  0  0
  -22.7878  -13.5229   21.1841 C   0  0  0  0  0  0
  -22.1651   -4.2152   21.0980 F   0  0  0  0  0  0
  -21.5633   -3.4539   25.7739 F   0  0  0  0  0  0
  -30.0197  -13.3014   20.4403 N   0  0  0  0  0  0
  -26.2993  -12.9290   20.3265 N   0  0  0  0  0  0
  -25.9306  -11.6464   20.5734 N   0  0  0  0  0  0
  -22.0529  -12.8212   22.0392 N   0  0  0  0  0  0
  -25.4372  -15.1864   20.4078 N   0  0  0  0  0  0
  -31.8485  -14.5888   20.1986 O   0  0  0  0  0  0
  -21.6624   -6.8879   21.4244 O   0  0  0  0  0  0
  -22.3557  -14.5545   20.6700 O   0  0  0  0  0  0
  -24.6103  -31.8687   23.2084 C   0  0  0  0  0  0
  -25.9006  -32.4830   23.8377 C   0  0  1  0  0  0
  -27.2339  -27.4428   20.1256 C   0  0  0  0  0  0
  -25.5870  -33.8621   24.2323 N   0  0  0  0  0  0
  -23.3987  -30.4906   21.5485 C   0  0  2  0  0  0
  -24.8497  -28.9557   20.1170 C   0  0  0  0  0  0
  -22.7390  -29.4661   22.4986 C   0  0  0  0  0  0
  -18.0260  -28.1378   22.8493 C   0  0  0  0  0  0
  -24.1481  -36.7314   23.2640 C   0  0  0  0  0  0
  -25.9238  -30.8455   21.3533 C   0  0  0  0  0  0
  -26.0075  -29.4765   20.7105 C   0  0  0  0  0  0
  -27.2055  -28.7282   20.7092 C   0  0  0  0  0  0
  -26.0682  -26.9343   19.5170 C   0  0  0  0  0  0
  -24.8747  -27.6838   19.5149 C   0  0  0  0  0  0
  -23.6082  -29.8208   20.1641 C   0  0  0  0  0  0
  -25.4093  -36.3106   24.0344 C   0  0  1  0  0  0
  -20.5851  -28.3668   23.1326 C   0  0  2  0  0  0
  -20.6756  -26.9415   22.5417 C   0  0  0  0  0  0
  -19.5743  -26.6408   21.5200 C   0  0  0  0  0  0
  -18.1914  -26.7926   22.1612 C   0  0  0  0  0  0
  -19.1510  -28.8836   23.2904 C   0  0  0  0  0  0
  -18.9442  -30.1436   23.8935 C   0  0  0  0  0  0
  -17.6452  -30.6594   24.0568 C   0  0  0  0  0  0
  -25.9017  -34.9480   23.5129 C   0  0  0  0  0  0
  -16.5336  -29.9108   23.6326 C   0  0  0  0  0  0
  -16.7248  -28.6516   23.0355 C   0  0  0  0  0  0
  -26.4454  -31.6579   25.0674 C   0  0  0  0  0  0
  -25.3727  -31.3640   26.1412 C   0  0  0  0  0  0
  -27.0267  -30.3034   24.5986 C   0  0  0  0  0  0
  -27.6037  -32.4273   25.7463 C   0  0  0  0  0  0
  -27.5580  -37.1800   24.8477 C   0  0  0  0  0  0
  -21.4120  -29.3031   22.3733 N   0  0  0  0  0  0
  -26.4286  -37.3788   23.9426 N   0  0  0  0  0  0
  -24.6632  -31.0812   22.0970 N   0  0  0  0  0  0
  -23.4172  -28.8210   23.3025 O   0  0  0  0  0  0
  -28.3862  -26.6944   20.1455 O   0  0  0  0  0  0
  -26.5597  -34.8945   22.4707 O   0  0  0  0  0  0
  -23.5305  -32.1429   23.7494 O   0  0  0  0  0  0
  -27.5958  -18.9208   23.2301 C   0  0  0  0  0  0
  -28.5209  -17.9220   22.8589 C   0  0  0  0  0  0
  -27.5134  -20.1298   22.5093 C   0  0  0  0  0  0
  -29.2782  -19.3349   21.0375 C   0  0  0  0  0  0
  -29.3894  -18.1142   21.7639 C   0  0  0  0  0  0
  -28.3531  -20.3469   21.3996 C   0  0  0  0  0  0
  -31.1029  -17.2888   19.0683 C   0  0  0  0  0  0
  -31.5584  -17.5510   20.5175 C   0  0  0  0  0  0
  -29.7907  -16.4866   19.1807 C   0  0  0  0  0  0
  -30.4217  -17.0099   21.4078 C   0  0  2  0  0  0
  -29.8148  -15.8366   20.5785 C   0  0  2  0  0  0
  -29.7317  -24.1905   19.4654 C   0  0  0  0  0  0
  -28.2178  -21.6151   20.5442 C   0  0  0  0  0  0
  -28.3759  -22.9801   21.2762 C   0  0  0  0  0  0
  -28.3788  -25.5822   21.0615 C   0  0  0  0  0  0
  -28.4534  -24.2184   20.3236 C   0  0  1  0  0  0
  -31.4689  -12.3662   19.1595 H   0  0  0  0  0  0
  -30.2996  -11.2903   19.8651 H   0  0  0  0  0  0
  -29.7481  -11.7307   17.4526 H   0  0  0  0  0  0
  -29.6802  -13.4461   17.7592 H   0  0  0  0  0  0
  -27.8294  -11.2871   18.8341 H   0  0  0  0  0  0
  -27.3749  -12.5931   17.7746 H   0  0  0  0  0  0
  -27.6844  -14.2363   19.5243 H   0  0  0  0  0  0
  -28.6716  -11.9799   21.3458 H   0  0  0  0  0  0
  -28.4713  -13.6323   21.8527 H   0  0  0  0  0  0
  -25.2762   -9.5667   22.4752 H   0  0  0  0  0  0
  -23.9986   -7.4628   22.7473 H   0  0  0  0  0  0
  -21.0835   -8.8779   19.8947 H   0  0  0  0  0  0
  -22.3710  -10.9666   19.6151 H   0  0  0  0  0  0
  -21.2009   -7.6150   23.9721 H   0  0  0  0  0  0
  -21.1479   -6.0525   25.9079 H   0  0  0  0  0  0
  -22.0602   -2.7612   23.2851 H   0  0  0  0  0  0
  -22.4121  -11.9830   22.4727 H   0  0  0  0  0  0
  -21.1163  -13.1259   22.2637 H   0  0  0  0  0  0
  -24.6813  -15.8511   20.5285 H   0  0  0  0  0  0
  -26.3052  -15.6242   20.1271 H   0  0  0  0  0  0
  -26.7070  -32.5585   23.1145 H   0  0  0  0  0  0
  -24.9987  -33.9790   25.0437 H   0  0  0  0  0  0
  -22.6842  -31.3043   21.4094 H   0  0  0  0  0  0
  -23.3741  -35.9646   23.3293 H   0  0  0  0  0  0
  -24.3577  -36.8941   22.2060 H   0  0  0  0  0  0
  -23.7231  -37.6515   23.6657 H   0  0  0  0  0  0
  -26.0176  -31.6065   20.5769 H   0  0  0  0  0  0
  -26.8180  -30.9145   21.9604 H   0  0  0  0  0  0
  -28.1007  -29.1254   21.1686 H   0  0  0  0  0  0
  -26.0832  -25.9602   19.0494 H   0  0  0  0  0  0
  -23.9853  -27.2785   19.0518 H   0  0  0  0  0  0
  -23.7102  -30.5958   19.4033 H   0  0  0  0  0  0
  -22.7329  -29.2374   19.8735 H   0  0  0  0  0  0
  -25.1257  -36.1961   25.0834 H   0  0  0  0  0  0
  -20.9923  -28.3238   24.1451 H   0  0  0  0  0  0
  -20.5662  -26.2268   23.3588 H   0  0  0  0  0  0
  -21.6631  -26.7476   22.1211 H   0  0  0  0  0  0
  -19.6919  -25.6329   21.1211 H   0  0  0  0  0  0
  -19.6694  -27.3227   20.6737 H   0  0  0  0  0  0
  -17.4185  -26.6655   21.4017 H   0  0  0  0  0  0
  -18.0335  -26.0054   22.9000 H   0  0  0  0  0  0
  -19.7922  -30.7216   24.2345 H   0  0  0  0  0  0
  -17.5022  -31.6288   24.5151 H   0  0  0  0  0  0
  -15.5343  -30.3031   23.7652 H   0  0  0  0  0  0
  -15.8628  -28.0860   22.7071 H   0  0  0  0  0  0
  -24.5977  -30.6902   25.7751 H   0  0  0  0  0  0
  -24.8807  -32.2755   26.4816 H   0  0  0  0  0  0
  -25.8097  -30.8875   27.0194 H   0  0  0  0  0  0
  -26.2795  -29.6807   24.1048 H   0  0  0  0  0  0
  -27.4087  -29.7244   25.4402 H   0  0  0  0  0  0
  -27.8601  -30.4381   23.9082 H   0  0  0  0  0  0
  -27.2712  -33.3628   26.1979 H   0  0  0  0  0  0
  -28.3910  -32.6717   25.0321 H   0  0  0  0  0  0
  -28.0598  -31.8384   26.5430 H   0  0  0  0  0  0
  -28.2581  -38.0114   24.7534 H   0  0  0  0  0  0
  -28.1099  -36.2643   24.6278 H   0  0  0  0  0  0
  -27.2309  -37.1432   25.8885 H   0  0  0  0  0  0
  -20.9259  -29.8759   21.6973 H   0  0  0  0  0  0
  -26.0173  -38.2871   24.1416 H   0  0  0  0  0  0
  -26.9415  -18.7553   24.0743 H   0  0  0  0  0  0
  -28.5619  -17.0003   23.4224 H   0  0  0  0  0  0
  -26.7877  -20.8780   22.7982 H   0  0  0  0  0  0
  -29.8996  -19.5083   20.1728 H   0  0  0  0  0  0
  -31.8624  -16.7083   18.5433 H   0  0  0  0  0  0
  -30.9620  -18.2131   18.5093 H   0  0  0  0  0  0
  -31.8213  -18.5897   20.7156 H   0  0  0  0  0  0
  -32.4703  -16.9873   20.7147 H   0  0  0  0  0  0
  -29.6732  -15.7658   18.3708 H   0  0  0  0  0  0
  -28.9398  -17.1667   19.1137 H   0  0  0  0  0  0
  -30.8327  -16.6351   22.3469 H   0  0  0  0  0  0
  -28.8067  -15.6313   20.9306 H   0  0  0  0  0  0
  -30.6229  -24.1936   20.0945 H   0  0  0  0  0  0
  -29.7885  -25.0627   18.8133 H   0  0  0  0  0  0
  -29.7771  -23.3191   18.8158 H   0  0  0  0  0  0
  -27.2404  -21.5880   20.0604 H   0  0  0  0  0  0
  -28.9436  -21.5395   19.7376 H   0  0  0  0  0  0
  -29.2685  -22.9543   21.9015 H   0  0  0  0  0  0
  -27.5365  -23.1068   21.9628 H   0  0  0  0  0  0
  -29.2492  -25.6901   21.7110 H   0  0  0  0  0  0
  -27.5130  -25.6142   21.7262 H   0  0  0  0  0  0
  -27.5930  -24.1718   19.6564 H   0  0  0  0  0  0
  1 25  1  0  0  0
  1 30  2  0  0  0
  1 81  1  0  0  0
  2  3  1  0  0  0
  2 25  1  0  0  0
  2 87  1  0  0  0
  2 88  1  0  0  0
  3  4  1  0  0  0
  3 89  1  0  0  0
  3 90  1  0  0  0
  4  5  1  0  0  0
  4 91  1  0  0  0
  4 92  1  0  0  0
  5  6  1  0  0  0
  5 26  1  0  0  0
  5 93  1  0  0  0
  6 25  1  0  0  0
  6 94  1  0  0  0
  6 95  1  0  0  0
  7  8  2  0  0  0
  7 26  1  0  0  0
  7 29  1  0  0  0
  8  9  1  0  0  0
  8 22  1  0  0  0
  9 10  1  0  0  0
  9 27  2  0  0  0
 10 11  2  0  0  0
 10 15  1  0  0  0
 11 12  1  0  0  0
 11 96  1  0  0  0
 12 13  2  0  0  0
 12 97  1  0  0  0
 13 14  1  0  0  0
 13 31  1  0  0  0
 14 15  2  0  0  0
 14 98  1  0  0  0
 15 99  1  0  0  0
 16 17  2  0  0  0
 16 21  1  0  0  0
 16 31  1  0  0  0
 17 18  1  0  0  0
 17100  1  0  0  0
 18 19  2  0  0  0
 18101  1  0  0  0
 19 20  1  0  0  0
 19 24  1  0  0  0
 20 21  2  0  0  0
 20102  1  0  0  0
 21 23  1  0  0  0
 22 28  1  0  0  0
 22 32  2  0  0  0
 26 27  1  0  0  0
 28103  1  0  0  0
 28104  1  0  0  0
 29105  1  0  0  0
 29106  1  0  0  0
 33 34  1  0  0  0
 33 66  1  0  0  0
 33 70  2  0  0  0
 34 36  1  0  0  0
 34 59  1  0  0  0
 34107  1  0  0  0
 35 44  2  0  0  0
 35 45  1  0  0  0
 35 68  1  0  0  0
 36 56  1  0  0  0
 36108  1  0  0  0
 37 39  1  0  0  0
 37 47  1  0  0  0
 37 66  1  0  0  0
 37109  1  0  0  0
 38 43  2  0  0  0
 38 46  1  0  0  0
 38 47  1  0  0  0
 39 64  1  0  0  0
 39 67  2  0  0  0
 40 52  1  0  0  0
 40 53  2  0  0  0
 40 58  1  0  0  0
 41110  1  0  0  0
 41111  1  0  0  0
 41112  1  0  0  0
 41 48  1  0  0  0
 42 43  1  0  0  0
 42 66  1  0  0  0
 42113  1  0  0  0
 42114  1  0  0  0
 43 44  1  0  0  0
 44115  1  0  0  0
 45 46  2  0  0  0
 45116  1  0  0  0
 46117  1  0  0  0
 47118  1  0  0  0
 47119  1  0  0  0
 48 56  1  0  0  0
 48 65  1  0  0  0
 48120  1  0  0  0
 49 50  1  0  0  0
 49 53  1  0  0  0
 49 64  1  0  0  0
 49121  1  0  0  0
 50 51  1  0  0  0
 50122  1  0  0  0
 50123  1  0  0  0
 51 52  1  0  0  0
 51124  1  0  0  0
 51125  1  0  0  0
 52126  1  0  0  0
 52127  1  0  0  0
 53 54  1  0  0  0
 54 55  2  0  0  0
 54128  1  0  0  0
 55 57  1  0  0  0
 55129  1  0  0  0
 56 69  2  0  0  0
 57 58  2  0  0  0
 57130  1  0  0  0
 58131  1  0  0  0
 59 60  1  0  0  0
 59 61  1  0  0  0
 59 62  1  0  0  0
 60132  1  0  0  0
 60133  1  0  0  0
 60134  1  0  0  0
 61135  1  0  0  0
 61136  1  0  0  0
 61137  1  0  0  0
 62138  1  0  0  0
 62139  1  0  0  0
 62140  1  0  0  0
 63 65  1  0  0  0
 63141  1  0  0  0
 63142  1  0  0  0
 63143  1  0  0  0
 64144  1  0  0  0
 65145  1  0  0  0
 68 85  1  0  0  0
 71 72  2  0  0  0
 71 73  1  0  0  0
 71146  1  0  0  0
 72 75  1  0  0  0
 72147  1  0  0  0
 73 76  2  0  0  0
 73148  1  0  0  0
 74 75  2  0  0  0
 74 76  1  0  0  0
 74149  1  0  0  0
 75 80  1  0  0  0
 76 83  1  0  0  0
 77 78  1  0  0  0
 77 79  1  0  0  0
 77150  1  0  0  0
 77151  1  0  0  0
 78 80  1  0  0  0
 78152  1  0  0  0
 78153  1  0  0  0
 79 81  1  0  0  0
 79154  1  0  0  0
 79155  1  0  0  0
 80 81  1  0  0  0
 80156  1  0  0  0
 81157  1  0  0  0
 82158  1  0  0  0
 82159  1  0  0  0
 82160  1  0  0  0
 82 86  1  0  0  0
 83 84  1  0  0  0
 83161  1  0  0  0
 83162  1  0  0  0
 84 86  1  0  0  0
 84163  1  0  0  0
 84164  1  0  0  0
 85 86  1  0  0  0
 85165  1  0  0  0
 85166  1  0  0  0
 86167  1  0  0  0
M  ISO  4   1 100  68 101  81 100  85 101
M  END
> <chiral flag>
0

> <version>
0

> <s_m_source_file>
/data/baiqing/PycharmProjects/Reinvent-master-3.2/result/LINK_invent/BTK/process_docking_weight1_custom_product_contain_oxygen_bond_distance_aromatic_linkinvent_7_9_3/rearranged_h_0133.sdf

> <i_m_source_file_index>
14

> <r_mmod_Potential_Energy-OPLS-2005>
136.398696899414

> <r_mmod_Stretch_Energy-OPLS-2005>
44.6555557250977

> <r_mmod_Bend_Energy-OPLS-2005>
124.505531311035

> <r_mmod_Torsional_Energy-OPLS-2005>
260.659729003906

> <r_mmod_Improper_Torsional_Energy-OPLS-2005>
7.6135458946228

> <r_mmod_Van_der_Waal_Energy-OPLS-2005>
150.716827392578

> <r_mmod_Electrostatic_Energy-OPLS-2005>
-295.224975585938

> <r_mmod_Solvation_Energy-OPLS-2005>
-177.033996582031

> <b_mmod_Minimization_Converged-OPLS-2005>
0

> <r_mmod_RMS_Derivative-OPLS-2005>
2.49352645874023

$$$$
14
                    3D
 Structure written by MMmdl.
159167  0  0  1  0            999 V2000
  -30.7228  -14.4305   20.6352 C   0  0  0  0  0  0
  -30.4295  -12.3188   19.3909 C   0  0  0  0  0  0
  -29.4853  -12.5229   18.1895 C   0  0  0  0  0  0
  -28.0133  -12.3664   18.6131 C   0  0  0  0  0  0
  -27.6668  -13.2000   19.8715 C   0  0  2  0  0  0
  -28.7075  -12.9562   20.9854 C   0  0  0  0  0  0
  -25.2643  -13.8152   20.5667 C   0  0  0  0  0  0
  -24.1875  -13.0434   20.9164 C   0  0  0  0  0  0
  -24.6428  -11.6903   20.8754 C   0  0  0  0  0  0
  -23.9101  -10.4287   21.0441 C   0  0  0  0  0  0
  -24.3638   -9.4203   21.9224 C   0  0  0  0  0  0
  -23.6299   -8.2242   22.0785 C   0  0  0  0  0  0
  -22.4286   -8.0298   21.3566 C   0  0  0  0  0  0
  -21.9951   -9.0274   20.4656 C   0  0  0  0  0  0
  -22.7290  -10.2148   20.3075 C   0  0  0  0  0  0
  -21.6850   -6.0745   22.5282 C   0  0  0  0  0  0
  -21.4003   -6.5644   23.8221 C   0  0  0  0  0  0
  -21.3658   -5.6802   24.9185 C   0  0  0  0  0  0
  -21.6039   -4.3064   24.7221 C   0  0  0  0  0  0
  -21.8832   -3.8156   23.4342 C   0  0  0  0  0  0
  -21.9189   -4.6974   22.3406 C   0  0  0  0  0  0
  -22.7913  -13.5250   21.1823 C   0  0  0  0  0  0
  -22.1675   -4.2162   21.0991 F   0  0  0  0  0  0
  -21.5635   -3.4546   25.7738 F   0  0  0  0  0  0
  -30.0359  -13.2747   20.4369 N   0  0  0  0  0  0
  -26.3061  -12.9308   20.3347 N   0  0  0  0  0  0
  -25.9339  -11.6475   20.5748 N   0  0  0  0  0  0
  -22.0519  -12.8238   22.0366 N   0  0  0  0  0  0
  -25.4471  -15.1840   20.4113 N   0  0  0  0  0  0
  -31.8127  -14.6637   20.1054 O   0  0  0  0  0  0
  -21.6640   -6.8895   21.4252 O   0  0  0  0  0  0
  -22.3622  -14.5545   20.6653 O   0  0  0  0  0  0
  -24.6101  -31.8720   23.2129 C   0  0  0  0  0  0
  -25.9002  -32.4837   23.8430 C   0  0  1  0  0  0
  -27.2549  -27.4657   20.1083 C   0  0  0  0  0  0
  -25.5879  -33.8644   24.2371 N   0  0  0  0  0  0
  -23.3989  -30.4934   21.5515 C   0  0  2  0  0  0
  -24.8544  -28.9643   20.1195 C   0  0  0  0  0  0
  -22.7399  -29.4663   22.4996 C   0  0  0  0  0  0
  -18.0269  -28.1365   22.8484 C   0  0  0  0  0  0
  -24.1500  -36.7329   23.2640 C   0  0  0  0  0  0
  -25.9248  -30.8458   21.3648 C   0  0  0  0  0  0
  -26.0097  -29.4791   20.7234 C   0  0  0  0  0  0
  -27.2121  -28.7386   20.7231 C   0  0  0  0  0  0
  -26.0831  -26.9625   19.5035 C   0  0  0  0  0  0
  -24.8840  -27.7010   19.5064 C   0  0  0  0  0  0
  -23.6104  -29.8245   20.1656 C   0  0  0  0  0  0
  -25.4114  -36.3126   24.0351 C   0  0  1  0  0  0
  -20.5852  -28.3633   23.1322 C   0  0  2  0  0  0
  -20.6752  -26.9374   22.5410 C   0  0  0  0  0  0
  -19.5732  -26.6361   21.5211 C   0  0  0  0  0  0
  -18.1907  -26.7915   22.1602 C   0  0  0  0  0  0
  -19.1514  -28.8822   23.2904 C   0  0  0  0  0  0
  -18.9445  -30.1430   23.8913 C   0  0  0  0  0  0
  -17.6446  -30.6570   24.0567 C   0  0  0  0  0  0
  -25.9021  -34.9489   23.5151 C   0  0  0  0  0  0
  -16.5340  -29.9078   23.6307 C   0  0  0  0  0  0
  -16.7260  -28.6493   23.0335 C   0  0  0  0  0  0
  -26.4457  -31.6583   25.0726 C   0  0  0  0  0  0
  -25.3720  -31.3657   26.1459 C   0  0  0  0  0  0
  -27.0287  -30.3042   24.6044 C   0  0  0  0  0  0
  -27.6042  -32.4290   25.7501 C   0  0  0  0  0  0
  -27.5598  -37.1821   24.8466 C   0  0  0  0  0  0
  -21.4130  -29.3003   22.3722 N   0  0  0  0  0  0
  -26.4311  -37.3798   23.9403 N   0  0  0  0  0  0
  -24.6623  -31.0846   22.1022 N   0  0  0  0  0  0
  -23.4177  -28.8207   23.3030 O   0  0  0  0  0  0
  -28.3700  -26.6592   20.0248 O   0  0  0  0  0  0
  -26.5575  -34.8923   22.4704 O   0  0  0  0  0  0
  -23.5300  -32.1454   23.7543 O   0  0  0  0  0  0
  -31.3851  -20.1195   20.9152 C   0  0  0  0  0  0
  -29.1962  -19.4657   20.0952 C   0  0  0  0  0  0
  -31.5613  -18.8281   21.4536 C   0  0  0  0  0  0
  -29.3740  -18.1671   20.6271 C   0  0  0  0  0  0
  -30.1896  -20.4604   20.2485 C   0  0  0  0  0  0
  -30.5582  -17.8430   21.3285 C   0  0  0  0  0  0
  -29.9488  -21.8730   19.7013 C   0  0  0  0  0  0
  -30.7601  -16.4983   22.0338 C   0  0  0  0  0  0
  -30.6030  -23.0329   20.5018 C   0  0  0  0  0  0
  -30.0703  -24.4283   20.0892 C   0  0  0  0  0  0
  -30.1580  -25.5085   21.1986 C   0  0  0  0  0  0
  -29.5304  -26.8785   20.8284 C   0  0  0  0  0  0
  -30.1250  -15.3216   21.4405 N   0  0  0  0  0  0
  -31.4677  -12.4439   19.0811 H   0  0  0  0  0  0
  -30.3566  -11.2976   19.7688 H   0  0  0  0  0  0
  -29.7232  -11.8157   17.3934 H   0  0  0  0  0  0
  -29.6382  -13.5152   17.7662 H   0  0  0  0  0  0
  -27.8429  -11.3103   18.8194 H   0  0  0  0  0  0
  -27.3504  -12.6326   17.7886 H   0  0  0  0  0  0
  -27.7198  -14.2487   19.5796 H   0  0  0  0  0  0
  -28.6867  -11.9107   21.2959 H   0  0  0  0  0  0
  -28.4586  -13.5216   21.8847 H   0  0  0  0  0  0
  -25.2785   -9.5642   22.4812 H   0  0  0  0  0  0
  -23.9989   -7.4628   22.7506 H   0  0  0  0  0  0
  -21.0910   -8.8804   19.8941 H   0  0  0  0  0  0
  -22.3800  -10.9693   19.6174 H   0  0  0  0  0  0
  -21.1998   -7.6156   23.9721 H   0  0  0  0  0  0
  -21.1473   -6.0540   25.9094 H   0  0  0  0  0  0
  -22.0610   -2.7619   23.2844 H   0  0  0  0  0  0
  -22.4081  -11.9893   22.4760 H   0  0  0  0  0  0
  -21.1128  -13.1283   22.2505 H   0  0  0  0  0  0
  -24.6954  -15.8560   20.5180 H   0  0  0  0  0  0
  -26.3136  -15.6077   20.1025 H   0  0  0  0  0  0
  -26.7084  -32.5596   23.1222 H   0  0  0  0  0  0
  -25.0116  -33.9829   25.0564 H   0  0  0  0  0  0
  -22.6847  -31.3077   21.4129 H   0  0  0  0  0  0
  -23.3763  -35.9660   23.3312 H   0  0  0  0  0  0
  -24.3606  -36.8923   22.2052 H   0  0  0  0  0  0
  -23.7248  -37.6537   23.6646 H   0  0  0  0  0  0
  -26.0269  -31.6075   20.5898 H   0  0  0  0  0  0
  -26.8159  -30.9104   21.9781 H   0  0  0  0  0  0
  -28.0917  -29.1593   21.1882 H   0  0  0  0  0  0
  -26.1030  -25.9906   19.0323 H   0  0  0  0  0  0
  -24.0012  -27.2972   19.0323 H   0  0  0  0  0  0
  -23.7094  -30.5997   19.4043 H   0  0  0  0  0  0
  -22.7381  -29.2367   19.8738 H   0  0  0  0  0  0
  -25.1292  -36.2022   25.0848 H   0  0  0  0  0  0
  -20.9957  -28.3195   24.1441 H   0  0  0  0  0  0
  -20.5659  -26.2241   23.3585 H   0  0  0  0  0  0
  -21.6616  -26.7416   22.1207 H   0  0  0  0  0  0
  -19.6882  -25.6280   21.1234 H   0  0  0  0  0  0
  -19.6677  -27.3165   20.6748 H   0  0  0  0  0  0
  -17.4184  -26.6689   21.3998 H   0  0  0  0  0  0
  -18.0276  -26.0051   22.8986 H   0  0  0  0  0  0
  -19.7928  -30.7240   24.2279 H   0  0  0  0  0  0
  -17.5008  -31.6253   24.5167 H   0  0  0  0  0  0
  -15.5347  -30.2992   23.7620 H   0  0  0  0  0  0
  -15.8654  -28.0838   22.7017 H   0  0  0  0  0  0
  -24.5916  -30.6980   25.7793 H   0  0  0  0  0  0
  -24.8870  -32.2789   26.4930 H   0  0  0  0  0  0
  -25.8071  -30.8825   27.0210 H   0  0  0  0  0  0
  -26.2809  -29.6804   24.1130 H   0  0  0  0  0  0
  -27.4118  -29.7283   25.4478 H   0  0  0  0  0  0
  -27.8622  -30.4403   23.9144 H   0  0  0  0  0  0
  -27.2649  -33.3559   26.2158 H   0  0  0  0  0  0
  -28.3816  -32.6889   25.0296 H   0  0  0  0  0  0
  -28.0731  -31.8338   26.5351 H   0  0  0  0  0  0
  -28.2618  -38.0120   24.7528 H   0  0  0  0  0  0
  -28.1098  -36.2656   24.6292 H   0  0  0  0  0  0
  -27.2316  -37.1460   25.8866 H   0  0  0  0  0  0
  -20.9270  -29.8734   21.6965 H   0  0  0  0  0  0
  -26.0225  -38.2893   24.1368 H   0  0  0  0  0  0
  -32.1740  -20.8480   21.0448 H   0  0  0  0  0  0
  -28.2746  -19.7012   19.5819 H   0  0  0  0  0  0
  -32.4695  -18.6013   21.9947 H   0  0  0  0  0  0
  -28.5817  -17.4397   20.5216 H   0  0  0  0  0  0
  -28.8683  -22.0309   19.6897 H   0  0  0  0  0  0
  -30.2680  -21.9134   18.6594 H   0  0  0  0  0  0
  -30.3561  -16.6053   23.0426 H   0  0  0  0  0  0
  -31.8279  -16.3144   22.1674 H   0  0  0  0  0  0
  -31.6880  -23.0107   20.3882 H   0  0  0  0  0  0
  -30.3982  -22.8765   21.5620 H   0  0  0  0  0  0
  -29.0229  -24.3174   19.8073 H   0  0  0  0  0  0
  -30.5844  -24.7729   19.1907 H   0  0  0  0  0  0
  -31.1972  -25.6584   21.4986 H   0  0  0  0  0  0
  -29.6512  -25.1293   22.0859 H   0  0  0  0  0  0
  -30.2433  -27.4869   20.2695 H   0  0  0  0  0  0
  -29.3061  -27.4121   21.7532 H   0  0  0  0  0  0
  -29.2151  -15.0706   21.7943 H   0  0  0  0  0  0
  1 25  1  0  0  0
  1 30  2  0  0  0
  1 83  1  0  0  0
  2  3  1  0  0  0
  2 25  1  0  0  0
  2 84  1  0  0  0
  2 85  1  0  0  0
  3  4  1  0  0  0
  3 86  1  0  0  0
  3 87  1  0  0  0
  4  5  1  0  0  0
  4 88  1  0  0  0
  4 89  1  0  0  0
  5  6  1  0  0  0
  5 26  1  0  0  0
  5 90  1  0  0  0
  6 25  1  0  0  0
  6 91  1  0  0  0
  6 92  1  0  0  0
  7  8  2  0  0  0
  7 26  1  0  0  0
  7 29  1  0  0  0
  8  9  1  0  0  0
  8 22  1  0  0  0
  9 10  1  0  0  0
  9 27  2  0  0  0
 10 11  2  0  0  0
 10 15  1  0  0  0
 11 12  1  0  0  0
 11 93  1  0  0  0
 12 13  2  0  0  0
 12 94  1  0  0  0
 13 14  1  0  0  0
 13 31  1  0  0  0
 14 15  2  0  0  0
 14 95  1  0  0  0
 15 96  1  0  0  0
 16 17  2  0  0  0
 16 21  1  0  0  0
 16 31  1  0  0  0
 17 18  1  0  0  0
 17 97  1  0  0  0
 18 19  2  0  0  0
 18 98  1  0  0  0
 19 20  1  0  0  0
 19 24  1  0  0  0
 20 21  2  0  0  0
 20 99  1  0  0  0
 21 23  1  0  0  0
 22 28  1  0  0  0
 22 32  2  0  0  0
 26 27  1  0  0  0
 28100  1  0  0  0
 28101  1  0  0  0
 29102  1  0  0  0
 29103  1  0  0  0
 33 34  1  0  0  0
 33 66  1  0  0  0
 33 70  2  0  0  0
 34 36  1  0  0  0
 34 59  1  0  0  0
 34104  1  0  0  0
 35 44  2  0  0  0
 35 45  1  0  0  0
 35 68  1  0  0  0
 36 56  1  0  0  0
 36105  1  0  0  0
 37 39  1  0  0  0
 37 47  1  0  0  0
 37 66  1  0  0  0
 37106  1  0  0  0
 38 43  2  0  0  0
 38 46  1  0  0  0
 38 47  1  0  0  0
 39 64  1  0  0  0
 39 67  2  0  0  0
 40 52  1  0  0  0
 40 53  2  0  0  0
 40 58  1  0  0  0
 41107  1  0  0  0
 41108  1  0  0  0
 41109  1  0  0  0
 41 48  1  0  0  0
 42 43  1  0  0  0
 42 66  1  0  0  0
 42110  1  0  0  0
 42111  1  0  0  0
 43 44  1  0  0  0
 44112  1  0  0  0
 45 46  2  0  0  0
 45113  1  0  0  0
 46114  1  0  0  0
 47115  1  0  0  0
 47116  1  0  0  0
 48 56  1  0  0  0
 48 65  1  0  0  0
 48117  1  0  0  0
 49 50  1  0  0  0
 49 53  1  0  0  0
 49 64  1  0  0  0
 49118  1  0  0  0
 50 51  1  0  0  0
 50119  1  0  0  0
 50120  1  0  0  0
 51 52  1  0  0  0
 51121  1  0  0  0
 51122  1  0  0  0
 52123  1  0  0  0
 52124  1  0  0  0
 53 54  1  0  0  0
 54 55  2  0  0  0
 54125  1  0  0  0
 55 57  1  0  0  0
 55126  1  0  0  0
 56 69  2  0  0  0
 57 58  2  0  0  0
 57127  1  0  0  0
 58128  1  0  0  0
 59 60  1  0  0  0
 59 61  1  0  0  0
 59 62  1  0  0  0
 60129  1  0  0  0
 60130  1  0  0  0
 60131  1  0  0  0
 61132  1  0  0  0
 61133  1  0  0  0
 61134  1  0  0  0
 62135  1  0  0  0
 62136  1  0  0  0
 62137  1  0  0  0
 63 65  1  0  0  0
 63138  1  0  0  0
 63139  1  0  0  0
 63140  1  0  0  0
 64141  1  0  0  0
 65142  1  0  0  0
 68 82  1  0  0  0
 71 73  2  0  0  0
 71 75  1  0  0  0
 71143  1  0  0  0
 72 74  1  0  0  0
 72 75  2  0  0  0
 72144  1  0  0  0
 73 76  1  0  0  0
 73145  1  0  0  0
 74 76  2  0  0  0
 74146  1  0  0  0
 75 77  1  0  0  0
 76 78  1  0  0  0
 77 79  1  0  0  0
 77147  1  0  0  0
 77148  1  0  0  0
 78 83  1  0  0  0
 78149  1  0  0  0
 78150  1  0  0  0
 79 80  1  0  0  0
 79151  1  0  0  0
 79152  1  0  0  0
 80 81  1  0  0  0
 80153  1  0  0  0
 80154  1  0  0  0
 81 82  1  0  0  0
 81155  1  0  0  0
 81156  1  0  0  0
 82157  1  0  0  0
 82158  1  0  0  0
 83159  1  0  0  0
M  ISO  4   1 100  68 101  82 101  83 100
M  END
> <chiral flag>
0

> <version>
0

> <s_m_source_file>
/data/baiqing/PycharmProjects/Reinvent-master-3.2/result/LINK_invent/BTK/process_docking_weight1_custom_product_contain_oxygen_bond_distance_aromatic_linkinvent_7_9_3/rearranged_h_0133.sdf

> <i_m_source_file_index>
15

> <r_mmod_Potential_Energy-OPLS-2005>
-98.8216247558594

> <r_mmod_Stretch_Energy-OPLS-2005>
35.1044502258301

> <r_mmod_Bend_Energy-OPLS-2005>
104.966659545898

> <r_mmod_Torsional_Energy-OPLS-2005>
198.183517456055

> <r_mmod_Improper_Torsional_Energy-OPLS-2005>
2.13797307014465

> <r_mmod_Van_der_Waal_Energy-OPLS-2005>
153.84602355957

> <r_mmod_Electrostatic_Energy-OPLS-2005>
-394.142700195312

> <r_mmod_Solvation_Energy-OPLS-2005>
-207.239608764648

> <b_mmod_Minimization_Converged-OPLS-2005>
0

> <r_mmod_RMS_Derivative-OPLS-2005>
3.78497719764709

$$$$
15
                    3D
 Structure written by MMmdl.
153162  0  0  1  0            999 V2000
  -30.6414  -14.7469   20.4598 C   0  0  0  0  0  0
  -30.4203  -12.4596   19.4728 C   0  0  0  0  0  0
  -29.5025  -12.5055   18.2332 C   0  0  0  0  0  0
  -28.0297  -12.3337   18.6500 C   0  0  0  0  0  0
  -27.6373  -13.2372   19.8506 C   0  0  2  0  0  0
  -28.6845  -13.1804   20.9836 C   0  0  0  0  0  0
  -25.2481  -13.8211   20.5702 C   0  0  0  0  0  0
  -24.1786  -13.0444   20.9217 C   0  0  0  0  0  0
  -24.6390  -11.6926   20.8763 C   0  0  0  0  0  0
  -23.9071  -10.4296   21.0413 C   0  0  0  0  0  0
  -24.3621   -9.4209   21.9187 C   0  0  0  0  0  0
  -23.6294   -8.2244   22.0756 C   0  0  0  0  0  0
  -22.4278   -8.0282   21.3544 C   0  0  0  0  0  0
  -21.9915   -9.0255   20.4646 C   0  0  0  0  0  0
  -22.7244  -10.2135   20.3058 C   0  0  0  0  0  0
  -21.6853   -6.0736   22.5278 C   0  0  0  0  0  0
  -21.4015   -6.5640   23.8211 C   0  0  0  0  0  0
  -21.3660   -5.6793   24.9174 C   0  0  0  0  0  0
  -21.6043   -4.3055   24.7224 C   0  0  0  0  0  0
  -21.8819   -3.8147   23.4346 C   0  0  0  0  0  0
  -21.9193   -4.6964   22.3401 C   0  0  0  0  0  0
  -22.7807  -13.5218   21.1870 C   0  0  0  0  0  0
  -22.1661   -4.2150   21.0979 F   0  0  0  0  0  0
  -21.5630   -3.4539   25.7738 F   0  0  0  0  0  0
  -29.9751  -13.5400   20.3873 N   0  0  0  0  0  0
  -26.2916  -12.9432   20.3306 N   0  0  0  0  0  0
  -25.9323  -11.6568   20.5780 N   0  0  0  0  0  0
  -22.0460  -12.8202   22.0426 N   0  0  0  0  0  0
  -25.4143  -15.1931   20.4088 N   0  0  0  0  0  0
  -31.8394  -14.7659   20.1555 O   0  0  0  0  0  0
  -21.6641   -6.8878   21.4239 O   0  0  0  0  0  0
  -22.3489  -14.5521   20.6716 O   0  0  0  0  0  0
  -24.6317  -31.8548   23.1975 C   0  0  0  0  0  0
  -25.9143  -32.4748   23.8320 C   0  0  1  0  0  0
  -27.2171  -27.2543   20.1178 C   0  0  0  0  0  0
  -25.5937  -33.8551   24.2242 N   0  0  0  0  0  0
  -23.4275  -30.4781   21.5416 C   0  0  2  0  0  0
  -24.8723  -28.9247   20.1076 C   0  0  0  0  0  0
  -22.7499  -29.4604   22.4911 C   0  0  0  0  0  0
  -18.0289  -28.1388   22.8488 C   0  0  0  0  0  0
  -24.1489  -36.7279   23.2640 C   0  0  0  0  0  0
  -25.9741  -30.7646   21.3780 C   0  0  0  0  0  0
  -26.0440  -29.3870   20.7182 C   0  0  0  0  0  0
  -27.2150  -28.5626   20.7149 C   0  0  0  0  0  0
  -26.0148  -26.8574   19.4884 C   0  0  0  0  0  0
  -24.8634  -27.6685   19.4844 C   0  0  0  0  0  0
  -23.6440  -29.8127   20.1572 C   0  0  0  0  0  0
  -25.4117  -36.3065   24.0324 C   0  0  1  0  0  0
  -20.5895  -28.3702   23.1271 C   0  0  2  0  0  0
  -20.6777  -26.9420   22.5411 C   0  0  0  0  0  0
  -19.5753  -26.6386   21.5215 C   0  0  0  0  0  0
  -18.1932  -26.7931   22.1625 C   0  0  0  0  0  0
  -19.1543  -28.8861   23.2874 C   0  0  0  0  0  0
  -18.9465  -30.1461   23.8895 C   0  0  0  0  0  0
  -17.6464  -30.6591   24.0563 C   0  0  0  0  0  0
  -25.9062  -34.9437   23.5087 C   0  0  0  0  0  0
  -16.5356  -29.9088   23.6332 C   0  0  0  0  0  0
  -16.7276  -28.6503   23.0359 C   0  0  0  0  0  0
  -26.4505  -31.6580   25.0716 C   0  0  0  0  0  0
  -25.3721  -31.3732   26.1431 C   0  0  0  0  0  0
  -27.0359  -30.2996   24.6216 C   0  0  0  0  0  0
  -27.6054  -32.4326   25.7493 C   0  0  0  0  0  0
  -27.5579  -37.1794   24.8464 C   0  0  0  0  0  0
  -21.4206  -29.3047   22.3656 N   0  0  0  0  0  0
  -26.4288  -37.3768   23.9412 N   0  0  0  0  0  0
  -24.6970  -31.0507   22.0953 N   0  0  0  0  0  0
  -23.4199  -28.8148   23.3013 O   0  0  0  0  0  0
  -28.3260  -26.3777   20.2033 O   0  0  0  0  0  0
  -26.5640  -34.8916   22.4660 O   0  0  0  0  0  0
  -23.5469  -32.1375   23.7272 O   0  0  0  0  0  0
  -28.1632  -19.0610   21.8369 C   0  0  0  0  0  0
  -28.1943  -20.4203   21.3844 C   0  0  0  0  0  0
  -29.7470  -19.7826   19.6375 C   0  0  0  0  0  0
  -28.9202  -18.0611   21.1753 C   0  0  0  0  0  0
  -29.7027  -18.4186   20.1017 C   0  0  0  0  0  0
  -28.9787  -20.8357   20.2678 C   0  0  0  0  0  0
  -28.5654  -23.6903   20.3963 C   0  0  0  0  0  0
  -29.0179  -16.5401   21.4366 C   0  0  0  0  0  0
  -30.3968  -17.1394   19.5912 C   0  0  0  0  0  0
  -28.9367  -22.3169   19.6469 C   0  0  0  0  0  0
  -28.3844  -25.0307   19.5278 C   0  0  0  0  0  0
  -29.9304  -15.9521   20.4056 N   0  0  0  0  0  0
  -28.4291  -23.7207   21.6239 O   0  0  0  0  0  0
  -31.4622  -12.5657   19.1665 H   0  0  0  0  0  0
  -30.3561  -11.4886   19.9663 H   0  0  0  0  0  0
  -29.7839  -11.7264   17.5232 H   0  0  0  0  0  0
  -29.6302  -13.4563   17.7132 H   0  0  0  0  0  0
  -27.8868  -11.2858   18.9162 H   0  0  0  0  0  0
  -27.3710  -12.5234   17.8018 H   0  0  0  0  0  0
  -27.6282  -14.2579   19.4674 H   0  0  0  0  0  0
  -28.7276  -12.1832   21.4239 H   0  0  0  0  0  0
  -28.4230  -13.8572   21.7964 H   0  0  0  0  0  0
  -25.2765   -9.5685   22.4765 H   0  0  0  0  0  0
  -24.0003   -7.4635   22.7475 H   0  0  0  0  0  0
  -21.0848   -8.8773   19.8949 H   0  0  0  0  0  0
  -22.3701  -10.9675   19.6170 H   0  0  0  0  0  0
  -21.2005   -7.6147   23.9714 H   0  0  0  0  0  0
  -21.1483   -6.0524   25.9076 H   0  0  0  0  0  0
  -22.0596   -2.7609   23.2847 H   0  0  0  0  0  0
  -22.4088  -11.9866   22.4812 H   0  0  0  0  0  0
  -21.1075  -13.1218   22.2636 H   0  0  0  0  0  0
  -24.6425  -15.8425   20.5129 H   0  0  0  0  0  0
  -26.2557  -15.6331   20.0589 H   0  0  0  0  0  0
  -26.7209  -32.5392   23.1059 H   0  0  0  0  0  0
  -25.0068  -33.9685   25.0377 H   0  0  0  0  0  0
  -22.7243  -31.3008   21.3966 H   0  0  0  0  0  0
  -23.3756  -35.9607   23.3294 H   0  0  0  0  0  0
  -24.3577  -36.8915   22.2056 H   0  0  0  0  0  0
  -23.7240  -37.6474   23.6675 H   0  0  0  0  0  0
  -26.1155  -31.5259   20.6093 H   0  0  0  0  0  0
  -26.8509  -30.8116   22.0124 H   0  0  0  0  0  0
  -28.1113  -28.9109   21.2088 H   0  0  0  0  0  0
  -25.9057  -25.8937   19.0199 H   0  0  0  0  0  0
  -23.9625  -27.3058   19.0086 H   0  0  0  0  0  0
  -23.7680  -30.5891   19.4016 H   0  0  0  0  0  0
  -22.7613  -29.2472   19.8529 H   0  0  0  0  0  0
  -25.1299  -36.1905   25.0816 H   0  0  0  0  0  0
  -20.9988  -28.3286   24.1392 H   0  0  0  0  0  0
  -20.5679  -26.2314   23.3617 H   0  0  0  0  0  0
  -21.6645  -26.7444   22.1206 H   0  0  0  0  0  0
  -19.6915  -25.6296   21.1248 H   0  0  0  0  0  0
  -19.6688  -27.3193   20.6742 H   0  0  0  0  0  0
  -17.4201  -26.6683   21.4027 H   0  0  0  0  0  0
  -18.0330  -26.0072   22.9019 H   0  0  0  0  0  0
  -19.7941  -30.7278   24.2267 H   0  0  0  0  0  0
  -17.5018  -31.6271   24.5166 H   0  0  0  0  0  0
  -15.5357  -30.2991   23.7657 H   0  0  0  0  0  0
  -15.8676  -28.0820   22.7082 H   0  0  0  0  0  0
  -24.5910  -30.7067   25.7755 H   0  0  0  0  0  0
  -24.8895  -32.2901   26.4826 H   0  0  0  0  0  0
  -25.8031  -30.8932   27.0226 H   0  0  0  0  0  0
  -26.2949  -29.6733   24.1235 H   0  0  0  0  0  0
  -27.4031  -29.7269   25.4744 H   0  0  0  0  0  0
  -27.8829  -30.4265   23.9470 H   0  0  0  0  0  0
  -27.2662  -33.3639   26.2040 H   0  0  0  0  0  0
  -28.3880  -32.6865   25.0330 H   0  0  0  0  0  0
  -28.0705  -31.8471   26.5434 H   0  0  0  0  0  0
  -28.2588  -38.0100   24.7523 H   0  0  0  0  0  0
  -28.1085  -36.2631   24.6275 H   0  0  0  0  0  0
  -27.2299  -37.1422   25.8867 H   0  0  0  0  0  0
  -20.9393  -29.8770   21.6860 H   0  0  0  0  0  0
  -26.0163  -38.2839   24.1420 H   0  0  0  0  0  0
  -27.5399  -18.7930   22.6790 H   0  0  0  0  0  0
  -27.5786  -21.1470   21.8965 H   0  0  0  0  0  0
  -30.3525  -20.0176   18.7725 H   0  0  0  0  0  0
  -28.0256  -16.0964   21.3655 H   0  0  0  0  0  0
  -29.4038  -16.3540   22.4399 H   0  0  0  0  0  0
  -31.4775  -17.2682   19.6672 H   0  0  0  0  0  0
  -30.1545  -16.9803   18.5398 H   0  0  0  0  0  0
  -28.2586  -22.2607   18.7957 H   0  0  0  0  0  0
  -29.9189  -22.4893   19.2073 H   0  0  0  0  0  0
  -27.5615  -24.8676   18.8393 H   0  0  0  0  0  0
  -29.2602  -25.0733   18.8807 H   0  0  0  0  0  0
  1 25  1  0  0  0
  1 30  2  0  0  0
  1 82  1  0  0  0
  2  3  1  0  0  0
  2 25  1  0  0  0
  2 84  1  0  0  0
  2 85  1  0  0  0
  3  4  1  0  0  0
  3 86  1  0  0  0
  3 87  1  0  0  0
  4  5  1  0  0  0
  4 88  1  0  0  0
  4 89  1  0  0  0
  5  6  1  0  0  0
  5 26  1  0  0  0
  5 90  1  0  0  0
  6 25  1  0  0  0
  6 91  1  0  0  0
  6 92  1  0  0  0
  7  8  2  0  0  0
  7 26  1  0  0  0
  7 29  1  0  0  0
  8  9  1  0  0  0
  8 22  1  0  0  0
  9 10  1  0  0  0
  9 27  2  0  0  0
 10 11  2  0  0  0
 10 15  1  0  0  0
 11 12  1  0  0  0
 11 93  1  0  0  0
 12 13  2  0  0  0
 12 94  1  0  0  0
 13 14  1  0  0  0
 13 31  1  0  0  0
 14 15  2  0  0  0
 14 95  1  0  0  0
 15 96  1  0  0  0
 16 17  2  0  0  0
 16 21  1  0  0  0
 16 31  1  0  0  0
 17 18  1  0  0  0
 17 97  1  0  0  0
 18 19  2  0  0  0
 18 98  1  0  0  0
 19 20  1  0  0  0
 19 24  1  0  0  0
 20 21  2  0  0  0
 20 99  1  0  0  0
 21 23  1  0  0  0
 22 28  1  0  0  0
 22 32  2  0  0  0
 26 27  1  0  0  0
 28100  1  0  0  0
 28101  1  0  0  0
 29102  1  0  0  0
 29103  1  0  0  0
 33 34  1  0  0  0
 33 66  1  0  0  0
 33 70  2  0  0  0
 34 36  1  0  0  0
 34 59  1  0  0  0
 34104  1  0  0  0
 35 44  2  0  0  0
 35 45  1  0  0  0
 35 68  1  0  0  0
 36 56  1  0  0  0
 36105  1  0  0  0
 37 39  1  0  0  0
 37 47  1  0  0  0
 37 66  1  0  0  0
 37106  1  0  0  0
 38 43  2  0  0  0
 38 46  1  0  0  0
 38 47  1  0  0  0
 39 64  1  0  0  0
 39 67  2  0  0  0
 40 52  1  0  0  0
 40 53  2  0  0  0
 40 58  1  0  0  0
 41107  1  0  0  0
 41108  1  0  0  0
 41109  1  0  0  0
 41 48  1  0  0  0
 42 43  1  0  0  0
 42 66  1  0  0  0
 42110  1  0  0  0
 42111  1  0  0  0
 43 44  1  0  0  0
 44112  1  0  0  0
 45 46  2  0  0  0
 45113  1  0  0  0
 46114  1  0  0  0
 47115  1  0  0  0
 47116  1  0  0  0
 48 56  1  0  0  0
 48 65  1  0  0  0
 48117  1  0  0  0
 49 50  1  0  0  0
 49 53  1  0  0  0
 49 64  1  0  0  0
 49118  1  0  0  0
 50 51  1  0  0  0
 50119  1  0  0  0
 50120  1  0  0  0
 51 52  1  0  0  0
 51121  1  0  0  0
 51122  1  0  0  0
 52123  1  0  0  0
 52124  1  0  0  0
 53 54  1  0  0  0
 54 55  2  0  0  0
 54125  1  0  0  0
 55 57  1  0  0  0
 55126  1  0  0  0
 56 69  2  0  0  0
 57 58  2  0  0  0
 57127  1  0  0  0
 58128  1  0  0  0
 59 60  1  0  0  0
 59 61  1  0  0  0
 59 62  1  0  0  0
 60129  1  0  0  0
 60130  1  0  0  0
 60131  1  0  0  0
 61132  1  0  0  0
 61133  1  0  0  0
 61134  1  0  0  0
 62135  1  0  0  0
 62136  1  0  0  0
 62137  1  0  0  0
 63 65  1  0  0  0
 63138  1  0  0  0
 63139  1  0  0  0
 63140  1  0  0  0
 64141  1  0  0  0
 65142  1  0  0  0
 68 81  1  0  0  0
 71 72  2  0  0  0
 71 74  1  0  0  0
 71143  1  0  0  0
 72 76  1  0  0  0
 72144  1  0  0  0
 73 75  1  0  0  0
 73 76  2  0  0  0
 73145  1  0  0  0
 74 75  2  0  0  0
 74 78  1  0  0  0
 75 79  1  0  0  0
 76 80  1  0  0  0
 77 80  1  0  0  0
 77 81  1  0  0  0
 77 83  2  0  0  0
 78 82  1  0  0  0
 78146  1  0  0  0
 78147  1  0  0  0
 79 82  1  0  0  0
 79148  1  0  0  0
 79149  1  0  0  0
 80150  1  0  0  0
 80151  1  0  0  0
 81152  1  0  0  0
 81153  1  0  0  0
M  ISO  4   1 100  68 101  81 101  82 100
M  END
> <chiral flag>
0

> <version>
0

> <s_m_source_file>
/data/baiqing/PycharmProjects/Reinvent-master-3.2/result/LINK_invent/BTK/process_docking_weight1_custom_product_contain_oxygen_bond_distance_aromatic_linkinvent_7_9_3/rearranged_h_0133.sdf

> <i_m_source_file_index>
16

> <r_mmod_Potential_Energy-OPLS-2005>
308.153228759766

> <r_mmod_Stretch_Energy-OPLS-2005>
123.044921875

> <r_mmod_Bend_Energy-OPLS-2005>
225.013488769531

> <r_mmod_Torsional_Energy-OPLS-2005>
243.541931152344

> <r_mmod_Improper_Torsional_Energy-OPLS-2005>
16.4168834686279

> <r_mmod_Van_der_Waal_Energy-OPLS-2005>
129.679428100586

> <r_mmod_Electrostatic_Energy-OPLS-2005>
-287.077087402344

> <r_mmod_Solvation_Energy-OPLS-2005>
-229.217330932617

> <b_mmod_Minimization_Converged-OPLS-2005>
0

> <r_mmod_RMS_Derivative-OPLS-2005>
0.367764681577682

$$$$
16
                    3D
 Structure written by MMmdl.
161169  0  0  1  0            999 V2000
  -30.7794  -14.4597   20.5053 C   0  0  0  0  0  0
  -30.4028  -12.2782   19.4685 C   0  0  0  0  0  0
  -29.5001  -12.4748   18.2288 C   0  0  0  0  0  0
  -28.0160  -12.3685   18.6298 C   0  0  0  0  0  0
  -27.6547  -13.2348   19.8670 C   0  0  2  0  0  0
  -28.7029  -13.0762   20.9964 C   0  0  0  0  0  0
  -25.2513  -13.8224   20.5773 C   0  0  0  0  0  0
  -24.1805  -13.0452   20.9212 C   0  0  0  0  0  0
  -24.6395  -11.6915   20.8774 C   0  0  0  0  0  0
  -23.9066  -10.4311   21.0410 C   0  0  0  0  0  0
  -24.3612   -9.4208   21.9188 C   0  0  0  0  0  0
  -23.6289   -8.2236   22.0741 C   0  0  0  0  0  0
  -22.4263   -8.0280   21.3527 C   0  0  0  0  0  0
  -21.9903   -9.0247   20.4636 C   0  0  0  0  0  0
  -22.7238  -10.2144   20.3055 C   0  0  0  0  0  0
  -21.6846   -6.0737   22.5275 C   0  0  0  0  0  0
  -21.4015   -6.5633   23.8217 C   0  0  0  0  0  0
  -21.3671   -5.6792   24.9177 C   0  0  0  0  0  0
  -21.6033   -4.3038   24.7220 C   0  0  0  0  0  0
  -21.8818   -3.8142   23.4345 C   0  0  0  0  0  0
  -21.9186   -4.6963   22.3402 C   0  0  0  0  0  0
  -22.7803  -13.5193   21.1862 C   0  0  0  0  0  0
  -22.1636   -4.2142   21.0986 F   0  0  0  0  0  0
  -21.5640   -3.4529   25.7740 F   0  0  0  0  0  0
  -30.0364  -13.3212   20.4385 N   0  0  0  0  0  0
  -26.3011  -12.9481   20.3431 N   0  0  0  0  0  0
  -25.9349  -11.6601   20.5838 N   0  0  0  0  0  0
  -22.0430  -12.8212   22.0435 N   0  0  0  0  0  0
  -25.4182  -15.1967   20.4261 N   0  0  0  0  0  0
  -31.9600  -14.4506   20.1531 O   0  0  0  0  0  0
  -21.6607   -6.8864   21.4236 O   0  0  0  0  0  0
  -22.3475  -14.5478   20.6680 O   0  0  0  0  0  0
  -24.6186  -31.8713   23.2125 C   0  0  0  0  0  0
  -25.9070  -32.4850   23.8429 C   0  0  1  0  0  0
  -27.2210  -27.4232   20.0615 C   0  0  0  0  0  0
  -25.5908  -33.8651   24.2347 N   0  0  0  0  0  0
  -23.4064  -30.4992   21.5537 C   0  0  2  0  0  0
  -24.8421  -28.9697   20.1208 C   0  0  0  0  0  0
  -22.7415  -29.4726   22.4972 C   0  0  0  0  0  0
  -18.0285  -28.1390   22.8476 C   0  0  0  0  0  0
  -24.1483  -36.7347   23.2636 C   0  0  0  0  0  0
  -25.9410  -30.8283   21.3668 C   0  0  0  0  0  0
  -26.0119  -29.4627   20.7130 C   0  0  0  0  0  0
  -27.2046  -28.6960   20.6872 C   0  0  0  0  0  0
  -26.0085  -26.9423   19.5021 C   0  0  0  0  0  0
  -24.8321  -27.7034   19.5237 C   0  0  0  0  0  0
  -23.6123  -29.8449   20.1656 C   0  0  0  0  0  0
  -25.4089  -36.3132   24.0342 C   0  0  1  0  0  0
  -20.5874  -28.3695   23.1284 C   0  0  2  0  0  0
  -20.6770  -26.9420   22.5378 C   0  0  0  0  0  0
  -19.5751  -26.6434   21.5155 C   0  0  0  0  0  0
  -18.1932  -26.7945   22.1577 C   0  0  0  0  0  0
  -19.1538  -28.8838   23.2897 C   0  0  0  0  0  0
  -18.9461  -30.1419   23.8945 C   0  0  0  0  0  0
  -17.6463  -30.6563   24.0581 C   0  0  0  0  0  0
  -25.9015  -34.9510   23.5129 C   0  0  0  0  0  0
  -16.5345  -29.9083   23.6320 C   0  0  0  0  0  0
  -16.7277  -28.6512   23.0328 C   0  0  0  0  0  0
  -26.4466  -31.6619   25.0765 C   0  0  0  0  0  0
  -25.3736  -31.3739   26.1517 C   0  0  0  0  0  0
  -27.0296  -30.3060   24.6137 C   0  0  0  0  0  0
  -27.6046  -32.4324   25.7532 C   0  0  0  0  0  0
  -27.5576  -37.1824   24.8461 C   0  0  0  0  0  0
  -21.4139  -29.3098   22.3714 N   0  0  0  0  0  0
  -26.4288  -37.3801   23.9402 N   0  0  0  0  0  0
  -24.6750  -31.0820   22.1019 N   0  0  0  0  0  0
  -23.4195  -28.8244   23.2989 O   0  0  0  0  0  0
  -28.3997  -26.6877   19.9979 O   0  0  0  0  0  0
  -26.5579  -34.8968   22.4692 O   0  0  0  0  0  0
  -23.5385  -32.1466   23.7537 O   0  0  0  0  0  0
  -29.0644  -18.6933   20.6649 C   0  0  0  0  0  0
  -31.3578  -19.2495   20.0883 C   0  0  0  0  0  0
  -28.6823  -20.0228   20.3861 C   0  0  0  0  0  0
  -30.9754  -20.5794   19.8067 C   0  0  0  0  0  0
  -30.3983  -18.2807   20.4726 C   0  0  0  0  0  0
  -29.6217  -20.9687   19.9225 C   0  0  0  0  0  0
  -30.8183  -16.8683   20.5230 C   0  0  0  0  0  0
  -30.0941  -15.7366   20.7258 C   0  0  0  0  0  0
  -29.7116  -24.4271   17.3261 C   0  0  0  0  0  0
  -30.8980  -25.8218   19.0025 C   0  0  0  0  0  0
  -29.1278  -22.3210   19.4111 C   0  0  0  0  0  0
  -30.0047  -23.5698   19.7162 C   0  0  0  0  0  0
  -28.3759  -25.5117   19.1591 C   0  0  0  0  0  0
  -29.7366  -24.8274   18.8247 C   0  0  0  0  0  0
  -31.4520  -12.3232   19.1748 H   0  0  0  0  0  0
  -30.2736  -11.2862   19.9068 H   0  0  0  0  0  0
  -29.7368  -11.7298   17.4671 H   0  0  0  0  0  0
  -29.6970  -13.4501   17.7800 H   0  0  0  0  0  0
  -27.8112  -11.3193   18.8539 H   0  0  0  0  0  0
  -27.3780  -12.6352   17.7872 H   0  0  0  0  0  0
  -27.6767  -14.2742   19.5327 H   0  0  0  0  0  0
  -28.6680  -12.0684   21.4104 H   0  0  0  0  0  0
  -28.4988  -13.7422   21.8365 H   0  0  0  0  0  0
  -25.2749   -9.5653   22.4767 H   0  0  0  0  0  0
  -23.9966   -7.4614   22.7458 H   0  0  0  0  0  0
  -21.0818   -8.8775   19.8962 H   0  0  0  0  0  0
  -22.3680  -10.9668   19.6163 H   0  0  0  0  0  0
  -21.2003   -7.6141   23.9733 H   0  0  0  0  0  0
  -21.1495   -6.0501   25.9083 H   0  0  0  0  0  0
  -22.0601   -2.7602   23.2836 H   0  0  0  0  0  0
  -22.4021  -11.9910   22.4884 H   0  0  0  0  0  0
  -21.1061  -13.1289   22.2634 H   0  0  0  0  0  0
  -24.6578  -15.8499   20.5658 H   0  0  0  0  0  0
  -26.2801  -15.6467   20.1418 H   0  0  0  0  0  0
  -26.7154  -32.5532   23.1213 H   0  0  0  0  0  0
  -25.0042  -33.9808   25.0475 H   0  0  0  0  0  0
  -22.7004  -31.3207   21.4207 H   0  0  0  0  0  0
  -23.3744  -35.9683   23.3303 H   0  0  0  0  0  0
  -24.3587  -36.8967   22.2060 H   0  0  0  0  0  0
  -23.7266  -37.6565   23.6645 H   0  0  0  0  0  0
  -26.0527  -31.5977   20.6017 H   0  0  0  0  0  0
  -26.8274  -30.8770   21.9860 H   0  0  0  0  0  0
  -28.1128  -29.0849   21.1288 H   0  0  0  0  0  0
  -25.9284  -25.9679   19.0433 H   0  0  0  0  0  0
  -23.9204  -27.3110   19.0909 H   0  0  0  0  0  0
  -23.7375  -30.6280   19.4168 H   0  0  0  0  0  0
  -22.7324  -29.2781   19.8554 H   0  0  0  0  0  0
  -25.1271  -36.1999   25.0837 H   0  0  0  0  0  0
  -20.9966  -28.3216   24.1415 H   0  0  0  0  0  0
  -20.5655  -26.2264   23.3550 H   0  0  0  0  0  0
  -21.6648  -26.7467   22.1188 H   0  0  0  0  0  0
  -19.6886  -25.6388   21.1104 H   0  0  0  0  0  0
  -19.6657  -27.3314   20.6751 H   0  0  0  0  0  0
  -17.4198  -26.6741   21.3972 H   0  0  0  0  0  0
  -18.0301  -26.0058   22.8950 H   0  0  0  0  0  0
  -19.7917  -30.7207   24.2356 H   0  0  0  0  0  0
  -17.5008  -31.6238   24.5191 H   0  0  0  0  0  0
  -15.5344  -30.2993   23.7625 H   0  0  0  0  0  0
  -15.8673  -28.0831   22.7029 H   0  0  0  0  0  0
  -24.5917  -30.7052   25.7877 H   0  0  0  0  0  0
  -24.8915  -32.2920   26.4913 H   0  0  0  0  0  0
  -25.8113  -30.8975   27.0299 H   0  0  0  0  0  0
  -26.2845  -29.6838   24.1159 H   0  0  0  0  0  0
  -27.4046  -29.7262   25.4578 H   0  0  0  0  0  0
  -27.8686  -30.4386   23.9292 H   0  0  0  0  0  0
  -27.2652  -33.3617   26.2108 H   0  0  0  0  0  0
  -28.3862  -32.6877   25.0369 H   0  0  0  0  0  0
  -28.0676  -31.8436   26.5466 H   0  0  0  0  0  0
  -28.2587  -38.0118   24.7479 H   0  0  0  0  0  0
  -28.1071  -36.2660   24.6289 H   0  0  0  0  0  0
  -27.2300  -37.1473   25.8862 H   0  0  0  0  0  0
  -20.9274  -29.8852   21.6956 H   0  0  0  0  0  0
  -26.0200  -38.2883   24.1396 H   0  0  0  0  0  0
  -28.3160  -17.9780   20.9565 H   0  0  0  0  0  0
  -32.3927  -18.9606   19.9395 H   0  0  0  0  0  0
  -27.6402  -20.2946   20.4689 H   0  0  0  0  0  0
  -31.7176  -21.2658   19.4238 H   0  0  0  0  0  0
  -31.8759  -16.7591   20.3070 H   0  0  0  0  0  0
  -29.0448  -15.7859   20.9804 H   0  0  0  0  0  0
  -30.5537  -23.7883   17.0565 H   0  0  0  0  0  0
  -29.7366  -25.3064   16.6770 H   0  0  0  0  0  0
  -28.7960  -23.8937   17.0627 H   0  0  0  0  0  0
  -31.8337  -25.4068   18.6243 H   0  0  0  0  0  0
  -31.0488  -26.0632   20.0551 H   0  0  0  0  0  0
  -30.7118  -26.7547   18.4662 H   0  0  0  0  0  0
  -28.1069  -22.4987   19.7546 H   0  0  0  0  0  0
  -29.0575  -22.1570   18.3389 H   0  0  0  0  0  0
  -31.0542  -23.3116   19.5905 H   0  0  0  0  0  0
  -29.9071  -23.8321   20.7707 H   0  0  0  0  0  0
  -27.6984  -24.7739   19.5946 H   0  0  0  0  0  0
  -27.9329  -25.8087   18.2074 H   0  0  0  0  0  0
  1 25  1  0  0  0
  1 30  2  0  0  0
  1 78  1  0  0  0
  2  3  1  0  0  0
  2 25  1  0  0  0
  2 85  1  0  0  0
  2 86  1  0  0  0
  3  4  1  0  0  0
  3 87  1  0  0  0
  3 88  1  0  0  0
  4  5  1  0  0  0
  4 89  1  0  0  0
  4 90  1  0  0  0
  5  6  1  0  0  0
  5 26  1  0  0  0
  5 91  1  0  0  0
  6 25  1  0  0  0
  6 92  1  0  0  0
  6 93  1  0  0  0
  7  8  2  0  0  0
  7 26  1  0  0  0
  7 29  1  0  0  0
  8  9  1  0  0  0
  8 22  1  0  0  0
  9 10  1  0  0  0
  9 27  2  0  0  0
 10 11  2  0  0  0
 10 15  1  0  0  0
 11 12  1  0  0  0
 11 94  1  0  0  0
 12 13  2  0  0  0
 12 95  1  0  0  0
 13 14  1  0  0  0
 13 31  1  0  0  0
 14 15  2  0  0  0
 14 96  1  0  0  0
 15 97  1  0  0  0
 16 17  2  0  0  0
 16 21  1  0  0  0
 16 31  1  0  0  0
 17 18  1  0  0  0
 17 98  1  0  0  0
 18 19  2  0  0  0
 18 99  1  0  0  0
 19 20  1  0  0  0
 19 24  1  0  0  0
 20 21  2  0  0  0
 20100  1  0  0  0
 21 23  1  0  0  0
 22 28  1  0  0  0
 22 32  2  0  0  0
 26 27  1  0  0  0
 28101  1  0  0  0
 28102  1  0  0  0
 29103  1  0  0  0
 29104  1  0  0  0
 33 34  1  0  0  0
 33 66  1  0  0  0
 33 70  2  0  0  0
 34 36  1  0  0  0
 34 59  1  0  0  0
 34105  1  0  0  0
 35 44  2  0  0  0
 35 45  1  0  0  0
 35 68  1  0  0  0
 36 56  1  0  0  0
 36106  1  0  0  0
 37 39  1  0  0  0
 37 47  1  0  0  0
 37 66  1  0  0  0
 37107  1  0  0  0
 38 43  2  0  0  0
 38 46  1  0  0  0
 38 47  1  0  0  0
 39 64  1  0  0  0
 39 67  2  0  0  0
 40 52  1  0  0  0
 40 53  2  0  0  0
 40 58  1  0  0  0
 41108  1  0  0  0
 41109  1  0  0  0
 41110  1  0  0  0
 41 48  1  0  0  0
 42 43  1  0  0  0
 42 66  1  0  0  0
 42111  1  0  0  0
 42112  1  0  0  0
 43 44  1  0  0  0
 44113  1  0  0  0
 45 46  2  0  0  0
 45114  1  0  0  0
 46115  1  0  0  0
 47116  1  0  0  0
 47117  1  0  0  0
 48 56  1  0  0  0
 48 65  1  0  0  0
 48118  1  0  0  0
 49 50  1  0  0  0
 49 53  1  0  0  0
 49 64  1  0  0  0
 49119  1  0  0  0
 50 51  1  0  0  0
 50120  1  0  0  0
 50121  1  0  0  0
 51 52  1  0  0  0
 51122  1  0  0  0
 51123  1  0  0  0
 52124  1  0  0  0
 52125  1  0  0  0
 53 54  1  0  0  0
 54 55  2  0  0  0
 54126  1  0  0  0
 55 57  1  0  0  0
 55127  1  0  0  0
 56 69  2  0  0  0
 57 58  2  0  0  0
 57128  1  0  0  0
 58129  1  0  0  0
 59 60  1  0  0  0
 59 61  1  0  0  0
 59 62  1  0  0  0
 60130  1  0  0  0
 60131  1  0  0  0
 60132  1  0  0  0
 61133  1  0  0  0
 61134  1  0  0  0
 61135  1  0  0  0
 62136  1  0  0  0
 62137  1  0  0  0
 62138  1  0  0  0
 63 65  1  0  0  0
 63139  1  0  0  0
 63140  1  0  0  0
 63141  1  0  0  0
 64142  1  0  0  0
 65143  1  0  0  0
 68 83  1  0  0  0
 71 73  2  0  0  0
 71 75  1  0  0  0
 71144  1  0  0  0
 72 74  1  0  0  0
 72 75  2  0  0  0
 72145  1  0  0  0
 73 76  1  0  0  0
 73146  1  0  0  0
 74 76  2  0  0  0
 74147  1  0  0  0
 75 77  1  0  0  0
 76 81  1  0  0  0
 77 78  2  0  0  0
 77148  1  0  0  0
 78149  1  0  0  0
 79150  1  0  0  0
 79151  1  0  0  0
 79152  1  0  0  0
 79 84  1  0  0  0
 80 84  1  0  0  0
 80153  1  0  0  0
 80154  1  0  0  0
 80155  1  0  0  0
 81 82  1  0  0  0
 81156  1  0  0  0
 81157  1  0  0  0
 82 84  1  0  0  0
 82158  1  0  0  0
 82159  1  0  0  0
 83 84  1  0  0  0
 83160  1  0  0  0
 83161  1  0  0  0
M  ISO  4   1 100  68 101  78 100  83 101
M  END
> <chiral flag>
0

> <version>
0

> <s_m_source_file>
/data/baiqing/PycharmProjects/Reinvent-master-3.2/result/LINK_invent/BTK/process_docking_weight1_custom_product_contain_oxygen_bond_distance_aromatic_linkinvent_7_9_3/rearranged_h_0133.sdf

> <i_m_source_file_index>
17

> <r_mmod_Potential_Energy-OPLS-2005>
58.1699256896973

> <r_mmod_Stretch_Energy-OPLS-2005>
41.6967620849609

> <r_mmod_Bend_Energy-OPLS-2005>
117.932968139648

> <r_mmod_Torsional_Energy-OPLS-2005>
206.324325561523

> <r_mmod_Improper_Torsional_Energy-OPLS-2005>
7.9604172706604

> <r_mmod_Van_der_Waal_Energy-OPLS-2005>
181.287475585938

> <r_mmod_Electrostatic_Energy-OPLS-2005>
-338.227172851562

> <r_mmod_Solvation_Energy-OPLS-2005>
-185.196014404297

> <b_mmod_Minimization_Converged-OPLS-2005>
0

> <r_mmod_RMS_Derivative-OPLS-2005>
6.29513454437256

$$$$
17
                    3D
 Structure written by MMmdl.
172180  0  0  1  0            999 V2000
  -30.7780  -14.3981   20.6687 C   0  0  0  0  0  0
  -30.4253  -12.3032   19.4032 C   0  0  0  0  0  0
  -29.4940  -12.5345   18.1993 C   0  0  0  0  0  0
  -28.0193  -12.3808   18.6157 C   0  0  0  0  0  0
  -27.6713  -13.2094   19.8796 C   0  0  2  0  0  0
  -28.7143  -12.9681   20.9969 C   0  0  0  0  0  0
  -25.2541  -13.8140   20.5574 C   0  0  0  0  0  0
  -24.1833  -13.0417   20.9185 C   0  0  0  0  0  0
  -24.6417  -11.6902   20.8766 C   0  0  0  0  0  0
  -23.9091  -10.4284   21.0421 C   0  0  0  0  0  0
  -24.3630   -9.4196   21.9205 C   0  0  0  0  0  0
  -23.6302   -8.2231   22.0761 C   0  0  0  0  0  0
  -22.4285   -8.0277   21.3556 C   0  0  0  0  0  0
  -21.9936   -9.0265   20.4665 C   0  0  0  0  0  0
  -22.7259  -10.2135   20.3070 C   0  0  0  0  0  0
  -21.6850   -6.0749   22.5303 C   0  0  0  0  0  0
  -21.4002   -6.5647   23.8232 C   0  0  0  0  0  0
  -21.3657   -5.6792   24.9202 C   0  0  0  0  0  0
  -21.6041   -4.3058   24.7231 C   0  0  0  0  0  0
  -21.8818   -3.8153   23.4345 C   0  0  0  0  0  0
  -21.9199   -4.6982   22.3414 C   0  0  0  0  0  0
  -22.7849  -13.5236   21.1833 C   0  0  0  0  0  0
  -22.1659   -4.2175   21.0985 F   0  0  0  0  0  0
  -21.5634   -3.4524   25.7729 F   0  0  0  0  0  0
  -30.0597  -13.2588   20.4614 N   0  0  0  0  0  0
  -26.3067  -12.9362   20.3369 N   0  0  0  0  0  0
  -25.9364  -11.6518   20.5823 N   0  0  0  0  0  0
  -22.0469  -12.8276   22.0401 N   0  0  0  0  0  0
  -25.4059  -15.1829   20.3744 N   0  0  0  0  0  0
  -31.7988  -14.6773   20.0332 O   0  0  0  0  0  0
  -21.6634   -6.8881   21.4255 O   0  0  0  0  0  0
  -22.3555  -14.5548   20.6673 O   0  0  0  0  0  0
  -24.6135  -31.8682   23.2106 C   0  0  0  0  0  0
  -25.9033  -32.4831   23.8395 C   0  0  1  0  0  0
  -27.2477  -27.4606   20.0724 C   0  0  0  0  0  0
  -25.5893  -33.8619   24.2326 N   0  0  0  0  0  0
  -23.4033  -30.4942   21.5487 C   0  0  2  0  0  0
  -24.8560  -28.9653   20.1150 C   0  0  0  0  0  0
  -22.7410  -29.4680   22.4958 C   0  0  0  0  0  0
  -18.0278  -28.1394   22.8487 C   0  0  0  0  0  0
  -24.1476  -36.7323   23.2632 C   0  0  0  0  0  0
  -25.9320  -30.8438   21.3604 C   0  0  0  0  0  0
  -26.0200  -29.4806   20.7032 C   0  0  0  0  0  0
  -27.2273  -28.7394   20.6784 C   0  0  0  0  0  0
  -26.0626  -26.9496   19.5104 C   0  0  0  0  0  0
  -24.8720  -27.6953   19.5160 C   0  0  0  0  0  0
  -23.6146  -29.8263   20.1642 C   0  0  0  0  0  0
  -25.4099  -36.3109   24.0332 C   0  0  1  0  0  0
  -20.5870  -28.3689   23.1306 C   0  0  2  0  0  0
  -20.6772  -26.9416   22.5425 C   0  0  0  0  0  0
  -19.5755  -26.6401   21.5211 C   0  0  0  0  0  0
  -18.1936  -26.7941   22.1617 C   0  0  0  0  0  0
  -19.1527  -28.8848   23.2911 C   0  0  0  0  0  0
  -18.9459  -30.1453   23.8925 C   0  0  0  0  0  0
  -17.6469  -30.6610   24.0568 C   0  0  0  0  0  0
  -25.9029  -34.9478   23.5132 C   0  0  0  0  0  0
  -16.5360  -29.9120   23.6320 C   0  0  0  0  0  0
  -16.7268  -28.6530   23.0350 C   0  0  0  0  0  0
  -26.4460  -31.6605   25.0718 C   0  0  0  0  0  0
  -25.3736  -31.3739   26.1487 C   0  0  0  0  0  0
  -27.0280  -30.3039   24.6097 C   0  0  0  0  0  0
  -27.6031  -32.4320   25.7487 C   0  0  0  0  0  0
  -27.5582  -37.1805   24.8448 C   0  0  0  0  0  0
  -21.4131  -29.3064   22.3699 N   0  0  0  0  0  0
  -26.4267  -37.3811   23.9421 N   0  0  0  0  0  0
  -24.6681  -31.0816   22.0986 N   0  0  0  0  0  0
  -23.4191  -28.8201   23.2981 O   0  0  0  0  0  0
  -28.3327  -26.6160   20.0153 O   0  0  0  0  0  0
  -26.5598  -34.8916   22.4695 O   0  0  0  0  0  0
  -23.5329  -32.1395   23.7535 O   0  0  0  0  0  0
  -28.0962  -18.8319   20.5000 C   0  0  0  0  0  0
  -30.8807  -18.7842   20.7877 C   0  0  0  0  0  0
  -28.7005  -17.7960   21.2398 C   0  0  0  0  0  0
  -28.8704  -19.8512   19.9080 C   0  0  0  0  0  0
  -30.1148  -17.7162   21.3181 C   0  0  0  0  0  0
  -30.2692  -19.8760   20.1253 C   0  0  0  0  0  0
  -27.8023  -16.7969   21.9453 C   0  0  0  0  0  0
  -26.5552  -22.7674   18.6756 C   0  0  0  0  0  0
  -28.1900  -20.8512   18.9841 C   0  0  0  0  0  0
  -30.8275  -16.5363   22.0007 C   0  0  0  0  0  0
  -27.2326  -21.8289   19.6831 C   0  0  0  0  0  0
  -30.5699  -24.6905   20.2853 C   0  0  0  0  0  0
  -30.5173  -25.9477   19.3782 C   0  0  0  0  0  0
  -30.9834  -23.3897   19.5507 C   0  0  0  0  0  0
  -29.6567  -27.1141   19.9297 C   0  0  0  0  0  0
  -30.9197  -22.1296   20.4446 C   0  0  0  0  0  0
  -30.3211  -15.2027   21.6364 N   0  0  0  0  0  0
  -31.0430  -20.9246   19.6768 O   0  0  0  0  0  0
  -31.4696  -12.3970   19.1014 H   0  0  0  0  0  0
  -30.3165  -11.2808   19.7710 H   0  0  0  0  0  0
  -29.7319  -11.8314   17.4003 H   0  0  0  0  0  0
  -29.6602  -13.5331   17.7901 H   0  0  0  0  0  0
  -27.8356  -11.3238   18.8083 H   0  0  0  0  0  0
  -27.3633  -12.6595   17.7900 H   0  0  0  0  0  0
  -27.7261  -14.2602   19.5929 H   0  0  0  0  0  0
  -28.6824  -11.9279   21.3253 H   0  0  0  0  0  0
  -28.4644  -13.5528   21.8816 H   0  0  0  0  0  0
  -25.2765   -9.5687   22.4794 H   0  0  0  0  0  0
  -24.0029   -7.4624   22.7455 H   0  0  0  0  0  0
  -21.0884   -8.8795   19.8959 H   0  0  0  0  0  0
  -22.3734  -10.9692   19.6173 H   0  0  0  0  0  0
  -21.1964   -7.6149   23.9753 H   0  0  0  0  0  0
  -21.1483   -6.0509   25.9112 H   0  0  0  0  0  0
  -22.0595   -2.7619   23.2837 H   0  0  0  0  0  0
  -22.4042  -11.9911   22.4782 H   0  0  0  0  0  0
  -21.1075  -13.1319   22.2535 H   0  0  0  0  0  0
  -24.6203  -15.8191   20.4586 H   0  0  0  0  0  0
  -26.2395  -15.6291   20.0167 H   0  0  0  0  0  0
  -26.7107  -32.5548   23.1163 H   0  0  0  0  0  0
  -25.0006  -33.9778   25.0445 H   0  0  0  0  0  0
  -22.6916  -31.3110   21.4101 H   0  0  0  0  0  0
  -23.3734  -35.9664   23.3289 H   0  0  0  0  0  0
  -24.3558  -36.8949   22.2047 H   0  0  0  0  0  0
  -23.7229  -37.6522   23.6648 H   0  0  0  0  0  0
  -26.0404  -31.6140   20.5957 H   0  0  0  0  0  0
  -26.8218  -30.8995   21.9761 H   0  0  0  0  0  0
  -28.1207  -29.1404   21.1345 H   0  0  0  0  0  0
  -26.0704  -25.9689   19.0565 H   0  0  0  0  0  0
  -23.9759  -27.2896   19.0665 H   0  0  0  0  0  0
  -23.7177  -30.5989   19.4011 H   0  0  0  0  0  0
  -22.7410  -29.2428   19.8671 H   0  0  0  0  0  0
  -25.1270  -36.1960   25.0822 H   0  0  0  0  0  0
  -20.9990  -28.3276   24.1416 H   0  0  0  0  0  0
  -20.5673  -26.2295   23.3627 H   0  0  0  0  0  0
  -21.6646  -26.7477   22.1220 H   0  0  0  0  0  0
  -19.6930  -25.6321   21.1226 H   0  0  0  0  0  0
  -19.6692  -27.3213   20.6744 H   0  0  0  0  0  0
  -17.4208  -26.6683   21.4020 H   0  0  0  0  0  0
  -18.0349  -26.0091   22.9018 H   0  0  0  0  0  0
  -19.7939  -30.7256   24.2316 H   0  0  0  0  0  0
  -17.5034  -31.6276   24.5188 H   0  0  0  0  0  0
  -15.5368  -30.3048   23.7629 H   0  0  0  0  0  0
  -15.8661  -28.0872   22.7066 H   0  0  0  0  0  0
  -24.5889  -30.7095   25.7848 H   0  0  0  0  0  0
  -24.8954  -32.2915   26.4922 H   0  0  0  0  0  0
  -25.8113  -30.8918   27.0240 H   0  0  0  0  0  0
  -26.2826  -29.6823   24.1117 H   0  0  0  0  0  0
  -27.3997  -29.7252   25.4566 H   0  0  0  0  0  0
  -27.8687  -30.4332   23.9275 H   0  0  0  0  0  0
  -27.2639  -33.3600   26.2092 H   0  0  0  0  0  0
  -28.3840  -32.6913   25.0328 H   0  0  0  0  0  0
  -28.0693  -31.8420   26.5384 H   0  0  0  0  0  0
  -28.2580  -38.0121   24.7553 H   0  0  0  0  0  0
  -28.1098  -36.2667   24.6203 H   0  0  0  0  0  0
  -27.2310  -37.1385   25.8846 H   0  0  0  0  0  0
  -20.9283  -29.8797   21.6939 H   0  0  0  0  0  0
  -26.0158  -38.2870   24.1481 H   0  0  0  0  0  0
  -27.0219  -18.8410   20.3761 H   0  0  0  0  0  0
  -31.9562  -18.7764   20.8946 H   0  0  0  0  0  0
  -26.7861  -17.1781   22.0495 H   0  0  0  0  0  0
  -28.1654  -16.5780   22.9495 H   0  0  0  0  0  0
  -27.7594  -15.8673   21.3850 H   0  0  0  0  0  0
  -25.8293  -23.4159   19.1663 H   0  0  0  0  0  0
  -26.0262  -22.2049   17.9050 H   0  0  0  0  0  0
  -27.2879  -23.4032   18.1765 H   0  0  0  0  0  0
  -27.6336  -20.2778   18.2411 H   0  0  0  0  0  0
  -28.9374  -21.4006   18.4137 H   0  0  0  0  0  0
  -30.7029  -16.6517   23.0784 H   0  0  0  0  0  0
  -31.9028  -16.5940   21.8201 H   0  0  0  0  0  0
  -26.4646  -21.2734   20.2226 H   0  0  0  0  0  0
  -27.7660  -22.4225   20.4255 H   0  0  0  0  0  0
  -29.5880  -24.5286   20.7323 H   0  0  0  0  0  0
  -31.2488  -24.8759   21.1191 H   0  0  0  0  0  0
  -30.1260  -25.6706   18.3978 H   0  0  0  0  0  0
  -31.5343  -26.2974   19.1936 H   0  0  0  0  0  0
  -31.9881  -23.4956   19.1374 H   0  0  0  0  0  0
  -30.3219  -23.2464   18.6965 H   0  0  0  0  0  0
  -29.6948  -27.9625   19.2439 H   0  0  0  0  0  0
  -30.0150  -27.4499   20.9034 H   0  0  0  0  0  0
  -29.9960  -22.1399   21.0246 H   0  0  0  0  0  0
  -31.7299  -22.1529   21.1750 H   0  0  0  0  0  0
  -29.5262  -14.8623   22.1532 H   0  0  0  0  0  0
  1 25  1  0  0  0
  1 30  2  0  0  0
  1 87  1  0  0  0
  2  3  1  0  0  0
  2 25  1  0  0  0
  2 89  1  0  0  0
  2 90  1  0  0  0
  3  4  1  0  0  0
  3 91  1  0  0  0
  3 92  1  0  0  0
  4  5  1  0  0  0
  4 93  1  0  0  0
  4 94  1  0  0  0
  5  6  1  0  0  0
  5 26  1  0  0  0
  5 95  1  0  0  0
  6 25  1  0  0  0
  6 96  1  0  0  0
  6 97  1  0  0  0
  7  8  2  0  0  0
  7 26  1  0  0  0
  7 29  1  0  0  0
  8  9  1  0  0  0
  8 22  1  0  0  0
  9 10  1  0  0  0
  9 27  2  0  0  0
 10 11  2  0  0  0
 10 15  1  0  0  0
 11 12  1  0  0  0
 11 98  1  0  0  0
 12 13  2  0  0  0
 12 99  1  0  0  0
 13 14  1  0  0  0
 13 31  1  0  0  0
 14 15  2  0  0  0
 14100  1  0  0  0
 15101  1  0  0  0
 16 17  2  0  0  0
 16 21  1  0  0  0
 16 31  1  0  0  0
 17 18  1  0  0  0
 17102  1  0  0  0
 18 19  2  0  0  0
 18103  1  0  0  0
 19 20  1  0  0  0
 19 24  1  0  0  0
 20 21  2  0  0  0
 20104  1  0  0  0
 21 23  1  0  0  0
 22 28  1  0  0  0
 22 32  2  0  0  0
 26 27  1  0  0  0
 28105  1  0  0  0
 28106  1  0  0  0
 29107  1  0  0  0
 29108  1  0  0  0
 33 34  1  0  0  0
 33 66  1  0  0  0
 33 70  2  0  0  0
 34 36  1  0  0  0
 34 59  1  0  0  0
 34109  1  0  0  0
 35 44  2  0  0  0
 35 45  1  0  0  0
 35 68  1  0  0  0
 36 56  1  0  0  0
 36110  1  0  0  0
 37 39  1  0  0  0
 37 47  1  0  0  0
 37 66  1  0  0  0
 37111  1  0  0  0
 38 43  2  0  0  0
 38 46  1  0  0  0
 38 47  1  0  0  0
 39 64  1  0  0  0
 39 67  2  0  0  0
 40 52  1  0  0  0
 40 53  2  0  0  0
 40 58  1  0  0  0
 41112  1  0  0  0
 41113  1  0  0  0
 41114  1  0  0  0
 41 48  1  0  0  0
 42 43  1  0  0  0
 42 66  1  0  0  0
 42115  1  0  0  0
 42116  1  0  0  0
 43 44  1  0  0  0
 44117  1  0  0  0
 45 46  2  0  0  0
 45118  1  0  0  0
 46119  1  0  0  0
 47120  1  0  0  0
 47121  1  0  0  0
 48 56  1  0  0  0
 48 65  1  0  0  0
 48122  1  0  0  0
 49 50  1  0  0  0
 49 53  1  0  0  0
 49 64  1  0  0  0
 49123  1  0  0  0
 50 51  1  0  0  0
 50124  1  0  0  0
 50125  1  0  0  0
 51 52  1  0  0  0
 51126  1  0  0  0
 51127  1  0  0  0
 52128  1  0  0  0
 52129  1  0  0  0
 53 54  1  0  0  0
 54 55  2  0  0  0
 54130  1  0  0  0
 55 57  1  0  0  0
 55131  1  0  0  0
 56 69  2  0  0  0
 57 58  2  0  0  0
 57132  1  0  0  0
 58133  1  0  0  0
 59 60  1  0  0  0
 59 61  1  0  0  0
 59 62  1  0  0  0
 60134  1  0  0  0
 60135  1  0  0  0
 60136  1  0  0  0
 61137  1  0  0  0
 61138  1  0  0  0
 61139  1  0  0  0
 62140  1  0  0  0
 62141  1  0  0  0
 62142  1  0  0  0
 63 65  1  0  0  0
 63143  1  0  0  0
 63144  1  0  0  0
 63145  1  0  0  0
 64146  1  0  0  0
 65147  1  0  0  0
 68 85  1  0  0  0
 71 73  2  0  0  0
 71 74  1  0  0  0
 71148  1  0  0  0
 72 75  2  0  0  0
 72 76  1  0  0  0
 72149  1  0  0  0
 73 75  1  0  0  0
 73 77  1  0  0  0
 74 76  2  0  0  0
 74 79  1  0  0  0
 75 80  1  0  0  0
 76 88  1  0  0  0
 77150  1  0  0  0
 77151  1  0  0  0
 77152  1  0  0  0
 78 81  1  0  0  0
 78153  1  0  0  0
 78154  1  0  0  0
 78155  1  0  0  0
 79 81  1  0  0  0
 79156  1  0  0  0
 79157  1  0  0  0
 80 87  1  0  0  0
 80158  1  0  0  0
 80159  1  0  0  0
 81160  1  0  0  0
 81161  1  0  0  0
 82 83  1  0  0  0
 82 84  1  0  0  0
 82162  1  0  0  0
 82163  1  0  0  0
 83 85  1  0  0  0
 83164  1  0  0  0
 83165  1  0  0  0
 84 86  1  0  0  0
 84166  1  0  0  0
 84167  1  0  0  0
 85168  1  0  0  0
 85169  1  0  0  0
 86 88  1  0  0  0
 86170  1  0  0  0
 86171  1  0  0  0
 87172  1  0  0  0
M  ISO  4   1 100  68 101  85 101  87 100
M  END
> <chiral flag>
0

> <version>
0

> <s_m_source_file>
/data/baiqing/PycharmProjects/Reinvent-master-3.2/result/LINK_invent/BTK/process_docking_weight1_custom_product_contain_oxygen_bond_distance_aromatic_linkinvent_7_9_3/rearranged_h_0133.sdf

> <i_m_source_file_index>
18

> <r_mmod_Potential_Energy-OPLS-2005>
-92.5294952392578

> <r_mmod_Stretch_Energy-OPLS-2005>
38.2044868469238

> <r_mmod_Bend_Energy-OPLS-2005>
105.974464416504

> <r_mmod_Torsional_Energy-OPLS-2005>
235.880249023438

> <r_mmod_Improper_Torsional_Energy-OPLS-2005>
2.30256867408752

> <r_mmod_Van_der_Waal_Energy-OPLS-2005>
137.271697998047

> <r_mmod_Electrostatic_Energy-OPLS-2005>
-415.921630859375

> <r_mmod_Solvation_Energy-OPLS-2005>
-205.803558349609

> <b_mmod_Minimization_Converged-OPLS-2005>
0

> <r_mmod_RMS_Derivative-OPLS-2005>
2.94661474227905

$$$$
18
                    3D
 Structure written by MMmdl.
165173  0  0  1  0            999 V2000
  -30.7960  -14.3573   20.6720 C   0  0  0  0  0  0
  -30.4064  -12.2814   19.4002 C   0  0  0  0  0  0
  -29.4799  -12.5238   18.1954 C   0  0  0  0  0  0
  -28.0053  -12.3851   18.6128 C   0  0  0  0  0  0
  -27.6663  -13.2097   19.8823 C   0  0  2  0  0  0
  -28.7073  -12.9691   21.0007 C   0  0  0  0  0  0
  -25.2597  -13.8176   20.5693 C   0  0  0  0  0  0
  -24.1840  -13.0440   20.9170 C   0  0  0  0  0  0
  -24.6404  -11.6914   20.8741 C   0  0  0  0  0  0
  -23.9071  -10.4294   21.0405 C   0  0  0  0  0  0
  -24.3620   -9.4210   21.9181 C   0  0  0  0  0  0
  -23.6292   -8.2247   22.0750 C   0  0  0  0  0  0
  -22.4275   -8.0283   21.3541 C   0  0  0  0  0  0
  -21.9918   -9.0259   20.4646 C   0  0  0  0  0  0
  -22.7248  -10.2136   20.3054 C   0  0  0  0  0  0
  -21.6853   -6.0735   22.5275 C   0  0  0  0  0  0
  -21.4019   -6.5643   23.8210 C   0  0  0  0  0  0
  -21.3659   -5.6791   24.9173 C   0  0  0  0  0  0
  -21.6046   -4.3052   24.7223 C   0  0  0  0  0  0
  -21.8820   -3.8146   23.4344 C   0  0  0  0  0  0
  -21.9196   -4.6962   22.3401 C   0  0  0  0  0  0
  -22.7865  -13.5236   21.1832 C   0  0  0  0  0  0
  -22.1663   -4.2148   21.0974 F   0  0  0  0  0  0
  -21.5630   -3.4534   25.7738 F   0  0  0  0  0  0
  -30.0522  -13.2401   20.4590 N   0  0  0  0  0  0
  -26.3050  -12.9358   20.3411 N   0  0  0  0  0  0
  -25.9334  -11.6508   20.5786 N   0  0  0  0  0  0
  -22.0510  -12.8219   22.0394 N   0  0  0  0  0  0
  -25.4319  -15.1889   20.4095 N   0  0  0  0  0  0
  -31.7980  -14.6301   20.0055 O   0  0  0  0  0  0
  -21.6640   -6.8878   21.4236 O   0  0  0  0  0  0
  -22.3550  -14.5542   20.6691 O   0  0  0  0  0  0
  -24.6146  -31.8683   23.2112 C   0  0  0  0  0  0
  -25.9042  -32.4829   23.8399 C   0  0  1  0  0  0
  -27.2372  -27.4407   20.1077 C   0  0  0  0  0  0
  -25.5900  -33.8626   24.2338 N   0  0  0  0  0  0
  -23.4018  -30.4910   21.5527 C   0  0  2  0  0  0
  -24.8493  -28.9571   20.1178 C   0  0  0  0  0  0
  -22.7417  -29.4654   22.5013 C   0  0  0  0  0  0
  -18.0275  -28.1353   22.8480 C   0  0  0  0  0  0
  -24.1501  -36.7320   23.2638 C   0  0  0  0  0  0
  -25.9285  -30.8361   21.3639 C   0  0  0  0  0  0
  -26.0079  -29.4710   20.7132 C   0  0  0  0  0  0
  -27.2054  -28.7219   20.7026 C   0  0  0  0  0  0
  -26.0648  -26.9455   19.4925 C   0  0  0  0  0  0
  -24.8723  -27.6932   19.5039 C   0  0  0  0  0  0
  -23.6105  -29.8225   20.1671 C   0  0  0  0  0  0
  -25.4112  -36.3114   24.0336 C   0  0  1  0  0  0
  -20.5858  -28.3660   23.1300 C   0  0  2  0  0  0
  -20.6777  -26.9393   22.5399 C   0  0  0  0  0  0
  -19.5764  -26.6369   21.5203 C   0  0  0  0  0  0
  -18.1940  -26.7909   22.1601 C   0  0  0  0  0  0
  -19.1516  -28.8825   23.2893 C   0  0  0  0  0  0
  -18.9452  -30.1430   23.8902 C   0  0  0  0  0  0
  -17.6455  -30.6579   24.0552 C   0  0  0  0  0  0
  -25.9020  -34.9483   23.5125 C   0  0  0  0  0  0
  -16.5349  -29.9062   23.6317 C   0  0  0  0  0  0
  -16.7262  -28.6472   23.0334 C   0  0  0  0  0  0
  -26.4486  -31.6603   25.0718 C   0  0  0  0  0  0
  -25.3748  -31.3673   26.1461 C   0  0  0  0  0  0
  -27.0312  -30.3057   24.6050 C   0  0  0  0  0  0
  -27.6054  -32.4320   25.7470 C   0  0  0  0  0  0
  -27.5596  -37.1814   24.8460 C   0  0  0  0  0  0
  -21.4140  -29.3032   22.3739 N   0  0  0  0  0  0
  -26.4314  -37.3788   23.9389 N   0  0  0  0  0  0
  -24.6667  -31.0784   22.1022 N   0  0  0  0  0  0
  -23.4198  -28.8213   23.3058 O   0  0  0  0  0  0
  -28.4125  -26.7186   20.1059 O   0  0  0  0  0  0
  -26.5583  -34.8937   22.4692 O   0  0  0  0  0  0
  -23.5330  -32.1443   23.7502 O   0  0  0  0  0  0
  -29.6796  -19.7078   21.4848 C   0  0  0  0  0  0
  -30.3365  -18.4697   21.3231 C   0  0  0  0  0  0
  -29.0828  -19.0738   23.7566 C   0  0  0  0  0  0
  -29.0674  -20.0275   22.7159 C   0  0  0  0  0  0
  -30.3912  -17.5363   22.3819 C   0  0  0  0  0  0
  -29.7321  -17.8312   23.5995 C   0  0  0  0  0  0
  -29.7256  -16.8418   24.7537 C   0  0  0  0  0  0
  -26.8659  -23.9900   23.0184 C   0  0  0  0  0  0
  -28.3670  -21.3616   22.9646 C   0  0  0  0  0  0
  -31.2055  -16.2591   22.2062 C   0  0  0  0  0  0
  -28.8383  -22.5806   22.1330 C   0  0  0  0  0  0
  -28.8638  -25.1881   21.9602 C   0  0  0  0  0  0
  -28.3296  -25.3458   20.5201 C   0  0  0  0  0  0
  -28.3823  -23.9348   22.7392 C   0  0  1  0  0  0
  -30.4303  -15.1217   21.7078 N   0  0  0  0  0  0
  -31.4515  -12.3595   19.0944 H   0  0  0  0  0  0
  -30.2868  -11.2623   19.7721 H   0  0  0  0  0  0
  -29.7087  -11.8202   17.3943 H   0  0  0  0  0  0
  -29.6568  -13.5207   17.7892 H   0  0  0  0  0  0
  -27.8063  -11.3276   18.7909 H   0  0  0  0  0  0
  -27.3531  -12.6807   17.7904 H   0  0  0  0  0  0
  -27.7204  -14.2621   19.6027 H   0  0  0  0  0  0
  -28.6616  -11.9336   21.3422 H   0  0  0  0  0  0
  -28.4635  -13.5748   21.8740 H   0  0  0  0  0  0
  -25.2761   -9.5684   22.4761 H   0  0  0  0  0  0
  -24.0002   -7.4638   22.7467 H   0  0  0  0  0  0
  -21.0852   -8.8780   19.8948 H   0  0  0  0  0  0
  -22.3706  -10.9677   19.6163 H   0  0  0  0  0  0
  -21.2010   -7.6150   23.9714 H   0  0  0  0  0  0
  -21.1482   -6.0520   25.9074 H   0  0  0  0  0  0
  -22.0602   -2.7610   23.2842 H   0  0  0  0  0  0
  -22.4125  -11.9871   22.4767 H   0  0  0  0  0  0
  -21.1130  -13.1245   22.2605 H   0  0  0  0  0  0
  -24.6704  -15.8495   20.5229 H   0  0  0  0  0  0
  -26.2979  -15.6275   20.1205 H   0  0  0  0  0  0
  -26.7124  -32.5553   23.1169 H   0  0  0  0  0  0
  -25.0103  -33.9798   25.0518 H   0  0  0  0  0  0
  -22.6903  -31.3083   21.4157 H   0  0  0  0  0  0
  -23.3766  -35.9654   23.3305 H   0  0  0  0  0  0
  -24.3593  -36.8909   22.2047 H   0  0  0  0  0  0
  -23.7268  -37.6533   23.6649 H   0  0  0  0  0  0
  -26.0358  -31.6038   20.5965 H   0  0  0  0  0  0
  -26.8180  -30.8921   21.9803 H   0  0  0  0  0  0
  -28.1019  -29.1152   21.1604 H   0  0  0  0  0  0
  -26.0659  -25.9875   18.9906 H   0  0  0  0  0  0
  -23.9841  -27.2954   19.0325 H   0  0  0  0  0  0
  -23.7251  -30.5988   19.4092 H   0  0  0  0  0  0
  -22.7362  -29.2417   19.8701 H   0  0  0  0  0  0
  -25.1308  -36.1987   25.0834 H   0  0  0  0  0  0
  -20.9934  -28.3229   24.1422 H   0  0  0  0  0  0
  -20.5696  -26.2259   23.3591 H   0  0  0  0  0  0
  -21.6653  -26.7460   22.1194 H   0  0  0  0  0  0
  -19.6933  -25.6282   21.1226 H   0  0  0  0  0  0
  -19.6705  -27.3183   20.6736 H   0  0  0  0  0  0
  -17.4209  -26.6652   21.3990 H   0  0  0  0  0  0
  -18.0339  -26.0047   22.8980 H   0  0  0  0  0  0
  -19.7936  -30.7230   24.2281 H   0  0  0  0  0  0
  -17.5016  -31.6261   24.5150 H   0  0  0  0  0  0
  -15.5350  -30.2959   23.7660 H   0  0  0  0  0  0
  -15.8655  -28.0808   22.7030 H   0  0  0  0  0  0
  -24.5958  -30.6981   25.7785 H   0  0  0  0  0  0
  -24.8919  -32.2819   26.4918 H   0  0  0  0  0  0
  -25.8129  -30.8852   27.0213 H   0  0  0  0  0  0
  -26.2831  -29.6804   24.1164 H   0  0  0  0  0  0
  -27.4165  -29.7299   25.4470 H   0  0  0  0  0  0
  -27.8640  -30.4381   23.9132 H   0  0  0  0  0  0
  -27.2680  -33.3615   26.2069 H   0  0  0  0  0  0
  -28.3873  -32.6864   25.0297 H   0  0  0  0  0  0
  -28.0738  -31.8429   26.5375 H   0  0  0  0  0  0
  -28.2610  -38.0119   24.7515 H   0  0  0  0  0  0
  -28.1101  -36.2639   24.6294 H   0  0  0  0  0  0
  -27.2298  -37.1467   25.8861 H   0  0  0  0  0  0
  -20.9323  -29.8734   21.6929 H   0  0  0  0  0  0
  -26.0214  -38.2873   24.1383 H   0  0  0  0  0  0
  -29.6614  -20.4097   20.6626 H   0  0  0  0  0  0
  -30.8216  -18.2455   20.3820 H   0  0  0  0  0  0
  -28.5967  -19.3053   24.6951 H   0  0  0  0  0  0
  -29.0414  -17.1516   25.5444 H   0  0  0  0  0  0
  -30.7232  -16.7533   25.1868 H   0  0  0  0  0  0
  -29.4061  -15.8554   24.4150 H   0  0  0  0  0  0
  -26.5672  -23.2557   23.7675 H   0  0  0  0  0  0
  -26.2769  -23.8004   22.1208 H   0  0  0  0  0  0
  -26.5706  -24.9655   23.4036 H   0  0  0  0  0  0
  -28.4930  -21.5970   24.0230 H   0  0  0  0  0  0
  -27.2976  -21.2027   22.8164 H   0  0  0  0  0  0
  -31.6701  -15.9726   23.1498 H   0  0  0  0  0  0
  -32.0472  -16.4969   21.5528 H   0  0  0  0  0  0
  -28.4825  -22.4809   21.1064 H   0  0  0  0  0  0
  -29.9285  -22.5843   22.0870 H   0  0  0  0  0  0
  -28.5698  -26.0684   22.5344 H   0  0  0  0  0  0
  -29.9541  -25.2115   21.9392 H   0  0  0  0  0  0
  -27.3213  -24.9430   20.4565 H   0  0  0  0  0  0
  -28.9341  -24.7429   19.8407 H   0  0  0  0  0  0
  -28.8651  -24.0013   23.7163 H   0  0  0  0  0  0
  -29.6201  -14.8364   22.2361 H   0  0  0  0  0  0
  1 25  1  0  0  0
  1 30  2  0  0  0
  1 85  1  0  0  0
  2  3  1  0  0  0
  2 25  1  0  0  0
  2 86  1  0  0  0
  2 87  1  0  0  0
  3  4  1  0  0  0
  3 88  1  0  0  0
  3 89  1  0  0  0
  4  5  1  0  0  0
  4 90  1  0  0  0
  4 91  1  0  0  0
  5  6  1  0  0  0
  5 26  1  0  0  0
  5 92  1  0  0  0
  6 25  1  0  0  0
  6 93  1  0  0  0
  6 94  1  0  0  0
  7  8  2  0  0  0
  7 26  1  0  0  0
  7 29  1  0  0  0
  8  9  1  0  0  0
  8 22  1  0  0  0
  9 10  1  0  0  0
  9 27  2  0  0  0
 10 11  2  0  0  0
 10 15  1  0  0  0
 11 12  1  0  0  0
 11 95  1  0  0  0
 12 13  2  0  0  0
 12 96  1  0  0  0
 13 14  1  0  0  0
 13 31  1  0  0  0
 14 15  2  0  0  0
 14 97  1  0  0  0
 15 98  1  0  0  0
 16 17  2  0  0  0
 16 21  1  0  0  0
 16 31  1  0  0  0
 17 18  1  0  0  0
 17 99  1  0  0  0
 18 19  2  0  0  0
 18100  1  0  0  0
 19 20  1  0  0  0
 19 24  1  0  0  0
 20 21  2  0  0  0
 20101  1  0  0  0
 21 23  1  0  0  0
 22 28  1  0  0  0
 22 32  2  0  0  0
 26 27  1  0  0  0
 28102  1  0  0  0
 28103  1  0  0  0
 29104  1  0  0  0
 29105  1  0  0  0
 33 34  1  0  0  0
 33 66  1  0  0  0
 33 70  2  0  0  0
 34 36  1  0  0  0
 34 59  1  0  0  0
 34106  1  0  0  0
 35 44  2  0  0  0
 35 45  1  0  0  0
 35 68  1  0  0  0
 36 56  1  0  0  0
 36107  1  0  0  0
 37 39  1  0  0  0
 37 47  1  0  0  0
 37 66  1  0  0  0
 37108  1  0  0  0
 38 43  2  0  0  0
 38 46  1  0  0  0
 38 47  1  0  0  0
 39 64  1  0  0  0
 39 67  2  0  0  0
 40 52  1  0  0  0
 40 53  2  0  0  0
 40 58  1  0  0  0
 41109  1  0  0  0
 41110  1  0  0  0
 41111  1  0  0  0
 41 48  1  0  0  0
 42 43  1  0  0  0
 42 66  1  0  0  0
 42112  1  0  0  0
 42113  1  0  0  0
 43 44  1  0  0  0
 44114  1  0  0  0
 45 46  2  0  0  0
 45115  1  0  0  0
 46116  1  0  0  0
 47117  1  0  0  0
 47118  1  0  0  0
 48 56  1  0  0  0
 48 65  1  0  0  0
 48119  1  0  0  0
 49 50  1  0  0  0
 49 53  1  0  0  0
 49 64  1  0  0  0
 49120  1  0  0  0
 50 51  1  0  0  0
 50121  1  0  0  0
 50122  1  0  0  0
 51 52  1  0  0  0
 51123  1  0  0  0
 51124  1  0  0  0
 52125  1  0  0  0
 52126  1  0  0  0
 53 54  1  0  0  0
 54 55  2  0  0  0
 54127  1  0  0  0
 55 57  1  0  0  0
 55128  1  0  0  0
 56 69  2  0  0  0
 57 58  2  0  0  0
 57129  1  0  0  0
 58130  1  0  0  0
 59 60  1  0  0  0
 59 61  1  0  0  0
 59 62  1  0  0  0
 60131  1  0  0  0
 60132  1  0  0  0
 60133  1  0  0  0
 61134  1  0  0  0
 61135  1  0  0  0
 61136  1  0  0  0
 62137  1  0  0  0
 62138  1  0  0  0
 62139  1  0  0  0
 63 65  1  0  0  0
 63140  1  0  0  0
 63141  1  0  0  0
 63142  1  0  0  0
 64143  1  0  0  0
 65144  1  0  0  0
 68 83  1  0  0  0
 71 72  2  0  0  0
 71 74  1  0  0  0
 71145  1  0  0  0
 72 75  1  0  0  0
 72146  1  0  0  0
 73 74  2  0  0  0
 73 76  1  0  0  0
 73147  1  0  0  0
 74 79  1  0  0  0
 75 76  2  0  0  0
 75 80  1  0  0  0
 76 77  1  0  0  0
 77148  1  0  0  0
 77149  1  0  0  0
 77150  1  0  0  0
 78151  1  0  0  0
 78152  1  0  0  0
 78153  1  0  0  0
 78 84  1  0  0  0
 79 81  1  0  0  0
 79154  1  0  0  0
 79155  1  0  0  0
 80 85  1  0  0  0
 80156  1  0  0  0
 80157  1  0  0  0
 81 84  1  0  0  0
 81158  1  0  0  0
 81159  1  0  0  0
 82 83  1  0  0  0
 82 84  1  0  0  0
 82160  1  0  0  0
 82161  1  0  0  0
 83162  1  0  0  0
 83163  1  0  0  0
 84164  1  0  0  0
 85165  1  0  0  0
M  ISO  4   1 100  68 101  83 101  85 100
M  END
> <chiral flag>
0

> <version>
0

> <s_m_source_file>
/data/baiqing/PycharmProjects/Reinvent-master-3.2/result/LINK_invent/BTK/process_docking_weight1_custom_product_contain_oxygen_bond_distance_aromatic_linkinvent_7_9_3/rearranged_h_0133.sdf

> <i_m_source_file_index>
19

> <r_mmod_Potential_Energy-OPLS-2005>
-83.7226791381836

> <r_mmod_Stretch_Energy-OPLS-2005>
35.2090835571289

> <r_mmod_Bend_Energy-OPLS-2005>
95.28759765625

> <r_mmod_Torsional_Energy-OPLS-2005>
221.858932495117

> <r_mmod_Improper_Torsional_Energy-OPLS-2005>
2.17482304573059

> <r_mmod_Van_der_Waal_Energy-OPLS-2005>
155.569259643555

> <r_mmod_Electrostatic_Energy-OPLS-2005>
-408.566558837891

> <r_mmod_Solvation_Energy-OPLS-2005>
-193.398986816406

> <b_mmod_Minimization_Converged-OPLS-2005>
0

> <r_mmod_RMS_Derivative-OPLS-2005>
2.09388780593872

$$$$
19
                    3D
 Structure written by MMmdl.
163172  0  0  1  0            999 V2000
  -30.6967  -14.4751   20.6054 C   0  0  0  0  0  0
  -30.4369  -12.3274   19.4065 C   0  0  0  0  0  0
  -29.4991  -12.5203   18.1968 C   0  0  0  0  0  0
  -28.0192  -12.3736   18.6123 C   0  0  0  0  0  0
  -27.6656  -13.2035   19.8742 C   0  0  2  0  0  0
  -28.7092  -12.9682   20.9877 C   0  0  0  0  0  0
  -25.2620  -13.8158   20.5664 C   0  0  0  0  0  0
  -24.1856  -13.0449   20.9151 C   0  0  0  0  0  0
  -24.6400  -11.6910   20.8704 C   0  0  0  0  0  0
  -23.9059  -10.4302   21.0405 C   0  0  0  0  0  0
  -24.3626   -9.4223   21.9180 C   0  0  0  0  0  0
  -23.6299   -8.2259   22.0773 C   0  0  0  0  0  0
  -22.4286   -8.0279   21.3553 C   0  0  0  0  0  0
  -21.9906   -9.0253   20.4654 C   0  0  0  0  0  0
  -22.7234  -10.2136   20.3051 C   0  0  0  0  0  0
  -21.6861   -6.0721   22.5260 C   0  0  0  0  0  0
  -21.4002   -6.5625   23.8188 C   0  0  0  0  0  0
  -21.3679   -5.6788   24.9153 C   0  0  0  0  0  0
  -21.6057   -4.3053   24.7207 C   0  0  0  0  0  0
  -21.8828   -3.8137   23.4328 C   0  0  0  0  0  0
  -21.9204   -4.6947   22.3382 C   0  0  0  0  0  0
  -22.7880  -13.5259   21.1817 C   0  0  0  0  0  0
  -22.1671   -4.2138   21.0957 F   0  0  0  0  0  0
  -21.5662   -3.4529   25.7727 F   0  0  0  0  0  0
  -30.0375  -13.2952   20.4404 N   0  0  0  0  0  0
  -26.3057  -12.9312   20.3357 N   0  0  0  0  0  0
  -25.9332  -11.6483   20.5759 N   0  0  0  0  0  0
  -22.0531  -12.8245   22.0373 N   0  0  0  0  0  0
  -25.4388  -15.1872   20.4079 N   0  0  0  0  0  0
  -31.8103  -14.6896   20.1210 O   0  0  0  0  0  0
  -21.6653   -6.8870   21.4229 O   0  0  0  0  0  0
  -22.3566  -14.5567   20.6670 O   0  0  0  0  0  0
  -24.6179  -31.8674   23.2092 C   0  0  0  0  0  0
  -25.9067  -32.4811   23.8397 C   0  0  1  0  0  0
  -27.2291  -27.4053   20.0969 C   0  0  0  0  0  0
  -25.5913  -33.8610   24.2321 N   0  0  0  0  0  0
  -23.4062  -30.4926   21.5500 C   0  0  2  0  0  0
  -24.8504  -28.9599   20.1110 C   0  0  0  0  0  0
  -22.7426  -29.4665   22.4971 C   0  0  0  0  0  0
  -18.0284  -28.1379   22.8499 C   0  0  0  0  0  0
  -24.1489  -36.7302   23.2638 C   0  0  0  0  0  0
  -25.9390  -30.8221   21.3689 C   0  0  0  0  0  0
  -26.0130  -29.4566   20.7122 C   0  0  0  0  0  0
  -27.2033  -28.6870   20.7031 C   0  0  0  0  0  0
  -26.0476  -26.9435   19.4677 C   0  0  0  0  0  0
  -24.8650  -27.7038   19.4838 C   0  0  0  0  0  0
  -23.6146  -29.8299   20.1636 C   0  0  0  0  0  0
  -25.4114  -36.3103   24.0336 C   0  0  1  0  0  0
  -20.5877  -28.3674   23.1302 C   0  0  2  0  0  0
  -20.6770  -26.9407   22.5411 C   0  0  0  0  0  0
  -19.5746  -26.6385   21.5214 C   0  0  0  0  0  0
  -18.1924  -26.7927   22.1626 C   0  0  0  0  0  0
  -19.1534  -28.8845   23.2899 C   0  0  0  0  0  0
  -18.9455  -30.1447   23.8918 C   0  0  0  0  0  0
  -17.6454  -30.6581   24.0570 C   0  0  0  0  0  0
  -25.9047  -34.9469   23.5128 C   0  0  0  0  0  0
  -16.5349  -29.9084   23.6320 C   0  0  0  0  0  0
  -16.7272  -28.6500   23.0350 C   0  0  0  0  0  0
  -26.4487  -31.6592   25.0728 C   0  0  0  0  0  0
  -25.3735  -31.3705   26.1461 C   0  0  0  0  0  0
  -27.0310  -30.3031   24.6108 C   0  0  0  0  0  0
  -27.6074  -32.4309   25.7483 C   0  0  0  0  0  0
  -27.5586  -37.1809   24.8468 C   0  0  0  0  0  0
  -21.4153  -29.3041   22.3707 N   0  0  0  0  0  0
  -26.4299  -37.3791   23.9410 N   0  0  0  0  0  0
  -24.6723  -31.0760   22.1002 N   0  0  0  0  0  0
  -23.4189  -28.8203   23.3018 O   0  0  0  0  0  0
  -28.3874  -26.6412   20.1444 O   0  0  0  0  0  0
  -26.5600  -34.8926   22.4685 O   0  0  0  0  0  0
  -23.5365  -32.1441   23.7465 O   0  0  0  0  0  0
  -30.7168  -19.0724   18.5271 C   0  0  0  0  0  0
  -30.6661  -20.3575   19.1012 C   0  0  0  0  0  0
  -30.5729  -17.9229   19.3270 C   0  0  0  0  0  0
  -30.2737  -19.3572   21.2771 C   0  0  0  0  0  0
  -30.4276  -20.5325   20.4843 C   0  0  0  0  0  0
  -30.3738  -18.0525   20.7215 C   0  0  0  0  0  0
  -31.5885  -23.0911   22.5646 C   0  0  0  0  0  0
  -30.4360  -22.0913   22.6305 C   0  0  0  0  0  0
  -31.8716  -22.5475   21.1644 C   0  0  0  0  0  0
  -30.4359  -21.9699   21.0806 C   0  0  0  0  0  0
  -30.2983  -16.8231   21.6531 C   0  0  0  0  0  0
  -29.3709  -22.8628   20.3502 C   0  0  0  0  0  0
  -29.3704  -24.3982   20.6594 C   0  0  0  0  0  0
  -28.2784  -25.2154   19.9200 C   0  0  0  0  0  0
  -29.9911  -15.4305   21.2518 N   0  0  0  0  0  0
  -31.4786  -12.4491   19.1003 H   0  0  0  0  0  0
  -30.3584  -11.3124   19.7946 H   0  0  0  0  0  0
  -29.7398  -11.7988   17.4151 H   0  0  0  0  0  0
  -29.6622  -13.5083   17.7610 H   0  0  0  0  0  0
  -27.8326  -11.3155   18.7994 H   0  0  0  0  0  0
  -27.3668  -12.6551   17.7850 H   0  0  0  0  0  0
  -27.7132  -14.2533   19.5854 H   0  0  0  0  0  0
  -28.6924  -11.9234   21.2978 H   0  0  0  0  0  0
  -28.4608  -13.5335   21.8857 H   0  0  0  0  0  0
  -25.2799   -9.5691   22.4720 H   0  0  0  0  0  0
  -24.0019   -7.4649   22.7484 H   0  0  0  0  0  0
  -21.0851   -8.8758   19.8941 H   0  0  0  0  0  0
  -22.3713  -10.9662   19.6136 H   0  0  0  0  0  0
  -21.1952   -7.6129   23.9673 H   0  0  0  0  0  0
  -21.1521   -6.0520   25.9058 H   0  0  0  0  0  0
  -22.0591   -2.7594   23.2830 H   0  0  0  0  0  0
  -22.4188  -11.9919   22.4758 H   0  0  0  0  0  0
  -21.1134  -13.1238   22.2570 H   0  0  0  0  0  0
  -24.6801  -15.8504   20.5156 H   0  0  0  0  0  0
  -26.3016  -15.6209   20.1013 H   0  0  0  0  0  0
  -26.7132  -32.5512   23.1150 H   0  0  0  0  0  0
  -25.0092  -33.9779   25.0486 H   0  0  0  0  0  0
  -22.6970  -31.3107   21.4116 H   0  0  0  0  0  0
  -23.3757  -35.9631   23.3311 H   0  0  0  0  0  0
  -24.3583  -36.8905   22.2050 H   0  0  0  0  0  0
  -23.7237  -37.6508   23.6646 H   0  0  0  0  0  0
  -26.0604  -31.5895   20.6030 H   0  0  0  0  0  0
  -26.8237  -30.8696   21.9923 H   0  0  0  0  0  0
  -28.0971  -29.0659   21.1796 H   0  0  0  0  0  0
  -26.0149  -25.9955   18.9519 H   0  0  0  0  0  0
  -23.9765  -27.3183   19.0028 H   0  0  0  0  0  0
  -23.7267  -30.6055   19.4055 H   0  0  0  0  0  0
  -22.7369  -29.2531   19.8658 H   0  0  0  0  0  0
  -25.1296  -36.1972   25.0832 H   0  0  0  0  0  0
  -20.9979  -28.3240   24.1420 H   0  0  0  0  0  0
  -20.5666  -26.2294   23.3607 H   0  0  0  0  0  0
  -21.6638  -26.7440   22.1206 H   0  0  0  0  0  0
  -19.6902  -25.6296   21.1244 H   0  0  0  0  0  0
  -19.6675  -27.3198   20.6744 H   0  0  0  0  0  0
  -17.4194  -26.6687   21.4022 H   0  0  0  0  0  0
  -18.0317  -26.0060   22.9014 H   0  0  0  0  0  0
  -19.7930  -30.7259   24.2295 H   0  0  0  0  0  0
  -17.5009  -31.6265   24.5163 H   0  0  0  0  0  0
  -15.5353  -30.2994   23.7623 H   0  0  0  0  0  0
  -15.8675  -28.0823   22.7052 H   0  0  0  0  0  0
  -24.5909  -30.7057   25.7784 H   0  0  0  0  0  0
  -24.8925  -32.2856   26.4924 H   0  0  0  0  0  0
  -25.8068  -30.8854   27.0213 H   0  0  0  0  0  0
  -26.2850  -29.6800   24.1154 H   0  0  0  0  0  0
  -27.4068  -29.7270   25.4574 H   0  0  0  0  0  0
  -27.8703  -30.4358   23.9275 H   0  0  0  0  0  0
  -27.2708  -33.3607   26.2089 H   0  0  0  0  0  0
  -28.3864  -32.6865   25.0282 H   0  0  0  0  0  0
  -28.0759  -31.8407   26.5369 H   0  0  0  0  0  0
  -28.2611  -38.0099   24.7512 H   0  0  0  0  0  0
  -28.1074  -36.2632   24.6300 H   0  0  0  0  0  0
  -27.2300  -37.1462   25.8870 H   0  0  0  0  0  0
  -20.9312  -29.8785   21.6949 H   0  0  0  0  0  0
  -26.0188  -38.2875   24.1399 H   0  0  0  0  0  0
  -30.8894  -18.9671   17.4642 H   0  0  0  0  0  0
  -30.8281  -21.2136   18.4618 H   0  0  0  0  0  0
  -30.6378  -16.9439   18.8716 H   0  0  0  0  0  0
  -30.0915  -19.4244   22.3391 H   0  0  0  0  0  0
  -32.3844  -22.9081   23.2879 H   0  0  0  0  0  0
  -31.2736  -24.1333   22.5810 H   0  0  0  0  0  0
  -29.5106  -22.4836   23.0570 H   0  0  0  0  0  0
  -30.7676  -21.2074   23.1750 H   0  0  0  0  0  0
  -32.6395  -21.7709   21.1882 H   0  0  0  0  0  0
  -32.1181  -23.2973   20.4120 H   0  0  0  0  0  0
  -31.3353  -16.7623   21.3224 H   0  0  0  0  0  0
  -29.3001  -16.9572   21.2325 H   0  0  0  0  0  0
  -28.3761  -22.4647   20.5558 H   0  0  0  0  0  0
  -29.4927  -22.7778   19.2715 H   0  0  0  0  0  0
  -30.3438  -24.8192   20.4099 H   0  0  0  0  0  0
  -29.2270  -24.5545   21.7283 H   0  0  0  0  0  0
  -27.3185  -24.8352   20.2693 H   0  0  0  0  0  0
  -28.3285  -25.0271   18.8467 H   0  0  0  0  0  0
  -29.0858  -15.1090   21.5597 H   0  0  0  0  0  0
  1 25  1  0  0  0
  1 30  2  0  0  0
  1 85  1  0  0  0
  2  3  1  0  0  0
  2 25  1  0  0  0
  2 86  1  0  0  0
  2 87  1  0  0  0
  3  4  1  0  0  0
  3 88  1  0  0  0
  3 89  1  0  0  0
  4  5  1  0  0  0
  4 90  1  0  0  0
  4 91  1  0  0  0
  5  6  1  0  0  0
  5 26  1  0  0  0
  5 92  1  0  0  0
  6 25  1  0  0  0
  6 93  1  0  0  0
  6 94  1  0  0  0
  7  8  2  0  0  0
  7 26  1  0  0  0
  7 29  1  0  0  0
  8  9  1  0  0  0
  8 22  1  0  0  0
  9 10  1  0  0  0
  9 27  2  0  0  0
 10 11  2  0  0  0
 10 15  1  0  0  0
 11 12  1  0  0  0
 11 95  1  0  0  0
 12 13  2  0  0  0
 12 96  1  0  0  0
 13 14  1  0  0  0
 13 31  1  0  0  0
 14 15  2  0  0  0
 14 97  1  0  0  0
 15 98  1  0  0  0
 16 17  2  0  0  0
 16 21  1  0  0  0
 16 31  1  0  0  0
 17 18  1  0  0  0
 17 99  1  0  0  0
 18 19  2  0  0  0
 18100  1  0  0  0
 19 20  1  0  0  0
 19 24  1  0  0  0
 20 21  2  0  0  0
 20101  1  0  0  0
 21 23  1  0  0  0
 22 28  1  0  0  0
 22 32  2  0  0  0
 26 27  1  0  0  0
 28102  1  0  0  0
 28103  1  0  0  0
 29104  1  0  0  0
 29105  1  0  0  0
 33 34  1  0  0  0
 33 66  1  0  0  0
 33 70  2  0  0  0
 34 36  1  0  0  0
 34 59  1  0  0  0
 34106  1  0  0  0
 35 44  2  0  0  0
 35 45  1  0  0  0
 35 68  1  0  0  0
 36 56  1  0  0  0
 36107  1  0  0  0
 37 39  1  0  0  0
 37 47  1  0  0  0
 37 66  1  0  0  0
 37108  1  0  0  0
 38 43  2  0  0  0
 38 46  1  0  0  0
 38 47  1  0  0  0
 39 64  1  0  0  0
 39 67  2  0  0  0
 40 52  1  0  0  0
 40 53  2  0  0  0
 40 58  1  0  0  0
 41109  1  0  0  0
 41110  1  0  0  0
 41111  1  0  0  0
 41 48  1  0  0  0
 42 43  1  0  0  0
 42 66  1  0  0  0
 42112  1  0  0  0
 42113  1  0  0  0
 43 44  1  0  0  0
 44114  1  0  0  0
 45 46  2  0  0  0
 45115  1  0  0  0
 46116  1  0  0  0
 47117  1  0  0  0
 47118  1  0  0  0
 48 56  1  0  0  0
 48 65  1  0  0  0
 48119  1  0  0  0
 49 50  1  0  0  0
 49 53  1  0  0  0
 49 64  1  0  0  0
 49120  1  0  0  0
 50 51  1  0  0  0
 50121  1  0  0  0
 50122  1  0  0  0
 51 52  1  0  0  0
 51123  1  0  0  0
 51124  1  0  0  0
 52125  1  0  0  0
 52126  1  0  0  0
 53 54  1  0  0  0
 54 55  2  0  0  0
 54127  1  0  0  0
 55 57  1  0  0  0
 55128  1  0  0  0
 56 69  2  0  0  0
 57 58  2  0  0  0
 57129  1  0  0  0
 58130  1  0  0  0
 59 60  1  0  0  0
 59 61  1  0  0  0
 59 62  1  0  0  0
 60131  1  0  0  0
 60132  1  0  0  0
 60133  1  0  0  0
 61134  1  0  0  0
 61135  1  0  0  0
 61136  1  0  0  0
 62137  1  0  0  0
 62138  1  0  0  0
 62139  1  0  0  0
 63 65  1  0  0  0
 63140  1  0  0  0
 63141  1  0  0  0
 63142  1  0  0  0
 64143  1  0  0  0
 65144  1  0  0  0
 68 84  1  0  0  0
 71 72  2  0  0  0
 71 73  1  0  0  0
 71145  1  0  0  0
 72 75  1  0  0  0
 72146  1  0  0  0
 73 76  2  0  0  0
 73147  1  0  0  0
 74 75  2  0  0  0
 74 76  1  0  0  0
 74148  1  0  0  0
 75 80  1  0  0  0
 76 81  1  0  0  0
 77 78  1  0  0  0
 77 79  1  0  0  0
 77149  1  0  0  0
 77150  1  0  0  0
 78 80  1  0  0  0
 78151  1  0  0  0
 78152  1  0  0  0
 79 80  1  0  0  0
 79153  1  0  0  0
 79154  1  0  0  0
 80 82  1  0  0  0
 81 85  1  0  0  0
 81155  1  0  0  0
 81156  1  0  0  0
 82 83  1  0  0  0
 82157  1  0  0  0
 82158  1  0  0  0
 83 84  1  0  0  0
 83159  1  0  0  0
 83160  1  0  0  0
 84161  1  0  0  0
 84162  1  0  0  0
 85163  1  0  0  0
M  ISO  4   1 100  68 101  84 101  85 100
M  END
> <chiral flag>
0

> <version>
0

> <s_m_source_file>
/data/baiqing/PycharmProjects/Reinvent-master-3.2/result/LINK_invent/BTK/process_docking_weight1_custom_product_contain_oxygen_bond_distance_aromatic_linkinvent_7_9_3/rearranged_h_0133.sdf

> <i_m_source_file_index>
20

> <r_mmod_Potential_Energy-OPLS-2005>
172.034561157227

> <r_mmod_Stretch_Energy-OPLS-2005>
49.0860633850098

> <r_mmod_Bend_Energy-OPLS-2005>
336.71484375

> <r_mmod_Torsional_Energy-OPLS-2005>
222.588394165039

> <r_mmod_Improper_Torsional_Energy-OPLS-2005>
2.64426064491272

> <r_mmod_Van_der_Waal_Energy-OPLS-2005>
168.775756835938

> <r_mmod_Electrostatic_Energy-OPLS-2005>
-421.427886962891

> <r_mmod_Solvation_Energy-OPLS-2005>
-202.022659301758

> <b_mmod_Minimization_Converged-OPLS-2005>
0

> <r_mmod_RMS_Derivative-OPLS-2005>
2.49511528015137

$$$$
20
                    3D
 Structure written by MMmdl.
174182  0  0  1  0            999 V2000
  -30.6867  -14.4627   20.4422 C   0  0  0  0  0  0
  -30.4120  -12.2669   19.4129 C   0  0  0  0  0  0
  -29.4717  -12.4300   18.1955 C   0  0  0  0  0  0
  -27.9928  -12.3446   18.6114 C   0  0  0  0  0  0
  -27.6509  -13.2105   19.8559 C   0  0  2  0  0  0
  -28.7001  -13.0121   20.9747 C   0  0  0  0  0  0
  -25.2478  -13.8187   20.5563 C   0  0  0  0  0  0
  -24.1760  -13.0442   20.9172 C   0  0  0  0  0  0
  -24.6357  -11.6942   20.8745 C   0  0  0  0  0  0
  -23.9033  -10.4308   21.0423 C   0  0  0  0  0  0
  -24.3593   -9.4237   21.9205 C   0  0  0  0  0  0
  -23.6271   -8.2270   22.0780 C   0  0  0  0  0  0
  -22.4235   -8.0303   21.3594 C   0  0  0  0  0  0
  -21.9870   -9.0251   20.4656 C   0  0  0  0  0  0
  -22.7206  -10.2139   20.3060 C   0  0  0  0  0  0
  -21.6840   -6.0740   22.5296 C   0  0  0  0  0  0
  -21.4008   -6.5632   23.8243 C   0  0  0  0  0  0
  -21.3691   -5.6778   24.9200 C   0  0  0  0  0  0
  -21.6063   -4.3048   24.7230 C   0  0  0  0  0  0
  -21.8823   -3.8154   23.4338 C   0  0  0  0  0  0
  -21.9175   -4.6967   22.3411 C   0  0  0  0  0  0
  -22.7799  -13.5270   21.1799 C   0  0  0  0  0  0
  -22.1621   -4.2161   21.0969 F   0  0  0  0  0  0
  -21.5629   -3.4527   25.7738 F   0  0  0  0  0  0
  -30.0354  -13.2738   20.4115 N   0  0  0  0  0  0
  -26.2952  -12.9389   20.3308 N   0  0  0  0  0  0
  -25.9304  -11.6554   20.5826 N   0  0  0  0  0  0
  -22.0355  -12.8320   22.0333 N   0  0  0  0  0  0
  -25.3962  -15.1895   20.3858 N   0  0  0  0  0  0
  -31.8871  -14.5987   20.1997 O   0  0  0  0  0  0
  -21.6632   -6.8882   21.4260 O   0  0  0  0  0  0
  -22.3503  -14.5582   20.6644 O   0  0  0  0  0  0
  -24.6166  -31.8713   23.2138 C   0  0  0  0  0  0
  -25.9082  -32.4833   23.8391 C   0  0  1  0  0  0
  -27.2261  -27.4485   20.0751 C   0  0  0  0  0  0
  -25.5969  -33.8635   24.2363 N   0  0  0  0  0  0
  -23.4018  -30.4983   21.5558 C   0  0  2  0  0  0
  -24.8466  -28.9664   20.1117 C   0  0  0  0  0  0
  -22.7413  -29.4699   22.5027 C   0  0  0  0  0  0
  -18.0279  -28.1359   22.8517 C   0  0  0  0  0  0
  -24.1479  -36.7294   23.2632 C   0  0  0  0  0  0
  -25.9323  -30.8298   21.3730 C   0  0  0  0  0  0
  -26.0038  -29.4635   20.7271 C   0  0  0  0  0  0
  -27.1975  -28.7038   20.7239 C   0  0  0  0  0  0
  -26.0696  -26.9912   19.4139 C   0  0  0  0  0  0
  -24.8743  -27.7254   19.4549 C   0  0  0  0  0  0
  -23.6076  -29.8309   20.1690 C   0  0  0  0  0  0
  -25.4104  -36.3119   24.0338 C   0  0  1  0  0  0
  -20.5864  -28.3655   23.1322 C   0  0  2  0  0  0
  -20.6798  -26.9397   22.5408 C   0  0  0  0  0  0
  -19.5753  -26.6343   21.5251 C   0  0  0  0  0  0
  -18.1928  -26.7902   22.1650 C   0  0  0  0  0  0
  -19.1522  -28.8824   23.2916 C   0  0  0  0  0  0
  -18.9438  -30.1446   23.8886 C   0  0  0  0  0  0
  -17.6439  -30.6592   24.0531 C   0  0  0  0  0  0
  -25.9023  -34.9491   23.5130 C   0  0  0  0  0  0
  -16.5330  -29.9082   23.6326 C   0  0  0  0  0  0
  -16.7259  -28.6490   23.0364 C   0  0  0  0  0  0
  -26.4503  -31.6597   25.0721 C   0  0  0  0  0  0
  -25.3770  -31.3685   26.1469 C   0  0  0  0  0  0
  -27.0333  -30.3042   24.6093 C   0  0  0  0  0  0
  -27.6071  -32.4313   25.7505 C   0  0  0  0  0  0
  -27.5568  -37.1819   24.8476 C   0  0  0  0  0  0
  -21.4145  -29.3050   22.3763 N   0  0  0  0  0  0
  -26.4282  -37.3809   23.9425 N   0  0  0  0  0  0
  -24.6685  -31.0821   22.1032 N   0  0  0  0  0  0
  -23.4182  -28.8191   23.3029 O   0  0  0  0  0  0
  -28.3444  -26.6518   20.0249 O   0  0  0  0  0  0
  -26.5543  -34.8920   22.4670 O   0  0  0  0  0  0
  -23.5369  -32.1446   23.7559 O   0  0  0  0  0  0
  -29.7539  -17.8398   17.4896 C   0  0  0  0  0  0
  -28.8602  -17.6469   20.1192 C   0  0  0  0  0  0
  -28.8870  -18.8293   17.9877 C   0  0  0  0  0  0
  -30.2120  -16.7689   18.2904 C   0  0  0  0  0  0
  -28.4833  -18.7657   19.3432 C   0  0  0  0  0  0
  -29.7025  -16.6270   19.6237 C   0  0  0  0  0  0
  -28.4567  -19.9458   17.0405 C   0  0  0  0  0  0
  -31.2674  -15.8816   17.6405 C   0  0  0  0  0  0
  -28.3967  -23.3034   23.9568 C   0  0  0  0  0  0
  -26.6685  -24.9059   21.8707 C   0  0  0  0  0  0
  -27.6685  -19.8818   19.9916 C   0  0  0  0  0  0
  -28.8137  -24.5656   23.1834 C   0  0  0  0  0  0
  -28.5074  -21.1676   20.1622 C   0  0  0  0  0  0
  -27.7404  -22.3886   20.7061 C   0  0  0  0  0  0
  -28.6489  -23.6472   20.8024 C   0  0  0  0  0  0
  -28.8297  -26.1486   21.2733 C   0  0  0  0  0  0
  -28.2082  -24.7942   21.7670 C   0  0  1  0  0  0
  -29.8643  -15.5160   20.5192 N   0  0  0  0  0  0
  -31.4543  -12.3621   19.1011 H   0  0  0  0  0  0
  -30.3079  -11.2655   19.8304 H   0  0  0  0  0  0
  -29.6939  -11.6543   17.4629 H   0  0  0  0  0  0
  -29.6373  -13.3724   17.6820 H   0  0  0  0  0  0
  -27.7793  -11.2939   18.8152 H   0  0  0  0  0  0
  -27.3549  -12.6319   17.7731 H   0  0  0  0  0  0
  -27.6811  -14.2539   19.5454 H   0  0  0  0  0  0
  -28.6558  -11.9919   21.3524 H   0  0  0  0  0  0
  -28.4841  -13.6557   21.8301 H   0  0  0  0  0  0
  -25.2726   -9.5712   22.4804 H   0  0  0  0  0  0
  -24.0005   -7.4627   22.7487 H   0  0  0  0  0  0
  -21.0847   -8.8766   19.8909 H   0  0  0  0  0  0
  -22.3680  -10.9678   19.6165 H   0  0  0  0  0  0
  -21.1988   -7.6135   23.9744 H   0  0  0  0  0  0
  -21.1505   -6.0503   25.9113 H   0  0  0  0  0  0
  -22.0557   -2.7618   23.2831 H   0  0  0  0  0  0
  -22.3925  -12.0003   22.4832 H   0  0  0  0  0  0
  -21.0945  -13.1391   22.2368 H   0  0  0  0  0  0
  -24.6017  -15.8150   20.4839 H   0  0  0  0  0  0
  -26.2377  -15.6684   20.0938 H   0  0  0  0  0  0
  -26.7153  -32.5563   23.1149 H   0  0  0  0  0  0
  -25.0369  -33.9780   25.0673 H   0  0  0  0  0  0
  -22.6903  -31.3162   21.4199 H   0  0  0  0  0  0
  -23.3753  -35.9608   23.3324 H   0  0  0  0  0  0
  -24.3561  -36.8878   22.2033 H   0  0  0  0  0  0
  -23.7199  -37.6498   23.6618 H   0  0  0  0  0  0
  -26.0514  -31.5878   20.5976 H   0  0  0  0  0  0
  -26.8191  -30.8822   21.9908 H   0  0  0  0  0  0
  -28.0875  -29.0811   21.2092 H   0  0  0  0  0  0
  -26.0990  -26.0497   18.8821 H   0  0  0  0  0  0
  -23.9946  -27.3495   18.9513 H   0  0  0  0  0  0
  -23.7016  -30.6043   19.4059 H   0  0  0  0  0  0
  -22.7332  -29.2442   19.8780 H   0  0  0  0  0  0
  -25.1278  -36.1979   25.0819 H   0  0  0  0  0  0
  -20.9943  -28.3219   24.1449 H   0  0  0  0  0  0
  -20.5791  -26.2250   23.3590 H   0  0  0  0  0  0
  -21.6659  -26.7535   22.1125 H   0  0  0  0  0  0
  -19.6917  -25.6245   21.1307 H   0  0  0  0  0  0
  -19.6690  -27.3134   20.6771 H   0  0  0  0  0  0
  -17.4197  -26.6630   21.4055 H   0  0  0  0  0  0
  -18.0307  -26.0046   22.9033 H   0  0  0  0  0  0
  -19.7886  -30.7312   24.2211 H   0  0  0  0  0  0
  -17.4976  -31.6277   24.5102 H   0  0  0  0  0  0
  -15.5321  -30.2976   23.7662 H   0  0  0  0  0  0
  -15.8661  -28.0797   22.7088 H   0  0  0  0  0  0
  -24.5952  -30.7026   25.7805 H   0  0  0  0  0  0
  -24.8938  -32.2818   26.4940 H   0  0  0  0  0  0
  -25.8112  -30.8840   27.0220 H   0  0  0  0  0  0
  -26.2842  -29.6791   24.1214 H   0  0  0  0  0  0
  -27.4178  -29.7298   25.4533 H   0  0  0  0  0  0
  -27.8654  -30.4365   23.9177 H   0  0  0  0  0  0
  -27.2693  -33.3611   26.2094 H   0  0  0  0  0  0
  -28.3884  -32.6881   25.0342 H   0  0  0  0  0  0
  -28.0725  -31.8422   26.5420 H   0  0  0  0  0  0
  -28.2627  -38.0089   24.7548 H   0  0  0  0  0  0
  -28.1020  -36.2632   24.6282 H   0  0  0  0  0  0
  -27.2275  -37.1440   25.8875 H   0  0  0  0  0  0
  -20.9317  -29.8788   21.6995 H   0  0  0  0  0  0
  -26.0177  -38.2881   24.1443 H   0  0  0  0  0  0
  -30.0902  -17.9289   16.4665 H   0  0  0  0  0  0
  -28.4868  -17.5673   21.1301 H   0  0  0  0  0  0
  -28.1918  -19.5393   16.0633 H   0  0  0  0  0  0
  -29.2713  -20.6592   16.8867 H   0  0  0  0  0  0
  -27.5823  -20.4986   17.3856 H   0  0  0  0  0  0
  -31.2943  -16.0148   16.5584 H   0  0  0  0  0  0
  -31.1233  -14.8244   17.8114 H   0  0  0  0  0  0
  -32.2482  -16.1495   18.0342 H   0  0  0  0  0  0
  -28.8764  -23.2970   24.9364 H   0  0  0  0  0  0
  -28.6981  -22.3861   23.4512 H   0  0  0  0  0  0
  -27.3237  -23.2596   24.1343 H   0  0  0  0  0  0
  -26.2108  -24.0709   22.3965 H   0  0  0  0  0  0
  -26.2070  -24.9057   20.8867 H   0  0  0  0  0  0
  -26.3654  -25.8202   22.3813 H   0  0  0  0  0  0
  -27.3047  -19.5401   20.9636 H   0  0  0  0  0  0
  -26.7665  -20.0703   19.4082 H   0  0  0  0  0  0
  -29.9007  -24.5571   23.1039 H   0  0  0  0  0  0
  -28.5854  -25.4250   23.8121 H   0  0  0  0  0  0
  -28.9519  -21.4478   19.2095 H   0  0  0  0  0  0
  -29.3463  -20.9372   20.8201 H   0  0  0  0  0  0
  -27.3159  -22.1307   21.6733 H   0  0  0  0  0  0
  -26.8877  -22.6005   20.0575 H   0  0  0  0  0  0
  -28.7603  -24.0478   19.7917 H   0  0  0  0  0  0
  -29.6578  -23.3370   21.0889 H   0  0  0  0  0  0
  -29.9021  -26.0051   21.1313 H   0  0  0  0  0  0
  -28.7543  -26.9121   22.0485 H   0  0  0  0  0  0
  -29.0255  -15.2994   21.0353 H   0  0  0  0  0  0
  1 25  1  0  0  0
  1 30  2  0  0  0
  1 88  1  0  0  0
  2  3  1  0  0  0
  2 25  1  0  0  0
  2 89  1  0  0  0
  2 90  1  0  0  0
  3  4  1  0  0  0
  3 91  1  0  0  0
  3 92  1  0  0  0
  4  5  1  0  0  0
  4 93  1  0  0  0
  4 94  1  0  0  0
  5  6  1  0  0  0
  5 26  1  0  0  0
  5 95  1  0  0  0
  6 25  1  0  0  0
  6 96  1  0  0  0
  6 97  1  0  0  0
  7  8  2  0  0  0
  7 26  1  0  0  0
  7 29  1  0  0  0
  8  9  1  0  0  0
  8 22  1  0  0  0
  9 10  1  0  0  0
  9 27  2  0  0  0
 10 11  2  0  0  0
 10 15  1  0  0  0
 11 12  1  0  0  0
 11 98  1  0  0  0
 12 13  2  0  0  0
 12 99  1  0  0  0
 13 14  1  0  0  0
 13 31  1  0  0  0
 14 15  2  0  0  0
 14100  1  0  0  0
 15101  1  0  0  0
 16 17  2  0  0  0
 16 21  1  0  0  0
 16 31  1  0  0  0
 17 18  1  0  0  0
 17102  1  0  0  0
 18 19  2  0  0  0
 18103  1  0  0  0
 19 20  1  0  0  0
 19 24  1  0  0  0
 20 21  2  0  0  0
 20104  1  0  0  0
 21 23  1  0  0  0
 22 28  1  0  0  0
 22 32  2  0  0  0
 26 27  1  0  0  0
 28105  1  0  0  0
 28106  1  0  0  0
 29107  1  0  0  0
 29108  1  0  0  0
 33 34  1  0  0  0
 33 66  1  0  0  0
 33 70  2  0  0  0
 34 36  1  0  0  0
 34 59  1  0  0  0
 34109  1  0  0  0
 35 44  2  0  0  0
 35 45  1  0  0  0
 35 68  1  0  0  0
 36 56  1  0  0  0
 36110  1  0  0  0
 37 39  1  0  0  0
 37 47  1  0  0  0
 37 66  1  0  0  0
 37111  1  0  0  0
 38 43  2  0  0  0
 38 46  1  0  0  0
 38 47  1  0  0  0
 39 64  1  0  0  0
 39 67  2  0  0  0
 40 52  1  0  0  0
 40 53  2  0  0  0
 40 58  1  0  0  0
 41112  1  0  0  0
 41113  1  0  0  0
 41114  1  0  0  0
 41 48  1  0  0  0
 42 43  1  0  0  0
 42 66  1  0  0  0
 42115  1  0  0  0
 42116  1  0  0  0
 43 44  1  0  0  0
 44117  1  0  0  0
 45 46  2  0  0  0
 45118  1  0  0  0
 46119  1  0  0  0
 47120  1  0  0  0
 47121  1  0  0  0
 48 56  1  0  0  0
 48 65  1  0  0  0
 48122  1  0  0  0
 49 50  1  0  0  0
 49 53  1  0  0  0
 49 64  1  0  0  0
 49123  1  0  0  0
 50 51  1  0  0  0
 50124  1  0  0  0
 50125  1  0  0  0
 51 52  1  0  0  0
 51126  1  0  0  0
 51127  1  0  0  0
 52128  1  0  0  0
 52129  1  0  0  0
 53 54  1  0  0  0
 54 55  2  0  0  0
 54130  1  0  0  0
 55 57  1  0  0  0
 55131  1  0  0  0
 56 69  2  0  0  0
 57 58  2  0  0  0
 57132  1  0  0  0
 58133  1  0  0  0
 59 60  1  0  0  0
 59 61  1  0  0  0
 59 62  1  0  0  0
 60134  1  0  0  0
 60135  1  0  0  0
 60136  1  0  0  0
 61137  1  0  0  0
 61138  1  0  0  0
 61139  1  0  0  0
 62140  1  0  0  0
 62141  1  0  0  0
 62142  1  0  0  0
 63 65  1  0  0  0
 63143  1  0  0  0
 63144  1  0  0  0
 63145  1  0  0  0
 64146  1  0  0  0
 65147  1  0  0  0
 68 86  1  0  0  0
 71 73  2  0  0  0
 71 74  1  0  0  0
 71148  1  0  0  0
 72 75  2  0  0  0
 72 76  1  0  0  0
 72149  1  0  0  0
 73 75  1  0  0  0
 73 77  1  0  0  0
 74 76  2  0  0  0
 74 78  1  0  0  0
 75 81  1  0  0  0
 76 88  1  0  0  0
 77150  1  0  0  0
 77151  1  0  0  0
 77152  1  0  0  0
 78153  1  0  0  0
 78154  1  0  0  0
 78155  1  0  0  0
 79 82  1  0  0  0
 79156  1  0  0  0
 79157  1  0  0  0
 79158  1  0  0  0
 80159  1  0  0  0
 80160  1  0  0  0
 80161  1  0  0  0
 80 87  1  0  0  0
 81 83  1  0  0  0
 81162  1  0  0  0
 81163  1  0  0  0
 82 87  1  0  0  0
 82164  1  0  0  0
 82165  1  0  0  0
 83 84  1  0  0  0
 83166  1  0  0  0
 83167  1  0  0  0
 84 85  1  0  0  0
 84168  1  0  0  0
 84169  1  0  0  0
 85 87  1  0  0  0
 85170  1  0  0  0
 85171  1  0  0  0
 86 87  1  0  0  0
 86172  1  0  0  0
 86173  1  0  0  0
 88174  1  0  0  0
M  ISO  4   1 100  68 101  86 101  88 100
M  END
> <chiral flag>
0

> <version>
0

> <s_m_source_file>
/data/baiqing/PycharmProjects/Reinvent-master-3.2/result/LINK_invent/BTK/process_docking_weight1_custom_product_contain_oxygen_bond_distance_aromatic_linkinvent_7_9_3/rearranged_h_0133.sdf

> <i_m_source_file_index>
21

> <r_mmod_Potential_Energy-OPLS-2005>
64.6195297241211

> <r_mmod_Stretch_Energy-OPLS-2005>
41.3881874084473

> <r_mmod_Bend_Energy-OPLS-2005>
131.465560913086

> <r_mmod_Torsional_Energy-OPLS-2005>
292.389831542969

> <r_mmod_Improper_Torsional_Energy-OPLS-2005>
7.83367395401001

> <r_mmod_Van_der_Waal_Energy-OPLS-2005>
158.33757019043

> <r_mmod_Electrostatic_Energy-OPLS-2005>
-403.537231445312

> <r_mmod_Solvation_Energy-OPLS-2005>
-185.653198242188

> <b_mmod_Minimization_Converged-OPLS-2005>
0

> <r_mmod_RMS_Derivative-OPLS-2005>
5.88445043563843

$$$$
21
                    3D
 Structure written by MMmdl.
159167  0  0  1  0            999 V2000
  -30.6949  -14.4206   20.6229 C   0  0  0  0  0  0
  -30.4269  -12.3032   19.3938 C   0  0  0  0  0  0
  -29.4861  -12.5232   18.1912 C   0  0  0  0  0  0
  -28.0107  -12.3715   18.6119 C   0  0  0  0  0  0
  -27.6656  -13.1946   19.8821 C   0  0  2  0  0  0
  -28.7028  -12.9286   20.9945 C   0  0  0  0  0  0
  -25.2621  -13.8137   20.5688 C   0  0  0  0  0  0
  -24.1843  -13.0444   20.9169 C   0  0  0  0  0  0
  -24.6359  -11.6899   20.8727 C   0  0  0  0  0  0
  -23.9035  -10.4296   21.0403 C   0  0  0  0  0  0
  -24.3601   -9.4224   21.9182 C   0  0  0  0  0  0
  -23.6285   -8.2264   22.0773 C   0  0  0  0  0  0
  -22.4277   -8.0287   21.3559 C   0  0  0  0  0  0
  -21.9896   -9.0261   20.4665 C   0  0  0  0  0  0
  -22.7214  -10.2137   20.3062 C   0  0  0  0  0  0
  -21.6847   -6.0739   22.5272 C   0  0  0  0  0  0
  -21.4003   -6.5632   23.8212 C   0  0  0  0  0  0
  -21.3663   -5.6788   24.9167 C   0  0  0  0  0  0
  -21.6055   -4.3061   24.7218 C   0  0  0  0  0  0
  -21.8823   -3.8143   23.4341 C   0  0  0  0  0  0
  -21.9195   -4.6960   22.3389 C   0  0  0  0  0  0
  -22.7866  -13.5272   21.1828 C   0  0  0  0  0  0
  -22.1663   -4.2137   21.0972 F   0  0  0  0  0  0
  -21.5644   -3.4541   25.7734 F   0  0  0  0  0  0
  -30.0388  -13.2454   20.4497 N   0  0  0  0  0  0
  -26.3030  -12.9277   20.3381 N   0  0  0  0  0  0
  -25.9286  -11.6447   20.5749 N   0  0  0  0  0  0
  -22.0500  -12.8272   22.0369 N   0  0  0  0  0  0
  -25.4379  -15.1850   20.4152 N   0  0  0  0  0  0
  -31.7805  -14.6850   20.0931 O   0  0  0  0  0  0
  -21.6656   -6.8877   21.4244 O   0  0  0  0  0  0
  -22.3558  -14.5585   20.6672 O   0  0  0  0  0  0
  -24.6094  -31.8716   23.2130 C   0  0  0  0  0  0
  -25.8993  -32.4829   23.8407 C   0  0  1  0  0  0
  -27.2419  -27.4647   20.0813 C   0  0  0  0  0  0
  -25.5900  -33.8634   24.2351 N   0  0  0  0  0  0
  -23.3957  -30.4945   21.5539 C   0  0  2  0  0  0
  -24.8400  -28.9635   20.1200 C   0  0  0  0  0  0
  -22.7365  -29.4673   22.5008 C   0  0  0  0  0  0
  -18.0259  -28.1343   22.8448 C   0  0  0  0  0  0
  -24.1498  -36.7326   23.2641 C   0  0  0  0  0  0
  -25.9210  -30.8437   21.3627 C   0  0  0  0  0  0
  -25.9992  -29.4800   20.7116 C   0  0  0  0  0  0
  -27.1976  -28.7364   20.6928 C   0  0  0  0  0  0
  -26.0542  -26.9479   19.5079 C   0  0  0  0  0  0
  -24.8604  -27.6943   19.5208 C   0  0  0  0  0  0
  -23.6026  -29.8286   20.1674 C   0  0  0  0  0  0
  -25.4117  -36.3131   24.0343 C   0  0  1  0  0  0
  -20.5831  -28.3633   23.1329 C   0  0  2  0  0  0
  -20.6791  -26.9390   22.5415 C   0  0  0  0  0  0
  -19.5779  -26.6353   21.5187 C   0  0  0  0  0  0
  -18.1920  -26.7888   22.1570 C   0  0  0  0  0  0
  -19.1501  -28.8797   23.2893 C   0  0  0  0  0  0
  -18.9431  -30.1400   23.8939 C   0  0  0  0  0  0
  -17.6439  -30.6527   24.0587 C   0  0  0  0  0  0
  -25.9029  -34.9493   23.5146 C   0  0  0  0  0  0
  -16.5330  -29.9058   23.6301 C   0  0  0  0  0  0
  -16.7249  -28.6476   23.0296 C   0  0  0  0  0  0
  -26.4470  -31.6578   25.0703 C   0  0  0  0  0  0
  -25.3769  -31.3663   26.1459 C   0  0  0  0  0  0
  -27.0308  -30.3036   24.6048 C   0  0  0  0  0  0
  -27.6047  -32.4290   25.7470 C   0  0  0  0  0  0
  -27.5580  -37.1832   24.8465 C   0  0  0  0  0  0
  -21.4093  -29.3036   22.3769 N   0  0  0  0  0  0
  -26.4301  -37.3814   23.9398 N   0  0  0  0  0  0
  -24.6587  -31.0833   22.1023 N   0  0  0  0  0  0
  -23.4160  -28.8223   23.3025 O   0  0  0  0  0  0
  -28.4525  -26.8010   20.0693 O   0  0  0  0  0  0
  -26.5573  -34.8944   22.4694 O   0  0  0  0  0  0
  -23.5300  -32.1457   23.7557 O   0  0  0  0  0  0
  -26.8639  -17.9309   22.7242 C   0  0  0  0  0  0
  -26.6319  -19.0327   21.8800 C   0  0  0  0  0  0
  -28.0561  -17.1901   22.6068 C   0  0  0  0  0  0
  -28.7749  -18.6388   20.7806 C   0  0  0  0  0  0
  -27.5860  -19.3897   20.9041 C   0  0  0  0  0  0
  -29.0185  -17.5401   21.6330 C   0  0  0  0  0  0
  -27.3417  -20.5884   20.0079 C   0  0  0  0  0  0
  -30.3041  -16.7361   21.5023 C   0  0  0  0  0  0
  -27.7151  -21.9104   20.7006 C   0  0  0  0  0  0
  -27.9106  -23.0649   19.7065 C   0  0  0  0  0  0
  -28.1160  -24.4155   20.4090 C   0  0  0  0  0  0
  -28.5614  -25.5257   19.4448 C   0  0  0  0  0  0
  -30.0138  -15.3171   21.3427 N   0  0  0  0  0  0
  -31.4679  -12.4285   19.0898 H   0  0  0  0  0  0
  -30.3446  -11.2811   19.7645 H   0  0  0  0  0  0
  -29.7220  -11.8129   17.3988 H   0  0  0  0  0  0
  -29.6454  -13.5152   17.7660 H   0  0  0  0  0  0
  -27.8310  -11.3114   18.7956 H   0  0  0  0  0  0
  -27.3508  -12.6526   17.7898 H   0  0  0  0  0  0
  -27.7265  -14.2505   19.6158 H   0  0  0  0  0  0
  -28.6716  -11.8819   21.3018 H   0  0  0  0  0  0
  -28.4506  -13.4879   21.8967 H   0  0  0  0  0  0
  -25.2756   -9.5699   22.4740 H   0  0  0  0  0  0
  -24.0005   -7.4655   22.7476 H   0  0  0  0  0  0
  -21.0851   -8.8778   19.8948 H   0  0  0  0  0  0
  -22.3695  -10.9681   19.6169 H   0  0  0  0  0  0
  -21.1988   -7.6130   23.9692 H   0  0  0  0  0  0
  -21.1483   -6.0523   25.9065 H   0  0  0  0  0  0
  -22.0598   -2.7599   23.2842 H   0  0  0  0  0  0
  -22.4138  -11.9962   22.4771 H   0  0  0  0  0  0
  -21.1092  -13.1277   22.2525 H   0  0  0  0  0  0
  -24.6879  -15.8480   20.5772 H   0  0  0  0  0  0
  -26.3143  -15.6319   20.1771 H   0  0  0  0  0  0
  -26.7059  -32.5564   23.1167 H   0  0  0  0  0  0
  -25.0097  -33.9828   25.0525 H   0  0  0  0  0  0
  -22.6826  -31.3090   21.4157 H   0  0  0  0  0  0
  -23.3761  -35.9655   23.3326 H   0  0  0  0  0  0
  -24.3587  -36.8920   22.2054 H   0  0  0  0  0  0
  -23.7265  -37.6549   23.6628 H   0  0  0  0  0  0
  -26.0260  -31.6113   20.5953 H   0  0  0  0  0  0
  -26.8104  -30.8973   21.9781 H   0  0  0  0  0  0
  -28.0958  -29.1370   21.1426 H   0  0  0  0  0  0
  -26.0225  -25.9726   19.0499 H   0  0  0  0  0  0
  -23.9657  -27.2853   19.0720 H   0  0  0  0  0  0
  -23.7142  -30.6059   19.4114 H   0  0  0  0  0  0
  -22.7287  -29.2493   19.8674 H   0  0  0  0  0  0
  -25.1307  -36.2011   25.0841 H   0  0  0  0  0  0
  -20.9907  -28.3227   24.1448 H   0  0  0  0  0  0
  -20.5702  -26.2234   23.3589 H   0  0  0  0  0  0
  -21.6711  -26.7501   22.1253 H   0  0  0  0  0  0
  -19.6940  -25.6259   21.1227 H   0  0  0  0  0  0
  -19.6728  -27.3174   20.6740 H   0  0  0  0  0  0
  -17.4227  -26.6635   21.3939 H   0  0  0  0  0  0
  -18.0244  -26.0038   22.8959 H   0  0  0  0  0  0
  -19.7870  -30.7231   24.2376 H   0  0  0  0  0  0
  -17.5013  -31.6215   24.5175 H   0  0  0  0  0  0
  -15.5326  -30.2986   23.7631 H   0  0  0  0  0  0
  -15.8666  -28.0817   22.6943 H   0  0  0  0  0  0
  -24.5934  -30.7020   25.7798 H   0  0  0  0  0  0
  -24.8964  -32.2814   26.4936 H   0  0  0  0  0  0
  -25.8145  -30.8811   27.0188 H   0  0  0  0  0  0
  -26.2848  -29.6772   24.1142 H   0  0  0  0  0  0
  -27.4157  -29.7289   25.4481 H   0  0  0  0  0  0
  -27.8636  -30.4377   23.9136 H   0  0  0  0  0  0
  -27.2659  -33.3572   26.2083 H   0  0  0  0  0  0
  -28.3835  -32.6875   25.0283 H   0  0  0  0  0  0
  -28.0711  -31.8376   26.5361 H   0  0  0  0  0  0
  -28.2628  -38.0107   24.7497 H   0  0  0  0  0  0
  -28.1060  -36.2645   24.6316 H   0  0  0  0  0  0
  -27.2280  -37.1506   25.8866 H   0  0  0  0  0  0
  -20.9174  -29.8740   21.7025 H   0  0  0  0  0  0
  -26.0198  -38.2896   24.1395 H   0  0  0  0  0  0
  -26.1294  -17.6587   23.4709 H   0  0  0  0  0  0
  -25.7243  -19.6107   21.9877 H   0  0  0  0  0  0
  -28.2218  -16.3498   23.2711 H   0  0  0  0  0  0
  -29.5082  -18.9079   20.0324 H   0  0  0  0  0  0
  -26.2908  -20.6063   19.7084 H   0  0  0  0  0  0
  -27.9166  -20.4640   19.0881 H   0  0  0  0  0  0
  -30.9065  -17.1152   20.6736 H   0  0  0  0  0  0
  -30.8945  -16.8718   22.4086 H   0  0  0  0  0  0
  -26.9555  -22.1620   21.4405 H   0  0  0  0  0  0
  -28.6452  -21.7784   21.2544 H   0  0  0  0  0  0
  -27.0535  -23.1318   19.0351 H   0  0  0  0  0  0
  -28.7736  -22.8404   19.0794 H   0  0  0  0  0  0
  -28.8680  -24.3244   21.1968 H   0  0  0  0  0  0
  -27.1907  -24.6932   20.9126 H   0  0  0  0  0  0
  -28.0375  -25.4967   18.4896 H   0  0  0  0  0  0
  -29.6132  -25.3709   19.1982 H   0  0  0  0  0  0
  -29.1277  -15.0043   21.7081 H   0  0  0  0  0  0
  1 25  1  0  0  0
  1 30  2  0  0  0
  1 83  1  0  0  0
  2  3  1  0  0  0
  2 25  1  0  0  0
  2 84  1  0  0  0
  2 85  1  0  0  0
  3  4  1  0  0  0
  3 86  1  0  0  0
  3 87  1  0  0  0
  4  5  1  0  0  0
  4 88  1  0  0  0
  4 89  1  0  0  0
  5  6  1  0  0  0
  5 26  1  0  0  0
  5 90  1  0  0  0
  6 25  1  0  0  0
  6 91  1  0  0  0
  6 92  1  0  0  0
  7  8  2  0  0  0
  7 26  1  0  0  0
  7 29  1  0  0  0
  8  9  1  0  0  0
  8 22  1  0  0  0
  9 10  1  0  0  0
  9 27  2  0  0  0
 10 11  2  0  0  0
 10 15  1  0  0  0
 11 12  1  0  0  0
 11 93  1  0  0  0
 12 13  2  0  0  0
 12 94  1  0  0  0
 13 14  1  0  0  0
 13 31  1  0  0  0
 14 15  2  0  0  0
 14 95  1  0  0  0
 15 96  1  0  0  0
 16 17  2  0  0  0
 16 21  1  0  0  0
 16 31  1  0  0  0
 17 18  1  0  0  0
 17 97  1  0  0  0
 18 19  2  0  0  0
 18 98  1  0  0  0
 19 20  1  0  0  0
 19 24  1  0  0  0
 20 21  2  0  0  0
 20 99  1  0  0  0
 21 23  1  0  0  0
 22 28  1  0  0  0
 22 32  2  0  0  0
 26 27  1  0  0  0
 28100  1  0  0  0
 28101  1  0  0  0
 29102  1  0  0  0
 29103  1  0  0  0
 33 34  1  0  0  0
 33 66  1  0  0  0
 33 70  2  0  0  0
 34 36  1  0  0  0
 34 59  1  0  0  0
 34104  1  0  0  0
 35 44  2  0  0  0
 35 45  1  0  0  0
 35 68  1  0  0  0
 36 56  1  0  0  0
 36105  1  0  0  0
 37 39  1  0  0  0
 37 47  1  0  0  0
 37 66  1  0  0  0
 37106  1  0  0  0
 38 43  2  0  0  0
 38 46  1  0  0  0
 38 47  1  0  0  0
 39 64  1  0  0  0
 39 67  2  0  0  0
 40 52  1  0  0  0
 40 53  2  0  0  0
 40 58  1  0  0  0
 41107  1  0  0  0
 41108  1  0  0  0
 41109  1  0  0  0
 41 48  1  0  0  0
 42 43  1  0  0  0
 42 66  1  0  0  0
 42110  1  0  0  0
 42111  1  0  0  0
 43 44  1  0  0  0
 44112  1  0  0  0
 45 46  2  0  0  0
 45113  1  0  0  0
 46114  1  0  0  0
 47115  1  0  0  0
 47116  1  0  0  0
 48 56  1  0  0  0
 48 65  1  0  0  0
 48117  1  0  0  0
 49 50  1  0  0  0
 49 53  1  0  0  0
 49 64  1  0  0  0
 49118  1  0  0  0
 50 51  1  0  0  0
 50119  1  0  0  0
 50120  1  0  0  0
 51 52  1  0  0  0
 51121  1  0  0  0
 51122  1  0  0  0
 52123  1  0  0  0
 52124  1  0  0  0
 53 54  1  0  0  0
 54 55  2  0  0  0
 54125  1  0  0  0
 55 57  1  0  0  0
 55126  1  0  0  0
 56 69  2  0  0  0
 57 58  2  0  0  0
 57127  1  0  0  0
 58128  1  0  0  0
 59 60  1  0  0  0
 59 61  1  0  0  0
 59 62  1  0  0  0
 60129  1  0  0  0
 60130  1  0  0  0
 60131  1  0  0  0
 61132  1  0  0  0
 61133  1  0  0  0
 61134  1  0  0  0
 62135  1  0  0  0
 62136  1  0  0  0
 62137  1  0  0  0
 63 65  1  0  0  0
 63138  1  0  0  0
 63139  1  0  0  0
 63140  1  0  0  0
 64141  1  0  0  0
 65142  1  0  0  0
 68 82  1  0  0  0
 71 72  2  0  0  0
 71 73  1  0  0  0
 71143  1  0  0  0
 72 75  1  0  0  0
 72144  1  0  0  0
 73 76  2  0  0  0
 73145  1  0  0  0
 74 75  2  0  0  0
 74 76  1  0  0  0
 74146  1  0  0  0
 75 77  1  0  0  0
 76 78  1  0  0  0
 77 79  1  0  0  0
 77147  1  0  0  0
 77148  1  0  0  0
 78 83  1  0  0  0
 78149  1  0  0  0
 78150  1  0  0  0
 79 80  1  0  0  0
 79151  1  0  0  0
 79152  1  0  0  0
 80 81  1  0  0  0
 80153  1  0  0  0
 80154  1  0  0  0
 81 82  1  0  0  0
 81155  1  0  0  0
 81156  1  0  0  0
 82157  1  0  0  0
 82158  1  0  0  0
 83159  1  0  0  0
M  ISO  4   1 100  68 101  82 101  83 100
M  END
> <chiral flag>
0

> <version>
0

> <s_m_source_file>
/data/baiqing/PycharmProjects/Reinvent-master-3.2/result/LINK_invent/BTK/process_docking_weight1_custom_product_contain_oxygen_bond_distance_aromatic_linkinvent_7_9_3/rearranged_h_0133.sdf

> <i_m_source_file_index>
22

> <r_mmod_Potential_Energy-OPLS-2005>
-125.53182220459

> <r_mmod_Stretch_Energy-OPLS-2005>
30.9718227386475

> <r_mmod_Bend_Energy-OPLS-2005>
92.0083999633789

> <r_mmod_Torsional_Energy-OPLS-2005>
189.194747924805

> <r_mmod_Improper_Torsional_Energy-OPLS-2005>
2.62112474441528

> <r_mmod_Van_der_Waal_Energy-OPLS-2005>
150.013198852539

> <r_mmod_Electrostatic_Energy-OPLS-2005>
-404.809631347656

> <r_mmod_Solvation_Energy-OPLS-2005>
-194.505783081055

> <b_mmod_Minimization_Converged-OPLS-2005>
0

> <r_mmod_RMS_Derivative-OPLS-2005>
3.86293315887451

$$$$
22
                    3D
 Structure written by MMmdl.
162170  0  0  1  0            999 V2000
  -30.6756  -14.4989   20.3182 C   0  0  0  0  0  0
  -30.4088  -12.2645   19.4303 C   0  0  0  0  0  0
  -29.4878  -12.4103   18.2013 C   0  0  0  0  0  0
  -28.0048  -12.3190   18.6177 C   0  0  0  0  0  0
  -27.6415  -13.2104   19.8364 C   0  0  2  0  0  0
  -28.6969  -13.1002   20.9558 C   0  0  0  0  0  0
  -25.2534  -13.8172   20.5695 C   0  0  0  0  0  0
  -24.1801  -13.0430   20.9220 C   0  0  0  0  0  0
  -24.6378  -11.6910   20.8776 C   0  0  0  0  0  0
  -23.9070  -10.4285   21.0416 C   0  0  0  0  0  0
  -24.3612   -9.4197   21.9187 C   0  0  0  0  0  0
  -23.6284   -8.2234   22.0748 C   0  0  0  0  0  0
  -22.4272   -8.0280   21.3546 C   0  0  0  0  0  0
  -21.9915   -9.0254   20.4641 C   0  0  0  0  0  0
  -22.7244  -10.2133   20.3053 C   0  0  0  0  0  0
  -21.6840   -6.0743   22.5293 C   0  0  0  0  0  0
  -21.4002   -6.5637   23.8229 C   0  0  0  0  0  0
  -21.3680   -5.6795   24.9196 C   0  0  0  0  0  0
  -21.6034   -4.3054   24.7236 C   0  0  0  0  0  0
  -21.8816   -3.8149   23.4355 C   0  0  0  0  0  0
  -21.9181   -4.6972   22.3416 C   0  0  0  0  0  0
  -22.7821  -13.5222   21.1885 C   0  0  0  0  0  0
  -22.1648   -4.2161   21.0990 F   0  0  0  0  0  0
  -21.5651   -3.4533   25.7748 F   0  0  0  0  0  0
  -30.0332  -13.3074   20.3882 N   0  0  0  0  0  0
  -26.2947  -12.9325   20.3266 N   0  0  0  0  0  0
  -25.9293  -11.6499   20.5757 N   0  0  0  0  0  0
  -22.0446  -12.8225   22.0443 N   0  0  0  0  0  0
  -25.4282  -15.1873   20.4125 N   0  0  0  0  0  0
  -31.9015  -14.5856   20.3465 O   0  0  0  0  0  0
  -21.6637   -6.8881   21.4248 O   0  0  0  0  0  0
  -22.3521  -14.5542   20.6739 O   0  0  0  0  0  0
  -24.6097  -31.8710   23.2113 C   0  0  0  0  0  0
  -25.9001  -32.4846   23.8393 C   0  0  1  0  0  0
  -27.2458  -27.4802   20.0831 C   0  0  0  0  0  0
  -25.5867  -33.8629   24.2324 N   0  0  0  0  0  0
  -23.3969  -30.4913   21.5531 C   0  0  2  0  0  0
  -24.8459  -28.9543   20.1226 C   0  0  0  0  0  0
  -22.7382  -29.4666   22.5029 C   0  0  0  0  0  0
  -18.0273  -28.1326   22.8473 C   0  0  0  0  0  0
  -24.1488  -36.7338   23.2636 C   0  0  0  0  0  0
  -25.9190  -30.8464   21.3571 C   0  0  0  0  0  0
  -26.0016  -29.4800   20.7146 C   0  0  0  0  0  0
  -27.2060  -28.7473   20.6999 C   0  0  0  0  0  0
  -26.0809  -26.9565   19.4878 C   0  0  0  0  0  0
  -24.8770  -27.6872   19.5104 C   0  0  0  0  0  0
  -23.6047  -29.8159   20.1709 C   0  0  0  0  0  0
  -25.4104  -36.3124   24.0337 C   0  0  1  0  0  0
  -20.5860  -28.3665   23.1319 C   0  0  2  0  0  0
  -20.6779  -26.9393   22.5413 C   0  0  0  0  0  0
  -19.5736  -26.6340   21.5227 C   0  0  0  0  0  0
  -18.1908  -26.7877   22.1610 C   0  0  0  0  0  0
  -19.1518  -28.8794   23.2890 C   0  0  0  0  0  0
  -18.9467  -30.1398   23.8896 C   0  0  0  0  0  0
  -17.6473  -30.6540   24.0519 C   0  0  0  0  0  0
  -25.9023  -34.9498   23.5135 C   0  0  0  0  0  0
  -16.5354  -29.9047   23.6269 C   0  0  0  0  0  0
  -16.7257  -28.6451   23.0340 C   0  0  0  0  0  0
  -26.4433  -31.6616   25.0710 C   0  0  0  0  0  0
  -25.3712  -31.3711   26.1465 C   0  0  0  0  0  0
  -27.0262  -30.3077   24.6044 C   0  0  0  0  0  0
  -27.6006  -32.4330   25.7478 C   0  0  0  0  0  0
  -27.5575  -37.1827   24.8459 C   0  0  0  0  0  0
  -21.4103  -29.3086   22.3796 N   0  0  0  0  0  0
  -26.4290  -37.3800   23.9415 N   0  0  0  0  0  0
  -24.6614  -31.0817   22.1008 N   0  0  0  0  0  0
  -23.4167  -28.8149   23.3023 O   0  0  0  0  0  0
  -28.4120  -26.7622   20.0467 O   0  0  0  0  0  0
  -26.5582  -34.8930   22.4689 O   0  0  0  0  0  0
  -23.5293  -32.1431   23.7535 O   0  0  0  0  0  0
  -26.3794  -21.1531   20.3735 C   0  0  0  0  0  0
  -26.0615  -20.1656   19.4233 C   0  0  0  0  0  0
  -28.5574  -20.1173   20.7156 C   0  0  0  0  0  0
  -27.6361  -21.1438   21.0157 C   0  0  0  0  0  0
  -26.9916  -19.1529   19.1094 C   0  0  0  0  0  0
  -28.2470  -19.1169   19.7690 C   0  0  0  0  0  0
  -28.2080  -24.4479   20.7795 C   0  0  0  0  0  0
  -26.6333  -18.1297   18.0475 C   0  0  0  0  0  0
  -28.0048  -22.1903   22.0628 C   0  0  0  0  0  0
  -29.2950  -18.0605   19.4374 C   0  0  0  0  0  0
  -27.4701  -23.6224   21.8385 C   0  0  0  0  0  0
  -28.5621  -25.8884   21.1645 C   0  0  0  0  0  0
  -29.9859  -15.6398   19.5324 C   0  0  0  0  0  0
  -29.2516  -16.7649   20.2901 C   0  0  0  0  0  0
  -28.4960  -23.9863   19.6694 O   0  0  0  0  0  0
  -30.2936  -11.2795   19.8870 H   0  0  0  0  0  0
  -31.4559  -12.3389   19.1270 H   0  0  0  0  0  0
  -29.7107  -11.6196   17.4847 H   0  0  0  0  0  0
  -29.6875  -13.3440   17.6776 H   0  0  0  0  0  0
  -27.8024  -11.2748   18.8569 H   0  0  0  0  0  0
  -27.3637  -12.5602   17.7693 H   0  0  0  0  0  0
  -27.6290  -14.2351   19.4742 H   0  0  0  0  0  0
  -28.4974  -13.8423   21.7294 H   0  0  0  0  0  0
  -28.6504  -12.1215   21.4343 H   0  0  0  0  0  0
  -25.2747   -9.5689   22.4772 H   0  0  0  0  0  0
  -24.0002   -7.4631   22.7454 H   0  0  0  0  0  0
  -21.0862   -8.8768   19.8935 H   0  0  0  0  0  0
  -22.3696  -10.9675   19.6171 H   0  0  0  0  0  0
  -21.1975   -7.6145   23.9749 H   0  0  0  0  0  0
  -21.1514   -6.0517   25.9112 H   0  0  0  0  0  0
  -22.0570   -2.7602   23.2851 H   0  0  0  0  0  0
  -22.4005  -11.9879   22.4872 H   0  0  0  0  0  0
  -21.1058  -13.1256   22.2618 H   0  0  0  0  0  0
  -24.6689  -15.8486   20.5300 H   0  0  0  0  0  0
  -26.3002  -15.6266   20.1463 H   0  0  0  0  0  0
  -26.7094  -32.5577   23.1174 H   0  0  0  0  0  0
  -25.0041  -33.9812   25.0490 H   0  0  0  0  0  0
  -22.6831  -31.3068   21.4096 H   0  0  0  0  0  0
  -23.3735  -35.9686   23.3314 H   0  0  0  0  0  0
  -24.3577  -36.8931   22.2044 H   0  0  0  0  0  0
  -23.7253  -37.6557   23.6640 H   0  0  0  0  0  0
  -26.0165  -31.6052   20.5801 H   0  0  0  0  0  0
  -26.8105  -30.9127   21.9677 H   0  0  0  0  0  0
  -28.1022  -29.1510   21.1519 H   0  0  0  0  0  0
  -26.1095  -25.9911   19.0025 H   0  0  0  0  0  0
  -23.9899  -27.2730   19.0522 H   0  0  0  0  0  0
  -23.7127  -30.5851   19.4040 H   0  0  0  0  0  0
  -22.7318  -29.2291   19.8780 H   0  0  0  0  0  0
  -25.1283  -36.1991   25.0827 H   0  0  0  0  0  0
  -20.9910  -28.3217   24.1447 H   0  0  0  0  0  0
  -20.5702  -26.2294   23.3609 H   0  0  0  0  0  0
  -21.6643  -26.7400   22.1212 H   0  0  0  0  0  0
  -19.6871  -25.6263   21.1242 H   0  0  0  0  0  0
  -19.6688  -27.3185   20.6777 H   0  0  0  0  0  0
  -17.4201  -26.6654   21.3984 H   0  0  0  0  0  0
  -18.0273  -26.0021   22.8985 H   0  0  0  0  0  0
  -19.7969  -30.7152   24.2278 H   0  0  0  0  0  0
  -17.5042  -31.6222   24.5107 H   0  0  0  0  0  0
  -15.5372  -30.2965   23.7541 H   0  0  0  0  0  0
  -15.8635  -28.0766   22.7114 H   0  0  0  0  0  0
  -24.5868  -30.7067   25.7805 H   0  0  0  0  0  0
  -24.8918  -32.2880   26.4922 H   0  0  0  0  0  0
  -25.8065  -30.8872   27.0221 H   0  0  0  0  0  0
  -26.2808  -29.6853   24.1075 H   0  0  0  0  0  0
  -27.4047  -29.7265   25.4464 H   0  0  0  0  0  0
  -27.8628  -30.4419   23.9176 H   0  0  0  0  0  0
  -27.2610  -33.3599   26.2105 H   0  0  0  0  0  0
  -28.3792  -32.6938   25.0301 H   0  0  0  0  0  0
  -28.0708  -31.8433   26.5357 H   0  0  0  0  0  0
  -28.2607  -38.0112   24.7497 H   0  0  0  0  0  0
  -28.1061  -36.2645   24.6307 H   0  0  0  0  0  0
  -27.2302  -37.1506   25.8863 H   0  0  0  0  0  0
  -20.9185  -29.8965   21.7205 H   0  0  0  0  0  0
  -26.0187  -38.2883   24.1403 H   0  0  0  0  0  0
  -25.6440  -21.9096   20.6072 H   0  0  0  0  0  0
  -25.0949  -20.1886   18.9309 H   0  0  0  0  0  0
  -29.5181  -20.0950   21.2112 H   0  0  0  0  0  0
  -27.2705  -18.2565   17.1714 H   0  0  0  0  0  0
  -25.5984  -18.2276   17.7177 H   0  0  0  0  0  0
  -26.7717  -17.1156   18.4234 H   0  0  0  0  0  0
  -29.0894  -22.2306   22.1667 H   0  0  0  0  0  0
  -27.6307  -21.8279   23.0206 H   0  0  0  0  0  0
  -30.2875  -18.5031   19.5314 H   0  0  0  0  0  0
  -29.2049  -17.8135   18.3789 H   0  0  0  0  0  0
  -26.4021  -23.6249   21.6295 H   0  0  0  0  0  0
  -27.5811  -24.1612   22.7798 H   0  0  0  0  0  0
  -29.5982  -25.9190   21.4965 H   0  0  0  0  0  0
  -27.9484  -26.2085   22.0073 H   0  0  0  0  0  0
  -30.7965  -16.1124   18.9750 H   0  0  0  0  0  0
  -29.3491  -15.2589   18.7400 H   0  0  0  0  0  0
  -28.2173  -16.4543   20.4422 H   0  0  0  0  0  0
  -29.6800  -16.9421   21.2763 H   0  0  0  0  0  0
  1 25  1  0  0  0
  1 30  2  0  0  0
  1 83  1  0  0  0
  2  3  1  0  0  0
  2 25  1  0  0  0
  2 86  1  0  0  0
  2 87  1  0  0  0
  3  4  1  0  0  0
  3 88  1  0  0  0
  3 89  1  0  0  0
  4  5  1  0  0  0
  4 90  1  0  0  0
  4 91  1  0  0  0
  5  6  1  0  0  0
  5 26  1  0  0  0
  5 92  1  0  0  0
  6 25  1  0  0  0
  6 93  1  0  0  0
  6 94  1  0  0  0
  7  8  2  0  0  0
  7 26  1  0  0  0
  7 29  1  0  0  0
  8  9  1  0  0  0
  8 22  1  0  0  0
  9 10  1  0  0  0
  9 27  2  0  0  0
 10 11  2  0  0  0
 10 15  1  0  0  0
 11 12  1  0  0  0
 11 95  1  0  0  0
 12 13  2  0  0  0
 12 96  1  0  0  0
 13 14  1  0  0  0
 13 31  1  0  0  0
 14 15  2  0  0  0
 14 97  1  0  0  0
 15 98  1  0  0  0
 16 17  2  0  0  0
 16 21  1  0  0  0
 16 31  1  0  0  0
 17 18  1  0  0  0
 17 99  1  0  0  0
 18 19  2  0  0  0
 18100  1  0  0  0
 19 20  1  0  0  0
 19 24  1  0  0  0
 20 21  2  0  0  0
 20101  1  0  0  0
 21 23  1  0  0  0
 22 28  1  0  0  0
 22 32  2  0  0  0
 26 27  1  0  0  0
 28102  1  0  0  0
 28103  1  0  0  0
 29104  1  0  0  0
 29105  1  0  0  0
 33 34  1  0  0  0
 33 66  1  0  0  0
 33 70  2  0  0  0
 34 36  1  0  0  0
 34 59  1  0  0  0
 34106  1  0  0  0
 35 44  2  0  0  0
 35 45  1  0  0  0
 35 68  1  0  0  0
 36 56  1  0  0  0
 36107  1  0  0  0
 37 39  1  0  0  0
 37 47  1  0  0  0
 37 66  1  0  0  0
 37108  1  0  0  0
 38 43  2  0  0  0
 38 46  1  0  0  0
 38 47  1  0  0  0
 39 64  1  0  0  0
 39 67  2  0  0  0
 40 52  1  0  0  0
 40 53  2  0  0  0
 40 58  1  0  0  0
 41109  1  0  0  0
 41110  1  0  0  0
 41111  1  0  0  0
 41 48  1  0  0  0
 42 43  1  0  0  0
 42 66  1  0  0  0
 42112  1  0  0  0
 42113  1  0  0  0
 43 44  1  0  0  0
 44114  1  0  0  0
 45 46  2  0  0  0
 45115  1  0  0  0
 46116  1  0  0  0
 47117  1  0  0  0
 47118  1  0  0  0
 48 56  1  0  0  0
 48 65  1  0  0  0
 48119  1  0  0  0
 49 50  1  0  0  0
 49 53  1  0  0  0
 49 64  1  0  0  0
 49120  1  0  0  0
 50 51  1  0  0  0
 50121  1  0  0  0
 50122  1  0  0  0
 51 52  1  0  0  0
 51123  1  0  0  0
 51124  1  0  0  0
 52125  1  0  0  0
 52126  1  0  0  0
 53 54  1  0  0  0
 54 55  2  0  0  0
 54127  1  0  0  0
 55 57  1  0  0  0
 55128  1  0  0  0
 56 69  2  0  0  0
 57 58  2  0  0  0
 57129  1  0  0  0
 58130  1  0  0  0
 59 60  1  0  0  0
 59 61  1  0  0  0
 59 62  1  0  0  0
 60131  1  0  0  0
 60132  1  0  0  0
 60133  1  0  0  0
 61134  1  0  0  0
 61135  1  0  0  0
 61136  1  0  0  0
 62137  1  0  0  0
 62138  1  0  0  0
 62139  1  0  0  0
 63 65  1  0  0  0
 63140  1  0  0  0
 63141  1  0  0  0
 63142  1  0  0  0
 64143  1  0  0  0
 65144  1  0  0  0
 68 82  1  0  0  0
 71 72  2  0  0  0
 71 74  1  0  0  0
 71145  1  0  0  0
 72 75  1  0  0  0
 72146  1  0  0  0
 73 74  2  0  0  0
 73 76  1  0  0  0
 73147  1  0  0  0
 74 79  1  0  0  0
 75 76  2  0  0  0
 75 78  1  0  0  0
 76 80  1  0  0  0
 77 81  1  0  0  0
 77 82  1  0  0  0
 77 85  2  0  0  0
 78148  1  0  0  0
 78149  1  0  0  0
 78150  1  0  0  0
 79 81  1  0  0  0
 79151  1  0  0  0
 79152  1  0  0  0
 80 84  1  0  0  0
 80153  1  0  0  0
 80154  1  0  0  0
 81155  1  0  0  0
 81156  1  0  0  0
 82157  1  0  0  0
 82158  1  0  0  0
 83 84  1  0  0  0
 83159  1  0  0  0
 83160  1  0  0  0
 84161  1  0  0  0
 84162  1  0  0  0
M  ISO  4   1 100  68 101  82 101  83 100
M  END
> <chiral flag>
0

> <version>
0

> <s_m_source_file>
/data/baiqing/PycharmProjects/Reinvent-master-3.2/result/LINK_invent/BTK/process_docking_weight1_custom_product_contain_oxygen_bond_distance_aromatic_linkinvent_7_9_3/rearranged_h_0133.sdf

> <i_m_source_file_index>
23

> <r_mmod_Potential_Energy-OPLS-2005>
49.7728271484375

> <r_mmod_Stretch_Energy-OPLS-2005>
31.8029842376709

> <r_mmod_Bend_Energy-OPLS-2005>
100.573089599609

> <r_mmod_Torsional_Energy-OPLS-2005>
257.710693359375

> <r_mmod_Improper_Torsional_Energy-OPLS-2005>
21.1585330963135

> <r_mmod_Van_der_Waal_Energy-OPLS-2005>
140.042526245117

> <r_mmod_Electrostatic_Energy-OPLS-2005>
-325.276977539062

> <r_mmod_Solvation_Energy-OPLS-2005>
-214.031188964844

> <b_mmod_Minimization_Converged-OPLS-2005>
0

> <r_mmod_RMS_Derivative-OPLS-2005>
4.21820020675659

$$$$
23
                    3D
 Structure written by MMmdl.
164172  0  0  1  0            999 V2000
  -30.7327  -14.4546   20.4980 C   0  0  0  0  0  0
  -30.4111  -12.2731   19.4410 C   0  0  0  0  0  0
  -29.4975  -12.4700   18.2124 C   0  0  0  0  0  0
  -28.0162  -12.3327   18.6151 C   0  0  0  0  0  0
  -27.6507  -13.1946   19.8516 C   0  0  2  0  0  0
  -28.6951  -13.0440   20.9834 C   0  0  0  0  0  0
  -25.2608  -13.8125   20.5683 C   0  0  0  0  0  0
  -24.1861  -13.0428   20.9212 C   0  0  0  0  0  0
  -24.6367  -11.6889   20.8731 C   0  0  0  0  0  0
  -23.9021  -10.4294   21.0401 C   0  0  0  0  0  0
  -24.3599   -9.4219   21.9167 C   0  0  0  0  0  0
  -23.6301   -8.2240   22.0726 C   0  0  0  0  0  0
  -22.4272   -8.0272   21.3531 C   0  0  0  0  0  0
  -21.9907   -9.0240   20.4629 C   0  0  0  0  0  0
  -22.7208  -10.2134   20.3042 C   0  0  0  0  0  0
  -21.6861   -6.0756   22.5294 C   0  0  0  0  0  0
  -21.4011   -6.5651   23.8228 C   0  0  0  0  0  0
  -21.3653   -5.6794   24.9178 C   0  0  0  0  0  0
  -21.6031   -4.3054   24.7219 C   0  0  0  0  0  0
  -21.8826   -3.8160   23.4333 C   0  0  0  0  0  0
  -21.9196   -4.6986   22.3400 C   0  0  0  0  0  0
  -22.7901  -13.5250   21.1875 C   0  0  0  0  0  0
  -22.1673   -4.2169   21.0983 F   0  0  0  0  0  0
  -21.5620   -3.4526   25.7728 F   0  0  0  0  0  0
  -30.0341  -13.2920   20.4301 N   0  0  0  0  0  0
  -26.2980  -12.9251   20.3266 N   0  0  0  0  0  0
  -25.9274  -11.6433   20.5727 N   0  0  0  0  0  0
  -22.0517  -12.8248   22.0418 N   0  0  0  0  0  0
  -25.4354  -15.1844   20.4128 N   0  0  0  0  0  0
  -31.9318  -14.5122   20.2143 O   0  0  0  0  0  0
  -21.6633   -6.8882   21.4247 O   0  0  0  0  0  0
  -22.3614  -14.5564   20.6713 O   0  0  0  0  0  0
  -24.6095  -31.8717   23.2129 C   0  0  0  0  0  0
  -25.9000  -32.4838   23.8425 C   0  0  1  0  0  0
  -27.2394  -27.4739   20.0954 C   0  0  0  0  0  0
  -25.5861  -33.8640   24.2351 N   0  0  0  0  0  0
  -23.3959  -30.4927   21.5544 C   0  0  2  0  0  0
  -24.8445  -28.9585   20.1256 C   0  0  0  0  0  0
  -22.7383  -29.4669   22.5036 C   0  0  0  0  0  0
  -18.0267  -28.1386   22.8507 C   0  0  0  0  0  0
  -24.1491  -36.7340   23.2634 C   0  0  0  0  0  0
  -25.9195  -30.8466   21.3613 C   0  0  0  0  0  0
  -25.9995  -29.4788   20.7226 C   0  0  0  0  0  0
  -27.2013  -28.7407   20.7159 C   0  0  0  0  0  0
  -26.0746  -26.9592   19.4958 C   0  0  0  0  0  0
  -24.8724  -27.6923   19.5159 C   0  0  0  0  0  0
  -23.6039  -29.8219   20.1705 C   0  0  0  0  0  0
  -25.4103  -36.3125   24.0345 C   0  0  1  0  0  0
  -20.5859  -28.3654   23.1355 C   0  0  2  0  0  0
  -20.6767  -26.9396   22.5439 C   0  0  0  0  0  0
  -19.5744  -26.6398   21.5232 C   0  0  0  0  0  0
  -18.1918  -26.7944   22.1630 C   0  0  0  0  0  0
  -19.1519  -28.8837   23.2930 C   0  0  0  0  0  0
  -18.9433  -30.1456   23.8919 C   0  0  0  0  0  0
  -17.6430  -30.6584   24.0577 C   0  0  0  0  0  0
  -25.9023  -34.9481   23.5150 C   0  0  0  0  0  0
  -16.5325  -29.9091   23.6325 C   0  0  0  0  0  0
  -16.7255  -28.6517   23.0326 C   0  0  0  0  0  0
  -26.4453  -31.6595   25.0734 C   0  0  0  0  0  0
  -25.3727  -31.3688   26.1478 C   0  0  0  0  0  0
  -27.0272  -30.3046   24.6073 C   0  0  0  0  0  0
  -27.6068  -32.4277   25.7480 C   0  0  0  0  0  0
  -27.5589  -37.1808   24.8450 C   0  0  0  0  0  0
  -21.4123  -29.3022   22.3761 N   0  0  0  0  0  0
  -26.4296  -37.3793   23.9406 N   0  0  0  0  0  0
  -24.6591  -31.0849   22.1017 N   0  0  0  0  0  0
  -23.4170  -28.8219   23.3062 O   0  0  0  0  0  0
  -28.4013  -26.7531   20.0059 O   0  0  0  0  0  0
  -26.5587  -34.8913   22.4718 O   0  0  0  0  0  0
  -23.5295  -32.1444   23.7542 O   0  0  0  0  0  0
  -29.1429  -18.2772   19.1334 C   0  0  0  0  0  0
  -28.7772  -19.5450   18.6484 C   0  0  0  0  0  0
  -30.2743  -19.3271   21.0153 C   0  0  0  0  0  0
  -29.9501  -18.1669   20.2835 C   0  0  0  0  0  0
  -29.1744  -20.7145   19.3280 C   0  0  0  0  0  0
  -29.8691  -20.5998   20.5608 C   0  0  0  0  0  0
  -30.5547  -16.8700   20.6051 C   0  0  0  0  0  0
  -29.9336  -15.6743   20.5395 C   0  0  0  0  0  0
  -29.5102  -23.8843   21.9761 C   0  0  0  0  0  0
  -27.2588  -23.7540   17.7608 C   0  0  0  0  0  0
  -28.9370  -22.0598   18.6532 C   0  0  0  0  0  0
  -28.4395  -24.8660   21.4956 C   0  0  0  0  0  0
  -29.1559  -22.3997   21.8947 C   0  0  0  0  0  0
  -27.4513  -22.4089   18.4680 C   0  0  0  0  0  0
  -28.9446  -26.2986   21.2397 C   0  0  0  0  0  0
  -30.6022  -24.2586   22.4150 O   0  0  0  0  0  0
  -30.2426  -21.6947   21.2967 O   0  0  0  0  0  0
  -31.4598  -12.3394   19.1470 H   0  0  0  0  0  0
  -30.2832  -11.2747   19.8634 H   0  0  0  0  0  0
  -29.7469  -11.7392   17.4421 H   0  0  0  0  0  0
  -29.6713  -13.4520   17.7700 H   0  0  0  0  0  0
  -27.8276  -11.2802   18.8235 H   0  0  0  0  0  0
  -27.3720  -12.5939   17.7753 H   0  0  0  0  0  0
  -27.6596  -14.2194   19.4930 H   0  0  0  0  0  0
  -28.6591  -12.0398   21.4087 H   0  0  0  0  0  0
  -28.4750  -13.7205   21.8096 H   0  0  0  0  0  0
  -25.2735   -9.5715   22.4750 H   0  0  0  0  0  0
  -24.0025   -7.4628   22.7432 H   0  0  0  0  0  0
  -21.0849   -8.8745   19.8934 H   0  0  0  0  0  0
  -22.3647  -10.9677   19.6165 H   0  0  0  0  0  0
  -21.2003   -7.6154   23.9744 H   0  0  0  0  0  0
  -21.1470   -6.0506   25.9086 H   0  0  0  0  0  0
  -22.0609   -2.7621   23.2814 H   0  0  0  0  0  0
  -22.4116  -11.9898   22.4808 H   0  0  0  0  0  0
  -21.1119  -13.1269   22.2568 H   0  0  0  0  0  0
  -24.6687  -15.8366   20.5340 H   0  0  0  0  0  0
  -26.2880  -15.6298   20.0989 H   0  0  0  0  0  0
  -26.7093  -32.5573   23.1212 H   0  0  0  0  0  0
  -24.9996  -33.9837   25.0482 H   0  0  0  0  0  0
  -22.6813  -31.3065   21.4153 H   0  0  0  0  0  0
  -23.3742  -35.9687   23.3298 H   0  0  0  0  0  0
  -24.3593  -36.8953   22.2051 H   0  0  0  0  0  0
  -23.7266  -37.6559   23.6637 H   0  0  0  0  0  0
  -26.0178  -31.6043   20.5825 H   0  0  0  0  0  0
  -26.8130  -30.9156   21.9689 H   0  0  0  0  0  0
  -28.0947  -29.1497   21.1651 H   0  0  0  0  0  0
  -26.0963  -25.9945   19.0121 H   0  0  0  0  0  0
  -23.9849  -27.2843   19.0526 H   0  0  0  0  0  0
  -23.7046  -30.5925   19.4052 H   0  0  0  0  0  0
  -22.7302  -29.2360   19.8805 H   0  0  0  0  0  0
  -25.1286  -36.1995   25.0841 H   0  0  0  0  0  0
  -20.9951  -28.3194   24.1476 H   0  0  0  0  0  0
  -20.5691  -26.2243   23.3618 H   0  0  0  0  0  0
  -21.6631  -26.7459   22.1204 H   0  0  0  0  0  0
  -19.6893  -25.6320   21.1237 H   0  0  0  0  0  0
  -19.6689  -27.3238   20.6791 H   0  0  0  0  0  0
  -17.4206  -26.6711   21.4018 H   0  0  0  0  0  0
  -18.0272  -26.0099   22.9025 H   0  0  0  0  0  0
  -19.7902  -30.7277   24.2282 H   0  0  0  0  0  0
  -17.4977  -31.6258   24.5196 H   0  0  0  0  0  0
  -15.5325  -30.2980   23.7660 H   0  0  0  0  0  0
  -15.8661  -28.0853   22.6995 H   0  0  0  0  0  0
  -24.5912  -30.7031   25.7793 H   0  0  0  0  0  0
  -24.8899  -32.2841   26.4908 H   0  0  0  0  0  0
  -25.8071  -30.8853   27.0241 H   0  0  0  0  0  0
  -26.2813  -29.6827   24.1112 H   0  0  0  0  0  0
  -27.4058  -29.7244   25.4503 H   0  0  0  0  0  0
  -27.8633  -30.4402   23.9212 H   0  0  0  0  0  0
  -27.2745  -33.3569   26.2114 H   0  0  0  0  0  0
  -28.3832  -32.6842   25.0262 H   0  0  0  0  0  0
  -28.0783  -31.8357   26.5329 H   0  0  0  0  0  0
  -28.2586  -38.0114   24.7488 H   0  0  0  0  0  0
  -28.1097  -36.2650   24.6269 H   0  0  0  0  0  0
  -27.2309  -37.1452   25.8847 H   0  0  0  0  0  0
  -20.9261  -29.8741   21.7003 H   0  0  0  0  0  0
  -26.0194  -38.2881   24.1378 H   0  0  0  0  0  0
  -28.8906  -17.3990   18.5527 H   0  0  0  0  0  0
  -28.2465  -19.6136   17.7101 H   0  0  0  0  0  0
  -30.8766  -19.2484   21.9096 H   0  0  0  0  0  0
  -31.6212  -16.9087   20.7899 H   0  0  0  0  0  0
  -28.8650  -15.6539   20.4248 H   0  0  0  0  0  0
  -26.2022  -24.0092   17.6888 H   0  0  0  0  0  0
  -27.6584  -23.7258   16.7459 H   0  0  0  0  0  0
  -27.7641  -24.5586   18.2934 H   0  0  0  0  0  0
  -29.4202  -22.0225   17.6764 H   0  0  0  0  0  0
  -29.4479  -22.8545   19.1927 H   0  0  0  0  0  0
  -27.6085  -24.8758   22.1995 H   0  0  0  0  0  0
  -28.0440  -24.4611   20.5659 H   0  0  0  0  0  0
  -28.2239  -22.2703   21.3434 H   0  0  0  0  0  0
  -28.9847  -22.0237   22.9030 H   0  0  0  0  0  0
  -26.9558  -21.6343   17.8805 H   0  0  0  0  0  0
  -26.9476  -22.4281   19.4342 H   0  0  0  0  0  0
  -30.0278  -26.3434   21.1386 H   0  0  0  0  0  0
  -28.6881  -26.9399   22.0837 H   0  0  0  0  0  0
  1 25  1  0  0  0
  1 30  2  0  0  0
  1 78  1  0  0  0
  2  3  1  0  0  0
  2 25  1  0  0  0
  2 88  1  0  0  0
  2 89  1  0  0  0
  3  4  1  0  0  0
  3 90  1  0  0  0
  3 91  1  0  0  0
  4  5  1  0  0  0
  4 92  1  0  0  0
  4 93  1  0  0  0
  5  6  1  0  0  0
  5 26  1  0  0  0
  5 94  1  0  0  0
  6 25  1  0  0  0
  6 95  1  0  0  0
  6 96  1  0  0  0
  7  8  2  0  0  0
  7 26  1  0  0  0
  7 29  1  0  0  0
  8  9  1  0  0  0
  8 22  1  0  0  0
  9 10  1  0  0  0
  9 27  2  0  0  0
 10 11  2  0  0  0
 10 15  1  0  0  0
 11 12  1  0  0  0
 11 97  1  0  0  0
 12 13  2  0  0  0
 12 98  1  0  0  0
 13 14  1  0  0  0
 13 31  1  0  0  0
 14 15  2  0  0  0
 14 99  1  0  0  0
 15100  1  0  0  0
 16 17  2  0  0  0
 16 21  1  0  0  0
 16 31  1  0  0  0
 17 18  1  0  0  0
 17101  1  0  0  0
 18 19  2  0  0  0
 18102  1  0  0  0
 19 20  1  0  0  0
 19 24  1  0  0  0
 20 21  2  0  0  0
 20103  1  0  0  0
 21 23  1  0  0  0
 22 28  1  0  0  0
 22 32  2  0  0  0
 26 27  1  0  0  0
 28104  1  0  0  0
 28105  1  0  0  0
 29106  1  0  0  0
 29107  1  0  0  0
 33 34  1  0  0  0
 33 66  1  0  0  0
 33 70  2  0  0  0
 34 36  1  0  0  0
 34 59  1  0  0  0
 34108  1  0  0  0
 35 44  2  0  0  0
 35 45  1  0  0  0
 35 68  1  0  0  0
 36 56  1  0  0  0
 36109  1  0  0  0
 37 39  1  0  0  0
 37 47  1  0  0  0
 37 66  1  0  0  0
 37110  1  0  0  0
 38 43  2  0  0  0
 38 46  1  0  0  0
 38 47  1  0  0  0
 39 64  1  0  0  0
 39 67  2  0  0  0
 40 52  1  0  0  0
 40 53  2  0  0  0
 40 58  1  0  0  0
 41111  1  0  0  0
 41112  1  0  0  0
 41113  1  0  0  0
 41 48  1  0  0  0
 42 43  1  0  0  0
 42 66  1  0  0  0
 42114  1  0  0  0
 42115  1  0  0  0
 43 44  1  0  0  0
 44116  1  0  0  0
 45 46  2  0  0  0
 45117  1  0  0  0
 46118  1  0  0  0
 47119  1  0  0  0
 47120  1  0  0  0
 48 56  1  0  0  0
 48 65  1  0  0  0
 48121  1  0  0  0
 49 50  1  0  0  0
 49 53  1  0  0  0
 49 64  1  0  0  0
 49122  1  0  0  0
 50 51  1  0  0  0
 50123  1  0  0  0
 50124  1  0  0  0
 51 52  1  0  0  0
 51125  1  0  0  0
 51126  1  0  0  0
 52127  1  0  0  0
 52128  1  0  0  0
 53 54  1  0  0  0
 54 55  2  0  0  0
 54129  1  0  0  0
 55 57  1  0  0  0
 55130  1  0  0  0
 56 69  2  0  0  0
 57 58  2  0  0  0
 57131  1  0  0  0
 58132  1  0  0  0
 59 60  1  0  0  0
 59 61  1  0  0  0
 59 62  1  0  0  0
 60133  1  0  0  0
 60134  1  0  0  0
 60135  1  0  0  0
 61136  1  0  0  0
 61137  1  0  0  0
 61138  1  0  0  0
 62139  1  0  0  0
 62140  1  0  0  0
 62141  1  0  0  0
 63 65  1  0  0  0
 63142  1  0  0  0
 63143  1  0  0  0
 63144  1  0  0  0
 64145  1  0  0  0
 65146  1  0  0  0
 68 85  1  0  0  0
 71 72  2  0  0  0
 71 74  1  0  0  0
 71147  1  0  0  0
 72 75  1  0  0  0
 72148  1  0  0  0
 73 74  2  0  0  0
 73 76  1  0  0  0
 73149  1  0  0  0
 74 77  1  0  0  0
 75 76  2  0  0  0
 75 81  1  0  0  0
 76 87  1  0  0  0
 77 78  2  0  0  0
 77150  1  0  0  0
 78151  1  0  0  0
 79 82  1  0  0  0
 79 83  1  0  0  0
 79 86  2  0  0  0
 80 84  1  0  0  0
 80152  1  0  0  0
 80153  1  0  0  0
 80154  1  0  0  0
 81 84  1  0  0  0
 81155  1  0  0  0
 81156  1  0  0  0
 82 85  1  0  0  0
 82157  1  0  0  0
 82158  1  0  0  0
 83 87  1  0  0  0
 83159  1  0  0  0
 83160  1  0  0  0
 84161  1  0  0  0
 84162  1  0  0  0
 85163  1  0  0  0
 85164  1  0  0  0
M  ISO  4   1 100  68 101  78 100  85 101
M  END
> <chiral flag>
0

> <version>
0

> <s_m_source_file>
/data/baiqing/PycharmProjects/Reinvent-master-3.2/result/LINK_invent/BTK/process_docking_weight1_custom_product_contain_oxygen_bond_distance_aromatic_linkinvent_7_9_3/rearranged_h_0133.sdf

> <i_m_source_file_index>
24

> <r_mmod_Potential_Energy-OPLS-2005>
31.6184120178223

> <r_mmod_Stretch_Energy-OPLS-2005>
30.9805145263672

> <r_mmod_Bend_Energy-OPLS-2005>
91.7204666137695

> <r_mmod_Torsional_Energy-OPLS-2005>
275.984741210938

> <r_mmod_Improper_Torsional_Energy-OPLS-2005>
13.8575563430786

> <r_mmod_Van_der_Waal_Energy-OPLS-2005>
149.139770507812

> <r_mmod_Electrostatic_Energy-OPLS-2005>
-338.361267089844

> <r_mmod_Solvation_Energy-OPLS-2005>
-211.385681152344

> <b_mmod_Minimization_Converged-OPLS-2005>
0

> <r_mmod_RMS_Derivative-OPLS-2005>
2.88497066497803

$$$$
24
                    3D
 Structure written by MMmdl.
160168  0  0  1  0            999 V2000
  -30.6177  -14.5929   20.5485 C   0  0  0  0  0  0
  -30.4423  -12.3834   19.4206 C   0  0  0  0  0  0
  -29.4919  -12.4918   18.2054 C   0  0  0  0  0  0
  -28.0174  -12.3386   18.6258 C   0  0  0  0  0  0
  -27.6458  -13.2093   19.8583 C   0  0  2  0  0  0
  -28.6961  -13.0251   20.9773 C   0  0  0  0  0  0
  -25.2500  -13.8100   20.5691 C   0  0  0  0  0  0
  -24.1780  -13.0347   20.9198 C   0  0  0  0  0  0
  -24.6337  -11.6847   20.8738 C   0  0  0  0  0  0
  -23.8990  -10.4215   21.0419 C   0  0  0  0  0  0
  -24.3552   -9.4131   21.9211 C   0  0  0  0  0  0
  -23.6240   -8.2144   22.0758 C   0  0  0  0  0  0
  -22.4242   -8.0168   21.3510 C   0  0  0  0  0  0
  -21.9832   -9.0142   20.4641 C   0  0  0  0  0  0
  -22.7149  -10.2042   20.3070 C   0  0  0  0  0  0
  -21.6812   -6.0688   22.5296 C   0  0  0  0  0  0
  -21.4005   -6.5606   23.8230 C   0  0  0  0  0  0
  -21.3702   -5.6765   24.9195 C   0  0  0  0  0  0
  -21.6056   -4.3020   24.7242 C   0  0  0  0  0  0
  -21.8828   -3.8101   23.4377 C   0  0  0  0  0  0
  -21.9178   -4.6923   22.3416 C   0  0  0  0  0  0
  -22.7802  -13.5170   21.1907 C   0  0  0  0  0  0
  -22.1628   -4.2095   21.1002 F   0  0  0  0  0  0
  -21.5642   -3.4511   25.7780 F   0  0  0  0  0  0
  -30.0108  -13.3766   20.4225 N   0  0  0  0  0  0
  -26.2943  -12.9280   20.3322 N   0  0  0  0  0  0
  -25.9267  -11.6440   20.5766 N   0  0  0  0  0  0
  -22.0403  -12.8163   22.0451 N   0  0  0  0  0  0
  -25.4020  -15.1821   20.4147 N   0  0  0  0  0  0
  -31.7710  -14.7923   20.1608 O   0  0  0  0  0  0
  -21.6594   -6.8791   21.4227 O   0  0  0  0  0  0
  -22.3470  -14.5460   20.6759 O   0  0  0  0  0  0
  -24.6204  -31.8634   23.1954 C   0  0  0  0  0  0
  -25.9073  -32.4789   23.8277 C   0  0  1  0  0  0
  -27.2556  -27.3464   20.1058 C   0  0  0  0  0  0
  -25.5916  -33.8582   24.2250 N   0  0  0  0  0  0
  -23.4156  -30.4822   21.5338 C   0  0  2  0  0  0
  -24.8708  -28.9328   20.1121 C   0  0  0  0  0  0
  -22.7423  -29.4686   22.4876 C   0  0  0  0  0  0
  -18.0291  -28.1402   22.8468 C   0  0  0  0  0  0
  -24.1521  -36.7270   23.2638 C   0  0  0  0  0  0
  -25.9534  -30.7922   21.3753 C   0  0  0  0  0  0
  -26.0299  -29.4187   20.7246 C   0  0  0  0  0  0
  -27.2164  -28.6299   20.7254 C   0  0  0  0  0  0
  -26.0693  -26.9067   19.4703 C   0  0  0  0  0  0
  -24.8915  -27.6794   19.4796 C   0  0  0  0  0  0
  -23.6338  -29.8017   20.1551 C   0  0  0  0  0  0
  -25.4143  -36.3077   24.0322 C   0  0  1  0  0  0
  -20.5887  -28.3732   23.1253 C   0  0  2  0  0  0
  -20.6799  -26.9457   22.5399 C   0  0  0  0  0  0
  -19.5772  -26.6412   21.5193 C   0  0  0  0  0  0
  -18.1949  -26.7953   22.1605 C   0  0  0  0  0  0
  -19.1534  -28.8861   23.2881 C   0  0  0  0  0  0
  -18.9477  -30.1457   23.8897 C   0  0  0  0  0  0
  -17.6478  -30.6612   24.0560 C   0  0  0  0  0  0
  -25.9048  -34.9465   23.5100 C   0  0  0  0  0  0
  -16.5369  -29.9113   23.6336 C   0  0  0  0  0  0
  -16.7273  -28.6532   23.0353 C   0  0  0  0  0  0
  -26.4475  -31.6565   25.0626 C   0  0  0  0  0  0
  -25.3679  -31.3709   26.1306 C   0  0  0  0  0  0
  -27.0345  -30.3006   24.6099 C   0  0  0  0  0  0
  -27.6068  -32.4270   25.7359 C   0  0  0  0  0  0
  -27.5608  -37.1785   24.8471 C   0  0  0  0  0  0
  -21.4143  -29.3091   22.3621 N   0  0  0  0  0  0
  -26.4330  -37.3776   23.9391 N   0  0  0  0  0  0
  -24.6809  -31.0643   22.0919 N   0  0  0  0  0  0
  -23.4160  -28.8258   23.2975 O   0  0  0  0  0  0
  -28.4265  -26.5727   20.1658 O   0  0  0  0  0  0
  -26.5644  -34.8937   22.4680 O   0  0  0  0  0  0
  -23.5382  -32.1431   23.7269 O   0  0  0  0  0  0
  -26.3046  -19.3733   21.5483 C   0  0  0  0  0  0
  -26.4421  -18.1178   22.1410 C   0  0  0  0  0  0
  -27.4360  -20.0001   21.0169 C   0  0  0  0  0  0
  -27.6764  -17.4397   22.1154 C   0  0  0  0  0  0
  -28.7995  -17.9759   21.4000 C   0  0  0  0  0  0
  -28.7037  -19.3649   20.9804 C   0  0  0  0  0  0
  -27.7046  -16.1765   22.9697 C   0  0  0  0  0  0
  -30.0526  -17.0813   21.1036 C   0  0  0  0  0  0
  -29.2873  -24.1519   20.5188 C   0  0  0  0  0  0
  -29.4162  -22.6739   19.9546 C   0  0  0  0  0  0
  -28.5329  -25.2122   19.6158 C   0  0  0  0  0  0
  -29.8457  -21.5379   20.9716 C   0  0  0  0  0  0
  -29.8061  -15.6085   20.9641 N   0  0  0  0  0  0
  -29.7820  -20.1336   20.5410 O   0  0  0  0  0  0
  -31.4780  -12.5322   19.1075 H   0  0  0  0  0  0
  -30.3997  -11.3775   19.8386 H   0  0  0  0  0  0
  -29.7434  -11.7329   17.4643 H   0  0  0  0  0  0
  -29.6279  -13.4579   17.7159 H   0  0  0  0  0  0
  -27.8454  -11.2833   18.8466 H   0  0  0  0  0  0
  -27.3648  -12.5777   17.7872 H   0  0  0  0  0  0
  -27.6616  -14.2471   19.5202 H   0  0  0  0  0  0
  -28.7045  -11.9908   21.3279 H   0  0  0  0  0  0
  -28.4603  -13.6139   21.8586 H   0  0  0  0  0  0
  -25.2676   -9.5617   22.4849 H   0  0  0  0  0  0
  -23.9915   -7.4550   22.7527 H   0  0  0  0  0  0
  -21.0737   -8.8654   19.9004 H   0  0  0  0  0  0
  -22.3566  -10.9559   19.6196 H   0  0  0  0  0  0
  -21.1970   -7.6105   23.9702 H   0  0  0  0  0  0
  -21.1548   -6.0507   25.9115 H   0  0  0  0  0  0
  -22.0579   -2.7537   23.2893 H   0  0  0  0  0  0
  -22.3868  -11.9776   22.4912 H   0  0  0  0  0  0
  -21.1072  -13.1350   22.2664 H   0  0  0  0  0  0
  -24.6211  -15.8088   20.5820 H   0  0  0  0  0  0
  -26.2480  -15.6680   20.1455 H   0  0  0  0  0  0
  -26.7149  -32.5500   23.1018 H   0  0  0  0  0  0
  -25.0032  -33.9727   25.0373 H   0  0  0  0  0  0
  -22.7112  -31.3026   21.3744 H   0  0  0  0  0  0
  -23.3799  -35.9596   23.3304 H   0  0  0  0  0  0
  -24.3590  -36.8870   22.2054 H   0  0  0  0  0  0
  -23.7259  -37.6469   23.6637 H   0  0  0  0  0  0
  -26.0903  -31.5517   20.6042 H   0  0  0  0  0  0
  -26.8341  -30.8475   22.0012 H   0  0  0  0  0  0
  -28.0977  -28.9862   21.2387 H   0  0  0  0  0  0
  -26.0066  -25.9626   18.9537 H   0  0  0  0  0  0
  -24.0048  -27.2972   18.9951 H   0  0  0  0  0  0
  -23.7417  -30.5613   19.3814 H   0  0  0  0  0  0
  -22.7653  -29.2129   19.8636 H   0  0  0  0  0  0
  -25.1336  -36.1929   25.0821 H   0  0  0  0  0  0
  -20.9996  -28.3361   24.1359 H   0  0  0  0  0  0
  -20.5687  -26.2363   23.3620 H   0  0  0  0  0  0
  -21.6682  -26.7506   22.1192 H   0  0  0  0  0  0
  -19.6962  -25.6318   21.1236 H   0  0  0  0  0  0
  -19.6712  -27.3209   20.6715 H   0  0  0  0  0  0
  -17.4222  -26.6670   21.4020 H   0  0  0  0  0  0
  -18.0371  -26.0088   22.9001 H   0  0  0  0  0  0
  -19.7952  -30.7273   24.2265 H   0  0  0  0  0  0
  -17.5045  -31.6271   24.5199 H   0  0  0  0  0  0
  -15.5374  -30.3038   23.7637 H   0  0  0  0  0  0
  -15.8672  -28.0852   22.7082 H   0  0  0  0  0  0
  -24.5850  -30.7104   25.7546 H   0  0  0  0  0  0
  -24.8849  -32.2890   26.4679 H   0  0  0  0  0  0
  -25.7909  -30.8843   27.0098 H   0  0  0  0  0  0
  -26.2945  -29.6673   24.1193 H   0  0  0  0  0  0
  -27.4154  -29.7322   25.4583 H   0  0  0  0  0  0
  -27.8746  -30.4282   23.9265 H   0  0  0  0  0  0
  -27.2743  -33.3576   26.1957 H   0  0  0  0  0  0
  -28.3833  -32.6811   25.0126 H   0  0  0  0  0  0
  -28.0795  -31.8359   26.5207 H   0  0  0  0  0  0
  -28.2642  -38.0087   24.7537 H   0  0  0  0  0  0
  -28.1108  -36.2602   24.6291 H   0  0  0  0  0  0
  -27.2301  -37.1420   25.8880 H   0  0  0  0  0  0
  -20.9316  -29.8772   21.6797 H   0  0  0  0  0  0
  -26.0215  -38.2870   24.1354 H   0  0  0  0  0  0
  -25.3499  -19.8830   21.5566 H   0  0  0  0  0  0
  -25.5867  -17.6760   22.6307 H   0  0  0  0  0  0
  -27.3024  -20.9986   20.6437 H   0  0  0  0  0  0
  -27.1296  -16.3549   23.8790 H   0  0  0  0  0  0
  -28.7003  -15.8883   23.3063 H   0  0  0  0  0  0
  -27.2132  -15.3509   22.4590 H   0  0  0  0  0  0
  -30.5031  -17.4318   20.1711 H   0  0  0  0  0  0
  -30.7852  -17.2470   21.8947 H   0  0  0  0  0  0
  -30.2786  -24.5323   20.7622 H   0  0  0  0  0  0
  -28.7637  -24.0989   21.4777 H   0  0  0  0  0  0
  -30.1179  -22.6763   19.1213 H   0  0  0  0  0  0
  -28.4597  -22.3975   19.5134 H   0  0  0  0  0  0
  -27.5720  -24.7632   19.3724 H   0  0  0  0  0  0
  -29.0644  -25.2959   18.6660 H   0  0  0  0  0  0
  -29.2710  -21.6703   21.8901 H   0  0  0  0  0  0
  -30.8841  -21.7102   21.2729 H   0  0  0  0  0  0
  -28.8660  -15.3260   21.1740 H   0  0  0  0  0  0
  1 25  1  0  0  0
  1 30  2  0  0  0
  1 83  1  0  0  0
  2  3  1  0  0  0
  2 25  1  0  0  0
  2 85  1  0  0  0
  2 86  1  0  0  0
  3  4  1  0  0  0
  3 87  1  0  0  0
  3 88  1  0  0  0
  4  5  1  0  0  0
  4 89  1  0  0  0
  4 90  1  0  0  0
  5  6  1  0  0  0
  5 26  1  0  0  0
  5 91  1  0  0  0
  6 25  1  0  0  0
  6 92  1  0  0  0
  6 93  1  0  0  0
  7  8  2  0  0  0
  7 26  1  0  0  0
  7 29  1  0  0  0
  8  9  1  0  0  0
  8 22  1  0  0  0
  9 10  1  0  0  0
  9 27  2  0  0  0
 10 11  2  0  0  0
 10 15  1  0  0  0
 11 12  1  0  0  0
 11 94  1  0  0  0
 12 13  2  0  0  0
 12 95  1  0  0  0
 13 14  1  0  0  0
 13 31  1  0  0  0
 14 15  2  0  0  0
 14 96  1  0  0  0
 15 97  1  0  0  0
 16 17  2  0  0  0
 16 21  1  0  0  0
 16 31  1  0  0  0
 17 18  1  0  0  0
 17 98  1  0  0  0
 18 19  2  0  0  0
 18 99  1  0  0  0
 19 20  1  0  0  0
 19 24  1  0  0  0
 20 21  2  0  0  0
 20100  1  0  0  0
 21 23  1  0  0  0
 22 28  1  0  0  0
 22 32  2  0  0  0
 26 27  1  0  0  0
 28101  1  0  0  0
 28102  1  0  0  0
 29103  1  0  0  0
 29104  1  0  0  0
 33 34  1  0  0  0
 33 66  1  0  0  0
 33 70  2  0  0  0
 34 36  1  0  0  0
 34 59  1  0  0  0
 34105  1  0  0  0
 35 44  2  0  0  0
 35 45  1  0  0  0
 35 68  1  0  0  0
 36 56  1  0  0  0
 36106  1  0  0  0
 37 39  1  0  0  0
 37 47  1  0  0  0
 37 66  1  0  0  0
 37107  1  0  0  0
 38 43  2  0  0  0
 38 46  1  0  0  0
 38 47  1  0  0  0
 39 64  1  0  0  0
 39 67  2  0  0  0
 40 52  1  0  0  0
 40 53  2  0  0  0
 40 58  1  0  0  0
 41108  1  0  0  0
 41109  1  0  0  0
 41110  1  0  0  0
 41 48  1  0  0  0
 42 43  1  0  0  0
 42 66  1  0  0  0
 42111  1  0  0  0
 42112  1  0  0  0
 43 44  1  0  0  0
 44113  1  0  0  0
 45 46  2  0  0  0
 45114  1  0  0  0
 46115  1  0  0  0
 47116  1  0  0  0
 47117  1  0  0  0
 48 56  1  0  0  0
 48 65  1  0  0  0
 48118  1  0  0  0
 49 50  1  0  0  0
 49 53  1  0  0  0
 49 64  1  0  0  0
 49119  1  0  0  0
 50 51  1  0  0  0
 50120  1  0  0  0
 50121  1  0  0  0
 51 52  1  0  0  0
 51122  1  0  0  0
 51123  1  0  0  0
 52124  1  0  0  0
 52125  1  0  0  0
 53 54  1  0  0  0
 54 55  2  0  0  0
 54126  1  0  0  0
 55 57  1  0  0  0
 55127  1  0  0  0
 56 69  2  0  0  0
 57 58  2  0  0  0
 57128  1  0  0  0
 58129  1  0  0  0
 59 60  1  0  0  0
 59 61  1  0  0  0
 59 62  1  0  0  0
 60130  1  0  0  0
 60131  1  0  0  0
 60132  1  0  0  0
 61133  1  0  0  0
 61134  1  0  0  0
 61135  1  0  0  0
 62136  1  0  0  0
 62137  1  0  0  0
 62138  1  0  0  0
 63 65  1  0  0  0
 63139  1  0  0  0
 63140  1  0  0  0
 63141  1  0  0  0
 64142  1  0  0  0
 65143  1  0  0  0
 68 81  1  0  0  0
 71 72  2  0  0  0
 71 73  1  0  0  0
 71144  1  0  0  0
 72 74  1  0  0  0
 72145  1  0  0  0
 73 76  2  0  0  0
 73146  1  0  0  0
 74 75  2  0  0  0
 74 77  1  0  0  0
 75 76  1  0  0  0
 75 78  1  0  0  0
 76 84  1  0  0  0
 77147  1  0  0  0
 77148  1  0  0  0
 77149  1  0  0  0
 78 83  1  0  0  0
 78150  1  0  0  0
 78151  1  0  0  0
 79 80  1  0  0  0
 79 81  1  0  0  0
 79152  1  0  0  0
 79153  1  0  0  0
 80 82  1  0  0  0
 80154  1  0  0  0
 80155  1  0  0  0
 81156  1  0  0  0
 81157  1  0  0  0
 82 84  1  0  0  0
 82158  1  0  0  0
 82159  1  0  0  0
 83160  1  0  0  0
M  ISO  4   1 100  68 101  81 101  83 100
M  END
> <chiral flag>
0

> <version>
0

> <s_m_source_file>
/data/baiqing/PycharmProjects/Reinvent-master-3.2/result/LINK_invent/BTK/process_docking_weight1_custom_product_contain_oxygen_bond_distance_aromatic_linkinvent_7_9_3/rearranged_h_0133.sdf

> <i_m_source_file_index>
25

> <r_mmod_Potential_Energy-OPLS-2005>
21.1125583648682

> <r_mmod_Stretch_Energy-OPLS-2005>
77.6818237304688

> <r_mmod_Bend_Energy-OPLS-2005>
141.358779907227

> <r_mmod_Torsional_Energy-OPLS-2005>
225.532104492188

> <r_mmod_Improper_Torsional_Energy-OPLS-2005>
3.76323127746582

> <r_mmod_Van_der_Waal_Energy-OPLS-2005>
149.362091064453

> <r_mmod_Electrostatic_Energy-OPLS-2005>
-408.621765136719

> <r_mmod_Solvation_Energy-OPLS-2005>
-204.558380126953

> <b_mmod_Minimization_Converged-OPLS-2005>
0

> <r_mmod_RMS_Derivative-OPLS-2005>
7.69217681884766

$$$$
25
                    3D
 Structure written by MMmdl.
170180  0  0  1  0            999 V2000
  -30.7740  -14.3213   20.6509 C   0  0  0  0  0  0
  -30.3938  -12.2460   19.3804 C   0  0  0  0  0  0
  -29.4682  -12.5001   18.1797 C   0  0  0  0  0  0
  -27.9930  -12.3800   18.6031 C   0  0  0  0  0  0
  -27.6642  -13.2008   19.8795 C   0  0  2  0  0  0
  -28.7058  -12.9381   20.9901 C   0  0  0  0  0  0
  -25.2608  -13.8157   20.5702 C   0  0  0  0  0  0
  -24.1855  -13.0443   20.9172 C   0  0  0  0  0  0
  -24.6387  -11.6901   20.8737 C   0  0  0  0  0  0
  -23.9054  -10.4295   21.0396 C   0  0  0  0  0  0
  -24.3605   -9.4210   21.9180 C   0  0  0  0  0  0
  -23.6287   -8.2239   22.0746 C   0  0  0  0  0  0
  -22.4267   -8.0271   21.3539 C   0  0  0  0  0  0
  -21.9904   -9.0245   20.4638 C   0  0  0  0  0  0
  -22.7222  -10.2129   20.3052 C   0  0  0  0  0  0
  -21.6852   -6.0730   22.5279 C   0  0  0  0  0  0
  -21.4007   -6.5636   23.8213 C   0  0  0  0  0  0
  -21.3659   -5.6791   24.9179 C   0  0  0  0  0  0
  -21.6050   -4.3053   24.7230 C   0  0  0  0  0  0
  -21.8821   -3.8138   23.4350 C   0  0  0  0  0  0
  -21.9192   -4.6955   22.3404 C   0  0  0  0  0  0
  -22.7873  -13.5230   21.1854 C   0  0  0  0  0  0
  -22.1662   -4.2139   21.0982 F   0  0  0  0  0  0
  -21.5636   -3.4537   25.7743 F   0  0  0  0  0  0
  -30.0418  -13.2029   20.4364 N   0  0  0  0  0  0
  -26.3046  -12.9321   20.3406 N   0  0  0  0  0  0
  -25.9316  -11.6481   20.5775 N   0  0  0  0  0  0
  -22.0526  -12.8221   22.0408 N   0  0  0  0  0  0
  -25.4372  -15.1879   20.4105 N   0  0  0  0  0  0
  -31.7989  -14.5644   20.0039 O   0  0  0  0  0  0
  -21.6635   -6.8868   21.4235 O   0  0  0  0  0  0
  -22.3557  -14.5540   20.6700 O   0  0  0  0  0  0
  -24.6065  -31.8738   23.2173 C   0  0  0  0  0  0
  -25.8991  -32.4855   23.8454 C   0  0  1  0  0  0
  -27.2556  -27.4959   20.0731 C   0  0  0  0  0  0
  -25.5887  -33.8661   24.2390 N   0  0  0  0  0  0
  -23.3940  -30.4946   21.5585 C   0  0  2  0  0  0
  -24.8417  -28.9690   20.1195 C   0  0  0  0  0  0
  -22.7400  -29.4621   22.5031 C   0  0  0  0  0  0
  -18.0249  -28.1338   22.8498 C   0  0  0  0  0  0
  -24.1488  -36.7295   23.2650 C   0  0  0  0  0  0
  -25.9150  -30.8473   21.3729 C   0  0  0  0  0  0
  -25.9941  -29.4871   20.7190 C   0  0  0  0  0  0
  -27.1966  -28.7558   20.7142 C   0  0  0  0  0  0
  -26.0790  -26.9686   19.5029 C   0  0  0  0  0  0
  -24.8713  -27.6960   19.5203 C   0  0  0  0  0  0
  -23.6065  -29.8398   20.1677 C   0  0  0  0  0  0
  -25.4107  -36.3149   24.0376 C   0  0  1  0  0  0
  -20.5834  -28.3612   23.1352 C   0  0  2  0  0  0
  -20.6721  -26.9370   22.5413 C   0  0  0  0  0  0
  -19.5712  -26.6367   21.5192 C   0  0  0  0  0  0
  -18.1898  -26.7889   22.1613 C   0  0  0  0  0  0
  -19.1498  -28.8799   23.2912 C   0  0  0  0  0  0
  -18.9438  -30.1409   23.8928 C   0  0  0  0  0  0
  -17.6449  -30.6579   24.0558 C   0  0  0  0  0  0
  -25.9029  -34.9512   23.5184 C   0  0  0  0  0  0
  -16.5337  -29.9075   23.6315 C   0  0  0  0  0  0
  -16.7243  -28.6474   23.0359 C   0  0  0  0  0  0
  -26.4454  -31.6586   25.0729 C   0  0  0  0  0  0
  -25.3749  -31.3568   26.1487 C   0  0  0  0  0  0
  -27.0277  -30.3064   24.5972 C   0  0  0  0  0  0
  -27.6077  -32.4269   25.7455 C   0  0  0  0  0  0
  -27.5592  -37.1813   24.8492 C   0  0  0  0  0  0
  -21.4135  -29.2989   22.3801 N   0  0  0  0  0  0
  -26.4318  -37.3822   23.9427 N   0  0  0  0  0  0
  -24.6560  -31.0847   22.1088 N   0  0  0  0  0  0
  -23.4206  -28.8157   23.3043 O   0  0  0  0  0  0
  -28.3921  -26.7286   19.9483 O   0  0  0  0  0  0
  -26.5615  -34.8963   22.4760 O   0  0  0  0  0  0
  -23.5276  -32.1523   23.7571 O   0  0  0  0  0  0
  -31.4644  -21.3743   25.3497 C   0  0  0  0  0  0
  -31.8581  -20.0554   25.0366 C   0  0  0  0  0  0
  -30.8231  -23.6280   24.5966 C   0  0  0  0  0  0
  -31.2296  -22.8312   21.9241 C   0  0  0  0  0  0
  -31.8359  -20.6117   22.6620 C   0  0  0  0  0  0
  -31.2426  -22.3107   24.3152 C   0  0  0  0  0  0
  -31.4382  -21.9196   22.9693 C   0  0  0  0  0  0
  -30.6092  -24.5467   23.5456 C   0  0  0  0  0  0
  -30.8235  -24.1470   22.2035 C   0  0  0  0  0  0
  -32.0343  -19.6761   23.6918 C   0  0  0  0  0  0
  -30.1531  -25.9586   23.8748 C   0  0  0  0  0  0
  -30.6175  -25.0843   21.0266 C   0  0  0  0  0  0
  -29.4748  -26.6532   22.6879 C   0  0  0  0  0  0
  -30.3146  -26.5443   21.4030 C   0  0  2  0  0  0
  -32.3931  -18.2610   23.3102 C   0  0  0  0  0  0
  -30.3465  -15.3254   21.7293 C   0  0  0  0  0  0
  -29.6810  -27.2845   20.2150 C   0  0  0  0  0  0
  -31.1382  -17.4249   23.0201 C   0  0  0  0  0  0
  -31.4642  -16.3492   21.9880 C   0  0  0  0  0  0
  -31.4394  -12.3075   19.0757 H   0  0  0  0  0  0
  -30.2576  -11.2286   19.7488 H   0  0  0  0  0  0
  -29.6811  -11.7874   17.3823 H   0  0  0  0  0  0
  -29.6562  -13.4907   17.7638 H   0  0  0  0  0  0
  -27.7838  -11.3240   18.7775 H   0  0  0  0  0  0
  -27.3396  -12.6843   17.7829 H   0  0  0  0  0  0
  -27.7277  -14.2550   19.6099 H   0  0  0  0  0  0
  -28.6541  -11.8987   21.3169 H   0  0  0  0  0  0
  -28.4746  -13.5338   21.8715 H   0  0  0  0  0  0
  -25.2747   -9.5693   22.4760 H   0  0  0  0  0  0
  -24.0001   -7.4631   22.7474 H   0  0  0  0  0  0
  -21.0837   -8.8755   19.8944 H   0  0  0  0  0  0
  -22.3671  -10.9669   19.6166 H   0  0  0  0  0  0
  -21.1989   -7.6142   23.9712 H   0  0  0  0  0  0
  -21.1487   -6.0521   25.9084 H   0  0  0  0  0  0
  -22.0600   -2.7599   23.2856 H   0  0  0  0  0  0
  -22.4144  -11.9870   22.4773 H   0  0  0  0  0  0
  -21.1149  -13.1255   22.2642 H   0  0  0  0  0  0
  -24.6782  -15.8514   20.5200 H   0  0  0  0  0  0
  -26.3028  -15.6206   20.1117 H   0  0  0  0  0  0
  -26.7046  -32.5596   23.1217 H   0  0  0  0  0  0
  -25.0071  -33.9846   25.0548 H   0  0  0  0  0  0
  -22.6799  -31.3101   21.4275 H   0  0  0  0  0  0
  -23.3814  -35.9574   23.3340 H   0  0  0  0  0  0
  -24.3616  -36.8862   22.2063 H   0  0  0  0  0  0
  -23.7169  -37.6477   23.6642 H   0  0  0  0  0  0
  -26.0316  -31.6212   20.6138 H   0  0  0  0  0  0
  -26.7974  -30.8928   21.9977 H   0  0  0  0  0  0
  -28.0524  -29.1862   21.2112 H   0  0  0  0  0  0
  -26.1022  -26.0001   19.0246 H   0  0  0  0  0  0
  -23.9817  -27.2828   19.0640 H   0  0  0  0  0  0
  -23.7368  -30.6312   19.4263 H   0  0  0  0  0  0
  -22.7280  -29.2760   19.8494 H   0  0  0  0  0  0
  -25.1251  -36.2065   25.0862 H   0  0  0  0  0  0
  -20.9858  -28.3139   24.1490 H   0  0  0  0  0  0
  -20.5568  -26.2228   23.3589 H   0  0  0  0  0  0
  -21.6607  -26.7397   22.1247 H   0  0  0  0  0  0
  -19.6896  -25.6273   21.1225 H   0  0  0  0  0  0
  -19.6650  -27.3178   20.6720 H   0  0  0  0  0  0
  -17.4141  -26.6643   21.4032 H   0  0  0  0  0  0
  -18.0313  -26.0009   22.8981 H   0  0  0  0  0  0
  -19.7927  -30.7180   24.2345 H   0  0  0  0  0  0
  -17.5018  -31.6276   24.5137 H   0  0  0  0  0  0
  -15.5341  -30.2992   23.7607 H   0  0  0  0  0  0
  -15.8639  -28.0798   22.7066 H   0  0  0  0  0  0
  -24.5957  -30.6894   25.7777 H   0  0  0  0  0  0
  -24.8899  -32.2642   26.5072 H   0  0  0  0  0  0
  -25.8134  -30.8638   27.0173 H   0  0  0  0  0  0
  -26.2740  -29.6832   24.1145 H   0  0  0  0  0  0
  -27.4238  -29.7261   25.4315 H   0  0  0  0  0  0
  -27.8509  -30.4442   23.8972 H   0  0  0  0  0  0
  -27.2751  -33.3554   26.2104 H   0  0  0  0  0  0
  -28.3817  -32.6828   25.0207 H   0  0  0  0  0  0
  -28.0834  -31.8349   26.5277 H   0  0  0  0  0  0
  -28.2629  -38.0098   24.7587 H   0  0  0  0  0  0
  -28.1071  -36.2641   24.6270 H   0  0  0  0  0  0
  -27.2354  -37.1406   25.8912 H   0  0  0  0  0  0
  -20.9288  -29.8788   21.7094 H   0  0  0  0  0  0
  -26.0238  -38.2921   24.1428 H   0  0  0  0  0  0
  -31.3260  -21.6562   26.3846 H   0  0  0  0  0  0
  -32.0098  -19.3346   25.8281 H   0  0  0  0  0  0
  -30.6592  -23.9409   25.6187 H   0  0  0  0  0  0
  -31.3806  -22.5190   20.8996 H   0  0  0  0  0  0
  -31.9717  -20.3166   21.6319 H   0  0  0  0  0  0
  -31.0228  -26.5335   24.1972 H   0  0  0  0  0  0
  -29.4634  -25.9297   24.7180 H   0  0  0  0  0  0
  -29.8007  -24.6694   20.4353 H   0  0  0  0  0  0
  -31.4991  -25.0476   20.3839 H   0  0  0  0  0  0
  -29.2858  -27.6991   22.9314 H   0  0  0  0  0  0
  -28.5002  -26.1895   22.5219 H   0  0  0  0  0  0
  -31.2742  -27.0189   21.6120 H   0  0  0  0  0  0
  -33.0106  -17.7870   24.0746 H   0  0  0  0  0  0
  -33.0188  -18.3149   22.4166 H   0  0  0  0  0  0
  -29.4297  -15.8205   21.4056 H   0  0  0  0  0  0
  -30.1266  -14.7964   22.6569 H   0  0  0  0  0  0
  -30.2919  -27.1261   19.3258 H   0  0  0  0  0  0
  -29.7092  -28.3606   20.3671 H   0  0  0  0  0  0
  -30.3494  -18.0574   22.6079 H   0  0  0  0  0  0
  -30.7452  -17.0007   23.9444 H   0  0  0  0  0  0
  -31.7151  -16.8538   21.0525 H   0  0  0  0  0  0
  -32.3624  -15.8167   22.3037 H   0  0  0  0  0  0
  1 25  1  0  0  0
  1 30  2  0  0  0
  1 86  1  0  0  0
  2  3  1  0  0  0
  2 25  1  0  0  0
  2 90  1  0  0  0
  2 91  1  0  0  0
  3  4  1  0  0  0
  3 92  1  0  0  0
  3 93  1  0  0  0
  4  5  1  0  0  0
  4 94  1  0  0  0
  4 95  1  0  0  0
  5  6  1  0  0  0
  5 26  1  0  0  0
  5 96  1  0  0  0
  6 25  1  0  0  0
  6 97  1  0  0  0
  6 98  1  0  0  0
  7  8  2  0  0  0
  7 26  1  0  0  0
  7 29  1  0  0  0
  8  9  1  0  0  0
  8 22  1  0  0  0
  9 10  1  0  0  0
  9 27  2  0  0  0
 10 11  2  0  0  0
 10 15  1  0  0  0
 11 12  1  0  0  0
 11 99  1  0  0  0
 12 13  2  0  0  0
 12100  1  0  0  0
 13 14  1  0  0  0
 13 31  1  0  0  0
 14 15  2  0  0  0
 14101  1  0  0  0
 15102  1  0  0  0
 16 17  2  0  0  0
 16 21  1  0  0  0
 16 31  1  0  0  0
 17 18  1  0  0  0
 17103  1  0  0  0
 18 19  2  0  0  0
 18104  1  0  0  0
 19 20  1  0  0  0
 19 24  1  0  0  0
 20 21  2  0  0  0
 20105  1  0  0  0
 21 23  1  0  0  0
 22 28  1  0  0  0
 22 32  2  0  0  0
 26 27  1  0  0  0
 28106  1  0  0  0
 28107  1  0  0  0
 29108  1  0  0  0
 29109  1  0  0  0
 33 34  1  0  0  0
 33 66  1  0  0  0
 33 70  2  0  0  0
 34 36  1  0  0  0
 34 59  1  0  0  0
 34110  1  0  0  0
 35 44  2  0  0  0
 35 45  1  0  0  0
 35 68  1  0  0  0
 36 56  1  0  0  0
 36111  1  0  0  0
 37 39  1  0  0  0
 37 47  1  0  0  0
 37 66  1  0  0  0
 37112  1  0  0  0
 38 43  2  0  0  0
 38 46  1  0  0  0
 38 47  1  0  0  0
 39 64  1  0  0  0
 39 67  2  0  0  0
 40 52  1  0  0  0
 40 53  2  0  0  0
 40 58  1  0  0  0
 41113  1  0  0  0
 41114  1  0  0  0
 41115  1  0  0  0
 41 48  1  0  0  0
 42 43  1  0  0  0
 42 66  1  0  0  0
 42116  1  0  0  0
 42117  1  0  0  0
 43 44  1  0  0  0
 44118  1  0  0  0
 45 46  2  0  0  0
 45119  1  0  0  0
 46120  1  0  0  0
 47121  1  0  0  0
 47122  1  0  0  0
 48 56  1  0  0  0
 48 65  1  0  0  0
 48123  1  0  0  0
 49 50  1  0  0  0
 49 53  1  0  0  0
 49 64  1  0  0  0
 49124  1  0  0  0
 50 51  1  0  0  0
 50125  1  0  0  0
 50126  1  0  0  0
 51 52  1  0  0  0
 51127  1  0  0  0
 51128  1  0  0  0
 52129  1  0  0  0
 52130  1  0  0  0
 53 54  1  0  0  0
 54 55  2  0  0  0
 54131  1  0  0  0
 55 57  1  0  0  0
 55132  1  0  0  0
 56 69  2  0  0  0
 57 58  2  0  0  0
 57133  1  0  0  0
 58134  1  0  0  0
 59 60  1  0  0  0
 59 61  1  0  0  0
 59 62  1  0  0  0
 60135  1  0  0  0
 60136  1  0  0  0
 60137  1  0  0  0
 61138  1  0  0  0
 61139  1  0  0  0
 61140  1  0  0  0
 62141  1  0  0  0
 62142  1  0  0  0
 62143  1  0  0  0
 63 65  1  0  0  0
 63144  1  0  0  0
 63145  1  0  0  0
 63146  1  0  0  0
 64147  1  0  0  0
 65148  1  0  0  0
 68 87  1  0  0  0
 71 72  2  0  0  0
 71 76  1  0  0  0
 71149  1  0  0  0
 72 80  1  0  0  0
 72150  1  0  0  0
 73 76  2  0  0  0
 73 78  1  0  0  0
 73151  1  0  0  0
 74 77  2  0  0  0
 74 79  1  0  0  0
 74152  1  0  0  0
 75 77  1  0  0  0
 75 80  2  0  0  0
 75153  1  0  0  0
 76 77  1  0  0  0
 78 79  2  0  0  0
 78 81  1  0  0  0
 79 82  1  0  0  0
 80 85  1  0  0  0
 81 83  1  0  0  0
 81154  1  0  0  0
 81155  1  0  0  0
 82 84  1  0  0  0
 82156  1  0  0  0
 82157  1  0  0  0
 83 84  1  0  0  0
 83158  1  0  0  0
 83159  1  0  0  0
 84 87  1  0  0  0
 84160  1  0  0  0
 85 88  1  0  0  0
 85161  1  0  0  0
 85162  1  0  0  0
 86 89  1  0  0  0
 86163  1  0  0  0
 86164  1  0  0  0
 87165  1  0  0  0
 87166  1  0  0  0
 88 89  1  0  0  0
 88167  1  0  0  0
 88168  1  0  0  0
 89169  1  0  0  0
 89170  1  0  0  0
M  ISO  4   1 100  68 101  86 100  87 101
M  END
> <chiral flag>
0

> <version>
0

> <s_m_source_file>
/data/baiqing/PycharmProjects/Reinvent-master-3.2/result/LINK_invent/BTK/process_docking_weight1_custom_product_contain_oxygen_bond_distance_aromatic_linkinvent_7_9_3/rearranged_h_0133.sdf

> <i_m_source_file_index>
26

> <r_mmod_Potential_Energy-OPLS-2005>
-16.2333946228027

> <r_mmod_Stretch_Energy-OPLS-2005>
31.2035140991211

> <r_mmod_Bend_Energy-OPLS-2005>
101.462608337402

> <r_mmod_Torsional_Energy-OPLS-2005>
176.968688964844

> <r_mmod_Improper_Torsional_Energy-OPLS-2005>
1.61608123779297

> <r_mmod_Van_der_Waal_Energy-OPLS-2005>
182.198272705078

> <r_mmod_Electrostatic_Energy-OPLS-2005>
-322.792755126953

> <r_mmod_Solvation_Energy-OPLS-2005>
-194.579818725586

> <b_mmod_Minimization_Converged-OPLS-2005>
0

> <r_mmod_RMS_Derivative-OPLS-2005>
3.4153687953949

$$$$
26
                    3D
 Structure written by MMmdl.
165173  0  0  1  0            999 V2000
  -30.6709  -14.4559   20.5442 C   0  0  0  0  0  0
  -30.4261  -12.2817   19.4304 C   0  0  0  0  0  0
  -29.4971  -12.4954   18.2141 C   0  0  0  0  0  0
  -28.0165  -12.3587   18.6238 C   0  0  0  0  0  0
  -27.6643  -13.1942   19.8824 C   0  0  2  0  0  0
  -28.7028  -12.9568   21.0060 C   0  0  0  0  0  0
  -25.2600  -13.8126   20.5679 C   0  0  0  0  0  0
  -24.1838  -13.0441   20.9174 C   0  0  0  0  0  0
  -24.6368  -11.6890   20.8737 C   0  0  0  0  0  0
  -23.9036  -10.4291   21.0401 C   0  0  0  0  0  0
  -24.3584   -9.4206   21.9178 C   0  0  0  0  0  0
  -23.6271   -8.2239   22.0748 C   0  0  0  0  0  0
  -22.4254   -8.0272   21.3543 C   0  0  0  0  0  0
  -21.9887   -9.0238   20.4645 C   0  0  0  0  0  0
  -22.7207  -10.2124   20.3057 C   0  0  0  0  0  0
  -21.6852   -6.0729   22.5276 C   0  0  0  0  0  0
  -21.4005   -6.5634   23.8202 C   0  0  0  0  0  0
  -21.3667   -5.6784   24.9167 C   0  0  0  0  0  0
  -21.6046   -4.3049   24.7218 C   0  0  0  0  0  0
  -21.8824   -3.8141   23.4337 C   0  0  0  0  0  0
  -21.9187   -4.6956   22.3397 C   0  0  0  0  0  0
  -22.7861  -13.5243   21.1836 C   0  0  0  0  0  0
  -22.1660   -4.2142   21.0974 F   0  0  0  0  0  0
  -21.5635   -3.4535   25.7732 F   0  0  0  0  0  0
  -30.0419  -13.2537   20.4642 N   0  0  0  0  0  0
  -26.3025  -12.9263   20.3378 N   0  0  0  0  0  0
  -25.9287  -11.6442   20.5775 N   0  0  0  0  0  0
  -22.0508  -12.8248   22.0399 N   0  0  0  0  0  0
  -25.4373  -15.1838   20.4059 N   0  0  0  0  0  0
  -31.7890  -14.6704   20.0675 O   0  0  0  0  0  0
  -21.6639   -6.8863   21.4231 O   0  0  0  0  0  0
  -22.3555  -14.5561   20.6687 O   0  0  0  0  0  0
  -24.6125  -31.8697   23.2105 C   0  0  0  0  0  0
  -25.9049  -32.4820   23.8384 C   0  0  1  0  0  0
  -27.2321  -27.4579   20.0882 C   0  0  0  0  0  0
  -25.5916  -33.8616   24.2319 N   0  0  0  0  0  0
  -23.3964  -30.4947   21.5496 C   0  0  2  0  0  0
  -24.8415  -28.9647   20.1130 C   0  0  0  0  0  0
  -22.7378  -29.4674   22.4987 C   0  0  0  0  0  0
  -18.0275  -28.1383   22.8498 C   0  0  0  0  0  0
  -24.1488  -36.7318   23.2634 C   0  0  0  0  0  0
  -25.9224  -30.8439   21.3575 C   0  0  0  0  0  0
  -26.0007  -29.4802   20.7046 C   0  0  0  0  0  0
  -27.2005  -28.7345   20.6876 C   0  0  0  0  0  0
  -26.0554  -26.9523   19.4893 C   0  0  0  0  0  0
  -24.8619  -27.6988   19.5041 C   0  0  0  0  0  0
  -23.6024  -29.8284   20.1631 C   0  0  0  0  0  0
  -25.4103  -36.3103   24.0330 C   0  0  1  0  0  0
  -20.5861  -28.3661   23.1335 C   0  0  2  0  0  0
  -20.6771  -26.9401   22.5430 C   0  0  0  0  0  0
  -19.5761  -26.6395   21.5215 C   0  0  0  0  0  0
  -18.1927  -26.7933   22.1614 C   0  0  0  0  0  0
  -19.1523  -28.8841   23.2912 C   0  0  0  0  0  0
  -18.9451  -30.1446   23.8920 C   0  0  0  0  0  0
  -17.6460  -30.6592   24.0587 C   0  0  0  0  0  0
  -25.9037  -34.9472   23.5118 C   0  0  0  0  0  0
  -16.5349  -29.9106   23.6335 C   0  0  0  0  0  0
  -16.7268  -28.6526   23.0347 C   0  0  0  0  0  0
  -26.4486  -31.6586   25.0702 C   0  0  0  0  0  0
  -25.3770  -31.3714   26.1470 C   0  0  0  0  0  0
  -27.0293  -30.3019   24.6051 C   0  0  0  0  0  0
  -27.6059  -32.4289   25.7492 C   0  0  0  0  0  0
  -27.5567  -37.1814   24.8461 C   0  0  0  0  0  0
  -21.4108  -29.3030   22.3734 N   0  0  0  0  0  0
  -26.4284  -37.3792   23.9404 N   0  0  0  0  0  0
  -24.6613  -31.0841   22.0977 N   0  0  0  0  0  0
  -23.4171  -28.8221   23.3014 O   0  0  0  0  0  0
  -28.4028  -26.7294   20.1099 O   0  0  0  0  0  0
  -26.5587  -34.8941   22.4669 O   0  0  0  0  0  0
  -23.5327  -32.1440   23.7535 O   0  0  0  0  0  0
  -31.7784  -20.3242   21.1481 C   0  0  0  0  0  0
  -31.7678  -18.0925   20.1634 C   0  0  0  0  0  0
  -29.7678  -18.9519   21.2581 C   0  0  0  0  0  0
  -32.4361  -19.3027   20.4365 C   0  0  0  0  0  0
  -30.4387  -20.1598   21.5570 C   0  0  0  0  0  0
  -30.4264  -17.9174   20.5578 C   0  0  0  0  0  0
  -33.8530  -19.5213   19.9515 C   0  0  0  0  0  0
  -27.9457  -25.3987   22.0867 C   0  0  0  0  0  0
  -29.7220  -21.2483   22.3464 C   0  0  0  0  0  0
  -29.6662  -16.6699   20.1307 C   0  0  0  0  0  0
  -30.0632  -22.7120   21.9775 C   0  0  0  0  0  0
  -29.6438  -23.1354   20.5535 C   0  0  0  0  0  0
  -29.6448  -24.6638   20.3079 C   0  0  0  0  0  0
  -28.3036  -25.3790   20.5879 C   0  0  2  0  0  0
  -29.8670  -15.4578   20.9287 N   0  0  0  0  0  0
  -31.4715  -12.3806   19.1344 H   0  0  0  0  0  0
  -30.3216  -11.2675   19.8177 H   0  0  0  0  0  0
  -29.7338  -11.7746   17.4300 H   0  0  0  0  0  0
  -29.6688  -13.4843   17.7852 H   0  0  0  0  0  0
  -27.8232  -11.3025   18.8147 H   0  0  0  0  0  0
  -27.3678  -12.6354   17.7923 H   0  0  0  0  0  0
  -27.7108  -14.2419   19.5852 H   0  0  0  0  0  0
  -28.6693  -11.9184   21.3410 H   0  0  0  0  0  0
  -28.4675  -13.5475   21.8919 H   0  0  0  0  0  0
  -25.2727   -9.5683   22.4751 H   0  0  0  0  0  0
  -23.9988   -7.4626   22.7456 H   0  0  0  0  0  0
  -21.0828   -8.8744   19.8944 H   0  0  0  0  0  0
  -22.3657  -10.9654   19.6162 H   0  0  0  0  0  0
  -21.2003   -7.6141   23.9702 H   0  0  0  0  0  0
  -21.1486   -6.0522   25.9072 H   0  0  0  0  0  0
  -22.0600   -2.7606   23.2841 H   0  0  0  0  0  0
  -22.4097  -11.9905   22.4791 H   0  0  0  0  0  0
  -21.1122  -13.1263   22.2595 H   0  0  0  0  0  0
  -24.6767  -15.8452   20.5155 H   0  0  0  0  0  0
  -26.2915  -15.6149   20.0768 H   0  0  0  0  0  0
  -26.7124  -32.5559   23.1163 H   0  0  0  0  0  0
  -25.0113  -33.9776   25.0496 H   0  0  0  0  0  0
  -22.6829  -31.3101   21.4131 H   0  0  0  0  0  0
  -23.3740  -35.9660   23.3297 H   0  0  0  0  0  0
  -24.3590  -36.8927   22.2047 H   0  0  0  0  0  0
  -23.7270  -37.6536   23.6649 H   0  0  0  0  0  0
  -26.0266  -31.6102   20.5860 H   0  0  0  0  0  0
  -26.8139  -30.8998   21.9696 H   0  0  0  0  0  0
  -28.0955  -29.1277   21.1499 H   0  0  0  0  0  0
  -26.0496  -25.9890   19.0002 H   0  0  0  0  0  0
  -23.9693  -27.3006   19.0421 H   0  0  0  0  0  0
  -23.7104  -30.6045   19.4038 H   0  0  0  0  0  0
  -22.7261  -29.2467   19.8681 H   0  0  0  0  0  0
  -25.1282  -36.1947   25.0820 H   0  0  0  0  0  0
  -20.9958  -28.3226   24.1459 H   0  0  0  0  0  0
  -20.5666  -26.2250   23.3600 H   0  0  0  0  0  0
  -21.6636  -26.7448   22.1218 H   0  0  0  0  0  0
  -19.6903  -25.6309   21.1228 H   0  0  0  0  0  0
  -19.6718  -27.3223   20.6762 H   0  0  0  0  0  0
  -17.4194  -26.6704   21.4014 H   0  0  0  0  0  0
  -18.0327  -26.0068   22.9003 H   0  0  0  0  0  0
  -19.7930  -30.7272   24.2270 H   0  0  0  0  0  0
  -17.5022  -31.6274   24.5183 H   0  0  0  0  0  0
  -15.5351  -30.3028   23.7649 H   0  0  0  0  0  0
  -15.8662  -28.0875   22.7035 H   0  0  0  0  0  0
  -24.5943  -30.7037   25.7849 H   0  0  0  0  0  0
  -24.8976  -32.2888   26.4894 H   0  0  0  0  0  0
  -25.8158  -30.8932   27.0237 H   0  0  0  0  0  0
  -26.2837  -29.6816   24.1056 H   0  0  0  0  0  0
  -27.4015  -29.7207   25.4496 H   0  0  0  0  0  0
  -27.8691  -30.4323   23.9217 H   0  0  0  0  0  0
  -27.2665  -33.3579   26.2091 H   0  0  0  0  0  0
  -28.3901  -32.6847   25.0353 H   0  0  0  0  0  0
  -28.0687  -31.8387   26.5409 H   0  0  0  0  0  0
  -28.2595  -38.0102   24.7493 H   0  0  0  0  0  0
  -28.1048  -36.2633   24.6295 H   0  0  0  0  0  0
  -27.2279  -37.1477   25.8864 H   0  0  0  0  0  0
  -20.9231  -29.8759   21.6992 H   0  0  0  0  0  0
  -26.0154  -38.2855   24.1429 H   0  0  0  0  0  0
  -32.3078  -21.2396   21.3696 H   0  0  0  0  0  0
  -32.2733  -17.3077   19.6162 H   0  0  0  0  0  0
  -28.7365  -18.8255   21.5586 H   0  0  0  0  0  0
  -34.5576  -19.4311   20.7775 H   0  0  0  0  0  0
  -33.9608  -20.5140   19.5119 H   0  0  0  0  0  0
  -34.1244  -18.7913   19.1893 H   0  0  0  0  0  0
  -27.6601  -24.4084   22.4387 H   0  0  0  0  0  0
  -27.1043  -26.0553   22.3063 H   0  0  0  0  0  0
  -28.7909  -25.7447   22.6820 H   0  0  0  0  0  0
  -29.9570  -21.0823   23.3985 H   0  0  0  0  0  0
  -28.6452  -21.1028   22.2549 H   0  0  0  0  0  0
  -29.8955  -16.4702   19.0818 H   0  0  0  0  0  0
  -28.5983  -16.8911   20.1409 H   0  0  0  0  0  0
  -31.1234  -22.9174   22.1217 H   0  0  0  0  0  0
  -29.5651  -23.3404   22.7110 H   0  0  0  0  0  0
  -30.3385  -22.6721   19.8518 H   0  0  0  0  0  0
  -28.6646  -22.7272   20.3041 H   0  0  0  0  0  0
  -29.8723  -24.8265   19.2532 H   0  0  0  0  0  0
  -30.4617  -25.1353   20.8577 H   0  0  0  0  0  0
  -27.5331  -24.8374   20.0395 H   0  0  0  0  0  0
  -29.0382  -15.1465   21.4124 H   0  0  0  0  0  0
  1 25  1  0  0  0
  1 30  2  0  0  0
  1 85  1  0  0  0
  2  3  1  0  0  0
  2 25  1  0  0  0
  2 86  1  0  0  0
  2 87  1  0  0  0
  3  4  1  0  0  0
  3 88  1  0  0  0
  3 89  1  0  0  0
  4  5  1  0  0  0
  4 90  1  0  0  0
  4 91  1  0  0  0
  5  6  1  0  0  0
  5 26  1  0  0  0
  5 92  1  0  0  0
  6 25  1  0  0  0
  6 93  1  0  0  0
  6 94  1  0  0  0
  7  8  2  0  0  0
  7 26  1  0  0  0
  7 29  1  0  0  0
  8  9  1  0  0  0
  8 22  1  0  0  0
  9 10  1  0  0  0
  9 27  2  0  0  0
 10 11  2  0  0  0
 10 15  1  0  0  0
 11 12  1  0  0  0
 11 95  1  0  0  0
 12 13  2  0  0  0
 12 96  1  0  0  0
 13 14  1  0  0  0
 13 31  1  0  0  0
 14 15  2  0  0  0
 14 97  1  0  0  0
 15 98  1  0  0  0
 16 17  2  0  0  0
 16 21  1  0  0  0
 16 31  1  0  0  0
 17 18  1  0  0  0
 17 99  1  0  0  0
 18 19  2  0  0  0
 18100  1  0  0  0
 19 20  1  0  0  0
 19 24  1  0  0  0
 20 21  2  0  0  0
 20101  1  0  0  0
 21 23  1  0  0  0
 22 28  1  0  0  0
 22 32  2  0  0  0
 26 27  1  0  0  0
 28102  1  0  0  0
 28103  1  0  0  0
 29104  1  0  0  0
 29105  1  0  0  0
 33 34  1  0  0  0
 33 66  1  0  0  0
 33 70  2  0  0  0
 34 36  1  0  0  0
 34 59  1  0  0  0
 34106  1  0  0  0
 35 44  2  0  0  0
 35 45  1  0  0  0
 35 68  1  0  0  0
 36 56  1  0  0  0
 36107  1  0  0  0
 37 39  1  0  0  0
 37 47  1  0  0  0
 37 66  1  0  0  0
 37108  1  0  0  0
 38 43  2  0  0  0
 38 46  1  0  0  0
 38 47  1  0  0  0
 39 64  1  0  0  0
 39 67  2  0  0  0
 40 52  1  0  0  0
 40 53  2  0  0  0
 40 58  1  0  0  0
 41109  1  0  0  0
 41110  1  0  0  0
 41111  1  0  0  0
 41 48  1  0  0  0
 42 43  1  0  0  0
 42 66  1  0  0  0
 42112  1  0  0  0
 42113  1  0  0  0
 43 44  1  0  0  0
 44114  1  0  0  0
 45 46  2  0  0  0
 45115  1  0  0  0
 46116  1  0  0  0
 47117  1  0  0  0
 47118  1  0  0  0
 48 56  1  0  0  0
 48 65  1  0  0  0
 48119  1  0  0  0
 49 50  1  0  0  0
 49 53  1  0  0  0
 49 64  1  0  0  0
 49120  1  0  0  0
 50 51  1  0  0  0
 50121  1  0  0  0
 50122  1  0  0  0
 51 52  1  0  0  0
 51123  1  0  0  0
 51124  1  0  0  0
 52125  1  0  0  0
 52126  1  0  0  0
 53 54  1  0  0  0
 54 55  2  0  0  0
 54127  1  0  0  0
 55 57  1  0  0  0
 55128  1  0  0  0
 56 69  2  0  0  0
 57 58  2  0  0  0
 57129  1  0  0  0
 58130  1  0  0  0
 59 60  1  0  0  0
 59 61  1  0  0  0
 59 62  1  0  0  0
 60131  1  0  0  0
 60132  1  0  0  0
 60133  1  0  0  0
 61134  1  0  0  0
 61135  1  0  0  0
 61136  1  0  0  0
 62137  1  0  0  0
 62138  1  0  0  0
 62139  1  0  0  0
 63 65  1  0  0  0
 63140  1  0  0  0
 63141  1  0  0  0
 63142  1  0  0  0
 64143  1  0  0  0
 65144  1  0  0  0
 68 84  1  0  0  0
 71 74  2  0  0  0
 71 75  1  0  0  0
 71145  1  0  0  0
 72 74  1  0  0  0
 72 76  2  0  0  0
 72146  1  0  0  0
 73 75  2  0  0  0
 73 76  1  0  0  0
 73147  1  0  0  0
 74 77  1  0  0  0
 75 79  1  0  0  0
 76 80  1  0  0  0
 77148  1  0  0  0
 77149  1  0  0  0
 77150  1  0  0  0
 78151  1  0  0  0
 78152  1  0  0  0
 78153  1  0  0  0
 78 84  1  0  0  0
 79 81  1  0  0  0
 79154  1  0  0  0
 79155  1  0  0  0
 80 85  1  0  0  0
 80156  1  0  0  0
 80157  1  0  0  0
 81 82  1  0  0  0
 81158  1  0  0  0
 81159  1  0  0  0
 82 83  1  0  0  0
 82160  1  0  0  0
 82161  1  0  0  0
 83 84  1  0  0  0
 83162  1  0  0  0
 83163  1  0  0  0
 84164  1  0  0  0
 85165  1  0  0  0
M  ISO  4   1 100  68 101  84 101  85 100
M  END
> <chiral flag>
0

> <version>
0

> <s_m_source_file>
/data/baiqing/PycharmProjects/Reinvent-master-3.2/result/LINK_invent/BTK/process_docking_weight1_custom_product_contain_oxygen_bond_distance_aromatic_linkinvent_7_9_3/rearranged_h_0133.sdf

> <i_m_source_file_index>
27

> <r_mmod_Potential_Energy-OPLS-2005>
-72.1826400756836

> <r_mmod_Stretch_Energy-OPLS-2005>
33.9771270751953

> <r_mmod_Bend_Energy-OPLS-2005>
92.9355545043945

> <r_mmod_Torsional_Energy-OPLS-2005>
247.3876953125

> <r_mmod_Improper_Torsional_Energy-OPLS-2005>
10.1548051834106

> <r_mmod_Van_der_Waal_Energy-OPLS-2005>
150.985794067383

> <r_mmod_Electrostatic_Energy-OPLS-2005>
-413.036346435547

> <r_mmod_Solvation_Energy-OPLS-2005>
-206.235000610352

> <b_mmod_Minimization_Converged-OPLS-2005>
0

> <r_mmod_RMS_Derivative-OPLS-2005>
2.545658826828

$$$$
27
                    3D
 Structure written by MMmdl.
158167  0  0  1  0            999 V2000
  -30.6097  -14.6374   20.5089 C   0  0  0  0  0  0
  -30.4458  -12.3930   19.4474 C   0  0  0  0  0  0
  -29.5102  -12.5127   18.2227 C   0  0  0  0  0  0
  -28.0326  -12.3468   18.6339 C   0  0  0  0  0  0
  -27.6558  -13.2104   19.8663 C   0  0  2  0  0  0
  -28.7019  -13.0482   20.9934 C   0  0  0  0  0  0
  -25.2556  -13.8114   20.5674 C   0  0  0  0  0  0
  -24.1825  -13.0401   20.9201 C   0  0  0  0  0  0
  -24.6393  -11.6877   20.8746 C   0  0  0  0  0  0
  -23.9058  -10.4271   21.0410 C   0  0  0  0  0  0
  -24.3610   -9.4189   21.9187 C   0  0  0  0  0  0
  -23.6285   -8.2227   22.0755 C   0  0  0  0  0  0
  -22.4267   -8.0270   21.3544 C   0  0  0  0  0  0
  -21.9902   -9.0245   20.4648 C   0  0  0  0  0  0
  -22.7231  -10.2122   20.3057 C   0  0  0  0  0  0
  -21.6847   -6.0729   22.5279 C   0  0  0  0  0  0
  -21.4010   -6.5635   23.8213 C   0  0  0  0  0  0
  -21.3660   -5.6789   24.9176 C   0  0  0  0  0  0
  -21.6044   -4.3051   24.7227 C   0  0  0  0  0  0
  -21.8821   -3.8142   23.4349 C   0  0  0  0  0  0
  -21.9191   -4.6957   22.3404 C   0  0  0  0  0  0
  -22.7853  -13.5216   21.1858 C   0  0  0  0  0  0
  -22.1661   -4.2142   21.0982 F   0  0  0  0  0  0
  -21.5630   -3.4537   25.7741 F   0  0  0  0  0  0
  -30.0195  -13.4018   20.4364 N   0  0  0  0  0  0
  -26.2996  -12.9303   20.3319 N   0  0  0  0  0  0
  -25.9322  -11.6465   20.5757 N   0  0  0  0  0  0
  -22.0481  -12.8221   22.0412 N   0  0  0  0  0  0
  -25.4227  -15.1817   20.4040 N   0  0  0  0  0  0
  -31.7634  -14.8304   20.1123 O   0  0  0  0  0  0
  -21.6629   -6.8870   21.4241 O   0  0  0  0  0  0
  -22.3557  -14.5531   20.6706 O   0  0  0  0  0  0
  -24.6244  -31.8606   23.2034 C   0  0  0  0  0  0
  -25.9096  -32.4785   23.8361 C   0  0  1  0  0  0
  -27.2302  -27.3351   20.1219 C   0  0  0  0  0  0
  -25.5915  -33.8586   24.2287 N   0  0  0  0  0  0
  -23.4181  -30.4831   21.5453 C   0  0  2  0  0  0
  -24.8670  -28.9379   20.1140 C   0  0  0  0  0  0
  -22.7466  -29.4625   22.4946 C   0  0  0  0  0  0
  -18.0282  -28.1383   22.8487 C   0  0  0  0  0  0
  -24.1489  -36.7299   23.2640 C   0  0  0  0  0  0
  -25.9572  -30.7970   21.3721 C   0  0  0  0  0  0
  -26.0340  -29.4241   20.7175 C   0  0  0  0  0  0
  -27.2204  -28.6347   20.7106 C   0  0  0  0  0  0
  -26.0456  -26.9003   19.4879 C   0  0  0  0  0  0
  -24.8733  -27.6802   19.4902 C   0  0  0  0  0  0
  -23.6332  -29.8155   20.1614 C   0  0  0  0  0  0
  -25.4112  -36.3089   24.0331 C   0  0  1  0  0  0
  -20.5881  -28.3684   23.1289 C   0  0  2  0  0  0
  -20.6772  -26.9410   22.5413 C   0  0  0  0  0  0
  -19.5749  -26.6385   21.5212 C   0  0  0  0  0  0
  -18.1928  -26.7927   22.1623 C   0  0  0  0  0  0
  -19.1534  -28.8851   23.2883 C   0  0  0  0  0  0
  -18.9459  -30.1453   23.8898 C   0  0  0  0  0  0
  -17.6459  -30.6586   24.0563 C   0  0  0  0  0  0
  -25.9045  -34.9457   23.5110 C   0  0  0  0  0  0
  -16.5350  -29.9085   23.6329 C   0  0  0  0  0  0
  -16.7270  -28.6503   23.0349 C   0  0  0  0  0  0
  -26.4489  -31.6589   25.0724 C   0  0  0  0  0  0
  -25.3730  -31.3719   26.1455 C   0  0  0  0  0  0
  -27.0332  -30.3018   24.6164 C   0  0  0  0  0  0
  -27.6054  -32.4321   25.7491 C   0  0  0  0  0  0
  -27.5579  -37.1805   24.8465 C   0  0  0  0  0  0
  -21.4182  -29.3038   22.3686 N   0  0  0  0  0  0
  -26.4293  -37.3781   23.9406 N   0  0  0  0  0  0
  -24.6852  -31.0631   22.0976 N   0  0  0  0  0  0
  -23.4195  -28.8167   23.3024 O   0  0  0  0  0  0
  -28.3538  -26.4999   20.1363 O   0  0  0  0  0  0
  -26.5615  -34.8922   22.4676 O   0  0  0  0  0  0
  -23.5410  -32.1397   23.7369 O   0  0  0  0  0  0
  -30.8053  -17.9981   20.8174 C   0  0  0  0  0  0
  -28.4547  -17.5918   20.1485 C   0  0  0  0  0  0
  -30.5111  -19.3658   20.5713 C   0  0  0  0  0  0
  -29.2493  -19.8532   20.1085 C   0  0  0  0  0  0
  -29.7251  -17.0747   20.5989 C   0  0  0  0  0  0
  -28.1853  -18.9791   19.8635 C   0  0  0  0  0  0
  -31.1058  -20.7658   20.5374 C   0  0  0  0  0  0
  -29.7100  -21.3152   19.9237 C   0  0  2  0  0  0
  -25.9401  -18.5854   19.1377 C   0  0  0  0  0  0
  -28.8641  -22.4830   20.5725 C   0  0  0  0  0  0
  -29.1217  -23.9675   20.0491 C   0  0  0  0  0  0
  -28.1604  -25.1073   20.5947 C   0  0  0  0  0  0
  -29.7796  -15.6478   20.9107 N   0  0  0  0  0  0
  -27.0067  -19.4935   19.3730 O   0  0  0  0  0  0
  -31.4853  -12.5302   19.1442 H   0  0  0  0  0  0
  -30.3901  -11.3928   19.8795 H   0  0  0  0  0  0
  -29.7750  -11.7663   17.4726 H   0  0  0  0  0  0
  -29.6499  -13.4851   17.7477 H   0  0  0  0  0  0
  -27.8697  -11.2924   18.8603 H   0  0  0  0  0  0
  -27.3776  -12.5812   17.7938 H   0  0  0  0  0  0
  -27.6775  -14.2477   19.5327 H   0  0  0  0  0  0
  -28.7148  -12.0194   21.3562 H   0  0  0  0  0  0
  -28.4439  -13.6588   21.8601 H   0  0  0  0  0  0
  -25.2756   -9.5665   22.4760 H   0  0  0  0  0  0
  -23.9992   -7.4618   22.7473 H   0  0  0  0  0  0
  -21.0830   -8.8766   19.8957 H   0  0  0  0  0  0
  -22.3692  -10.9662   19.6165 H   0  0  0  0  0  0
  -21.2001   -7.6144   23.9715 H   0  0  0  0  0  0
  -21.1482   -6.0518   25.9079 H   0  0  0  0  0  0
  -22.0600   -2.7604   23.2848 H   0  0  0  0  0  0
  -22.4081  -11.9878   22.4805 H   0  0  0  0  0  0
  -21.1106  -13.1267   22.2617 H   0  0  0  0  0  0
  -24.6432  -15.8235   20.4948 H   0  0  0  0  0  0
  -26.2483  -15.6028   20.0056 H   0  0  0  0  0  0
  -26.7165  -32.5467   23.1114 H   0  0  0  0  0  0
  -25.0058  -33.9735   25.0428 H   0  0  0  0  0  0
  -22.7109  -31.3026   21.4013 H   0  0  0  0  0  0
  -23.3748  -35.9635   23.3309 H   0  0  0  0  0  0
  -24.3580  -36.8913   22.2053 H   0  0  0  0  0  0
  -23.7246  -37.6506   23.6656 H   0  0  0  0  0  0
  -26.0839  -31.5600   20.6027 H   0  0  0  0  0  0
  -26.8391  -30.8486   21.9989 H   0  0  0  0  0  0
  -28.1179  -29.0051   21.1862 H   0  0  0  0  0  0
  -26.0163  -25.9448   18.9843 H   0  0  0  0  0  0
  -23.9813  -27.3045   19.0079 H   0  0  0  0  0  0
  -23.7504  -30.5905   19.4030 H   0  0  0  0  0  0
  -22.7548  -29.2416   19.8607 H   0  0  0  0  0  0
  -25.1293  -36.1946   25.0824 H   0  0  0  0  0  0
  -20.9971  -28.3257   24.1411 H   0  0  0  0  0  0
  -20.5671  -26.2294   23.3611 H   0  0  0  0  0  0
  -21.6642  -26.7441   22.1209 H   0  0  0  0  0  0
  -19.6912  -25.6296   21.1241 H   0  0  0  0  0  0
  -19.6690  -27.3196   20.6743 H   0  0  0  0  0  0
  -17.4200  -26.6674   21.4024 H   0  0  0  0  0  0
  -18.0329  -26.0068   22.9018 H   0  0  0  0  0  0
  -19.7935  -30.7267   24.2272 H   0  0  0  0  0  0
  -17.5014  -31.6266   24.5163 H   0  0  0  0  0  0
  -15.5350  -30.2987   23.7652 H   0  0  0  0  0  0
  -15.8671  -28.0823   22.7061 H   0  0  0  0  0  0
  -24.5908  -30.7065   25.7785 H   0  0  0  0  0  0
  -24.8918  -32.2881   26.4887 H   0  0  0  0  0  0
  -25.8064  -30.8895   27.0226 H   0  0  0  0  0  0
  -26.2901  -29.6769   24.1198 H   0  0  0  0  0  0
  -27.4047  -29.7273   25.4660 H   0  0  0  0  0  0
  -27.8762  -30.4311   23.9373 H   0  0  0  0  0  0
  -27.2668  -33.3618   26.2077 H   0  0  0  0  0  0
  -28.3859  -32.6887   25.0315 H   0  0  0  0  0  0
  -28.0729  -31.8442   26.5400 H   0  0  0  0  0  0
  -28.2603  -38.0097   24.7505 H   0  0  0  0  0  0
  -28.1069  -36.2628   24.6298 H   0  0  0  0  0  0
  -27.2298  -37.1466   25.8869 H   0  0  0  0  0  0
  -20.9358  -29.8761   21.6898 H   0  0  0  0  0  0
  -26.0177  -38.2859   24.1401 H   0  0  0  0  0  0
  -31.7778  -17.6762   21.1637 H   0  0  0  0  0  0
  -27.6640  -16.8745   20.0036 H   0  0  0  0  0  0
  -31.9570  -20.8560   19.8617 H   0  0  0  0  0  0
  -31.3295  -21.1393   21.5373 H   0  0  0  0  0  0
  -29.8098  -21.4580   18.8467 H   0  0  0  0  0  0
  -25.0842  -19.1287   18.7373 H   0  0  0  0  0  0
  -25.6203  -18.1033   20.0622 H   0  0  0  0  0  0
  -26.2153  -17.8227   18.4079 H   0  0  0  0  0  0
  -28.9807  -22.4601   21.6564 H   0  0  0  0  0  0
  -27.8090  -22.2699   20.3976 H   0  0  0  0  0  0
  -29.0503  -23.9625   18.9612 H   0  0  0  0  0  0
  -30.1523  -24.2427   20.2749 H   0  0  0  0  0  0
  -28.2581  -25.1313   21.6807 H   0  0  0  0  0  0
  -27.1401  -24.7687   20.4224 H   0  0  0  0  0  0
  -28.8962  -15.2695   21.2159 H   0  0  0  0  0  0
  1 25  1  0  0  0
  1 30  2  0  0  0
  1 83  1  0  0  0
  2  3  1  0  0  0
  2 25  1  0  0  0
  2 85  1  0  0  0
  2 86  1  0  0  0
  3  4  1  0  0  0
  3 87  1  0  0  0
  3 88  1  0  0  0
  4  5  1  0  0  0
  4 89  1  0  0  0
  4 90  1  0  0  0
  5  6  1  0  0  0
  5 26  1  0  0  0
  5 91  1  0  0  0
  6 25  1  0  0  0
  6 92  1  0  0  0
  6 93  1  0  0  0
  7  8  2  0  0  0
  7 26  1  0  0  0
  7 29  1  0  0  0
  8  9  1  0  0  0
  8 22  1  0  0  0
  9 10  1  0  0  0
  9 27  2  0  0  0
 10 11  2  0  0  0
 10 15  1  0  0  0
 11 12  1  0  0  0
 11 94  1  0  0  0
 12 13  2  0  0  0
 12 95  1  0  0  0
 13 14  1  0  0  0
 13 31  1  0  0  0
 14 15  2  0  0  0
 14 96  1  0  0  0
 15 97  1  0  0  0
 16 17  2  0  0  0
 16 21  1  0  0  0
 16 31  1  0  0  0
 17 18  1  0  0  0
 17 98  1  0  0  0
 18 19  2  0  0  0
 18 99  1  0  0  0
 19 20  1  0  0  0
 19 24  1  0  0  0
 20 21  2  0  0  0
 20100  1  0  0  0
 21 23  1  0  0  0
 22 28  1  0  0  0
 22 32  2  0  0  0
 26 27  1  0  0  0
 28101  1  0  0  0
 28102  1  0  0  0
 29103  1  0  0  0
 29104  1  0  0  0
 33 34  1  0  0  0
 33 66  1  0  0  0
 33 70  2  0  0  0
 34 36  1  0  0  0
 34 59  1  0  0  0
 34105  1  0  0  0
 35 44  2  0  0  0
 35 45  1  0  0  0
 35 68  1  0  0  0
 36 56  1  0  0  0
 36106  1  0  0  0
 37 39  1  0  0  0
 37 47  1  0  0  0
 37 66  1  0  0  0
 37107  1  0  0  0
 38 43  2  0  0  0
 38 46  1  0  0  0
 38 47  1  0  0  0
 39 64  1  0  0  0
 39 67  2  0  0  0
 40 52  1  0  0  0
 40 53  2  0  0  0
 40 58  1  0  0  0
 41108  1  0  0  0
 41109  1  0  0  0
 41110  1  0  0  0
 41 48  1  0  0  0
 42 43  1  0  0  0
 42 66  1  0  0  0
 42111  1  0  0  0
 42112  1  0  0  0
 43 44  1  0  0  0
 44113  1  0  0  0
 45 46  2  0  0  0
 45114  1  0  0  0
 46115  1  0  0  0
 47116  1  0  0  0
 47117  1  0  0  0
 48 56  1  0  0  0
 48 65  1  0  0  0
 48118  1  0  0  0
 49 50  1  0  0  0
 49 53  1  0  0  0
 49 64  1  0  0  0
 49119  1  0  0  0
 50 51  1  0  0  0
 50120  1  0  0  0
 50121  1  0  0  0
 51 52  1  0  0  0
 51122  1  0  0  0
 51123  1  0  0  0
 52124  1  0  0  0
 52125  1  0  0  0
 53 54  1  0  0  0
 54 55  2  0  0  0
 54126  1  0  0  0
 55 57  1  0  0  0
 55127  1  0  0  0
 56 69  2  0  0  0
 57 58  2  0  0  0
 57128  1  0  0  0
 58129  1  0  0  0
 59 60  1  0  0  0
 59 61  1  0  0  0
 59 62  1  0  0  0
 60130  1  0  0  0
 60131  1  0  0  0
 60132  1  0  0  0
 61133  1  0  0  0
 61134  1  0  0  0
 61135  1  0  0  0
 62136  1  0  0  0
 62137  1  0  0  0
 62138  1  0  0  0
 63 65  1  0  0  0
 63139  1  0  0  0
 63140  1  0  0  0
 63141  1  0  0  0
 64142  1  0  0  0
 65143  1  0  0  0
 68 82  1  0  0  0
 71 73  2  0  0  0
 71 75  1  0  0  0
 71144  1  0  0  0
 72 75  2  0  0  0
 72 76  1  0  0  0
 72145  1  0  0  0
 73 74  1  0  0  0
 73 77  1  0  0  0
 74 76  2  0  0  0
 74 78  1  0  0  0
 75 83  1  0  0  0
 76 84  1  0  0  0
 77 78  1  0  0  0
 77146  1  0  0  0
 77147  1  0  0  0
 78 80  1  0  0  0
 78148  1  0  0  0
 79 84  1  0  0  0
 79149  1  0  0  0
 79150  1  0  0  0
 79151  1  0  0  0
 80 81  1  0  0  0
 80152  1  0  0  0
 80153  1  0  0  0
 81 82  1  0  0  0
 81154  1  0  0  0
 81155  1  0  0  0
 82156  1  0  0  0
 82157  1  0  0  0
 83158  1  0  0  0
M  ISO  4   1 100  68 101  82 101  83 100
M  END
> <chiral flag>
0

> <version>
0

> <s_m_source_file>
/data/baiqing/PycharmProjects/Reinvent-master-3.2/result/LINK_invent/BTK/process_docking_weight1_custom_product_contain_oxygen_bond_distance_aromatic_linkinvent_7_9_3/rearranged_h_0133.sdf

> <i_m_source_file_index>
28

> <r_mmod_Potential_Energy-OPLS-2005>
453.875152587891

> <r_mmod_Stretch_Energy-OPLS-2005>
92.2483978271484

> <r_mmod_Bend_Energy-OPLS-2005>
500.082550048828

> <r_mmod_Torsional_Energy-OPLS-2005>
251.49153137207

> <r_mmod_Improper_Torsional_Energy-OPLS-2005>
6.19134283065796

> <r_mmod_Van_der_Waal_Energy-OPLS-2005>
134.958343505859

> <r_mmod_Electrostatic_Energy-OPLS-2005>
-361.894104003906

> <r_mmod_Solvation_Energy-OPLS-2005>
-213.328887939453

> <b_mmod_Minimization_Converged-OPLS-2005>
0

> <r_mmod_RMS_Derivative-OPLS-2005>
0.318623244762421

$$$$
28
                    3D
 Structure written by MMmdl.
176185  0  0  1  0            999 V2000
  -30.6841  -14.5683   20.5021 C   0  0  0  0  0  0
  -30.4158  -12.3385   19.4601 C   0  0  0  0  0  0
  -29.5004  -12.4972   18.2280 C   0  0  0  0  0  0
  -28.0196  -12.3653   18.6314 C   0  0  0  0  0  0
  -27.6550  -13.2287   19.8692 C   0  0  2  0  0  0
  -28.7010  -13.0789   20.9978 C   0  0  0  0  0  0
  -25.2541  -13.8205   20.5721 C   0  0  0  0  0  0
  -24.1831  -13.0465   20.9228 C   0  0  0  0  0  0
  -24.6420  -11.6939   20.8781 C   0  0  0  0  0  0
  -23.9105  -10.4308   21.0431 C   0  0  0  0  0  0
  -24.3653   -9.4202   21.9199 C   0  0  0  0  0  0
  -23.6314   -8.2239   22.0771 C   0  0  0  0  0  0
  -22.4291   -8.0292   21.3552 C   0  0  0  0  0  0
  -21.9948   -9.0275   20.4644 C   0  0  0  0  0  0
  -22.7285  -10.2156   20.3065 C   0  0  0  0  0  0
  -21.6854   -6.0755   22.5277 C   0  0  0  0  0  0
  -21.4025   -6.5661   23.8217 C   0  0  0  0  0  0
  -21.3662   -5.6809   24.9171 C   0  0  0  0  0  0
  -21.6046   -4.3072   24.7203 C   0  0  0  0  0  0
  -21.8829   -3.8157   23.4327 C   0  0  0  0  0  0
  -21.9201   -4.6981   22.3392 C   0  0  0  0  0  0
  -22.7839  -13.5231   21.1867 C   0  0  0  0  0  0
  -22.1661   -4.2181   21.0970 F   0  0  0  0  0  0
  -21.5625   -3.4556   25.7707 F   0  0  0  0  0  0
  -30.0227  -13.3749   20.4347 N   0  0  0  0  0  0
  -26.3015  -12.9430   20.3387 N   0  0  0  0  0  0
  -25.9356  -11.6564   20.5792 N   0  0  0  0  0  0
  -22.0505  -12.8209   22.0415 N   0  0  0  0  0  0
  -25.4193  -15.1945   20.4110 N   0  0  0  0  0  0
  -31.8444  -14.6587   20.0948 O   0  0  0  0  0  0
  -21.6632   -6.8902   21.4248 O   0  0  0  0  0  0
  -22.3501  -14.5516   20.6679 O   0  0  0  0  0  0
  -24.6197  -31.8646   23.2051 C   0  0  0  0  0  0
  -25.9061  -32.4807   23.8377 C   0  0  1  0  0  0
  -27.2319  -27.3697   20.1255 C   0  0  0  0  0  0
  -25.5902  -33.8602   24.2309 N   0  0  0  0  0  0
  -23.4129  -30.4842   21.5472 C   0  0  2  0  0  0
  -24.8611  -28.9358   20.1213 C   0  0  0  0  0  0
  -22.7440  -29.4633   22.4969 C   0  0  0  0  0  0
  -18.0278  -28.1378   22.8476 C   0  0  0  0  0  0
  -24.1487  -36.7305   23.2637 C   0  0  0  0  0  0
  -25.9467  -30.8092   21.3694 C   0  0  0  0  0  0
  -26.0243  -29.4377   20.7195 C   0  0  0  0  0  0
  -27.2162  -28.6650   20.7117 C   0  0  0  0  0  0
  -26.0526  -26.8990   19.5118 C   0  0  0  0  0  0
  -24.8728  -27.6690   19.5118 C   0  0  0  0  0  0
  -23.6272  -29.8130   20.1641 C   0  0  0  0  0  0
  -25.4112  -36.3104   24.0338 C   0  0  1  0  0  0
  -20.5870  -28.3678   23.1302 C   0  0  2  0  0  0
  -20.6767  -26.9403   22.5423 C   0  0  0  0  0  0
  -19.5760  -26.6380   21.5207 C   0  0  0  0  0  0
  -18.1933  -26.7931   22.1598 C   0  0  0  0  0  0
  -19.1526  -28.8840   23.2891 C   0  0  0  0  0  0
  -18.9454  -30.1445   23.8906 C   0  0  0  0  0  0
  -17.6458  -30.6586   24.0564 C   0  0  0  0  0  0
  -25.9048  -34.9473   23.5127 C   0  0  0  0  0  0
  -16.5348  -29.9091   23.6321 C   0  0  0  0  0  0
  -16.7266  -28.6502   23.0349 C   0  0  0  0  0  0
  -26.4466  -31.6591   25.0719 C   0  0  0  0  0  0
  -25.3717  -31.3711   26.1463 C   0  0  0  0  0  0
  -27.0296  -30.3027   24.6123 C   0  0  0  0  0  0
  -27.6040  -32.4313   25.7475 C   0  0  0  0  0  0
  -27.5603  -37.1789   24.8445 C   0  0  0  0  0  0
  -21.4162  -29.3036   22.3696 N   0  0  0  0  0  0
  -26.4290  -37.3801   23.9430 N   0  0  0  0  0  0
  -24.6778  -31.0688   22.0985 N   0  0  0  0  0  0
  -23.4178  -28.8198   23.3054 O   0  0  0  0  0  0
  -28.3783  -26.5884   20.0980 O   0  0  0  0  0  0
  -26.5624  -34.8923   22.4696 O   0  0  0  0  0  0
  -23.5373  -32.1411   23.7404 O   0  0  0  0  0  0
  -30.4571  -20.9587   19.8233 C   0  0  0  0  0  0
  -30.6663  -19.5814   19.5617 C   0  0  0  0  0  0
  -28.9531  -19.0128   21.1373 C   0  0  0  0  0  0
  -29.5363  -21.4271   20.7946 C   0  0  0  0  0  0
  -29.9388  -18.5706   20.2310 C   0  0  0  0  0  0
  -28.7447  -20.3993   21.4223 C   0  0  0  0  0  0
  -32.5033  -24.6199   21.2425 C   0  0  0  0  0  0
  -31.4305  -24.5030   22.3336 C   0  0  0  0  0  0
  -31.9887  -24.3377   19.8283 C   0  0  0  0  0  0
  -30.6639  -23.1658   22.3168 C   0  0  0  0  0  0
  -30.5690  -24.8649   19.5712 C   0  0  0  0  0  0
  -29.5484  -22.9491   21.2470 C   0  0  1  0  0  0
  -29.3220  -24.1491   20.1981 C   0  0  1  0  0  0
  -26.9528  -20.3783   24.8766 C   0  0  0  0  0  0
  -30.2093  -17.0764   19.8789 C   0  0  0  0  0  0
  -27.6444  -20.6833   22.4379 C   0  0  0  0  0  0
  -29.9950  -15.9148   20.9283 C   0  0  0  0  0  0
  -28.3367  -25.2763   20.7449 C   0  0  0  0  0  0
  -28.1194  -20.5035   23.8885 C   0  0  0  0  0  0
  -31.4641  -12.4073   19.1671 H   0  0  0  0  0  0
  -30.2948  -11.3465   19.9011 H   0  0  0  0  0  0
  -29.7458  -11.7506   17.4719 H   0  0  0  0  0  0
  -29.6683  -13.4703   17.7654 H   0  0  0  0  0  0
  -27.8279  -11.3130   18.8445 H   0  0  0  0  0  0
  -27.3747  -12.6240   17.7905 H   0  0  0  0  0  0
  -27.6772  -14.2654   19.5371 H   0  0  0  0  0  0
  -28.6883  -12.0654   21.3998 H   0  0  0  0  0  0
  -28.4675  -13.7308   21.8396 H   0  0  0  0  0  0
  -25.2817   -9.5676   22.4761 H   0  0  0  0  0  0
  -24.0027   -7.4646   22.7517 H   0  0  0  0  0  0
  -21.0881   -8.8820   19.8931 H   0  0  0  0  0  0
  -22.3768  -10.9716   19.6169 H   0  0  0  0  0  0
  -21.2025   -7.6177   23.9715 H   0  0  0  0  0  0
  -21.1471   -6.0545   25.9088 H   0  0  0  0  0  0
  -22.0598   -2.7622   23.2810 H   0  0  0  0  0  0
  -22.4151  -11.9832   22.4713 H   0  0  0  0  0  0
  -21.1131  -13.1181   22.2647 H   0  0  0  0  0  0
  -24.6466  -15.8440   20.5116 H   0  0  0  0  0  0
  -26.2676  -15.6383   20.0845 H   0  0  0  0  0  0
  -26.7126  -32.5507   23.1131 H   0  0  0  0  0  0
  -25.0031  -33.9760   25.0446 H   0  0  0  0  0  0
  -22.7039  -31.3019   21.4025 H   0  0  0  0  0  0
  -23.3786  -35.9594   23.3227 H   0  0  0  0  0  0
  -24.3596  -36.9007   22.2068 H   0  0  0  0  0  0
  -23.7174  -37.6456   23.6706 H   0  0  0  0  0  0
  -26.0694  -31.5705   20.5986 H   0  0  0  0  0  0
  -26.8295  -30.8612   21.9940 H   0  0  0  0  0  0
  -28.1156  -29.0477   21.1730 H   0  0  0  0  0  0
  -26.0488  -25.9320   19.0284 H   0  0  0  0  0  0
  -23.9795  -27.2774   19.0439 H   0  0  0  0  0  0
  -23.7456  -30.5869   19.4037 H   0  0  0  0  0  0
  -22.7479  -29.2386   19.8661 H   0  0  0  0  0  0
  -25.1276  -36.1966   25.0828 H   0  0  0  0  0  0
  -20.9959  -28.3259   24.1427 H   0  0  0  0  0  0
  -20.5657  -26.2291   23.3623 H   0  0  0  0  0  0
  -21.6651  -26.7440   22.1244 H   0  0  0  0  0  0
  -19.6935  -25.6299   21.1233 H   0  0  0  0  0  0
  -19.6721  -27.3186   20.6739 H   0  0  0  0  0  0
  -17.4224  -26.6704   21.3973 H   0  0  0  0  0  0
  -18.0302  -26.0056   22.8965 H   0  0  0  0  0  0
  -19.7937  -30.7236   24.2300 H   0  0  0  0  0  0
  -17.5025  -31.6267   24.5171 H   0  0  0  0  0  0
  -15.5349  -30.2998   23.7639 H   0  0  0  0  0  0
  -15.8673  -28.0821   22.7064 H   0  0  0  0  0  0
  -24.5904  -30.7034   25.7809 H   0  0  0  0  0  0
  -24.8880  -32.2860   26.4890 H   0  0  0  0  0  0
  -25.8064  -30.8905   27.0236 H   0  0  0  0  0  0
  -26.2845  -29.6794   24.1164 H   0  0  0  0  0  0
  -27.4035  -29.7264   25.4594 H   0  0  0  0  0  0
  -27.8697  -30.4341   23.9302 H   0  0  0  0  0  0
  -27.2669  -33.3615   26.2064 H   0  0  0  0  0  0
  -28.3831  -32.6872   25.0281 H   0  0  0  0  0  0
  -28.0724  -31.8428   26.5373 H   0  0  0  0  0  0
  -28.2560  -38.0150   24.7608 H   0  0  0  0  0  0
  -28.1159  -36.2688   24.6117 H   0  0  0  0  0  0
  -27.2344  -37.1267   25.8849 H   0  0  0  0  0  0
  -20.9334  -29.8747   21.6902 H   0  0  0  0  0  0
  -26.0178  -38.2866   24.1500 H   0  0  0  0  0  0
  -31.0545  -21.6496   19.2621 H   0  0  0  0  0  0
  -31.4100  -19.3039   18.8273 H   0  0  0  0  0  0
  -28.3442  -18.2718   21.6380 H   0  0  0  0  0  0
  -33.3303  -23.9422   21.4561 H   0  0  0  0  0  0
  -32.9296  -25.6232   21.2767 H   0  0  0  0  0  0
  -30.7518  -25.3526   22.2907 H   0  0  0  0  0  0
  -31.9329  -24.6037   23.2965 H   0  0  0  0  0  0
  -32.0919  -23.2885   19.5992 H   0  0  0  0  0  0
  -32.6628  -24.8291   19.1250 H   0  0  0  0  0  0
  -30.2103  -23.0338   23.2998 H   0  0  0  0  0  0
  -31.4015  -22.3652   22.2472 H   0  0  0  0  0  0
  -30.4080  -24.9286   18.4937 H   0  0  0  0  0  0
  -30.6087  -25.9051   19.8928 H   0  0  0  0  0  0
  -28.6438  -23.0396   21.8383 H   0  0  0  0  0  0
  -28.7841  -23.6994   19.3630 H   0  0  0  0  0  0
  -27.3162  -20.2268   25.8931 H   0  0  0  0  0  0
  -26.3178  -19.5270   24.6278 H   0  0  0  0  0  0
  -26.3289  -21.2717   24.8751 H   0  0  0  0  0  0
  -31.2383  -17.0361   19.5238 H   0  0  0  0  0  0
  -29.6066  -16.8445   19.0004 H   0  0  0  0  0  0
  -26.8420  -19.9696   22.2406 H   0  0  0  0  0  0
  -27.1719  -21.6507   22.2863 H   0  0  0  0  0  0
  -28.9304  -15.7851   21.1107 H   0  0  0  0  0  0
  -30.4401  -16.2015   21.8810 H   0  0  0  0  0  0
  -28.5765  -25.4708   21.7901 H   0  0  0  0  0  0
  -27.3216  -24.8786   20.7685 H   0  0  0  0  0  0
  -28.7204  -19.5968   23.9669 H   0  0  0  0  0  0
  -28.7723  -21.3279   24.1722 H   0  0  0  0  0  0
  1 25  1  0  0  0
  1 30  2  0  0  0
  1 87  1  0  0  0
  2  3  1  0  0  0
  2 25  1  0  0  0
  2 90  1  0  0  0
  2 91  1  0  0  0
  3  4  1  0  0  0
  3 92  1  0  0  0
  3 93  1  0  0  0
  4  5  1  0  0  0
  4 94  1  0  0  0
  4 95  1  0  0  0
  5  6  1  0  0  0
  5 26  1  0  0  0
  5 96  1  0  0  0
  6 25  1  0  0  0
  6 97  1  0  0  0
  6 98  1  0  0  0
  7  8  2  0  0  0
  7 26  1  0  0  0
  7 29  1  0  0  0
  8  9  1  0  0  0
  8 22  1  0  0  0
  9 10  1  0  0  0
  9 27  2  0  0  0
 10 11  2  0  0  0
 10 15  1  0  0  0
 11 12  1  0  0  0
 11 99  1  0  0  0
 12 13  2  0  0  0
 12100  1  0  0  0
 13 14  1  0  0  0
 13 31  1  0  0  0
 14 15  2  0  0  0
 14101  1  0  0  0
 15102  1  0  0  0
 16 17  2  0  0  0
 16 21  1  0  0  0
 16 31  1  0  0  0
 17 18  1  0  0  0
 17103  1  0  0  0
 18 19  2  0  0  0
 18104  1  0  0  0
 19 20  1  0  0  0
 19 24  1  0  0  0
 20 21  2  0  0  0
 20105  1  0  0  0
 21 23  1  0  0  0
 22 28  1  0  0  0
 22 32  2  0  0  0
 26 27  1  0  0  0
 28106  1  0  0  0
 28107  1  0  0  0
 29108  1  0  0  0
 29109  1  0  0  0
 33 34  1  0  0  0
 33 66  1  0  0  0
 33 70  2  0  0  0
 34 36  1  0  0  0
 34 59  1  0  0  0
 34110  1  0  0  0
 35 44  2  0  0  0
 35 45  1  0  0  0
 35 68  1  0  0  0
 36 56  1  0  0  0
 36111  1  0  0  0
 37 39  1  0  0  0
 37 47  1  0  0  0
 37 66  1  0  0  0
 37112  1  0  0  0
 38 43  2  0  0  0
 38 46  1  0  0  0
 38 47  1  0  0  0
 39 64  1  0  0  0
 39 67  2  0  0  0
 40 52  1  0  0  0
 40 53  2  0  0  0
 40 58  1  0  0  0
 41113  1  0  0  0
 41114  1  0  0  0
 41115  1  0  0  0
 41 48  1  0  0  0
 42 43  1  0  0  0
 42 66  1  0  0  0
 42116  1  0  0  0
 42117  1  0  0  0
 43 44  1  0  0  0
 44118  1  0  0  0
 45 46  2  0  0  0
 45119  1  0  0  0
 46120  1  0  0  0
 47121  1  0  0  0
 47122  1  0  0  0
 48 56  1  0  0  0
 48 65  1  0  0  0
 48123  1  0  0  0
 49 50  1  0  0  0
 49 53  1  0  0  0
 49 64  1  0  0  0
 49124  1  0  0  0
 50 51  1  0  0  0
 50125  1  0  0  0
 50126  1  0  0  0
 51 52  1  0  0  0
 51127  1  0  0  0
 51128  1  0  0  0
 52129  1  0  0  0
 52130  1  0  0  0
 53 54  1  0  0  0
 54 55  2  0  0  0
 54131  1  0  0  0
 55 57  1  0  0  0
 55132  1  0  0  0
 56 69  2  0  0  0
 57 58  2  0  0  0
 57133  1  0  0  0
 58134  1  0  0  0
 59 60  1  0  0  0
 59 61  1  0  0  0
 59 62  1  0  0  0
 60135  1  0  0  0
 60136  1  0  0  0
 60137  1  0  0  0
 61138  1  0  0  0
 61139  1  0  0  0
 61140  1  0  0  0
 62141  1  0  0  0
 62142  1  0  0  0
 62143  1  0  0  0
 63 65  1  0  0  0
 63144  1  0  0  0
 63145  1  0  0  0
 63146  1  0  0  0
 64147  1  0  0  0
 65148  1  0  0  0
 68 88  1  0  0  0
 71 72  2  0  0  0
 71 74  1  0  0  0
 71149  1  0  0  0
 72 75  1  0  0  0
 72150  1  0  0  0
 73 75  2  0  0  0
 73 76  1  0  0  0
 73151  1  0  0  0
 74 76  2  0  0  0
 74 82  1  0  0  0
 75 85  1  0  0  0
 76 86  1  0  0  0
 77 78  1  0  0  0
 77 79  1  0  0  0
 77152  1  0  0  0
 77153  1  0  0  0
 78 80  1  0  0  0
 78154  1  0  0  0
 78155  1  0  0  0
 79 81  1  0  0  0
 79156  1  0  0  0
 79157  1  0  0  0
 80 82  1  0  0  0
 80158  1  0  0  0
 80159  1  0  0  0
 81 83  1  0  0  0
 81160  1  0  0  0
 81161  1  0  0  0
 82 83  1  0  0  0
 82162  1  0  0  0
 83 88  1  0  0  0
 83163  1  0  0  0
 84 89  1  0  0  0
 84164  1  0  0  0
 84165  1  0  0  0
 84166  1  0  0  0
 85 87  1  0  0  0
 85167  1  0  0  0
 85168  1  0  0  0
 86 89  1  0  0  0
 86169  1  0  0  0
 86170  1  0  0  0
 87171  1  0  0  0
 87172  1  0  0  0
 88173  1  0  0  0
 88174  1  0  0  0
 89175  1  0  0  0
 89176  1  0  0  0
M  ISO  4   1 100  68 101  87 100  88 101
M  END
> <chiral flag>
0

> <version>
0

> <s_m_source_file>
/data/baiqing/PycharmProjects/Reinvent-master-3.2/result/LINK_invent/BTK/process_docking_weight1_custom_product_contain_oxygen_bond_distance_aromatic_linkinvent_7_9_3/rearranged_h_0133.sdf

> <i_m_source_file_index>
29

> <r_mmod_Potential_Energy-OPLS-2005>
183.774047851562

> <r_mmod_Stretch_Energy-OPLS-2005>
76.7486801147461

> <r_mmod_Bend_Energy-OPLS-2005>
167.459381103516

> <r_mmod_Torsional_Energy-OPLS-2005>
271.511077880859

> <r_mmod_Improper_Torsional_Energy-OPLS-2005>
4.08990144729614

> <r_mmod_Van_der_Waal_Energy-OPLS-2005>
151.154495239258

> <r_mmod_Electrostatic_Energy-OPLS-2005>
-336.139923095703

> <r_mmod_Solvation_Energy-OPLS-2005>
-179.190139770508

> <b_mmod_Minimization_Converged-OPLS-2005>
0

> <r_mmod_RMS_Derivative-OPLS-2005>
2.97071957588196

$$$$
29
                    3D
 Structure written by MMmdl.
165173  0  0  1  0            999 V2000
  -30.7306  -14.4075   20.5157 C   0  0  0  0  0  0
  -30.4088  -12.2455   19.4296 C   0  0  0  0  0  0
  -29.4956  -12.4785   18.2080 C   0  0  0  0  0  0
  -28.0125  -12.3555   18.6146 C   0  0  0  0  0  0
  -27.6590  -13.2012   19.8672 C   0  0  2  0  0  0
  -28.6982  -12.9959   20.9923 C   0  0  0  0  0  0
  -25.2601  -13.8145   20.5669 C   0  0  0  0  0  0
  -24.1846  -13.0426   20.9168 C   0  0  0  0  0  0
  -24.6392  -11.6897   20.8730 C   0  0  0  0  0  0
  -23.9063  -10.4288   21.0420 C   0  0  0  0  0  0
  -24.3617   -9.4204   21.9197 C   0  0  0  0  0  0
  -23.6292   -8.2238   22.0764 C   0  0  0  0  0  0
  -22.4269   -8.0278   21.3553 C   0  0  0  0  0  0
  -21.9904   -9.0255   20.4655 C   0  0  0  0  0  0
  -22.7235  -10.2136   20.3067 C   0  0  0  0  0  0
  -21.6845   -6.0732   22.5285 C   0  0  0  0  0  0
  -21.4013   -6.5644   23.8213 C   0  0  0  0  0  0
  -21.3660   -5.6804   24.9180 C   0  0  0  0  0  0
  -21.6045   -4.3065   24.7236 C   0  0  0  0  0  0
  -21.8811   -3.8149   23.4361 C   0  0  0  0  0  0
  -21.9189   -4.6963   22.3411 C   0  0  0  0  0  0
  -22.7874  -13.5230   21.1850 C   0  0  0  0  0  0
  -22.1656   -4.2144   21.0988 F   0  0  0  0  0  0
  -21.5632   -3.4551   25.7753 F   0  0  0  0  0  0
  -30.0386  -13.2430   20.4406 N   0  0  0  0  0  0
  -26.3014  -12.9304   20.3319 N   0  0  0  0  0  0
  -25.9308  -11.6472   20.5729 N   0  0  0  0  0  0
  -22.0525  -12.8217   22.0412 N   0  0  0  0  0  0
  -25.4363  -15.1859   20.4101 N   0  0  0  0  0  0
  -31.9080  -14.5305   20.1725 O   0  0  0  0  0  0
  -21.6638   -6.8874   21.4242 O   0  0  0  0  0  0
  -22.3559  -14.5539   20.6710 O   0  0  0  0  0  0
  -24.6103  -31.8714   23.2123 C   0  0  0  0  0  0
  -25.9014  -32.4837   23.8408 C   0  0  1  0  0  0
  -27.2387  -27.4701   20.0827 C   0  0  0  0  0  0
  -25.5892  -33.8635   24.2344 N   0  0  0  0  0  0
  -23.3955  -30.4948   21.5532 C   0  0  2  0  0  0
  -24.8401  -28.9621   20.1192 C   0  0  0  0  0  0
  -22.7382  -29.4672   22.5016 C   0  0  0  0  0  0
  -18.0265  -28.1362   22.8507 C   0  0  0  0  0  0
  -24.1492  -36.7323   23.2634 C   0  0  0  0  0  0
  -25.9203  -30.8457   21.3608 C   0  0  0  0  0  0
  -25.9971  -29.4813   20.7110 C   0  0  0  0  0  0
  -27.1958  -28.7407   20.6933 C   0  0  0  0  0  0
  -26.0582  -26.9502   19.4986 C   0  0  0  0  0  0
  -24.8633  -27.6932   19.5152 C   0  0  0  0  0  0
  -23.6012  -29.8253   20.1681 C   0  0  0  0  0  0
  -25.4108  -36.3122   24.0339 C   0  0  1  0  0  0
  -20.5853  -28.3647   23.1332 C   0  0  2  0  0  0
  -20.6765  -26.9399   22.5395 C   0  0  0  0  0  0
  -19.5724  -26.6384   21.5210 C   0  0  0  0  0  0
  -18.1917  -26.7900   22.1654 C   0  0  0  0  0  0
  -19.1514  -28.8822   23.2914 C   0  0  0  0  0  0
  -18.9446  -30.1436   23.8910 C   0  0  0  0  0  0
  -17.6450  -30.6583   24.0555 C   0  0  0  0  0  0
  -25.9034  -34.9487   23.5141 C   0  0  0  0  0  0
  -16.5339  -29.9084   23.6324 C   0  0  0  0  0  0
  -16.7254  -28.6493   23.0357 C   0  0  0  0  0  0
  -26.4461  -31.6595   25.0716 C   0  0  0  0  0  0
  -25.3748  -31.3677   26.1478 C   0  0  0  0  0  0
  -27.0286  -30.3051   24.6047 C   0  0  0  0  0  0
  -27.6050  -32.4294   25.7478 C   0  0  0  0  0  0
  -27.5582  -37.1815   24.8469 C   0  0  0  0  0  0
  -21.4114  -29.3032   22.3756 N   0  0  0  0  0  0
  -26.4297  -37.3805   23.9413 N   0  0  0  0  0  0
  -24.6599  -31.0842   22.1009 N   0  0  0  0  0  0
  -23.4173  -28.8214   23.3040 O   0  0  0  0  0  0
  -28.4439  -26.8080   20.0765 O   0  0  0  0  0  0
  -26.5592  -34.8930   22.4701 O   0  0  0  0  0  0
  -23.5308  -32.1454   23.7542 O   0  0  0  0  0  0
  -29.9724  -15.6329   20.6252 C   0  0  0  0  0  0
  -29.5845  -16.7475   20.3156 C   0  0  0  0  0  0
  -30.8562  -20.5642   15.7516 C   0  0  0  0  0  0
  -30.8207  -20.8178   18.5467 C   0  0  0  0  0  0
  -30.7485  -19.4094   16.5530 C   0  0  0  0  0  0
  -30.9552  -21.8418   16.3372 C   0  0  0  0  0  0
  -30.7586  -19.5369   17.9650 C   0  0  0  0  0  0
  -30.9078  -21.9756   17.7417 C   0  0  0  0  0  0
  -29.9079  -24.9468   19.5943 C   0  0  0  0  0  0
  -30.6473  -18.0539   15.8716 C   0  0  0  0  0  0
  -29.7427  -23.7292   15.1544 C   0  0  0  0  0  0
  -29.4570  -18.0369   19.6190 C   0  0  0  0  0  0
  -31.0925  -23.0645   15.4453 C   0  0  0  0  0  0
  -30.7831  -18.3274   18.8858 C   0  0  0  0  0  0
  -28.4708  -25.4669   19.6011 C   0  0  0  0  0  0
  -30.0800  -23.4474   19.3805 C   0  0  0  0  0  0
  -30.8826  -25.6942   19.7477 O   0  0  0  0  0  0
  -30.9634  -23.2329   18.2869 O   0  0  0  0  0  0
  -31.4597  -12.3035   19.1398 H   0  0  0  0  0  0
  -30.2650  -11.2395   19.8274 H   0  0  0  0  0  0
  -29.7268  -11.7594   17.4214 H   0  0  0  0  0  0
  -29.6834  -13.4665   17.7848 H   0  0  0  0  0  0
  -27.8114  -11.3022   18.8144 H   0  0  0  0  0  0
  -27.3684  -12.6346   17.7802 H   0  0  0  0  0  0
  -27.6981  -14.2444   19.5568 H   0  0  0  0  0  0
  -28.6488  -11.9760   21.3777 H   0  0  0  0  0  0
  -28.4877  -13.6467   21.8422 H   0  0  0  0  0  0
  -25.2766   -9.5671   22.4771 H   0  0  0  0  0  0
  -24.0002   -7.4620   22.7471 H   0  0  0  0  0  0
  -21.0837   -8.8776   19.8950 H   0  0  0  0  0  0
  -22.3702  -10.9681   19.6176 H   0  0  0  0  0  0
  -21.2006   -7.6155   23.9712 H   0  0  0  0  0  0
  -21.1492   -6.0544   25.9081 H   0  0  0  0  0  0
  -22.0587   -2.7609   23.2873 H   0  0  0  0  0  0
  -22.4141  -11.9878   22.4803 H   0  0  0  0  0  0
  -21.1142  -13.1239   22.2618 H   0  0  0  0  0  0
  -24.6795  -15.8490   20.5365 H   0  0  0  0  0  0
  -26.2995  -15.6228   20.1123 H   0  0  0  0  0  0
  -26.7084  -32.5567   23.1175 H   0  0  0  0  0  0
  -25.0042  -33.9806   25.0487 H   0  0  0  0  0  0
  -22.6822  -31.3100   21.4159 H   0  0  0  0  0  0
  -23.3749  -35.9663   23.3306 H   0  0  0  0  0  0
  -24.3589  -36.8923   22.2048 H   0  0  0  0  0  0
  -23.7248  -37.6535   23.6634 H   0  0  0  0  0  0
  -26.0275  -31.6113   20.5911 H   0  0  0  0  0  0
  -26.8105  -30.9005   21.9751 H   0  0  0  0  0  0
  -28.0926  -29.1430   21.1441 H   0  0  0  0  0  0
  -26.0366  -25.9830   19.0184 H   0  0  0  0  0  0
  -23.9710  -27.2859   19.0598 H   0  0  0  0  0  0
  -23.7075  -30.5985   19.4066 H   0  0  0  0  0  0
  -22.7262  -29.2425   19.8749 H   0  0  0  0  0  0
  -25.1279  -36.1994   25.0830 H   0  0  0  0  0  0
  -20.9940  -28.3194   24.1454 H   0  0  0  0  0  0
  -20.5713  -26.2243   23.3564 H   0  0  0  0  0  0
  -21.6630  -26.7480   22.1151 H   0  0  0  0  0  0
  -19.6890  -25.6304   21.1218 H   0  0  0  0  0  0
  -19.6634  -27.3216   20.6756 H   0  0  0  0  0  0
  -17.4163  -26.6611   21.4087 H   0  0  0  0  0  0
  -18.0364  -26.0052   22.9072 H   0  0  0  0  0  0
  -19.7924  -30.7248   24.2280 H   0  0  0  0  0  0
  -17.5009  -31.6272   24.5138 H   0  0  0  0  0  0
  -15.5342  -30.2994   23.7634 H   0  0  0  0  0  0
  -15.8651  -28.0815   22.7073 H   0  0  0  0  0  0
  -24.5828  -30.7157   25.7772 H   0  0  0  0  0  0
  -24.9067  -32.2843   26.5082 H   0  0  0  0  0  0
  -25.8096  -30.8670   27.0138 H   0  0  0  0  0  0
  -26.2813  -29.6810   24.1131 H   0  0  0  0  0  0
  -27.4119  -29.7275   25.4468 H   0  0  0  0  0  0
  -27.8621  -30.4388   23.9145 H   0  0  0  0  0  0
  -27.2692  -33.3603   26.2058 H   0  0  0  0  0  0
  -28.3868  -32.6826   25.0305 H   0  0  0  0  0  0
  -28.0699  -31.8403   26.5393 H   0  0  0  0  0  0
  -28.2582  -38.0132   24.7560 H   0  0  0  0  0  0
  -28.1099  -36.2665   24.6256 H   0  0  0  0  0  0
  -27.2294  -37.1410   25.8868 H   0  0  0  0  0  0
  -20.9259  -29.8761   21.6996 H   0  0  0  0  0  0
  -26.0187  -38.2884   24.1416 H   0  0  0  0  0  0
  -30.8719  -20.4710   14.6741 H   0  0  0  0  0  0
  -30.8342  -20.8968   19.6245 H   0  0  0  0  0  0
  -30.5156  -18.1542   14.7935 H   0  0  0  0  0  0
  -29.7943  -17.4922   16.2546 H   0  0  0  0  0  0
  -31.5520  -17.4695   16.0392 H   0  0  0  0  0  0
  -29.8722  -24.6038   14.5158 H   0  0  0  0  0  0
  -29.2554  -24.0566   16.0729 H   0  0  0  0  0  0
  -29.0676  -23.0415   14.6449 H   0  0  0  0  0  0
  -29.2105  -18.8175   20.3378 H   0  0  0  0  0  0
  -28.6310  -17.9560   18.9115 H   0  0  0  0  0  0
  -31.5676  -22.7748   14.5069 H   0  0  0  0  0  0
  -31.7690  -23.7812   15.9126 H   0  0  0  0  0  0
  -31.5730  -18.4873   19.6217 H   0  0  0  0  0  0
  -31.1059  -17.4487   18.3274 H   0  0  0  0  0  0
  -27.8507  -24.8292   20.2321 H   0  0  0  0  0  0
  -28.0934  -25.4140   18.5794 H   0  0  0  0  0  0
  -29.1075  -22.9956   19.1800 H   0  0  0  0  0  0
  -30.4803  -23.0005   20.2905 H   0  0  0  0  0  0
  1 25  1  0  0  0
  1 30  2  0  0  0
  1 71  1  0  0  0
  2  3  1  0  0  0
  2 25  1  0  0  0
  2 89  1  0  0  0
  2 90  1  0  0  0
  3  4  1  0  0  0
  3 91  1  0  0  0
  3 92  1  0  0  0
  4  5  1  0  0  0
  4 93  1  0  0  0
  4 94  1  0  0  0
  5  6  1  0  0  0
  5 26  1  0  0  0
  5 95  1  0  0  0
  6 25  1  0  0  0
  6 96  1  0  0  0
  6 97  1  0  0  0
  7  8  2  0  0  0
  7 26  1  0  0  0
  7 29  1  0  0  0
  8  9  1  0  0  0
  8 22  1  0  0  0
  9 10  1  0  0  0
  9 27  2  0  0  0
 10 11  2  0  0  0
 10 15  1  0  0  0
 11 12  1  0  0  0
 11 98  1  0  0  0
 12 13  2  0  0  0
 12 99  1  0  0  0
 13 14  1  0  0  0
 13 31  1  0  0  0
 14 15  2  0  0  0
 14100  1  0  0  0
 15101  1  0  0  0
 16 17  2  0  0  0
 16 21  1  0  0  0
 16 31  1  0  0  0
 17 18  1  0  0  0
 17102  1  0  0  0
 18 19  2  0  0  0
 18103  1  0  0  0
 19 20  1  0  0  0
 19 24  1  0  0  0
 20 21  2  0  0  0
 20104  1  0  0  0
 21 23  1  0  0  0
 22 28  1  0  0  0
 22 32  2  0  0  0
 26 27  1  0  0  0
 28105  1  0  0  0
 28106  1  0  0  0
 29107  1  0  0  0
 29108  1  0  0  0
 33 34  1  0  0  0
 33 66  1  0  0  0
 33 70  2  0  0  0
 34 36  1  0  0  0
 34 59  1  0  0  0
 34109  1  0  0  0
 35 44  2  0  0  0
 35 45  1  0  0  0
 35 68  1  0  0  0
 36 56  1  0  0  0
 36110  1  0  0  0
 37 39  1  0  0  0
 37 47  1  0  0  0
 37 66  1  0  0  0
 37111  1  0  0  0
 38 43  2  0  0  0
 38 46  1  0  0  0
 38 47  1  0  0  0
 39 64  1  0  0  0
 39 67  2  0  0  0
 40 52  1  0  0  0
 40 53  2  0  0  0
 40 58  1  0  0  0
 41112  1  0  0  0
 41113  1  0  0  0
 41114  1  0  0  0
 41 48  1  0  0  0
 42 43  1  0  0  0
 42 66  1  0  0  0
 42115  1  0  0  0
 42116  1  0  0  0
 43 44  1  0  0  0
 44117  1  0  0  0
 45 46  2  0  0  0
 45118  1  0  0  0
 46119  1  0  0  0
 47120  1  0  0  0
 47121  1  0  0  0
 48 56  1  0  0  0
 48 65  1  0  0  0
 48122  1  0  0  0
 49 50  1  0  0  0
 49 53  1  0  0  0
 49 64  1  0  0  0
 49123  1  0  0  0
 50 51  1  0  0  0
 50124  1  0  0  0
 50125  1  0  0  0
 51 52  1  0  0  0
 51126  1  0  0  0
 51127  1  0  0  0
 52128  1  0  0  0
 52129  1  0  0  0
 53 54  1  0  0  0
 54 55  2  0  0  0
 54130  1  0  0  0
 55 57  1  0  0  0
 55131  1  0  0  0
 56 69  2  0  0  0
 57 58  2  0  0  0
 57132  1  0  0  0
 58133  1  0  0  0
 59 60  1  0  0  0
 59 61  1  0  0  0
 59 62  1  0  0  0
 60134  1  0  0  0
 60135  1  0  0  0
 60136  1  0  0  0
 61137  1  0  0  0
 61138  1  0  0  0
 61139  1  0  0  0
 62140  1  0  0  0
 62141  1  0  0  0
 62142  1  0  0  0
 63 65  1  0  0  0
 63143  1  0  0  0
 63144  1  0  0  0
 63145  1  0  0  0
 64146  1  0  0  0
 65147  1  0  0  0
 68 85  1  0  0  0
 71 72  3  0  0  0
 72 82  1  0  0  0
 73 75  2  0  0  0
 73 76  1  0  0  0
 73148  1  0  0  0
 74 77  2  0  0  0
 74 78  1  0  0  0
 74149  1  0  0  0
 75 77  1  0  0  0
 75 80  1  0  0  0
 76 78  2  0  0  0
 76 83  1  0  0  0
 77 84  1  0  0  0
 78 88  1  0  0  0
 79 85  1  0  0  0
 79 86  1  0  0  0
 79 87  2  0  0  0
 80150  1  0  0  0
 80151  1  0  0  0
 80152  1  0  0  0
 81 83  1  0  0  0
 81153  1  0  0  0
 81154  1  0  0  0
 81155  1  0  0  0
 82 84  1  0  0  0
 82156  1  0  0  0
 82157  1  0  0  0
 83158  1  0  0  0
 83159  1  0  0  0
 84160  1  0  0  0
 84161  1  0  0  0
 85162  1  0  0  0
 85163  1  0  0  0
 86 88  1  0  0  0
 86164  1  0  0  0
 86165  1  0  0  0
M  ISO  4   1 100  68 101  71 100  85 101
M  END
> <chiral flag>
0

> <version>
0

> <s_m_source_file>
/data/baiqing/PycharmProjects/Reinvent-master-3.2/result/LINK_invent/BTK/process_docking_weight1_custom_product_contain_oxygen_bond_distance_aromatic_linkinvent_7_9_3/rearranged_h_0133.sdf

> <i_m_source_file_index>
30

> <r_mmod_Potential_Energy-OPLS-2005>
23.793815612793

> <r_mmod_Stretch_Energy-OPLS-2005>
31.0355701446533

> <r_mmod_Bend_Energy-OPLS-2005>
121.708885192871

> <r_mmod_Torsional_Energy-OPLS-2005>
197.520965576172

> <r_mmod_Improper_Torsional_Energy-OPLS-2005>
9.83548259735107

> <r_mmod_Van_der_Waal_Energy-OPLS-2005>
152.526397705078

> <r_mmod_Electrostatic_Energy-OPLS-2005>
-278.4853515625

> <r_mmod_Solvation_Energy-OPLS-2005>
-225.980041503906

> <b_mmod_Minimization_Converged-OPLS-2005>
0

> <r_mmod_RMS_Derivative-OPLS-2005>
1.34589099884033

$$$$
30
                    3D
 Structure written by MMmdl.
172180  0  0  1  0            999 V2000
  -30.7182  -14.4101   20.6559 C   0  0  0  0  0  0
  -30.4325  -12.3080   19.3825 C   0  0  0  0  0  0
  -29.4836  -12.5324   18.1869 C   0  0  0  0  0  0
  -28.0071  -12.3847   18.6070 C   0  0  0  0  0  0
  -27.6714  -13.1980   19.8851 C   0  0  2  0  0  0
  -28.7188  -12.9238   20.9896 C   0  0  0  0  0  0
  -25.2651  -13.8147   20.5700 C   0  0  0  0  0  0
  -24.1871  -13.0424   20.9170 C   0  0  0  0  0  0
  -24.6414  -11.6891   20.8730 C   0  0  0  0  0  0
  -23.9057  -10.4284   21.0391 C   0  0  0  0  0  0
  -24.3607   -9.4202   21.9176 C   0  0  0  0  0  0
  -23.6289   -8.2234   22.0747 C   0  0  0  0  0  0
  -22.4269   -8.0281   21.3539 C   0  0  0  0  0  0
  -21.9908   -9.0247   20.4626 C   0  0  0  0  0  0
  -22.7228  -10.2126   20.3048 C   0  0  0  0  0  0
  -21.6851   -6.0735   22.5280 C   0  0  0  0  0  0
  -21.4002   -6.5635   23.8213 C   0  0  0  0  0  0
  -21.3671   -5.6788   24.9176 C   0  0  0  0  0  0
  -21.6043   -4.3051   24.7219 C   0  0  0  0  0  0
  -21.8830   -3.8146   23.4346 C   0  0  0  0  0  0
  -21.9194   -4.6964   22.3400 C   0  0  0  0  0  0
  -22.7896  -13.5236   21.1812 C   0  0  0  0  0  0
  -22.1668   -4.2157   21.0975 F   0  0  0  0  0  0
  -21.5638   -3.4534   25.7733 F   0  0  0  0  0  0
  -30.0473  -13.2483   20.4435 N   0  0  0  0  0  0
  -26.3091  -12.9288   20.3431 N   0  0  0  0  0  0
  -25.9346  -11.6451   20.5804 N   0  0  0  0  0  0
  -22.0522  -12.8230   22.0361 N   0  0  0  0  0  0
  -25.4402  -15.1865   20.4124 N   0  0  0  0  0  0
  -31.7957  -14.6614   20.1047 O   0  0  0  0  0  0
  -21.6643   -6.8878   21.4234 O   0  0  0  0  0  0
  -22.3586  -14.5534   20.6669 O   0  0  0  0  0  0
  -24.6112  -31.8689   23.2165 C   0  0  0  0  0  0
  -25.9021  -32.4845   23.8424 C   0  0  1  0  0  0
  -27.2713  -27.4804   20.0903 C   0  0  0  0  0  0
  -25.5854  -33.8650   24.2319 N   0  0  0  0  0  0
  -23.3989  -30.4909   21.5526 C   0  0  2  0  0  0
  -24.8547  -28.9588   20.1223 C   0  0  0  0  0  0
  -22.7386  -29.4657   22.5011 C   0  0  0  0  0  0
  -18.0258  -28.1401   22.8456 C   0  0  0  0  0  0
  -24.1460  -36.7350   23.2637 C   0  0  0  0  0  0
  -25.9220  -30.8413   21.3699 C   0  0  0  0  0  0
  -26.0048  -29.4733   20.7311 C   0  0  0  0  0  0
  -27.2023  -28.7300   20.7455 C   0  0  0  0  0  0
  -26.0998  -26.9677   19.4937 C   0  0  0  0  0  0
  -24.8913  -27.6943   19.5102 C   0  0  0  0  0  0
  -23.6125  -29.8205   20.1666 C   0  0  0  0  0  0
  -25.4095  -36.3154   24.0329 C   0  0  1  0  0  0
  -20.5837  -28.3681   23.1327 C   0  0  2  0  0  0
  -20.6780  -26.9430   22.5422 C   0  0  0  0  0  0
  -19.5769  -26.6399   21.5218 C   0  0  0  0  0  0
  -18.1922  -26.7942   22.1596 C   0  0  0  0  0  0
  -19.1501  -28.8856   23.2877 C   0  0  0  0  0  0
  -18.9433  -30.1460   23.8913 C   0  0  0  0  0  0
  -17.6439  -30.6607   24.0564 C   0  0  0  0  0  0
  -25.9014  -34.9507   23.5131 C   0  0  0  0  0  0
  -16.5334  -29.9113   23.6322 C   0  0  0  0  0  0
  -16.7243  -28.6524   23.0339 C   0  0  0  0  0  0
  -26.4500  -31.6637   25.0731 C   0  0  0  0  0  0
  -25.3783  -31.3723   26.1479 C   0  0  0  0  0  0
  -27.0383  -30.3102   24.6104 C   0  0  0  0  0  0
  -27.6033  -32.4417   25.7495 C   0  0  0  0  0  0
  -27.5574  -37.1817   24.8443 C   0  0  0  0  0  0
  -21.4124  -29.3039   22.3743 N   0  0  0  0  0  0
  -26.4288  -37.3831   23.9403 N   0  0  0  0  0  0
  -24.6613  -31.0812   22.1057 N   0  0  0  0  0  0
  -23.4152  -28.8211   23.3067 O   0  0  0  0  0  0
  -28.4114  -26.7093   19.9687 O   0  0  0  0  0  0
  -26.5604  -34.8951   22.4701 O   0  0  0  0  0  0
  -23.5314  -32.1405   23.7595 O   0  0  0  0  0  0
  -31.1198  -21.4534   22.4876 C   0  0  0  0  0  0
  -30.7453  -20.1062   22.6649 C   0  0  0  0  0  0
  -30.0597  -21.4502   20.2980 C   0  0  0  0  0  0
  -30.7786  -22.1319   21.3004 C   0  0  0  0  0  0
  -30.0274  -19.4171   21.6630 C   0  0  0  0  0  0
  -29.6803  -20.1006   20.4683 C   0  0  0  0  0  0
  -28.9101  -19.4152   19.3509 C   0  0  0  0  0  0
  -29.8593  -28.1764   18.0320 C   0  0  0  0  0  0
  -30.3260  -29.6862   20.0330 C   0  0  0  0  0  0
  -31.2478  -23.5590   21.0577 C   0  0  0  0  0  0
  -29.6194  -17.9675   21.9165 C   0  0  0  0  0  0
  -30.0803  -15.4811   21.5638 C   0  0  0  0  0  0
  -30.1391  -24.6340   21.0873 C   0  0  0  0  0  0
  -30.6083  -16.9208   21.3607 C   0  0  0  0  0  0
  -30.6237  -25.9170   20.3865 C   0  0  0  0  0  0
  -30.3454  -28.2461   19.4911 C   0  0  0  0  0  0
  -29.6987  -27.1589   20.4150 C   0  0  1  0  0  0
  -31.4704  -12.4347   19.0677 H   0  0  0  0  0  0
  -30.3561  -11.2842   19.7499 H   0  0  0  0  0  0
  -29.7174  -11.8332   17.3836 H   0  0  0  0  0  0
  -29.6455  -13.5332   17.7828 H   0  0  0  0  0  0
  -27.8105  -11.3264   18.7775 H   0  0  0  0  0  0
  -27.3518  -12.6864   17.7890 H   0  0  0  0  0  0
  -27.7283  -14.2547   19.6190 H   0  0  0  0  0  0
  -28.6932  -11.8714   21.2749 H   0  0  0  0  0  0
  -28.4818  -13.4637   21.9060 H   0  0  0  0  0  0
  -25.2756   -9.5690   22.4743 H   0  0  0  0  0  0
  -24.0008   -7.4637   22.7481 H   0  0  0  0  0  0
  -21.0840   -8.8744   19.8934 H   0  0  0  0  0  0
  -22.3681  -10.9656   19.6161 H   0  0  0  0  0  0
  -21.1978   -7.6138   23.9713 H   0  0  0  0  0  0
  -21.1489   -6.0517   25.9077 H   0  0  0  0  0  0
  -22.0600   -2.7613   23.2841 H   0  0  0  0  0  0
  -22.4128  -11.9901   22.4760 H   0  0  0  0  0  0
  -21.1142  -13.1277   22.2536 H   0  0  0  0  0  0
  -24.6752  -15.8454   20.5139 H   0  0  0  0  0  0
  -26.3019  -15.6220   20.1066 H   0  0  0  0  0  0
  -26.7093  -32.5620   23.1200 H   0  0  0  0  0  0
  -24.9989  -33.9818   25.0444 H   0  0  0  0  0  0
  -22.6866  -31.3055   21.4117 H   0  0  0  0  0  0
  -23.3729  -35.9675   23.3312 H   0  0  0  0  0  0
  -24.3521  -36.8970   22.2044 H   0  0  0  0  0  0
  -23.7194  -37.6549   23.6654 H   0  0  0  0  0  0
  -26.0188  -31.6013   20.5923 H   0  0  0  0  0  0
  -26.8152  -30.9107   21.9784 H   0  0  0  0  0  0
  -28.0578  -29.1296   21.2656 H   0  0  0  0  0  0
  -26.1299  -26.0064   19.0017 H   0  0  0  0  0  0
  -24.0068  -27.2837   19.0434 H   0  0  0  0  0  0
  -23.7193  -30.5927   19.4043 H   0  0  0  0  0  0
  -22.7365  -29.2377   19.8718 H   0  0  0  0  0  0
  -25.1270  -36.2038   25.0826 H   0  0  0  0  0  0
  -20.9904  -28.3269   24.1453 H   0  0  0  0  0  0
  -20.5738  -26.2289   23.3606 H   0  0  0  0  0  0
  -21.6648  -26.7516   22.1181 H   0  0  0  0  0  0
  -19.6956  -25.6310   21.1249 H   0  0  0  0  0  0
  -19.6751  -27.3218   20.6764 H   0  0  0  0  0  0
  -17.4216  -26.6705   21.3964 H   0  0  0  0  0  0
  -18.0282  -26.0104   22.9001 H   0  0  0  0  0  0
  -19.7915  -30.7262   24.2296 H   0  0  0  0  0  0
  -17.4998  -31.6280   24.5172 H   0  0  0  0  0  0
  -15.5336  -30.3036   23.7629 H   0  0  0  0  0  0
  -15.8636  -28.0868   22.7051 H   0  0  0  0  0  0
  -24.5958  -30.7060   25.7822 H   0  0  0  0  0  0
  -24.8978  -32.2881   26.4907 H   0  0  0  0  0  0
  -25.8138  -30.8899   27.0232 H   0  0  0  0  0  0
  -26.2911  -29.6807   24.1265 H   0  0  0  0  0  0
  -27.4249  -29.7409   25.4561 H   0  0  0  0  0  0
  -27.8691  -30.4411   23.9163 H   0  0  0  0  0  0
  -27.2608  -33.3732   26.2008 H   0  0  0  0  0  0
  -28.3868  -32.6947   25.0336 H   0  0  0  0  0  0
  -28.0667  -31.8584   26.5462 H   0  0  0  0  0  0
  -28.2604  -38.0104   24.7507 H   0  0  0  0  0  0
  -28.1049  -36.2641   24.6244 H   0  0  0  0  0  0
  -27.2289  -37.1448   25.8844 H   0  0  0  0  0  0
  -20.9308  -29.8744   21.6940 H   0  0  0  0  0  0
  -26.0195  -38.2895   24.1482 H   0  0  0  0  0  0
  -31.6827  -21.9580   23.2612 H   0  0  0  0  0  0
  -31.0127  -19.6007   23.5826 H   0  0  0  0  0  0
  -29.8130  -21.9712   19.3818 H   0  0  0  0  0  0
  -28.7191  -20.0983   18.5226 H   0  0  0  0  0  0
  -27.9443  -19.0525   19.7038 H   0  0  0  0  0  0
  -29.4743  -18.5709   18.9561 H   0  0  0  0  0  0
  -30.4735  -28.8000   17.3832 H   0  0  0  0  0  0
  -28.8257  -28.5121   17.9358 H   0  0  0  0  0  0
  -29.9091  -27.1590   17.6464 H   0  0  0  0  0  0
  -31.0676  -30.2950   19.5131 H   0  0  0  0  0  0
  -30.5798  -29.7121   21.0943 H   0  0  0  0  0  0
  -29.3673  -30.1795   19.8869 H   0  0  0  0  0  0
  -31.7393  -23.5645   20.0827 H   0  0  0  0  0  0
  -32.0250  -23.8217   21.7776 H   0  0  0  0  0  0
  -28.6284  -17.7992   21.4973 H   0  0  0  0  0  0
  -29.5026  -17.8137   22.9905 H   0  0  0  0  0  0
  -29.0136  -15.5088   21.3474 H   0  0  0  0  0  0
  -30.1855  -15.1805   22.6071 H   0  0  0  0  0  0
  -29.8346  -24.8353   22.1154 H   0  0  0  0  0  0
  -29.2530  -24.2686   20.5656 H   0  0  0  0  0  0
  -31.5780  -17.0323   21.8481 H   0  0  0  0  0  0
  -30.7778  -17.1068   20.3003 H   0  0  0  0  0  0
  -30.8263  -25.6656   19.3443 H   0  0  0  0  0  0
  -31.5862  -26.1972   20.8159 H   0  0  0  0  0  0
  -31.4138  -28.0239   19.4543 H   0  0  0  0  0  0
  -29.6394  -27.5016   21.4496 H   0  0  0  0  0  0
  1 25  1  0  0  0
  1 30  2  0  0  0
  1 82  1  0  0  0
  2  3  1  0  0  0
  2 25  1  0  0  0
  2 88  1  0  0  0
  2 89  1  0  0  0
  3  4  1  0  0  0
  3 90  1  0  0  0
  3 91  1  0  0  0
  4  5  1  0  0  0
  4 92  1  0  0  0
  4 93  1  0  0  0
  5  6  1  0  0  0
  5 26  1  0  0  0
  5 94  1  0  0  0
  6 25  1  0  0  0
  6 95  1  0  0  0
  6 96  1  0  0  0
  7  8  2  0  0  0
  7 26  1  0  0  0
  7 29  1  0  0  0
  8  9  1  0  0  0
  8 22  1  0  0  0
  9 10  1  0  0  0
  9 27  2  0  0  0
 10 11  2  0  0  0
 10 15  1  0  0  0
 11 12  1  0  0  0
 11 97  1  0  0  0
 12 13  2  0  0  0
 12 98  1  0  0  0
 13 14  1  0  0  0
 13 31  1  0  0  0
 14 15  2  0  0  0
 14 99  1  0  0  0
 15100  1  0  0  0
 16 17  2  0  0  0
 16 21  1  0  0  0
 16 31  1  0  0  0
 17 18  1  0  0  0
 17101  1  0  0  0
 18 19  2  0  0  0
 18102  1  0  0  0
 19 20  1  0  0  0
 19 24  1  0  0  0
 20 21  2  0  0  0
 20103  1  0  0  0
 21 23  1  0  0  0
 22 28  1  0  0  0
 22 32  2  0  0  0
 26 27  1  0  0  0
 28104  1  0  0  0
 28105  1  0  0  0
 29106  1  0  0  0
 29107  1  0  0  0
 33 34  1  0  0  0
 33 66  1  0  0  0
 33 70  2  0  0  0
 34 36  1  0  0  0
 34 59  1  0  0  0
 34108  1  0  0  0
 35 44  2  0  0  0
 35 45  1  0  0  0
 35 68  1  0  0  0
 36 56  1  0  0  0
 36109  1  0  0  0
 37 39  1  0  0  0
 37 47  1  0  0  0
 37 66  1  0  0  0
 37110  1  0  0  0
 38 43  2  0  0  0
 38 46  1  0  0  0
 38 47  1  0  0  0
 39 64  1  0  0  0
 39 67  2  0  0  0
 40 52  1  0  0  0
 40 53  2  0  0  0
 40 58  1  0  0  0
 41111  1  0  0  0
 41112  1  0  0  0
 41113  1  0  0  0
 41 48  1  0  0  0
 42 43  1  0  0  0
 42 66  1  0  0  0
 42114  1  0  0  0
 42115  1  0  0  0
 43 44  1  0  0  0
 44116  1  0  0  0
 45 46  2  0  0  0
 45117  1  0  0  0
 46118  1  0  0  0
 47119  1  0  0  0
 47120  1  0  0  0
 48 56  1  0  0  0
 48 65  1  0  0  0
 48121  1  0  0  0
 49 50  1  0  0  0
 49 53  1  0  0  0
 49 64  1  0  0  0
 49122  1  0  0  0
 50 51  1  0  0  0
 50123  1  0  0  0
 50124  1  0  0  0
 51 52  1  0  0  0
 51125  1  0  0  0
 51126  1  0  0  0
 52127  1  0  0  0
 52128  1  0  0  0
 53 54  1  0  0  0
 54 55  2  0  0  0
 54129  1  0  0  0
 55 57  1  0  0  0
 55130  1  0  0  0
 56 69  2  0  0  0
 57 58  2  0  0  0
 57131  1  0  0  0
 58132  1  0  0  0
 59 60  1  0  0  0
 59 61  1  0  0  0
 59 62  1  0  0  0
 60133  1  0  0  0
 60134  1  0  0  0
 60135  1  0  0  0
 61136  1  0  0  0
 61137  1  0  0  0
 61138  1  0  0  0
 62139  1  0  0  0
 62140  1  0  0  0
 62141  1  0  0  0
 63 65  1  0  0  0
 63142  1  0  0  0
 63143  1  0  0  0
 63144  1  0  0  0
 64145  1  0  0  0
 65146  1  0  0  0
 68 87  1  0  0  0
 71 72  2  0  0  0
 71 74  1  0  0  0
 71147  1  0  0  0
 72 75  1  0  0  0
 72148  1  0  0  0
 73 74  2  0  0  0
 73 76  1  0  0  0
 73149  1  0  0  0
 74 80  1  0  0  0
 75 76  2  0  0  0
 75 81  1  0  0  0
 76 77  1  0  0  0
 77150  1  0  0  0
 77151  1  0  0  0
 77152  1  0  0  0
 78153  1  0  0  0
 78154  1  0  0  0
 78155  1  0  0  0
 78 86  1  0  0  0
 79 86  1  0  0  0
 79156  1  0  0  0
 79157  1  0  0  0
 79158  1  0  0  0
 80 83  1  0  0  0
 80159  1  0  0  0
 80160  1  0  0  0
 81 84  1  0  0  0
 81161  1  0  0  0
 81162  1  0  0  0
 82 84  1  0  0  0
 82163  1  0  0  0
 82164  1  0  0  0
 83 85  1  0  0  0
 83165  1  0  0  0
 83166  1  0  0  0
 84167  1  0  0  0
 84168  1  0  0  0
 85169  1  0  0  0
 85170  1  0  0  0
 85 87  1  0  0  0
 86 87  1  0  0  0
 86171  1  0  0  0
 87172  1  0  0  0
M  ISO  4   1 100  68 101  82 100  87 101
M  END
> <chiral flag>
0

> <version>
0

> <s_m_source_file>
/data/baiqing/PycharmProjects/Reinvent-master-3.2/result/LINK_invent/BTK/process_docking_weight1_custom_product_contain_oxygen_bond_distance_aromatic_linkinvent_7_9_3/rearranged_h_0133.sdf

> <i_m_source_file_index>
31

> <r_mmod_Potential_Energy-OPLS-2005>
-40.6953392028809

> <r_mmod_Stretch_Energy-OPLS-2005>
36.0981025695801

> <r_mmod_Bend_Energy-OPLS-2005>
114.283279418945

> <r_mmod_Torsional_Energy-OPLS-2005>
180.298400878906

> <r_mmod_Improper_Torsional_Energy-OPLS-2005>
2.08922505378723

> <r_mmod_Van_der_Waal_Energy-OPLS-2005>
150.506210327148

> <r_mmod_Electrostatic_Energy-OPLS-2005>
-348.066741943359

> <r_mmod_Solvation_Energy-OPLS-2005>
-183.112686157227

> <b_mmod_Minimization_Converged-OPLS-2005>
0

> <r_mmod_RMS_Derivative-OPLS-2005>
2.77589821815491

$$$$
31
                    3D
 Structure written by MMmdl.
166174  0  0  1  0            999 V2000
  -30.6054  -14.6223   20.5237 C   0  0  0  0  0  0
  -30.4452  -12.3833   19.4427 C   0  0  0  0  0  0
  -29.5069  -12.4975   18.2185 C   0  0  0  0  0  0
  -28.0309  -12.3194   18.6299 C   0  0  0  0  0  0
  -27.6493  -13.1886   19.8532 C   0  0  2  0  0  0
  -28.6958  -13.0467   20.9843 C   0  0  0  0  0  0
  -25.2577  -13.7898   20.5659 C   0  0  0  0  0  0
  -24.1822  -13.0278   20.9199 C   0  0  0  0  0  0
  -24.6379  -11.6759   20.8753 C   0  0  0  0  0  0
  -23.9030  -10.4214   21.0433 C   0  0  0  0  0  0
  -24.3596   -9.4145   21.9194 C   0  0  0  0  0  0
  -23.6280   -8.2189   22.0749 C   0  0  0  0  0  0
  -22.4265   -8.0246   21.3539 C   0  0  0  0  0  0
  -21.9896   -9.0219   20.4645 C   0  0  0  0  0  0
  -22.7219  -10.2091   20.3066 C   0  0  0  0  0  0
  -21.6844   -6.0733   22.5280 C   0  0  0  0  0  0
  -21.4011   -6.5649   23.8211 C   0  0  0  0  0  0
  -21.3632   -5.6800   24.9170 C   0  0  0  0  0  0
  -21.6028   -4.3065   24.7226 C   0  0  0  0  0  0
  -21.8832   -3.8153   23.4354 C   0  0  0  0  0  0
  -21.9200   -4.6963   22.3406 C   0  0  0  0  0  0
  -22.7870  -13.5149   21.1869 C   0  0  0  0  0  0
  -22.1679   -4.2157   21.0988 F   0  0  0  0  0  0
  -21.5603   -3.4548   25.7738 F   0  0  0  0  0  0
  -30.0165  -13.3884   20.4324 N   0  0  0  0  0  0
  -26.2985  -12.9094   20.3262 N   0  0  0  0  0  0
  -25.9302  -11.6287   20.5747 N   0  0  0  0  0  0
  -22.0502  -12.8164   22.0423 N   0  0  0  0  0  0
  -25.4279  -15.1521   20.4029 N   0  0  0  0  0  0
  -31.7599  -14.8055   20.1230 O   0  0  0  0  0  0
  -21.6613   -6.8866   21.4243 O   0  0  0  0  0  0
  -22.3596  -14.5486   20.6746 O   0  0  0  0  0  0
  -24.6186  -31.8644   23.2065 C   0  0  0  0  0  0
  -25.9067  -32.4798   23.8372 C   0  0  1  0  0  0
  -27.2466  -27.3937   20.1073 C   0  0  0  0  0  0
  -25.5906  -33.8598   24.2302 N   0  0  0  0  0  0
  -23.4091  -30.4867   21.5469 C   0  0  2  0  0  0
  -24.8574  -28.9458   20.1171 C   0  0  0  0  0  0
  -22.7434  -29.4644   22.4969 C   0  0  0  0  0  0
  -18.0279  -28.1382   22.8482 C   0  0  0  0  0  0
  -24.1491  -36.7312   23.2638 C   0  0  0  0  0  0
  -25.9421  -30.8186   21.3646 C   0  0  0  0  0  0
  -26.0204  -29.4512   20.7089 C   0  0  0  0  0  0
  -27.2154  -28.6873   20.6921 C   0  0  0  0  0  0
  -26.0526  -26.9091   19.5195 C   0  0  0  0  0  0
  -24.8704  -27.6754   19.5186 C   0  0  0  0  0  0
  -23.6208  -29.8177   20.1630 C   0  0  0  0  0  0
  -25.4114  -36.3102   24.0332 C   0  0  1  0  0  0
  -20.5867  -28.3677   23.1304 C   0  0  2  0  0  0
  -20.6771  -26.9407   22.5420 C   0  0  0  0  0  0
  -19.5758  -26.6382   21.5213 C   0  0  0  0  0  0
  -18.1930  -26.7929   22.1611 C   0  0  0  0  0  0
  -19.1526  -28.8850   23.2886 C   0  0  0  0  0  0
  -18.9455  -30.1451   23.8902 C   0  0  0  0  0  0
  -17.6456  -30.6586   24.0564 C   0  0  0  0  0  0
  -25.9045  -34.9463   23.5116 C   0  0  0  0  0  0
  -16.5347  -29.9089   23.6319 C   0  0  0  0  0  0
  -16.7268  -28.6505   23.0345 C   0  0  0  0  0  0
  -26.4481  -31.6586   25.0712 C   0  0  0  0  0  0
  -25.3740  -31.3702   26.1454 C   0  0  0  0  0  0
  -27.0306  -30.3018   24.6115 C   0  0  0  0  0  0
  -27.6047  -32.4308   25.7479 C   0  0  0  0  0  0
  -27.5586  -37.1808   24.8459 C   0  0  0  0  0  0
  -21.4158  -29.3034   22.3714 N   0  0  0  0  0  0
  -26.4297  -37.3788   23.9404 N   0  0  0  0  0  0
  -24.6748  -31.0713   22.0977 N   0  0  0  0  0  0
  -23.4186  -28.8200   23.3040 O   0  0  0  0  0  0
  -28.4281  -26.6551   20.1357 O   0  0  0  0  0  0
  -26.5612  -34.8924   22.4680 O   0  0  0  0  0  0
  -23.5366  -32.1413   23.7438 O   0  0  0  0  0  0
  -26.6292  -20.0251   19.6607 C   0  0  0  0  0  0
  -27.9278  -20.5281   19.5995 C   0  0  0  0  0  0
  -27.5265  -17.9175   20.4660 C   0  0  0  0  0  0
  -26.4190  -18.7339   20.1480 C   0  0  0  0  0  0
  -29.0479  -19.7699   20.0196 C   0  0  0  0  0  0
  -28.8710  -18.3706   20.3396 C   0  0  0  0  0  0
  -24.9947  -18.2453   20.2977 C   0  0  0  0  0  0
  -28.5048  -24.8692   18.4762 C   0  0  0  0  0  0
  -30.3836  -20.5296   20.1408 C   0  0  0  0  0  0
  -30.0554  -17.3375   20.4627 C   0  0  0  0  0  0
  -29.7380  -15.8607   20.9780 C   0  0  0  0  0  0
  -30.3582  -22.1025   19.9534 C   0  0  0  0  0  0
  -29.5400  -22.9752   20.9708 C   0  0  0  0  0  0
  -29.5637  -24.5361   20.7780 C   0  0  0  0  0  0
  -28.4016  -25.2097   19.9708 C   0  0  1  0  0  0
  -31.4829  -12.5226   19.1364 H   0  0  0  0  0  0
  -30.3922  -11.3820   19.8743 H   0  0  0  0  0  0
  -29.7730  -11.7512   17.4688 H   0  0  0  0  0  0
  -29.6391  -13.4701   17.7436 H   0  0  0  0  0  0
  -27.8760  -11.2659   18.8637 H   0  0  0  0  0  0
  -27.3746  -12.5421   17.7879 H   0  0  0  0  0  0
  -27.6495  -14.2118   19.4860 H   0  0  0  0  0  0
  -28.7035  -12.0265   21.3700 H   0  0  0  0  0  0
  -28.4369  -13.6778   21.8355 H   0  0  0  0  0  0
  -25.2754   -9.5628   22.4741 H   0  0  0  0  0  0
  -23.9990   -7.4577   22.7453 H   0  0  0  0  0  0
  -21.0831   -8.8762   19.8943 H   0  0  0  0  0  0
  -22.3708  -10.9646   19.6179 H   0  0  0  0  0  0
  -21.2030   -7.6162   23.9724 H   0  0  0  0  0  0
  -21.1418   -6.0528   25.9069 H   0  0  0  0  0  0
  -22.0643   -2.7621   23.2855 H   0  0  0  0  0  0
  -22.4129  -11.9830   22.4821 H   0  0  0  0  0  0
  -21.1123  -13.1189   22.2651 H   0  0  0  0  0  0
  -24.6565  -15.7977   20.5180 H   0  0  0  0  0  0
  -26.2668  -15.5836   20.0423 H   0  0  0  0  0  0
  -26.7137  -32.5501   23.1130 H   0  0  0  0  0  0
  -25.0041  -33.9750   25.0438 H   0  0  0  0  0  0
  -22.6989  -31.3041   21.4055 H   0  0  0  0  0  0
  -23.3749  -35.9645   23.3292 H   0  0  0  0  0  0
  -24.3586  -36.8940   22.2053 H   0  0  0  0  0  0
  -23.7246  -37.6513   23.6663 H   0  0  0  0  0  0
  -26.0615  -31.5856   20.5982 H   0  0  0  0  0  0
  -26.8257  -30.8688   21.9892 H   0  0  0  0  0  0
  -28.1125  -29.0784   21.1493 H   0  0  0  0  0  0
  -26.0054  -25.9325   19.0627 H   0  0  0  0  0  0
  -23.9733  -27.2737   19.0665 H   0  0  0  0  0  0
  -23.7381  -30.5926   19.4049 H   0  0  0  0  0  0
  -22.7432  -29.2428   19.8625 H   0  0  0  0  0  0
  -25.1292  -36.1956   25.0824 H   0  0  0  0  0  0
  -20.9950  -28.3248   24.1429 H   0  0  0  0  0  0
  -20.5676  -26.2288   23.3614 H   0  0  0  0  0  0
  -21.6647  -26.7452   22.1218 H   0  0  0  0  0  0
  -19.6923  -25.6295   21.1241 H   0  0  0  0  0  0
  -19.6703  -27.3193   20.6745 H   0  0  0  0  0  0
  -17.4209  -26.6685   21.4000 H   0  0  0  0  0  0
  -18.0316  -26.0065   22.8999 H   0  0  0  0  0  0
  -19.7932  -30.7261   24.2277 H   0  0  0  0  0  0
  -17.5014  -31.6264   24.5171 H   0  0  0  0  0  0
  -15.5351  -30.3000   23.7639 H   0  0  0  0  0  0
  -15.8666  -28.0832   22.7055 H   0  0  0  0  0  0
  -24.5923  -30.7035   25.7795 H   0  0  0  0  0  0
  -24.8924  -32.2860   26.4887 H   0  0  0  0  0  0
  -25.8094  -30.8887   27.0220 H   0  0  0  0  0  0
  -26.2857  -29.6779   24.1164 H   0  0  0  0  0  0
  -27.4049  -29.7255   25.4587 H   0  0  0  0  0  0
  -27.8705  -30.4311   23.9286 H   0  0  0  0  0  0
  -27.2650  -33.3580   26.2104 H   0  0  0  0  0  0
  -28.3833  -32.6915   25.0300 H   0  0  0  0  0  0
  -28.0744  -31.8409   26.5359 H   0  0  0  0  0  0
  -28.2604  -38.0108   24.7509 H   0  0  0  0  0  0
  -28.1087  -36.2639   24.6280 H   0  0  0  0  0  0
  -27.2307  -37.1453   25.8865 H   0  0  0  0  0  0
  -20.9341  -29.8758   21.6925 H   0  0  0  0  0  0
  -26.0184  -38.2862   24.1410 H   0  0  0  0  0  0
  -25.7968  -20.6541   19.3769 H   0  0  0  0  0  0
  -28.0201  -21.5423   19.2473 H   0  0  0  0  0  0
  -27.2999  -16.9276   20.8131 H   0  0  0  0  0  0
  -24.2926  -19.0796   20.2920 H   0  0  0  0  0  0
  -24.8639  -17.7160   21.2414 H   0  0  0  0  0  0
  -24.7283  -17.5874   19.4701 H   0  0  0  0  0  0
  -28.3231  -23.8084   18.3072 H   0  0  0  0  0  0
  -29.4959  -25.1039   18.0879 H   0  0  0  0  0  0
  -27.7848  -25.4178   17.8711 H   0  0  0  0  0  0
  -31.0741  -20.0993   19.4142 H   0  0  0  0  0  0
  -30.8054  -20.3033   21.1208 H   0  0  0  0  0  0
  -30.8300  -17.7723   21.0939 H   0  0  0  0  0  0
  -30.4995  -17.2662   19.4683 H   0  0  0  0  0  0
  -28.7706  -15.6101   20.5800 H   0  0  0  0  0  0
  -29.6285  -15.8580   22.0628 H   0  0  0  0  0  0
  -30.0452  -22.3364   18.9365 H   0  0  0  0  0  0
  -31.3933  -22.4433   20.0033 H   0  0  0  0  0  0
  -29.9553  -22.7634   21.9568 H   0  0  0  0  0  0
  -28.5034  -22.6534   21.0457 H   0  0  0  0  0  0
  -30.5301  -24.8493   20.3821 H   0  0  0  0  0  0
  -29.5210  -24.9687   21.7785 H   0  0  0  0  0  0
  -27.4653  -24.8215   20.3747 H   0  0  0  0  0  0
  1 25  1  0  0  0
  1 30  2  0  0  0
  1 81  1  0  0  0
  2  3  1  0  0  0
  2 25  1  0  0  0
  2 86  1  0  0  0
  2 87  1  0  0  0
  3  4  1  0  0  0
  3 88  1  0  0  0
  3 89  1  0  0  0
  4  5  1  0  0  0
  4 90  1  0  0  0
  4 91  1  0  0  0
  5  6  1  0  0  0
  5 26  1  0  0  0
  5 92  1  0  0  0
  6 25  1  0  0  0
  6 93  1  0  0  0
  6 94  1  0  0  0
  7  8  2  0  0  0
  7 26  1  0  0  0
  7 29  1  0  0  0
  8  9  1  0  0  0
  8 22  1  0  0  0
  9 10  1  0  0  0
  9 27  2  0  0  0
 10 11  2  0  0  0
 10 15  1  0  0  0
 11 12  1  0  0  0
 11 95  1  0  0  0
 12 13  2  0  0  0
 12 96  1  0  0  0
 13 14  1  0  0  0
 13 31  1  0  0  0
 14 15  2  0  0  0
 14 97  1  0  0  0
 15 98  1  0  0  0
 16 17  2  0  0  0
 16 21  1  0  0  0
 16 31  1  0  0  0
 17 18  1  0  0  0
 17 99  1  0  0  0
 18 19  2  0  0  0
 18100  1  0  0  0
 19 20  1  0  0  0
 19 24  1  0  0  0
 20 21  2  0  0  0
 20101  1  0  0  0
 21 23  1  0  0  0
 22 28  1  0  0  0
 22 32  2  0  0  0
 26 27  1  0  0  0
 28102  1  0  0  0
 28103  1  0  0  0
 29104  1  0  0  0
 29105  1  0  0  0
 33 34  1  0  0  0
 33 66  1  0  0  0
 33 70  2  0  0  0
 34 36  1  0  0  0
 34 59  1  0  0  0
 34106  1  0  0  0
 35 44  2  0  0  0
 35 45  1  0  0  0
 35 68  1  0  0  0
 36 56  1  0  0  0
 36107  1  0  0  0
 37 39  1  0  0  0
 37 47  1  0  0  0
 37 66  1  0  0  0
 37108  1  0  0  0
 38 43  2  0  0  0
 38 46  1  0  0  0
 38 47  1  0  0  0
 39 64  1  0  0  0
 39 67  2  0  0  0
 40 52  1  0  0  0
 40 53  2  0  0  0
 40 58  1  0  0  0
 41109  1  0  0  0
 41110  1  0  0  0
 41111  1  0  0  0
 41 48  1  0  0  0
 42 43  1  0  0  0
 42 66  1  0  0  0
 42112  1  0  0  0
 42113  1  0  0  0
 43 44  1  0  0  0
 44114  1  0  0  0
 45 46  2  0  0  0
 45115  1  0  0  0
 46116  1  0  0  0
 47117  1  0  0  0
 47118  1  0  0  0
 48 56  1  0  0  0
 48 65  1  0  0  0
 48119  1  0  0  0
 49 50  1  0  0  0
 49 53  1  0  0  0
 49 64  1  0  0  0
 49120  1  0  0  0
 50 51  1  0  0  0
 50121  1  0  0  0
 50122  1  0  0  0
 51 52  1  0  0  0
 51123  1  0  0  0
 51124  1  0  0  0
 52125  1  0  0  0
 52126  1  0  0  0
 53 54  1  0  0  0
 54 55  2  0  0  0
 54127  1  0  0  0
 55 57  1  0  0  0
 55128  1  0  0  0
 56 69  2  0  0  0
 57 58  2  0  0  0
 57129  1  0  0  0
 58130  1  0  0  0
 59 60  1  0  0  0
 59 61  1  0  0  0
 59 62  1  0  0  0
 60131  1  0  0  0
 60132  1  0  0  0
 60133  1  0  0  0
 61134  1  0  0  0
 61135  1  0  0  0
 61136  1  0  0  0
 62137  1  0  0  0
 62138  1  0  0  0
 62139  1  0  0  0
 63 65  1  0  0  0
 63140  1  0  0  0
 63141  1  0  0  0
 63142  1  0  0  0
 64143  1  0  0  0
 65144  1  0  0  0
 68 85  1  0  0  0
 71 72  2  0  0  0
 71 74  1  0  0  0
 71145  1  0  0  0
 72 75  1  0  0  0
 72146  1  0  0  0
 73 74  2  0  0  0
 73 76  1  0  0  0
 73147  1  0  0  0
 74 77  1  0  0  0
 75 76  2  0  0  0
 75 79  1  0  0  0
 76 80  1  0  0  0
 77148  1  0  0  0
 77149  1  0  0  0
 77150  1  0  0  0
 78151  1  0  0  0
 78152  1  0  0  0
 78153  1  0  0  0
 78 85  1  0  0  0
 79 82  1  0  0  0
 79154  1  0  0  0
 79155  1  0  0  0
 80 81  1  0  0  0
 80156  1  0  0  0
 80157  1  0  0  0
 81158  1  0  0  0
 81159  1  0  0  0
 82 83  1  0  0  0
 82160  1  0  0  0
 82161  1  0  0  0
 83 84  1  0  0  0
 83162  1  0  0  0
 83163  1  0  0  0
 84 85  1  0  0  0
 84164  1  0  0  0
 84165  1  0  0  0
 85166  1  0  0  0
M  ISO  4   1 100  68 101  81 100  85 101
M  END
> <chiral flag>
0

> <version>
0

> <s_m_source_file>
/data/baiqing/PycharmProjects/Reinvent-master-3.2/result/LINK_invent/BTK/process_docking_weight1_custom_product_contain_oxygen_bond_distance_aromatic_linkinvent_7_9_3/rearranged_h_0133.sdf

> <i_m_source_file_index>
32

> <r_mmod_Potential_Energy-OPLS-2005>
59.6289825439453

> <r_mmod_Stretch_Energy-OPLS-2005>
67.9727249145508

> <r_mmod_Bend_Energy-OPLS-2005>
131.502639770508

> <r_mmod_Torsional_Energy-OPLS-2005>
198.189926147461

> <r_mmod_Improper_Torsional_Energy-OPLS-2005>
3.94054365158081

> <r_mmod_Van_der_Waal_Energy-OPLS-2005>
157.708297729492

> <r_mmod_Electrostatic_Energy-OPLS-2005>
-352.542755126953

> <r_mmod_Solvation_Energy-OPLS-2005>
-180.272811889648

> <b_mmod_Minimization_Converged-OPLS-2005>
0

> <r_mmod_RMS_Derivative-OPLS-2005>
1.94560348987579

$$$$
32
                    3D
 Structure written by MMmdl.
170178  0  0  1  0            999 V2000
  -30.7314  -14.4364   20.5340 C   0  0  0  0  0  0
  -30.3980  -12.2821   19.4131 C   0  0  0  0  0  0
  -29.4821  -12.5195   18.1964 C   0  0  0  0  0  0
  -27.9975  -12.4070   18.5952 C   0  0  0  0  0  0
  -27.6556  -13.2206   19.8747 C   0  0  2  0  0  0
  -28.6966  -12.9821   20.9896 C   0  0  0  0  0  0
  -25.2557  -13.8196   20.5700 C   0  0  0  0  0  0
  -24.1805  -13.0426   20.9160 C   0  0  0  0  0  0
  -24.6368  -11.6912   20.8674 C   0  0  0  0  0  0
  -23.9029  -10.4286   21.0351 C   0  0  0  0  0  0
  -24.3589   -9.4242   21.9151 C   0  0  0  0  0  0
  -23.6290   -8.2271   22.0756 C   0  0  0  0  0  0
  -22.4283   -8.0276   21.3549 C   0  0  0  0  0  0
  -21.9900   -9.0225   20.4644 C   0  0  0  0  0  0
  -22.7193  -10.2116   20.3026 C   0  0  0  0  0  0
  -21.6883   -6.0725   22.5256 C   0  0  0  0  0  0
  -21.4032   -6.5646   23.8182 C   0  0  0  0  0  0
  -21.3653   -5.6808   24.9160 C   0  0  0  0  0  0
  -21.6027   -4.3069   24.7228 C   0  0  0  0  0  0
  -21.8825   -3.8153   23.4361 C   0  0  0  0  0  0
  -21.9214   -4.6952   22.3403 C   0  0  0  0  0  0
  -22.7816  -13.5216   21.1833 C   0  0  0  0  0  0
  -22.1667   -4.2117   21.0987 F   0  0  0  0  0  0
  -21.5635   -3.4564   25.7761 F   0  0  0  0  0  0
  -30.0300  -13.2716   20.4407 N   0  0  0  0  0  0
  -26.2985  -12.9375   20.3368 N   0  0  0  0  0  0
  -25.9302  -11.6512   20.5702 N   0  0  0  0  0  0
  -22.0485  -12.8174   22.0414 N   0  0  0  0  0  0
  -25.4294  -15.1900   20.4166 N   0  0  0  0  0  0
  -31.8894  -14.5212   20.1173 O   0  0  0  0  0  0
  -21.6671   -6.8859   21.4226 O   0  0  0  0  0  0
  -22.3466  -14.5497   20.6698 O   0  0  0  0  0  0
  -24.6154  -31.8713   23.2128 C   0  0  0  0  0  0
  -25.9043  -32.4864   23.8408 C   0  0  1  0  0  0
  -27.2208  -27.4248   20.0678 C   0  0  0  0  0  0
  -25.5888  -33.8677   24.2308 N   0  0  0  0  0  0
  -23.4047  -30.4960   21.5585 C   0  0  2  0  0  0
  -24.8430  -28.9667   20.1159 C   0  0  0  0  0  0
  -22.7387  -29.4694   22.5029 C   0  0  0  0  0  0
  -18.0272  -28.1400   22.8581 C   0  0  0  0  0  0
  -24.1494  -36.7294   23.2630 C   0  0  0  0  0  0
  -25.9375  -30.8195   21.3832 C   0  0  0  0  0  0
  -26.0057  -29.4574   20.7233 C   0  0  0  0  0  0
  -27.1926  -28.6877   20.7088 C   0  0  0  0  0  0
  -26.0362  -26.9630   19.4474 C   0  0  0  0  0  0
  -24.8519  -27.7166   19.4804 C   0  0  0  0  0  0
  -23.6109  -29.8390   20.1721 C   0  0  0  0  0  0
  -25.4122  -36.3130   24.0326 C   0  0  1  0  0  0
  -20.5861  -28.3692   23.1376 C   0  0  2  0  0  0
  -20.6807  -26.9434   22.5464 C   0  0  0  0  0  0
  -19.5745  -26.6422   21.5305 C   0  0  0  0  0  0
  -18.1910  -26.7974   22.1691 C   0  0  0  0  0  0
  -19.1520  -28.8851   23.2994 C   0  0  0  0  0  0
  -18.9435  -30.1465   23.8988 C   0  0  0  0  0  0
  -17.6432  -30.6607   24.0594 C   0  0  0  0  0  0
  -25.9051  -34.9519   23.5113 C   0  0  0  0  0  0
  -16.5324  -29.9114   23.6334 C   0  0  0  0  0  0
  -16.7263  -28.6520   23.0394 C   0  0  0  0  0  0
  -26.4456  -31.6648   25.0760 C   0  0  0  0  0  0
  -25.3657  -31.3755   26.1445 C   0  0  0  0  0  0
  -27.0314  -30.3073   24.6212 C   0  0  0  0  0  0
  -27.6025  -32.4400   25.7515 C   0  0  0  0  0  0
  -27.5598  -37.1774   24.8436 C   0  0  0  0  0  0
  -21.4106  -29.3056   22.3736 N   0  0  0  0  0  0
  -26.4285  -37.3825   23.9431 N   0  0  0  0  0  0
  -24.6704  -31.0766   22.1096 N   0  0  0  0  0  0
  -23.4126  -28.8241   23.3105 O   0  0  0  0  0  0
  -28.3966  -26.6938   20.0704 O   0  0  0  0  0  0
  -26.5626  -34.8961   22.4686 O   0  0  0  0  0  0
  -23.5335  -32.1538   23.7493 O   0  0  0  0  0  0
  -30.0515  -20.2256   22.0624 C   0  0  0  0  0  0
  -30.5284  -18.9396   21.7794 C   0  0  0  0  0  0
  -28.8942  -20.6934   21.4243 C   0  0  0  0  0  0
  -29.8832  -18.1335   20.8239 C   0  0  0  0  0  0
  -28.2564  -19.9289   20.4144 C   0  0  0  0  0  0
  -28.7939  -18.6522   20.0705 C   0  0  0  0  0  0
  -30.4782  -16.8273   20.5400 C   0  0  0  0  0  0
  -30.0041  -15.6290   20.9534 C   0  0  0  0  0  0
  -28.7573  -17.2237   16.3921 C   0  0  0  0  0  0
  -25.2282  -22.2802   19.4095 C   0  0  0  0  0  0
  -26.9933  -20.4599   19.7200 C   0  0  0  0  0  0
  -28.2700  -17.8546   18.8650 C   0  0  0  0  0  0
  -29.1366  -18.0889   17.6049 C   0  0  0  0  0  0
  -27.7157  -24.2860   20.1609 C   0  0  0  0  0  0
  -27.6860  -22.9407   19.4016 C   0  0  0  0  0  0
  -28.4444  -25.4229   19.3991 C   0  0  0  0  0  0
  -26.6302  -21.9478   19.9610 C   0  0  1  0  0  0
  -31.4437  -12.3475   19.1110 H   0  0  0  0  0  0
  -30.2655  -11.2686   19.7937 H   0  0  0  0  0  0
  -29.7078  -11.8000   17.4082 H   0  0  0  0  0  0
  -29.6803  -13.5077   17.7768 H   0  0  0  0  0  0
  -27.7823  -11.3501   18.7521 H   0  0  0  0  0  0
  -27.3590  -12.7250   17.7687 H   0  0  0  0  0  0
  -27.7072  -14.2747   19.6024 H   0  0  0  0  0  0
  -28.6547  -11.9386   21.3083 H   0  0  0  0  0  0
  -28.4733  -13.5650   21.8836 H   0  0  0  0  0  0
  -25.2720   -9.5776   22.4723 H   0  0  0  0  0  0
  -24.0022   -7.4697   22.7496 H   0  0  0  0  0  0
  -21.0845   -8.8703   19.8940 H   0  0  0  0  0  0
  -22.3608  -10.9641   19.6148 H   0  0  0  0  0  0
  -21.2012   -7.6151   23.9679 H   0  0  0  0  0  0
  -21.1457   -6.0553   25.9056 H   0  0  0  0  0  0
  -22.0605   -2.7612   23.2895 H   0  0  0  0  0  0
  -22.4143  -11.9855   22.4797 H   0  0  0  0  0  0
  -21.1060  -13.1117   22.2544 H   0  0  0  0  0  0
  -24.6729  -15.8532   20.5391 H   0  0  0  0  0  0
  -26.3026  -15.6311   20.1554 H   0  0  0  0  0  0
  -26.7117  -32.5567   23.1171 H   0  0  0  0  0  0
  -24.9951  -33.9872   25.0382 H   0  0  0  0  0  0
  -22.6972  -31.3166   21.4277 H   0  0  0  0  0  0
  -23.3825  -35.9540   23.3238 H   0  0  0  0  0  0
  -24.3552  -36.8985   22.2046 H   0  0  0  0  0  0
  -23.7172  -37.6444   23.6698 H   0  0  0  0  0  0
  -26.0679  -31.5880   20.6205 H   0  0  0  0  0  0
  -26.8195  -30.8601   22.0104 H   0  0  0  0  0  0
  -28.0878  -29.0582   21.1886 H   0  0  0  0  0  0
  -25.9971  -26.0220   18.9210 H   0  0  0  0  0  0
  -23.9623  -27.3369   18.9990 H   0  0  0  0  0  0
  -23.7212  -30.6262   19.4252 H   0  0  0  0  0  0
  -22.7337  -29.2605   19.8721 H   0  0  0  0  0  0
  -25.1301  -36.1981   25.0811 H   0  0  0  0  0  0
  -20.9959  -28.3315   24.1498 H   0  0  0  0  0  0
  -20.5859  -26.2277   23.3645 H   0  0  0  0  0  0
  -21.6652  -26.7579   22.1155 H   0  0  0  0  0  0
  -19.6904  -25.6349   21.1299 H   0  0  0  0  0  0
  -19.6679  -27.3279   20.6876 H   0  0  0  0  0  0
  -17.4204  -26.6821   21.4058 H   0  0  0  0  0  0
  -18.0206  -26.0083   22.9042 H   0  0  0  0  0  0
  -19.7881  -30.7301   24.2383 H   0  0  0  0  0  0
  -17.4964  -31.6298   24.5187 H   0  0  0  0  0  0
  -15.5327  -30.3036   23.7603 H   0  0  0  0  0  0
  -15.8680  -28.0845   22.7078 H   0  0  0  0  0  0
  -24.5774  -30.7243   25.7658 H   0  0  0  0  0  0
  -24.8912  -32.2926   26.4944 H   0  0  0  0  0  0
  -25.7895  -30.8770   27.0172 H   0  0  0  0  0  0
  -26.2905  -29.6839   24.1193 H   0  0  0  0  0  0
  -27.3969  -29.7323   25.4735 H   0  0  0  0  0  0
  -27.8782  -30.4382   23.9474 H   0  0  0  0  0  0
  -27.2623  -33.3705   26.2078 H   0  0  0  0  0  0
  -28.3781  -32.6977   25.0292 H   0  0  0  0  0  0
  -28.0739  -31.8556   26.5421 H   0  0  0  0  0  0
  -28.2533  -38.0169   24.7648 H   0  0  0  0  0  0
  -28.1207  -36.2706   24.6084 H   0  0  0  0  0  0
  -27.2311  -37.1171   25.8832 H   0  0  0  0  0  0
  -20.9228  -29.8676   21.6889 H   0  0  0  0  0  0
  -26.0187  -38.2891   24.1538 H   0  0  0  0  0  0
  -30.5739  -20.8521   22.7723 H   0  0  0  0  0  0
  -31.4083  -18.5827   22.2944 H   0  0  0  0  0  0
  -28.5407  -21.6704   21.7214 H   0  0  0  0  0  0
  -31.3646  -16.8779   19.9205 H   0  0  0  0  0  0
  -29.1159  -15.5853   21.5661 H   0  0  0  0  0  0
  -29.4156  -17.4515   15.5512 H   0  0  0  0  0  0
  -27.7363  -17.4061   16.0584 H   0  0  0  0  0  0
  -28.8571  -16.1575   16.6029 H   0  0  0  0  0  0
  -24.5151  -21.4721   19.5736 H   0  0  0  0  0  0
  -25.2490  -22.4724   18.3375 H   0  0  0  0  0  0
  -24.8268  -23.1670   19.9001 H   0  0  0  0  0  0
  -26.1721  -19.8406   20.0873 H   0  0  0  0  0  0
  -27.0581  -20.2910   18.6458 H   0  0  0  0  0  0
  -27.2264  -18.0822   18.6536 H   0  0  0  0  0  0
  -28.2569  -16.7953   19.1128 H   0  0  0  0  0  0
  -29.0955  -19.1400   17.3206 H   0  0  0  0  0  0
  -30.1825  -17.8878   17.8404 H   0  0  0  0  0  0
  -28.1908  -24.1409   21.1293 H   0  0  0  0  0  0
  -26.6912  -24.5729   20.3875 H   0  0  0  0  0  0
  -28.6837  -22.5030   19.4334 H   0  0  0  0  0  0
  -27.4943  -23.1006   18.3393 H   0  0  0  0  0  0
  -28.0792  -25.5130   18.3742 H   0  0  0  0  0  0
  -29.4988  -25.1594   19.2989 H   0  0  0  0  0  0
  -26.5502  -22.0769   21.0403 H   0  0  0  0  0  0
  1 25  1  0  0  0
  1 30  2  0  0  0
  1 78  1  0  0  0
  2  3  1  0  0  0
  2 25  1  0  0  0
  2 88  1  0  0  0
  2 89  1  0  0  0
  3  4  1  0  0  0
  3 90  1  0  0  0
  3 91  1  0  0  0
  4  5  1  0  0  0
  4 92  1  0  0  0
  4 93  1  0  0  0
  5  6  1  0  0  0
  5 26  1  0  0  0
  5 94  1  0  0  0
  6 25  1  0  0  0
  6 95  1  0  0  0
  6 96  1  0  0  0
  7  8  2  0  0  0
  7 26  1  0  0  0
  7 29  1  0  0  0
  8  9  1  0  0  0
  8 22  1  0  0  0
  9 10  1  0  0  0
  9 27  2  0  0  0
 10 11  2  0  0  0
 10 15  1  0  0  0
 11 12  1  0  0  0
 11 97  1  0  0  0
 12 13  2  0  0  0
 12 98  1  0  0  0
 13 14  1  0  0  0
 13 31  1  0  0  0
 14 15  2  0  0  0
 14 99  1  0  0  0
 15100  1  0  0  0
 16 17  2  0  0  0
 16 21  1  0  0  0
 16 31  1  0  0  0
 17 18  1  0  0  0
 17101  1  0  0  0
 18 19  2  0  0  0
 18102  1  0  0  0
 19 20  1  0  0  0
 19 24  1  0  0  0
 20 21  2  0  0  0
 20103  1  0  0  0
 21 23  1  0  0  0
 22 28  1  0  0  0
 22 32  2  0  0  0
 26 27  1  0  0  0
 28104  1  0  0  0
 28105  1  0  0  0
 29106  1  0  0  0
 29107  1  0  0  0
 33 34  1  0  0  0
 33 66  1  0  0  0
 33 70  2  0  0  0
 34 36  1  0  0  0
 34 59  1  0  0  0
 34108  1  0  0  0
 35 44  2  0  0  0
 35 45  1  0  0  0
 35 68  1  0  0  0
 36 56  1  0  0  0
 36109  1  0  0  0
 37 39  1  0  0  0
 37 47  1  0  0  0
 37 66  1  0  0  0
 37110  1  0  0  0
 38 43  2  0  0  0
 38 46  1  0  0  0
 38 47  1  0  0  0
 39 64  1  0  0  0
 39 67  2  0  0  0
 40 52  1  0  0  0
 40 53  2  0  0  0
 40 58  1  0  0  0
 41111  1  0  0  0
 41112  1  0  0  0
 41113  1  0  0  0
 41 48  1  0  0  0
 42 43  1  0  0  0
 42 66  1  0  0  0
 42114  1  0  0  0
 42115  1  0  0  0
 43 44  1  0  0  0
 44116  1  0  0  0
 45 46  2  0  0  0
 45117  1  0  0  0
 46118  1  0  0  0
 47119  1  0  0  0
 47120  1  0  0  0
 48 56  1  0  0  0
 48 65  1  0  0  0
 48121  1  0  0  0
 49 50  1  0  0  0
 49 53  1  0  0  0
 49 64  1  0  0  0
 49122  1  0  0  0
 50 51  1  0  0  0
 50123  1  0  0  0
 50124  1  0  0  0
 51 52  1  0  0  0
 51125  1  0  0  0
 51126  1  0  0  0
 52127  1  0  0  0
 52128  1  0  0  0
 53 54  1  0  0  0
 54 55  2  0  0  0
 54129  1  0  0  0
 55 57  1  0  0  0
 55130  1  0  0  0
 56 69  2  0  0  0
 57 58  2  0  0  0
 57131  1  0  0  0
 58132  1  0  0  0
 59 60  1  0  0  0
 59 61  1  0  0  0
 59 62  1  0  0  0
 60133  1  0  0  0
 60134  1  0  0  0
 60135  1  0  0  0
 61136  1  0  0  0
 61137  1  0  0  0
 61138  1  0  0  0
 62139  1  0  0  0
 62140  1  0  0  0
 62141  1  0  0  0
 63 65  1  0  0  0
 63142  1  0  0  0
 63143  1  0  0  0
 63144  1  0  0  0
 64145  1  0  0  0
 65146  1  0  0  0
 68 86  1  0  0  0
 71 72  2  0  0  0
 71 73  1  0  0  0
 71147  1  0  0  0
 72 74  1  0  0  0
 72148  1  0  0  0
 73 75  2  0  0  0
 73149  1  0  0  0
 74 76  2  0  0  0
 74 77  1  0  0  0
 75 76  1  0  0  0
 75 81  1  0  0  0
 76 82  1  0  0  0
 77 78  2  0  0  0
 77150  1  0  0  0
 78151  1  0  0  0
 79 83  1  0  0  0
 79152  1  0  0  0
 79153  1  0  0  0
 79154  1  0  0  0
 80155  1  0  0  0
 80156  1  0  0  0
 80157  1  0  0  0
 80 87  1  0  0  0
 81 87  1  0  0  0
 81158  1  0  0  0
 81159  1  0  0  0
 82 83  1  0  0  0
 82160  1  0  0  0
 82161  1  0  0  0
 83162  1  0  0  0
 83163  1  0  0  0
 84 85  1  0  0  0
 84 86  1  0  0  0
 84164  1  0  0  0
 84165  1  0  0  0
 85 87  1  0  0  0
 85166  1  0  0  0
 85167  1  0  0  0
 86168  1  0  0  0
 86169  1  0  0  0
 87170  1  0  0  0
M  ISO  4   1 100  68 101  78 100  86 101
M  END
> <chiral flag>
0

> <version>
0

> <s_m_source_file>
/data/baiqing/PycharmProjects/Reinvent-master-3.2/result/LINK_invent/BTK/process_docking_weight1_custom_product_contain_oxygen_bond_distance_aromatic_linkinvent_7_9_3/rearranged_h_0133.sdf

> <i_m_source_file_index>
33

> <r_mmod_Potential_Energy-OPLS-2005>
33.7184371948242

> <r_mmod_Stretch_Energy-OPLS-2005>
39.1611480712891

> <r_mmod_Bend_Energy-OPLS-2005>
107.571983337402

> <r_mmod_Torsional_Energy-OPLS-2005>
214.197463989258

> <r_mmod_Improper_Torsional_Energy-OPLS-2005>
4.81860828399658

> <r_mmod_Van_der_Waal_Energy-OPLS-2005>
163.666625976562

> <r_mmod_Electrostatic_Energy-OPLS-2005>
-334.245147705078

> <r_mmod_Solvation_Energy-OPLS-2005>
-178.386383056641

> <b_mmod_Minimization_Converged-OPLS-2005>
0

> <r_mmod_RMS_Derivative-OPLS-2005>
5.15663242340088

$$$$
33
                    3D
 Structure written by MMmdl.
161169  0  0  1  0            999 V2000
  -30.7094  -14.4909   20.5293 C   0  0  0  0  0  0
  -30.4106  -12.2958   19.4432 C   0  0  0  0  0  0
  -29.5008  -12.5028   18.2135 C   0  0  0  0  0  0
  -28.0122  -12.4028   18.6071 C   0  0  0  0  0  0
  -27.6636  -13.2219   19.8810 C   0  0  2  0  0  0
  -28.7059  -12.9947   20.9987 C   0  0  0  0  0  0
  -25.2577  -13.8193   20.5690 C   0  0  0  0  0  0
  -24.1856  -13.0444   20.9179 C   0  0  0  0  0  0
  -24.6444  -11.6918   20.8768 C   0  0  0  0  0  0
  -23.9118  -10.4298   21.0438 C   0  0  0  0  0  0
  -24.3652   -9.4201   21.9205 C   0  0  0  0  0  0
  -23.6315   -8.2249   22.0775 C   0  0  0  0  0  0
  -22.4292   -8.0306   21.3572 C   0  0  0  0  0  0
  -21.9942   -9.0294   20.4679 C   0  0  0  0  0  0
  -22.7292  -10.2154   20.3092 C   0  0  0  0  0  0
  -21.6848   -6.0756   22.5292 C   0  0  0  0  0  0
  -21.4011   -6.5658   23.8223 C   0  0  0  0  0  0
  -21.3661   -5.6811   24.9184 C   0  0  0  0  0  0
  -21.6032   -4.3073   24.7237 C   0  0  0  0  0  0
  -21.8809   -3.8168   23.4358 C   0  0  0  0  0  0
  -21.9190   -4.6985   22.3416 C   0  0  0  0  0  0
  -22.7873  -13.5231   21.1835 C   0  0  0  0  0  0
  -22.1652   -4.2165   21.0995 F   0  0  0  0  0  0
  -21.5630   -3.4556   25.7749 F   0  0  0  0  0  0
  -30.0320  -13.3056   20.4484 N   0  0  0  0  0  0
  -26.3051  -12.9403   20.3403 N   0  0  0  0  0  0
  -25.9381  -11.6546   20.5816 N   0  0  0  0  0  0
  -22.0514  -12.8242   22.0393 N   0  0  0  0  0  0
  -25.4223  -15.1927   20.4122 N   0  0  0  0  0  0
  -31.8561  -14.5917   20.0856 O   0  0  0  0  0  0
  -21.6644   -6.8910   21.4263 O   0  0  0  0  0  0
  -22.3564  -14.5550   20.6689 O   0  0  0  0  0  0
  -24.6116  -31.8691   23.2130 C   0  0  0  0  0  0
  -25.9024  -32.4830   23.8430 C   0  0  1  0  0  0
  -27.2493  -27.4485   20.1226 C   0  0  0  0  0  0
  -25.5855  -33.8636   24.2333 N   0  0  0  0  0  0
  -23.4006  -30.4880   21.5515 C   0  0  2  0  0  0
  -24.8533  -28.9536   20.1219 C   0  0  0  0  0  0
  -22.7400  -29.4631   22.5005 C   0  0  0  0  0  0
  -18.0257  -28.1376   22.8486 C   0  0  0  0  0  0
  -24.1453  -36.7395   23.2678 C   0  0  0  0  0  0
  -25.9258  -30.8400   21.3658 C   0  0  0  0  0  0
  -26.0083  -29.4730   20.7216 C   0  0  0  0  0  0
  -27.2082  -28.7299   20.7194 C   0  0  0  0  0  0
  -26.0875  -26.9459   19.5044 C   0  0  0  0  0  0
  -24.8893  -27.6866   19.5086 C   0  0  0  0  0  0
  -23.6122  -29.8168   20.1674 C   0  0  0  0  0  0
  -25.4084  -36.3132   24.0334 C   0  0  1  0  0  0
  -20.5832  -28.3647   23.1328 C   0  0  2  0  0  0
  -20.6732  -26.9382   22.5435 C   0  0  0  0  0  0
  -19.5717  -26.6365   21.5230 C   0  0  0  0  0  0
  -18.1891  -26.7920   22.1625 C   0  0  0  0  0  0
  -19.1507  -28.8842   23.2889 C   0  0  0  0  0  0
  -18.9452  -30.1448   23.8896 C   0  0  0  0  0  0
  -17.6454  -30.6578   24.0572 C   0  0  0  0  0  0
  -25.8999  -34.9483   23.5116 C   0  0  0  0  0  0
  -16.5337  -29.9081   23.6349 C   0  0  0  0  0  0
  -16.7250  -28.6502   23.0363 C   0  0  0  0  0  0
  -26.4500  -31.6604   25.0756 C   0  0  0  0  0  0
  -25.3770  -31.3604   26.1472 C   0  0  0  0  0  0
  -27.0469  -30.3097   24.6129 C   0  0  0  0  0  0
  -27.6013  -32.4367   25.7573 C   0  0  0  0  0  0
  -27.5559  -37.1803   24.8447 C   0  0  0  0  0  0
  -21.4128  -29.3003   22.3745 N   0  0  0  0  0  0
  -26.4279  -37.3805   23.9385 N   0  0  0  0  0  0
  -24.6625  -31.0814   22.1016 N   0  0  0  0  0  0
  -23.4192  -28.8198   23.3062 O   0  0  0  0  0  0
  -28.4008  -26.6959   20.0493 O   0  0  0  0  0  0
  -26.5577  -34.8907   22.4679 O   0  0  0  0  0  0
  -23.5330  -32.1420   23.7552 O   0  0  0  0  0  0
  -30.4839  -19.3506   20.3505 C   0  0  0  0  0  0
  -30.1507  -20.6972   20.6001 C   0  0  0  0  0  0
  -28.6432  -19.9790   22.3463 C   0  0  0  0  0  0
  -29.9368  -18.2839   21.1040 C   0  0  0  0  0  0
  -29.2321  -21.0341   21.6138 C   0  0  0  0  0  0
  -28.9734  -18.6186   22.0997 C   0  0  0  0  0  0
  -30.4440  -16.9203   20.7541 C   0  0  0  0  0  0
  -29.9647  -15.6704   21.0046 C   0  0  0  0  0  0
  -28.2925  -17.5605   22.9511 C   0  0  0  0  0  0
  -29.8879  -27.0920   21.9358 C   0  0  0  0  0  0
  -28.9442  -22.5042   21.9749 C   0  0  0  0  0  0
  -28.7812  -23.5003   20.7831 C   0  0  0  0  0  0
  -29.6382  -24.7942   20.8764 C   0  0  0  0  0  0
  -28.9065  -26.1120   21.2597 C   0  0  2  0  0  0
  -31.4624  -12.3458   19.1571 H   0  0  0  0  0  0
  -30.2665  -11.2916   19.8464 H   0  0  0  0  0  0
  -29.7304  -11.7671   17.4421 H   0  0  0  0  0  0
  -29.7001  -13.4798   17.7711 H   0  0  0  0  0  0
  -27.7764  -11.3492   18.7654 H   0  0  0  0  0  0
  -27.3858  -12.7304   17.7774 H   0  0  0  0  0  0
  -27.7080  -14.2754   19.6044 H   0  0  0  0  0  0
  -28.6817  -11.9520   21.3199 H   0  0  0  0  0  0
  -28.4749  -13.5672   21.8957 H   0  0  0  0  0  0
  -25.2798   -9.5640   22.4779 H   0  0  0  0  0  0
  -23.9997   -7.4637   22.7498 H   0  0  0  0  0  0
  -21.0857   -8.8864   19.9006 H   0  0  0  0  0  0
  -22.3784  -10.9715   19.6214 H   0  0  0  0  0  0
  -21.1999   -7.6166   23.9729 H   0  0  0  0  0  0
  -21.1484   -6.0546   25.9082 H   0  0  0  0  0  0
  -22.0583   -2.7631   23.2865 H   0  0  0  0  0  0
  -22.4132  -11.9885   22.4751 H   0  0  0  0  0  0
  -21.1167  -13.1337   22.2669 H   0  0  0  0  0  0
  -24.6462  -15.8357   20.5225 H   0  0  0  0  0  0
  -26.2705  -15.6452   20.0948 H   0  0  0  0  0  0
  -26.7114  -32.5598   23.1220 H   0  0  0  0  0  0
  -24.9939  -33.9803   25.0424 H   0  0  0  0  0  0
  -22.6884  -31.3016   21.4102 H   0  0  0  0  0  0
  -23.3663  -35.9789   23.3360 H   0  0  0  0  0  0
  -24.3518  -36.9035   22.2088 H   0  0  0  0  0  0
  -23.7258  -37.6621   23.6706 H   0  0  0  0  0  0
  -26.0372  -31.6048   20.5971 H   0  0  0  0  0  0
  -26.8123  -30.8977   21.9839 H   0  0  0  0  0  0
  -28.1017  -29.1571   21.1486 H   0  0  0  0  0  0
  -26.1145  -25.9808   19.0175 H   0  0  0  0  0  0
  -24.0067  -27.2808   19.0333 H   0  0  0  0  0  0
  -23.7201  -30.5915   19.4071 H   0  0  0  0  0  0
  -22.7369  -29.2365   19.8700 H   0  0  0  0  0  0
  -25.1263  -36.1999   25.0828 H   0  0  0  0  0  0
  -20.9926  -28.3205   24.1445 H   0  0  0  0  0  0
  -20.5648  -26.2242   23.3611 H   0  0  0  0  0  0
  -21.6598  -26.7407   22.1221 H   0  0  0  0  0  0
  -19.6871  -25.6283   21.1240 H   0  0  0  0  0  0
  -19.6663  -27.3194   20.6781 H   0  0  0  0  0  0
  -17.4158  -26.6701   21.4017 H   0  0  0  0  0  0
  -18.0259  -26.0050   22.9008 H   0  0  0  0  0  0
  -19.7944  -30.7268   24.2231 H   0  0  0  0  0  0
  -17.5024  -31.6255   24.5183 H   0  0  0  0  0  0
  -15.5348  -30.2980   23.7707 H   0  0  0  0  0  0
  -15.8644  -28.0843   22.7063 H   0  0  0  0  0  0
  -24.5841  -30.7141   25.7702 H   0  0  0  0  0  0
  -24.9099  -32.2736   26.5162 H   0  0  0  0  0  0
  -25.8114  -30.8484   27.0079 H   0  0  0  0  0  0
  -26.3022  -29.6661   24.1434 H   0  0  0  0  0  0
  -27.4538  -29.7524   25.4583 H   0  0  0  0  0  0
  -27.8711  -30.4511   23.9138 H   0  0  0  0  0  0
  -27.2571  -33.3624   26.2183 H   0  0  0  0  0  0
  -28.3845  -32.6989   25.0438 H   0  0  0  0  0  0
  -28.0669  -31.8481   26.5488 H   0  0  0  0  0  0
  -28.2582  -38.0098   24.7498 H   0  0  0  0  0  0
  -28.1020  -36.2619   24.6250 H   0  0  0  0  0  0
  -27.2255  -37.1457   25.8845 H   0  0  0  0  0  0
  -20.9317  -29.8692   21.6911 H   0  0  0  0  0  0
  -26.0190  -38.2905   24.1347 H   0  0  0  0  0  0
  -31.1956  -19.1439   19.5644 H   0  0  0  0  0  0
  -30.6330  -21.4700   20.0159 H   0  0  0  0  0  0
  -27.9437  -20.2178   23.1349 H   0  0  0  0  0  0
  -31.3770  -16.9682   20.2075 H   0  0  0  0  0  0
  -29.0415  -15.5498   21.5328 H   0  0  0  0  0  0
  -27.7028  -18.0051   23.7494 H   0  0  0  0  0  0
  -29.0271  -16.9050   23.4199 H   0  0  0  0  0  0
  -27.6075  -16.9693   22.3424 H   0  0  0  0  0  0
  -29.3804  -27.9485   22.3721 H   0  0  0  0  0  0
  -30.6322  -27.4598   21.2281 H   0  0  0  0  0  0
  -30.4212  -26.6127   22.7572 H   0  0  0  0  0  0
  -29.7576  -22.8220   22.6268 H   0  0  0  0  0  0
  -28.0536  -22.5618   22.6053 H   0  0  0  0  0  0
  -27.7301  -23.7467   20.6373 H   0  0  0  0  0  0
  -29.0612  -22.9999   19.8564 H   0  0  0  0  0  0
  -30.1208  -24.9605   19.9121 H   0  0  0  0  0  0
  -30.4724  -24.6156   21.5553 H   0  0  0  0  0  0
  -28.0996  -25.8882   21.9596 H   0  0  0  0  0  0
  1 25  1  0  0  0
  1 30  2  0  0  0
  1 78  1  0  0  0
  2  3  1  0  0  0
  2 25  1  0  0  0
  2 85  1  0  0  0
  2 86  1  0  0  0
  3  4  1  0  0  0
  3 87  1  0  0  0
  3 88  1  0  0  0
  4  5  1  0  0  0
  4 89  1  0  0  0
  4 90  1  0  0  0
  5  6  1  0  0  0
  5 26  1  0  0  0
  5 91  1  0  0  0
  6 25  1  0  0  0
  6 92  1  0  0  0
  6 93  1  0  0  0
  7  8  2  0  0  0
  7 26  1  0  0  0
  7 29  1  0  0  0
  8  9  1  0  0  0
  8 22  1  0  0  0
  9 10  1  0  0  0
  9 27  2  0  0  0
 10 11  2  0  0  0
 10 15  1  0  0  0
 11 12  1  0  0  0
 11 94  1  0  0  0
 12 13  2  0  0  0
 12 95  1  0  0  0
 13 14  1  0  0  0
 13 31  1  0  0  0
 14 15  2  0  0  0
 14 96  1  0  0  0
 15 97  1  0  0  0
 16 17  2  0  0  0
 16 21  1  0  0  0
 16 31  1  0  0  0
 17 18  1  0  0  0
 17 98  1  0  0  0
 18 19  2  0  0  0
 18 99  1  0  0  0
 19 20  1  0  0  0
 19 24  1  0  0  0
 20 21  2  0  0  0
 20100  1  0  0  0
 21 23  1  0  0  0
 22 28  1  0  0  0
 22 32  2  0  0  0
 26 27  1  0  0  0
 28101  1  0  0  0
 28102  1  0  0  0
 29103  1  0  0  0
 29104  1  0  0  0
 33 34  1  0  0  0
 33 66  1  0  0  0
 33 70  2  0  0  0
 34 36  1  0  0  0
 34 59  1  0  0  0
 34105  1  0  0  0
 35 44  2  0  0  0
 35 45  1  0  0  0
 35 68  1  0  0  0
 36 56  1  0  0  0
 36106  1  0  0  0
 37 39  1  0  0  0
 37 47  1  0  0  0
 37 66  1  0  0  0
 37107  1  0  0  0
 38 43  2  0  0  0
 38 46  1  0  0  0
 38 47  1  0  0  0
 39 64  1  0  0  0
 39 67  2  0  0  0
 40 52  1  0  0  0
 40 53  2  0  0  0
 40 58  1  0  0  0
 41108  1  0  0  0
 41109  1  0  0  0
 41110  1  0  0  0
 41 48  1  0  0  0
 42 43  1  0  0  0
 42 66  1  0  0  0
 42111  1  0  0  0
 42112  1  0  0  0
 43 44  1  0  0  0
 44113  1  0  0  0
 45 46  2  0  0  0
 45114  1  0  0  0
 46115  1  0  0  0
 47116  1  0  0  0
 47117  1  0  0  0
 48 56  1  0  0  0
 48 65  1  0  0  0
 48118  1  0  0  0
 49 50  1  0  0  0
 49 53  1  0  0  0
 49 64  1  0  0  0
 49119  1  0  0  0
 50 51  1  0  0  0
 50120  1  0  0  0
 50121  1  0  0  0
 51 52  1  0  0  0
 51122  1  0  0  0
 51123  1  0  0  0
 52124  1  0  0  0
 52125  1  0  0  0
 53 54  1  0  0  0
 54 55  2  0  0  0
 54126  1  0  0  0
 55 57  1  0  0  0
 55127  1  0  0  0
 56 69  2  0  0  0
 57 58  2  0  0  0
 57128  1  0  0  0
 58129  1  0  0  0
 59 60  1  0  0  0
 59 61  1  0  0  0
 59 62  1  0  0  0
 60130  1  0  0  0
 60131  1  0  0  0
 60132  1  0  0  0
 61133  1  0  0  0
 61134  1  0  0  0
 61135  1  0  0  0
 62136  1  0  0  0
 62137  1  0  0  0
 62138  1  0  0  0
 63 65  1  0  0  0
 63139  1  0  0  0
 63140  1  0  0  0
 63141  1  0  0  0
 64142  1  0  0  0
 65143  1  0  0  0
 68 84  1  0  0  0
 71 72  2  0  0  0
 71 74  1  0  0  0
 71144  1  0  0  0
 72 75  1  0  0  0
 72145  1  0  0  0
 73 75  2  0  0  0
 73 76  1  0  0  0
 73146  1  0  0  0
 74 76  2  0  0  0
 74 77  1  0  0  0
 75 81  1  0  0  0
 76 79  1  0  0  0
 77 78  2  0  0  0
 77147  1  0  0  0
 78148  1  0  0  0
 79149  1  0  0  0
 79150  1  0  0  0
 79151  1  0  0  0
 80152  1  0  0  0
 80153  1  0  0  0
 80154  1  0  0  0
 80 84  1  0  0  0
 81 82  1  0  0  0
 81155  1  0  0  0
 81156  1  0  0  0
 82 83  1  0  0  0
 82157  1  0  0  0
 82158  1  0  0  0
 83 84  1  0  0  0
 83159  1  0  0  0
 83160  1  0  0  0
 84161  1  0  0  0
M  ISO  4   1 100  68 101  78 100  84 101
M  END
> <chiral flag>
0

> <version>
0

> <s_m_source_file>
/data/baiqing/PycharmProjects/Reinvent-master-3.2/result/LINK_invent/BTK/process_docking_weight1_custom_product_contain_oxygen_bond_distance_aromatic_linkinvent_7_9_3/rearranged_h_0133.sdf

> <i_m_source_file_index>
34

> <r_mmod_Potential_Energy-OPLS-2005>
18.8227577209473

> <r_mmod_Stretch_Energy-OPLS-2005>
43.5280838012695

> <r_mmod_Bend_Energy-OPLS-2005>
117.102424621582

> <r_mmod_Torsional_Energy-OPLS-2005>
226.52507019043

> <r_mmod_Improper_Torsional_Energy-OPLS-2005>
3.91375517845154

> <r_mmod_Van_der_Waal_Energy-OPLS-2005>
158.394744873047

> <r_mmod_Electrostatic_Energy-OPLS-2005>
-358.710693359375

> <r_mmod_Solvation_Energy-OPLS-2005>
-184.961212158203

> <b_mmod_Minimization_Converged-OPLS-2005>
0

> <r_mmod_RMS_Derivative-OPLS-2005>
3.49391222000122

$$$$
34
                    3D
 Structure written by MMmdl.
177185  0  0  1  0            999 V2000
  -30.7692  -14.4333   20.5556 C   0  0  0  0  0  0
  -30.3950  -12.2986   19.3882 C   0  0  0  0  0  0
  -29.4648  -12.4984   18.1795 C   0  0  0  0  0  0
  -27.9970  -12.3398   18.6224 C   0  0  0  0  0  0
  -27.6534  -13.2058   19.8592 C   0  0  2  0  0  0
  -28.7086  -13.0001   20.9694 C   0  0  0  0  0  0
  -25.2547  -13.8101   20.5683 C   0  0  0  0  0  0
  -24.1755  -13.0396   20.9158 C   0  0  0  0  0  0
  -24.6326  -11.6887   20.8741 C   0  0  0  0  0  0
  -23.9004  -10.4275   21.0419 C   0  0  0  0  0  0
  -24.3568   -9.4185   21.9172 C   0  0  0  0  0  0
  -23.6240   -8.2211   22.0753 C   0  0  0  0  0  0
  -22.4223   -8.0252   21.3564 C   0  0  0  0  0  0
  -21.9851   -9.0198   20.4661 C   0  0  0  0  0  0
  -22.7191  -10.2086   20.3058 C   0  0  0  0  0  0
  -21.6834   -6.0702   22.5267 C   0  0  0  0  0  0
  -21.4006   -6.5631   23.8206 C   0  0  0  0  0  0
  -21.3657   -5.6813   24.9175 C   0  0  0  0  0  0
  -21.6037   -4.3066   24.7258 C   0  0  0  0  0  0
  -21.8814   -3.8133   23.4383 C   0  0  0  0  0  0
  -21.9178   -4.6919   22.3418 C   0  0  0  0  0  0
  -22.7807  -13.5249   21.1783 C   0  0  0  0  0  0
  -22.1651   -4.2134   21.0994 F   0  0  0  0  0  0
  -21.5628   -3.4527   25.7751 F   0  0  0  0  0  0
  -30.0252  -13.3025   20.4007 N   0  0  0  0  0  0
  -26.2984  -12.9302   20.3357 N   0  0  0  0  0  0
  -25.9271  -11.6473   20.5801 N   0  0  0  0  0  0
  -22.0417  -12.8272   22.0408 N   0  0  0  0  0  0
  -25.4149  -15.1753   20.4012 N   0  0  0  0  0  0
  -31.8479  -14.5906   19.9879 O   0  0  0  0  0  0
  -21.6610   -6.8828   21.4249 O   0  0  0  0  0  0
  -22.3533  -14.5562   20.6674 O   0  0  0  0  0  0
  -24.6193  -31.8731   23.2201 C   0  0  0  0  0  0
  -25.9120  -32.4841   23.8434 C   0  0  1  0  0  0
  -27.1905  -27.4030   20.0555 C   0  0  0  0  0  0
  -25.5972  -33.8630   24.2376 N   0  0  0  0  0  0
  -23.4017  -30.5131   21.5657 C   0  0  2  0  0  0
  -24.8298  -28.9931   20.1313 C   0  0  0  0  0  0
  -22.7374  -29.4728   22.4998 C   0  0  0  0  0  0
  -18.0240  -28.1437   22.8487 C   0  0  0  0  0  0
  -24.1498  -36.7301   23.2615 C   0  0  0  0  0  0
  -25.9418  -30.8361   21.3765 C   0  0  0  0  0  0
  -26.0059  -29.4690   20.7179 C   0  0  0  0  0  0
  -27.1949  -28.6885   20.6705 C   0  0  0  0  0  0
  -25.9683  -26.9730   19.4883 C   0  0  0  0  0  0
  -24.8057  -27.7418   19.5224 C   0  0  0  0  0  0
  -23.6074  -29.8731   20.1760 C   0  0  0  0  0  0
  -25.4113  -36.3090   24.0319 C   0  0  1  0  0  0
  -20.5826  -28.3666   23.1266 C   0  0  2  0  0  0
  -20.6718  -26.9360   22.5473 C   0  0  0  0  0  0
  -19.5630  -26.6373   21.5301 C   0  0  0  0  0  0
  -18.1889  -26.7949   22.1765 C   0  0  0  0  0  0
  -19.1508  -28.8878   23.2911 C   0  0  0  0  0  0
  -18.9400  -30.1426   23.9068 C   0  0  0  0  0  0
  -17.6341  -30.6565   24.0705 C   0  0  0  0  0  0
  -25.9015  -34.9476   23.5101 C   0  0  0  0  0  0
  -16.5318  -29.9139   23.6306 C   0  0  0  0  0  0
  -16.7232  -28.6569   23.0296 C   0  0  0  0  0  0
  -26.4547  -31.6571   25.0740 C   0  0  0  0  0  0
  -25.3811  -31.3712   26.1472 C   0  0  0  0  0  0
  -27.0360  -30.3002   24.6118 C   0  0  0  0  0  0
  -27.6069  -32.4282   25.7531 C   0  0  0  0  0  0
  -27.5568  -37.1813   24.8463 C   0  0  0  0  0  0
  -21.4125  -29.3032   22.3668 N   0  0  0  0  0  0
  -26.4300  -37.3772   23.9367 N   0  0  0  0  0  0
  -24.6732  -31.0882   22.1106 N   0  0  0  0  0  0
  -23.4133  -28.8307   23.3079 O   0  0  0  0  0  0
  -28.3789  -26.6775   19.9770 O   0  0  0  0  0  0
  -26.5570  -34.8925   22.4642 O   0  0  0  0  0  0
  -23.5401  -32.1550   23.7590 O   0  0  0  0  0  0
  -26.9166  -17.7231   22.0401 C   0  0  0  0  0  0
  -28.5618  -16.8532   20.4509 C   0  0  0  0  0  0
  -28.5862  -16.1371   22.7849 C   0  0  0  0  0  0
  -27.4688  -17.7076   20.7386 C   0  0  0  0  0  0
  -27.4675  -16.9291   23.0602 C   0  0  0  0  0  0
  -29.1194  -16.0762   21.4912 C   0  0  0  0  0  0
  -27.3948  -18.1737   25.2286 C   0  0  0  0  0  0
  -25.3799  -16.7845   24.4603 C   0  0  0  0  0  0
  -25.0840  -22.8812   18.3659 C   0  0  0  0  0  0
  -26.4475  -21.0876   17.3205 C   0  0  0  0  0  0
  -26.9311  -18.7039   19.7216 C   0  0  0  0  0  0
  -27.4149  -20.1326   20.0699 C   0  0  0  0  0  0
  -27.4378  -24.4187   19.0050 C   0  0  0  0  0  0
  -26.3851  -21.2780   19.8589 C   0  0  0  0  0  0
  -27.6950  -22.9739   18.5105 C   0  0  0  0  0  0
  -28.5065  -25.2285   19.7705 C   0  0  0  0  0  0
  -26.9030  -16.9413   24.4681 C   0  0  0  0  0  0
  -26.4183  -22.0628   18.5198 C   0  0  0  0  0  0
  -30.3550  -15.4143   21.3697 N   0  0  0  0  0  0
  -31.4445  -12.3723   19.0980 H   0  0  0  0  0  0
  -30.2697  -11.2902   19.7890 H   0  0  0  0  0  0
  -29.6942  -11.7727   17.3937 H   0  0  0  0  0  0
  -29.6287  -13.4875   17.7427 H   0  0  0  0  0  0
  -27.8645  -11.2872   18.8778 H   0  0  0  0  0  0
  -27.3245  -12.5478   17.7902 H   0  0  0  0  0  0
  -27.6965  -14.2452   19.5318 H   0  0  0  0  0  0
  -28.6806  -11.9672   21.3098 H   0  0  0  0  0  0
  -28.4818  -13.6051   21.8425 H   0  0  0  0  0  0
  -25.2687   -9.5664   22.4771 H   0  0  0  0  0  0
  -23.9909   -7.4648   22.7498 H   0  0  0  0  0  0
  -21.0760   -8.8733   19.9004 H   0  0  0  0  0  0
  -22.3619  -10.9606   19.6179 H   0  0  0  0  0  0
  -21.2025   -7.6140   23.9713 H   0  0  0  0  0  0
  -21.1473   -6.0534   25.9091 H   0  0  0  0  0  0
  -22.0590   -2.7581   23.2888 H   0  0  0  0  0  0
  -22.3966  -11.9962   22.4861 H   0  0  0  0  0  0
  -21.1052  -13.1363   22.2550 H   0  0  0  0  0  0
  -24.6630  -15.8355   20.5635 H   0  0  0  0  0  0
  -26.3216  -15.6224   20.2946 H   0  0  0  0  0  0
  -26.7193  -32.5564   23.1170 H   0  0  0  0  0  0
  -25.0228  -33.9800   25.0605 H   0  0  0  0  0  0
  -22.6965  -31.3380   21.4430 H   0  0  0  0  0  0
  -23.3714  -35.9665   23.3305 H   0  0  0  0  0  0
  -24.3624  -36.8897   22.2024 H   0  0  0  0  0  0
  -23.7325  -37.6532   23.6648 H   0  0  0  0  0  0
  -26.0656  -31.6107   20.6160 H   0  0  0  0  0  0
  -26.8294  -30.8745   21.9953 H   0  0  0  0  0  0
  -28.1100  -29.0728   21.1053 H   0  0  0  0  0  0
  -25.7949  -26.0765   18.9480 H   0  0  0  0  0  0
  -23.8990  -27.3611   19.0754 H   0  0  0  0  0  0
  -23.7448  -30.6662   19.4398 H   0  0  0  0  0  0
  -22.7224  -29.3210   19.8494 H   0  0  0  0  0  0
  -25.1297  -36.1895   25.0823 H   0  0  0  0  0  0
  -21.0043  -28.3300   24.1356 H   0  0  0  0  0  0
  -21.6612  -26.7437   22.1295 H   0  0  0  0  0  0
  -20.5670  -26.2225   23.3699 H   0  0  0  0  0  0
  -19.6650  -27.2938   20.6690 H   0  0  0  0  0  0
  -19.6713  -25.6273   21.1339 H   0  0  0  0  0  0
  -17.4026  -26.6618   21.4303 H   0  0  0  0  0  0
  -18.0508  -26.0251   22.9411 H   0  0  0  0  0  0
  -19.7800  -30.7207   24.2711 H   0  0  0  0  0  0
  -17.4830  -31.6126   24.5538 H   0  0  0  0  0  0
  -15.5316  -30.2985   23.7721 H   0  0  0  0  0  0
  -15.8583  -28.0921   22.7200 H   0  0  0  0  0  0
  -24.5953  -30.7097   25.7865 H   0  0  0  0  0  0
  -24.9041  -32.2876   26.4922 H   0  0  0  0  0  0
  -25.8141  -30.8898   27.0225 H   0  0  0  0  0  0
  -26.2952  -29.6769   24.1118 H   0  0  0  0  0  0
  -27.4077  -29.7222   25.4576 H   0  0  0  0  0  0
  -27.8788  -30.4301   23.9329 H   0  0  0  0  0  0
  -27.2647  -33.3530   26.2156 H   0  0  0  0  0  0
  -28.3867  -32.6902   25.0390 H   0  0  0  0  0  0
  -28.0728  -31.8378   26.5417 H   0  0  0  0  0  0
  -28.2579  -38.0119   24.7467 H   0  0  0  0  0  0
  -28.1081  -36.2630   24.6326 H   0  0  0  0  0  0
  -27.2290  -37.1500   25.8882 H   0  0  0  0  0  0
  -20.9407  -29.8542   21.6596 H   0  0  0  0  0  0
  -26.0139  -38.2810   24.1411 H   0  0  0  0  0  0
  -26.0924  -18.3776   22.2854 H   0  0  0  0  0  0
  -29.0094  -16.8269   19.4694 H   0  0  0  0  0  0
  -29.0661  -15.6073   23.5923 H   0  0  0  0  0  0
  -27.0323  -19.0980   24.7747 H   0  0  0  0  0  0
  -28.4886  -18.2167   25.2327 H   0  0  0  0  0  0
  -27.0649  -18.1273   26.2626 H   0  0  0  0  0  0
  -25.1009  -15.8798   23.9053 H   0  0  0  0  0  0
  -24.8708  -17.6360   23.9965 H   0  0  0  0  0  0
  -25.0190  -16.6948   25.4828 H   0  0  0  0  0  0
  -24.3197  -22.3448   17.8005 H   0  0  0  0  0  0
  -25.2144  -23.8171   17.8262 H   0  0  0  0  0  0
  -24.6356  -23.1156   19.3359 H   0  0  0  0  0  0
  -25.6566  -20.3389   17.3924 H   0  0  0  0  0  0
  -27.3913  -20.5442   17.2520 H   0  0  0  0  0  0
  -26.3178  -21.6208   16.3748 H   0  0  0  0  0  0
  -27.2360  -18.4410   18.6986 H   0  0  0  0  0  0
  -25.8368  -18.6799   19.7381 H   0  0  0  0  0  0
  -28.3665  -20.3203   19.5831 H   0  0  0  0  0  0
  -27.6132  -20.1465   21.1454 H   0  0  0  0  0  0
  -26.6013  -24.3662   19.6990 H   0  0  0  0  0  0
  -27.1782  -24.9622   18.0957 H   0  0  0  0  0  0
  -26.5335  -21.9882   20.6681 H   0  0  0  0  0  0
  -25.3828  -20.8869   20.0400 H   0  0  0  0  0  0
  -28.5007  -22.5217   19.0888 H   0  0  0  0  0  0
  -28.0934  -23.0254   17.4919 H   0  0  0  0  0  0
  -29.4403  -25.0831   19.2340 H   0  0  0  0  0  0
  -28.6556  -24.7602   20.7414 H   0  0  0  0  0  0
  -27.2933  -16.0671   24.9821 H   0  0  0  0  0  0
  -31.1208  -16.0443   21.5724 H   0  0  0  0  0  0
  1 25  1  0  0  0
  1 30  2  0  0  0
  1 89  1  0  0  0
  2  3  1  0  0  0
  2 25  1  0  0  0
  2 90  1  0  0  0
  2 91  1  0  0  0
  3  4  1  0  0  0
  3 92  1  0  0  0
  3 93  1  0  0  0
  4  5  1  0  0  0
  4 94  1  0  0  0
  4 95  1  0  0  0
  5  6  1  0  0  0
  5 26  1  0  0  0
  5 96  1  0  0  0
  6 25  1  0  0  0
  6 97  1  0  0  0
  6 98  1  0  0  0
  7  8  2  0  0  0
  7 26  1  0  0  0
  7 29  1  0  0  0
  8  9  1  0  0  0
  8 22  1  0  0  0
  9 10  1  0  0  0
  9 27  2  0  0  0
 10 11  2  0  0  0
 10 15  1  0  0  0
 11 12  1  0  0  0
 11 99  1  0  0  0
 12 13  2  0  0  0
 12100  1  0  0  0
 13 14  1  0  0  0
 13 31  1  0  0  0
 14 15  2  0  0  0
 14101  1  0  0  0
 15102  1  0  0  0
 16 17  2  0  0  0
 16 21  1  0  0  0
 16 31  1  0  0  0
 17 18  1  0  0  0
 17103  1  0  0  0
 18 19  2  0  0  0
 18104  1  0  0  0
 19 20  1  0  0  0
 19 24  1  0  0  0
 20 21  2  0  0  0
 20105  1  0  0  0
 21 23  1  0  0  0
 22 28  1  0  0  0
 22 32  2  0  0  0
 26 27  1  0  0  0
 28106  1  0  0  0
 28107  1  0  0  0
 29108  1  0  0  0
 29109  1  0  0  0
 33 34  1  0  0  0
 33 66  1  0  0  0
 33 70  2  0  0  0
 34 36  1  0  0  0
 34 59  1  0  0  0
 34110  1  0  0  0
 35 44  2  0  0  0
 35 45  1  0  0  0
 35 68  1  0  0  0
 36 56  1  0  0  0
 36111  1  0  0  0
 37 39  1  0  0  0
 37 47  1  0  0  0
 37 66  1  0  0  0
 37112  1  0  0  0
 38 43  2  0  0  0
 38 46  1  0  0  0
 38 47  1  0  0  0
 39 64  1  0  0  0
 39 67  2  0  0  0
 40 52  1  0  0  0
 40 53  2  0  0  0
 40 58  1  0  0  0
 41113  1  0  0  0
 41114  1  0  0  0
 41115  1  0  0  0
 41 48  1  0  0  0
 42 43  1  0  0  0
 42 66  1  0  0  0
 42116  1  0  0  0
 42117  1  0  0  0
 43 44  1  0  0  0
 44118  1  0  0  0
 45 46  2  0  0  0
 45119  1  0  0  0
 46120  1  0  0  0
 47121  1  0  0  0
 47122  1  0  0  0
 48 56  1  0  0  0
 48 65  1  0  0  0
 48123  1  0  0  0
 49 50  1  0  0  0
 49 53  1  0  0  0
 49 64  1  0  0  0
 49124  1  0  0  0
 50 51  1  0  0  0
 50125  1  0  0  0
 50126  1  0  0  0
 51 52  1  0  0  0
 51127  1  0  0  0
 51128  1  0  0  0
 52129  1  0  0  0
 52130  1  0  0  0
 53 54  1  0  0  0
 54 55  2  0  0  0
 54131  1  0  0  0
 55 57  1  0  0  0
 55132  1  0  0  0
 56 69  2  0  0  0
 57 58  2  0  0  0
 57133  1  0  0  0
 58134  1  0  0  0
 59 60  1  0  0  0
 59 61  1  0  0  0
 59 62  1  0  0  0
 60135  1  0  0  0
 60136  1  0  0  0
 60137  1  0  0  0
 61138  1  0  0  0
 61139  1  0  0  0
 61140  1  0  0  0
 62141  1  0  0  0
 62142  1  0  0  0
 62143  1  0  0  0
 63 65  1  0  0  0
 63144  1  0  0  0
 63145  1  0  0  0
 63146  1  0  0  0
 64147  1  0  0  0
 65148  1  0  0  0
 68 86  1  0  0  0
 71 74  2  0  0  0
 71 75  1  0  0  0
 71149  1  0  0  0
 72 74  1  0  0  0
 72 76  2  0  0  0
 72150  1  0  0  0
 73 75  2  0  0  0
 73 76  1  0  0  0
 73151  1  0  0  0
 74 81  1  0  0  0
 75 87  1  0  0  0
 76 89  1  0  0  0
 77152  1  0  0  0
 77153  1  0  0  0
 77154  1  0  0  0
 77 87  1  0  0  0
 78 87  1  0  0  0
 78155  1  0  0  0
 78156  1  0  0  0
 78157  1  0  0  0
 79158  1  0  0  0
 79159  1  0  0  0
 79160  1  0  0  0
 79 88  1  0  0  0
 80 88  1  0  0  0
 80161  1  0  0  0
 80162  1  0  0  0
 80163  1  0  0  0
 81 82  1  0  0  0
 81164  1  0  0  0
 81165  1  0  0  0
 82 84  1  0  0  0
 82166  1  0  0  0
 82167  1  0  0  0
 83 85  1  0  0  0
 83 86  1  0  0  0
 83168  1  0  0  0
 83169  1  0  0  0
 84 88  1  0  0  0
 84170  1  0  0  0
 84171  1  0  0  0
 85 88  1  0  0  0
 85172  1  0  0  0
 85173  1  0  0  0
 86174  1  0  0  0
 86175  1  0  0  0
 87176  1  0  0  0
 89177  1  0  0  0
M  ISO  4   1 100  68 101  86 101  89 100
M  END
> <chiral flag>
0

> <version>
0

> <s_m_source_file>
/data/baiqing/PycharmProjects/Reinvent-master-3.2/result/LINK_invent/BTK/process_docking_weight1_custom_product_contain_oxygen_bond_distance_aromatic_linkinvent_7_9_3/rearranged_h_0133.sdf

> <i_m_source_file_index>
35

> <r_mmod_Potential_Energy-OPLS-2005>
127.59398651123

> <r_mmod_Stretch_Energy-OPLS-2005>
46.091236114502

> <r_mmod_Bend_Energy-OPLS-2005>
186.767486572266

> <r_mmod_Torsional_Energy-OPLS-2005>
293.588348388672

> <r_mmod_Improper_Torsional_Energy-OPLS-2005>
6.45346164703369

> <r_mmod_Van_der_Waal_Energy-OPLS-2005>
172.770095825195

> <r_mmod_Electrostatic_Energy-OPLS-2005>
-427.232543945312

> <r_mmod_Solvation_Energy-OPLS-2005>
-169.450073242188

> <b_mmod_Minimization_Converged-OPLS-2005>
0

> <r_mmod_RMS_Derivative-OPLS-2005>
14.5058221817017

$$$$
35
                    3D
 Structure written by MMmdl.
176185  0  0  1  0            999 V2000
  -29.8439  -15.1472   20.7222 C   0  0  0  0  0  0
  -30.4021  -12.8205   19.5990 C   0  0  0  0  0  0
  -29.5279  -12.6218   18.3223 C   0  0  0  0  0  0
  -28.0583  -12.2911   18.6706 C   0  0  0  0  0  0
  -27.5620  -13.1831   19.8309 C   0  0  2  0  0  0
  -28.5165  -13.0935   21.0232 C   0  0  0  0  0  0
  -25.1952  -13.7966   20.5334 C   0  0  0  0  0  0
  -24.1414  -13.0255   20.9174 C   0  0  0  0  0  0
  -24.6049  -11.6760   20.8741 C   0  0  0  0  0  0
  -23.8840  -10.4189   21.0458 C   0  0  0  0  0  0
  -24.3487   -9.4142   21.9204 C   0  0  0  0  0  0
  -23.6219   -8.2158   22.0744 C   0  0  0  0  0  0
  -22.4194   -8.0195   21.3537 C   0  0  0  0  0  0
  -21.9786   -9.0141   20.4634 C   0  0  0  0  0  0
  -22.7059  -10.2035   20.3067 C   0  0  0  0  0  0
  -21.6827   -6.0689   22.5287 C   0  0  0  0  0  0
  -21.4007   -6.5622   23.8217 C   0  0  0  0  0  0
  -21.3642   -5.6782   24.9184 C   0  0  0  0  0  0
  -21.6028   -4.3044   24.7241 C   0  0  0  0  0  0
  -21.8820   -3.8120   23.4373 C   0  0  0  0  0  0
  -21.9192   -4.6925   22.3421 C   0  0  0  0  0  0
  -22.7519  -13.5099   21.1964 C   0  0  0  0  0  0
  -22.1656   -4.2118   21.0996 F   0  0  0  0  0  0
  -21.5619   -3.4529   25.7755 F   0  0  0  0  0  0
  -29.7033  -13.7571   20.5560 N   0  0  0  0  0  0
  -26.2247  -12.9080   20.2768 N   0  0  0  0  0  0
  -25.8864  -11.6298   20.5516 N   0  0  0  0  0  0
  -22.0261  -12.8108   22.0591 N   0  0  0  0  0  0
  -25.3358  -15.1677   20.3540 N   0  0  0  0  0  0
  -30.9951  -15.5112   20.3711 O   0  0  0  0  0  0
  -21.6592   -6.8784   21.4228 O   0  0  0  0  0  0
  -22.3222  -14.5430   20.6845 O   0  0  0  0  0  0
  -24.6628  -31.9381   23.2360 C   0  0  0  0  0  0
  -25.9536  -32.5080   23.8685 C   0  0  1  0  0  0
  -26.1223  -27.2329   20.3974 C   0  0  0  0  0  0
  -25.6421  -33.8841   24.2611 N   0  0  0  0  0  0
  -23.4739  -30.5981   21.5920 C   0  0  2  0  0  0
  -24.8820  -29.3736   19.7833 C   0  0  0  0  0  0
  -23.0817  -29.4922   22.6154 C   0  0  0  0  0  0
  -18.5651  -27.8079   22.4350 C   0  0  0  0  0  0
  -24.1530  -36.7351   23.2591 C   0  0  0  0  0  0
  -26.0006  -30.8446   21.4398 C   0  0  0  0  0  0
  -25.9383  -29.5452   20.6760 C   0  0  0  0  0  0
  -26.7553  -28.4198   20.8859 C   0  0  0  0  0  0
  -25.8889  -27.2716   19.0540 C   0  0  0  0  0  0
  -24.9982  -28.3320   18.8117 C   0  0  0  0  0  0
  -23.6367  -30.1832   20.0807 C   0  0  0  0  0  0
  -25.4147  -36.3213   24.0320 C   0  0  1  0  0  0
  -21.3104  -28.0912   23.4919 C   0  0  2  0  0  0
  -22.1671  -26.3803   22.7150 C   0  0  0  0  0  0
  -20.6480  -25.4152   21.2821 C   0  0  0  0  0  0
  -18.8726  -26.3689   21.4066 C   0  0  0  0  0  0
  -19.6152  -28.5273   23.2735 C   0  0  0  0  0  0
  -19.1859  -29.7576   23.9194 C   0  0  0  0  0  0
  -17.8616  -30.2626   23.9456 C   0  0  0  0  0  0
  -25.9175  -34.9600   23.5176 C   0  0  0  0  0  0
  -16.8509  -29.5069   23.3427 C   0  0  0  0  0  0
  -17.2061  -28.3229   22.6221 C   0  0  0  0  0  0
  -26.4665  -31.6660   25.0971 C   0  0  0  0  0  0
  -25.3799  -31.3780   26.1582 C   0  0  0  0  0  0
  -27.0432  -30.3028   24.6451 C   0  0  0  0  0  0
  -27.6219  -32.4287   25.7824 C   0  0  0  0  0  0
  -27.5604  -37.1894   24.8477 C   0  0  0  0  0  0
  -21.8445  -29.3795   23.0159 N   0  0  0  0  0  0
  -26.4320  -37.3896   23.9422 N   0  0  0  0  0  0
  -24.7271  -31.1908   22.1076 N   0  0  0  0  0  0
  -23.9014  -28.7755   23.1697 O   0  0  0  0  0  0
  -24.7941  -26.9923   20.9585 O   0  0  0  0  0  0
  -26.5513  -34.8998   22.4606 O   0  0  0  0  0  0
  -23.5780  -32.2054   23.7786 O   0  0  0  0  0  0
  -23.2450  -22.7471   25.7242 C   0  0  0  0  0  0
  -23.0206  -23.6940   24.7074 C   0  0  0  0  0  0
  -22.9498  -20.9430   24.1553 C   0  0  0  0  0  0
  -23.0637  -21.3775   25.4800 C   0  0  0  0  0  0
  -22.4563  -23.3306   23.4509 C   0  0  0  0  0  0
  -23.0444  -21.8748   23.1061 C   0  0  0  0  0  0
  -26.3882  -19.9714   20.5166 C   0  0  0  0  0  0
  -27.3892  -18.7217   20.2095 C   0  0  0  0  0  0
  -26.2198  -18.4011   22.1719 C   0  0  0  0  0  0
  -25.6735  -20.0377   21.9398 C   0  0  2  0  0  0
  -27.7231  -17.8442   21.4584 C   0  0  1  0  0  0
  -23.1251  -20.3687   26.6104 C   0  0  0  0  0  0
  -20.4042  -27.8601   19.7661 C   0  0  0  0  0  0
  -24.1217  -21.0771   21.9524 C   0  0  0  0  0  0
  -20.8491  -24.1656   23.5815 C   0  0  0  0  0  0
  -28.4837  -16.1634   21.3500 C   0  0  0  0  0  0
  -20.1115  -25.9691   23.3915 C   0  0  0  0  0  0
  -23.0194  -27.2304   20.5128 C   0  0  0  0  0  0
  -21.0878  -27.6048   21.1888 C   0  0  1  0  0  0
  -31.3781  -13.2147   19.3174 H   0  0  0  0  0  0
  -30.5967  -11.8631   20.0842 H   0  0  0  0  0  0
  -29.9534  -11.8520   17.6774 H   0  0  0  0  0  0
  -29.5487  -13.5477   17.7462 H   0  0  0  0  0  0
  -27.9946  -11.2404   18.9580 H   0  0  0  0  0  0
  -27.4192  -12.4095   17.7948 H   0  0  0  0  0  0
  -27.5428  -14.1878   19.4114 H   0  0  0  0  0  0
  -28.7036  -12.0575   21.3095 H   0  0  0  0  0  0
  -28.1017  -13.5677   21.9126 H   0  0  0  0  0  0
  -25.2635   -9.5679   22.4757 H   0  0  0  0  0  0
  -23.9972   -7.4549   22.7436 H   0  0  0  0  0  0
  -21.0731   -8.8611   19.8938 H   0  0  0  0  0  0
  -22.3492  -10.9568   19.6180 H   0  0  0  0  0  0
  -21.2003   -7.6134   23.9717 H   0  0  0  0  0  0
  -21.1457   -6.0513   25.9085 H   0  0  0  0  0  0
  -22.0618   -2.7587   23.2883 H   0  0  0  0  0  0
  -22.3944  -11.9744   22.4896 H   0  0  0  0  0  0
  -21.0913  -13.1134   22.2917 H   0  0  0  0  0  0
  -24.5566  -15.8025   20.4805 H   0  0  0  0  0  0
  -26.1570  -15.6260   19.9826 H   0  0  0  0  0  0
  -26.7663  -32.5612   23.1472 H   0  0  0  0  0  0
  -25.0796  -34.0014   25.0906 H   0  0  0  0  0  0
  -22.6868  -31.3551   21.6073 H   0  0  0  0  0  0
  -23.3812  -35.9669   23.3257 H   0  0  0  0  0  0
  -24.3654  -36.8939   22.2013 H   0  0  0  0  0  0
  -23.7263  -37.6558   23.6572 H   0  0  0  0  0  0
  -26.2509  -31.6449   20.7442 H   0  0  0  0  0  0
  -26.8476  -30.7512   22.1075 H   0  0  0  0  0  0
  -27.4751  -28.3982   21.6926 H   0  0  0  0  0  0
  -25.7805  -26.3733   18.4614 H   0  0  0  0  0  0
  -24.3106  -28.2684   17.9786 H   0  0  0  0  0  0
  -23.7431  -31.1015   19.5006 H   0  0  0  0  0  0
  -22.7332  -29.7302   19.6922 H   0  0  0  0  0  0
  -25.1291  -36.2081   25.0799 H   0  0  0  0  0  0
  -21.5134  -28.0927   24.5647 H   0  0  0  0  0  0
  -22.4000  -25.8900   23.6388 H   0  0  0  0  0  0
  -23.2335  -26.3269   22.5452 H   0  0  0  0  0  0
  -20.5316  -24.3353   21.2754 H   0  0  0  0  0  0
  -21.0008  -25.4016   20.2508 H   0  0  0  0  0  0
  -18.4406  -26.5288   20.4192 H   0  0  0  0  0  0
  -18.1439  -25.6247   21.7377 H   0  0  0  0  0  0
  -19.9238  -30.3165   24.4810 H   0  0  0  0  0  0
  -17.6317  -31.1820   24.4666 H   0  0  0  0  0  0
  -15.8194  -29.8333   23.3863 H   0  0  0  0  0  0
  -16.4051  -27.7960   22.1235 H   0  0  0  0  0  0
  -24.6064  -30.7073   25.7839 H   0  0  0  0  0  0
  -24.8918  -32.2931   26.4933 H   0  0  0  0  0  0
  -25.8054  -30.9005   27.0421 H   0  0  0  0  0  0
  -26.3054  -29.6920   24.1258 H   0  0  0  0  0  0
  -27.3811  -29.7130   25.4985 H   0  0  0  0  0  0
  -27.9106  -30.4198   23.9947 H   0  0  0  0  0  0
  -27.2881  -33.3620   26.2373 H   0  0  0  0  0  0
  -28.4130  -32.6782   25.0739 H   0  0  0  0  0  0
  -28.0792  -31.8401   26.5795 H   0  0  0  0  0  0
  -28.2598  -38.0210   24.7532 H   0  0  0  0  0  0
  -28.1115  -36.2734   24.6279 H   0  0  0  0  0  0
  -27.2324  -37.1529   25.8882 H   0  0  0  0  0  0
  -21.1671  -30.0605   22.7003 H   0  0  0  0  0  0
  -26.0183  -38.2953   24.1471 H   0  0  0  0  0  0
  -23.4537  -23.0939   26.7267 H   0  0  0  0  0  0
  -22.9136  -24.6832   25.1210 H   0  0  0  0  0  0
  -23.0868  -19.8878   23.9602 H   0  0  0  0  0  0
  -25.6141  -19.9450   19.7489 H   0  0  0  0  0  0
  -26.9154  -20.9080   20.3342 H   0  0  0  0  0  0
  -28.3096  -19.0789   19.7406 H   0  0  0  0  0  0
  -26.9159  -18.0774   19.4648 H   0  0  0  0  0  0
  -25.4314  -17.7493   21.7923 H   0  0  0  0  0  0
  -26.2469  -18.2007   23.2418 H   0  0  0  0  0  0
  -26.3442  -20.6125   22.5795 H   0  0  0  0  0  0
  -28.4866  -18.4029   22.0003 H   0  0  0  0  0  0
  -22.7979  -20.8134   27.5513 H   0  0  0  0  0  0
  -24.1419  -19.9969   26.7397 H   0  0  0  0  0  0
  -22.4732  -19.5191   26.3994 H   0  0  0  0  0  0
  -19.4245  -28.3376   19.8353 H   0  0  0  0  0  0
  -20.2961  -26.9841   19.1284 H   0  0  0  0  0  0
  -20.9785  -28.5612   19.1586 H   0  0  0  0  0  0
  -24.4099  -21.9298   21.3382 H   0  0  0  0  0  0
  -23.4279  -20.5339   21.3092 H   0  0  0  0  0  0
  -20.5881  -23.9579   24.6195 H   0  0  0  0  0  0
  -20.1517  -23.4778   23.0999 H   0  0  0  0  0  0
  -27.6356  -15.6040   21.0109 H   0  0  0  0  0  0
  -28.5333  -15.8926   22.4037 H   0  0  0  0  0  0
  -20.3151  -26.2979   24.4165 H   0  0  0  0  0  0
  -19.0489  -25.8189   23.6218 H   0  0  0  0  0  0
  -22.9223  -27.6063   19.5098 H   0  0  0  0  0  0
  -22.9330  -26.1899   20.2120 H   0  0  0  0  0  0
  -20.8650  -28.6607   21.2149 H   0  0  0  0  0  0
  1 25  1  0  0  0
  1 30  2  0  0  0
  1 86  1  0  0  0
  2  3  1  0  0  0
  2 25  1  0  0  0
  2 90  1  0  0  0
  2 91  1  0  0  0
  3  4  1  0  0  0
  3 92  1  0  0  0
  3 93  1  0  0  0
  4  5  1  0  0  0
  4 94  1  0  0  0
  4 95  1  0  0  0
  5  6  1  0  0  0
  5 26  1  0  0  0
  5 96  1  0  0  0
  6 25  1  0  0  0
  6 97  1  0  0  0
  6 98  1  0  0  0
  7  8  2  0  0  0
  7 26  1  0  0  0
  7 29  1  0  0  0
  8  9  1  0  0  0
  8 22  1  0  0  0
  9 10  1  0  0  0
  9 27  2  0  0  0
 10 11  2  0  0  0
 10 15  1  0  0  0
 11 12  1  0  0  0
 11 99  1  0  0  0
 12 13  2  0  0  0
 12100  1  0  0  0
 13 14  1  0  0  0
 13 31  1  0  0  0
 14 15  2  0  0  0
 14101  1  0  0  0
 15102  1  0  0  0
 16 17  2  0  0  0
 16 21  1  0  0  0
 16 31  1  0  0  0
 17 18  1  0  0  0
 17103  1  0  0  0
 18 19  2  0  0  0
 18104  1  0  0  0
 19 20  1  0  0  0
 19 24  1  0  0  0
 20 21  2  0  0  0
 20105  1  0  0  0
 21 23  1  0  0  0
 22 28  1  0  0  0
 22 32  2  0  0  0
 26 27  1  0  0  0
 28106  1  0  0  0
 28107  1  0  0  0
 29108  1  0  0  0
 29109  1  0  0  0
 33 34  1  0  0  0
 33 66  1  0  0  0
 33 70  2  0  0  0
 34 36  1  0  0  0
 34 59  1  0  0  0
 34110  1  0  0  0
 35 44  2  0  0  0
 35 45  1  0  0  0
 35 68  1  0  0  0
 36 56  1  0  0  0
 36111  1  0  0  0
 37 39  1  0  0  0
 37 47  1  0  0  0
 37 66  1  0  0  0
 37112  1  0  0  0
 38 43  2  0  0  0
 38 46  1  0  0  0
 38 47  1  0  0  0
 39 64  1  0  0  0
 39 67  2  0  0  0
 40 52  1  0  0  0
 40 53  2  0  0  0
 40 58  1  0  0  0
 41113  1  0  0  0
 41114  1  0  0  0
 41115  1  0  0  0
 41 48  1  0  0  0
 42 43  1  0  0  0
 42 66  1  0  0  0
 42116  1  0  0  0
 42117  1  0  0  0
 43 44  1  0  0  0
 44118  1  0  0  0
 45 46  2  0  0  0
 45119  1  0  0  0
 46120  1  0  0  0
 47121  1  0  0  0
 47122  1  0  0  0
 48 56  1  0  0  0
 48 65  1  0  0  0
 48123  1  0  0  0
 49 50  1  0  0  0
 49 53  1  0  0  0
 49 64  1  0  0  0
 49124  1  0  0  0
 50 51  1  0  0  0
 50125  1  0  0  0
 50126  1  0  0  0
 51 52  1  0  0  0
 51127  1  0  0  0
 51128  1  0  0  0
 52129  1  0  0  0
 52130  1  0  0  0
 53 54  1  0  0  0
 54 55  2  0  0  0
 54131  1  0  0  0
 55 57  1  0  0  0
 55132  1  0  0  0
 56 69  2  0  0  0
 57 58  2  0  0  0
 57133  1  0  0  0
 58134  1  0  0  0
 59 60  1  0  0  0
 59 61  1  0  0  0
 59 62  1  0  0  0
 60135  1  0  0  0
 60136  1  0  0  0
 60137  1  0  0  0
 61138  1  0  0  0
 61139  1  0  0  0
 61140  1  0  0  0
 62141  1  0  0  0
 62142  1  0  0  0
 62143  1  0  0  0
 63 65  1  0  0  0
 63144  1  0  0  0
 63145  1  0  0  0
 63146  1  0  0  0
 64147  1  0  0  0
 65148  1  0  0  0
 68 88  1  0  0  0
 71 72  2  0  0  0
 71 74  1  0  0  0
 71149  1  0  0  0
 72 75  1  0  0  0
 72150  1  0  0  0
 73 74  2  0  0  0
 73 76  1  0  0  0
 73151  1  0  0  0
 74 82  1  0  0  0
 75 76  2  0  0  0
 75 85  1  0  0  0
 76 84  1  0  0  0
 77 78  1  0  0  0
 77 80  1  0  0  0
 77152  1  0  0  0
 77153  1  0  0  0
 78 81  1  0  0  0
 78154  1  0  0  0
 78155  1  0  0  0
 79 80  1  0  0  0
 79 81  1  0  0  0
 79156  1  0  0  0
 79157  1  0  0  0
 80 84  1  0  0  0
 80158  1  0  0  0
 81 86  1  0  0  0
 81159  1  0  0  0
 82160  1  0  0  0
 82161  1  0  0  0
 82162  1  0  0  0
 83163  1  0  0  0
 83164  1  0  0  0
 83165  1  0  0  0
 83 89  1  0  0  0
 84166  1  0  0  0
 84167  1  0  0  0
 85 87  1  0  0  0
 85168  1  0  0  0
 85169  1  0  0  0
 86170  1  0  0  0
 86171  1  0  0  0
 87 89  1  0  0  0
 87172  1  0  0  0
 87173  1  0  0  0
 88 89  1  0  0  0
 88174  1  0  0  0
 88175  1  0  0  0
 89176  1  0  0  0
M  ISO  4   1 100  68 101  86 100  88 101
M  END
> <chiral flag>
0

> <version>
0

> <s_m_source_file>
/data/baiqing/PycharmProjects/Reinvent-master-3.2/result/LINK_invent/BTK/process_docking_weight1_custom_product_contain_oxygen_bond_distance_aromatic_linkinvent_7_9_3/rearranged_h_0133.sdf

> <i_m_source_file_index>
36

> <r_mmod_Potential_Energy-OPLS-2005>
12018.2578125

> <r_mmod_Stretch_Energy-OPLS-2005>
5293.2890625

> <r_mmod_Bend_Energy-OPLS-2005>
1317.63134765625

> <r_mmod_Torsional_Energy-OPLS-2005>
706.70068359375

> <r_mmod_Improper_Torsional_Energy-OPLS-2005>
63.496208190918

> <r_mmod_Van_der_Waal_Energy-OPLS-2005>
1930.173828125

> <r_mmod_Electrostatic_Energy-OPLS-2005>
-308.207916259766

> <r_mmod_Solvation_Energy-OPLS-2005>
-180.296127319336

> <b_mmod_Minimization_Converged-OPLS-2005>
0

> <r_mmod_RMS_Derivative-OPLS-2005>
6.38343334197998

$$$$
36
                    3D
 Structure written by MMmdl.
163171  0  0  1  0            999 V2000
  -30.7759  -14.4036   20.5827 C   0  0  0  0  0  0
  -30.4083  -12.2732   19.4052 C   0  0  0  0  0  0
  -29.4800  -12.4881   18.1950 C   0  0  0  0  0  0
  -28.0073  -12.3548   18.6208 C   0  0  0  0  0  0
  -27.6647  -13.2100   19.8697 C   0  0  2  0  0  0
  -28.7136  -13.0195   20.9907 C   0  0  0  0  0  0
  -25.2615  -13.8178   20.5699 C   0  0  0  0  0  0
  -24.1867  -13.0451   20.9173 C   0  0  0  0  0  0
  -24.6422  -11.6917   20.8743 C   0  0  0  0  0  0
  -23.9090  -10.4295   21.0397 C   0  0  0  0  0  0
  -24.3631   -9.4209   21.9183 C   0  0  0  0  0  0
  -23.6297   -8.2251   22.0755 C   0  0  0  0  0  0
  -22.4287   -8.0289   21.3540 C   0  0  0  0  0  0
  -21.9930   -9.0261   20.4642 C   0  0  0  0  0  0
  -22.7260  -10.2137   20.3045 C   0  0  0  0  0  0
  -21.6851   -6.0748   22.5278 C   0  0  0  0  0  0
  -21.4020   -6.5650   23.8220 C   0  0  0  0  0  0
  -21.3653   -5.6790   24.9175 C   0  0  0  0  0  0
  -21.6036   -4.3050   24.7224 C   0  0  0  0  0  0
  -21.8827   -3.8152   23.4342 C   0  0  0  0  0  0
  -21.9203   -4.6971   22.3398 C   0  0  0  0  0  0
  -22.7878  -13.5232   21.1822 C   0  0  0  0  0  0
  -22.1666   -4.2155   21.0975 F   0  0  0  0  0  0
  -21.5622   -3.4534   25.7735 F   0  0  0  0  0  0
  -30.0491  -13.2673   20.4289 N   0  0  0  0  0  0
  -26.3072  -12.9363   20.3392 N   0  0  0  0  0  0
  -25.9358  -11.6516   20.5795 N   0  0  0  0  0  0
  -22.0522  -12.8218   22.0365 N   0  0  0  0  0  0
  -25.4328  -15.1904   20.4103 N   0  0  0  0  0  0
  -31.8853  -14.5300   20.0588 O   0  0  0  0  0  0
  -21.6647   -6.8893   21.4237 O   0  0  0  0  0  0
  -22.3562  -14.5539   20.6664 O   0  0  0  0  0  0
  -24.6120  -31.8687   23.2110 C   0  0  0  0  0  0
  -25.9043  -32.4814   23.8368 C   0  0  1  0  0  0
  -27.2410  -27.4557   20.0801 C   0  0  0  0  0  0
  -25.5879  -33.8613   24.2278 N   0  0  0  0  0  0
  -23.3970  -30.4920   21.5515 C   0  0  2  0  0  0
  -24.8441  -28.9603   20.1138 C   0  0  0  0  0  0
  -22.7416  -29.4649   22.5001 C   0  0  0  0  0  0
  -18.0250  -28.1381   22.8473 C   0  0  0  0  0  0
  -24.1509  -36.7297   23.2633 C   0  0  0  0  0  0
  -25.9248  -30.8356   21.3686 C   0  0  0  0  0  0
  -26.0021  -29.4773   20.7029 C   0  0  0  0  0  0
  -27.2007  -28.7352   20.6756 C   0  0  0  0  0  0
  -26.0571  -26.9408   19.4975 C   0  0  0  0  0  0
  -24.8651  -27.6910   19.5108 C   0  0  0  0  0  0
  -23.6026  -29.8219   20.1669 C   0  0  0  0  0  0
  -25.4138  -36.3090   24.0298 C   0  0  1  0  0  0
  -20.5838  -28.3664   23.1313 C   0  0  2  0  0  0
  -20.6760  -26.9408   22.5398 C   0  0  0  0  0  0
  -19.5737  -26.6386   21.5206 C   0  0  0  0  0  0
  -18.1907  -26.7930   22.1608 C   0  0  0  0  0  0
  -19.1501  -28.8842   23.2889 C   0  0  0  0  0  0
  -18.9432  -30.1456   23.8890 C   0  0  0  0  0  0
  -17.6438  -30.6583   24.0567 C   0  0  0  0  0  0
  -25.9048  -34.9461   23.5105 C   0  0  0  0  0  0
  -16.5330  -29.9077   23.6330 C   0  0  0  0  0  0
  -16.7244  -28.6514   23.0303 C   0  0  0  0  0  0
  -26.4465  -31.6643   25.0733 C   0  0  0  0  0  0
  -25.3718  -31.3760   26.1465 C   0  0  0  0  0  0
  -27.0377  -30.3094   24.6195 C   0  0  0  0  0  0
  -27.5988  -32.4433   25.7499 C   0  0  0  0  0  0
  -27.5593  -37.1799   24.8448 C   0  0  0  0  0  0
  -21.4140  -29.3032   22.3755 N   0  0  0  0  0  0
  -26.4335  -37.3760   23.9364 N   0  0  0  0  0  0
  -24.6607  -31.0797   22.1003 N   0  0  0  0  0  0
  -23.4203  -28.8180   23.3020 O   0  0  0  0  0  0
  -28.4502  -26.7936   20.0933 O   0  0  0  0  0  0
  -26.5633  -34.8915   22.4684 O   0  0  0  0  0  0
  -23.5347  -32.1445   23.7542 O   0  0  0  0  0  0
  -29.1993  -20.1614   20.7570 C   0  0  0  0  0  0
  -29.7101  -18.8756   20.5090 C   0  0  0  0  0  0
  -30.2067  -20.1304   22.9702 C   0  0  0  0  0  0
  -29.4617  -20.8128   21.9818 C   0  0  0  0  0  0
  -30.4792  -18.2087   21.4829 C   0  0  0  0  0  0
  -30.7113  -18.8309   22.7328 C   0  0  0  0  0  0
  -31.5119  -18.1303   23.8185 C   0  0  0  0  0  0
  -27.0019  -24.7235   21.8573 C   0  0  0  0  0  0
  -28.9487  -22.2281   22.2538 C   0  0  0  0  0  0
  -31.1028  -16.8740   21.1076 C   0  0  0  0  0  0
  -30.1978  -15.6308   21.3095 C   0  0  0  0  0  0
  -28.7534  -23.0925   20.9826 C   0  0  0  0  0  0
  -28.5241  -25.3801   19.8964 C   0  0  0  0  0  0
  -28.3991  -24.5795   21.2230 C   0  0  1  0  0  0
  -31.4506  -12.3392   19.0871 H   0  0  0  0  0  0
  -30.2887  -11.2662   19.8071 H   0  0  0  0  0  0
  -29.7059  -11.7611   17.4143 H   0  0  0  0  0  0
  -29.6538  -13.4722   17.7571 H   0  0  0  0  0  0
  -27.8201  -11.3008   18.8299 H   0  0  0  0  0  0
  -27.3492  -12.6184   17.7918 H   0  0  0  0  0  0
  -27.7044  -14.2529   19.5542 H   0  0  0  0  0  0
  -28.6725  -12.0048   21.3883 H   0  0  0  0  0  0
  -28.4955  -13.6783   21.8311 H   0  0  0  0  0  0
  -25.2786   -9.5684   22.4754 H   0  0  0  0  0  0
  -24.0009   -7.4649   22.7479 H   0  0  0  0  0  0
  -21.0872   -8.8779   19.8940 H   0  0  0  0  0  0
  -22.3732  -10.9674   19.6143 H   0  0  0  0  0  0
  -21.2016   -7.6154   23.9719 H   0  0  0  0  0  0
  -21.1457   -6.0523   25.9079 H   0  0  0  0  0  0
  -22.0613   -2.7610   23.2839 H   0  0  0  0  0  0
  -22.4131  -11.9871   22.4743 H   0  0  0  0  0  0
  -21.1131  -13.1221   22.2539 H   0  0  0  0  0  0
  -24.6677  -15.8476   20.5214 H   0  0  0  0  0  0
  -26.2962  -15.6326   20.1165 H   0  0  0  0  0  0
  -26.7124  -32.5481   23.1123 H   0  0  0  0  0  0
  -24.9967  -33.9782   25.0382 H   0  0  0  0  0  0
  -22.6841  -31.3079   21.4171 H   0  0  0  0  0  0
  -23.3774  -35.9627   23.3309 H   0  0  0  0  0  0
  -24.3608  -36.8929   22.2050 H   0  0  0  0  0  0
  -23.7274  -37.6491   23.6702 H   0  0  0  0  0  0
  -26.0557  -31.6174   20.6195 H   0  0  0  0  0  0
  -26.8007  -30.8618   22.0053 H   0  0  0  0  0  0
  -28.0987  -29.1393   21.1226 H   0  0  0  0  0  0
  -26.0192  -25.9725   19.0259 H   0  0  0  0  0  0
  -23.9692  -27.2911   19.0555 H   0  0  0  0  0  0
  -23.7067  -30.5918   19.4030 H   0  0  0  0  0  0
  -22.7285  -29.2394   19.8738 H   0  0  0  0  0  0
  -25.1345  -36.1938   25.0794 H   0  0  0  0  0  0
  -20.9898  -28.3220   24.1443 H   0  0  0  0  0  0
  -20.5696  -26.2259   23.3583 H   0  0  0  0  0  0
  -21.6624  -26.7487   22.1175 H   0  0  0  0  0  0
  -19.6907  -25.6302   21.1229 H   0  0  0  0  0  0
  -19.6667  -27.3209   20.6757 H   0  0  0  0  0  0
  -17.4182  -26.6657   21.4014 H   0  0  0  0  0  0
  -18.0293  -26.0073   22.9006 H   0  0  0  0  0  0
  -19.7914  -30.7261   24.2249 H   0  0  0  0  0  0
  -17.5000  -31.6249   24.5203 H   0  0  0  0  0  0
  -15.5335  -30.2962   23.7711 H   0  0  0  0  0  0
  -15.8636  -28.0889   22.6940 H   0  0  0  0  0  0
  -24.5807  -30.7223   25.7762 H   0  0  0  0  0  0
  -24.9014  -32.2951   26.4986 H   0  0  0  0  0  0
  -25.8013  -30.8825   27.0189 H   0  0  0  0  0  0
  -26.2979  -29.6755   24.1295 H   0  0  0  0  0  0
  -27.4170  -29.7425   25.4706 H   0  0  0  0  0  0
  -27.8783  -30.4401   23.9370 H   0  0  0  0  0  0
  -27.2527  -33.3710   26.2071 H   0  0  0  0  0  0
  -28.3772  -32.7062   25.0326 H   0  0  0  0  0  0
  -28.0698  -31.8601   26.5428 H   0  0  0  0  0  0
  -28.2581  -38.0128   24.7546 H   0  0  0  0  0  0
  -28.1130  -36.2653   24.6259 H   0  0  0  0  0  0
  -27.2295  -37.1388   25.8845 H   0  0  0  0  0  0
  -20.9325  -29.8791   21.6988 H   0  0  0  0  0  0
  -26.0215  -38.2833   24.1366 H   0  0  0  0  0  0
  -28.6209  -20.6392   19.9818 H   0  0  0  0  0  0
  -29.5280  -18.4090   19.5501 H   0  0  0  0  0  0
  -30.4050  -20.6148   23.9168 H   0  0  0  0  0  0
  -31.4457  -18.6531   24.7724 H   0  0  0  0  0  0
  -32.5655  -18.0757   23.5454 H   0  0  0  0  0  0
  -31.1444  -17.1146   23.9716 H   0  0  0  0  0  0
  -26.9089  -24.1451   22.7755 H   0  0  0  0  0  0
  -26.2188  -24.3926   21.1756 H   0  0  0  0  0  0
  -26.7933  -25.7589   22.1269 H   0  0  0  0  0  0
  -29.6515  -22.7286   22.9236 H   0  0  0  0  0  0
  -28.0100  -22.1441   22.8010 H   0  0  0  0  0  0
  -32.0472  -16.7319   21.6346 H   0  0  0  0  0  0
  -31.3850  -16.9625   20.0561 H   0  0  0  0  0  0
  -29.2098  -15.8322   20.8973 H   0  0  0  0  0  0
  -30.0726  -15.4116   22.3696 H   0  0  0  0  0  0
  -27.9768  -22.6593   20.3519 H   0  0  0  0  0  0
  -29.6786  -23.0417   20.4089 H   0  0  0  0  0  0
  -27.8538  -25.0047   19.1247 H   0  0  0  0  0  0
  -29.5189  -25.2098   19.4845 H   0  0  0  0  0  0
  -29.1321  -24.9867   21.9219 H   0  0  0  0  0  0
  1 25  1  0  0  0
  1 30  2  0  0  0
  1 81  1  0  0  0
  2  3  1  0  0  0
  2 25  1  0  0  0
  2 85  1  0  0  0
  2 86  1  0  0  0
  3  4  1  0  0  0
  3 87  1  0  0  0
  3 88  1  0  0  0
  4  5  1  0  0  0
  4 89  1  0  0  0
  4 90  1  0  0  0
  5  6  1  0  0  0
  5 26  1  0  0  0
  5 91  1  0  0  0
  6 25  1  0  0  0
  6 92  1  0  0  0
  6 93  1  0  0  0
  7  8  2  0  0  0
  7 26  1  0  0  0
  7 29  1  0  0  0
  8  9  1  0  0  0
  8 22  1  0  0  0
  9 10  1  0  0  0
  9 27  2  0  0  0
 10 11  2  0  0  0
 10 15  1  0  0  0
 11 12  1  0  0  0
 11 94  1  0  0  0
 12 13  2  0  0  0
 12 95  1  0  0  0
 13 14  1  0  0  0
 13 31  1  0  0  0
 14 15  2  0  0  0
 14 96  1  0  0  0
 15 97  1  0  0  0
 16 17  2  0  0  0
 16 21  1  0  0  0
 16 31  1  0  0  0
 17 18  1  0  0  0
 17 98  1  0  0  0
 18 19  2  0  0  0
 18 99  1  0  0  0
 19 20  1  0  0  0
 19 24  1  0  0  0
 20 21  2  0  0  0
 20100  1  0  0  0
 21 23  1  0  0  0
 22 28  1  0  0  0
 22 32  2  0  0  0
 26 27  1  0  0  0
 28101  1  0  0  0
 28102  1  0  0  0
 29103  1  0  0  0
 29104  1  0  0  0
 33 34  1  0  0  0
 33 66  1  0  0  0
 33 70  2  0  0  0
 34 36  1  0  0  0
 34 59  1  0  0  0
 34105  1  0  0  0
 35 44  2  0  0  0
 35 45  1  0  0  0
 35 68  1  0  0  0
 36 56  1  0  0  0
 36106  1  0  0  0
 37 39  1  0  0  0
 37 47  1  0  0  0
 37 66  1  0  0  0
 37107  1  0  0  0
 38 43  2  0  0  0
 38 46  1  0  0  0
 38 47  1  0  0  0
 39 64  1  0  0  0
 39 67  2  0  0  0
 40 52  1  0  0  0
 40 53  2  0  0  0
 40 58  1  0  0  0
 41108  1  0  0  0
 41109  1  0  0  0
 41110  1  0  0  0
 41 48  1  0  0  0
 42 43  1  0  0  0
 42 66  1  0  0  0
 42111  1  0  0  0
 42112  1  0  0  0
 43 44  1  0  0  0
 44113  1  0  0  0
 45 46  2  0  0  0
 45114  1  0  0  0
 46115  1  0  0  0
 47116  1  0  0  0
 47117  1  0  0  0
 48 56  1  0  0  0
 48 65  1  0  0  0
 48118  1  0  0  0
 49 50  1  0  0  0
 49 53  1  0  0  0
 49 64  1  0  0  0
 49119  1  0  0  0
 50 51  1  0  0  0
 50120  1  0  0  0
 50121  1  0  0  0
 51 52  1  0  0  0
 51122  1  0  0  0
 51123  1  0  0  0
 52124  1  0  0  0
 52125  1  0  0  0
 53 54  1  0  0  0
 54 55  2  0  0  0
 54126  1  0  0  0
 55 57  1  0  0  0
 55127  1  0  0  0
 56 69  2  0  0  0
 57 58  2  0  0  0
 57128  1  0  0  0
 58129  1  0  0  0
 59 60  1  0  0  0
 59 61  1  0  0  0
 59 62  1  0  0  0
 60130  1  0  0  0
 60131  1  0  0  0
 60132  1  0  0  0
 61133  1  0  0  0
 61134  1  0  0  0
 61135  1  0  0  0
 62136  1  0  0  0
 62137  1  0  0  0
 62138  1  0  0  0
 63 65  1  0  0  0
 63139  1  0  0  0
 63140  1  0  0  0
 63141  1  0  0  0
 64142  1  0  0  0
 65143  1  0  0  0
 68 83  1  0  0  0
 71 72  2  0  0  0
 71 74  1  0  0  0
 71144  1  0  0  0
 72 75  1  0  0  0
 72145  1  0  0  0
 73 74  2  0  0  0
 73 76  1  0  0  0
 73146  1  0  0  0
 74 79  1  0  0  0
 75 76  2  0  0  0
 75 80  1  0  0  0
 76 77  1  0  0  0
 77147  1  0  0  0
 77148  1  0  0  0
 77149  1  0  0  0
 78150  1  0  0  0
 78151  1  0  0  0
 78152  1  0  0  0
 78 84  1  0  0  0
 79 82  1  0  0  0
 79153  1  0  0  0
 79154  1  0  0  0
 80 81  1  0  0  0
 80155  1  0  0  0
 80156  1  0  0  0
 81157  1  0  0  0
 81158  1  0  0  0
 82 84  1  0  0  0
 82159  1  0  0  0
 82160  1  0  0  0
 83 84  1  0  0  0
 83161  1  0  0  0
 83162  1  0  0  0
 84163  1  0  0  0
M  ISO  4   1 100  68 101  81 100  83 101
M  END
> <chiral flag>
0

> <version>
0

> <s_m_source_file>
/data/baiqing/PycharmProjects/Reinvent-master-3.2/result/LINK_invent/BTK/process_docking_weight1_custom_product_contain_oxygen_bond_distance_aromatic_linkinvent_7_9_3/rearranged_h_0133.sdf

> <i_m_source_file_index>
37

> <r_mmod_Potential_Energy-OPLS-2005>
-53.3779716491699

> <r_mmod_Stretch_Energy-OPLS-2005>
34.0900115966797

> <r_mmod_Bend_Energy-OPLS-2005>
102.994033813477

> <r_mmod_Torsional_Energy-OPLS-2005>
167.952209472656

> <r_mmod_Improper_Torsional_Energy-OPLS-2005>
2.59327816963196

> <r_mmod_Van_der_Waal_Energy-OPLS-2005>
159.784362792969

> <r_mmod_Electrostatic_Energy-OPLS-2005>
-351.486541748047

> <r_mmod_Solvation_Energy-OPLS-2005>
-182.554962158203

> <b_mmod_Minimization_Converged-OPLS-2005>
0

> <r_mmod_RMS_Derivative-OPLS-2005>
3.20780444145203

$$$$
37
                    3D
 Structure written by MMmdl.
168176  0  0  1  0            999 V2000
  -30.7376  -14.4360   20.5741 C   0  0  0  0  0  0
  -30.4162  -12.2904   19.4198 C   0  0  0  0  0  0
  -29.4896  -12.4973   18.2040 C   0  0  0  0  0  0
  -28.0103  -12.3732   18.6178 C   0  0  0  0  0  0
  -27.6630  -13.2126   19.8771 C   0  0  2  0  0  0
  -28.7070  -12.9975   20.9968 C   0  0  0  0  0  0
  -25.2588  -13.8169   20.5697 C   0  0  0  0  0  0
  -24.1847  -13.0439   20.9170 C   0  0  0  0  0  0
  -24.6418  -11.6908   20.8747 C   0  0  0  0  0  0
  -23.9092  -10.4286   21.0403 C   0  0  0  0  0  0
  -24.3642   -9.4185   21.9171 C   0  0  0  0  0  0
  -23.6297   -8.2230   22.0747 C   0  0  0  0  0  0
  -22.4275   -8.0286   21.3543 C   0  0  0  0  0  0
  -21.9914   -9.0274   20.4644 C   0  0  0  0  0  0
  -22.7265  -10.2144   20.3046 C   0  0  0  0  0  0
  -21.6853   -6.0748   22.5292 C   0  0  0  0  0  0
  -21.4008   -6.5648   23.8227 C   0  0  0  0  0  0
  -21.3653   -5.6804   24.9193 C   0  0  0  0  0  0
  -21.6053   -4.3067   24.7247 C   0  0  0  0  0  0
  -21.8812   -3.8158   23.4369 C   0  0  0  0  0  0
  -21.9183   -4.6972   22.3417 C   0  0  0  0  0  0
  -22.7868  -13.5229   21.1834 C   0  0  0  0  0  0
  -22.1653   -4.2152   21.1001 F   0  0  0  0  0  0
  -21.5623   -3.4547   25.7761 F   0  0  0  0  0  0
  -30.0388  -13.2804   20.4383 N   0  0  0  0  0  0
  -26.3045  -12.9363   20.3395 N   0  0  0  0  0  0
  -25.9351  -11.6513   20.5787 N   0  0  0  0  0  0
  -22.0503  -12.8236   22.0399 N   0  0  0  0  0  0
  -25.4272  -15.1905   20.4177 N   0  0  0  0  0  0
  -31.8614  -14.5982   20.0935 O   0  0  0  0  0  0
  -21.6624   -6.8894   21.4253 O   0  0  0  0  0  0
  -22.3540  -14.5529   20.6673 O   0  0  0  0  0  0
  -24.6144  -31.8707   23.2135 C   0  0  0  0  0  0
  -25.9054  -32.4831   23.8406 C   0  0  1  0  0  0
  -27.2312  -27.4423   20.0980 C   0  0  0  0  0  0
  -25.5919  -33.8628   24.2340 N   0  0  0  0  0  0
  -23.4002  -30.4968   21.5536 C   0  0  2  0  0  0
  -24.8453  -28.9690   20.1138 C   0  0  0  0  0  0
  -22.7405  -29.4682   22.4995 C   0  0  0  0  0  0
  -18.0277  -28.1385   22.8506 C   0  0  0  0  0  0
  -24.1481  -36.7298   23.2636 C   0  0  0  0  0  0
  -25.9296  -30.8382   21.3685 C   0  0  0  0  0  0
  -26.0056  -29.4760   20.7115 C   0  0  0  0  0  0
  -27.2012  -28.7212   20.6979 C   0  0  0  0  0  0
  -26.0561  -26.9643   19.4705 C   0  0  0  0  0  0
  -24.8658  -27.7122   19.4890 C   0  0  0  0  0  0
  -23.6080  -29.8350   20.1658 C   0  0  0  0  0  0
  -25.4105  -36.3104   24.0336 C   0  0  1  0  0  0
  -20.5867  -28.3681   23.1315 C   0  0  2  0  0  0
  -20.6767  -26.9419   22.5421 C   0  0  0  0  0  0
  -19.5744  -26.6400   21.5218 C   0  0  0  0  0  0
  -18.1920  -26.7936   22.1630 C   0  0  0  0  0  0
  -19.1525  -28.8850   23.2910 C   0  0  0  0  0  0
  -18.9449  -30.1452   23.8924 C   0  0  0  0  0  0
  -17.6453  -30.6594   24.0573 C   0  0  0  0  0  0
  -25.9037  -34.9474   23.5127 C   0  0  0  0  0  0
  -16.5346  -29.9096   23.6330 C   0  0  0  0  0  0
  -16.7264  -28.6511   23.0357 C   0  0  0  0  0  0
  -26.4488  -31.6602   25.0722 C   0  0  0  0  0  0
  -25.3753  -31.3706   26.1464 C   0  0  0  0  0  0
  -27.0321  -30.3038   24.6112 C   0  0  0  0  0  0
  -27.6066  -32.4325   25.7477 C   0  0  0  0  0  0
  -27.5576  -37.1802   24.8468 C   0  0  0  0  0  0
  -21.4137  -29.3039   22.3709 N   0  0  0  0  0  0
  -26.4290  -37.3785   23.9412 N   0  0  0  0  0  0
  -24.6654  -31.0825   22.1031 N   0  0  0  0  0  0
  -23.4174  -28.8227   23.3039 O   0  0  0  0  0  0
  -28.4023  -26.7080   20.1247 O   0  0  0  0  0  0
  -26.5593  -34.8928   22.4682 O   0  0  0  0  0  0
  -23.5345  -32.1457   23.7544 O   0  0  0  0  0  0
  -27.6326  -20.0496   21.1498 C   0  0  0  0  0  0
  -27.5855  -19.0874   20.1251 C   0  0  0  0  0  0
  -29.5598  -18.9181   22.1048 C   0  0  0  0  0  0
  -28.6424  -19.9908   22.1300 C   0  0  0  0  0  0
  -28.5295  -18.0392   20.0701 C   0  0  0  0  0  0
  -29.5126  -17.9309   21.0925 C   0  0  0  0  0  0
  -28.4685  -17.1152   18.8617 C   0  0  0  0  0  0
  -27.0125  -23.5824   22.7287 C   0  0  0  0  0  0
  -29.0935  -25.7276   22.6602 C   0  0  0  0  0  0
  -28.7358  -21.0550   23.2182 C   0  0  0  0  0  0
  -30.5852  -16.8417   21.1095 C   0  0  0  0  0  0
  -29.2960  -22.4287   22.7577 C   0  0  0  0  0  0
  -28.2774  -25.2807   20.2631 C   0  0  0  0  0  0
  -28.3334  -23.3513   21.9603 C   0  0  2  0  0  0
  -28.9925  -24.6998   21.5131 C   0  0  2  0  0  0
  -30.0793  -15.4655   21.1270 N   0  0  0  0  0  0
  -31.4618  -12.3746   19.1157 H   0  0  0  0  0  0
  -30.3052  -11.2841   19.8261 H   0  0  0  0  0  0
  -29.7198  -11.7675   17.4258 H   0  0  0  0  0  0
  -29.6685  -13.4797   17.7631 H   0  0  0  0  0  0
  -27.8076  -11.3196   18.8103 H   0  0  0  0  0  0
  -27.3618  -12.6580   17.7879 H   0  0  0  0  0  0
  -27.7062  -14.2603   19.5825 H   0  0  0  0  0  0
  -28.6764  -11.9651   21.3478 H   0  0  0  0  0  0
  -28.4787  -13.6098   21.8703 H   0  0  0  0  0  0
  -25.2790   -9.5653   22.4748 H   0  0  0  0  0  0
  -23.9974   -7.4611   22.7478 H   0  0  0  0  0  0
  -21.0818   -8.8827   19.8982 H   0  0  0  0  0  0
  -22.3735  -10.9694   19.6163 H   0  0  0  0  0  0
  -21.1995   -7.6159   23.9724 H   0  0  0  0  0  0
  -21.1476   -6.0544   25.9094 H   0  0  0  0  0  0
  -22.0581   -2.7612   23.2882 H   0  0  0  0  0  0
  -22.4087  -11.9919   22.4858 H   0  0  0  0  0  0
  -21.1111  -13.1275   22.2530 H   0  0  0  0  0  0
  -24.6598  -15.8430   20.5344 H   0  0  0  0  0  0
  -26.2980  -15.6454   20.1768 H   0  0  0  0  0  0
  -26.7130  -32.5556   23.1172 H   0  0  0  0  0  0
  -25.0073  -33.9796   25.0489 H   0  0  0  0  0  0
  -22.6881  -31.3133   21.4191 H   0  0  0  0  0  0
  -23.3744  -35.9631   23.3326 H   0  0  0  0  0  0
  -24.3564  -36.8890   22.2043 H   0  0  0  0  0  0
  -23.7241  -37.6512   23.6635 H   0  0  0  0  0  0
  -26.0460  -31.6094   20.6060 H   0  0  0  0  0  0
  -26.8139  -30.8839   21.9924 H   0  0  0  0  0  0
  -28.0978  -29.1091   21.1604 H   0  0  0  0  0  0
  -26.0420  -26.0170   18.9523 H   0  0  0  0  0  0
  -23.9788  -27.3190   19.0120 H   0  0  0  0  0  0
  -23.7179  -30.6120   19.4085 H   0  0  0  0  0  0
  -22.7306  -29.2577   19.8692 H   0  0  0  0  0  0
  -25.1287  -36.1960   25.0831 H   0  0  0  0  0  0
  -20.9976  -28.3255   24.1427 H   0  0  0  0  0  0
  -20.5673  -26.2292   23.3607 H   0  0  0  0  0  0
  -21.6633  -26.7467   22.1203 H   0  0  0  0  0  0
  -19.6905  -25.6311   21.1238 H   0  0  0  0  0  0
  -19.6671  -27.3215   20.6747 H   0  0  0  0  0  0
  -17.4189  -26.6696   21.4031 H   0  0  0  0  0  0
  -18.0318  -26.0063   22.9012 H   0  0  0  0  0  0
  -19.7918  -30.7262   24.2303 H   0  0  0  0  0  0
  -17.5004  -31.6275   24.5163 H   0  0  0  0  0  0
  -15.5343  -30.3009   23.7632 H   0  0  0  0  0  0
  -15.8663  -28.0836   22.7067 H   0  0  0  0  0  0
  -24.5907  -30.7091   25.7773 H   0  0  0  0  0  0
  -24.8972  -32.2869   26.4941 H   0  0  0  0  0  0
  -25.8099  -30.8824   27.0197 H   0  0  0  0  0  0
  -26.2874  -29.6789   24.1169 H   0  0  0  0  0  0
  -27.4081  -29.7287   25.4585 H   0  0  0  0  0  0
  -27.8712  -30.4333   23.9270 H   0  0  0  0  0  0
  -27.2680  -33.3597   26.2113 H   0  0  0  0  0  0
  -28.3836  -32.6944   25.0280 H   0  0  0  0  0  0
  -28.0782  -31.8418   26.5344 H   0  0  0  0  0  0
  -28.2604  -38.0086   24.7506 H   0  0  0  0  0  0
  -28.1065  -36.2624   24.6310 H   0  0  0  0  0  0
  -27.2296  -37.1471   25.8870 H   0  0  0  0  0  0
  -20.9301  -29.8739   21.6910 H   0  0  0  0  0  0
  -26.0182  -38.2861   24.1426 H   0  0  0  0  0  0
  -26.8993  -20.8435   21.1653 H   0  0  0  0  0  0
  -26.8291  -19.1747   19.3566 H   0  0  0  0  0  0
  -30.3255  -18.8620   22.8658 H   0  0  0  0  0  0
  -27.4719  -16.6831   18.7628 H   0  0  0  0  0  0
  -29.1912  -16.3039   18.8783 H   0  0  0  0  0  0
  -28.6633  -17.6906   17.9562 H   0  0  0  0  0  0
  -26.4005  -22.6807   22.7523 H   0  0  0  0  0  0
  -26.3988  -24.3606   22.2771 H   0  0  0  0  0  0
  -27.2027  -23.8821   23.7598 H   0  0  0  0  0  0
  -29.7063  -26.5799   22.3651 H   0  0  0  0  0  0
  -29.5543  -25.2974   23.5489 H   0  0  0  0  0  0
  -28.1154  -26.1184   22.9429 H   0  0  0  0  0  0
  -29.3918  -20.6724   24.0022 H   0  0  0  0  0  0
  -27.7656  -21.1612   23.7028 H   0  0  0  0  0  0
  -31.2357  -16.9683   21.9753 H   0  0  0  0  0  0
  -31.2176  -17.0163   20.2361 H   0  0  0  0  0  0
  -30.2109  -22.2611   22.1873 H   0  0  0  0  0  0
  -29.6056  -22.9654   23.6539 H   0  0  0  0  0  0
  -27.2429  -24.9514   20.3046 H   0  0  0  0  0  0
  -28.6868  -24.8146   19.3660 H   0  0  0  0  0  0
  -28.0839  -22.8181   21.0437 H   0  0  0  0  0  0
  -30.0160  -24.4864   21.2023 H   0  0  0  0  0  0
  -29.1432  -15.3094   21.4659 H   0  0  0  0  0  0
  1 25  1  0  0  0
  1 30  2  0  0  0
  1 86  1  0  0  0
  2  3  1  0  0  0
  2 25  1  0  0  0
  2 87  1  0  0  0
  2 88  1  0  0  0
  3  4  1  0  0  0
  3 89  1  0  0  0
  3 90  1  0  0  0
  4  5  1  0  0  0
  4 91  1  0  0  0
  4 92  1  0  0  0
  5  6  1  0  0  0
  5 26  1  0  0  0
  5 93  1  0  0  0
  6 25  1  0  0  0
  6 94  1  0  0  0
  6 95  1  0  0  0
  7  8  2  0  0  0
  7 26  1  0  0  0
  7 29  1  0  0  0
  8  9  1  0  0  0
  8 22  1  0  0  0
  9 10  1  0  0  0
  9 27  2  0  0  0
 10 11  2  0  0  0
 10 15  1  0  0  0
 11 12  1  0  0  0
 11 96  1  0  0  0
 12 13  2  0  0  0
 12 97  1  0  0  0
 13 14  1  0  0  0
 13 31  1  0  0  0
 14 15  2  0  0  0
 14 98  1  0  0  0
 15 99  1  0  0  0
 16 17  2  0  0  0
 16 21  1  0  0  0
 16 31  1  0  0  0
 17 18  1  0  0  0
 17100  1  0  0  0
 18 19  2  0  0  0
 18101  1  0  0  0
 19 20  1  0  0  0
 19 24  1  0  0  0
 20 21  2  0  0  0
 20102  1  0  0  0
 21 23  1  0  0  0
 22 28  1  0  0  0
 22 32  2  0  0  0
 26 27  1  0  0  0
 28103  1  0  0  0
 28104  1  0  0  0
 29105  1  0  0  0
 29106  1  0  0  0
 33 34  1  0  0  0
 33 66  1  0  0  0
 33 70  2  0  0  0
 34 36  1  0  0  0
 34 59  1  0  0  0
 34107  1  0  0  0
 35 44  2  0  0  0
 35 45  1  0  0  0
 35 68  1  0  0  0
 36 56  1  0  0  0
 36108  1  0  0  0
 37 39  1  0  0  0
 37 47  1  0  0  0
 37 66  1  0  0  0
 37109  1  0  0  0
 38 43  2  0  0  0
 38 46  1  0  0  0
 38 47  1  0  0  0
 39 64  1  0  0  0
 39 67  2  0  0  0
 40 52  1  0  0  0
 40 53  2  0  0  0
 40 58  1  0  0  0
 41110  1  0  0  0
 41111  1  0  0  0
 41112  1  0  0  0
 41 48  1  0  0  0
 42 43  1  0  0  0
 42 66  1  0  0  0
 42113  1  0  0  0
 42114  1  0  0  0
 43 44  1  0  0  0
 44115  1  0  0  0
 45 46  2  0  0  0
 45116  1  0  0  0
 46117  1  0  0  0
 47118  1  0  0  0
 47119  1  0  0  0
 48 56  1  0  0  0
 48 65  1  0  0  0
 48120  1  0  0  0
 49 50  1  0  0  0
 49 53  1  0  0  0
 49 64  1  0  0  0
 49121  1  0  0  0
 50 51  1  0  0  0
 50122  1  0  0  0
 50123  1  0  0  0
 51 52  1  0  0  0
 51124  1  0  0  0
 51125  1  0  0  0
 52126  1  0  0  0
 52127  1  0  0  0
 53 54  1  0  0  0
 54 55  2  0  0  0
 54128  1  0  0  0
 55 57  1  0  0  0
 55129  1  0  0  0
 56 69  2  0  0  0
 57 58  2  0  0  0
 57130  1  0  0  0
 58131  1  0  0  0
 59 60  1  0  0  0
 59 61  1  0  0  0
 59 62  1  0  0  0
 60132  1  0  0  0
 60133  1  0  0  0
 60134  1  0  0  0
 61135  1  0  0  0
 61136  1  0  0  0
 61137  1  0  0  0
 62138  1  0  0  0
 62139  1  0  0  0
 62140  1  0  0  0
 63 65  1  0  0  0
 63141  1  0  0  0
 63142  1  0  0  0
 63143  1  0  0  0
 64144  1  0  0  0
 65145  1  0  0  0
 68 83  1  0  0  0
 71 72  2  0  0  0
 71 74  1  0  0  0
 71146  1  0  0  0
 72 75  1  0  0  0
 72147  1  0  0  0
 73 74  2  0  0  0
 73 76  1  0  0  0
 73148  1  0  0  0
 74 80  1  0  0  0
 75 76  2  0  0  0
 75 77  1  0  0  0
 76 81  1  0  0  0
 77149  1  0  0  0
 77150  1  0  0  0
 77151  1  0  0  0
 78152  1  0  0  0
 78153  1  0  0  0
 78154  1  0  0  0
 78 84  1  0  0  0
 79155  1  0  0  0
 79156  1  0  0  0
 79157  1  0  0  0
 79 85  1  0  0  0
 80 82  1  0  0  0
 80158  1  0  0  0
 80159  1  0  0  0
 81 86  1  0  0  0
 81160  1  0  0  0
 81161  1  0  0  0
 82 84  1  0  0  0
 82162  1  0  0  0
 82163  1  0  0  0
 83 85  1  0  0  0
 83164  1  0  0  0
 83165  1  0  0  0
 84 85  1  0  0  0
 84166  1  0  0  0
 85167  1  0  0  0
 86168  1  0  0  0
M  ISO  4   1 100  68 101  83 101  86 100
M  END
> <chiral flag>
0

> <version>
0

> <s_m_source_file>
/data/baiqing/PycharmProjects/Reinvent-master-3.2/result/LINK_invent/BTK/process_docking_weight1_custom_product_contain_oxygen_bond_distance_aromatic_linkinvent_7_9_3/rearranged_h_0133.sdf

> <i_m_source_file_index>
38

> <r_mmod_Potential_Energy-OPLS-2005>
-64.5518035888672

> <r_mmod_Stretch_Energy-OPLS-2005>
37.9191436767578

> <r_mmod_Bend_Energy-OPLS-2005>
101.741737365723

> <r_mmod_Torsional_Energy-OPLS-2005>
234.809616088867

> <r_mmod_Improper_Torsional_Energy-OPLS-2005>
3.60714912414551

> <r_mmod_Van_der_Waal_Energy-OPLS-2005>
156.859741210938

> <r_mmod_Electrostatic_Energy-OPLS-2005>
-421.499206542969

> <r_mmod_Solvation_Energy-OPLS-2005>
-190.288177490234

> <b_mmod_Minimization_Converged-OPLS-2005>
0

> <r_mmod_RMS_Derivative-OPLS-2005>
2.04607200622559

$$$$
38
                    3D
 Structure written by MMmdl.
168176  0  0  1  0            999 V2000
  -30.8194  -14.4233   20.4714 C   0  0  0  0  0  0
  -30.3601  -12.2569   19.4529 C   0  0  0  0  0  0
  -29.4786  -12.4827   18.2136 C   0  0  0  0  0  0
  -27.9995  -12.3781   18.6187 C   0  0  0  0  0  0
  -27.6484  -13.2381   19.8662 C   0  0  2  0  0  0
  -28.6949  -13.1054   20.9958 C   0  0  0  0  0  0
  -25.2547  -13.8233   20.5794 C   0  0  0  0  0  0
  -24.1852  -13.0472   20.9269 C   0  0  0  0  0  0
  -24.6437  -11.6947   20.8800 C   0  0  0  0  0  0
  -23.9125  -10.4310   21.0425 C   0  0  0  0  0  0
  -24.3670   -9.4229   21.9199 C   0  0  0  0  0  0
  -23.6346   -8.2261   22.0754 C   0  0  0  0  0  0
  -22.4339   -8.0295   21.3530 C   0  0  0  0  0  0
  -21.9975   -9.0265   20.4646 C   0  0  0  0  0  0
  -22.7289  -10.2156   20.3072 C   0  0  0  0  0  0
  -21.6862   -6.0788   22.5283 C   0  0  0  0  0  0
  -21.4002   -6.5663   23.8232 C   0  0  0  0  0  0
  -21.3671   -5.6812   24.9184 C   0  0  0  0  0  0
  -21.6069   -4.3084   24.7229 C   0  0  0  0  0  0
  -21.8807   -3.8180   23.4338 C   0  0  0  0  0  0
  -21.9194   -4.7008   22.3408 C   0  0  0  0  0  0
  -22.7844  -13.5226   21.1899 C   0  0  0  0  0  0
  -22.1662   -4.2191   21.0980 F   0  0  0  0  0  0
  -21.5646   -3.4564   25.7725 F   0  0  0  0  0  0
  -30.0238  -13.3193   20.4172 N   0  0  0  0  0  0
  -26.2995  -12.9478   20.3411 N   0  0  0  0  0  0
  -25.9376  -11.6608   20.5845 N   0  0  0  0  0  0
  -22.0497  -12.8186   22.0430 N   0  0  0  0  0  0
  -25.4258  -15.1958   20.4225 N   0  0  0  0  0  0
  -31.9814  -14.3397   20.0766 O   0  0  0  0  0  0
  -21.6658   -6.8927   21.4246 O   0  0  0  0  0  0
  -22.3535  -14.5547   20.6775 O   0  0  0  0  0  0
  -24.6123  -31.8698   23.2145 C   0  0  0  0  0  0
  -25.9013  -32.4838   23.8431 C   0  0  1  0  0  0
  -27.2372  -27.4700   20.0957 C   0  0  0  0  0  0
  -25.5878  -33.8649   24.2383 N   0  0  0  0  0  0
  -23.4010  -30.4918   21.5564 C   0  0  2  0  0  0
  -24.8444  -28.9523   20.1299 C   0  0  0  0  0  0
  -22.7411  -29.4690   22.5093 C   0  0  0  0  0  0
  -18.0264  -28.1416   22.8535 C   0  0  0  0  0  0
  -24.1448  -36.7326   23.2665 C   0  0  0  0  0  0
  -25.9251  -30.8426   21.3650 C   0  0  0  0  0  0
  -26.0010  -29.4756   20.7231 C   0  0  0  0  0  0
  -27.2016  -28.7401   20.7056 C   0  0  0  0  0  0
  -26.0707  -26.9502   19.5014 C   0  0  0  0  0  0
  -24.8699  -27.6838   19.5203 C   0  0  0  0  0  0
  -23.6076  -29.8148   20.1744 C   0  0  0  0  0  0
  -25.4059  -36.3148   24.0377 C   0  0  1  0  0  0
  -20.5861  -28.3705   23.1353 C   0  0  2  0  0  0
  -20.6769  -26.9469   22.5434 C   0  0  0  0  0  0
  -19.5737  -26.6442   21.5239 C   0  0  0  0  0  0
  -18.1907  -26.7987   22.1645 C   0  0  0  0  0  0
  -19.1518  -28.8887   23.2928 C   0  0  0  0  0  0
  -18.9438  -30.1496   23.8938 C   0  0  0  0  0  0
  -17.6428  -30.6618   24.0587 C   0  0  0  0  0  0
  -25.9000  -34.9498   23.5172 C   0  0  0  0  0  0
  -16.5326  -29.9106   23.6336 C   0  0  0  0  0  0
  -16.7260  -28.6527   23.0374 C   0  0  0  0  0  0
  -26.4436  -31.6633   25.0770 C   0  0  0  0  0  0
  -25.3720  -31.3638   26.1526 C   0  0  0  0  0  0
  -27.0327  -30.3111   24.6164 C   0  0  0  0  0  0
  -27.6039  -32.4384   25.7491 C   0  0  0  0  0  0
  -27.5570  -37.1833   24.8492 C   0  0  0  0  0  0
  -21.4157  -29.3049   22.3771 N   0  0  0  0  0  0
  -26.4261  -37.3830   23.9446 N   0  0  0  0  0  0
  -24.6647  -31.0813   22.1052 N   0  0  0  0  0  0
  -23.4153  -28.8267   23.3188 O   0  0  0  0  0  0
  -28.4192  -26.7839   20.0036 O   0  0  0  0  0  0
  -26.5551  -34.8940   22.4724 O   0  0  0  0  0  0
  -23.5315  -32.1452   23.7545 O   0  0  0  0  0  0
  -32.3798  -18.8015   20.5431 C   0  0  0  0  0  0
  -32.6206  -20.1350   20.8780 C   0  0  0  0  0  0
  -30.0611  -19.0179   21.2482 C   0  0  0  0  0  0
  -31.1094  -18.2222   20.7371 C   0  0  0  0  0  0
  -31.5932  -20.9312   21.4063 C   0  0  0  0  0  0
  -30.2892  -20.3819   21.5624 C   0  0  0  0  0  0
  -31.0763  -16.7815   20.4633 C   0  0  0  0  0  0
  -30.2918  -15.7396   20.8572 C   0  0  0  0  0  0
  -32.8336  -24.5768   20.8312 C   0  0  0  0  0  0
  -28.5301  -26.3246   22.4442 C   0  0  0  0  0  0
  -31.9867  -22.3473   21.7915 C   0  0  0  0  0  0
  -32.1517  -23.2349   20.5467 C   0  0  0  0  0  0
  -28.4950  -23.3591   21.6775 C   0  0  0  0  0  0
  -27.9958  -24.4584   20.7257 C   0  0  0  0  0  0
  -28.5818  -21.9448   21.0892 C   0  0  0  0  0  0
  -28.7043  -25.8035   21.0007 C   0  0  1  0  0  0
  -29.2456  -21.1270   22.0525 O   0  0  0  0  0  0
  -31.4106  -12.2274   19.1634 H   0  0  0  0  0  0
  -30.1642  -11.2803   19.8947 H   0  0  0  0  0  0
  -29.7111  -11.7395   17.4520 H   0  0  0  0  0  0
  -29.6799  -13.4579   17.7646 H   0  0  0  0  0  0
  -27.7970  -11.3249   18.8176 H   0  0  0  0  0  0
  -27.3585  -12.6594   17.7819 H   0  0  0  0  0  0
  -27.6696  -14.2787   19.5443 H   0  0  0  0  0  0
  -28.6487  -12.1128   21.4463 H   0  0  0  0  0  0
  -28.4887  -13.8087   21.8033 H   0  0  0  0  0  0
  -25.2810   -9.5708   22.4781 H   0  0  0  0  0  0
  -24.0059   -7.4665   22.7475 H   0  0  0  0  0  0
  -21.0913   -8.8802   19.8948 H   0  0  0  0  0  0
  -22.3747  -10.9723   19.6198 H   0  0  0  0  0  0
  -21.1953   -7.6169   23.9733 H   0  0  0  0  0  0
  -21.1523   -6.0545   25.9085 H   0  0  0  0  0  0
  -22.0576   -2.7632   23.2825 H   0  0  0  0  0  0
  -22.4107  -11.9814   22.4765 H   0  0  0  0  0  0
  -21.1110  -13.1171   22.2669 H   0  0  0  0  0  0
  -24.6655  -15.8576   20.5376 H   0  0  0  0  0  0
  -26.2907  -15.6296   20.1243 H   0  0  0  0  0  0
  -26.7167  -32.5530   23.1278 H   0  0  0  0  0  0
  -25.0080  -33.9833   25.0561 H   0  0  0  0  0  0
  -22.6934  -31.3105   21.4095 H   0  0  0  0  0  0
  -23.3729  -35.9644   23.3285 H   0  0  0  0  0  0
  -24.3608  -36.8953   22.2108 H   0  0  0  0  0  0
  -23.7129  -37.6498   23.6669 H   0  0  0  0  0  0
  -26.0286  -31.6056   20.5917 H   0  0  0  0  0  0
  -26.8181  -30.9045   21.9738 H   0  0  0  0  0  0
  -28.1037  -29.1468   21.1440 H   0  0  0  0  0  0
  -26.0973  -25.9874   19.0099 H   0  0  0  0  0  0
  -23.9786  -27.2730   19.0624 H   0  0  0  0  0  0
  -23.7195  -30.5771   19.4023 H   0  0  0  0  0  0
  -22.7312  -29.2342   19.8799 H   0  0  0  0  0  0
  -25.1203  -36.2059   25.0873 H   0  0  0  0  0  0
  -20.9921  -28.3262   24.1474 H   0  0  0  0  0  0
  -20.5719  -26.2341   23.3628 H   0  0  0  0  0  0
  -21.6631  -26.7551   22.1202 H   0  0  0  0  0  0
  -19.6859  -25.6345   21.1284 H   0  0  0  0  0  0
  -19.6612  -27.3248   20.6773 H   0  0  0  0  0  0
  -17.4186  -26.6841   21.4022 H   0  0  0  0  0  0
  -18.0227  -26.0094   22.9006 H   0  0  0  0  0  0
  -19.7890  -30.7330   24.2337 H   0  0  0  0  0  0
  -17.4945  -31.6288   24.5217 H   0  0  0  0  0  0
  -15.5325  -30.2988   23.7623 H   0  0  0  0  0  0
  -15.8693  -28.0813   22.7081 H   0  0  0  0  0  0
  -24.5962  -30.6935   25.7807 H   0  0  0  0  0  0
  -24.8798  -32.2712   26.5061 H   0  0  0  0  0  0
  -25.8096  -30.8763   27.0255 H   0  0  0  0  0  0
  -26.2904  -29.6870   24.1196 H   0  0  0  0  0  0
  -27.4087  -29.7373   25.4640 H   0  0  0  0  0  0
  -27.8710  -30.4479   23.9334 H   0  0  0  0  0  0
  -27.2737  -33.3754   26.2007 H   0  0  0  0  0  0
  -28.3816  -32.6880   25.0257 H   0  0  0  0  0  0
  -28.0743  -31.8549   26.5427 H   0  0  0  0  0  0
  -28.2604  -38.0137   24.7573 H   0  0  0  0  0  0
  -28.1072  -36.2671   24.6251 H   0  0  0  0  0  0
  -27.2340  -37.1400   25.8924 H   0  0  0  0  0  0
  -20.9392  -29.8752   21.6930 H   0  0  0  0  0  0
  -26.0156  -38.2913   24.1457 H   0  0  0  0  0  0
  -33.2112  -18.2141   20.1742 H   0  0  0  0  0  0
  -33.6167  -20.5349   20.7514 H   0  0  0  0  0  0
  -29.0838  -18.5846   21.4023 H   0  0  0  0  0  0
  -31.9071  -16.5520   19.8083 H   0  0  0  0  0  0
  -29.3934  -15.8750   21.4401 H   0  0  0  0  0  0
  -32.9592  -25.1402   19.9049 H   0  0  0  0  0  0
  -33.8271  -24.4250   21.2557 H   0  0  0  0  0  0
  -32.2498  -25.1857   21.5231 H   0  0  0  0  0  0
  -29.0768  -25.7106   23.1596 H   0  0  0  0  0  0
  -27.4835  -26.3340   22.7509 H   0  0  0  0  0  0
  -28.9267  -27.3323   22.5498 H   0  0  0  0  0  0
  -32.9448  -22.2880   22.3118 H   0  0  0  0  0  0
  -31.3065  -22.7650   22.5295 H   0  0  0  0  0  0
  -32.7573  -22.7045   19.8100 H   0  0  0  0  0  0
  -31.1846  -23.4013   20.0750 H   0  0  0  0  0  0
  -27.8861  -23.3523   22.5806 H   0  0  0  0  0  0
  -29.4919  -23.6347   21.9994 H   0  0  0  0  0  0
  -26.9138  -24.5659   20.8100 H   0  0  0  0  0  0
  -28.1941  -24.1569   19.6958 H   0  0  0  0  0  0
  -29.1010  -21.9499   20.1249 H   0  0  0  0  0  0
  -27.5788  -21.5509   20.9162 H   0  0  0  0  0  0
  -29.7719  -25.6246   20.8702 H   0  0  0  0  0  0
  1 25  1  0  0  0
  1 30  2  0  0  0
  1 78  1  0  0  0
  2  3  1  0  0  0
  2 25  1  0  0  0
  2 88  1  0  0  0
  2 89  1  0  0  0
  3  4  1  0  0  0
  3 90  1  0  0  0
  3 91  1  0  0  0
  4  5  1  0  0  0
  4 92  1  0  0  0
  4 93  1  0  0  0
  5  6  1  0  0  0
  5 26  1  0  0  0
  5 94  1  0  0  0
  6 25  1  0  0  0
  6 95  1  0  0  0
  6 96  1  0  0  0
  7  8  2  0  0  0
  7 26  1  0  0  0
  7 29  1  0  0  0
  8  9  1  0  0  0
  8 22  1  0  0  0
  9 10  1  0  0  0
  9 27  2  0  0  0
 10 11  2  0  0  0
 10 15  1  0  0  0
 11 12  1  0  0  0
 11 97  1  0  0  0
 12 13  2  0  0  0
 12 98  1  0  0  0
 13 14  1  0  0  0
 13 31  1  0  0  0
 14 15  2  0  0  0
 14 99  1  0  0  0
 15100  1  0  0  0
 16 17  2  0  0  0
 16 21  1  0  0  0
 16 31  1  0  0  0
 17 18  1  0  0  0
 17101  1  0  0  0
 18 19  2  0  0  0
 18102  1  0  0  0
 19 20  1  0  0  0
 19 24  1  0  0  0
 20 21  2  0  0  0
 20103  1  0  0  0
 21 23  1  0  0  0
 22 28  1  0  0  0
 22 32  2  0  0  0
 26 27  1  0  0  0
 28104  1  0  0  0
 28105  1  0  0  0
 29106  1  0  0  0
 29107  1  0  0  0
 33 34  1  0  0  0
 33 66  1  0  0  0
 33 70  2  0  0  0
 34 36  1  0  0  0
 34 59  1  0  0  0
 34108  1  0  0  0
 35 44  2  0  0  0
 35 45  1  0  0  0
 35 68  1  0  0  0
 36 56  1  0  0  0
 36109  1  0  0  0
 37 39  1  0  0  0
 37 47  1  0  0  0
 37 66  1  0  0  0
 37110  1  0  0  0
 38 43  2  0  0  0
 38 46  1  0  0  0
 38 47  1  0  0  0
 39 64  1  0  0  0
 39 67  2  0  0  0
 40 52  1  0  0  0
 40 53  2  0  0  0
 40 58  1  0  0  0
 41111  1  0  0  0
 41112  1  0  0  0
 41113  1  0  0  0
 41 48  1  0  0  0
 42 43  1  0  0  0
 42 66  1  0  0  0
 42114  1  0  0  0
 42115  1  0  0  0
 43 44  1  0  0  0
 44116  1  0  0  0
 45 46  2  0  0  0
 45117  1  0  0  0
 46118  1  0  0  0
 47119  1  0  0  0
 47120  1  0  0  0
 48 56  1  0  0  0
 48 65  1  0  0  0
 48121  1  0  0  0
 49 50  1  0  0  0
 49 53  1  0  0  0
 49 64  1  0  0  0
 49122  1  0  0  0
 50 51  1  0  0  0
 50123  1  0  0  0
 50124  1  0  0  0
 51 52  1  0  0  0
 51125  1  0  0  0
 51126  1  0  0  0
 52127  1  0  0  0
 52128  1  0  0  0
 53 54  1  0  0  0
 54 55  2  0  0  0
 54129  1  0  0  0
 55 57  1  0  0  0
 55130  1  0  0  0
 56 69  2  0  0  0
 57 58  2  0  0  0
 57131  1  0  0  0
 58132  1  0  0  0
 59 60  1  0  0  0
 59 61  1  0  0  0
 59 62  1  0  0  0
 60133  1  0  0  0
 60134  1  0  0  0
 60135  1  0  0  0
 61136  1  0  0  0
 61137  1  0  0  0
 61138  1  0  0  0
 62139  1  0  0  0
 62140  1  0  0  0
 62141  1  0  0  0
 63 65  1  0  0  0
 63142  1  0  0  0
 63143  1  0  0  0
 63144  1  0  0  0
 64145  1  0  0  0
 65146  1  0  0  0
 68 86  1  0  0  0
 71 72  2  0  0  0
 71 74  1  0  0  0
 71147  1  0  0  0
 72 75  1  0  0  0
 72148  1  0  0  0
 73 74  2  0  0  0
 73 76  1  0  0  0
 73149  1  0  0  0
 74 77  1  0  0  0
 75 76  2  0  0  0
 75 81  1  0  0  0
 76 87  1  0  0  0
 77 78  2  0  0  0
 77150  1  0  0  0
 78151  1  0  0  0
 79 82  1  0  0  0
 79152  1  0  0  0
 79153  1  0  0  0
 79154  1  0  0  0
 80155  1  0  0  0
 80156  1  0  0  0
 80157  1  0  0  0
 80 86  1  0  0  0
 81 82  1  0  0  0
 81158  1  0  0  0
 81159  1  0  0  0
 82160  1  0  0  0
 82161  1  0  0  0
 83 84  1  0  0  0
 83 85  1  0  0  0
 83162  1  0  0  0
 83163  1  0  0  0
 84 86  1  0  0  0
 84164  1  0  0  0
 84165  1  0  0  0
 85 87  1  0  0  0
 85166  1  0  0  0
 85167  1  0  0  0
 86168  1  0  0  0
M  ISO  4   1 100  68 101  78 100  86 101
M  END
> <chiral flag>
0

> <version>
0

> <s_m_source_file>
/data/baiqing/PycharmProjects/Reinvent-master-3.2/result/LINK_invent/BTK/process_docking_weight1_custom_product_contain_oxygen_bond_distance_aromatic_linkinvent_7_9_3/rearranged_h_0133.sdf

> <i_m_source_file_index>
39

> <r_mmod_Potential_Energy-OPLS-2005>
81.2285766601562

> <r_mmod_Stretch_Energy-OPLS-2005>
34.6680793762207

> <r_mmod_Bend_Energy-OPLS-2005>
144.889373779297

> <r_mmod_Torsional_Energy-OPLS-2005>
251.612121582031

> <r_mmod_Improper_Torsional_Energy-OPLS-2005>
3.70970869064331

> <r_mmod_Van_der_Waal_Energy-OPLS-2005>
165.398208618164

> <r_mmod_Electrostatic_Energy-OPLS-2005>
-361.519287109375

> <r_mmod_Solvation_Energy-OPLS-2005>
-188.303558349609

> <b_mmod_Minimization_Converged-OPLS-2005>
0

> <r_mmod_RMS_Derivative-OPLS-2005>
5.37632894515991

$$$$
39
                    3D
 Structure written by MMmdl.
172180  0  0  1  0            999 V2000
  -30.6255  -14.5970   20.4943 C   0  0  0  0  0  0
  -30.4392  -12.3319   19.5028 C   0  0  0  0  0  0
  -29.5312  -12.4186   18.2566 C   0  0  0  0  0  0
  -28.0409  -12.3244   18.6513 C   0  0  0  0  0  0
  -27.6595  -13.2084   19.8708 C   0  0  2  0  0  0
  -28.6929  -13.0607   21.0104 C   0  0  0  0  0  0
  -25.2592  -13.8174   20.5696 C   0  0  0  0  0  0
  -24.1853  -13.0455   20.9178 C   0  0  0  0  0  0
  -24.6397  -11.6907   20.8759 C   0  0  0  0  0  0
  -23.9059  -10.4297   21.0425 C   0  0  0  0  0  0
  -24.3609   -9.4209   21.9200 C   0  0  0  0  0  0
  -23.6289   -8.2247   22.0754 C   0  0  0  0  0  0
  -22.4278   -8.0284   21.3536 C   0  0  0  0  0  0
  -21.9906   -9.0263   20.4645 C   0  0  0  0  0  0
  -22.7227  -10.2140   20.3070 C   0  0  0  0  0  0
  -21.6854   -6.0732   22.5277 C   0  0  0  0  0  0
  -21.4023   -6.5637   23.8214 C   0  0  0  0  0  0
  -21.3667   -5.6786   24.9177 C   0  0  0  0  0  0
  -21.6043   -4.3052   24.7222 C   0  0  0  0  0  0
  -21.8828   -3.8142   23.4350 C   0  0  0  0  0  0
  -21.9201   -4.6960   22.3401 C   0  0  0  0  0  0
  -22.7867  -13.5245   21.1854 C   0  0  0  0  0  0
  -22.1663   -4.2144   21.0978 F   0  0  0  0  0  0
  -21.5631   -3.4538   25.7739 F   0  0  0  0  0  0
  -30.0163  -13.3751   20.4548 N   0  0  0  0  0  0
  -26.3016  -12.9333   20.3327 N   0  0  0  0  0  0
  -25.9323  -11.6503   20.5785 N   0  0  0  0  0  0
  -22.0508  -12.8246   22.0395 N   0  0  0  0  0  0
  -25.4356  -15.1911   20.4154 N   0  0  0  0  0  0
  -31.7835  -14.7611   20.0969 O   0  0  0  0  0  0
  -21.6654   -6.8872   21.4231 O   0  0  0  0  0  0
  -22.3542  -14.5539   20.6677 O   0  0  0  0  0  0
  -24.6202  -31.8662   23.2100 C   0  0  0  0  0  0
  -25.9113  -32.4798   23.8401 C   0  0  1  0  0  0
  -27.2293  -27.3994   20.1220 C   0  0  0  0  0  0
  -25.6008  -33.8603   24.2374 N   0  0  0  0  0  0
  -23.4075  -30.4889   21.5499 C   0  0  2  0  0  0
  -24.8519  -28.9395   20.1257 C   0  0  0  0  0  0
  -22.7436  -29.4672   22.5006 C   0  0  0  0  0  0
  -18.0290  -28.1395   22.8473 C   0  0  0  0  0  0
  -24.1491  -36.7268   23.2635 C   0  0  0  0  0  0
  -25.9361  -30.8244   21.3641 C   0  0  0  0  0  0
  -26.0130  -29.4512   20.7189 C   0  0  0  0  0  0
  -27.2081  -28.6904   20.7059 C   0  0  0  0  0  0
  -26.0514  -26.9002   19.5317 C   0  0  0  0  0  0
  -24.8658  -27.6633   19.5319 C   0  0  0  0  0  0
  -23.6158  -29.8134   20.1667 C   0  0  0  0  0  0
  -25.4122  -36.3085   24.0331 C   0  0  1  0  0  0
  -20.5875  -28.3680   23.1312 C   0  0  2  0  0  0
  -20.6798  -26.9415   22.5413 C   0  0  0  0  0  0
  -19.5766  -26.6381   21.5231 C   0  0  0  0  0  0
  -18.1933  -26.7943   22.1608 C   0  0  0  0  0  0
  -19.1535  -28.8849   23.2886 C   0  0  0  0  0  0
  -18.9457  -30.1453   23.8900 C   0  0  0  0  0  0
  -17.6456  -30.6585   24.0564 C   0  0  0  0  0  0
  -25.9053  -34.9453   23.5128 C   0  0  0  0  0  0
  -16.5353  -29.9091   23.6320 C   0  0  0  0  0  0
  -16.7277  -28.6512   23.0339 C   0  0  0  0  0  0
  -26.4529  -31.6593   25.0749 C   0  0  0  0  0  0
  -25.3807  -31.3753   26.1515 C   0  0  0  0  0  0
  -27.0367  -30.3030   24.6159 C   0  0  0  0  0  0
  -27.6084  -32.4326   25.7521 C   0  0  0  0  0  0
  -27.5588  -37.1793   24.8462 C   0  0  0  0  0  0
  -21.4164  -29.3039   22.3716 N   0  0  0  0  0  0
  -26.4313  -37.3770   23.9393 N   0  0  0  0  0  0
  -24.6729  -31.0753   22.1002 N   0  0  0  0  0  0
  -23.4195  -28.8233   23.3079 O   0  0  0  0  0  0
  -28.3987  -26.6745   20.0284 O   0  0  0  0  0  0
  -26.5538  -34.8895   22.4644 O   0  0  0  0  0  0
  -23.5403  -32.1418   23.7500 O   0  0  0  0  0  0
  -29.0202  -18.3170   18.2957 C   0  0  0  0  0  0
  -29.3369  -18.1004   21.0293 C   0  0  0  0  0  0
  -29.4803  -17.0989   18.8250 C   0  0  0  0  0  0
  -28.6842  -19.4287   19.0905 C   0  0  0  0  0  0
  -29.6140  -16.9403   20.2329 C   0  0  0  0  0  0
  -28.8975  -19.3627   20.5015 C   0  0  0  0  0  0
  -29.7029  -15.9967   17.8083 C   0  0  0  0  0  0
  -24.2050  -20.8377   17.3315 C   0  0  0  0  0  0
  -25.8779  -22.7083   17.6242 C   0  0  0  0  0  0
  -28.0129  -20.5642   18.3205 C   0  0  0  0  0  0
  -26.4978  -20.2796   18.1990 C   0  0  0  0  0  0
  -27.9763  -24.1688   20.4790 C   0  0  0  0  0  0
  -28.7436  -22.9189   21.0340 C   0  0  0  0  0  0
  -28.5960  -25.5395   20.8982 C   0  0  0  0  0  0
  -27.9332  -21.5987   21.2416 C   0  0  0  0  0  0
  -25.6938  -21.2217   17.2810 C   0  0  0  0  0  0
  -29.8413  -15.6476   20.8722 N   0  0  0  0  0  0
  -28.7326  -20.4000   21.4328 O   0  0  0  0  0  0
  -31.4935  -12.4213   19.2298 H   0  0  0  0  0  0
  -30.3314  -11.3535   19.9744 H   0  0  0  0  0  0
  -29.7765  -11.6094   17.5680 H   0  0  0  0  0  0
  -29.7416  -13.3298   17.7083 H   0  0  0  0  0  0
  -27.8501  -11.2801   18.8983 H   0  0  0  0  0  0
  -27.4013  -12.5484   17.7977 H   0  0  0  0  0  0
  -27.6786  -14.2409   19.5276 H   0  0  0  0  0  0
  -28.6858  -12.0462   21.4126 H   0  0  0  0  0  0
  -28.4442  -13.7055   21.8539 H   0  0  0  0  0  0
  -25.2751   -9.5707   22.4772 H   0  0  0  0  0  0
  -24.0003   -7.4651   22.7481 H   0  0  0  0  0  0
  -21.0834   -8.8782   19.8959 H   0  0  0  0  0  0
  -22.3679  -10.9684   19.6195 H   0  0  0  0  0  0
  -21.2005   -7.6146   23.9700 H   0  0  0  0  0  0
  -21.1483   -6.0531   25.9073 H   0  0  0  0  0  0
  -22.0596   -2.7602   23.2868 H   0  0  0  0  0  0
  -22.4096  -11.9905   22.4801 H   0  0  0  0  0  0
  -21.1149  -13.1323   22.2618 H   0  0  0  0  0  0
  -24.6772  -15.8523   20.5414 H   0  0  0  0  0  0
  -26.2921  -15.6298   20.0993 H   0  0  0  0  0  0
  -26.7186  -32.5483   23.1160 H   0  0  0  0  0  0
  -25.0323  -33.9763   25.0641 H   0  0  0  0  0  0
  -22.6955  -31.3048   21.4071 H   0  0  0  0  0  0
  -23.3778  -35.9579   23.3295 H   0  0  0  0  0  0
  -24.3593  -36.8897   22.2055 H   0  0  0  0  0  0
  -23.7210  -37.6459   23.6644 H   0  0  0  0  0  0
  -26.0535  -31.5887   20.5951 H   0  0  0  0  0  0
  -26.8230  -30.8742   21.9849 H   0  0  0  0  0  0
  -28.1113  -29.0922   21.1406 H   0  0  0  0  0  0
  -26.0554  -25.9274   19.0597 H   0  0  0  0  0  0
  -23.9710  -27.2641   19.0754 H   0  0  0  0  0  0
  -23.7180  -30.5825   19.3996 H   0  0  0  0  0  0
  -22.7382  -29.2334   19.8772 H   0  0  0  0  0  0
  -25.1304  -36.1948   25.0826 H   0  0  0  0  0  0
  -20.9934  -28.3250   24.1448 H   0  0  0  0  0  0
  -20.5786  -26.2282   23.3606 H   0  0  0  0  0  0
  -21.6665  -26.7500   22.1168 H   0  0  0  0  0  0
  -19.6953  -25.6300   21.1253 H   0  0  0  0  0  0
  -19.6742  -27.3188   20.6765 H   0  0  0  0  0  0
  -17.4235  -26.6709   21.3972 H   0  0  0  0  0  0
  -18.0290  -26.0093   22.8996 H   0  0  0  0  0  0
  -19.7943  -30.7251   24.2285 H   0  0  0  0  0  0
  -17.5026  -31.6266   24.5173 H   0  0  0  0  0  0
  -15.5359  -30.3003   23.7646 H   0  0  0  0  0  0
  -15.8679  -28.0837   22.7064 H   0  0  0  0  0  0
  -24.5921  -30.7149   25.7888 H   0  0  0  0  0  0
  -24.9069  -32.2937   26.4974 H   0  0  0  0  0  0
  -25.8165  -30.8909   27.0259 H   0  0  0  0  0  0
  -26.2908  -29.6778   24.1224 H   0  0  0  0  0  0
  -27.4143  -29.7293   25.4635 H   0  0  0  0  0  0
  -27.8739  -30.4352   23.9305 H   0  0  0  0  0  0
  -27.2681  -33.3616   26.2104 H   0  0  0  0  0  0
  -28.3891  -32.6917   25.0360 H   0  0  0  0  0  0
  -28.0745  -31.8459   26.5451 H   0  0  0  0  0  0
  -28.2583  -38.0107   24.7506 H   0  0  0  0  0  0
  -28.1091  -36.2624   24.6284 H   0  0  0  0  0  0
  -27.2273  -37.1436   25.8858 H   0  0  0  0  0  0
  -20.9367  -29.8722   21.6872 H   0  0  0  0  0  0
  -26.0196  -38.2834   24.1442 H   0  0  0  0  0  0
  -28.8542  -18.3828   17.2300 H   0  0  0  0  0  0
  -29.4322  -18.0201   22.1018 H   0  0  0  0  0  0
  -29.7320  -16.3941   16.7930 H   0  0  0  0  0  0
  -28.8721  -15.2969   17.8505 H   0  0  0  0  0  0
  -30.6497  -15.4829   17.9442 H   0  0  0  0  0  0
  -23.7974  -20.9430   18.3382 H   0  0  0  0  0  0
  -23.6073  -21.4682   16.6740 H   0  0  0  0  0  0
  -24.0533  -19.8017   17.0225 H   0  0  0  0  0  0
  -25.6457  -22.9140   18.6687 H   0  0  0  0  0  0
  -26.9022  -23.0374   17.4424 H   0  0  0  0  0  0
  -25.2304  -23.3347   17.0094 H   0  0  0  0  0  0
  -28.4359  -20.6004   17.3171 H   0  0  0  0  0  0
  -28.2409  -21.5478   18.7193 H   0  0  0  0  0  0
  -26.0397  -20.2447   19.1866 H   0  0  0  0  0  0
  -26.3779  -19.2666   17.8094 H   0  0  0  0  0  0
  -26.9340  -24.1538   20.7966 H   0  0  0  0  0  0
  -27.9637  -24.1020   19.3906 H   0  0  0  0  0  0
  -29.1894  -23.1805   21.9955 H   0  0  0  0  0  0
  -29.5824  -22.7189   20.3684 H   0  0  0  0  0  0
  -29.6785  -25.4171   20.9412 H   0  0  0  0  0  0
  -28.2997  -25.7846   21.9188 H   0  0  0  0  0  0
  -27.1418  -21.4845   20.5169 H   0  0  0  0  0  0
  -27.3700  -21.7225   22.1679 H   0  0  0  0  0  0
  -26.0377  -21.0701   16.2558 H   0  0  0  0  0  0
  -29.1056  -15.3731   21.5067 H   0  0  0  0  0  0
  1 25  1  0  0  0
  1 30  2  0  0  0
  1 87  1  0  0  0
  2  3  1  0  0  0
  2 25  1  0  0  0
  2 89  1  0  0  0
  2 90  1  0  0  0
  3  4  1  0  0  0
  3 91  1  0  0  0
  3 92  1  0  0  0
  4  5  1  0  0  0
  4 93  1  0  0  0
  4 94  1  0  0  0
  5  6  1  0  0  0
  5 26  1  0  0  0
  5 95  1  0  0  0
  6 25  1  0  0  0
  6 96  1  0  0  0
  6 97  1  0  0  0
  7  8  2  0  0  0
  7 26  1  0  0  0
  7 29  1  0  0  0
  8  9  1  0  0  0
  8 22  1  0  0  0
  9 10  1  0  0  0
  9 27  2  0  0  0
 10 11  2  0  0  0
 10 15  1  0  0  0
 11 12  1  0  0  0
 11 98  1  0  0  0
 12 13  2  0  0  0
 12 99  1  0  0  0
 13 14  1  0  0  0
 13 31  1  0  0  0
 14 15  2  0  0  0
 14100  1  0  0  0
 15101  1  0  0  0
 16 17  2  0  0  0
 16 21  1  0  0  0
 16 31  1  0  0  0
 17 18  1  0  0  0
 17102  1  0  0  0
 18 19  2  0  0  0
 18103  1  0  0  0
 19 20  1  0  0  0
 19 24  1  0  0  0
 20 21  2  0  0  0
 20104  1  0  0  0
 21 23  1  0  0  0
 22 28  1  0  0  0
 22 32  2  0  0  0
 26 27  1  0  0  0
 28105  1  0  0  0
 28106  1  0  0  0
 29107  1  0  0  0
 29108  1  0  0  0
 33 34  1  0  0  0
 33 66  1  0  0  0
 33 70  2  0  0  0
 34 36  1  0  0  0
 34 59  1  0  0  0
 34109  1  0  0  0
 35 44  2  0  0  0
 35 45  1  0  0  0
 35 68  1  0  0  0
 36 56  1  0  0  0
 36110  1  0  0  0
 37 39  1  0  0  0
 37 47  1  0  0  0
 37 66  1  0  0  0
 37111  1  0  0  0
 38 43  2  0  0  0
 38 46  1  0  0  0
 38 47  1  0  0  0
 39 64  1  0  0  0
 39 67  2  0  0  0
 40 52  1  0  0  0
 40 53  2  0  0  0
 40 58  1  0  0  0
 41112  1  0  0  0
 41113  1  0  0  0
 41114  1  0  0  0
 41 48  1  0  0  0
 42 43  1  0  0  0
 42 66  1  0  0  0
 42115  1  0  0  0
 42116  1  0  0  0
 43 44  1  0  0  0
 44117  1  0  0  0
 45 46  2  0  0  0
 45118  1  0  0  0
 46119  1  0  0  0
 47120  1  0  0  0
 47121  1  0  0  0
 48 56  1  0  0  0
 48 65  1  0  0  0
 48122  1  0  0  0
 49 50  1  0  0  0
 49 53  1  0  0  0
 49 64  1  0  0  0
 49123  1  0  0  0
 50 51  1  0  0  0
 50124  1  0  0  0
 50125  1  0  0  0
 51 52  1  0  0  0
 51126  1  0  0  0
 51127  1  0  0  0
 52128  1  0  0  0
 52129  1  0  0  0
 53 54  1  0  0  0
 54 55  2  0  0  0
 54130  1  0  0  0
 55 57  1  0  0  0
 55131  1  0  0  0
 56 69  2  0  0  0
 57 58  2  0  0  0
 57132  1  0  0  0
 58133  1  0  0  0
 59 60  1  0  0  0
 59 61  1  0  0  0
 59 62  1  0  0  0
 60134  1  0  0  0
 60135  1  0  0  0
 60136  1  0  0  0
 61137  1  0  0  0
 61138  1  0  0  0
 61139  1  0  0  0
 62140  1  0  0  0
 62141  1  0  0  0
 62142  1  0  0  0
 63 65  1  0  0  0
 63143  1  0  0  0
 63144  1  0  0  0
 63145  1  0  0  0
 64146  1  0  0  0
 65147  1  0  0  0
 68 84  1  0  0  0
 71 73  2  0  0  0
 71 74  1  0  0  0
 71148  1  0  0  0
 72 75  2  0  0  0
 72 76  1  0  0  0
 72149  1  0  0  0
 73 75  1  0  0  0
 73 77  1  0  0  0
 74 76  2  0  0  0
 74 80  1  0  0  0
 75 87  1  0  0  0
 76 88  1  0  0  0
 77150  1  0  0  0
 77151  1  0  0  0
 77152  1  0  0  0
 78153  1  0  0  0
 78154  1  0  0  0
 78155  1  0  0  0
 78 86  1  0  0  0
 79 86  1  0  0  0
 79156  1  0  0  0
 79157  1  0  0  0
 79158  1  0  0  0
 80 81  1  0  0  0
 80159  1  0  0  0
 80160  1  0  0  0
 81 86  1  0  0  0
 81161  1  0  0  0
 81162  1  0  0  0
 82 83  1  0  0  0
 82 84  1  0  0  0
 82163  1  0  0  0
 82164  1  0  0  0
 83 85  1  0  0  0
 83165  1  0  0  0
 83166  1  0  0  0
 84167  1  0  0  0
 84168  1  0  0  0
 85 88  1  0  0  0
 85169  1  0  0  0
 85170  1  0  0  0
 86171  1  0  0  0
 87172  1  0  0  0
M  ISO  4   1 100  68 101  84 101  87 100
M  END
> <chiral flag>
0

> <version>
0

> <s_m_source_file>
/data/baiqing/PycharmProjects/Reinvent-master-3.2/result/LINK_invent/BTK/process_docking_weight1_custom_product_contain_oxygen_bond_distance_aromatic_linkinvent_7_9_3/rearranged_h_0133.sdf

> <i_m_source_file_index>
40

> <r_mmod_Potential_Energy-OPLS-2005>
99.4388656616211

> <r_mmod_Stretch_Energy-OPLS-2005>
58.1416320800781

> <r_mmod_Bend_Energy-OPLS-2005>
166.174682617188

> <r_mmod_Torsional_Energy-OPLS-2005>
289.386322021484

> <r_mmod_Improper_Torsional_Energy-OPLS-2005>
5.60497331619263

> <r_mmod_Van_der_Waal_Energy-OPLS-2005>
143.014099121094

> <r_mmod_Electrostatic_Energy-OPLS-2005>
-390.578125

> <r_mmod_Solvation_Energy-OPLS-2005>
-202.110092163086

> <b_mmod_Minimization_Converged-OPLS-2005>
0

> <r_mmod_RMS_Derivative-OPLS-2005>
3.61944794654846

$$$$
40
                    3D
 Structure written by MMmdl.
170179  0  0  1  0            999 V2000
  -30.7307  -14.3857   20.6282 C   0  0  0  0  0  0
  -30.4150  -12.2700   19.4060 C   0  0  0  0  0  0
  -29.4925  -12.5274   18.1982 C   0  0  0  0  0  0
  -28.0137  -12.3831   18.6107 C   0  0  0  0  0  0
  -27.6686  -13.1994   19.8872 C   0  0  2  0  0  0
  -28.7085  -12.9199   20.9964 C   0  0  0  0  0  0
  -25.2606  -13.8146   20.5683 C   0  0  0  0  0  0
  -24.1842  -13.0453   20.9171 C   0  0  0  0  0  0
  -24.6370  -11.6897   20.8717 C   0  0  0  0  0  0
  -23.9023  -10.4298   21.0376 C   0  0  0  0  0  0
  -24.3582   -9.4215   21.9160 C   0  0  0  0  0  0
  -23.6276   -8.2242   22.0726 C   0  0  0  0  0  0
  -22.4257   -8.0277   21.3528 C   0  0  0  0  0  0
  -21.9885   -9.0237   20.4616 C   0  0  0  0  0  0
  -22.7198  -10.2119   20.3026 C   0  0  0  0  0  0
  -21.6842   -6.0730   22.5277 C   0  0  0  0  0  0
  -21.4007   -6.5632   23.8218 C   0  0  0  0  0  0
  -21.3664   -5.6778   24.9174 C   0  0  0  0  0  0
  -21.6043   -4.3048   24.7222 C   0  0  0  0  0  0
  -21.8820   -3.8138   23.4345 C   0  0  0  0  0  0
  -21.9188   -4.6955   22.3398 C   0  0  0  0  0  0
  -22.7865  -13.5244   21.1868 C   0  0  0  0  0  0
  -22.1655   -4.2134   21.0979 F   0  0  0  0  0  0
  -21.5633   -3.4536   25.7739 F   0  0  0  0  0  0
  -30.0432  -13.2261   20.4588 N   0  0  0  0  0  0
  -26.3053  -12.9301   20.3407 N   0  0  0  0  0  0
  -25.9296  -11.6469   20.5740 N   0  0  0  0  0  0
  -22.0484  -12.8219   22.0402 N   0  0  0  0  0  0
  -25.4437  -15.1857   20.4103 N   0  0  0  0  0  0
  -31.8319  -14.5744   20.1016 O   0  0  0  0  0  0
  -21.6636   -6.8865   21.4236 O   0  0  0  0  0  0
  -22.3549  -14.5560   20.6728 O   0  0  0  0  0  0
  -24.6066  -31.8751   23.2170 C   0  0  0  0  0  0
  -25.8999  -32.4856   23.8418 C   0  0  1  0  0  0
  -27.2211  -27.4776   20.1084 C   0  0  0  0  0  0
  -25.5879  -33.8669   24.2345 N   0  0  0  0  0  0
  -23.3853  -30.5004   21.5583 C   0  0  2  0  0  0
  -24.8268  -28.9728   20.1174 C   0  0  0  0  0  0
  -22.7347  -29.4708   22.5075 C   0  0  0  0  0  0
  -18.0263  -28.1343   22.8515 C   0  0  0  0  0  0
  -24.1458  -36.7341   23.2631 C   0  0  0  0  0  0
  -25.9071  -30.8582   21.3559 C   0  0  0  0  0  0
  -25.9801  -29.4928   20.7146 C   0  0  0  0  0  0
  -27.1766  -28.7548   20.7167 C   0  0  0  0  0  0
  -26.0569  -26.9668   19.5010 C   0  0  0  0  0  0
  -24.8591  -27.7049   19.5060 C   0  0  0  0  0  0
  -23.5833  -29.8297   20.1717 C   0  0  0  0  0  0
  -25.4094  -36.3165   24.0335 C   0  0  1  0  0  0
  -20.5836  -28.3618   23.1381 C   0  0  2  0  0  0
  -20.6745  -26.9368   22.5444 C   0  0  0  0  0  0
  -19.5725  -26.6357   21.5238 C   0  0  0  0  0  0
  -18.1907  -26.7890   22.1643 C   0  0  0  0  0  0
  -19.1504  -28.8795   23.2938 C   0  0  0  0  0  0
  -18.9431  -30.1416   23.8904 C   0  0  0  0  0  0
  -17.6429  -30.6554   24.0523 C   0  0  0  0  0  0
  -25.9032  -34.9526   23.5148 C   0  0  0  0  0  0
  -16.5323  -29.9049   23.6291 C   0  0  0  0  0  0
  -16.7252  -28.6463   23.0335 C   0  0  0  0  0  0
  -26.4460  -31.6615   25.0722 C   0  0  0  0  0  0
  -25.3753  -31.3698   26.1482 C   0  0  0  0  0  0
  -27.0285  -30.3062   24.6061 C   0  0  0  0  0  0
  -27.6028  -32.4342   25.7497 C   0  0  0  0  0  0
  -27.5589  -37.1827   24.8450 C   0  0  0  0  0  0
  -21.4091  -29.2995   22.3789 N   0  0  0  0  0  0
  -26.4279  -37.3861   23.9430 N   0  0  0  0  0  0
  -24.6515  -31.0914   22.1024 N   0  0  0  0  0  0
  -23.4174  -28.8297   23.3107 O   0  0  0  0  0  0
  -28.3390  -26.6829   20.0670 O   0  0  0  0  0  0
  -26.5612  -34.8974   22.4720 O   0  0  0  0  0  0
  -23.5291  -32.1493   23.7596 O   0  0  0  0  0  0
  -29.0071  -21.3531   18.1144 C   0  0  0  0  0  0
  -31.0333  -21.2278   19.4663 C   0  0  0  0  0  0
  -29.1116  -19.9791   17.8326 C   0  0  0  0  0  0
  -31.1428  -19.8558   19.1776 C   0  0  0  0  0  0
  -29.9594  -21.9809   18.9440 C   0  0  0  0  0  0
  -30.1666  -19.2245   18.3821 C   0  0  0  0  0  0
  -31.0909  -24.2463   18.9132 C   0  0  0  0  0  0
  -29.3724  -23.6717   20.7495 C   0  0  0  0  0  0
  -30.9392  -25.7324   19.2491 C   0  0  0  0  0  0
  -30.2196  -24.7009   21.5181 C   0  0  0  0  0  0
  -29.8190  -23.4565   19.2826 C   0  0  2  0  0  0
  -30.5481  -25.9917   20.7258 C   0  0  2  0  0  0
  -30.2240  -17.7303   18.1514 C   0  0  0  0  0  0
  -30.1074  -15.5746   21.3857 C   0  0  0  0  0  0
  -29.4642  -27.0766   20.8359 C   0  0  0  0  0  0
  -29.5042  -16.9429   19.2616 C   0  0  0  0  0  0
  -30.2695  -16.9021   20.6086 C   0  0  0  0  0  0
  -31.4638  -12.3420   19.1161 H   0  0  0  0  0  0
  -30.2831  -11.2482   19.7649 H   0  0  0  0  0  0
  -29.7246  -11.8321   17.3920 H   0  0  0  0  0  0
  -29.6711  -13.5280   17.7998 H   0  0  0  0  0  0
  -27.8249  -11.3247   18.7927 H   0  0  0  0  0  0
  -27.3578  -12.6675   17.7873 H   0  0  0  0  0  0
  -27.7295  -14.2555   19.6271 H   0  0  0  0  0  0
  -28.6680  -11.8637   21.2687 H   0  0  0  0  0  0
  -28.4758  -13.4434   21.9222 H   0  0  0  0  0  0
  -25.2727   -9.5694   22.4737 H   0  0  0  0  0  0
  -23.9988   -7.4619   22.7433 H   0  0  0  0  0  0
  -21.0825   -8.8737   19.8915 H   0  0  0  0  0  0
  -22.3656  -10.9646   19.6126 H   0  0  0  0  0  0
  -21.1993   -7.6144   23.9709 H   0  0  0  0  0  0
  -21.1488   -6.0518   25.9074 H   0  0  0  0  0  0
  -22.0594   -2.7602   23.2850 H   0  0  0  0  0  0
  -22.4072  -11.9867   22.4798 H   0  0  0  0  0  0
  -21.1093  -13.1228   22.2580 H   0  0  0  0  0  0
  -24.6940  -15.8600   20.5178 H   0  0  0  0  0  0
  -26.3185  -15.6082   20.1259 H   0  0  0  0  0  0
  -26.7069  -32.5579   23.1181 H   0  0  0  0  0  0
  -24.9993  -33.9822   25.0464 H   0  0  0  0  0  0
  -22.6686  -31.3151   21.4302 H   0  0  0  0  0  0
  -23.3756  -35.9629   23.3261 H   0  0  0  0  0  0
  -24.3530  -36.8994   22.2043 H   0  0  0  0  0  0
  -23.7166  -37.6523   23.6666 H   0  0  0  0  0  0
  -26.0030  -31.6185   20.5785 H   0  0  0  0  0  0
  -26.8018  -30.9172   21.9643 H   0  0  0  0  0  0
  -28.0482  -29.1866   21.1862 H   0  0  0  0  0  0
  -26.0841  -25.9945   19.0290 H   0  0  0  0  0  0
  -23.9741  -27.2974   19.0403 H   0  0  0  0  0  0
  -23.6745  -30.6021   19.4081 H   0  0  0  0  0  0
  -22.7047  -29.2441   19.8896 H   0  0  0  0  0  0
  -25.1256  -36.2032   25.0823 H   0  0  0  0  0  0
  -20.9929  -28.3149   24.1500 H   0  0  0  0  0  0
  -20.5666  -26.2219   23.3618 H   0  0  0  0  0  0
  -21.6625  -26.7428   22.1234 H   0  0  0  0  0  0
  -19.6869  -25.6277   21.1243 H   0  0  0  0  0  0
  -19.6656  -27.3167   20.6765 H   0  0  0  0  0  0
  -17.4208  -26.6666   21.4009 H   0  0  0  0  0  0
  -18.0276  -26.0010   22.9000 H   0  0  0  0  0  0
  -19.7915  -30.7230   24.2266 H   0  0  0  0  0  0
  -17.4980  -31.6238   24.5111 H   0  0  0  0  0  0
  -15.5316  -30.2933   23.7583 H   0  0  0  0  0  0
  -15.8678  -28.0750   22.7043 H   0  0  0  0  0  0
  -24.5860  -30.7115   25.7824 H   0  0  0  0  0  0
  -24.9017  -32.2849   26.5046 H   0  0  0  0  0  0
  -25.8121  -30.8780   27.0174 H   0  0  0  0  0  0
  -26.2828  -29.6834   24.1092 H   0  0  0  0  0  0
  -27.4023  -29.7277   25.4514 H   0  0  0  0  0  0
  -27.8672  -30.4394   23.9223 H   0  0  0  0  0  0
  -27.2638  -33.3627   26.2113 H   0  0  0  0  0  0
  -28.3847  -32.6925   25.0344 H   0  0  0  0  0  0
  -28.0690  -31.8438   26.5400 H   0  0  0  0  0  0
  -28.2613  -38.0132   24.7601 H   0  0  0  0  0  0
  -28.1096  -36.2693   24.6154 H   0  0  0  0  0  0
  -27.2310  -37.1310   25.8847 H   0  0  0  0  0  0
  -20.9226  -29.8696   21.7011 H   0  0  0  0  0  0
  -26.0165  -38.2937   24.1458 H   0  0  0  0  0  0
  -28.1802  -21.9152   17.7026 H   0  0  0  0  0  0
  -31.7708  -21.6974   20.1024 H   0  0  0  0  0  0
  -28.3646  -19.5063   17.2093 H   0  0  0  0  0  0
  -31.9615  -19.2850   19.5919 H   0  0  0  0  0  0
  -31.9637  -23.8507   19.4323 H   0  0  0  0  0  0
  -31.2859  -24.1358   17.8458 H   0  0  0  0  0  0
  -28.3233  -23.9685   20.7613 H   0  0  0  0  0  0
  -29.4042  -22.7308   21.3040 H   0  0  0  0  0  0
  -30.1881  -26.1458   18.5753 H   0  0  0  0  0  0
  -31.8615  -26.2615   19.0105 H   0  0  0  0  0  0
  -31.1602  -24.2181   21.7837 H   0  0  0  0  0  0
  -29.7442  -24.9480   22.4684 H   0  0  0  0  0  0
  -29.0156  -23.8502   18.6581 H   0  0  0  0  0  0
  -31.4238  -26.4111   21.2194 H   0  0  0  0  0  0
  -31.2620  -17.4068   18.0599 H   0  0  0  0  0  0
  -29.7594  -17.5092   17.1898 H   0  0  0  0  0  0
  -29.0529  -15.4384   21.6096 H   0  0  0  0  0  0
  -30.6210  -15.6525   22.3451 H   0  0  0  0  0  0
  -29.8602  -28.0208   20.4604 H   0  0  0  0  0  0
  -29.1870  -27.2293   21.8820 H   0  0  0  0  0  0
  -29.3574  -15.9334   18.8808 H   0  0  0  0  0  0
  -28.5002  -17.3414   19.4179 H   0  0  0  0  0  0
  -31.3333  -17.0756   20.4406 H   0  0  0  0  0  0
  -29.9464  -17.7369   21.2335 H   0  0  0  0  0  0
  1 25  1  0  0  0
  1 30  2  0  0  0
  1 84  1  0  0  0
  2  3  1  0  0  0
  2 25  1  0  0  0
  2 88  1  0  0  0
  2 89  1  0  0  0
  3  4  1  0  0  0
  3 90  1  0  0  0
  3 91  1  0  0  0
  4  5  1  0  0  0
  4 92  1  0  0  0
  4 93  1  0  0  0
  5  6  1  0  0  0
  5 26  1  0  0  0
  5 94  1  0  0  0
  6 25  1  0  0  0
  6 95  1  0  0  0
  6 96  1  0  0  0
  7  8  2  0  0  0
  7 26  1  0  0  0
  7 29  1  0  0  0
  8  9  1  0  0  0
  8 22  1  0  0  0
  9 10  1  0  0  0
  9 27  2  0  0  0
 10 11  2  0  0  0
 10 15  1  0  0  0
 11 12  1  0  0  0
 11 97  1  0  0  0
 12 13  2  0  0  0
 12 98  1  0  0  0
 13 14  1  0  0  0
 13 31  1  0  0  0
 14 15  2  0  0  0
 14 99  1  0  0  0
 15100  1  0  0  0
 16 17  2  0  0  0
 16 21  1  0  0  0
 16 31  1  0  0  0
 17 18  1  0  0  0
 17101  1  0  0  0
 18 19  2  0  0  0
 18102  1  0  0  0
 19 20  1  0  0  0
 19 24  1  0  0  0
 20 21  2  0  0  0
 20103  1  0  0  0
 21 23  1  0  0  0
 22 28  1  0  0  0
 22 32  2  0  0  0
 26 27  1  0  0  0
 28104  1  0  0  0
 28105  1  0  0  0
 29106  1  0  0  0
 29107  1  0  0  0
 33 34  1  0  0  0
 33 66  1  0  0  0
 33 70  2  0  0  0
 34 36  1  0  0  0
 34 59  1  0  0  0
 34108  1  0  0  0
 35 44  2  0  0  0
 35 45  1  0  0  0
 35 68  1  0  0  0
 36 56  1  0  0  0
 36109  1  0  0  0
 37 39  1  0  0  0
 37 47  1  0  0  0
 37 66  1  0  0  0
 37110  1  0  0  0
 38 43  2  0  0  0
 38 46  1  0  0  0
 38 47  1  0  0  0
 39 64  1  0  0  0
 39 67  2  0  0  0
 40 52  1  0  0  0
 40 53  2  0  0  0
 40 58  1  0  0  0
 41111  1  0  0  0
 41112  1  0  0  0
 41113  1  0  0  0
 41 48  1  0  0  0
 42 43  1  0  0  0
 42 66  1  0  0  0
 42114  1  0  0  0
 42115  1  0  0  0
 43 44  1  0  0  0
 44116  1  0  0  0
 45 46  2  0  0  0
 45117  1  0  0  0
 46118  1  0  0  0
 47119  1  0  0  0
 47120  1  0  0  0
 48 56  1  0  0  0
 48 65  1  0  0  0
 48121  1  0  0  0
 49 50  1  0  0  0
 49 53  1  0  0  0
 49 64  1  0  0  0
 49122  1  0  0  0
 50 51  1  0  0  0
 50123  1  0  0  0
 50124  1  0  0  0
 51 52  1  0  0  0
 51125  1  0  0  0
 51126  1  0  0  0
 52127  1  0  0  0
 52128  1  0  0  0
 53 54  1  0  0  0
 54 55  2  0  0  0
 54129  1  0  0  0
 55 57  1  0  0  0
 55130  1  0  0  0
 56 69  2  0  0  0
 57 58  2  0  0  0
 57131  1  0  0  0
 58132  1  0  0  0
 59 60  1  0  0  0
 59 61  1  0  0  0
 59 62  1  0  0  0
 60133  1  0  0  0
 60134  1  0  0  0
 60135  1  0  0  0
 61136  1  0  0  0
 61137  1  0  0  0
 61138  1  0  0  0
 62139  1  0  0  0
 62140  1  0  0  0
 62141  1  0  0  0
 63 65  1  0  0  0
 63142  1  0  0  0
 63143  1  0  0  0
 63144  1  0  0  0
 64145  1  0  0  0
 65146  1  0  0  0
 68 85  1  0  0  0
 71 73  2  0  0  0
 71 75  1  0  0  0
 71147  1  0  0  0
 72 74  1  0  0  0
 72 75  2  0  0  0
 72148  1  0  0  0
 73 76  1  0  0  0
 73149  1  0  0  0
 74 76  2  0  0  0
 74150  1  0  0  0
 75 81  1  0  0  0
 76 83  1  0  0  0
 77 79  1  0  0  0
 77 81  1  0  0  0
 77151  1  0  0  0
 77152  1  0  0  0
 78 80  1  0  0  0
 78 81  1  0  0  0
 78153  1  0  0  0
 78154  1  0  0  0
 79 82  1  0  0  0
 79155  1  0  0  0
 79156  1  0  0  0
 80 82  1  0  0  0
 80157  1  0  0  0
 80158  1  0  0  0
 81159  1  0  0  0
 82 85  1  0  0  0
 82160  1  0  0  0
 83 86  1  0  0  0
 83161  1  0  0  0
 83162  1  0  0  0
 84 87  1  0  0  0
 84163  1  0  0  0
 84164  1  0  0  0
 85165  1  0  0  0
 85166  1  0  0  0
 86 87  1  0  0  0
 86167  1  0  0  0
 86168  1  0  0  0
 87169  1  0  0  0
 87170  1  0  0  0
M  ISO  4   1 100  68 101  84 100  85 101
M  END
> <chiral flag>
0

> <version>
0

> <s_m_source_file>
/data/baiqing/PycharmProjects/Reinvent-master-3.2/result/LINK_invent/BTK/process_docking_weight1_custom_product_contain_oxygen_bond_distance_aromatic_linkinvent_7_9_3/rearranged_h_0133.sdf

> <i_m_source_file_index>
41

> <r_mmod_Potential_Energy-OPLS-2005>
37.6618003845215

> <r_mmod_Stretch_Energy-OPLS-2005>
32.6949119567871

> <r_mmod_Bend_Energy-OPLS-2005>
100.74959564209

> <r_mmod_Torsional_Energy-OPLS-2005>
223.609634399414

> <r_mmod_Improper_Torsional_Energy-OPLS-2005>
2.61575555801392

> <r_mmod_Van_der_Waal_Energy-OPLS-2005>
160.918670654297

> <r_mmod_Electrostatic_Energy-OPLS-2005>
-310.514251708984

> <r_mmod_Solvation_Energy-OPLS-2005>
-181.153945922852

> <b_mmod_Minimization_Converged-OPLS-2005>
0

> <r_mmod_RMS_Derivative-OPLS-2005>
3.38693118095398

$$$$
41
                    3D
 Structure written by MMmdl.
172180  0  0  1  0            999 V2000
  -30.7069  -14.5178   20.5085 C   0  0  0  0  0  0
  -30.4139  -12.3128   19.4425 C   0  0  0  0  0  0
  -29.4957  -12.4940   18.2157 C   0  0  0  0  0  0
  -28.0168  -12.3584   18.6259 C   0  0  0  0  0  0
  -27.6549  -13.2209   19.8637 C   0  0  2  0  0  0
  -28.7016  -13.0720   20.9917 C   0  0  0  0  0  0
  -25.2562  -13.8192   20.5707 C   0  0  0  0  0  0
  -24.1827  -13.0439   20.9197 C   0  0  0  0  0  0
  -24.6405  -11.6916   20.8752 C   0  0  0  0  0  0
  -23.9084  -10.4291   21.0422 C   0  0  0  0  0  0
  -24.3628   -9.4200   21.9204 C   0  0  0  0  0  0
  -23.6293   -8.2240   22.0770 C   0  0  0  0  0  0
  -22.4282   -8.0285   21.3555 C   0  0  0  0  0  0
  -21.9921   -9.0267   20.4660 C   0  0  0  0  0  0
  -22.7255  -10.2141   20.3071 C   0  0  0  0  0  0
  -21.6854   -6.0739   22.5281 C   0  0  0  0  0  0
  -21.4013   -6.5646   23.8213 C   0  0  0  0  0  0
  -21.3650   -5.6800   24.9173 C   0  0  0  0  0  0
  -21.6046   -4.3063   24.7225 C   0  0  0  0  0  0
  -21.8820   -3.8152   23.4346 C   0  0  0  0  0  0
  -21.9188   -4.6965   22.3402 C   0  0  0  0  0  0
  -22.7852  -13.5235   21.1868 C   0  0  0  0  0  0
  -22.1672   -4.2147   21.0982 F   0  0  0  0  0  0
  -21.5621   -3.4548   25.7737 F   0  0  0  0  0  0
  -30.0315  -13.3376   20.4298 N   0  0  0  0  0  0
  -26.3002  -12.9382   20.3348 N   0  0  0  0  0  0
  -25.9340  -11.6531   20.5792 N   0  0  0  0  0  0
  -22.0508  -12.8202   22.0418 N   0  0  0  0  0  0
  -25.4267  -15.1909   20.4132 N   0  0  0  0  0  0
  -31.8722  -14.6050   20.1137 O   0  0  0  0  0  0
  -21.6640   -6.8887   21.4249 O   0  0  0  0  0  0
  -22.3527  -14.5545   20.6741 O   0  0  0  0  0  0
  -24.6186  -31.8648   23.2103 C   0  0  0  0  0  0
  -25.9060  -32.4809   23.8392 C   0  0  1  0  0  0
  -27.2275  -27.3927   20.0745 C   0  0  0  0  0  0
  -25.5894  -33.8609   24.2313 N   0  0  0  0  0  0
  -23.4083  -30.4933   21.5524 C   0  0  2  0  0  0
  -24.8490  -28.9570   20.1182 C   0  0  0  0  0  0
  -22.7436  -29.4654   22.4968 C   0  0  0  0  0  0
  -18.0279  -28.1390   22.8492 C   0  0  0  0  0  0
  -24.1489  -36.7318   23.2639 C   0  0  0  0  0  0
  -25.9446  -30.8158   21.3709 C   0  0  0  0  0  0
  -26.0158  -29.4488   20.7130 C   0  0  0  0  0  0
  -27.2043  -28.6740   20.6877 C   0  0  0  0  0  0
  -26.0198  -26.9166   19.5062 C   0  0  0  0  0  0
  -24.8473  -27.6900   19.5178 C   0  0  0  0  0  0
  -23.6171  -29.8309   20.1668 C   0  0  0  0  0  0
  -25.4113  -36.3107   24.0323 C   0  0  1  0  0  0
  -20.5875  -28.3680   23.1305 C   0  0  2  0  0  0
  -20.6767  -26.9411   22.5412 C   0  0  0  0  0  0
  -19.5739  -26.6390   21.5216 C   0  0  0  0  0  0
  -18.1924  -26.7936   22.1630 C   0  0  0  0  0  0
  -19.1532  -28.8849   23.2901 C   0  0  0  0  0  0
  -18.9453  -30.1451   23.8914 C   0  0  0  0  0  0
  -17.6455  -30.6588   24.0571 C   0  0  0  0  0  0
  -25.9033  -34.9469   23.5118 C   0  0  0  0  0  0
  -16.5347  -29.9088   23.6334 C   0  0  0  0  0  0
  -16.7269  -28.6512   23.0344 C   0  0  0  0  0  0
  -26.4474  -31.6604   25.0740 C   0  0  0  0  0  0
  -25.3722  -31.3708   26.1471 C   0  0  0  0  0  0
  -27.0322  -30.3045   24.6147 C   0  0  0  0  0  0
  -27.6049  -32.4328   25.7487 C   0  0  0  0  0  0
  -27.5581  -37.1818   24.8462 C   0  0  0  0  0  0
  -21.4157  -29.3049   22.3710 N   0  0  0  0  0  0
  -26.4299  -37.3785   23.9398 N   0  0  0  0  0  0
  -24.6764  -31.0724   22.1023 N   0  0  0  0  0  0
  -23.4197  -28.8172   23.3002 O   0  0  0  0  0  0
  -28.4136  -26.6628   20.0703 O   0  0  0  0  0  0
  -26.5606  -34.8925   22.4688 O   0  0  0  0  0  0
  -23.5362  -32.1417   23.7467 O   0  0  0  0  0  0
  -33.0663  -21.7508   19.7173 C   0  0  0  0  0  0
  -31.7567  -22.0845   20.0885 C   0  0  0  0  0  0
  -32.4348  -19.4093   19.7204 C   0  0  0  0  0  0
  -33.4008  -20.4076   19.5031 C   0  0  0  0  0  0
  -30.7476  -21.1039   20.2436 C   0  0  0  0  0  0
  -31.1086  -19.7149   20.1330 C   0  0  0  0  0  0
  -34.8006  -20.0290   19.0635 C   0  0  0  0  0  0
  -28.5701  -23.1424   16.9171 C   0  0  0  0  0  0
  -27.1891  -22.3987   19.4672 C   0  0  0  0  0  0
  -29.3221  -21.6231   20.5387 C   0  0  0  0  0  0
  -30.1419  -18.5441   20.4696 C   0  0  0  0  0  0
  -29.9933  -15.8503   20.9040 C   0  0  0  0  0  0
  -29.3422  -22.6081   18.1417 C   0  0  0  0  0  0
  -30.7885  -17.1145   20.4248 C   0  0  0  0  0  0
  -28.8271  -24.1678   20.2111 C   0  0  0  0  0  0
  -28.5453  -25.4220   19.3273 C   0  0  0  0  0  0
  -28.6980  -22.7244   19.5676 C   0  0  1  0  0  0
  -31.4617  -12.3779   19.1459 H   0  0  0  0  0  0
  -30.2899  -11.3173   19.8704 H   0  0  0  0  0  0
  -29.7387  -11.7593   17.4467 H   0  0  0  0  0  0
  -29.6624  -13.4743   17.7670 H   0  0  0  0  0  0
  -27.8316  -11.3072   18.8445 H   0  0  0  0  0  0
  -27.3654  -12.6161   17.7901 H   0  0  0  0  0  0
  -27.6738  -14.2566   19.5264 H   0  0  0  0  0  0
  -28.6751  -12.0652   21.4110 H   0  0  0  0  0  0
  -28.4780  -13.7476   21.8180 H   0  0  0  0  0  0
  -25.2780   -9.5660   22.4771 H   0  0  0  0  0  0
  -23.9998   -7.4627   22.7487 H   0  0  0  0  0  0
  -21.0854   -8.8793   19.8963 H   0  0  0  0  0  0
  -22.3732  -10.9687   19.6171 H   0  0  0  0  0  0
  -21.2020   -7.6156   23.9713 H   0  0  0  0  0  0
  -21.1475   -6.0535   25.9077 H   0  0  0  0  0  0
  -22.0606   -2.7614   23.2844 H   0  0  0  0  0  0
  -22.4123  -11.9824   22.4733 H   0  0  0  0  0  0
  -21.1145  -13.1229   22.2692 H   0  0  0  0  0  0
  -24.6652  -15.8503   20.5335 H   0  0  0  0  0  0
  -26.2880  -15.6308   20.1135 H   0  0  0  0  0  0
  -26.7126  -32.5516   23.1147 H   0  0  0  0  0  0
  -25.0022  -33.9757   25.0440 H   0  0  0  0  0  0
  -22.6990  -31.3122   21.4157 H   0  0  0  0  0  0
  -23.3741  -35.9663   23.3311 H   0  0  0  0  0  0
  -24.3571  -36.8936   22.2052 H   0  0  0  0  0  0
  -23.7266  -37.6527   23.6665 H   0  0  0  0  0  0
  -26.0637  -31.5813   20.6027 H   0  0  0  0  0  0
  -26.8308  -30.8651   21.9931 H   0  0  0  0  0  0
  -28.1087  -29.0544   21.1423 H   0  0  0  0  0  0
  -25.9190  -25.9429   19.0570 H   0  0  0  0  0  0
  -23.9448  -27.2984   19.0696 H   0  0  0  0  0  0
  -23.7337  -30.6079   19.4109 H   0  0  0  0  0  0
  -22.7389  -29.2569   19.8661 H   0  0  0  0  0  0
  -25.1301  -36.1958   25.0813 H   0  0  0  0  0  0
  -20.9979  -28.3257   24.1419 H   0  0  0  0  0  0
  -20.5684  -26.2287   23.3605 H   0  0  0  0  0  0
  -21.6634  -26.7453   22.1195 H   0  0  0  0  0  0
  -19.6899  -25.6305   21.1232 H   0  0  0  0  0  0
  -19.6680  -27.3208   20.6751 H   0  0  0  0  0  0
  -17.4195  -26.6691   21.4032 H   0  0  0  0  0  0
  -18.0323  -26.0077   22.9023 H   0  0  0  0  0  0
  -19.7924  -30.7268   24.2299 H   0  0  0  0  0  0
  -17.5004  -31.6273   24.5163 H   0  0  0  0  0  0
  -15.5345  -30.2989   23.7653 H   0  0  0  0  0  0
  -15.8670  -28.0839   22.7034 H   0  0  0  0  0  0
  -24.5920  -30.7029   25.7800 H   0  0  0  0  0  0
  -24.8874  -32.2855   26.4888 H   0  0  0  0  0  0
  -25.8049  -30.8904   27.0254 H   0  0  0  0  0  0
  -26.2886  -29.6794   24.1193 H   0  0  0  0  0  0
  -27.4080  -29.7290   25.4617 H   0  0  0  0  0  0
  -27.8722  -30.4366   23.9326 H   0  0  0  0  0  0
  -27.2683  -33.3631   26.2065 H   0  0  0  0  0  0
  -28.3841  -32.6872   25.0294 H   0  0  0  0  0  0
  -28.0742  -31.8461   26.5393 H   0  0  0  0  0  0
  -28.2605  -38.0107   24.7482 H   0  0  0  0  0  0
  -28.1070  -36.2633   24.6321 H   0  0  0  0  0  0
  -27.2289  -37.1499   25.8863 H   0  0  0  0  0  0
  -20.9313  -29.8795   21.6953 H   0  0  0  0  0  0
  -26.0187  -38.2863   24.1389 H   0  0  0  0  0  0
  -33.8008  -22.5325   19.5807 H   0  0  0  0  0  0
  -31.5280  -23.1300   20.2138 H   0  0  0  0  0  0
  -32.7617  -18.3929   19.5679 H   0  0  0  0  0  0
  -35.3540  -20.8983   18.7054 H   0  0  0  0  0  0
  -34.7641  -19.3002   18.2530 H   0  0  0  0  0  0
  -35.3530  -19.5909   19.8956 H   0  0  0  0  0  0
  -29.0938  -22.8623   16.0017 H   0  0  0  0  0  0
  -28.4960  -24.2263   16.8983 H   0  0  0  0  0  0
  -27.5654  -22.7280   16.8370 H   0  0  0  0  0  0
  -27.0165  -21.4448   18.9673 H   0  0  0  0  0  0
  -26.6338  -23.1584   18.9175 H   0  0  0  0  0  0
  -26.7307  -22.3289   20.4539 H   0  0  0  0  0  0
  -29.2885  -21.9678   21.5734 H   0  0  0  0  0  0
  -28.6729  -20.7478   20.5282 H   0  0  0  0  0  0
  -29.2979  -18.5803   19.7800 H   0  0  0  0  0  0
  -29.7374  -18.7221   21.4675 H   0  0  0  0  0  0
  -28.9996  -15.8685   20.4596 H   0  0  0  0  0  0
  -29.8605  -15.8757   21.9852 H   0  0  0  0  0  0
  -30.3292  -23.0681   18.1338 H   0  0  0  0  0  0
  -29.5115  -21.5505   17.9343 H   0  0  0  0  0  0
  -31.6998  -17.1362   21.0247 H   0  0  0  0  0  0
  -31.0978  -16.9411   19.3929 H   0  0  0  0  0  0
  -28.1631  -24.2140   21.0751 H   0  0  0  0  0  0
  -29.8199  -24.3023   20.6335 H   0  0  0  0  0  0
  -27.7209  -25.2243   18.6564 H   0  0  0  0  0  0
  -29.3984  -25.5611   18.6618 H   0  0  0  0  0  0
  1 25  1  0  0  0
  1 30  2  0  0  0
  1 82  1  0  0  0
  2  3  1  0  0  0
  2 25  1  0  0  0
  2 88  1  0  0  0
  2 89  1  0  0  0
  3  4  1  0  0  0
  3 90  1  0  0  0
  3 91  1  0  0  0
  4  5  1  0  0  0
  4 92  1  0  0  0
  4 93  1  0  0  0
  5  6  1  0  0  0
  5 26  1  0  0  0
  5 94  1  0  0  0
  6 25  1  0  0  0
  6 95  1  0  0  0
  6 96  1  0  0  0
  7  8  2  0  0  0
  7 26  1  0  0  0
  7 29  1  0  0  0
  8  9  1  0  0  0
  8 22  1  0  0  0
  9 10  1  0  0  0
  9 27  2  0  0  0
 10 11  2  0  0  0
 10 15  1  0  0  0
 11 12  1  0  0  0
 11 97  1  0  0  0
 12 13  2  0  0  0
 12 98  1  0  0  0
 13 14  1  0  0  0
 13 31  1  0  0  0
 14 15  2  0  0  0
 14 99  1  0  0  0
 15100  1  0  0  0
 16 17  2  0  0  0
 16 21  1  0  0  0
 16 31  1  0  0  0
 17 18  1  0  0  0
 17101  1  0  0  0
 18 19  2  0  0  0
 18102  1  0  0  0
 19 20  1  0  0  0
 19 24  1  0  0  0
 20 21  2  0  0  0
 20103  1  0  0  0
 21 23  1  0  0  0
 22 28  1  0  0  0
 22 32  2  0  0  0
 26 27  1  0  0  0
 28104  1  0  0  0
 28105  1  0  0  0
 29106  1  0  0  0
 29107  1  0  0  0
 33 34  1  0  0  0
 33 66  1  0  0  0
 33 70  2  0  0  0
 34 36  1  0  0  0
 34 59  1  0  0  0
 34108  1  0  0  0
 35 44  2  0  0  0
 35 45  1  0  0  0
 35 68  1  0  0  0
 36 56  1  0  0  0
 36109  1  0  0  0
 37 39  1  0  0  0
 37 47  1  0  0  0
 37 66  1  0  0  0
 37110  1  0  0  0
 38 43  2  0  0  0
 38 46  1  0  0  0
 38 47  1  0  0  0
 39 64  1  0  0  0
 39 67  2  0  0  0
 40 52  1  0  0  0
 40 53  2  0  0  0
 40 58  1  0  0  0
 41111  1  0  0  0
 41112  1  0  0  0
 41113  1  0  0  0
 41 48  1  0  0  0
 42 43  1  0  0  0
 42 66  1  0  0  0
 42114  1  0  0  0
 42115  1  0  0  0
 43 44  1  0  0  0
 44116  1  0  0  0
 45 46  2  0  0  0
 45117  1  0  0  0
 46118  1  0  0  0
 47119  1  0  0  0
 47120  1  0  0  0
 48 56  1  0  0  0
 48 65  1  0  0  0
 48121  1  0  0  0
 49 50  1  0  0  0
 49 53  1  0  0  0
 49 64  1  0  0  0
 49122  1  0  0  0
 50 51  1  0  0  0
 50123  1  0  0  0
 50124  1  0  0  0
 51 52  1  0  0  0
 51125  1  0  0  0
 51126  1  0  0  0
 52127  1  0  0  0
 52128  1  0  0  0
 53 54  1  0  0  0
 54 55  2  0  0  0
 54129  1  0  0  0
 55 57  1  0  0  0
 55130  1  0  0  0
 56 69  2  0  0  0
 57 58  2  0  0  0
 57131  1  0  0  0
 58132  1  0  0  0
 59 60  1  0  0  0
 59 61  1  0  0  0
 59 62  1  0  0  0
 60133  1  0  0  0
 60134  1  0  0  0
 60135  1  0  0  0
 61136  1  0  0  0
 61137  1  0  0  0
 61138  1  0  0  0
 62139  1  0  0  0
 62140  1  0  0  0
 62141  1  0  0  0
 63 65  1  0  0  0
 63142  1  0  0  0
 63143  1  0  0  0
 63144  1  0  0  0
 64145  1  0  0  0
 65146  1  0  0  0
 68 86  1  0  0  0
 71 72  2  0  0  0
 71 74  1  0  0  0
 71147  1  0  0  0
 72 75  1  0  0  0
 72148  1  0  0  0
 73 74  2  0  0  0
 73 76  1  0  0  0
 73149  1  0  0  0
 74 77  1  0  0  0
 75 76  2  0  0  0
 75 80  1  0  0  0
 76 81  1  0  0  0
 77150  1  0  0  0
 77151  1  0  0  0
 77152  1  0  0  0
 78 83  1  0  0  0
 78153  1  0  0  0
 78154  1  0  0  0
 78155  1  0  0  0
 79156  1  0  0  0
 79157  1  0  0  0
 79158  1  0  0  0
 79 87  1  0  0  0
 80 87  1  0  0  0
 80159  1  0  0  0
 80160  1  0  0  0
 81 84  1  0  0  0
 81161  1  0  0  0
 81162  1  0  0  0
 82 84  1  0  0  0
 82163  1  0  0  0
 82164  1  0  0  0
 83 87  1  0  0  0
 83165  1  0  0  0
 83166  1  0  0  0
 84167  1  0  0  0
 84168  1  0  0  0
 85 86  1  0  0  0
 85 87  1  0  0  0
 85169  1  0  0  0
 85170  1  0  0  0
 86171  1  0  0  0
 86172  1  0  0  0
M  ISO  4   1 100  68 101  82 100  86 101
M  END
> <chiral flag>
0

> <version>
0

> <s_m_source_file>
/data/baiqing/PycharmProjects/Reinvent-master-3.2/result/LINK_invent/BTK/process_docking_weight1_custom_product_contain_oxygen_bond_distance_aromatic_linkinvent_7_9_3/rearranged_h_0133.sdf

> <i_m_source_file_index>
42

> <r_mmod_Potential_Energy-OPLS-2005>
68.8788986206055

> <r_mmod_Stretch_Energy-OPLS-2005>
61.0782432556152

> <r_mmod_Bend_Energy-OPLS-2005>
137.321807861328

> <r_mmod_Torsional_Energy-OPLS-2005>
192.214492797852

> <r_mmod_Improper_Torsional_Energy-OPLS-2005>
3.8417284488678

> <r_mmod_Van_der_Waal_Energy-OPLS-2005>
172.102752685547

> <r_mmod_Electrostatic_Energy-OPLS-2005>
-336.702728271484

> <r_mmod_Solvation_Energy-OPLS-2005>
-183.0849609375

> <b_mmod_Minimization_Converged-OPLS-2005>
0

> <r_mmod_RMS_Derivative-OPLS-2005>
1.92784023284912

$$$$
42
                    3D
 Structure written by MMmdl.
162170  0  0  1  0            999 V2000
  -29.6564  -14.7423   20.8557 C   0  0  0  0  0  0
  -30.6081  -12.7731   19.4127 C   0  0  0  0  0  0
  -29.7616  -12.6044   18.1011 C   0  0  0  0  0  0
  -28.3253  -12.1009   18.3186 C   0  0  0  0  0  0
  -27.8503  -12.7643   19.5565 C   0  0  2  0  0  0
  -28.8152  -12.4428   20.7474 C   0  0  0  0  0  0
  -25.9229  -13.4490   20.5273 C   0  0  0  0  0  0
  -24.6406  -13.2998   20.7568 C   0  0  0  0  0  0
  -24.7849  -11.7389   20.5916 C   0  0  0  0  0  0
  -23.9853  -10.4564   20.8724 C   0  0  0  0  0  0
  -24.3839   -9.4982   21.8506 C   0  0  0  0  0  0
  -23.6402   -8.3083   22.0838 C   0  0  0  0  0  0
  -22.4563   -8.0497   21.3516 C   0  0  0  0  0  0
  -22.0658   -8.9760   20.3760 C   0  0  0  0  0  0
  -22.8448  -10.1121   20.1102 C   0  0  0  0  0  0
  -21.7036   -6.0871   22.5409 C   0  0  0  0  0  0
  -21.4156   -6.5724   23.8349 C   0  0  0  0  0  0
  -21.3728   -5.6815   24.9259 C   0  0  0  0  0  0
  -21.6053   -4.3080   24.7234 C   0  0  0  0  0  0
  -21.8809   -3.8211   23.4344 C   0  0  0  0  0  0
  -21.9266   -4.7077   22.3444 C   0  0  0  0  0  0
  -22.6482  -14.9301   21.6010 C   0  0  0  0  0  0
  -22.1654   -4.2281   21.0991 F   0  0  0  0  0  0
  -21.5606   -3.4539   25.7715 F   0  0  0  0  0  0
  -29.7934  -13.4057   20.5019 N   0  0  0  0  0  0
  -26.5027  -12.5523   19.8329 N   0  0  0  0  0  0
  -25.9518  -11.3817   20.0876 N   0  0  0  0  0  0
  -21.6022  -14.5726   22.4203 N   0  0  0  0  0  0
  -26.5716  -13.4419   21.6724 N   0  0  0  0  0  0
  -30.7346  -15.3294   20.5617 O   0  0  0  0  0  0
  -21.6841   -6.9123   21.4444 O   0  0  0  0  0  0
  -22.1468  -15.8823   21.0255 O   0  0  0  0  0  0
  -24.6571  -31.8394   23.1905 C   0  0  0  0  0  0
  -25.9319  -32.4638   23.8257 C   0  0  1  0  0  0
  -26.9543  -26.9511   20.1212 C   0  0  0  0  0  0
  -25.6035  -33.8456   24.2149 N   0  0  0  0  0  0
  -23.4471  -30.4869   21.5460 C   0  0  2  0  0  0
  -24.8397  -28.9255   20.0804 C   0  0  0  0  0  0
  -22.7587  -29.4579   22.4803 C   0  0  0  0  0  0
  -18.0320  -28.1383   22.8485 C   0  0  0  0  0  0
  -24.1516  -36.7236   23.2633 C   0  0  0  0  0  0
  -26.0213  -30.6471   21.4138 C   0  0  0  0  0  0
  -26.0355  -29.2581   20.7298 C   0  0  0  0  0  0
  -27.1145  -28.2777   20.7387 C   0  0  0  0  0  0
  -25.7749  -26.7942   19.3904 C   0  0  0  0  0  0
  -24.7341  -27.7199   19.3925 C   0  0  0  0  0  0
  -23.6573  -29.8683   20.1470 C   0  0  0  0  0  0
  -25.4148  -36.2989   24.0298 C   0  0  1  0  0  0
  -20.5936  -28.3722   23.1207 C   0  0  2  0  0  0
  -20.6798  -26.9419   22.5384 C   0  0  0  0  0  0
  -19.5755  -26.6375   21.5209 C   0  0  0  0  0  0
  -18.1950  -26.7922   22.1631 C   0  0  0  0  0  0
  -19.1575  -28.8872   23.2845 C   0  0  0  0  0  0
  -18.9483  -30.1467   23.8877 C   0  0  0  0  0  0
  -17.6474  -30.6583   24.0562 C   0  0  0  0  0  0
  -25.9114  -34.9375   23.5027 C   0  0  0  0  0  0
  -16.5371  -29.9069   23.6338 C   0  0  0  0  0  0
  -16.7302  -28.6483   23.0373 C   0  0  0  0  0  0
  -26.4563  -31.6545   25.0764 C   0  0  0  0  0  0
  -25.3707  -31.3807   26.1439 C   0  0  0  0  0  0
  -27.0412  -30.2888   24.6505 C   0  0  0  0  0  0
  -27.6070  -32.4350   25.7537 C   0  0  0  0  0  0
  -27.5585  -37.1779   24.8454 C   0  0  0  0  0  0
  -21.4273  -29.3063   22.3572 N   0  0  0  0  0  0
  -26.4290  -37.3720   23.9404 N   0  0  0  0  0  0
  -24.7330  -31.0162   22.1006 N   0  0  0  0  0  0
  -23.4233  -28.8085   23.2922 O   0  0  0  0  0  0
  -27.7442  -25.7357   20.2234 O   0  0  0  0  0  0
  -26.5695  -34.8888   22.4611 O   0  0  0  0  0  0
  -23.5682  -32.1358   23.7082 O   0  0  0  0  0  0
  -22.4361  -12.9061   20.4384 C   0  0  0  0  0  0
  -23.1900  -14.3378   19.3491 C   0  0  0  0  0  0
  -24.3881  -14.0052   22.9299 C   0  0  0  0  0  0
  -23.1069  -12.6990   22.3012 C   0  0  0  0  0  0
  -25.0768  -15.4073   21.7942 C   0  0  0  0  0  0
  -24.4482  -15.5927   20.0957 C   0  0  0  0  0  0
  -25.9644  -21.3738   19.7505 C   0  0  0  0  0  0
  -22.5112  -11.6985   23.2783 C   0  0  0  0  0  0
  -26.8319  -15.9686   21.7495 C   0  0  0  0  0  0
  -26.7560  -22.7352   20.4408 C   0  0  0  0  0  0
  -26.0678  -19.7014   20.1265 C   0  0  0  0  0  0
  -27.2819  -24.2492   19.7164 C   0  0  0  0  0  0
  -24.8933  -18.3882   20.0160 C   0  0  0  0  0  0
  -28.4422  -15.2673   21.6169 N   0  0  0  0  0  0
  -25.1878  -21.6455   18.8310 O   0  0  0  0  0  0
  -24.9322  -16.8723   19.4755 O   0  0  0  0  0  0
  -31.4810  -13.3878   19.1860 H   0  0  0  0  0  0
  -31.0339  -11.8186   19.7321 H   0  0  0  0  0  0
  -30.2858  -11.9565   17.3965 H   0  0  0  0  0  0
  -29.7029  -13.5793   17.6130 H   0  0  0  0  0  0
  -28.3174  -11.0161   18.4374 H   0  0  0  0  0  0
  -27.6905  -12.3336   17.4615 H   0  0  0  0  0  0
  -27.8658  -13.8197   19.2683 H   0  0  0  0  0  0
  -29.1531  -11.4068   20.6605 H   0  0  0  0  0  0
  -28.5790  -12.4626   21.8074 H   0  0  0  0  0  0
  -25.2775   -9.6861   22.4277 H   0  0  0  0  0  0
  -23.9890   -7.6081   22.8284 H   0  0  0  0  0  0
  -21.1963   -8.7764   19.7645 H   0  0  0  0  0  0
  -22.5687  -10.7067   19.2556 H   0  0  0  0  0  0
  -21.2173   -7.6243   23.9880 H   0  0  0  0  0  0
  -21.1532   -6.0519   25.9170 H   0  0  0  0  0  0
  -22.0487   -2.7673   23.2808 H   0  0  0  0  0  0
  -21.6510  -13.6786   22.8859 H   0  0  0  0  0  0
  -20.8201  -15.1892   22.5485 H   0  0  0  0  0  0
  -25.9316  -13.8340   22.3517 H   0  0  0  0  0  0
  -27.4093  -14.0214   21.6564 H   0  0  0  0  0  0
  -26.7376  -32.5126   23.0936 H   0  0  0  0  0  0
  -25.0130  -33.9541   25.0265 H   0  0  0  0  0  0
  -22.7565  -31.3232   21.4199 H   0  0  0  0  0  0
  -23.3784  -35.9554   23.3242 H   0  0  0  0  0  0
  -24.3609  -36.8932   22.2058 H   0  0  0  0  0  0
  -23.7272  -37.6417   23.6712 H   0  0  0  0  0  0
  -26.2260  -31.4023   20.6538 H   0  0  0  0  0  0
  -26.8801  -30.6591   22.0735 H   0  0  0  0  0  0
  -28.0136  -28.4870   21.2989 H   0  0  0  0  0  0
  -25.5391  -25.8967   18.8502 H   0  0  0  0  0  0
  -23.8198  -27.4768   18.8656 H   0  0  0  0  0  0
  -23.8280  -30.6643   19.4224 H   0  0  0  0  0  0
  -22.7510  -29.3576   19.8152 H   0  0  0  0  0  0
  -25.1338  -36.1791   25.0787 H   0  0  0  0  0  0
  -21.0052  -28.3314   24.1313 H   0  0  0  0  0  0
  -20.5695  -26.2338   23.3614 H   0  0  0  0  0  0
  -21.6666  -26.7417   22.1175 H   0  0  0  0  0  0
  -19.6913  -25.6280   21.1257 H   0  0  0  0  0  0
  -19.6683  -27.3173   20.6734 H   0  0  0  0  0  0
  -17.4215  -26.6679   21.4046 H   0  0  0  0  0  0
  -18.0344  -26.0069   22.9031 H   0  0  0  0  0  0
  -19.7958  -30.7297   24.2236 H   0  0  0  0  0  0
  -17.5023  -31.6261   24.5156 H   0  0  0  0  0  0
  -15.5365  -30.2959   23.7662 H   0  0  0  0  0  0
  -15.8710  -28.0788   22.7099 H   0  0  0  0  0  0
  -24.5920  -30.7095   25.7804 H   0  0  0  0  0  0
  -24.8850  -32.2998   26.4717 H   0  0  0  0  0  0
  -25.7964  -30.9113   27.0314 H   0  0  0  0  0  0
  -26.3043  -29.6594   24.1509 H   0  0  0  0  0  0
  -27.3888  -29.7237   25.5168 H   0  0  0  0  0  0
  -27.9036  -30.4033   23.9940 H   0  0  0  0  0  0
  -27.2652  -33.3716   26.1953 H   0  0  0  0  0  0
  -28.3936  -32.6811   25.0393 H   0  0  0  0  0  0
  -28.0660  -31.8584   26.5572 H   0  0  0  0  0  0
  -28.2555  -38.0119   24.7525 H   0  0  0  0  0  0
  -28.1128  -36.2645   24.6243 H   0  0  0  0  0  0
  -27.2301  -37.1380   25.8854 H   0  0  0  0  0  0
  -20.9449  -29.8839   21.6835 H   0  0  0  0  0  0
  -26.0138  -38.2780   24.1408 H   0  0  0  0  0  0
  -21.6054  -12.3269   20.0653 H   0  0  0  0  0  0
  -22.8087  -14.5007   18.3525 H   0  0  0  0  0  0
  -24.8222  -13.8590   23.9113 H   0  0  0  0  0  0
  -22.0305  -12.2192   24.1091 H   0  0  0  0  0  0
  -23.2859  -11.0583   23.6995 H   0  0  0  0  0  0
  -21.7709  -11.0610   22.7909 H   0  0  0  0  0  0
  -26.9044  -16.4913   22.7049 H   0  0  0  0  0  0
  -26.8600  -16.7778   21.0228 H   0  0  0  0  0  0
  -27.6119  -22.3285   20.9793 H   0  0  0  0  0  0
  -26.0677  -23.0301   21.2298 H   0  0  0  0  0  0
  -26.4507  -19.6750   21.1473 H   0  0  0  0  0  0
  -26.9164  -19.3703   19.5283 H   0  0  0  0  0  0
  -26.7304  -24.3304   18.7859 H   0  0  0  0  0  0
  -28.2446  -23.9303   19.3159 H   0  0  0  0  0  0
  -24.0797  -18.8131   19.4260 H   0  0  0  0  0  0
  -24.4574  -18.3103   21.0139 H   0  0  0  0  0  0
  -28.9360  -15.8697   22.2605 H   0  0  0  0  0  0
  1 25  1  0  0  0
  1 30  2  0  0  0
  1 84  1  0  0  0
  2  3  1  0  0  0
  2 25  1  0  0  0
  2 87  1  0  0  0
  2 88  1  0  0  0
  3  4  1  0  0  0
  3 89  1  0  0  0
  3 90  1  0  0  0
  4  5  1  0  0  0
  4 91  1  0  0  0
  4 92  1  0  0  0
  5  6  1  0  0  0
  5 26  1  0  0  0
  5 93  1  0  0  0
  6 25  1  0  0  0
  6 94  1  0  0  0
  6 95  1  0  0  0
  7  8  2  0  0  0
  7 26  1  0  0  0
  7 29  1  0  0  0
  8  9  1  0  0  0
  8 22  1  0  0  0
  9 10  1  0  0  0
  9 27  2  0  0  0
 10 11  2  0  0  0
 10 15  1  0  0  0
 11 12  1  0  0  0
 11 96  1  0  0  0
 12 13  2  0  0  0
 12 97  1  0  0  0
 13 14  1  0  0  0
 13 31  1  0  0  0
 14 15  2  0  0  0
 14 98  1  0  0  0
 15 99  1  0  0  0
 16 17  2  0  0  0
 16 21  1  0  0  0
 16 31  1  0  0  0
 17 18  1  0  0  0
 17100  1  0  0  0
 18 19  2  0  0  0
 18101  1  0  0  0
 19 20  1  0  0  0
 19 24  1  0  0  0
 20 21  2  0  0  0
 20102  1  0  0  0
 21 23  1  0  0  0
 22 28  1  0  0  0
 22 32  2  0  0  0
 26 27  1  0  0  0
 28103  1  0  0  0
 28104  1  0  0  0
 29105  1  0  0  0
 29106  1  0  0  0
 33 34  1  0  0  0
 33 66  1  0  0  0
 33 70  2  0  0  0
 34 36  1  0  0  0
 34 59  1  0  0  0
 34107  1  0  0  0
 35 44  2  0  0  0
 35 45  1  0  0  0
 35 68  1  0  0  0
 36 56  1  0  0  0
 36108  1  0  0  0
 37 39  1  0  0  0
 37 47  1  0  0  0
 37 66  1  0  0  0
 37109  1  0  0  0
 38 43  2  0  0  0
 38 46  1  0  0  0
 38 47  1  0  0  0
 39 64  1  0  0  0
 39 67  2  0  0  0
 40 52  1  0  0  0
 40 53  2  0  0  0
 40 58  1  0  0  0
 41110  1  0  0  0
 41111  1  0  0  0
 41112  1  0  0  0
 41 48  1  0  0  0
 42 43  1  0  0  0
 42 66  1  0  0  0
 42113  1  0  0  0
 42114  1  0  0  0
 43 44  1  0  0  0
 44115  1  0  0  0
 45 46  2  0  0  0
 45116  1  0  0  0
 46117  1  0  0  0
 47118  1  0  0  0
 47119  1  0  0  0
 48 56  1  0  0  0
 48 65  1  0  0  0
 48120  1  0  0  0
 49 50  1  0  0  0
 49 53  1  0  0  0
 49 64  1  0  0  0
 49121  1  0  0  0
 50 51  1  0  0  0
 50122  1  0  0  0
 50123  1  0  0  0
 51 52  1  0  0  0
 51124  1  0  0  0
 51125  1  0  0  0
 52126  1  0  0  0
 52127  1  0  0  0
 53 54  1  0  0  0
 54 55  2  0  0  0
 54128  1  0  0  0
 55 57  1  0  0  0
 55129  1  0  0  0
 56 69  2  0  0  0
 57 58  2  0  0  0
 57130  1  0  0  0
 58131  1  0  0  0
 59 60  1  0  0  0
 59 61  1  0  0  0
 59 62  1  0  0  0
 60132  1  0  0  0
 60133  1  0  0  0
 60134  1  0  0  0
 61135  1  0  0  0
 61136  1  0  0  0
 61137  1  0  0  0
 62138  1  0  0  0
 62139  1  0  0  0
 62140  1  0  0  0
 63 65  1  0  0  0
 63141  1  0  0  0
 63142  1  0  0  0
 63143  1  0  0  0
 64144  1  0  0  0
 65145  1  0  0  0
 68 82  1  0  0  0
 71 72  2  0  0  0
 71 74  1  0  0  0
 71146  1  0  0  0
 72 76  1  0  0  0
 72147  1  0  0  0
 73 74  2  0  0  0
 73 75  1  0  0  0
 73148  1  0  0  0
 74 78  1  0  0  0
 75 76  2  0  0  0
 75 79  1  0  0  0
 76 86  1  0  0  0
 77 80  1  0  0  0
 77 81  1  0  0  0
 77 85  2  0  0  0
 78149  1  0  0  0
 78150  1  0  0  0
 78151  1  0  0  0
 79 84  1  0  0  0
 79152  1  0  0  0
 79153  1  0  0  0
 80 82  1  0  0  0
 80154  1  0  0  0
 80155  1  0  0  0
 81 83  1  0  0  0
 81156  1  0  0  0
 81157  1  0  0  0
 82158  1  0  0  0
 82159  1  0  0  0
 83 86  1  0  0  0
 83160  1  0  0  0
 83161  1  0  0  0
 84162  1  0  0  0
M  ISO  4   1 100  68 101  82 101  84 100
M  END
> <chiral flag>
0

> <version>
0

> <s_m_source_file>
/data/baiqing/PycharmProjects/Reinvent-master-3.2/result/LINK_invent/BTK/process_docking_weight1_custom_product_contain_oxygen_bond_distance_aromatic_linkinvent_7_9_3/rearranged_h_0133.sdf

> <i_m_source_file_index>
43

> <r_mmod_Potential_Energy-OPLS-2005>
13063.19921875

> <r_mmod_Stretch_Energy-OPLS-2005>
6705.1640625

> <r_mmod_Bend_Energy-OPLS-2005>
924.848754882812

> <r_mmod_Torsional_Energy-OPLS-2005>
530.847534179688

> <r_mmod_Improper_Torsional_Energy-OPLS-2005>
77.424690246582

> <r_mmod_Van_der_Waal_Energy-OPLS-2005>
3252.85034179688

> <r_mmod_Electrostatic_Energy-OPLS-2005>
-470.081634521484

> <r_mmod_Solvation_Energy-OPLS-2005>
-236.924240112305

> <b_mmod_Minimization_Converged-OPLS-2005>
0

> <r_mmod_RMS_Derivative-OPLS-2005>
6.39553308486938

$$$$
43
                    3D
 Structure written by MMmdl.
183192  0  0  1  0            999 V2000
  -30.6924  -14.6180   20.3095 C   0  0  0  0  0  0
  -30.3912  -12.3537   19.3816 C   0  0  0  0  0  0
  -29.4296  -12.4163   18.1742 C   0  0  0  0  0  0
  -27.9692  -12.1898   18.6115 C   0  0  0  0  0  0
  -27.5918  -13.1122   19.7845 C   0  0  2  0  0  0
  -28.6737  -13.0703   20.8851 C   0  0  0  0  0  0
  -25.2412  -13.7776   20.5731 C   0  0  0  0  0  0
  -24.1663  -13.0220   20.9279 C   0  0  0  0  0  0
  -24.6146  -11.6637   20.8938 C   0  0  0  0  0  0
  -23.8822  -10.4136   21.0574 C   0  0  0  0  0  0
  -24.3402   -9.4078   21.9340 C   0  0  0  0  0  0
  -23.6151   -8.2124   22.0835 C   0  0  0  0  0  0
  -22.4178   -8.0158   21.3586 C   0  0  0  0  0  0
  -21.9793   -9.0090   20.4685 C   0  0  0  0  0  0
  -22.7048  -10.1992   20.3182 C   0  0  0  0  0  0
  -21.6776   -6.0683   22.5257 C   0  0  0  0  0  0
  -21.4016   -6.5624   23.8176 C   0  0  0  0  0  0
  -21.3639   -5.6784   24.9142 C   0  0  0  0  0  0
  -21.6034   -4.3061   24.7206 C   0  0  0  0  0  0
  -21.8832   -3.8143   23.4342 C   0  0  0  0  0  0
  -21.9175   -4.6937   22.3381 C   0  0  0  0  0  0
  -22.7712  -13.5050   21.1867 C   0  0  0  0  0  0
  -22.1669   -4.2131   21.0987 F   0  0  0  0  0  0
  -21.5585   -3.4563   25.7745 F   0  0  0  0  0  0
  -29.9802  -13.4337   20.3020 N   0  0  0  0  0  0
  -26.2670  -12.8762   20.3180 N   0  0  0  0  0  0
  -25.8984  -11.6053   20.5838 N   0  0  0  0  0  0
  -22.0270  -12.8163   22.0419 N   0  0  0  0  0  0
  -25.4118  -15.1541   20.4372 N   0  0  0  0  0  0
  -31.9171  -14.5389   20.2503 O   0  0  0  0  0  0
  -21.6561   -6.8772   21.4225 O   0  0  0  0  0  0
  -22.3428  -14.5333   20.6566 O   0  0  0  0  0  0
  -24.6126  -31.8826   23.2009 C   0  0  0  0  0  0
  -25.9045  -32.4808   23.8401 C   0  0  1  0  0  0
  -27.2427  -27.4324   20.1581 C   0  0  0  0  0  0
  -25.6022  -33.8650   24.2346 N   0  0  0  0  0  0
  -23.3988  -30.4805   21.5473 C   0  0  2  0  0  0
  -24.8512  -28.9439   20.1155 C   0  0  0  0  0  0
  -22.7389  -29.4656   22.5128 C   0  0  0  0  0  0
  -18.0287  -28.1346   22.8418 C   0  0  0  0  0  0
  -24.1538  -36.7267   23.2632 C   0  0  0  0  0  0
  -25.9258  -30.8345   21.3615 C   0  0  0  0  0  0
  -26.0009  -29.4691   20.7133 C   0  0  0  0  0  0
  -27.1997  -28.7246   20.7193 C   0  0  0  0  0  0
  -26.0804  -26.9119   19.5497 C   0  0  0  0  0  0
  -24.8896  -27.6653   19.5228 C   0  0  0  0  0  0
  -23.6005  -29.7908   20.1687 C   0  0  0  0  0  0
  -25.4152  -36.3125   24.0348 C   0  0  1  0  0  0
  -20.5832  -28.3577   23.1291 C   0  0  2  0  0  0
  -20.6733  -26.9351   22.5332 C   0  0  0  0  0  0
  -19.5748  -26.6354   21.5086 C   0  0  0  0  0  0
  -18.1903  -26.7875   22.1533 C   0  0  0  0  0  0
  -19.1535  -28.8803   23.2818 C   0  0  0  0  0  0
  -18.9504  -30.1383   23.8855 C   0  0  0  0  0  0
  -17.6517  -30.6503   24.0568 C   0  0  0  0  0  0
  -25.9100  -34.9483   23.5129 C   0  0  0  0  0  0
  -16.5386  -29.9009   23.6378 C   0  0  0  0  0  0
  -16.7285  -28.6466   23.0324 C   0  0  0  0  0  0
  -26.4499  -31.6581   25.0758 C   0  0  0  0  0  0
  -25.3708  -31.3730   26.1476 C   0  0  0  0  0  0
  -27.0341  -30.3005   24.6144 C   0  0  0  0  0  0
  -27.6040  -32.4373   25.7519 C   0  0  0  0  0  0
  -27.5601  -37.1772   24.8454 C   0  0  0  0  0  0
  -21.4171  -29.2946   22.3748 N   0  0  0  0  0  0
  -26.4355  -37.3787   23.9357 N   0  0  0  0  0  0
  -24.6586  -31.0884   22.0898 N   0  0  0  0  0  0
  -23.4127  -28.8316   23.3275 O   0  0  0  0  0  0
  -28.4207  -26.7265   20.2512 O   0  0  0  0  0  0
  -26.5566  -34.8955   22.4636 O   0  0  0  0  0  0
  -23.5309  -32.1699   23.7336 O   0  0  0  0  0  0
  -32.0717  -20.2342   23.8973 C   0  0  0  0  0  0
  -31.7787  -19.3270   22.8554 C   0  0  0  0  0  0
  -31.4299  -21.4899   23.9403 C   0  0  0  0  0  0
  -30.1598  -20.9082   21.9515 C   0  0  0  0  0  0
  -30.7649  -19.6340   21.9101 C   0  0  0  0  0  0
  -30.5021  -21.8578   22.9422 C   0  0  0  0  0  0
  -30.1914  -17.1334   21.2121 C   0  0  0  0  0  0
  -29.8174  -16.8506   22.4902 C   0  0  0  0  0  0
  -30.6547  -18.0336   18.3164 C   0  0  0  0  0  0
  -30.8380  -19.0484   19.4488 C   0  0  0  0  0  0
  -30.9973  -16.6272   18.8190 C   0  0  0  0  0  0
  -30.2609  -18.6469   20.8342 C   0  0  2  0  0  0
  -30.1302  -16.0987   20.0378 C   0  0  1  0  0  0
  -28.6692  -16.1707   19.5476 C   0  0  0  0  0  0
  -29.1714  -15.5481   24.6012 C   0  0  0  0  0  0
  -26.5583  -25.1996   24.1524 C   0  0  0  0  0  0
  -29.9458  -23.2865   22.9248 C   0  0  0  0  0  0
  -29.2888  -15.5572   23.0750 C   0  0  0  0  0  0
  -26.7461  -25.2788   22.6251 C   0  0  0  0  0  0
  -28.5347  -23.4697   22.3225 C   0  0  0  0  0  0
  -28.3811  -25.3360   20.6039 C   0  0  0  0  0  0
  -28.1720  -24.9679   22.1058 C   0  0  1  0  0  0
  -31.4216  -12.4409   19.0295 H   0  0  0  0  0  0
  -30.3362  -11.3781   19.8674 H   0  0  0  0  0  0
  -29.7231  -11.6903   17.4144 H   0  0  0  0  0  0
  -29.4839  -13.4006   17.7078 H   0  0  0  0  0  0
  -27.8360  -11.1423   18.8949 H   0  0  0  0  0  0
  -27.2875  -12.3490   17.7735 H   0  0  0  0  0  0
  -27.5050  -14.0492   19.2665 H   0  0  0  0  0  0
  -28.7312  -12.0522   21.2819 H   0  0  0  0  0  0
  -28.3662  -13.6467   21.7404 H   0  0  0  0  0  0
  -25.2504   -9.5580   22.4951 H   0  0  0  0  0  0
  -23.9856   -7.4515   22.7552 H   0  0  0  0  0  0
  -21.0754   -8.8533   19.8949 H   0  0  0  0  0  0
  -22.3490  -10.9531   19.6311 H   0  0  0  0  0  0
  -21.2102   -7.6139   23.9657 H   0  0  0  0  0  0
  -21.1426   -6.0557   25.9017 H   0  0  0  0  0  0
  -22.0660   -2.7619   23.2830 H   0  0  0  0  0  0
  -22.3799  -11.9903   22.5085 H   0  0  0  0  0  0
  -21.0887  -13.1273   22.2467 H   0  0  0  0  0  0
  -24.6433  -15.7788   20.6459 H   0  0  0  0  0  0
  -26.2834  -15.6381   20.2849 H   0  0  0  0  0  0
  -26.7105  -32.5506   23.1156 H   0  0  0  0  0  0
  -25.0406  -33.9853   25.0635 H   0  0  0  0  0  0
  -22.6811  -31.2870   21.3879 H   0  0  0  0  0  0
  -23.3904  -35.9516   23.3333 H   0  0  0  0  0  0
  -24.3617  -36.8868   22.2046 H   0  0  0  0  0  0
  -23.7252  -37.6467   23.6623 H   0  0  0  0  0  0
  -26.0715  -31.5984   20.5965 H   0  0  0  0  0  0
  -26.7963  -30.8647   22.0034 H   0  0  0  0  0  0
  -28.0845  -29.1257   21.1962 H   0  0  0  0  0  0
  -26.0936  -25.9221   19.1185 H   0  0  0  0  0  0
  -24.0094  -27.2513   19.0522 H   0  0  0  0  0  0
  -23.6622  -30.5505   19.3882 H   0  0  0  0  0  0
  -22.7337  -29.1782   19.9166 H   0  0  0  0  0  0
  -25.1327  -36.2014   25.0859 H   0  0  0  0  0  0
  -20.9784  -28.3062   24.1444 H   0  0  0  0  0  0
  -20.5553  -26.2209   23.3510 H   0  0  0  0  0  0
  -21.6613  -26.7302   22.1168 H   0  0  0  0  0  0
  -19.6977  -25.6295   21.1096 H   0  0  0  0  0  0
  -19.6732  -27.3144   20.6603 H   0  0  0  0  0  0
  -17.4113  -26.6624   21.3980 H   0  0  0  0  0  0
  -18.0295  -26.0012   22.8946 H   0  0  0  0  0  0
  -19.8002  -30.7144   24.2219 H   0  0  0  0  0  0
  -17.5087  -31.6115   24.5313 H   0  0  0  0  0  0
  -15.5383  -30.2830   23.7825 H   0  0  0  0  0  0
  -15.8687  -28.0727   22.7077 H   0  0  0  0  0  0
  -24.5803  -30.7177   25.7793 H   0  0  0  0  0  0
  -24.8978  -32.2922   26.4966 H   0  0  0  0  0  0
  -25.8013  -30.8845   27.0217 H   0  0  0  0  0  0
  -26.2889  -29.6744   24.1226 H   0  0  0  0  0  0
  -27.4161  -29.7260   25.4597 H   0  0  0  0  0  0
  -27.8701  -30.4368   23.9270 H   0  0  0  0  0  0
  -27.2595  -33.3648   26.2125 H   0  0  0  0  0  0
  -28.3810  -32.7045   25.0324 H   0  0  0  0  0  0
  -28.0786  -31.8541   26.5442 H   0  0  0  0  0  0
  -28.2597  -38.0084   24.7504 H   0  0  0  0  0  0
  -28.1118  -36.2609   24.6282 H   0  0  0  0  0  0
  -27.2246  -37.1360   25.8838 H   0  0  0  0  0  0
  -20.9428  -29.8460   21.6776 H   0  0  0  0  0  0
  -26.0308  -38.2894   24.1335 H   0  0  0  0  0  0
  -32.7791  -19.9637   24.6747 H   0  0  0  0  0  0
  -32.3097  -18.3797   22.8174 H   0  0  0  0  0  0
  -31.6686  -22.1778   24.7427 H   0  0  0  0  0  0
  -29.4273  -21.1396   21.1935 H   0  0  0  0  0  0
  -29.7101  -17.6763   23.1748 H   0  0  0  0  0  0
  -31.3113  -18.3112   17.4863 H   0  0  0  0  0  0
  -29.6551  -18.0797   17.8804 H   0  0  0  0  0  0
  -30.4007  -19.9950   19.1256 H   0  0  0  0  0  0
  -31.8996  -19.2548   19.5523 H   0  0  0  0  0  0
  -32.0648  -16.6499   19.0573 H   0  0  0  0  0  0
  -30.9172  -15.9431   17.9671 H   0  0  0  0  0  0
  -29.1936  -18.8721   20.7467 H   0  0  0  0  0  0
  -28.3042  -17.1951   19.4306 H   0  0  0  0  0  0
  -28.0190  -15.7269   20.2961 H   0  0  0  0  0  0
  -28.5473  -15.7143   18.5622 H   0  0  0  0  0  0
  -28.8489  -14.5527   24.9266 H   0  0  0  0  0  0
  -28.4361  -16.2659   24.9682 H   0  0  0  0  0  0
  -30.1314  -15.7628   25.0722 H   0  0  0  0  0  0
  -26.8906  -24.2576   24.5907 H   0  0  0  0  0  0
  -25.5048  -25.3208   24.4122 H   0  0  0  0  0  0
  -27.1037  -25.9954   24.6594 H   0  0  0  0  0  0
  -30.6476  -23.9044   22.3640 H   0  0  0  0  0  0
  -29.9482  -23.6973   23.9422 H   0  0  0  0  0  0
  -29.9109  -14.7112   22.7902 H   0  0  0  0  0  0
  -28.2770  -15.4463   22.6770 H   0  0  0  0  0  0
  -26.4760  -26.2914   22.3478 H   0  0  0  0  0  0
  -26.0122  -24.6386   22.1381 H   0  0  0  0  0  0
  -27.8207  -22.9425   22.9611 H   0  0  0  0  0  0
  -28.4710  -22.9714   21.3544 H   0  0  0  0  0  0
  -27.7036  -24.7729   19.9702 H   0  0  0  0  0  0
  -29.3779  -24.9799   20.3385 H   0  0  0  0  0  0
  -28.8815  -25.5620   22.6850 H   0  0  0  0  0  0
  1 25  1  0  0  0
  1 30  2  0  0  0
  1 83  1  0  0  0
  2  3  1  0  0  0
  2 25  1  0  0  0
  2 93  1  0  0  0
  2 94  1  0  0  0
  3  4  1  0  0  0
  3 95  1  0  0  0
  3 96  1  0  0  0
  4  5  1  0  0  0
  4 97  1  0  0  0
  4 98  1  0  0  0
  5  6  1  0  0  0
  5 26  1  0  0  0
  5 99  1  0  0  0
  6 25  1  0  0  0
  6100  1  0  0  0
  6101  1  0  0  0
  7  8  2  0  0  0
  7 26  1  0  0  0
  7 29  1  0  0  0
  8  9  1  0  0  0
  8 22  1  0  0  0
  9 10  1  0  0  0
  9 27  2  0  0  0
 10 11  2  0  0  0
 10 15  1  0  0  0
 11 12  1  0  0  0
 11102  1  0  0  0
 12 13  2  0  0  0
 12103  1  0  0  0
 13 14  1  0  0  0
 13 31  1  0  0  0
 14 15  2  0  0  0
 14104  1  0  0  0
 15105  1  0  0  0
 16 17  2  0  0  0
 16 21  1  0  0  0
 16 31  1  0  0  0
 17 18  1  0  0  0
 17106  1  0  0  0
 18 19  2  0  0  0
 18107  1  0  0  0
 19 20  1  0  0  0
 19 24  1  0  0  0
 20 21  2  0  0  0
 20108  1  0  0  0
 21 23  1  0  0  0
 22 28  1  0  0  0
 22 32  2  0  0  0
 26 27  1  0  0  0
 28109  1  0  0  0
 28110  1  0  0  0
 29111  1  0  0  0
 29112  1  0  0  0
 33 34  1  0  0  0
 33 66  1  0  0  0
 33 70  2  0  0  0
 34 36  1  0  0  0
 34 59  1  0  0  0
 34113  1  0  0  0
 35 44  2  0  0  0
 35 45  1  0  0  0
 35 68  1  0  0  0
 36 56  1  0  0  0
 36114  1  0  0  0
 37 39  1  0  0  0
 37 47  1  0  0  0
 37 66  1  0  0  0
 37115  1  0  0  0
 38 43  2  0  0  0
 38 46  1  0  0  0
 38 47  1  0  0  0
 39 64  1  0  0  0
 39 67  2  0  0  0
 40 52  1  0  0  0
 40 53  2  0  0  0
 40 58  1  0  0  0
 41116  1  0  0  0
 41117  1  0  0  0
 41118  1  0  0  0
 41 48  1  0  0  0
 42 43  1  0  0  0
 42 66  1  0  0  0
 42119  1  0  0  0
 42120  1  0  0  0
 43 44  1  0  0  0
 44121  1  0  0  0
 45 46  2  0  0  0
 45122  1  0  0  0
 46123  1  0  0  0
 47124  1  0  0  0
 47125  1  0  0  0
 48 56  1  0  0  0
 48 65  1  0  0  0
 48126  1  0  0  0
 49 50  1  0  0  0
 49 53  1  0  0  0
 49 64  1  0  0  0
 49127  1  0  0  0
 50 51  1  0  0  0
 50128  1  0  0  0
 50129  1  0  0  0
 51 52  1  0  0  0
 51130  1  0  0  0
 51131  1  0  0  0
 52132  1  0  0  0
 52133  1  0  0  0
 53 54  1  0  0  0
 54 55  2  0  0  0
 54134  1  0  0  0
 55 57  1  0  0  0
 55135  1  0  0  0
 56 69  2  0  0  0
 57 58  2  0  0  0
 57136  1  0  0  0
 58137  1  0  0  0
 59 60  1  0  0  0
 59 61  1  0  0  0
 59 62  1  0  0  0
 60138  1  0  0  0
 60139  1  0  0  0
 60140  1  0  0  0
 61141  1  0  0  0
 61142  1  0  0  0
 61143  1  0  0  0
 62144  1  0  0  0
 62145  1  0  0  0
 62146  1  0  0  0
 63 65  1  0  0  0
 63147  1  0  0  0
 63148  1  0  0  0
 63149  1  0  0  0
 64150  1  0  0  0
 65151  1  0  0  0
 68 91  1  0  0  0
 71 72  2  0  0  0
 71 73  1  0  0  0
 71152  1  0  0  0
 72 75  1  0  0  0
 72153  1  0  0  0
 73 76  2  0  0  0
 73154  1  0  0  0
 74 75  2  0  0  0
 74 76  1  0  0  0
 74155  1  0  0  0
 75 82  1  0  0  0
 76 87  1  0  0  0
 77 78  2  0  0  0
 77 82  1  0  0  0
 77 83  1  0  0  0
 78 88  1  0  0  0
 78156  1  0  0  0
 79 80  1  0  0  0
 79 81  1  0  0  0
 79157  1  0  0  0
 79158  1  0  0  0
 80 82  1  0  0  0
 80159  1  0  0  0
 80160  1  0  0  0
 81 83  1  0  0  0
 81161  1  0  0  0
 81162  1  0  0  0
 82163  1  0  0  0
 83 84  1  0  0  0
 84164  1  0  0  0
 84165  1  0  0  0
 84166  1  0  0  0
 85 88  1  0  0  0
 85167  1  0  0  0
 85168  1  0  0  0
 85169  1  0  0  0
 86 89  1  0  0  0
 86170  1  0  0  0
 86171  1  0  0  0
 86172  1  0  0  0
 87 90  1  0  0  0
 87173  1  0  0  0
 87174  1  0  0  0
 88175  1  0  0  0
 88176  1  0  0  0
 89177  1  0  0  0
 89178  1  0  0  0
 89 92  1  0  0  0
 90 92  1  0  0  0
 90179  1  0  0  0
 90180  1  0  0  0
 91 92  1  0  0  0
 91181  1  0  0  0
 91182  1  0  0  0
 92183  1  0  0  0
M  ISO  4   1 100  68 101  83 100  91 101
M  END
> <chiral flag>
0

> <version>
0

> <s_m_source_file>
/data/baiqing/PycharmProjects/Reinvent-master-3.2/result/LINK_invent/BTK/process_docking_weight1_custom_product_contain_oxygen_bond_distance_aromatic_linkinvent_7_9_3/rearranged_h_0133.sdf

> <i_m_source_file_index>
44

> <r_mmod_Potential_Energy-OPLS-2005>
355.168670654297

> <r_mmod_Stretch_Energy-OPLS-2005>
64.7460556030273

> <r_mmod_Bend_Energy-OPLS-2005>
194.187362670898

> <r_mmod_Torsional_Energy-OPLS-2005>
292.629669189453

> <r_mmod_Improper_Torsional_Energy-OPLS-2005>
9.38971424102783

> <r_mmod_Van_der_Waal_Energy-OPLS-2005>
180.813995361328

> <r_mmod_Electrostatic_Energy-OPLS-2005>
-282.586853027344

> <r_mmod_Solvation_Energy-OPLS-2005>
-167.834976196289

> <b_mmod_Minimization_Converged-OPLS-2005>
0

> <r_mmod_RMS_Derivative-OPLS-2005>
10.8992738723755

$$$$
44
                    3D
 Structure written by MMmdl.
156164  0  0  1  0            999 V2000
  -30.6814  -14.5160   20.4667 C   0  0  0  0  0  0
  -30.4182  -12.3079   19.4271 C   0  0  0  0  0  0
  -29.4896  -12.4707   18.2058 C   0  0  0  0  0  0
  -28.0107  -12.3423   18.6244 C   0  0  0  0  0  0
  -27.6530  -13.2092   19.8621 C   0  0  2  0  0  0
  -28.7040  -13.0501   20.9847 C   0  0  0  0  0  0
  -25.2573  -13.8171   20.5716 C   0  0  0  0  0  0
  -24.1819  -13.0444   20.9214 C   0  0  0  0  0  0
  -24.6382  -11.6915   20.8771 C   0  0  0  0  0  0
  -23.9050  -10.4286   21.0402 C   0  0  0  0  0  0
  -24.3594   -9.4206   21.9184 C   0  0  0  0  0  0
  -23.6270   -8.2244   22.0754 C   0  0  0  0  0  0
  -22.4250   -8.0269   21.3549 C   0  0  0  0  0  0
  -21.9899   -9.0249   20.4655 C   0  0  0  0  0  0
  -22.7223  -10.2133   20.3063 C   0  0  0  0  0  0
  -21.6850   -6.0729   22.5286 C   0  0  0  0  0  0
  -21.4008   -6.5637   23.8221 C   0  0  0  0  0  0
  -21.3662   -5.6797   24.9189 C   0  0  0  0  0  0
  -21.6047   -4.3058   24.7234 C   0  0  0  0  0  0
  -21.8818   -3.8145   23.4353 C   0  0  0  0  0  0
  -21.9185   -4.6958   22.3406 C   0  0  0  0  0  0
  -22.7831  -13.5242   21.1842 C   0  0  0  0  0  0
  -22.1653   -4.2146   21.0983 F   0  0  0  0  0  0
  -21.5632   -3.4540   25.7749 F   0  0  0  0  0  0
  -30.0214  -13.3323   20.4027 N   0  0  0  0  0  0
  -26.2988  -12.9343   20.3381 N   0  0  0  0  0  0
  -25.9306  -11.6504   20.5812 N   0  0  0  0  0  0
  -22.0454  -12.8272   22.0393 N   0  0  0  0  0  0
  -25.4271  -15.1891   20.4092 N   0  0  0  0  0  0
  -31.8767  -14.6276   20.1966 O   0  0  0  0  0  0
  -21.6624   -6.8857   21.4237 O   0  0  0  0  0  0
  -22.3543  -14.5536   20.6672 O   0  0  0  0  0  0
  -24.6133  -31.8699   23.2123 C   0  0  0  0  0  0
  -25.9028  -32.4849   23.8416 C   0  0  1  0  0  0
  -27.2229  -27.4315   20.1029 C   0  0  0  0  0  0
  -25.5894  -33.8649   24.2352 N   0  0  0  0  0  0
  -23.4025  -30.4924   21.5530 C   0  0  2  0  0  0
  -24.8483  -28.9619   20.1102 C   0  0  0  0  0  0
  -22.7403  -29.4676   22.5017 C   0  0  0  0  0  0
  -18.0290  -28.1355   22.8470 C   0  0  0  0  0  0
  -24.1480  -36.7313   23.2645 C   0  0  0  0  0  0
  -25.9309  -30.8352   21.3656 C   0  0  0  0  0  0
  -26.0087  -29.4696   20.7099 C   0  0  0  0  0  0
  -27.2044  -28.7115   20.7013 C   0  0  0  0  0  0
  -26.0522  -26.9464   19.4806 C   0  0  0  0  0  0
  -24.8642  -27.6997   19.4925 C   0  0  0  0  0  0
  -23.6107  -29.8279   20.1655 C   0  0  0  0  0  0
  -25.4098  -36.3131   24.0357 C   0  0  1  0  0  0
  -20.5876  -28.3633   23.1291 C   0  0  2  0  0  0
  -20.6766  -26.9373   22.5310 C   0  0  0  0  0  0
  -19.5736  -26.6406   21.5118 C   0  0  0  0  0  0
  -18.1961  -26.7933   22.1563 C   0  0  0  0  0  0
  -19.1547  -28.8793   23.2921 C   0  0  0  0  0  0
  -18.9455  -30.1388   23.8960 C   0  0  0  0  0  0
  -17.6456  -30.6531   24.0591 C   0  0  0  0  0  0
  -25.9018  -34.9497   23.5149 C   0  0  0  0  0  0
  -16.5365  -29.9039   23.6319 C   0  0  0  0  0  0
  -16.7301  -28.6476   23.0315 C   0  0  0  0  0  0
  -26.4457  -31.6631   25.0745 C   0  0  0  0  0  0
  -25.3730  -31.3715   26.1495 C   0  0  0  0  0  0
  -27.0292  -30.3084   24.6117 C   0  0  0  0  0  0
  -27.6042  -32.4341   25.7502 C   0  0  0  0  0  0
  -27.5582  -37.1816   24.8473 C   0  0  0  0  0  0
  -21.4132  -29.3061   22.3741 N   0  0  0  0  0  0
  -26.4293  -37.3808   23.9426 N   0  0  0  0  0  0
  -24.6665  -31.0812   22.1016 N   0  0  0  0  0  0
  -23.4184  -28.8220   23.3049 O   0  0  0  0  0  0
  -28.3407  -26.6287   20.1524 O   0  0  0  0  0  0
  -26.5574  -34.8936   22.4702 O   0  0  0  0  0  0
  -23.5328  -32.1434   23.7527 O   0  0  0  0  0  0
  -28.1376  -19.1820   18.6306 C   0  0  0  0  0  0
  -28.3721  -20.3944   19.3089 C   0  0  0  0  0  0
  -28.4635  -17.9508   19.2300 C   0  0  0  0  0  0
  -29.2529  -19.1348   21.2043 C   0  0  0  0  0  0
  -28.9360  -20.3849   20.6006 C   0  0  0  0  0  0
  -29.0275  -17.9064   20.5255 C   0  0  0  0  0  0
  -29.2753  -21.7065   21.3087 C   0  0  0  0  0  0
  -29.3723  -16.5515   21.1720 C   0  0  0  0  0  0
  -28.2537  -22.8822   21.2019 C   0  0  0  0  0  0
  -28.6992  -24.1369   20.3930 C   0  0  0  0  0  0
  -28.1475  -25.4615   20.9812 C   0  0  0  0  0  0
  -29.9074  -15.5843   20.2055 N   0  0  0  0  0  0
  -31.4623  -12.3979   19.1237 H   0  0  0  0  0  0
  -30.3151  -11.3133   19.8609 H   0  0  0  0  0  0
  -29.7267  -11.7223   17.4464 H   0  0  0  0  0  0
  -29.6570  -13.4395   17.7347 H   0  0  0  0  0  0
  -27.8248  -11.2901   18.8462 H   0  0  0  0  0  0
  -27.3582  -12.5947   17.7893 H   0  0  0  0  0  0
  -27.6708  -14.2446   19.5241 H   0  0  0  0  0  0
  -28.6883  -12.0377   21.3923 H   0  0  0  0  0  0
  -28.4910  -13.7204   21.8169 H   0  0  0  0  0  0
  -25.2725   -9.5711   22.4771 H   0  0  0  0  0  0
  -23.9983   -7.4641   22.7492 H   0  0  0  0  0  0
  -21.0831   -8.8782   19.8949 H   0  0  0  0  0  0
  -22.3672  -10.9681   19.6184 H   0  0  0  0  0  0
  -21.2002   -7.6148   23.9735 H   0  0  0  0  0  0
  -21.1479   -6.0518   25.9099 H   0  0  0  0  0  0
  -22.0581   -2.7601   23.2867 H   0  0  0  0  0  0
  -22.4049  -11.9948   22.4849 H   0  0  0  0  0  0
  -21.1073  -13.1325   22.2543 H   0  0  0  0  0  0
  -24.6560  -15.8400   20.5145 H   0  0  0  0  0  0
  -26.2832  -15.6309   20.1012 H   0  0  0  0  0  0
  -26.7095  -32.5564   23.1177 H   0  0  0  0  0  0
  -25.0102  -33.9805   25.0537 H   0  0  0  0  0  0
  -22.6896  -31.3078   21.4171 H   0  0  0  0  0  0
  -23.3758  -35.9633   23.3320 H   0  0  0  0  0  0
  -24.3581  -36.8908   22.2058 H   0  0  0  0  0  0
  -23.7204  -37.6514   23.6632 H   0  0  0  0  0  0
  -26.0444  -31.6042   20.6005 H   0  0  0  0  0  0
  -26.8172  -30.8861   21.9865 H   0  0  0  0  0  0
  -28.0976  -29.0933   21.1774 H   0  0  0  0  0  0
  -26.0558  -25.9745   19.0060 H   0  0  0  0  0  0
  -23.9702  -27.3033   19.0280 H   0  0  0  0  0  0
  -23.7148  -30.6069   19.4091 H   0  0  0  0  0  0
  -22.7338  -29.2472   19.8720 H   0  0  0  0  0  0
  -25.1268  -36.2014   25.0854 H   0  0  0  0  0  0
  -21.0006  -28.3141   24.1382 H   0  0  0  0  0  0
  -21.6615  -26.7391   22.1092 H   0  0  0  0  0  0
  -20.5634  -26.2203   23.3462 H   0  0  0  0  0  0
  -19.6871  -25.6322   21.1126 H   0  0  0  0  0  0
  -19.6675  -27.3244   20.6647 H   0  0  0  0  0  0
  -17.4187  -26.6669   21.3997 H   0  0  0  0  0  0
  -18.0330  -26.0063   22.8960 H   0  0  0  0  0  0
  -19.7912  -30.7193   24.2383 H   0  0  0  0  0  0
  -17.5001  -31.6188   24.5258 H   0  0  0  0  0  0
  -15.5359  -30.2939   23.7629 H   0  0  0  0  0  0
  -15.8710  -28.0789   22.6985 H   0  0  0  0  0  0
  -24.5899  -30.7073   25.7823 H   0  0  0  0  0  0
  -24.8918  -32.2850   26.4991 H   0  0  0  0  0  0
  -25.8087  -30.8846   27.0229 H   0  0  0  0  0  0
  -26.2837  -29.6861   24.1164 H   0  0  0  0  0  0
  -27.4048  -29.7321   25.4587 H   0  0  0  0  0  0
  -27.8673  -30.4430   23.9282 H   0  0  0  0  0  0
  -27.2684  -33.3634   26.2113 H   0  0  0  0  0  0
  -28.3826  -32.6919   25.0307 H   0  0  0  0  0  0
  -28.0731  -31.8447   26.5385 H   0  0  0  0  0  0
  -28.2612  -38.0101   24.7517 H   0  0  0  0  0  0
  -28.1060  -36.2636   24.6297 H   0  0  0  0  0  0
  -27.2305  -37.1469   25.8877 H   0  0  0  0  0  0
  -20.9296  -29.8786   21.6967 H   0  0  0  0  0  0
  -26.0195  -38.2899   24.1412 H   0  0  0  0  0  0
  -27.7135  -19.1975   17.6364 H   0  0  0  0  0  0
  -28.1315  -21.3307   18.8229 H   0  0  0  0  0  0
  -28.2770  -17.0332   18.6860 H   0  0  0  0  0  0
  -29.7002  -19.1089   22.1897 H   0  0  0  0  0  0
  -30.2603  -22.0332   20.9763 H   0  0  0  0  0  0
  -29.4007  -21.4751   22.3666 H   0  0  0  0  0  0
  -28.4633  -16.1457   21.6229 H   0  0  0  0  0  0
  -30.0857  -16.6986   21.9846 H   0  0  0  0  0  0
  -27.2718  -22.5390   20.8730 H   0  0  0  0  0  0
  -28.0814  -23.2179   22.2265 H   0  0  0  0  0  0
  -28.3788  -24.0297   19.3560 H   0  0  0  0  0  0
  -29.7854  -24.2081   20.3660 H   0  0  0  0  0  0
  -28.6535  -25.6541   21.9274 H   0  0  0  0  0  0
  -27.0982  -25.3159   21.2437 H   0  0  0  0  0  0
  -30.3219  -16.0966   19.4398 H   0  0  0  0  0  0
  1 25  1  0  0  0
  1 30  2  0  0  0
  1 82  1  0  0  0
  2  3  1  0  0  0
  2 25  1  0  0  0
  2 83  1  0  0  0
  2 84  1  0  0  0
  3  4  1  0  0  0
  3 85  1  0  0  0
  3 86  1  0  0  0
  4  5  1  0  0  0
  4 87  1  0  0  0
  4 88  1  0  0  0
  5  6  1  0  0  0
  5 26  1  0  0  0
  5 89  1  0  0  0
  6 25  1  0  0  0
  6 90  1  0  0  0
  6 91  1  0  0  0
  7  8  2  0  0  0
  7 26  1  0  0  0
  7 29  1  0  0  0
  8  9  1  0  0  0
  8 22  1  0  0  0
  9 10  1  0  0  0
  9 27  2  0  0  0
 10 11  2  0  0  0
 10 15  1  0  0  0
 11 12  1  0  0  0
 11 92  1  0  0  0
 12 13  2  0  0  0
 12 93  1  0  0  0
 13 14  1  0  0  0
 13 31  1  0  0  0
 14 15  2  0  0  0
 14 94  1  0  0  0
 15 95  1  0  0  0
 16 17  2  0  0  0
 16 21  1  0  0  0
 16 31  1  0  0  0
 17 18  1  0  0  0
 17 96  1  0  0  0
 18 19  2  0  0  0
 18 97  1  0  0  0
 19 20  1  0  0  0
 19 24  1  0  0  0
 20 21  2  0  0  0
 20 98  1  0  0  0
 21 23  1  0  0  0
 22 28  1  0  0  0
 22 32  2  0  0  0
 26 27  1  0  0  0
 28 99  1  0  0  0
 28100  1  0  0  0
 29101  1  0  0  0
 29102  1  0  0  0
 33 34  1  0  0  0
 33 66  1  0  0  0
 33 70  2  0  0  0
 34 36  1  0  0  0
 34 59  1  0  0  0
 34103  1  0  0  0
 35 44  2  0  0  0
 35 45  1  0  0  0
 35 68  1  0  0  0
 36 56  1  0  0  0
 36104  1  0  0  0
 37 39  1  0  0  0
 37 47  1  0  0  0
 37 66  1  0  0  0
 37105  1  0  0  0
 38 43  2  0  0  0
 38 46  1  0  0  0
 38 47  1  0  0  0
 39 64  1  0  0  0
 39 67  2  0  0  0
 40 52  1  0  0  0
 40 53  2  0  0  0
 40 58  1  0  0  0
 41106  1  0  0  0
 41107  1  0  0  0
 41108  1  0  0  0
 41 48  1  0  0  0
 42 43  1  0  0  0
 42 66  1  0  0  0
 42109  1  0  0  0
 42110  1  0  0  0
 43 44  1  0  0  0
 44111  1  0  0  0
 45 46  2  0  0  0
 45112  1  0  0  0
 46113  1  0  0  0
 47114  1  0  0  0
 47115  1  0  0  0
 48 56  1  0  0  0
 48 65  1  0  0  0
 48116  1  0  0  0
 49 50  1  0  0  0
 49 53  1  0  0  0
 49 64  1  0  0  0
 49117  1  0  0  0
 50 51  1  0  0  0
 50118  1  0  0  0
 50119  1  0  0  0
 51 52  1  0  0  0
 51120  1  0  0  0
 51121  1  0  0  0
 52122  1  0  0  0
 52123  1  0  0  0
 53 54  1  0  0  0
 54 55  2  0  0  0
 54124  1  0  0  0
 55 57  1  0  0  0
 55125  1  0  0  0
 56 69  2  0  0  0
 57 58  2  0  0  0
 57126  1  0  0  0
 58127  1  0  0  0
 59 60  1  0  0  0
 59 61  1  0  0  0
 59 62  1  0  0  0
 60128  1  0  0  0
 60129  1  0  0  0
 60130  1  0  0  0
 61131  1  0  0  0
 61132  1  0  0  0
 61133  1  0  0  0
 62134  1  0  0  0
 62135  1  0  0  0
 62136  1  0  0  0
 63 65  1  0  0  0
 63137  1  0  0  0
 63138  1  0  0  0
 63139  1  0  0  0
 64140  1  0  0  0
 65141  1  0  0  0
 68 81  1  0  0  0
 71 72  2  0  0  0
 71 73  1  0  0  0
 71142  1  0  0  0
 72 75  1  0  0  0
 72143  1  0  0  0
 73 76  2  0  0  0
 73144  1  0  0  0
 74 75  2  0  0  0
 74 76  1  0  0  0
 74145  1  0  0  0
 75 77  1  0  0  0
 76 78  1  0  0  0
 77 79  1  0  0  0
 77146  1  0  0  0
 77147  1  0  0  0
 78 82  1  0  0  0
 78148  1  0  0  0
 78149  1  0  0  0
 79 80  1  0  0  0
 79150  1  0  0  0
 79151  1  0  0  0
 80 81  1  0  0  0
 80152  1  0  0  0
 80153  1  0  0  0
 81154  1  0  0  0
 81155  1  0  0  0
 82156  1  0  0  0
M  ISO  4   1 100  68 101  81 101  82 100
M  END
> <chiral flag>
0

> <version>
0

> <s_m_source_file>
/data/baiqing/PycharmProjects/Reinvent-master-3.2/result/LINK_invent/BTK/process_docking_weight1_custom_product_contain_oxygen_bond_distance_aromatic_linkinvent_7_9_3/rearranged_h_0133.sdf

> <i_m_source_file_index>
45

> <r_mmod_Potential_Energy-OPLS-2005>
31.4808254241943

> <r_mmod_Stretch_Energy-OPLS-2005>
38.7733764648438

> <r_mmod_Bend_Energy-OPLS-2005>
105.516593933105

> <r_mmod_Torsional_Energy-OPLS-2005>
307.654144287109

> <r_mmod_Improper_Torsional_Energy-OPLS-2005>
26.6333560943604

> <r_mmod_Van_der_Waal_Energy-OPLS-2005>
141.770629882812

> <r_mmod_Electrostatic_Energy-OPLS-2005>
-419.090911865234

> <r_mmod_Solvation_Energy-OPLS-2005>
-194.85400390625

> <b_mmod_Minimization_Converged-OPLS-2005>
0

> <r_mmod_RMS_Derivative-OPLS-2005>
4.26563215255737

$$$$
45
                    3D
 Structure written by MMmdl.
165173  0  0  1  0            999 V2000
  -30.6982  -14.4449   20.3978 C   0  0  0  0  0  0
  -30.4129  -12.2450   19.4067 C   0  0  0  0  0  0
  -29.4827  -12.4545   18.1916 C   0  0  0  0  0  0
  -27.9999  -12.3424   18.6056 C   0  0  0  0  0  0
  -27.6505  -13.1917   19.8559 C   0  0  2  0  0  0
  -28.7087  -12.9940   20.9613 C   0  0  0  0  0  0
  -25.2584  -13.8118   20.5653 C   0  0  0  0  0  0
  -24.1815  -13.0400   20.9175 C   0  0  0  0  0  0
  -24.6361  -11.6879   20.8750 C   0  0  0  0  0  0
  -23.9025  -10.4274   21.0430 C   0  0  0  0  0  0
  -24.3594   -9.4189   21.9188 C   0  0  0  0  0  0
  -23.6273   -8.2223   22.0757 C   0  0  0  0  0  0
  -22.4251   -8.0279   21.3547 C   0  0  0  0  0  0
  -21.9895   -9.0246   20.4638 C   0  0  0  0  0  0
  -22.7222  -10.2124   20.3047 C   0  0  0  0  0  0
  -21.6865   -6.0725   22.5272 C   0  0  0  0  0  0
  -21.4028   -6.5632   23.8211 C   0  0  0  0  0  0
  -21.3639   -5.6783   24.9168 C   0  0  0  0  0  0
  -21.6038   -4.3048   24.7226 C   0  0  0  0  0  0
  -21.8810   -3.8137   23.4347 C   0  0  0  0  0  0
  -21.9197   -4.6948   22.3407 C   0  0  0  0  0  0
  -22.7849  -13.5224   21.1834 C   0  0  0  0  0  0
  -22.1657   -4.2138   21.0982 F   0  0  0  0  0  0
  -21.5623   -3.4529   25.7735 F   0  0  0  0  0  0
  -30.0471  -13.2530   20.4061 N   0  0  0  0  0  0
  -26.2973  -12.9224   20.3308 N   0  0  0  0  0  0
  -25.9282  -11.6414   20.5786 N   0  0  0  0  0  0
  -22.0489  -12.8227   22.0412 N   0  0  0  0  0  0
  -25.4332  -15.1840   20.4107 N   0  0  0  0  0  0
  -31.9163  -14.5417   20.2465 O   0  0  0  0  0  0
  -21.6626   -6.8863   21.4237 O   0  0  0  0  0  0
  -22.3532  -14.5518   20.6681 O   0  0  0  0  0  0
  -24.6077  -31.8744   23.2133 C   0  0  0  0  0  0
  -25.9004  -32.4851   23.8403 C   0  0  1  0  0  0
  -27.2511  -27.5052   20.0603 C   0  0  0  0  0  0
  -25.5890  -33.8644   24.2347 N   0  0  0  0  0  0
  -23.3922  -30.4978   21.5535 C   0  0  2  0  0  0
  -24.8408  -28.9615   20.1200 C   0  0  0  0  0  0
  -22.7369  -29.4756   22.5050 C   0  0  0  0  0  0
  -18.0321  -28.1383   22.8466 C   0  0  0  0  0  0
  -24.1489  -36.7328   23.2634 C   0  0  0  0  0  0
  -25.9154  -30.8508   21.3627 C   0  0  0  0  0  0
  -25.9936  -29.4865   20.7186 C   0  0  0  0  0  0
  -27.2000  -28.7591   20.6989 C   0  0  0  0  0  0
  -26.0856  -26.9700   19.4759 C   0  0  0  0  0  0
  -24.8756  -27.6916   19.5101 C   0  0  0  0  0  0
  -23.5949  -29.8186   20.1720 C   0  0  0  0  0  0
  -25.4111  -36.3128   24.0329 C   0  0  1  0  0  0
  -20.5869  -28.3792   23.1391 C   0  0  2  0  0  0
  -20.6916  -26.9554   22.5478 C   0  0  0  0  0  0
  -19.5939  -26.6529   21.5251 C   0  0  0  0  0  0
  -18.2087  -26.7946   22.1597 C   0  0  0  0  0  0
  -19.1513  -28.8886   23.2941 C   0  0  0  0  0  0
  -18.9364  -30.1471   23.8947 C   0  0  0  0  0  0
  -17.6330  -30.6549   24.0545 C   0  0  0  0  0  0
  -25.9034  -34.9496   23.5140 C   0  0  0  0  0  0
  -16.5282  -29.9036   23.6210 C   0  0  0  0  0  0
  -16.7291  -28.6457   23.0259 C   0  0  0  0  0  0
  -26.4442  -31.6613   25.0718 C   0  0  0  0  0  0
  -25.3736  -31.3689   26.1490 C   0  0  0  0  0  0
  -27.0261  -30.3069   24.6057 C   0  0  0  0  0  0
  -27.6027  -32.4313   25.7491 C   0  0  0  0  0  0
  -27.5580  -37.1815   24.8460 C   0  0  0  0  0  0
  -21.4091  -29.3220   22.3850 N   0  0  0  0  0  0
  -26.4304  -37.3799   23.9395 N   0  0  0  0  0  0
  -24.6563  -31.0870   22.1013 N   0  0  0  0  0  0
  -23.4184  -28.8223   23.2998 O   0  0  0  0  0  0
  -28.4373  -26.8297   19.9579 O   0  0  0  0  0  0
  -26.5597  -34.8943   22.4699 O   0  0  0  0  0  0
  -23.5302  -32.1469   23.7573 O   0  0  0  0  0  0
  -27.7846  -19.4112   19.1538 C   0  0  0  0  0  0
  -28.5275  -18.2565   19.4721 C   0  0  0  0  0  0
  -26.8680  -19.9370   20.0853 C   0  0  0  0  0  0
  -27.4456  -18.1616   21.6516 C   0  0  0  0  0  0
  -28.3582  -17.6232   20.7280 C   0  0  0  0  0  0
  -26.7251  -19.3300   21.3497 C   0  0  0  0  0  0
  -28.2565  -24.6640   20.9566 C   0  0  0  0  0  0
  -29.1316  -16.3834   21.1517 C   0  0  0  0  0  0
  -25.8363  -19.9369   22.4164 C   0  0  0  0  0  0
  -27.4094  -24.1153   22.0976 C   0  0  0  0  0  0
  -28.7676  -26.0905   21.1214 C   0  0  0  0  0  0
  -29.9116  -15.7073   20.0237 C   0  0  0  0  0  0
  -26.6574  -20.5803   23.5578 C   0  0  0  0  0  0
  -27.6725  -22.6325   22.3841 C   0  0  0  0  0  0
  -26.7423  -22.1119   23.4875 C   0  0  0  0  0  0
  -28.4847  -24.0077   19.9347 O   0  0  0  0  0  0
  -31.4623  -12.3093   19.1101 H   0  0  0  0  0  0
  -30.2811  -11.2420   19.8134 H   0  0  0  0  0  0
  -29.7131  -11.7204   17.4187 H   0  0  0  0  0  0
  -29.6607  -13.4310   17.7425 H   0  0  0  0  0  0
  -27.7939  -11.2913   18.8092 H   0  0  0  0  0  0
  -27.3503  -12.6127   17.7725 H   0  0  0  0  0  0
  -27.6600  -14.2324   19.5563 H   0  0  0  0  0  0
  -28.6588  -11.9693   21.3342 H   0  0  0  0  0  0
  -28.5046  -13.6189   21.8262 H   0  0  0  0  0  0
  -25.2733   -9.5679   22.4764 H   0  0  0  0  0  0
  -23.9981   -7.4622   22.7494 H   0  0  0  0  0  0
  -21.0810   -8.8764   19.8960 H   0  0  0  0  0  0
  -22.3675  -10.9666   19.6161 H   0  0  0  0  0  0
  -21.2035   -7.6142   23.9723 H   0  0  0  0  0  0
  -21.1464   -6.0507   25.9076 H   0  0  0  0  0  0
  -22.0617   -2.7603   23.2852 H   0  0  0  0  0  0
  -22.4078  -11.9871   22.4762 H   0  0  0  0  0  0
  -21.1137  -13.1312   22.2642 H   0  0  0  0  0  0
  -24.6755  -15.8448   20.5416 H   0  0  0  0  0  0
  -26.2983  -15.6367   20.1378 H   0  0  0  0  0  0
  -26.7073  -32.5586   23.1166 H   0  0  0  0  0  0
  -25.0017  -33.9809   25.0480 H   0  0  0  0  0  0
  -22.6800  -31.3150   21.4147 H   0  0  0  0  0  0
  -23.3745  -35.9666   23.3312 H   0  0  0  0  0  0
  -24.3584  -36.8928   22.2045 H   0  0  0  0  0  0
  -23.7258  -37.6541   23.6647 H   0  0  0  0  0  0
  -26.0220  -31.6116   20.5894 H   0  0  0  0  0  0
  -26.8071  -30.9086   21.9769 H   0  0  0  0  0  0
  -28.0957  -29.1686   21.1439 H   0  0  0  0  0  0
  -26.1238  -26.0087   18.9825 H   0  0  0  0  0  0
  -23.9887  -27.2760   19.0509 H   0  0  0  0  0  0
  -23.6772  -30.5870   19.4030 H   0  0  0  0  0  0
  -22.7196  -29.2274   19.8950 H   0  0  0  0  0  0
  -25.1289  -36.1980   25.0818 H   0  0  0  0  0  0
  -20.9890  -28.3397   24.1543 H   0  0  0  0  0  0
  -20.5919  -26.2420   23.3662 H   0  0  0  0  0  0
  -21.6815  -26.7696   22.1294 H   0  0  0  0  0  0
  -19.7149  -25.6507   21.1162 H   0  0  0  0  0  0
  -19.6896  -27.3484   20.6899 H   0  0  0  0  0  0
  -17.4398  -26.6582   21.3967 H   0  0  0  0  0  0
  -18.0585  -26.0067   22.8993 H   0  0  0  0  0  0
  -19.7807  -30.7323   24.2343 H   0  0  0  0  0  0
  -17.4801  -31.6187   24.5190 H   0  0  0  0  0  0
  -15.5252  -30.2861   23.7464 H   0  0  0  0  0  0
  -15.8741  -28.0746   22.6889 H   0  0  0  0  0  0
  -24.5919  -30.7012   25.7846 H   0  0  0  0  0  0
  -24.8910  -32.2832   26.4959 H   0  0  0  0  0  0
  -25.8132  -30.8865   27.0238 H   0  0  0  0  0  0
  -26.2783  -29.6861   24.1113 H   0  0  0  0  0  0
  -27.4048  -29.7273   25.4488 H   0  0  0  0  0  0
  -27.8619  -30.4399   23.9183 H   0  0  0  0  0  0
  -27.2645  -33.3595   26.2108 H   0  0  0  0  0  0
  -28.3832  -32.6898   25.0324 H   0  0  0  0  0  0
  -28.0708  -31.8418   26.5380 H   0  0  0  0  0  0
  -28.2612  -38.0095   24.7505 H   0  0  0  0  0  0
  -28.1069  -36.2642   24.6299 H   0  0  0  0  0  0
  -27.2308  -37.1468   25.8862 H   0  0  0  0  0  0
  -20.9240  -29.9022   21.7148 H   0  0  0  0  0  0
  -26.0201  -38.2888   24.1360 H   0  0  0  0  0  0
  -27.9247  -19.9034   18.2008 H   0  0  0  0  0  0
  -29.2293  -17.8759   18.7443 H   0  0  0  0  0  0
  -26.3004  -20.8237   19.8372 H   0  0  0  0  0  0
  -27.3244  -17.6892   22.6188 H   0  0  0  0  0  0
  -29.8156  -16.6593   21.9546 H   0  0  0  0  0  0
  -28.4031  -15.6971   21.5708 H   0  0  0  0  0  0
  -25.2269  -19.1328   22.8324 H   0  0  0  0  0  0
  -25.1335  -20.6474   21.9743 H   0  0  0  0  0  0
  -26.3665  -24.2567   21.8160 H   0  0  0  0  0  0
  -27.5822  -24.7167   22.9895 H   0  0  0  0  0  0
  -29.8499  -26.0667   21.2341 H   0  0  0  0  0  0
  -28.3501  -26.5483   22.0186 H   0  0  0  0  0  0
  -29.2822  -15.4889   19.1634 H   0  0  0  0  0  0
  -30.6346  -16.4357   19.6570 H   0  0  0  0  0  0
  -27.6587  -20.1495   23.6131 H   0  0  0  0  0  0
  -26.1894  -20.3200   24.5067 H   0  0  0  0  0  0
  -28.7150  -22.4880   22.6734 H   0  0  0  0  0  0
  -27.5252  -22.0671   21.4667 H   0  0  0  0  0  0
  -27.0946  -22.4988   24.4451 H   0  0  0  0  0  0
  -25.7390  -22.5179   23.3621 H   0  0  0  0  0  0
  1 25  1  0  0  0
  1 30  2  0  0  0
  1 82  1  0  0  0
  2  3  1  0  0  0
  2 25  1  0  0  0
  2 87  1  0  0  0
  2 88  1  0  0  0
  3  4  1  0  0  0
  3 89  1  0  0  0
  3 90  1  0  0  0
  4  5  1  0  0  0
  4 91  1  0  0  0
  4 92  1  0  0  0
  5  6  1  0  0  0
  5 26  1  0  0  0
  5 93  1  0  0  0
  6 25  1  0  0  0
  6 94  1  0  0  0
  6 95  1  0  0  0
  7  8  2  0  0  0
  7 26  1  0  0  0
  7 29  1  0  0  0
  8  9  1  0  0  0
  8 22  1  0  0  0
  9 10  1  0  0  0
  9 27  2  0  0  0
 10 11  2  0  0  0
 10 15  1  0  0  0
 11 12  1  0  0  0
 11 96  1  0  0  0
 12 13  2  0  0  0
 12 97  1  0  0  0
 13 14  1  0  0  0
 13 31  1  0  0  0
 14 15  2  0  0  0
 14 98  1  0  0  0
 15 99  1  0  0  0
 16 17  2  0  0  0
 16 21  1  0  0  0
 16 31  1  0  0  0
 17 18  1  0  0  0
 17100  1  0  0  0
 18 19  2  0  0  0
 18101  1  0  0  0
 19 20  1  0  0  0
 19 24  1  0  0  0
 20 21  2  0  0  0
 20102  1  0  0  0
 21 23  1  0  0  0
 22 28  1  0  0  0
 22 32  2  0  0  0
 26 27  1  0  0  0
 28103  1  0  0  0
 28104  1  0  0  0
 29105  1  0  0  0
 29106  1  0  0  0
 33 34  1  0  0  0
 33 66  1  0  0  0
 33 70  2  0  0  0
 34 36  1  0  0  0
 34 59  1  0  0  0
 34107  1  0  0  0
 35 44  2  0  0  0
 35 45  1  0  0  0
 35 68  1  0  0  0
 36 56  1  0  0  0
 36108  1  0  0  0
 37 39  1  0  0  0
 37 47  1  0  0  0
 37 66  1  0  0  0
 37109  1  0  0  0
 38 43  2  0  0  0
 38 46  1  0  0  0
 38 47  1  0  0  0
 39 64  1  0  0  0
 39 67  2  0  0  0
 40 52  1  0  0  0
 40 53  2  0  0  0
 40 58  1  0  0  0
 41110  1  0  0  0
 41111  1  0  0  0
 41112  1  0  0  0
 41 48  1  0  0  0
 42 43  1  0  0  0
 42 66  1  0  0  0
 42113  1  0  0  0
 42114  1  0  0  0
 43 44  1  0  0  0
 44115  1  0  0  0
 45 46  2  0  0  0
 45116  1  0  0  0
 46117  1  0  0  0
 47118  1  0  0  0
 47119  1  0  0  0
 48 56  1  0  0  0
 48 65  1  0  0  0
 48120  1  0  0  0
 49 50  1  0  0  0
 49 53  1  0  0  0
 49 64  1  0  0  0
 49121  1  0  0  0
 50 51  1  0  0  0
 50122  1  0  0  0
 50123  1  0  0  0
 51 52  1  0  0  0
 51124  1  0  0  0
 51125  1  0  0  0
 52126  1  0  0  0
 52127  1  0  0  0
 53 54  1  0  0  0
 54 55  2  0  0  0
 54128  1  0  0  0
 55 57  1  0  0  0
 55129  1  0  0  0
 56 69  2  0  0  0
 57 58  2  0  0  0
 57130  1  0  0  0
 58131  1  0  0  0
 59 60  1  0  0  0
 59 61  1  0  0  0
 59 62  1  0  0  0
 60132  1  0  0  0
 60133  1  0  0  0
 60134  1  0  0  0
 61135  1  0  0  0
 61136  1  0  0  0
 61137  1  0  0  0
 62138  1  0  0  0
 62139  1  0  0  0
 62140  1  0  0  0
 63 65  1  0  0  0
 63141  1  0  0  0
 63142  1  0  0  0
 63143  1  0  0  0
 64144  1  0  0  0
 65145  1  0  0  0
 68 81  1  0  0  0
 71 72  2  0  0  0
 71 73  1  0  0  0
 71146  1  0  0  0
 72 75  1  0  0  0
 72147  1  0  0  0
 73 76  2  0  0  0
 73148  1  0  0  0
 74 75  2  0  0  0
 74 76  1  0  0  0
 74149  1  0  0  0
 75 78  1  0  0  0
 76 79  1  0  0  0
 77 80  1  0  0  0
 77 81  1  0  0  0
 77 86  2  0  0  0
 78 82  1  0  0  0
 78150  1  0  0  0
 78151  1  0  0  0
 79 83  1  0  0  0
 79152  1  0  0  0
 79153  1  0  0  0
 80 84  1  0  0  0
 80154  1  0  0  0
 80155  1  0  0  0
 81156  1  0  0  0
 81157  1  0  0  0
 82158  1  0  0  0
 82159  1  0  0  0
 83 85  1  0  0  0
 83160  1  0  0  0
 83161  1  0  0  0
 84 85  1  0  0  0
 84162  1  0  0  0
 84163  1  0  0  0
 85164  1  0  0  0
 85165  1  0  0  0
M  ISO  4   1 100  68 101  81 101  82 100
M  END
> <chiral flag>
0

> <version>
0

> <s_m_source_file>
/data/baiqing/PycharmProjects/Reinvent-master-3.2/result/LINK_invent/BTK/process_docking_weight1_custom_product_contain_oxygen_bond_distance_aromatic_linkinvent_7_9_3/rearranged_h_0133.sdf

> <i_m_source_file_index>
46

> <r_mmod_Potential_Energy-OPLS-2005>
47.7908744812012

> <r_mmod_Stretch_Energy-OPLS-2005>
29.0852298736572

> <r_mmod_Bend_Energy-OPLS-2005>
91.2517547607422

> <r_mmod_Torsional_Energy-OPLS-2005>
253.853851318359

> <r_mmod_Improper_Torsional_Energy-OPLS-2005>
15.2183074951172

> <r_mmod_Van_der_Waal_Energy-OPLS-2005>
146.007781982422

> <r_mmod_Electrostatic_Energy-OPLS-2005>
-312.557983398438

> <r_mmod_Solvation_Energy-OPLS-2005>
-199.80061340332

> <b_mmod_Minimization_Converged-OPLS-2005>
0

> <r_mmod_RMS_Derivative-OPLS-2005>
5.05958986282349

$$$$
46
                    3D
 Structure written by MMmdl.
166175  0  0  1  0            999 V2000
  -30.7287  -14.3778   20.6765 C   0  0  0  0  0  0
  -30.4287  -12.2858   19.3999 C   0  0  0  0  0  0
  -29.4932  -12.5227   18.1969 C   0  0  0  0  0  0
  -28.0142  -12.3798   18.6079 C   0  0  0  0  0  0
  -27.6707  -13.1949   19.8817 C   0  0  2  0  0  0
  -28.7041  -12.9131   20.9938 C   0  0  0  0  0  0
  -25.2631  -13.8138   20.5661 C   0  0  0  0  0  0
  -24.1861  -13.0432   20.9146 C   0  0  0  0  0  0
  -24.6398  -11.6893   20.8713 C   0  0  0  0  0  0
  -23.9055  -10.4290   21.0398 C   0  0  0  0  0  0
  -24.3610   -9.4210   21.9179 C   0  0  0  0  0  0
  -23.6290   -8.2245   22.0753 C   0  0  0  0  0  0
  -22.4271   -8.0282   21.3544 C   0  0  0  0  0  0
  -21.9902   -9.0252   20.4643 C   0  0  0  0  0  0
  -22.7228  -10.2132   20.3050 C   0  0  0  0  0  0
  -21.6852   -6.0741   22.5283 C   0  0  0  0  0  0
  -21.4012   -6.5642   23.8216 C   0  0  0  0  0  0
  -21.3659   -5.6794   24.9177 C   0  0  0  0  0  0
  -21.6046   -4.3058   24.7225 C   0  0  0  0  0  0
  -21.8818   -3.8150   23.4345 C   0  0  0  0  0  0
  -21.9192   -4.6970   22.3404 C   0  0  0  0  0  0
  -22.7888  -13.5247   21.1823 C   0  0  0  0  0  0
  -22.1662   -4.2156   21.0981 F   0  0  0  0  0  0
  -21.5629   -3.4538   25.7736 F   0  0  0  0  0  0
  -30.0528  -13.2174   20.4720 N   0  0  0  0  0  0
  -26.3062  -12.9288   20.3358 N   0  0  0  0  0  0
  -25.9317  -11.6455   20.5728 N   0  0  0  0  0  0
  -22.0529  -12.8244   22.0382 N   0  0  0  0  0  0
  -25.4375  -15.1854   20.4094 N   0  0  0  0  0  0
  -31.7511  -14.6889   20.0541 O   0  0  0  0  0  0
  -21.6636   -6.8880   21.4244 O   0  0  0  0  0  0
  -22.3573  -14.5555   20.6675 O   0  0  0  0  0  0
  -24.6100  -31.8695   23.2121 C   0  0  0  0  0  0
  -25.9001  -32.4837   23.8415 C   0  0  1  0  0  0
  -27.2387  -27.4688   20.0979 C   0  0  0  0  0  0
  -25.5874  -33.8637   24.2350 N   0  0  0  0  0  0
  -23.3976  -30.4911   21.5511 C   0  0  2  0  0  0
  -24.8461  -28.9553   20.1208 C   0  0  0  0  0  0
  -22.7385  -29.4658   22.5004 C   0  0  0  0  0  0
  -18.0271  -28.1376   22.8491 C   0  0  0  0  0  0
  -24.1480  -36.7323   23.2644 C   0  0  0  0  0  0
  -25.9222  -30.8456   21.3597 C   0  0  0  0  0  0
  -26.0021  -29.4802   20.7125 C   0  0  0  0  0  0
  -27.2042  -28.7433   20.6973 C   0  0  0  0  0  0
  -26.0710  -26.9425   19.5084 C   0  0  0  0  0  0
  -24.8724  -27.6831   19.5181 C   0  0  0  0  0  0
  -23.6063  -29.8193   20.1670 C   0  0  0  0  0  0
  -25.4099  -36.3128   24.0351 C   0  0  1  0  0  0
  -20.5860  -28.3655   23.1337 C   0  0  2  0  0  0
  -20.6763  -26.9399   22.5426 C   0  0  0  0  0  0
  -19.5749  -26.6394   21.5216 C   0  0  0  0  0  0
  -18.1921  -26.7923   22.1623 C   0  0  0  0  0  0
  -19.1522  -28.8832   23.2909 C   0  0  0  0  0  0
  -18.9451  -30.1440   23.8912 C   0  0  0  0  0  0
  -17.6457  -30.6582   24.0566 C   0  0  0  0  0  0
  -25.9026  -34.9490   23.5149 C   0  0  0  0  0  0
  -16.5344  -29.9091   23.6321 C   0  0  0  0  0  0
  -16.7263  -28.6510   23.0333 C   0  0  0  0  0  0
  -26.4453  -31.6609   25.0724 C   0  0  0  0  0  0
  -25.3735  -31.3702   26.1484 C   0  0  0  0  0  0
  -27.0290  -30.3068   24.6061 C   0  0  0  0  0  0
  -27.6036  -32.4329   25.7474 C   0  0  0  0  0  0
  -27.5577  -37.1814   24.8469 C   0  0  0  0  0  0
  -21.4118  -29.3026   22.3742 N   0  0  0  0  0  0
  -26.4292  -37.3804   23.9416 N   0  0  0  0  0  0
  -24.6615  -31.0814   22.1010 N   0  0  0  0  0  0
  -23.4176  -28.8199   23.3031 O   0  0  0  0  0  0
  -28.4130  -26.7635   20.0652 O   0  0  0  0  0  0
  -26.5589  -34.8933   22.4711 O   0  0  0  0  0  0
  -23.5300  -32.1440   23.7533 O   0  0  0  0  0  0
  -30.4187  -18.8239   20.9548 C   0  0  0  0  0  0
  -30.5679  -17.4358   20.7728 C   0  0  0  0  0  0
  -29.6571  -17.0599   22.9967 C   0  0  0  0  0  0
  -29.5158  -18.4506   23.1900 C   0  0  0  0  0  0
  -29.8870  -19.3459   22.1547 C   0  0  0  0  0  0
  -30.1825  -16.5404   21.7971 C   0  0  0  0  0  0
  -29.2501  -23.1852   20.9130 C   0  0  0  0  0  0
  -30.5213  -22.8782   21.2665 C   0  0  0  0  0  0
  -28.0744  -22.3068   21.3267 C   0  0  0  0  0  0
  -30.8743  -21.6159   22.0439 C   0  0  0  0  0  0
  -28.4011  -21.3021   22.4468 C   0  0  0  0  0  0
  -28.9921  -18.9461   24.5293 C   0  0  0  0  0  0
  -31.7360  -23.7145   20.8999 C   0  0  0  0  0  0
  -28.8697  -24.3867   20.0519 C   0  0  0  0  0  0
  -28.4409  -25.5999   20.8878 C   0  0  0  0  0  0
  -29.7373  -20.7363   22.3004 N   0  0  0  0  0  0
  -30.2315  -15.1263   21.6720 N   0  0  0  0  0  0
  -31.4719  -12.3999   19.0988 H   0  0  0  0  0  0
  -30.3368  -11.2591   19.7579 H   0  0  0  0  0  0
  -29.7273  -11.8181   17.3971 H   0  0  0  0  0  0
  -29.6647  -13.5194   17.7879 H   0  0  0  0  0  0
  -27.8165  -11.3213   18.7802 H   0  0  0  0  0  0
  -27.3638  -12.6779   17.7844 H   0  0  0  0  0  0
  -27.7371  -14.2512   19.6207 H   0  0  0  0  0  0
  -28.6648  -11.8617   21.2814 H   0  0  0  0  0  0
  -28.4388  -13.4598   21.8988 H   0  0  0  0  0  0
  -25.2763   -9.5692   22.4739 H   0  0  0  0  0  0
  -24.0008   -7.4642   22.7471 H   0  0  0  0  0  0
  -21.0836   -8.8769   19.8947 H   0  0  0  0  0  0
  -22.3693  -10.9668   19.6151 H   0  0  0  0  0  0
  -21.2002   -7.6148   23.9724 H   0  0  0  0  0  0
  -21.1481   -6.0520   25.9080 H   0  0  0  0  0  0
  -22.0597   -2.7612   23.2842 H   0  0  0  0  0  0
  -22.4139  -11.9903   22.4771 H   0  0  0  0  0  0
  -21.1148  -13.1269   22.2579 H   0  0  0  0  0  0
  -24.6775  -15.8456   20.5317 H   0  0  0  0  0  0
  -26.3015  -15.6256   20.1167 H   0  0  0  0  0  0
  -26.7072  -32.5562   23.1188 H   0  0  0  0  0  0
  -25.0013  -33.9812   25.0487 H   0  0  0  0  0  0
  -22.6848  -31.3060   21.4095 H   0  0  0  0  0  0
  -23.3739  -35.9656   23.3322 H   0  0  0  0  0  0
  -24.3576  -36.8914   22.2053 H   0  0  0  0  0  0
  -23.7234  -37.6536   23.6644 H   0  0  0  0  0  0
  -26.0272  -31.6097   20.5876 H   0  0  0  0  0  0
  -26.8140  -30.9050   21.9717 H   0  0  0  0  0  0
  -28.1011  -29.1451   21.1473 H   0  0  0  0  0  0
  -26.0934  -25.9687   19.0388 H   0  0  0  0  0  0
  -23.9819  -27.2727   19.0629 H   0  0  0  0  0  0
  -23.7151  -30.5924   19.4053 H   0  0  0  0  0  0
  -22.7319  -29.2368   19.8705 H   0  0  0  0  0  0
  -25.1272  -36.1996   25.0844 H   0  0  0  0  0  0
  -20.9959  -28.3214   24.1457 H   0  0  0  0  0  0
  -20.5678  -26.2253   23.3604 H   0  0  0  0  0  0
  -21.6628  -26.7449   22.1207 H   0  0  0  0  0  0
  -19.6913  -25.6317   21.1222 H   0  0  0  0  0  0
  -19.6688  -27.3214   20.6758 H   0  0  0  0  0  0
  -17.4195  -26.6680   21.4021 H   0  0  0  0  0  0
  -18.0308  -26.0068   22.9022 H   0  0  0  0  0  0
  -19.7931  -30.7252   24.2282 H   0  0  0  0  0  0
  -17.5017  -31.6261   24.5167 H   0  0  0  0  0  0
  -15.5349  -30.2996   23.7644 H   0  0  0  0  0  0
  -15.8662  -28.0845   22.7026 H   0  0  0  0  0  0
  -24.5902  -30.7058   25.7830 H   0  0  0  0  0  0
  -24.8932  -32.2852   26.4960 H   0  0  0  0  0  0
  -25.8107  -30.8857   27.0225 H   0  0  0  0  0  0
  -26.2820  -29.6827   24.1139 H   0  0  0  0  0  0
  -27.4119  -29.7303   25.4493 H   0  0  0  0  0  0
  -27.8629  -30.4424   23.9171 H   0  0  0  0  0  0
  -27.2660  -33.3617   26.2086 H   0  0  0  0  0  0
  -28.3815  -32.6905   25.0278 H   0  0  0  0  0  0
  -28.0736  -31.8435   26.5354 H   0  0  0  0  0  0
  -28.2608  -38.0099   24.7501 H   0  0  0  0  0  0
  -28.1065  -36.2631   24.6308 H   0  0  0  0  0  0
  -27.2300  -37.1468   25.8876 H   0  0  0  0  0  0
  -20.9279  -29.8749   21.6963 H   0  0  0  0  0  0
  -26.0188  -38.2892   24.1412 H   0  0  0  0  0  0
  -30.7014  -19.4877   20.1503 H   0  0  0  0  0  0
  -30.9581  -17.0821   19.8297 H   0  0  0  0  0  0
  -29.3587  -16.3842   23.7863 H   0  0  0  0  0  0
  -27.7414  -21.7717   20.4367 H   0  0  0  0  0  0
  -27.2376  -22.9313   21.6420 H   0  0  0  0  0  0
  -31.3077  -21.9083   23.0014 H   0  0  0  0  0  0
  -31.6588  -21.0875   21.5013 H   0  0  0  0  0  0
  -27.6384  -20.5221   22.4716 H   0  0  0  0  0  0
  -28.3572  -21.8073   23.4124 H   0  0  0  0  0  0
  -27.9593  -19.2813   24.4409 H   0  0  0  0  0  0
  -29.5988  -19.7734   24.9004 H   0  0  0  0  0  0
  -29.0205  -18.1571   25.2813 H   0  0  0  0  0  0
  -31.4866  -24.7366   20.6200 H   0  0  0  0  0  0
  -32.2745  -23.2492   20.0748 H   0  0  0  0  0  0
  -32.4153  -23.7812   21.7505 H   0  0  0  0  0  0
  -28.0616  -24.1057   19.3760 H   0  0  0  0  0  0
  -29.6980  -24.6596   19.3995 H   0  0  0  0  0  0
  -29.1676  -25.7796   21.6807 H   0  0  0  0  0  0
  -27.4865  -25.4021   21.3814 H   0  0  0  0  0  0
  -29.5974  -14.6244   22.2748 H   0  0  0  0  0  0
  1 25  1  0  0  0
  1 30  2  0  0  0
  1 87  1  0  0  0
  2  3  1  0  0  0
  2 25  1  0  0  0
  2 88  1  0  0  0
  2 89  1  0  0  0
  3  4  1  0  0  0
  3 90  1  0  0  0
  3 91  1  0  0  0
  4  5  1  0  0  0
  4 92  1  0  0  0
  4 93  1  0  0  0
  5  6  1  0  0  0
  5 26  1  0  0  0
  5 94  1  0  0  0
  6 25  1  0  0  0
  6 95  1  0  0  0
  6 96  1  0  0  0
  7  8  2  0  0  0
  7 26  1  0  0  0
  7 29  1  0  0  0
  8  9  1  0  0  0
  8 22  1  0  0  0
  9 10  1  0  0  0
  9 27  2  0  0  0
 10 11  2  0  0  0
 10 15  1  0  0  0
 11 12  1  0  0  0
 11 97  1  0  0  0
 12 13  2  0  0  0
 12 98  1  0  0  0
 13 14  1  0  0  0
 13 31  1  0  0  0
 14 15  2  0  0  0
 14 99  1  0  0  0
 15100  1  0  0  0
 16 17  2  0  0  0
 16 21  1  0  0  0
 16 31  1  0  0  0
 17 18  1  0  0  0
 17101  1  0  0  0
 18 19  2  0  0  0
 18102  1  0  0  0
 19 20  1  0  0  0
 19 24  1  0  0  0
 20 21  2  0  0  0
 20103  1  0  0  0
 21 23  1  0  0  0
 22 28  1  0  0  0
 22 32  2  0  0  0
 26 27  1  0  0  0
 28104  1  0  0  0
 28105  1  0  0  0
 29106  1  0  0  0
 29107  1  0  0  0
 33 34  1  0  0  0
 33 66  1  0  0  0
 33 70  2  0  0  0
 34 36  1  0  0  0
 34 59  1  0  0  0
 34108  1  0  0  0
 35 44  2  0  0  0
 35 45  1  0  0  0
 35 68  1  0  0  0
 36 56  1  0  0  0
 36109  1  0  0  0
 37 39  1  0  0  0
 37 47  1  0  0  0
 37 66  1  0  0  0
 37110  1  0  0  0
 38 43  2  0  0  0
 38 46  1  0  0  0
 38 47  1  0  0  0
 39 64  1  0  0  0
 39 67  2  0  0  0
 40 52  1  0  0  0
 40 53  2  0  0  0
 40 58  1  0  0  0
 41111  1  0  0  0
 41112  1  0  0  0
 41113  1  0  0  0
 41 48  1  0  0  0
 42 43  1  0  0  0
 42 66  1  0  0  0
 42114  1  0  0  0
 42115  1  0  0  0
 43 44  1  0  0  0
 44116  1  0  0  0
 45 46  2  0  0  0
 45117  1  0  0  0
 46118  1  0  0  0
 47119  1  0  0  0
 47120  1  0  0  0
 48 56  1  0  0  0
 48 65  1  0  0  0
 48121  1  0  0  0
 49 50  1  0  0  0
 49 53  1  0  0  0
 49 64  1  0  0  0
 49122  1  0  0  0
 50 51  1  0  0  0
 50123  1  0  0  0
 50124  1  0  0  0
 51 52  1  0  0  0
 51125  1  0  0  0
 51126  1  0  0  0
 52127  1  0  0  0
 52128  1  0  0  0
 53 54  1  0  0  0
 54 55  2  0  0  0
 54129  1  0  0  0
 55 57  1  0  0  0
 55130  1  0  0  0
 56 69  2  0  0  0
 57 58  2  0  0  0
 57131  1  0  0  0
 58132  1  0  0  0
 59 60  1  0  0  0
 59 61  1  0  0  0
 59 62  1  0  0  0
 60133  1  0  0  0
 60134  1  0  0  0
 60135  1  0  0  0
 61136  1  0  0  0
 61137  1  0  0  0
 61138  1  0  0  0
 62139  1  0  0  0
 62140  1  0  0  0
 62141  1  0  0  0
 63 65  1  0  0  0
 63142  1  0  0  0
 63143  1  0  0  0
 63144  1  0  0  0
 64145  1  0  0  0
 65146  1  0  0  0
 68 85  1  0  0  0
 71 72  2  0  0  0
 71 75  1  0  0  0
 71147  1  0  0  0
 72 76  1  0  0  0
 72148  1  0  0  0
 73 74  1  0  0  0
 73 76  2  0  0  0
 73149  1  0  0  0
 74 75  2  0  0  0
 74 82  1  0  0  0
 75 86  1  0  0  0
 76 87  1  0  0  0
 77 78  2  0  0  0
 77 79  1  0  0  0
 77 84  1  0  0  0
 78 80  1  0  0  0
 78 83  1  0  0  0
 79 81  1  0  0  0
 79150  1  0  0  0
 79151  1  0  0  0
 80 86  1  0  0  0
 80152  1  0  0  0
 80153  1  0  0  0
 81 86  1  0  0  0
 81154  1  0  0  0
 81155  1  0  0  0
 82156  1  0  0  0
 82157  1  0  0  0
 82158  1  0  0  0
 83159  1  0  0  0
 83160  1  0  0  0
 83161  1  0  0  0
 84 85  1  0  0  0
 84162  1  0  0  0
 84163  1  0  0  0
 85164  1  0  0  0
 85165  1  0  0  0
 87166  1  0  0  0
M  ISO  4   1 100  68 101  85 101  87 100
M  END
> <chiral flag>
0

> <version>
0

> <s_m_source_file>
/data/baiqing/PycharmProjects/Reinvent-master-3.2/result/LINK_invent/BTK/process_docking_weight1_custom_product_contain_oxygen_bond_distance_aromatic_linkinvent_7_9_3/rearranged_h_0133.sdf

> <i_m_source_file_index>
47

> <r_mmod_Potential_Energy-OPLS-2005>
-50.3453979492188

> <r_mmod_Stretch_Energy-OPLS-2005>
33.8570976257324

> <r_mmod_Bend_Energy-OPLS-2005>
107.718673706055

> <r_mmod_Torsional_Energy-OPLS-2005>
263.497650146484

> <r_mmod_Improper_Torsional_Energy-OPLS-2005>
3.54670190811157

> <r_mmod_Van_der_Waal_Energy-OPLS-2005>
165.281402587891

> <r_mmod_Electrostatic_Energy-OPLS-2005>
-425.940948486328

> <r_mmod_Solvation_Energy-OPLS-2005>
-205.233901977539

> <b_mmod_Minimization_Converged-OPLS-2005>
0

> <r_mmod_RMS_Derivative-OPLS-2005>
1.43924081325531

$$$$
47
                    3D
 Structure written by MMmdl.
152160  0  0  1  0            999 V2000
  -30.6065  -14.8830   20.5695 C   0  0  0  0  0  0
  -30.4177  -12.7724   19.3057 C   0  0  0  0  0  0
  -29.4307  -12.4934   18.1338 C   0  0  0  0  0  0
  -27.9682  -12.5907   18.4892 C   0  0  0  0  0  0
  -27.6056  -13.2791   19.8589 C   0  0  2  0  0  0
  -28.6472  -13.2633   20.9812 C   0  0  0  0  0  0
  -25.2070  -13.8007   20.5461 C   0  0  0  0  0  0
  -24.1529  -13.0311   20.8899 C   0  0  0  0  0  0
  -24.6210  -11.6761   20.8453 C   0  0  0  0  0  0
  -23.8902  -10.4269   21.0288 C   0  0  0  0  0  0
  -24.3578   -9.4275   21.9076 C   0  0  0  0  0  0
  -23.6373   -8.2288   22.0655 C   0  0  0  0  0  0
  -22.4386   -8.0198   21.3372 C   0  0  0  0  0  0
  -21.9898   -9.0173   20.4549 C   0  0  0  0  0  0
  -22.7082  -10.2069   20.2945 C   0  0  0  0  0  0
  -21.6929   -6.0738   22.5286 C   0  0  0  0  0  0
  -21.4084   -6.5635   23.8231 C   0  0  0  0  0  0
  -21.3652   -5.6711   24.9183 C   0  0  0  0  0  0
  -21.6035   -4.3026   24.7179 C   0  0  0  0  0  0
  -21.8810   -3.8107   23.4361 C   0  0  0  0  0  0
  -21.9329   -4.6969   22.3435 C   0  0  0  0  0  0
  -22.7505  -13.4953   21.2031 C   0  0  0  0  0  0
  -22.1723   -4.2100   21.1023 F   0  0  0  0  0  0
  -21.5699   -3.4591   25.7757 F   0  0  0  0  0  0
  -29.9047  -13.6986   20.3687 N   0  0  0  0  0  0
  -26.2588  -12.9496   20.2852 N   0  0  0  0  0  0
  -25.8988  -11.6504   20.4823 N   0  0  0  0  0  0
  -22.0316  -12.7939   22.0622 N   0  0  0  0  0  0
  -25.3203  -15.1866   20.4435 N   0  0  0  0  0  0
  -31.7757  -14.9563   20.1788 O   0  0  0  0  0  0
  -21.6717   -6.8838   21.4126 O   0  0  0  0  0  0
  -22.3227  -14.5396   20.6910 O   0  0  0  0  0  0
  -24.6112  -31.8648   23.1993 C   0  0  0  0  0  0
  -25.9097  -32.4769   23.8302 C   0  0  1  0  0  0
  -27.2319  -27.4278   20.1552 C   0  0  0  0  0  0
  -25.5938  -33.8562   24.2236 N   0  0  0  0  0  0
  -23.3937  -30.4912   21.5445 C   0  0  2  0  0  0
  -24.8502  -28.9646   20.1025 C   0  0  0  0  0  0
  -22.7357  -29.4654   22.4980 C   0  0  0  0  0  0
  -18.0274  -28.1345   22.8513 C   0  0  0  0  0  0
  -24.1544  -36.7308   23.2611 C   0  0  0  0  0  0
  -25.9149  -30.8544   21.3308 C   0  0  0  0  0  0
  -26.0083  -29.4879   20.7016 C   0  0  0  0  0  0
  -27.1981  -28.7260   20.7232 C   0  0  0  0  0  0
  -26.0713  -26.9368   19.5239 C   0  0  0  0  0  0
  -24.8836  -27.7055   19.4968 C   0  0  0  0  0  0
  -23.5967  -29.8162   20.1554 C   0  0  0  0  0  0
  -25.4148  -36.3033   24.0280 C   0  0  1  0  0  0
  -20.5831  -28.3586   23.1386 C   0  0  2  0  0  0
  -20.6738  -26.9347   22.5434 C   0  0  0  0  0  0
  -19.5722  -26.6385   21.5212 C   0  0  0  0  0  0
  -18.1913  -26.7896   22.1627 C   0  0  0  0  0  0
  -19.1517  -28.8803   23.2956 C   0  0  0  0  0  0
  -18.9414  -30.1410   23.8968 C   0  0  0  0  0  0
  -17.6416  -30.6560   24.0565 C   0  0  0  0  0  0
  -25.9096  -34.9436   23.5034 C   0  0  0  0  0  0
  -16.5321  -29.9089   23.6302 C   0  0  0  0  0  0
  -16.7268  -28.6510   23.0337 C   0  0  0  0  0  0
  -26.4548  -31.6479   25.0513 C   0  0  0  0  0  0
  -25.3889  -31.3537   26.1227 C   0  0  0  0  0  0
  -27.0310  -30.2957   24.5760 C   0  0  0  0  0  0
  -27.6122  -32.4122   25.7293 C   0  0  0  0  0  0
  -27.5609  -37.1785   24.8476 C   0  0  0  0  0  0
  -21.4087  -29.2978   22.3793 N   0  0  0  0  0  0
  -26.4347  -37.3728   23.9372 N   0  0  0  0  0  0
  -24.6605  -31.0793   22.0855 N   0  0  0  0  0  0
  -23.4220  -28.8153   23.2937 O   0  0  0  0  0  0
  -28.3651  -26.6416   20.2588 O   0  0  0  0  0  0
  -26.5622  -34.8909   22.4607 O   0  0  0  0  0  0
  -23.5323  -32.1414   23.7524 O   0  0  0  0  0  0
  -28.5205  -20.3036   21.6730 C   0  0  0  0  0  0
  -28.6752  -18.8896   21.5066 C   0  0  0  0  0  0
  -29.7564  -20.8473   21.8967 C   0  0  0  0  0  0
  -30.0051  -18.6222   21.5902 C   0  0  0  0  0  0
  -29.3407  -24.7246   21.5652 C   0  0  0  0  0  0
  -30.2840  -22.2775   22.0812 C   0  0  0  0  0  0
  -30.8068  -17.3402   21.3254 C   0  0  0  0  0  0
  -29.1773  -23.3646   22.3188 C   0  0  0  0  0  0
  -28.0980  -25.3494   20.8744 C   0  0  0  0  0  0
  -30.0214  -16.0881   20.9878 N   0  0  0  0  0  0
  -30.4005  -25.3540   21.6578 O   0  0  0  0  0  0
  -30.6766  -19.8157   21.9079 O   0  0  0  0  0  0
  -31.1179  -13.3368   18.6858 H   0  0  0  0  0  0
  -31.0018  -11.9358   19.7311 H   0  0  0  0  0  0
  -29.6488  -11.5460   17.6503 H   0  0  0  0  0  0
  -29.5512  -13.2518   17.3689 H   0  0  0  0  0  0
  -27.3580  -11.7742   18.1062 H   0  0  0  0  0  0
  -27.6415  -13.3400   17.7512 H   0  0  0  0  0  0
  -27.5669  -14.3388   19.5992 H   0  0  0  0  0  0
  -28.7366  -12.2677   21.4167 H   0  0  0  0  0  0
  -28.2784  -13.9798   21.8017 H   0  0  0  0  0  0
  -25.2680   -9.6035   22.4618 H   0  0  0  0  0  0
  -24.0281   -7.4706   22.7442 H   0  0  0  0  0  0
  -21.0830   -8.8647   19.8862 H   0  0  0  0  0  0
  -22.3487  -10.9654   19.6207 H   0  0  0  0  0  0
  -21.1902   -7.6125   23.9669 H   0  0  0  0  0  0
  -21.1491   -6.0521   25.9107 H   0  0  0  0  0  0
  -22.0590   -2.7528   23.2870 H   0  0  0  0  0  0
  -22.4089  -11.9699   22.4996 H   0  0  0  0  0  0
  -21.0815  -13.0603   22.2920 H   0  0  0  0  0  0
  -24.4410  -15.7064   20.4074 H   0  0  0  0  0  0
  -26.0871  -15.6990   20.0234 H   0  0  0  0  0  0
  -26.7107  -32.5532   23.1025 H   0  0  0  0  0  0
  -25.0057  -33.9709   25.0338 H   0  0  0  0  0  0
  -22.6796  -31.2997   21.4105 H   0  0  0  0  0  0
  -23.3763  -35.9703   23.3279 H   0  0  0  0  0  0
  -24.3677  -36.8942   22.2041 H   0  0  0  0  0  0
  -23.7393  -37.6548   23.6666 H   0  0  0  0  0  0
  -25.9797  -31.6138   20.5480 H   0  0  0  0  0  0
  -26.8168  -30.9446   21.9205 H   0  0  0  0  0  0
  -28.0739  -29.1266   21.2242 H   0  0  0  0  0  0
  -26.0679  -25.9639   19.0651 H   0  0  0  0  0  0
  -23.9918  -27.3101   19.0219 H   0  0  0  0  0  0
  -23.6498  -30.5856   19.3798 H   0  0  0  0  0  0
  -22.7315  -29.2031   19.8968 H   0  0  0  0  0  0
  -25.1359  -36.1843   25.0780 H   0  0  0  0  0  0
  -20.9991  -28.3120   24.1475 H   0  0  0  0  0  0
  -20.5613  -26.2177   23.3563 H   0  0  0  0  0  0
  -21.6601  -26.7344   22.1217 H   0  0  0  0  0  0
  -19.6841  -25.6335   21.1158 H   0  0  0  0  0  0
  -19.6668  -27.3262   20.6796 H   0  0  0  0  0  0
  -17.4161  -26.6675   21.4055 H   0  0  0  0  0  0
  -18.0312  -26.0055   22.9035 H   0  0  0  0  0  0
  -19.7907  -30.7206   24.2393 H   0  0  0  0  0  0
  -17.4973  -31.6228   24.5120 H   0  0  0  0  0  0
  -15.5344  -30.2965   23.7563 H   0  0  0  0  0  0
  -15.8662  -28.0808   22.6985 H   0  0  0  0  0  0
  -24.6033  -30.6916   25.7526 H   0  0  0  0  0  0
  -24.9087  -32.2686   26.4744 H   0  0  0  0  0  0
  -25.8242  -30.8601   26.9937 H   0  0  0  0  0  0
  -26.2769  -29.6674   24.0959 H   0  0  0  0  0  0
  -27.4332  -29.7132   25.4072 H   0  0  0  0  0  0
  -27.8500  -30.4230   23.8651 H   0  0  0  0  0  0
  -27.2768  -33.3399   26.1967 H   0  0  0  0  0  0
  -28.3952  -32.6734   25.0143 H   0  0  0  0  0  0
  -28.0813  -31.8164   26.5148 H   0  0  0  0  0  0
  -28.2604  -38.0086   24.7470 H   0  0  0  0  0  0
  -28.1097  -36.2613   24.6359 H   0  0  0  0  0  0
  -27.2302  -37.1501   25.8868 H   0  0  0  0  0  0
  -20.9185  -29.8833   21.7131 H   0  0  0  0  0  0
  -26.0189  -38.2804   24.1348 H   0  0  0  0  0  0
  -27.5863  -20.8303   21.5906 H   0  0  0  0  0  0
  -27.9326  -18.1701   21.2809 H   0  0  0  0  0  0
  -30.9359  -22.5263   21.2507 H   0  0  0  0  0  0
  -30.9394  -22.2867   22.9614 H   0  0  0  0  0  0
  -31.5994  -17.6764   20.6316 H   0  0  0  0  0  0
  -31.3344  -17.1135   22.2633 H   0  0  0  0  0  0
  -28.1881  -22.9397   22.1363 H   0  0  0  0  0  0
  -29.1987  -23.6054   23.3685 H   0  0  0  0  0  0
  -27.3775  -25.5023   21.6698 H   0  0  0  0  0  0
  -27.6264  -24.6612   20.1795 H   0  0  0  0  0  0
  -29.0203  -16.2254   21.1872 H   0  0  0  0  0  0
  1 25  1  0  0  0
  1 30  2  0  0  0
  1 80  1  0  0  0
  2  3  1  0  0  0
  2 25  1  0  0  0
  2 83  1  0  0  0
  2 84  1  0  0  0
  3  4  1  0  0  0
  3 85  1  0  0  0
  3 86  1  0  0  0
  4  5  1  0  0  0
  4 87  1  0  0  0
  4 88  1  0  0  0
  5  6  1  0  0  0
  5 26  1  0  0  0
  5 89  1  0  0  0
  6 25  1  0  0  0
  6 90  1  0  0  0
  6 91  1  0  0  0
  7  8  2  0  0  0
  7 26  1  0  0  0
  7 29  1  0  0  0
  8  9  1  0  0  0
  8 22  1  0  0  0
  9 10  1  0  0  0
  9 27  2  0  0  0
 10 11  2  0  0  0
 10 15  1  0  0  0
 11 12  1  0  0  0
 11 92  1  0  0  0
 12 13  2  0  0  0
 12 93  1  0  0  0
 13 14  1  0  0  0
 13 31  1  0  0  0
 14 15  2  0  0  0
 14 94  1  0  0  0
 15 95  1  0  0  0
 16 17  2  0  0  0
 16 21  1  0  0  0
 16 31  1  0  0  0
 17 18  1  0  0  0
 17 96  1  0  0  0
 18 19  2  0  0  0
 18 97  1  0  0  0
 19 20  1  0  0  0
 19 24  1  0  0  0
 20 21  2  0  0  0
 20 98  1  0  0  0
 21 23  1  0  0  0
 22 28  1  0  0  0
 22 32  2  0  0  0
 26 27  1  0  0  0
 28 99  1  0  0  0
 28100  1  0  0  0
 29101  1  0  0  0
 29102  1  0  0  0
 33 34  1  0  0  0
 33 66  1  0  0  0
 33 70  2  0  0  0
 34 36  1  0  0  0
 34 59  1  0  0  0
 34103  1  0  0  0
 35 44  2  0  0  0
 35 45  1  0  0  0
 35 68  1  0  0  0
 36 56  1  0  0  0
 36104  1  0  0  0
 37 39  1  0  0  0
 37 47  1  0  0  0
 37 66  1  0  0  0
 37105  1  0  0  0
 38 43  2  0  0  0
 38 46  1  0  0  0
 38 47  1  0  0  0
 39 64  1  0  0  0
 39 67  2  0  0  0
 40 52  1  0  0  0
 40 53  2  0  0  0
 40 58  1  0  0  0
 41106  1  0  0  0
 41107  1  0  0  0
 41108  1  0  0  0
 41 48  1  0  0  0
 42 43  1  0  0  0
 42 66  1  0  0  0
 42109  1  0  0  0
 42110  1  0  0  0
 43 44  1  0  0  0
 44111  1  0  0  0
 45 46  2  0  0  0
 45112  1  0  0  0
 46113  1  0  0  0
 47114  1  0  0  0
 47115  1  0  0  0
 48 56  1  0  0  0
 48 65  1  0  0  0
 48116  1  0  0  0
 49 50  1  0  0  0
 49 53  1  0  0  0
 49 64  1  0  0  0
 49117  1  0  0  0
 50 51  1  0  0  0
 50118  1  0  0  0
 50119  1  0  0  0
 51 52  1  0  0  0
 51120  1  0  0  0
 51121  1  0  0  0
 52122  1  0  0  0
 52123  1  0  0  0
 53 54  1  0  0  0
 54 55  2  0  0  0
 54124  1  0  0  0
 55 57  1  0  0  0
 55125  1  0  0  0
 56 69  2  0  0  0
 57 58  2  0  0  0
 57126  1  0  0  0
 58127  1  0  0  0
 59 60  1  0  0  0
 59 61  1  0  0  0
 59 62  1  0  0  0
 60128  1  0  0  0
 60129  1  0  0  0
 60130  1  0  0  0
 61131  1  0  0  0
 61132  1  0  0  0
 61133  1  0  0  0
 62134  1  0  0  0
 62135  1  0  0  0
 62136  1  0  0  0
 63 65  1  0  0  0
 63137  1  0  0  0
 63138  1  0  0  0
 63139  1  0  0  0
 64140  1  0  0  0
 65141  1  0  0  0
 68 79  1  0  0  0
 71 72  1  0  0  0
 71 73  2  0  0  0
 71142  1  0  0  0
 72 74  2  0  0  0
 72143  1  0  0  0
 73 76  1  0  0  0
 73 82  1  0  0  0
 74 77  1  0  0  0
 74 82  1  0  0  0
 75 78  1  0  0  0
 75 79  1  0  0  0
 75 81  2  0  0  0
 76 78  1  0  0  0
 76144  1  0  0  0
 76145  1  0  0  0
 77 80  1  0  0  0
 77146  1  0  0  0
 77147  1  0  0  0
 78148  1  0  0  0
 78149  1  0  0  0
 79150  1  0  0  0
 79151  1  0  0  0
 80152  1  0  0  0
M  ISO  4   1 100  68 101  79 101  80 100
M  END
> <chiral flag>
0

> <version>
0

> <s_m_source_file>
/data/baiqing/PycharmProjects/Reinvent-master-3.2/result/LINK_invent/BTK/process_docking_weight1_custom_product_contain_oxygen_bond_distance_aromatic_linkinvent_7_9_3/rearranged_h_0133.sdf

> <i_m_source_file_index>
48

> <r_mmod_Potential_Energy-OPLS-2005>
147.566543579102

> <r_mmod_Stretch_Energy-OPLS-2005>
85.0816421508789

> <r_mmod_Bend_Energy-OPLS-2005>
185.635498046875

> <r_mmod_Torsional_Energy-OPLS-2005>
264.312408447266

> <r_mmod_Improper_Torsional_Energy-OPLS-2005>
8.34914588928223

> <r_mmod_Van_der_Waal_Energy-OPLS-2005>
130.975814819336

> <r_mmod_Electrostatic_Energy-OPLS-2005>
-423.844360351562

> <r_mmod_Solvation_Energy-OPLS-2005>
-232.434448242188

> <b_mmod_Minimization_Converged-OPLS-2005>
0

> <r_mmod_RMS_Derivative-OPLS-2005>
41.6056594848633

$$$$
48
                    3D
 Structure written by MMmdl.
188197  0  0  1  0            999 V2000
  -30.7018  -14.4468   20.6228 C   0  0  0  0  0  0
  -30.4340  -12.3201   19.3847 C   0  0  0  0  0  0
  -29.4866  -12.5167   18.1840 C   0  0  0  0  0  0
  -28.0099  -12.3733   18.6022 C   0  0  0  0  0  0
  -27.6644  -13.2041   19.8668 C   0  0  2  0  0  0
  -28.7127  -12.9609   20.9758 C   0  0  0  0  0  0
  -25.2646  -13.8151   20.5734 C   0  0  0  0  0  0
  -24.1860  -13.0439   20.9151 C   0  0  0  0  0  0
  -24.6413  -11.6893   20.8696 C   0  0  0  0  0  0
  -23.9055  -10.4288   21.0385 C   0  0  0  0  0  0
  -24.3601   -9.4216   21.9187 C   0  0  0  0  0  0
  -23.6282   -8.2243   22.0775 C   0  0  0  0  0  0
  -22.4275   -8.0260   21.3553 C   0  0  0  0  0  0
  -21.9897   -9.0224   20.4666 C   0  0  0  0  0  0
  -22.7212  -10.2117   20.3055 C   0  0  0  0  0  0
  -21.6861   -6.0703   22.5284 C   0  0  0  0  0  0
  -21.4002   -6.5615   23.8206 C   0  0  0  0  0  0
  -21.3652   -5.6782   24.9181 C   0  0  0  0  0  0
  -21.6038   -4.3043   24.7244 C   0  0  0  0  0  0
  -21.8819   -3.8126   23.4376 C   0  0  0  0  0  0
  -21.9200   -4.6934   22.3422 C   0  0  0  0  0  0
  -22.7891  -13.5255   21.1790 C   0  0  0  0  0  0
  -22.1676   -4.2120   21.1006 F   0  0  0  0  0  0
  -21.5631   -3.4552   25.7767 F   0  0  0  0  0  0
  -30.0407  -13.2755   20.4287 N   0  0  0  0  0  0
  -26.3071  -12.9311   20.3341 N   0  0  0  0  0  0
  -25.9337  -11.6471   20.5709 N   0  0  0  0  0  0
  -22.0506  -12.8246   22.0347 N   0  0  0  0  0  0
  -25.4393  -15.1867   20.4300 N   0  0  0  0  0  0
  -31.8056  -14.6674   20.1144 O   0  0  0  0  0  0
  -21.6649   -6.8847   21.4249 O   0  0  0  0  0  0
  -22.3589  -14.5570   20.6665 O   0  0  0  0  0  0
  -24.6137  -31.8649   23.2104 C   0  0  0  0  0  0
  -25.9039  -32.4795   23.8399 C   0  0  1  0  0  0
  -27.2476  -27.4399   20.1069 C   0  0  0  0  0  0
  -25.5908  -33.8609   24.2314 N   0  0  0  0  0  0
  -23.4040  -30.4849   21.5467 C   0  0  2  0  0  0
  -24.8565  -28.9428   20.1261 C   0  0  0  0  0  0
  -22.7390  -29.4637   22.4984 C   0  0  0  0  0  0
  -18.0251  -28.1396   22.8470 C   0  0  0  0  0  0
  -24.1492  -36.7294   23.2637 C   0  0  0  0  0  0
  -25.9288  -30.8313   21.3644 C   0  0  0  0  0  0
  -26.0124  -29.4602   20.7256 C   0  0  0  0  0  0
  -27.2124  -28.7120   20.7206 C   0  0  0  0  0  0
  -26.0783  -26.9287   19.5127 C   0  0  0  0  0  0
  -24.8823  -27.6716   19.5226 C   0  0  0  0  0  0
  -23.6171  -29.8064   20.1654 C   0  0  0  0  0  0
  -25.4113  -36.3094   24.0333 C   0  0  1  0  0  0
  -20.5830  -28.3672   23.1300 C   0  0  2  0  0  0
  -20.6732  -26.9412   22.5401 C   0  0  0  0  0  0
  -19.5714  -26.6390   21.5189 C   0  0  0  0  0  0
  -18.1884  -26.7950   22.1585 C   0  0  0  0  0  0
  -19.1501  -28.8852   23.2877 C   0  0  0  0  0  0
  -18.9440  -30.1450   23.8906 C   0  0  0  0  0  0
  -17.6447  -30.6599   24.0572 C   0  0  0  0  0  0
  -25.9040  -34.9461   23.5117 C   0  0  0  0  0  0
  -16.5339  -29.9101   23.6346 C   0  0  0  0  0  0
  -16.7238  -28.6523   23.0358 C   0  0  0  0  0  0
  -26.4485  -31.6592   25.0730 C   0  0  0  0  0  0
  -25.3757  -31.3681   26.1467 C   0  0  0  0  0  0
  -27.0342  -30.3042   24.6113 C   0  0  0  0  0  0
  -27.6035  -32.4352   25.7490 C   0  0  0  0  0  0
  -27.5589  -37.1783   24.8450 C   0  0  0  0  0  0
  -21.4118  -29.3049   22.3712 N   0  0  0  0  0  0
  -26.4282  -37.3790   23.9432 N   0  0  0  0  0  0
  -24.6668  -31.0764   22.0998 N   0  0  0  0  0  0
  -23.4154  -28.8169   23.3025 O   0  0  0  0  0  0
  -28.4205  -26.7385   19.9548 O   0  0  0  0  0  0
  -26.5593  -34.8923   22.4671 O   0  0  0  0  0  0
  -23.5335  -32.1403   23.7482 O   0  0  0  0  0  0
  -26.6485  -18.1359   18.2327 C   0  0  0  0  0  0
  -28.7382  -16.9419   18.4848 C   0  0  0  0  0  0
  -27.0682  -19.1167   19.1668 C   0  0  0  0  0  0
  -27.4843  -17.0641   17.8668 C   0  0  0  0  0  0
  -29.2039  -17.9093   19.3985 C   0  0  0  0  0  0
  -28.3897  -19.0436   19.7117 C   0  0  0  0  0  0
  -26.1153  -20.2029   19.5368 C   0  0  0  0  0  0
  -30.2342  -23.7619   22.6777 C   0  0  0  0  0  0
  -29.1318  -22.7579   22.7966 C   0  0  0  0  0  0
  -29.4061  -23.4049   21.4459 C   0  0  0  0  0  0
  -25.6636  -15.5321   16.8521 C   0  0  0  0  0  0
  -32.5202  -23.8481   17.4576 C   0  0  0  0  0  0
  -27.0932  -16.0840   16.7656 C   0  0  0  0  0  0
  -30.6075  -17.6823   19.9632 C   0  0  0  0  0  0
  -28.9486  -20.2102   20.5554 C   0  0  0  0  0  0
  -30.0108  -15.5651   21.4337 C   0  0  0  0  0  0
  -28.3934  -24.4469   20.9151 C   0  0  0  0  0  0
  -31.8032  -22.8446   18.3684 C   0  0  0  0  0  0
  -30.6397  -16.9835   21.3445 C   0  0  0  0  0  0
  -29.2169  -21.4780   19.6975 C   0  0  0  0  0  0
  -30.7384  -23.5113   19.2600 C   0  0  0  0  0  0
  -28.8613  -25.9223   21.0369 C   0  0  0  0  0  0
  -30.1051  -22.5857   20.3331 C   0  0  1  0  0  0
  -25.0095  -20.4562   18.9701 N   0  0  0  0  0  0
  -31.4688  -12.4566   19.0661 H   0  0  0  0  0  0
  -30.3700  -11.2989   19.7645 H   0  0  0  0  0  0
  -29.7229  -11.7993   17.3972 H   0  0  0  0  0  0
  -29.6477  -13.5047   17.7485 H   0  0  0  0  0  0
  -27.8152  -11.3150   18.7867 H   0  0  0  0  0  0
  -27.3598  -12.6628   17.7739 H   0  0  0  0  0  0
  -27.7122  -14.2545   19.5768 H   0  0  0  0  0  0
  -28.6937  -11.9164   21.2877 H   0  0  0  0  0  0
  -28.4758  -13.5319   21.8728 H   0  0  0  0  0  0
  -25.2741   -9.5694   22.4776 H   0  0  0  0  0  0
  -23.9978   -7.4657   22.7523 H   0  0  0  0  0  0
  -21.0803   -8.8706   19.9013 H   0  0  0  0  0  0
  -22.3621  -10.9635   19.6162 H   0  0  0  0  0  0
  -21.1964   -7.6125   23.9685 H   0  0  0  0  0  0
  -21.1477   -6.0539   25.9079 H   0  0  0  0  0  0
  -22.0601   -2.7590   23.2905 H   0  0  0  0  0  0
  -22.4127  -11.9912   22.4731 H   0  0  0  0  0  0
  -21.1141  -13.1298   22.2536 H   0  0  0  0  0  0
  -24.6450  -15.8137   20.4568 H   0  0  0  0  0  0
  -26.2672  -15.6177   20.0365 H   0  0  0  0  0  0
  -26.7119  -32.5521   23.1172 H   0  0  0  0  0  0
  -25.0179  -33.9796   25.0537 H   0  0  0  0  0  0
  -22.6920  -31.2989   21.3959 H   0  0  0  0  0  0
  -23.3781  -35.9589   23.3236 H   0  0  0  0  0  0
  -24.3624  -36.8977   22.2069 H   0  0  0  0  0  0
  -23.7182  -37.6451   23.6704 H   0  0  0  0  0  0
  -26.0356  -31.5933   20.5907 H   0  0  0  0  0  0
  -26.8171  -30.8966   21.9803 H   0  0  0  0  0  0
  -28.1128  -29.1185   21.1606 H   0  0  0  0  0  0
  -26.1015  -25.9607   19.0328 H   0  0  0  0  0  0
  -23.9952  -27.2636   19.0600 H   0  0  0  0  0  0
  -23.7216  -30.5728   19.3959 H   0  0  0  0  0  0
  -22.7457  -29.2175   19.8743 H   0  0  0  0  0  0
  -25.1277  -36.1951   25.0820 H   0  0  0  0  0  0
  -20.9892  -28.3265   24.1424 H   0  0  0  0  0  0
  -20.5601  -26.2302   23.3600 H   0  0  0  0  0  0
  -21.6615  -26.7442   22.1200 H   0  0  0  0  0  0
  -19.6883  -25.6287   21.1238 H   0  0  0  0  0  0
  -19.6676  -27.3203   20.6721 H   0  0  0  0  0  0
  -17.4148  -26.6700   21.3990 H   0  0  0  0  0  0
  -18.0278  -26.0086   22.8969 H   0  0  0  0  0  0
  -19.7921  -30.7256   24.2286 H   0  0  0  0  0  0
  -17.5013  -31.6291   24.5152 H   0  0  0  0  0  0
  -15.5345  -30.3016   23.7693 H   0  0  0  0  0  0
  -15.8620  -28.0862   22.7094 H   0  0  0  0  0  0
  -24.5974  -30.6965   25.7814 H   0  0  0  0  0  0
  -24.8907  -32.2829   26.4903 H   0  0  0  0  0  0
  -25.8131  -30.8882   27.0225 H   0  0  0  0  0  0
  -26.2896  -29.6751   24.1210 H   0  0  0  0  0  0
  -27.4171  -29.7324   25.4573 H   0  0  0  0  0  0
  -27.8695  -30.4368   23.9226 H   0  0  0  0  0  0
  -27.2642  -33.3675   26.2019 H   0  0  0  0  0  0
  -28.3871  -32.6868   25.0330 H   0  0  0  0  0  0
  -28.0665  -31.8514   26.5448 H   0  0  0  0  0  0
  -28.2509  -38.0176   24.7630 H   0  0  0  0  0  0
  -28.1178  -36.2711   24.6101 H   0  0  0  0  0  0
  -27.2331  -37.1217   25.8853 H   0  0  0  0  0  0
  -20.9283  -29.8836   21.6975 H   0  0  0  0  0  0
  -26.0150  -38.2828   24.1560 H   0  0  0  0  0  0
  -25.6758  -18.2128   17.7695 H   0  0  0  0  0  0
  -29.3802  -16.1131   18.2183 H   0  0  0  0  0  0
  -26.3995  -20.8310   20.3824 H   0  0  0  0  0  0
  -31.2515  -23.3809   22.7472 H   0  0  0  0  0  0
  -30.0719  -24.7131   23.1811 H   0  0  0  0  0  0
  -28.2604  -23.0748   23.3657 H   0  0  0  0  0  0
  -29.4341  -21.7244   22.9559 H   0  0  0  0  0  0
  -25.4848  -14.8185   16.0472 H   0  0  0  0  0  0
  -24.9132  -16.3164   16.7592 H   0  0  0  0  0  0
  -25.4889  -15.0077   17.7889 H   0  0  0  0  0  0
  -33.2483  -23.3388   16.8245 H   0  0  0  0  0  0
  -33.0564  -24.5970   18.0409 H   0  0  0  0  0  0
  -31.8219  -24.3697   16.8011 H   0  0  0  0  0  0
  -27.7931  -15.2484   16.7539 H   0  0  0  0  0  0
  -27.2254  -16.5911   15.8092 H   0  0  0  0  0  0
  -31.1621  -18.6190   19.9969 H   0  0  0  0  0  0
  -31.1770  -17.0817   19.2532 H   0  0  0  0  0  0
  -29.8672  -19.9236   21.0620 H   0  0  0  0  0  0
  -28.2710  -20.4352   21.3785 H   0  0  0  0  0  0
  -28.9679  -15.6383   21.1250 H   0  0  0  0  0  0
  -29.9999  -15.2531   22.4788 H   0  0  0  0  0  0
  -27.4433  -24.3358   21.4395 H   0  0  0  0  0  0
  -28.1519  -24.2218   19.8769 H   0  0  0  0  0  0
  -32.5437  -22.3344   18.9852 H   0  0  0  0  0  0
  -31.3451  -22.0828   17.7384 H   0  0  0  0  0  0
  -30.1293  -17.6201   22.0686 H   0  0  0  0  0  0
  -31.6740  -16.9393   21.6852 H   0  0  0  0  0  0
  -28.2893  -21.9203   19.3392 H   0  0  0  0  0  0
  -29.7128  -21.1165   18.7981 H   0  0  0  0  0  0
  -29.9629  -23.9306   18.6197 H   0  0  0  0  0  0
  -31.2039  -24.3609   19.7605 H   0  0  0  0  0  0
  -29.9502  -25.9600   20.9988 H   0  0  0  0  0  0
  -28.5836  -26.3479   22.0010 H   0  0  0  0  0  0
  -30.9428  -22.0702   20.8033 H   0  0  0  0  0  0
  -24.8203  -19.8317   18.1951 H   0  0  0  0  0  0
  1 25  1  0  0  0
  1 30  2  0  0  0
  1 86  1  0  0  0
  2  3  1  0  0  0
  2 25  1  0  0  0
  2 95  1  0  0  0
  2 96  1  0  0  0
  3  4  1  0  0  0
  3 97  1  0  0  0
  3 98  1  0  0  0
  4  5  1  0  0  0
  4 99  1  0  0  0
  4100  1  0  0  0
  5  6  1  0  0  0
  5 26  1  0  0  0
  5101  1  0  0  0
  6 25  1  0  0  0
  6102  1  0  0  0
  6103  1  0  0  0
  7  8  2  0  0  0
  7 26  1  0  0  0
  7 29  1  0  0  0
  8  9  1  0  0  0
  8 22  1  0  0  0
  9 10  1  0  0  0
  9 27  2  0  0  0
 10 11  2  0  0  0
 10 15  1  0  0  0
 11 12  1  0  0  0
 11104  1  0  0  0
 12 13  2  0  0  0
 12105  1  0  0  0
 13 14  1  0  0  0
 13 31  1  0  0  0
 14 15  2  0  0  0
 14106  1  0  0  0
 15107  1  0  0  0
 16 17  2  0  0  0
 16 21  1  0  0  0
 16 31  1  0  0  0
 17 18  1  0  0  0
 17108  1  0  0  0
 18 19  2  0  0  0
 18109  1  0  0  0
 19 20  1  0  0  0
 19 24  1  0  0  0
 20 21  2  0  0  0
 20110  1  0  0  0
 21 23  1  0  0  0
 22 28  1  0  0  0
 22 32  2  0  0  0
 26 27  1  0  0  0
 28111  1  0  0  0
 28112  1  0  0  0
 29113  1  0  0  0
 29114  1  0  0  0
 33 34  1  0  0  0
 33 66  1  0  0  0
 33 70  2  0  0  0
 34 36  1  0  0  0
 34 59  1  0  0  0
 34115  1  0  0  0
 35 44  2  0  0  0
 35 45  1  0  0  0
 35 68  1  0  0  0
 36 56  1  0  0  0
 36116  1  0  0  0
 37 39  1  0  0  0
 37 47  1  0  0  0
 37 66  1  0  0  0
 37117  1  0  0  0
 38 43  2  0  0  0
 38 46  1  0  0  0
 38 47  1  0  0  0
 39 64  1  0  0  0
 39 67  2  0  0  0
 40 52  1  0  0  0
 40 53  2  0  0  0
 40 58  1  0  0  0
 41118  1  0  0  0
 41119  1  0  0  0
 41120  1  0  0  0
 41 48  1  0  0  0
 42 43  1  0  0  0
 42 66  1  0  0  0
 42121  1  0  0  0
 42122  1  0  0  0
 43 44  1  0  0  0
 44123  1  0  0  0
 45 46  2  0  0  0
 45124  1  0  0  0
 46125  1  0  0  0
 47126  1  0  0  0
 47127  1  0  0  0
 48 56  1  0  0  0
 48 65  1  0  0  0
 48128  1  0  0  0
 49 50  1  0  0  0
 49 53  1  0  0  0
 49 64  1  0  0  0
 49129  1  0  0  0
 50 51  1  0  0  0
 50130  1  0  0  0
 50131  1  0  0  0
 51 52  1  0  0  0
 51132  1  0  0  0
 51133  1  0  0  0
 52134  1  0  0  0
 52135  1  0  0  0
 53 54  1  0  0  0
 54 55  2  0  0  0
 54136  1  0  0  0
 55 57  1  0  0  0
 55137  1  0  0  0
 56 69  2  0  0  0
 57 58  2  0  0  0
 57138  1  0  0  0
 58139  1  0  0  0
 59 60  1  0  0  0
 59 61  1  0  0  0
 59 62  1  0  0  0
 60140  1  0  0  0
 60141  1  0  0  0
 60142  1  0  0  0
 61143  1  0  0  0
 61144  1  0  0  0
 61145  1  0  0  0
 62146  1  0  0  0
 62147  1  0  0  0
 62148  1  0  0  0
 63 65  1  0  0  0
 63149  1  0  0  0
 63150  1  0  0  0
 63151  1  0  0  0
 64152  1  0  0  0
 65153  1  0  0  0
 68 92  1  0  0  0
 71 73  2  0  0  0
 71 74  1  0  0  0
 71154  1  0  0  0
 72 74  2  0  0  0
 72 75  1  0  0  0
 72155  1  0  0  0
 73 76  1  0  0  0
 73 77  1  0  0  0
 74 83  1  0  0  0
 75 76  2  0  0  0
 75 84  1  0  0  0
 76 85  1  0  0  0
 77 94  2  0  0  0
 77156  1  0  0  0
 78 79  1  0  0  0
 78 80  1  0  0  0
 78157  1  0  0  0
 78158  1  0  0  0
 79 80  1  0  0  0
 79159  1  0  0  0
 79160  1  0  0  0
 80 87  1  0  0  0
 80 93  1  0  0  0
 81 83  1  0  0  0
 81161  1  0  0  0
 81162  1  0  0  0
 81163  1  0  0  0
 82 88  1  0  0  0
 82164  1  0  0  0
 82165  1  0  0  0
 82166  1  0  0  0
 83167  1  0  0  0
 83168  1  0  0  0
 84 89  1  0  0  0
 84169  1  0  0  0
 84170  1  0  0  0
 85 90  1  0  0  0
 85171  1  0  0  0
 85172  1  0  0  0
 86 89  1  0  0  0
 86173  1  0  0  0
 86174  1  0  0  0
 87 92  1  0  0  0
 87175  1  0  0  0
 87176  1  0  0  0
 88 91  1  0  0  0
 88177  1  0  0  0
 88178  1  0  0  0
 89179  1  0  0  0
 89180  1  0  0  0
 90181  1  0  0  0
 90182  1  0  0  0
 90 93  1  0  0  0
 91 93  1  0  0  0
 91183  1  0  0  0
 91184  1  0  0  0
 92185  1  0  0  0
 92186  1  0  0  0
 93187  1  0  0  0
 94188  1  0  0  0
M  ISO  4   1 100  68 101  86 100  92 101
M  END
> <chiral flag>
0

> <version>
0

> <s_m_source_file>
/data/baiqing/PycharmProjects/Reinvent-master-3.2/result/LINK_invent/BTK/process_docking_weight1_custom_product_contain_oxygen_bond_distance_aromatic_linkinvent_7_9_3/rearranged_h_0133.sdf

> <i_m_source_file_index>
49

> <r_mmod_Potential_Energy-OPLS-2005>
69.391227722168

> <r_mmod_Stretch_Energy-OPLS-2005>
45.9034309387207

> <r_mmod_Bend_Energy-OPLS-2005>
110.025489807129

> <r_mmod_Torsional_Energy-OPLS-2005>
283.607055664062

> <r_mmod_Improper_Torsional_Energy-OPLS-2005>
3.58101654052734

> <r_mmod_Van_der_Waal_Energy-OPLS-2005>
131.606201171875

> <r_mmod_Electrostatic_Energy-OPLS-2005>
-338.130920410156

> <r_mmod_Solvation_Energy-OPLS-2005>
-177.223617553711

> <b_mmod_Minimization_Converged-OPLS-2005>
0

> <r_mmod_RMS_Derivative-OPLS-2005>
3.72426390647888

$$$$
49
                    3D
 Structure written by MMmdl.
164172  0  0  1  0            999 V2000
  -29.2164  -15.8992   20.7808 C   0  0  0  0  0  0
  -30.1795  -13.4455   19.7643 C   0  0  0  0  0  0
  -29.5125  -12.8147   18.4822 C   0  0  0  0  0  0
  -28.1051  -12.2888   18.7977 C   0  0  0  0  0  0
  -27.4580  -13.2391   19.8205 C   0  0  2  0  0  0
  -28.2856  -13.4707   21.0744 C   0  0  0  0  0  0
  -25.1564  -13.8022   20.5420 C   0  0  0  0  0  0
  -24.1097  -13.0245   20.9215 C   0  0  0  0  0  0
  -24.5795  -11.6749   20.8750 C   0  0  0  0  0  0
  -23.8684  -10.4159   21.0497 C   0  0  0  0  0  0
  -24.3406   -9.4134   21.9233 C   0  0  0  0  0  0
  -23.6182   -8.2125   22.0759 C   0  0  0  0  0  0
  -22.4170   -8.0145   21.3538 C   0  0  0  0  0  0
  -21.9715   -9.0069   20.4645 C   0  0  0  0  0  0
  -22.6932  -10.1985   20.3088 C   0  0  0  0  0  0
  -21.6807   -6.0655   22.5291 C   0  0  0  0  0  0
  -21.3985   -6.5594   23.8213 C   0  0  0  0  0  0
  -21.3647   -5.6765   24.9187 C   0  0  0  0  0  0
  -21.6040   -4.3027   24.7251 C   0  0  0  0  0  0
  -21.8826   -3.8100   23.4381 C   0  0  0  0  0  0
  -21.9181   -4.6897   22.3426 C   0  0  0  0  0  0
  -22.7259  -13.5102   21.2031 C   0  0  0  0  0  0
  -22.1656   -4.2085   21.1004 F   0  0  0  0  0  0
  -21.5633   -3.4525   25.7774 F   0  0  0  0  0  0
  -29.2273  -14.4182   20.5777 N   0  0  0  0  0  0
  -26.1594  -12.9062   20.2556 N   0  0  0  0  0  0
  -25.8557  -11.6266   20.5396 N   0  0  0  0  0  0
  -22.0009  -12.8113   22.0668 N   0  0  0  0  0  0
  -25.3337  -15.1760   20.3929 N   0  0  0  0  0  0
  -30.4671  -16.0611   20.5399 O   0  0  0  0  0  0
  -21.6568   -6.8744   21.4233 O   0  0  0  0  0  0
  -22.3000  -14.5441   20.6913 O   0  0  0  0  0  0
  -24.6423  -31.9296   23.2513 C   0  0  0  0  0  0
  -25.9365  -32.5090   23.8757 C   0  0  1  0  0  0
  -26.9312  -27.4552   19.9393 C   0  0  0  0  0  0
  -25.6248  -33.8861   24.2650 N   0  0  0  0  0  0
  -23.4404  -30.5824   21.6133 C   0  0  2  0  0  0
  -24.8712  -29.2686   19.9270 C   0  0  0  0  0  0
  -23.0157  -29.4642   22.6081 C   0  0  0  0  0  0
  -18.4516  -27.3827   22.7154 C   0  0  0  0  0  0
  -24.1506  -36.7389   23.2601 C   0  0  0  0  0  0
  -25.9848  -30.8439   21.4676 C   0  0  0  0  0  0
  -25.9945  -29.5405   20.7082 C   0  0  0  0  0  0
  -27.0572  -28.6098   20.7521 C   0  0  0  0  0  0
  -26.0849  -27.4650   18.8471 C   0  0  0  0  0  0
  -24.9585  -28.2961   18.9250 C   0  0  0  0  0  0
  -23.6633  -30.1592   20.1267 C   0  0  0  0  0  0
  -25.4116  -36.3236   24.0341 C   0  0  1  0  0  0
  -21.3336  -27.8790   23.4483 C   0  0  2  0  0  0
  -22.2929  -26.3333   22.4393 C   0  0  0  0  0  0
  -20.6455  -25.0855   21.0592 C   0  0  0  0  0  0
  -18.7040  -25.9080   21.5741 C   0  0  0  0  0  0
  -19.5668  -28.1933   23.4476 C   0  0  0  0  0  0
  -19.1885  -29.5163   23.9643 C   0  0  0  0  0  0
  -17.8931  -30.0996   23.9458 C   0  0  0  0  0  0
  -25.9101  -34.9617   23.5213 C   0  0  0  0  0  0
  -16.8549  -29.3397   23.3948 C   0  0  0  0  0  0
  -17.1426  -28.0576   22.8051 C   0  0  0  0  0  0
  -26.4588  -31.6698   25.1029 C   0  0  0  0  0  0
  -25.3762  -31.3798   26.1672 C   0  0  0  0  0  0
  -27.0401  -30.3090   24.6512 C   0  0  0  0  0  0
  -27.6161  -32.4333   25.7844 C   0  0  0  0  0  0
  -27.5598  -37.1886   24.8460 C   0  0  0  0  0  0
  -21.7514  -29.1852   22.8362 N   0  0  0  0  0  0
  -26.4299  -37.3907   23.9427 N   0  0  0  0  0  0
  -24.7015  -31.1658   22.1357 N   0  0  0  0  0  0
  -23.8460  -28.8412   23.2592 O   0  0  0  0  0  0
  -26.5965  -26.2746   20.5003 O   0  0  0  0  0  0
  -26.5501  -34.8980   22.4677 O   0  0  0  0  0  0
  -23.5599  -32.1999   23.7917 O   0  0  0  0  0  0
  -24.2567  -19.7250   23.3277 C   0  0  0  0  0  0
  -24.9266  -18.4566   23.5625 C   0  0  0  0  0  0
  -25.7868  -19.7557   21.5120 C   0  0  0  0  0  0
  -24.5137  -20.6592   22.2830 C   0  0  0  0  0  0
  -26.0014  -17.7772   22.8482 C   0  0  0  0  0  0
  -26.6653  -18.2594   21.6709 C   0  0  0  0  0  0
  -20.6368  -27.3844   21.1517 C   0  0  0  0  0  0
  -26.4643  -16.4536   23.4348 C   0  0  0  0  0  0
  -23.3424  -22.3998   22.2755 C   0  0  0  0  0  0
  -20.4074  -25.5486   23.1994 C   0  0  0  0  0  0
  -22.0646  -27.2613   20.1140 C   0  0  0  0  0  0
  -21.7446  -23.6823   23.1298 C   0  0  0  0  0  0
  -23.5030  -26.1930   20.0215 C   0  0  0  0  0  0
  -25.0481  -26.2074   20.8892 C   0  0  0  0  0  0
  -28.0635  -17.1640   20.9384 N   0  0  0  0  0  0
  -19.8712  -28.2695   20.7252 O   0  0  0  0  0  0
  -31.0722  -13.9818   19.4401 H   0  0  0  0  0  0
  -30.5684  -12.6572   20.4120 H   0  0  0  0  0  0
  -30.1384  -12.0308   18.0531 H   0  0  0  0  0  0
  -29.4310  -13.5931   17.7224 H   0  0  0  0  0  0
  -28.1819  -11.2855   19.2192 H   0  0  0  0  0  0
  -27.5039  -12.2082   17.8913 H   0  0  0  0  0  0
  -27.3317  -14.1689   19.2599 H   0  0  0  0  0  0
  -28.7003  -12.5503   21.4891 H   0  0  0  0  0  0
  -27.7110  -13.9339   21.8764 H   0  0  0  0  0  0
  -25.2553   -9.5683   22.4783 H   0  0  0  0  0  0
  -23.9933   -7.4513   22.7452 H   0  0  0  0  0  0
  -21.0652   -8.8518   19.8957 H   0  0  0  0  0  0
  -22.3357  -10.9517   19.6205 H   0  0  0  0  0  0
  -21.1968   -7.6102   23.9695 H   0  0  0  0  0  0
  -21.1467   -6.0505   25.9084 H   0  0  0  0  0  0
  -22.0625   -2.7562   23.2899 H   0  0  0  0  0  0
  -22.3658  -11.9769   22.5012 H   0  0  0  0  0  0
  -21.0676  -13.1184   22.3011 H   0  0  0  0  0  0
  -24.5887  -15.8350   20.5872 H   0  0  0  0  0  0
  -26.1961  -15.6315   20.1233 H   0  0  0  0  0  0
  -26.7460  -32.5700   23.1522 H   0  0  0  0  0  0
  -25.0501  -34.0075   25.0861 H   0  0  0  0  0  0
  -22.6566  -31.3439   21.6113 H   0  0  0  0  0  0
  -23.3776  -35.9712   23.3264 H   0  0  0  0  0  0
  -24.3622  -36.8986   22.2016 H   0  0  0  0  0  0
  -23.7234  -37.6599   23.6580 H   0  0  0  0  0  0
  -26.2149  -31.6495   20.7685 H   0  0  0  0  0  0
  -26.8340  -30.7804   22.1338 H   0  0  0  0  0  0
  -27.8157  -28.6762   21.5194 H   0  0  0  0  0  0
  -26.0367  -26.6202   18.1733 H   0  0  0  0  0  0
  -24.1531  -28.1827   18.2128 H   0  0  0  0  0  0
  -23.9097  -31.0749   19.5869 H   0  0  0  0  0  0
  -22.7581  -29.8633   19.6018 H   0  0  0  0  0  0
  -25.1254  -36.2134   25.0824 H   0  0  0  0  0  0
  -21.6674  -27.8813   24.4878 H   0  0  0  0  0  0
  -22.8330  -25.7408   23.1777 H   0  0  0  0  0  0
  -23.1479  -26.8526   22.1259 H   0  0  0  0  0  0
  -20.6180  -23.9993   21.1255 H   0  0  0  0  0  0
  -20.8075  -25.1502   19.9789 H   0  0  0  0  0  0
  -18.2047  -26.1642   20.6366 H   0  0  0  0  0  0
  -18.0661  -25.1003   21.9387 H   0  0  0  0  0  0
  -19.9638  -30.1156   24.4208 H   0  0  0  0  0  0
  -17.7125  -31.0811   24.3622 H   0  0  0  0  0  0
  -15.8479  -29.7339   23.3697 H   0  0  0  0  0  0
  -16.3134  -27.5582   22.3219 H   0  0  0  0  0  0
  -24.5979  -30.7122   25.7949 H   0  0  0  0  0  0
  -24.8914  -32.2947   26.5094 H   0  0  0  0  0  0
  -25.8050  -30.8973   27.0468 H   0  0  0  0  0  0
  -26.3040  -29.6931   24.1339 H   0  0  0  0  0  0
  -27.3814  -29.7250   25.5072 H   0  0  0  0  0  0
  -27.9071  -30.4322   24.0014 H   0  0  0  0  0  0
  -27.2809  -33.3621   26.2479 H   0  0  0  0  0  0
  -28.4006  -32.6896   25.0709 H   0  0  0  0  0  0
  -28.0784  -31.8389   26.5740 H   0  0  0  0  0  0
  -28.2594  -38.0207   24.7560 H   0  0  0  0  0  0
  -28.1119  -36.2748   24.6212 H   0  0  0  0  0  0
  -27.2333  -37.1455   25.8865 H   0  0  0  0  0  0
  -21.0301  -29.7407   22.3931 H   0  0  0  0  0  0
  -26.0195  -38.2978   24.1466 H   0  0  0  0  0  0
  -23.4784  -19.9917   24.0306 H   0  0  0  0  0  0
  -24.5530  -17.9321   24.4320 H   0  0  0  0  0  0
  -26.1561  -20.3026   20.6560 H   0  0  0  0  0  0
  -25.7323  -16.0353   24.1263 H   0  0  0  0  0  0
  -27.4032  -16.5849   23.9731 H   0  0  0  0  0  0
  -26.6175  -15.7100   22.6585 H   0  0  0  0  0  0
  -23.0021  -22.3439   21.2420 H   0  0  0  0  0  0
  -24.1539  -23.1247   22.2345 H   0  0  0  0  0  0
  -19.4277  -25.1685   23.4869 H   0  0  0  0  0  0
  -20.6112  -25.9370   24.1973 H   0  0  0  0  0  0
  -22.5306  -28.1683   20.3998 H   0  0  0  0  0  0
  -21.7043  -27.4112   19.0972 H   0  0  0  0  0  0
  -22.1048  -23.7158   24.1587 H   0  0  0  0  0  0
  -20.9580  -22.9289   23.1807 H   0  0  0  0  0  0
  -23.7262  -26.0781   18.9633 H   0  0  0  0  0  0
  -23.1303  -25.1871   20.2081 H   0  0  0  0  0  0
  -24.9990  -25.3455   21.5552 H   0  0  0  0  0  0
  -25.0225  -27.0470   21.5801 H   0  0  0  0  0  0
  -28.5806  -17.8391   20.3923 H   0  0  0  0  0  0
  1 25  1  0  0  0
  1 30  2  0  0  0
  1 85  1  0  0  0
  2  3  1  0  0  0
  2 25  1  0  0  0
  2 87  1  0  0  0
  2 88  1  0  0  0
  3  4  1  0  0  0
  3 89  1  0  0  0
  3 90  1  0  0  0
  4  5  1  0  0  0
  4 91  1  0  0  0
  4 92  1  0  0  0
  5  6  1  0  0  0
  5 26  1  0  0  0
  5 93  1  0  0  0
  6 25  1  0  0  0
  6 94  1  0  0  0
  6 95  1  0  0  0
  7  8  2  0  0  0
  7 26  1  0  0  0
  7 29  1  0  0  0
  8  9  1  0  0  0
  8 22  1  0  0  0
  9 10  1  0  0  0
  9 27  2  0  0  0
 10 11  2  0  0  0
 10 15  1  0  0  0
 11 12  1  0  0  0
 11 96  1  0  0  0
 12 13  2  0  0  0
 12 97  1  0  0  0
 13 14  1  0  0  0
 13 31  1  0  0  0
 14 15  2  0  0  0
 14 98  1  0  0  0
 15 99  1  0  0  0
 16 17  2  0  0  0
 16 21  1  0  0  0
 16 31  1  0  0  0
 17 18  1  0  0  0
 17100  1  0  0  0
 18 19  2  0  0  0
 18101  1  0  0  0
 19 20  1  0  0  0
 19 24  1  0  0  0
 20 21  2  0  0  0
 20102  1  0  0  0
 21 23  1  0  0  0
 22 28  1  0  0  0
 22 32  2  0  0  0
 26 27  1  0  0  0
 28103  1  0  0  0
 28104  1  0  0  0
 29105  1  0  0  0
 29106  1  0  0  0
 33 34  1  0  0  0
 33 66  1  0  0  0
 33 70  2  0  0  0
 34 36  1  0  0  0
 34 59  1  0  0  0
 34107  1  0  0  0
 35 44  2  0  0  0
 35 45  1  0  0  0
 35 68  1  0  0  0
 36 56  1  0  0  0
 36108  1  0  0  0
 37 39  1  0  0  0
 37 47  1  0  0  0
 37 66  1  0  0  0
 37109  1  0  0  0
 38 43  2  0  0  0
 38 46  1  0  0  0
 38 47  1  0  0  0
 39 64  1  0  0  0
 39 67  2  0  0  0
 40 52  1  0  0  0
 40 53  2  0  0  0
 40 58  1  0  0  0
 41110  1  0  0  0
 41111  1  0  0  0
 41112  1  0  0  0
 41 48  1  0  0  0
 42 43  1  0  0  0
 42 66  1  0  0  0
 42113  1  0  0  0
 42114  1  0  0  0
 43 44  1  0  0  0
 44115  1  0  0  0
 45 46  2  0  0  0
 45116  1  0  0  0
 46117  1  0  0  0
 47118  1  0  0  0
 47119  1  0  0  0
 48 56  1  0  0  0
 48 65  1  0  0  0
 48120  1  0  0  0
 49 50  1  0  0  0
 49 53  1  0  0  0
 49 64  1  0  0  0
 49121  1  0  0  0
 50 51  1  0  0  0
 50122  1  0  0  0
 50123  1  0  0  0
 51 52  1  0  0  0
 51124  1  0  0  0
 51125  1  0  0  0
 52126  1  0  0  0
 52127  1  0  0  0
 53 54  1  0  0  0
 54 55  2  0  0  0
 54128  1  0  0  0
 55 57  1  0  0  0
 55129  1  0  0  0
 56 69  2  0  0  0
 57 58  2  0  0  0
 57130  1  0  0  0
 58131  1  0  0  0
 59 60  1  0  0  0
 59 61  1  0  0  0
 59 62  1  0  0  0
 60132  1  0  0  0
 60133  1  0  0  0
 60134  1  0  0  0
 61135  1  0  0  0
 61136  1  0  0  0
 61137  1  0  0  0
 62138  1  0  0  0
 62139  1  0  0  0
 62140  1  0  0  0
 63 65  1  0  0  0
 63141  1  0  0  0
 63142  1  0  0  0
 63143  1  0  0  0
 64144  1  0  0  0
 65145  1  0  0  0
 68 84  1  0  0  0
 71 72  2  0  0  0
 71 74  1  0  0  0
 71146  1  0  0  0
 72 75  1  0  0  0
 72147  1  0  0  0
 73 74  2  0  0  0
 73 76  1  0  0  0
 73148  1  0  0  0
 74 79  1  0  0  0
 75 76  2  0  0  0
 75 78  1  0  0  0
 76 85  1  0  0  0
 77 80  1  0  0  0
 77 81  1  0  0  0
 77 86  2  0  0  0
 78149  1  0  0  0
 78150  1  0  0  0
 78151  1  0  0  0
 79 82  1  0  0  0
 79152  1  0  0  0
 79153  1  0  0  0
 80 82  1  0  0  0
 80154  1  0  0  0
 80155  1  0  0  0
 81 83  1  0  0  0
 81156  1  0  0  0
 81157  1  0  0  0
 82158  1  0  0  0
 82159  1  0  0  0
 83 84  1  0  0  0
 83160  1  0  0  0
 83161  1  0  0  0
 84162  1  0  0  0
 84163  1  0  0  0
 85164  1  0  0  0
M  ISO  4   1 100  68 101  84 101  85 100
M  END
> <chiral flag>
0

> <version>
0

> <s_m_source_file>
/data/baiqing/PycharmProjects/Reinvent-master-3.2/result/LINK_invent/BTK/process_docking_weight1_custom_product_contain_oxygen_bond_distance_aromatic_linkinvent_7_9_3/rearranged_h_0133.sdf

> <i_m_source_file_index>
50

> <r_mmod_Potential_Energy-OPLS-2005>
14141.857421875

> <r_mmod_Stretch_Energy-OPLS-2005>
7451.7001953125

> <r_mmod_Bend_Energy-OPLS-2005>
1436.51159667969

> <r_mmod_Torsional_Energy-OPLS-2005>
454.271728515625

> <r_mmod_Improper_Torsional_Energy-OPLS-2005>
33.5732345581055

> <r_mmod_Van_der_Waal_Energy-OPLS-2005>
2184.17797851562

> <r_mmod_Electrostatic_Energy-OPLS-2005>
-432.082763671875

> <r_mmod_Solvation_Energy-OPLS-2005>
-193.719131469727

> <b_mmod_Minimization_Converged-OPLS-2005>
0

> <r_mmod_RMS_Derivative-OPLS-2005>
2.38155341148376

$$$$
50
                    3D
 Structure written by MMmdl.
165173  0  0  1  0            999 V2000
  -30.7218  -14.4201   20.6319 C   0  0  0  0  0  0
  -30.4243  -12.2961   19.4073 C   0  0  0  0  0  0
  -29.4897  -12.5132   18.2003 C   0  0  0  0  0  0
  -28.0112  -12.3756   18.6137 C   0  0  0  0  0  0
  -27.6659  -13.2001   19.8822 C   0  0  2  0  0  0
  -28.7053  -12.9419   20.9958 C   0  0  0  0  0  0
  -25.2572  -13.8102   20.5580 C   0  0  0  0  0  0
  -24.1837  -13.0410   20.9159 C   0  0  0  0  0  0
  -24.6400  -11.6882   20.8756 C   0  0  0  0  0  0
  -23.9063  -10.4279   21.0425 C   0  0  0  0  0  0
  -24.3616   -9.4195   21.9199 C   0  0  0  0  0  0
  -23.6288   -8.2231   22.0759 C   0  0  0  0  0  0
  -22.4270   -8.0278   21.3549 C   0  0  0  0  0  0
  -21.9911   -9.0254   20.4649 C   0  0  0  0  0  0
  -22.7242  -10.2131   20.3063 C   0  0  0  0  0  0
  -21.6846   -6.0735   22.5282 C   0  0  0  0  0  0
  -21.4010   -6.5639   23.8216 C   0  0  0  0  0  0
  -21.3656   -5.6792   24.9178 C   0  0  0  0  0  0
  -21.6042   -4.3054   24.7229 C   0  0  0  0  0  0
  -21.8819   -3.8147   23.4349 C   0  0  0  0  0  0
  -21.9192   -4.6964   22.3406 C   0  0  0  0  0  0
  -22.7866  -13.5227   21.1829 C   0  0  0  0  0  0
  -22.1660   -4.2149   21.0984 F   0  0  0  0  0  0
  -21.5630   -3.4538   25.7742 F   0  0  0  0  0  0
  -30.0430  -13.2540   20.4566 N   0  0  0  0  0  0
  -26.3045  -12.9287   20.3389 N   0  0  0  0  0  0
  -25.9332  -11.6457   20.5811 N   0  0  0  0  0  0
  -22.0503  -12.8231   22.0393 N   0  0  0  0  0  0
  -25.4241  -15.1772   20.3779 N   0  0  0  0  0  0
  -31.7985  -14.6486   20.0729 O   0  0  0  0  0  0
  -21.6632   -6.8879   21.4243 O   0  0  0  0  0  0
  -22.3555  -14.5540   20.6684 O   0  0  0  0  0  0
  -24.6098  -31.8716   23.2116 C   0  0  0  0  0  0
  -25.9012  -32.4839   23.8409 C   0  0  1  0  0  0
  -27.2601  -27.4765   20.1021 C   0  0  0  0  0  0
  -25.5899  -33.8633   24.2359 N   0  0  0  0  0  0
  -23.3949  -30.4924   21.5513 C   0  0  2  0  0  0
  -24.8465  -28.9593   20.1206 C   0  0  0  0  0  0
  -22.7388  -29.4662   22.5008 C   0  0  0  0  0  0
  -18.0268  -28.1355   22.8486 C   0  0  0  0  0  0
  -24.1486  -36.7323   23.2637 C   0  0  0  0  0  0
  -25.9165  -30.8522   21.3564 C   0  0  0  0  0  0
  -25.9994  -29.4840   20.7168 C   0  0  0  0  0  0
  -27.2052  -28.7532   20.7120 C   0  0  0  0  0  0
  -26.0879  -26.9628   19.5074 C   0  0  0  0  0  0
  -24.8825  -27.6909   19.5160 C   0  0  0  0  0  0
  -23.6025  -29.8180   20.1673 C   0  0  0  0  0  0
  -25.4099  -36.3119   24.0345 C   0  0  1  0  0  0
  -20.5858  -28.3639   23.1334 C   0  0  2  0  0  0
  -20.6760  -26.9385   22.5417 C   0  0  0  0  0  0
  -19.5745  -26.6375   21.5205 C   0  0  0  0  0  0
  -18.1917  -26.7902   22.1612 C   0  0  0  0  0  0
  -19.1520  -28.8812   23.2901 C   0  0  0  0  0  0
  -18.9452  -30.1419   23.8907 C   0  0  0  0  0  0
  -17.6456  -30.6571   24.0559 C   0  0  0  0  0  0
  -25.9029  -34.9486   23.5149 C   0  0  0  0  0  0
  -16.5345  -29.9077   23.6313 C   0  0  0  0  0  0
  -16.7257  -28.6484   23.0340 C   0  0  0  0  0  0
  -26.4463  -31.6599   25.0716 C   0  0  0  0  0  0
  -25.3746  -31.3696   26.1479 C   0  0  0  0  0  0
  -27.0288  -30.3055   24.6027 C   0  0  0  0  0  0
  -27.6048  -32.4312   25.7479 C   0  0  0  0  0  0
  -27.5579  -37.1814   24.8466 C   0  0  0  0  0  0
  -21.4123  -29.3013   22.3751 N   0  0  0  0  0  0
  -26.4296  -37.3793   23.9403 N   0  0  0  0  0  0
  -24.6582  -31.0859   22.0994 N   0  0  0  0  0  0
  -23.4180  -28.8211   23.3039 O   0  0  0  0  0  0
  -28.3851  -26.6848   19.9923 O   0  0  0  0  0  0
  -26.5578  -34.8935   22.4701 O   0  0  0  0  0  0
  -23.5305  -32.1453   23.7540 O   0  0  0  0  0  0
  -31.8378  -18.6621   21.6925 C   0  0  0  0  0  0
  -31.6149  -17.2979   21.4214 C   0  0  0  0  0  0
  -29.5431  -18.8766   22.4486 C   0  0  0  0  0  0
  -30.8017  -19.4581   22.2148 C   0  0  0  0  0  0
  -29.2951  -17.5165   22.1581 C   0  0  0  0  0  0
  -30.3457  -16.7034   21.6456 C   0  0  0  0  0  0
  -26.7762  -17.8278   21.8051 C   0  0  0  0  0  0
  -31.0364  -20.9182   22.5705 C   0  0  0  0  0  0
  -27.8916  -16.9768   22.4358 C   0  0  0  0  0  0
  -30.2947  -21.9066   21.6502 C   0  0  0  0  0  0
  -30.3459  -23.3481   22.1880 C   0  0  0  0  0  0
  -29.8189  -24.3965   21.1934 C   0  0  0  0  0  0
  -29.7323  -25.8062   21.8099 C   0  0  0  0  0  0
  -29.5571  -26.9243   20.7704 C   0  0  0  0  0  0
  -30.0948  -15.3139   21.4210 N   0  0  0  0  0  0
  -31.4658  -12.4038   19.1001 H   0  0  0  0  0  0
  -30.3342  -11.2761   19.7841 H   0  0  0  0  0  0
  -29.7233  -11.7985   17.4100 H   0  0  0  0  0  0
  -29.6605  -13.5040   17.7770 H   0  0  0  0  0  0
  -27.8124  -11.3184   18.7941 H   0  0  0  0  0  0
  -27.3616  -12.6686   17.7880 H   0  0  0  0  0  0
  -27.7231  -14.2540   19.6084 H   0  0  0  0  0  0
  -28.6764  -11.8934   21.2970 H   0  0  0  0  0  0
  -28.4555  -13.4986   21.8996 H   0  0  0  0  0  0
  -25.2760   -9.5662   22.4773 H   0  0  0  0  0  0
  -23.9994   -7.4616   22.7473 H   0  0  0  0  0  0
  -21.0843   -8.8780   19.8948 H   0  0  0  0  0  0
  -22.3715  -10.9674   19.6169 H   0  0  0  0  0  0
  -21.1999   -7.6145   23.9720 H   0  0  0  0  0  0
  -21.1476   -6.0521   25.9081 H   0  0  0  0  0  0
  -22.0601   -2.7609   23.2852 H   0  0  0  0  0  0
  -22.4112  -11.9887   22.4775 H   0  0  0  0  0  0
  -21.1127  -13.1271   22.2604 H   0  0  0  0  0  0
  -24.6538  -15.8296   20.4700 H   0  0  0  0  0  0
  -26.2733  -15.6113   20.0413 H   0  0  0  0  0  0
  -26.7099  -32.5586   23.1200 H   0  0  0  0  0  0
  -25.0092  -33.9799   25.0531 H   0  0  0  0  0  0
  -22.6812  -31.3066   21.4111 H   0  0  0  0  0  0
  -23.3740  -35.9667   23.3321 H   0  0  0  0  0  0
  -24.3599  -36.8909   22.2051 H   0  0  0  0  0  0
  -23.7251  -37.6542   23.6635 H   0  0  0  0  0  0
  -26.0153  -31.6116   20.5793 H   0  0  0  0  0  0
  -26.8089  -30.9203   21.9657 H   0  0  0  0  0  0
  -28.0701  -29.2126   21.1629 H   0  0  0  0  0  0
  -26.1117  -25.9920   19.0322 H   0  0  0  0  0  0
  -23.9981  -27.2754   19.0532 H   0  0  0  0  0  0
  -23.6995  -30.5892   19.4023 H   0  0  0  0  0  0
  -22.7304  -29.2280   19.8786 H   0  0  0  0  0  0
  -25.1269  -36.2003   25.0840 H   0  0  0  0  0  0
  -20.9941  -28.3201   24.1460 H   0  0  0  0  0  0
  -20.5670  -26.2244   23.3593 H   0  0  0  0  0  0
  -21.6629  -26.7439   22.1210 H   0  0  0  0  0  0
  -19.6916  -25.6293   21.1216 H   0  0  0  0  0  0
  -19.6694  -27.3201   20.6747 H   0  0  0  0  0  0
  -17.4190  -26.6665   21.4008 H   0  0  0  0  0  0
  -18.0316  -26.0033   22.8999 H   0  0  0  0  0  0
  -19.7933  -30.7214   24.2307 H   0  0  0  0  0  0
  -17.5016  -31.6258   24.5142 H   0  0  0  0  0  0
  -15.5345  -30.2976   23.7628 H   0  0  0  0  0  0
  -15.8657  -28.0805   22.7053 H   0  0  0  0  0  0
  -24.5908  -30.7051   25.7826 H   0  0  0  0  0  0
  -24.8946  -32.2851   26.4945 H   0  0  0  0  0  0
  -25.8104  -30.8857   27.0225 H   0  0  0  0  0  0
  -26.2807  -29.6834   24.1097 H   0  0  0  0  0  0
  -27.4119  -29.7263   25.4436 H   0  0  0  0  0  0
  -27.8613  -30.4408   23.9115 H   0  0  0  0  0  0
  -27.2665  -33.3594   26.2091 H   0  0  0  0  0  0
  -28.3836  -32.6901   25.0296 H   0  0  0  0  0  0
  -28.0739  -31.8416   26.5365 H   0  0  0  0  0  0
  -28.2601  -38.0106   24.7494 H   0  0  0  0  0  0
  -28.1068  -36.2635   24.6306 H   0  0  0  0  0  0
  -27.2300  -37.1477   25.8872 H   0  0  0  0  0  0
  -20.9286  -29.8722   21.6966 H   0  0  0  0  0  0
  -26.0194  -38.2878   24.1396 H   0  0  0  0  0  0
  -32.8168  -19.0865   21.5170 H   0  0  0  0  0  0
  -32.4528  -16.7245   21.0556 H   0  0  0  0  0  0
  -28.7583  -19.4906   22.8666 H   0  0  0  0  0  0
  -25.8000  -17.3835   22.0002 H   0  0  0  0  0  0
  -26.8966  -17.9017   20.7240 H   0  0  0  0  0  0
  -26.7451  -18.8391   22.2090 H   0  0  0  0  0  0
  -32.1059  -21.1343   22.5522 H   0  0  0  0  0  0
  -30.7179  -21.0641   23.6033 H   0  0  0  0  0  0
  -27.7510  -16.9380   23.5165 H   0  0  0  0  0  0
  -27.7718  -15.9539   22.0849 H   0  0  0  0  0  0
  -29.2494  -21.6096   21.5533 H   0  0  0  0  0  0
  -30.7209  -21.8577   20.6477 H   0  0  0  0  0  0
  -31.3745  -23.6005   22.4524 H   0  0  0  0  0  0
  -29.7716  -23.4021   23.1146 H   0  0  0  0  0  0
  -28.8340  -24.1041   20.8273 H   0  0  0  0  0  0
  -30.4741  -24.4176   20.3216 H   0  0  0  0  0  0
  -30.6431  -26.0111   22.3749 H   0  0  0  0  0  0
  -28.9157  -25.8439   22.5312 H   0  0  0  0  0  0
  -30.4085  -26.9186   20.0888 H   0  0  0  0  0  0
  -29.5961  -27.8857   21.2721 H   0  0  0  0  0  0
  -29.2284  -14.9685   21.8002 H   0  0  0  0  0  0
  1 25  1  0  0  0
  1 30  2  0  0  0
  1 85  1  0  0  0
  2  3  1  0  0  0
  2 25  1  0  0  0
  2 86  1  0  0  0
  2 87  1  0  0  0
  3  4  1  0  0  0
  3 88  1  0  0  0
  3 89  1  0  0  0
  4  5  1  0  0  0
  4 90  1  0  0  0
  4 91  1  0  0  0
  5  6  1  0  0  0
  5 26  1  0  0  0
  5 92  1  0  0  0
  6 25  1  0  0  0
  6 93  1  0  0  0
  6 94  1  0  0  0
  7  8  2  0  0  0
  7 26  1  0  0  0
  7 29  1  0  0  0
  8  9  1  0  0  0
  8 22  1  0  0  0
  9 10  1  0  0  0
  9 27  2  0  0  0
 10 11  2  0  0  0
 10 15  1  0  0  0
 11 12  1  0  0  0
 11 95  1  0  0  0
 12 13  2  0  0  0
 12 96  1  0  0  0
 13 14  1  0  0  0
 13 31  1  0  0  0
 14 15  2  0  0  0
 14 97  1  0  0  0
 15 98  1  0  0  0
 16 17  2  0  0  0
 16 21  1  0  0  0
 16 31  1  0  0  0
 17 18  1  0  0  0
 17 99  1  0  0  0
 18 19  2  0  0  0
 18100  1  0  0  0
 19 20  1  0  0  0
 19 24  1  0  0  0
 20 21  2  0  0  0
 20101  1  0  0  0
 21 23  1  0  0  0
 22 28  1  0  0  0
 22 32  2  0  0  0
 26 27  1  0  0  0
 28102  1  0  0  0
 28103  1  0  0  0
 29104  1  0  0  0
 29105  1  0  0  0
 33 34  1  0  0  0
 33 66  1  0  0  0
 33 70  2  0  0  0
 34 36  1  0  0  0
 34 59  1  0  0  0
 34106  1  0  0  0
 35 44  2  0  0  0
 35 45  1  0  0  0
 35 68  1  0  0  0
 36 56  1  0  0  0
 36107  1  0  0  0
 37 39  1  0  0  0
 37 47  1  0  0  0
 37 66  1  0  0  0
 37108  1  0  0  0
 38 43  2  0  0  0
 38 46  1  0  0  0
 38 47  1  0  0  0
 39 64  1  0  0  0
 39 67  2  0  0  0
 40 52  1  0  0  0
 40 53  2  0  0  0
 40 58  1  0  0  0
 41109  1  0  0  0
 41110  1  0  0  0
 41111  1  0  0  0
 41 48  1  0  0  0
 42 43  1  0  0  0
 42 66  1  0  0  0
 42112  1  0  0  0
 42113  1  0  0  0
 43 44  1  0  0  0
 44114  1  0  0  0
 45 46  2  0  0  0
 45115  1  0  0  0
 46116  1  0  0  0
 47117  1  0  0  0
 47118  1  0  0  0
 48 56  1  0  0  0
 48 65  1  0  0  0
 48119  1  0  0  0
 49 50  1  0  0  0
 49 53  1  0  0  0
 49 64  1  0  0  0
 49120  1  0  0  0
 50 51  1  0  0  0
 50121  1  0  0  0
 50122  1  0  0  0
 51 52  1  0  0  0
 51123  1  0  0  0
 51124  1  0  0  0
 52125  1  0  0  0
 52126  1  0  0  0
 53 54  1  0  0  0
 54 55  2  0  0  0
 54127  1  0  0  0
 55 57  1  0  0  0
 55128  1  0  0  0
 56 69  2  0  0  0
 57 58  2  0  0  0
 57129  1  0  0  0
 58130  1  0  0  0
 59 60  1  0  0  0
 59 61  1  0  0  0
 59 62  1  0  0  0
 60131  1  0  0  0
 60132  1  0  0  0
 60133  1  0  0  0
 61134  1  0  0  0
 61135  1  0  0  0
 61136  1  0  0  0
 62137  1  0  0  0
 62138  1  0  0  0
 62139  1  0  0  0
 63 65  1  0  0  0
 63140  1  0  0  0
 63141  1  0  0  0
 63142  1  0  0  0
 64143  1  0  0  0
 65144  1  0  0  0
 68 84  1  0  0  0
 71 72  2  0  0  0
 71 74  1  0  0  0
 71145  1  0  0  0
 72 76  1  0  0  0
 72146  1  0  0  0
 73 74  2  0  0  0
 73 75  1  0  0  0
 73147  1  0  0  0
 74 78  1  0  0  0
 75 76  2  0  0  0
 75 79  1  0  0  0
 76 85  1  0  0  0
 77 79  1  0  0  0
 77148  1  0  0  0
 77149  1  0  0  0
 77150  1  0  0  0
 78 80  1  0  0  0
 78151  1  0  0  0
 78152  1  0  0  0
 79153  1  0  0  0
 79154  1  0  0  0
 80 81  1  0  0  0
 80155  1  0  0  0
 80156  1  0  0  0
 81 82  1  0  0  0
 81157  1  0  0  0
 81158  1  0  0  0
 82 83  1  0  0  0
 82159  1  0  0  0
 82160  1  0  0  0
 83 84  1  0  0  0
 83161  1  0  0  0
 83162  1  0  0  0
 84163  1  0  0  0
 84164  1  0  0  0
 85165  1  0  0  0
M  ISO  4   1 100  68 101  84 101  85 100
M  END
> <chiral flag>
0

> <version>
0

> <s_m_source_file>
/data/baiqing/PycharmProjects/Reinvent-master-3.2/result/LINK_invent/BTK/process_docking_weight1_custom_product_contain_oxygen_bond_distance_aromatic_linkinvent_7_9_3/rearranged_h_0133.sdf

> <i_m_source_file_index>
51

> <r_mmod_Potential_Energy-OPLS-2005>
-50.9974517822266

> <r_mmod_Stretch_Energy-OPLS-2005>
34.8143577575684

> <r_mmod_Bend_Energy-OPLS-2005>
111.005729675293

> <r_mmod_Torsional_Energy-OPLS-2005>
203.362640380859

> <r_mmod_Improper_Torsional_Energy-OPLS-2005>
2.53123426437378

> <r_mmod_Van_der_Waal_Energy-OPLS-2005>
157.057464599609

> <r_mmod_Electrostatic_Energy-OPLS-2005>
-375.945190429688

> <r_mmod_Solvation_Energy-OPLS-2005>
-190.700149536133

> <b_mmod_Minimization_Converged-OPLS-2005>
0

> <r_mmod_RMS_Derivative-OPLS-2005>
1.26636099815369

$$$$
51
                    3D
 Structure written by MMmdl.
157165  0  0  1  0            999 V2000
  -30.6027  -14.7357   20.4627 C   0  0  0  0  0  0
  -30.4410  -12.4496   19.4541 C   0  0  0  0  0  0
  -29.5083  -12.5004   18.2247 C   0  0  0  0  0  0
  -28.0344  -12.3236   18.6448 C   0  0  0  0  0  0
  -27.6429  -13.2234   19.8472 C   0  0  2  0  0  0
  -28.6939  -13.1446   20.9758 C   0  0  0  0  0  0
  -25.2525  -13.8177   20.5677 C   0  0  0  0  0  0
  -24.1815  -13.0434   20.9199 C   0  0  0  0  0  0
  -24.6394  -11.6905   20.8755 C   0  0  0  0  0  0
  -23.9075  -10.4288   21.0415 C   0  0  0  0  0  0
  -24.3618   -9.4193   21.9185 C   0  0  0  0  0  0
  -23.6288   -8.2235   22.0753 C   0  0  0  0  0  0
  -22.4270   -8.0274   21.3541 C   0  0  0  0  0  0
  -21.9911   -9.0253   20.4644 C   0  0  0  0  0  0
  -22.7252  -10.2129   20.3060 C   0  0  0  0  0  0
  -21.6843   -6.0729   22.5275 C   0  0  0  0  0  0
  -21.4016   -6.5638   23.8204 C   0  0  0  0  0  0
  -21.3661   -5.6787   24.9169 C   0  0  0  0  0  0
  -21.6046   -4.3050   24.7222 C   0  0  0  0  0  0
  -21.8823   -3.8143   23.4347 C   0  0  0  0  0  0
  -21.9192   -4.6958   22.3401 C   0  0  0  0  0  0
  -22.7838  -13.5218   21.1877 C   0  0  0  0  0  0
  -22.1658   -4.2145   21.0974 F   0  0  0  0  0  0
  -21.5631   -3.4534   25.7737 F   0  0  0  0  0  0
  -29.9899  -13.5060   20.3849 N   0  0  0  0  0  0
  -26.2949  -12.9370   20.3268 N   0  0  0  0  0  0
  -25.9317  -11.6515   20.5755 N   0  0  0  0  0  0
  -22.0478  -12.8200   22.0420 N   0  0  0  0  0  0
  -25.4205  -15.1907   20.4067 N   0  0  0  0  0  0
  -31.8023  -14.8493   20.2004 O   0  0  0  0  0  0
  -21.6637   -6.8870   21.4238 O   0  0  0  0  0  0
  -22.3511  -14.5519   20.6715 O   0  0  0  0  0  0
  -24.6314  -31.8577   23.1979 C   0  0  0  0  0  0
  -25.9127  -32.4775   23.8342 C   0  0  1  0  0  0
  -27.2179  -27.2544   20.1249 C   0  0  0  0  0  0
  -25.5910  -33.8579   24.2261 N   0  0  0  0  0  0
  -23.4291  -30.4790   21.5421 C   0  0  2  0  0  0
  -24.8759  -28.9290   20.1136 C   0  0  0  0  0  0
  -22.7516  -29.4605   22.4903 C   0  0  0  0  0  0
  -18.0294  -28.1394   22.8476 C   0  0  0  0  0  0
  -24.1486  -36.7274   23.2643 C   0  0  0  0  0  0
  -25.9747  -30.7698   21.3763 C   0  0  0  0  0  0
  -26.0514  -29.3908   20.7193 C   0  0  0  0  0  0
  -27.2267  -28.5679   20.7122 C   0  0  0  0  0  0
  -26.0128  -26.8672   19.4928 C   0  0  0  0  0  0
  -24.8627  -27.6756   19.4889 C   0  0  0  0  0  0
  -23.6501  -29.8175   20.1580 C   0  0  0  0  0  0
  -25.4115  -36.3076   24.0328 C   0  0  1  0  0  0
  -20.5900  -28.3710   23.1255 C   0  0  2  0  0  0
  -20.6773  -26.9417   22.5400 C   0  0  0  0  0  0
  -19.5749  -26.6380   21.5204 C   0  0  0  0  0  0
  -18.1935  -26.7933   22.1617 C   0  0  0  0  0  0
  -19.1544  -28.8866   23.2868 C   0  0  0  0  0  0
  -18.9472  -30.1457   23.8893 C   0  0  0  0  0  0
  -17.6483  -30.6595   24.0561 C   0  0  0  0  0  0
  -25.9054  -34.9454   23.5112 C   0  0  0  0  0  0
  -16.5372  -29.9104   23.6328 C   0  0  0  0  0  0
  -16.7283  -28.6519   23.0348 C   0  0  0  0  0  0
  -26.4500  -31.6600   25.0724 C   0  0  0  0  0  0
  -25.3708  -31.3728   26.1431 C   0  0  0  0  0  0
  -27.0335  -30.3029   24.6153 C   0  0  0  0  0  0
  -27.6083  -32.4329   25.7478 C   0  0  0  0  0  0
  -27.5575  -37.1792   24.8473 C   0  0  0  0  0  0
  -21.4222  -29.3054   22.3652 N   0  0  0  0  0  0
  -26.4285  -37.3777   23.9426 N   0  0  0  0  0  0
  -24.6983  -31.0529   22.0966 N   0  0  0  0  0  0
  -23.4212  -28.8125   23.2996 O   0  0  0  0  0  0
  -28.3074  -26.3451   20.1730 O   0  0  0  0  0  0
  -26.5627  -34.8933   22.4683 O   0  0  0  0  0  0
  -23.5460  -32.1406   23.7255 O   0  0  0  0  0  0
  -30.6287  -18.8628   22.7213 C   0  0  0  0  0  0
  -30.1750  -19.9675   21.9712 C   0  0  0  0  0  0
  -29.5544  -18.4239   20.2017 C   0  0  0  0  0  0
  -30.5414  -17.5336   22.2437 C   0  0  0  0  0  0
  -30.0041  -17.2593   20.9577 C   0  0  0  0  0  0
  -29.6272  -19.7984   20.6860 C   0  0  0  0  0  0
  -30.9941  -16.4163   23.1720 C   0  0  0  0  0  0
  -30.0737  -24.0246   21.4609 C   0  0  0  0  0  0
  -28.0116  -24.8619   20.1542 C   0  0  0  0  0  0
  -28.5849  -22.1524   20.4882 C   0  0  0  0  0  0
  -29.1199  -23.6829   20.3057 C   0  0  2  0  0  0
  -29.7749  -15.8482   20.5499 N   0  0  0  0  0  0
  -29.2738  -20.9494   19.9225 O   0  0  0  0  0  0
  -31.4778  -12.5880   19.1450 H   0  0  0  0  0  0
  -30.3977  -11.4696   19.9328 H   0  0  0  0  0  0
  -29.7849  -11.7285   17.5061 H   0  0  0  0  0  0
  -29.6321  -13.4543   17.7094 H   0  0  0  0  0  0
  -27.8929  -11.2753   18.9080 H   0  0  0  0  0  0
  -27.3735  -12.5138   17.7983 H   0  0  0  0  0  0
  -27.6376  -14.2460   19.4675 H   0  0  0  0  0  0
  -28.7312  -12.1400   21.4012 H   0  0  0  0  0  0
  -28.4355  -13.8147   21.7972 H   0  0  0  0  0  0
  -25.2763   -9.5662   22.4756 H   0  0  0  0  0  0
  -23.9992   -7.4626   22.7473 H   0  0  0  0  0  0
  -21.0838   -8.8773   19.8950 H   0  0  0  0  0  0
  -22.3708  -10.9662   19.6164 H   0  0  0  0  0  0
  -21.2009   -7.6144   23.9708 H   0  0  0  0  0  0
  -21.1478   -6.0519   25.9071 H   0  0  0  0  0  0
  -22.0603   -2.7608   23.2845 H   0  0  0  0  0  0
  -22.4097  -11.9851   22.4794 H   0  0  0  0  0  0
  -21.1099  -13.1218   22.2651 H   0  0  0  0  0  0
  -24.6499  -15.8401   20.5192 H   0  0  0  0  0  0
  -26.2563  -15.6309   20.0475 H   0  0  0  0  0  0
  -26.7185  -32.5453   23.1087 H   0  0  0  0  0  0
  -25.0051  -33.9732   25.0399 H   0  0  0  0  0  0
  -22.7227  -31.2997   21.3950 H   0  0  0  0  0  0
  -23.3753  -35.9596   23.3312 H   0  0  0  0  0  0
  -24.3559  -36.8895   22.2052 H   0  0  0  0  0  0
  -23.7232  -37.6473   23.6671 H   0  0  0  0  0  0
  -26.1009  -31.5251   20.6015 H   0  0  0  0  0  0
  -26.8582  -30.8335   21.9997 H   0  0  0  0  0  0
  -28.1267  -28.9167   21.1997 H   0  0  0  0  0  0
  -25.9142  -25.9129   19.0005 H   0  0  0  0  0  0
  -23.9616  -27.3155   19.0104 H   0  0  0  0  0  0
  -23.7804  -30.5962   19.4068 H   0  0  0  0  0  0
  -22.7660  -29.2582   19.8471 H   0  0  0  0  0  0
  -25.1292  -36.1931   25.0814 H   0  0  0  0  0  0
  -20.9994  -28.3286   24.1376 H   0  0  0  0  0  0
  -20.5655  -26.2322   23.3613 H   0  0  0  0  0  0
  -21.6651  -26.7427   22.1205 H   0  0  0  0  0  0
  -19.6909  -25.6283   21.1246 H   0  0  0  0  0  0
  -19.6693  -27.3174   20.6716 H   0  0  0  0  0  0
  -17.4202  -26.6665   21.4023 H   0  0  0  0  0  0
  -18.0344  -26.0085   22.9019 H   0  0  0  0  0  0
  -19.7957  -30.7253   24.2276 H   0  0  0  0  0  0
  -17.5052  -31.6276   24.5154 H   0  0  0  0  0  0
  -15.5377  -30.3014   23.7649 H   0  0  0  0  0  0
  -15.8678  -28.0842   22.7067 H   0  0  0  0  0  0
  -24.5930  -30.7020   25.7760 H   0  0  0  0  0  0
  -24.8819  -32.2871   26.4799 H   0  0  0  0  0  0
  -25.8017  -30.8962   27.0245 H   0  0  0  0  0  0
  -26.2884  -29.6775   24.1211 H   0  0  0  0  0  0
  -27.4091  -29.7290   25.4634 H   0  0  0  0  0  0
  -27.8742  -30.4335   23.9339 H   0  0  0  0  0  0
  -27.2746  -33.3684   26.1979 H   0  0  0  0  0  0
  -28.3922  -32.6787   25.0306 H   0  0  0  0  0  0
  -28.0707  -31.8480   26.5437 H   0  0  0  0  0  0
  -28.2600  -38.0087   24.7519 H   0  0  0  0  0  0
  -28.1064  -36.2607   24.6304 H   0  0  0  0  0  0
  -27.2284  -37.1458   25.8879 H   0  0  0  0  0  0
  -20.9403  -29.8835   21.6911 H   0  0  0  0  0  0
  -26.0153  -38.2845   24.1455 H   0  0  0  0  0  0
  -31.0426  -19.0503   23.7025 H   0  0  0  0  0  0
  -30.2828  -20.9601   22.3854 H   0  0  0  0  0  0
  -29.1316  -18.2598   19.2210 H   0  0  0  0  0  0
  -31.1363  -16.7752   24.1915 H   0  0  0  0  0  0
  -31.9383  -15.9940   22.8278 H   0  0  0  0  0  0
  -30.2529  -15.6185   23.2153 H   0  0  0  0  0  0
  -30.5117  -25.0145   21.3310 H   0  0  0  0  0  0
  -30.8919  -23.3078   21.5246 H   0  0  0  0  0  0
  -29.5527  -24.0216   22.4188 H   0  0  0  0  0  0
  -27.5347  -24.6410   19.2005 H   0  0  0  0  0  0
  -27.2551  -24.6879   20.9199 H   0  0  0  0  0  0
  -27.6092  -22.1262   20.0013 H   0  0  0  0  0  0
  -28.3489  -21.9773   21.5380 H   0  0  0  0  0  0
  -29.7045  -23.7045   19.3850 H   0  0  0  0  0  0
  -28.8012  -15.6043   20.4558 H   0  0  0  0  0  0
  1 25  1  0  0  0
  1 30  2  0  0  0
  1 82  1  0  0  0
  2  3  1  0  0  0
  2 25  1  0  0  0
  2 84  1  0  0  0
  2 85  1  0  0  0
  3  4  1  0  0  0
  3 86  1  0  0  0
  3 87  1  0  0  0
  4  5  1  0  0  0
  4 88  1  0  0  0
  4 89  1  0  0  0
  5  6  1  0  0  0
  5 26  1  0  0  0
  5 90  1  0  0  0
  6 25  1  0  0  0
  6 91  1  0  0  0
  6 92  1  0  0  0
  7  8  2  0  0  0
  7 26  1  0  0  0
  7 29  1  0  0  0
  8  9  1  0  0  0
  8 22  1  0  0  0
  9 10  1  0  0  0
  9 27  2  0  0  0
 10 11  2  0  0  0
 10 15  1  0  0  0
 11 12  1  0  0  0
 11 93  1  0  0  0
 12 13  2  0  0  0
 12 94  1  0  0  0
 13 14  1  0  0  0
 13 31  1  0  0  0
 14 15  2  0  0  0
 14 95  1  0  0  0
 15 96  1  0  0  0
 16 17  2  0  0  0
 16 21  1  0  0  0
 16 31  1  0  0  0
 17 18  1  0  0  0
 17 97  1  0  0  0
 18 19  2  0  0  0
 18 98  1  0  0  0
 19 20  1  0  0  0
 19 24  1  0  0  0
 20 21  2  0  0  0
 20 99  1  0  0  0
 21 23  1  0  0  0
 22 28  1  0  0  0
 22 32  2  0  0  0
 26 27  1  0  0  0
 28100  1  0  0  0
 28101  1  0  0  0
 29102  1  0  0  0
 29103  1  0  0  0
 33 34  1  0  0  0
 33 66  1  0  0  0
 33 70  2  0  0  0
 34 36  1  0  0  0
 34 59  1  0  0  0
 34104  1  0  0  0
 35 44  2  0  0  0
 35 45  1  0  0  0
 35 68  1  0  0  0
 36 56  1  0  0  0
 36105  1  0  0  0
 37 39  1  0  0  0
 37 47  1  0  0  0
 37 66  1  0  0  0
 37106  1  0  0  0
 38 43  2  0  0  0
 38 46  1  0  0  0
 38 47  1  0  0  0
 39 64  1  0  0  0
 39 67  2  0  0  0
 40 52  1  0  0  0
 40 53  2  0  0  0
 40 58  1  0  0  0
 41107  1  0  0  0
 41108  1  0  0  0
 41109  1  0  0  0
 41 48  1  0  0  0
 42 43  1  0  0  0
 42 66  1  0  0  0
 42110  1  0  0  0
 42111  1  0  0  0
 43 44  1  0  0  0
 44112  1  0  0  0
 45 46  2  0  0  0
 45113  1  0  0  0
 46114  1  0  0  0
 47115  1  0  0  0
 47116  1  0  0  0
 48 56  1  0  0  0
 48 65  1  0  0  0
 48117  1  0  0  0
 49 50  1  0  0  0
 49 53  1  0  0  0
 49 64  1  0  0  0
 49118  1  0  0  0
 50 51  1  0  0  0
 50119  1  0  0  0
 50120  1  0  0  0
 51 52  1  0  0  0
 51121  1  0  0  0
 51122  1  0  0  0
 52123  1  0  0  0
 52124  1  0  0  0
 53 54  1  0  0  0
 54 55  2  0  0  0
 54125  1  0  0  0
 55 57  1  0  0  0
 55126  1  0  0  0
 56 69  2  0  0  0
 57 58  2  0  0  0
 57127  1  0  0  0
 58128  1  0  0  0
 59 60  1  0  0  0
 59 61  1  0  0  0
 59 62  1  0  0  0
 60129  1  0  0  0
 60130  1  0  0  0
 60131  1  0  0  0
 61132  1  0  0  0
 61133  1  0  0  0
 61134  1  0  0  0
 62135  1  0  0  0
 62136  1  0  0  0
 62137  1  0  0  0
 63 65  1  0  0  0
 63138  1  0  0  0
 63139  1  0  0  0
 63140  1  0  0  0
 64141  1  0  0  0
 65142  1  0  0  0
 68 79  1  0  0  0
 71 72  2  0  0  0
 71 74  1  0  0  0
 71143  1  0  0  0
 72 76  1  0  0  0
 72144  1  0  0  0
 73 75  1  0  0  0
 73 76  2  0  0  0
 73145  1  0  0  0
 74 75  2  0  0  0
 74 77  1  0  0  0
 75 82  1  0  0  0
 76 83  1  0  0  0
 77146  1  0  0  0
 77147  1  0  0  0
 77148  1  0  0  0
 78149  1  0  0  0
 78150  1  0  0  0
 78151  1  0  0  0
 78 81  1  0  0  0
 79 81  1  0  0  0
 79152  1  0  0  0
 79153  1  0  0  0
 80 81  1  0  0  0
 80 83  1  0  0  0
 80154  1  0  0  0
 80155  1  0  0  0
 81156  1  0  0  0
 82157  1  0  0  0
M  ISO  4   1 100  68 101  79 101  82 100
M  END
> <chiral flag>
0

> <version>
0

> <s_m_source_file>
/data/baiqing/PycharmProjects/Reinvent-master-3.2/result/LINK_invent/BTK/process_docking_weight1_custom_product_contain_oxygen_bond_distance_aromatic_linkinvent_7_9_3/rearranged_h_0133.sdf

> <i_m_source_file_index>
52

> <r_mmod_Potential_Energy-OPLS-2005>
222.008712768555

> <r_mmod_Stretch_Energy-OPLS-2005>
129.545913696289

> <r_mmod_Bend_Energy-OPLS-2005>
177.144073486328

> <r_mmod_Torsional_Energy-OPLS-2005>
263.344268798828

> <r_mmod_Improper_Torsional_Energy-OPLS-2005>
8.17847442626953

> <r_mmod_Van_der_Waal_Energy-OPLS-2005>
139.703109741211

> <r_mmod_Electrostatic_Energy-OPLS-2005>
-373.211761474609

> <r_mmod_Solvation_Energy-OPLS-2005>
-209.464004516602

> <b_mmod_Minimization_Converged-OPLS-2005>
0

> <r_mmod_RMS_Derivative-OPLS-2005>
2.43532633781433

$$$$
52
                    3D
 Structure written by MMmdl.
171179  0  0  1  0            999 V2000
  -30.6962  -14.4451   20.5820 C   0  0  0  0  0  0
  -30.4265  -12.2919   19.4150 C   0  0  0  0  0  0
  -29.4964  -12.5175   18.2038 C   0  0  0  0  0  0
  -28.0153  -12.3817   18.6126 C   0  0  0  0  0  0
  -27.6680  -13.2037   19.8828 C   0  0  2  0  0  0
  -28.7083  -12.9483   20.9979 C   0  0  0  0  0  0
  -25.2608  -13.8160   20.5669 C   0  0  0  0  0  0
  -24.1852  -13.0441   20.9159 C   0  0  0  0  0  0
  -24.6402  -11.6908   20.8726 C   0  0  0  0  0  0
  -23.9062  -10.4299   21.0402 C   0  0  0  0  0  0
  -24.3613   -9.4217   21.9179 C   0  0  0  0  0  0
  -23.6292   -8.2247   22.0748 C   0  0  0  0  0  0
  -22.4273   -8.0285   21.3542 C   0  0  0  0  0  0
  -21.9911   -9.0260   20.4639 C   0  0  0  0  0  0
  -22.7238  -10.2140   20.3048 C   0  0  0  0  0  0
  -21.6857   -6.0734   22.5280 C   0  0  0  0  0  0
  -21.4014   -6.5634   23.8214 C   0  0  0  0  0  0
  -21.3658   -5.6787   24.9181 C   0  0  0  0  0  0
  -21.6041   -4.3047   24.7224 C   0  0  0  0  0  0
  -21.8821   -3.8148   23.4346 C   0  0  0  0  0  0
  -21.9188   -4.6966   22.3408 C   0  0  0  0  0  0
  -22.7874  -13.5245   21.1831 C   0  0  0  0  0  0
  -22.1660   -4.2149   21.0981 F   0  0  0  0  0  0
  -21.5627   -3.4531   25.7738 F   0  0  0  0  0  0
  -30.0465  -13.2562   20.4583 N   0  0  0  0  0  0
  -26.3053  -12.9326   20.3389 N   0  0  0  0  0  0
  -25.9330  -11.6489   20.5769 N   0  0  0  0  0  0
  -22.0507  -12.8238   22.0382 N   0  0  0  0  0  0
  -25.4326  -15.1869   20.4067 N   0  0  0  0  0  0
  -31.8015  -14.6607   20.0741 O   0  0  0  0  0  0
  -21.6635   -6.8883   21.4245 O   0  0  0  0  0  0
  -22.3559  -14.5556   20.6683 O   0  0  0  0  0  0
  -24.6097  -31.8713   23.2103 C   0  0  0  0  0  0
  -25.9001  -32.4839   23.8393 C   0  0  1  0  0  0
  -27.2570  -27.4577   20.1096 C   0  0  0  0  0  0
  -25.5851  -33.8631   24.2324 N   0  0  0  0  0  0
  -23.3978  -30.4917   21.5502 C   0  0  2  0  0  0
  -24.8505  -28.9587   20.1148 C   0  0  0  0  0  0
  -22.7389  -29.4663   22.5004 C   0  0  0  0  0  0
  -18.0261  -28.1402   22.8509 C   0  0  0  0  0  0
  -24.1473  -36.7320   23.2632 C   0  0  0  0  0  0
  -25.9211  -30.8434   21.3621 C   0  0  0  0  0  0
  -26.0028  -29.4774   20.7170 C   0  0  0  0  0  0
  -27.2037  -28.7371   20.7194 C   0  0  0  0  0  0
  -26.0902  -26.9562   19.4975 C   0  0  0  0  0  0
  -24.8875  -27.6932   19.5011 C   0  0  0  0  0  0
  -23.6069  -29.8189   20.1652 C   0  0  0  0  0  0
  -25.4098  -36.3124   24.0335 C   0  0  1  0  0  0
  -20.5846  -28.3659   23.1344 C   0  0  2  0  0  0
  -20.6759  -26.9404   22.5438 C   0  0  0  0  0  0
  -19.5735  -26.6413   21.5230 C   0  0  0  0  0  0
  -18.1906  -26.7953   22.1638 C   0  0  0  0  0  0
  -19.1512  -28.8848   23.2922 C   0  0  0  0  0  0
  -18.9449  -30.1458   23.8925 C   0  0  0  0  0  0
  -17.6455  -30.6607   24.0580 C   0  0  0  0  0  0
  -25.9032  -34.9488   23.5148 C   0  0  0  0  0  0
  -16.5344  -29.9114   23.6344 C   0  0  0  0  0  0
  -16.7255  -28.6531   23.0366 C   0  0  0  0  0  0
  -26.4435  -31.6620   25.0718 C   0  0  0  0  0  0
  -25.3692  -31.3749   26.1461 C   0  0  0  0  0  0
  -27.0278  -30.3056   24.6112 C   0  0  0  0  0  0
  -27.6021  -32.4338   25.7477 C   0  0  0  0  0  0
  -27.5589  -37.1806   24.8445 C   0  0  0  0  0  0
  -21.4122  -29.3022   22.3745 N   0  0  0  0  0  0
  -26.4284  -37.3814   23.9420 N   0  0  0  0  0  0
  -24.6605  -31.0822   22.1000 N   0  0  0  0  0  0
  -23.4183  -28.8225   23.3044 O   0  0  0  0  0  0
  -28.3881  -26.6620   20.0699 O   0  0  0  0  0  0
  -26.5612  -34.8945   22.4720 O   0  0  0  0  0  0
  -23.5297  -32.1457   23.7510 O   0  0  0  0  0  0
  -30.3701  -18.8228   19.6970 C   0  0  0  0  0  0
  -30.6248  -17.4660   19.9896 C   0  0  0  0  0  0
  -28.5956  -18.8500   21.3523 C   0  0  0  0  0  0
  -29.3440  -19.5227   20.3652 C   0  0  0  0  0  0
  -28.8458  -17.4913   21.6539 C   0  0  0  0  0  0
  -29.8578  -16.7769   20.9631 C   0  0  0  0  0  0
  -28.0033  -16.8072   22.7183 C   0  0  0  0  0  0
  -32.5209  -25.0266   19.5370 C   0  0  0  0  0  0
  -31.5612  -26.4154   22.1191 C   0  0  0  0  0  0
  -29.0245  -20.9724   19.9990 C   0  0  0  0  0  0
  -31.2587  -25.8988   19.6731 C   0  0  0  0  0  0
  -29.5650  -22.0035   21.0110 C   0  0  0  0  0  0
  -29.4618  -23.4782   20.5410 C   0  0  0  0  0  0
  -30.1625  -24.4420   21.5312 C   0  0  0  0  0  0
  -29.3837  -26.8932   21.0644 C   0  0  0  0  0  0
  -30.5652  -25.8797   21.0627 C   0  0  1  0  0  0
  -30.0126  -15.3857   21.2581 N   0  0  0  0  0  0
  -31.4718  -12.3905   19.1157 H   0  0  0  0  0  0
  -30.3216  -11.2742   19.7928 H   0  0  0  0  0  0
  -29.7328  -11.8069   17.4101 H   0  0  0  0  0  0
  -29.6708  -13.5097   17.7855 H   0  0  0  0  0  0
  -27.8139  -11.3248   18.7880 H   0  0  0  0  0  0
  -27.3696  -12.6791   17.7856 H   0  0  0  0  0  0
  -27.7231  -14.2575   19.6091 H   0  0  0  0  0  0
  -28.6771  -11.9033   21.3084 H   0  0  0  0  0  0
  -28.4653  -13.5170   21.8963 H   0  0  0  0  0  0
  -25.2769   -9.5684   22.4745 H   0  0  0  0  0  0
  -23.9999   -7.4638   22.7470 H   0  0  0  0  0  0
  -21.0840   -8.8779   19.8950 H   0  0  0  0  0  0
  -22.3706  -10.9670   19.6137 H   0  0  0  0  0  0
  -21.2012   -7.6144   23.9721 H   0  0  0  0  0  0
  -21.1472   -6.0515   25.9078 H   0  0  0  0  0  0
  -22.0598   -2.7608   23.2845 H   0  0  0  0  0  0
  -22.4108  -11.9888   22.4769 H   0  0  0  0  0  0
  -21.1122  -13.1267   22.2583 H   0  0  0  0  0  0
  -24.6699  -15.8450   20.5212 H   0  0  0  0  0  0
  -26.2915  -15.6269   20.0998 H   0  0  0  0  0  0
  -26.7070  -32.5579   23.1174 H   0  0  0  0  0  0
  -24.9939  -33.9770   25.0421 H   0  0  0  0  0  0
  -22.6859  -31.3081   21.4108 H   0  0  0  0  0  0
  -23.3749  -35.9635   23.3287 H   0  0  0  0  0  0
  -24.3558  -36.8947   22.2043 H   0  0  0  0  0  0
  -23.7213  -37.6518   23.6657 H   0  0  0  0  0  0
  -26.0307  -31.6075   20.5905 H   0  0  0  0  0  0
  -26.8084  -30.9017   21.9815 H   0  0  0  0  0  0
  -28.0750  -29.1684   21.1904 H   0  0  0  0  0  0
  -26.1151  -25.9844   19.0240 H   0  0  0  0  0  0
  -24.0027  -27.2886   19.0297 H   0  0  0  0  0  0
  -23.7067  -30.5921   19.4025 H   0  0  0  0  0  0
  -22.7342  -29.2310   19.8756 H   0  0  0  0  0  0
  -25.1286  -36.1978   25.0826 H   0  0  0  0  0  0
  -20.9943  -28.3235   24.1465 H   0  0  0  0  0  0
  -20.5686  -26.2268   23.3621 H   0  0  0  0  0  0
  -21.6625  -26.7479   22.1209 H   0  0  0  0  0  0
  -19.6885  -25.6338   21.1235 H   0  0  0  0  0  0
  -19.6674  -27.3255   20.6785 H   0  0  0  0  0  0
  -17.4190  -26.6723   21.4019 H   0  0  0  0  0  0
  -18.0277  -26.0095   22.9031 H   0  0  0  0  0  0
  -19.7923  -30.7264   24.2306 H   0  0  0  0  0  0
  -17.5021  -31.6285   24.5197 H   0  0  0  0  0  0
  -15.5352  -30.3040   23.7649 H   0  0  0  0  0  0
  -15.8657  -28.0868   22.7070 H   0  0  0  0  0  0
  -24.5819  -30.7151   25.7787 H   0  0  0  0  0  0
  -24.8917  -32.2911   26.4941 H   0  0  0  0  0  0
  -25.8000  -30.8874   27.0211 H   0  0  0  0  0  0
  -26.2846  -29.6833   24.1097 H   0  0  0  0  0  0
  -27.3965  -29.7278   25.4602 H   0  0  0  0  0  0
  -27.8718  -30.4379   23.9335 H   0  0  0  0  0  0
  -27.2644  -33.3622   26.2103 H   0  0  0  0  0  0
  -28.3795  -32.6928   25.0274 H   0  0  0  0  0  0
  -28.0737  -31.8434   26.5348 H   0  0  0  0  0  0
  -28.2587  -38.0133   24.7576 H   0  0  0  0  0  0
  -28.1118  -36.2676   24.6179 H   0  0  0  0  0  0
  -27.2314  -37.1335   25.8847 H   0  0  0  0  0  0
  -20.9288  -29.8724   21.6944 H   0  0  0  0  0  0
  -26.0180  -38.2884   24.1473 H   0  0  0  0  0  0
  -30.9600  -19.3179   18.9387 H   0  0  0  0  0  0
  -31.4067  -16.9724   19.4327 H   0  0  0  0  0  0
  -27.8096  -19.3808   21.8710 H   0  0  0  0  0  0
  -27.2648  -17.4887   23.1418 H   0  0  0  0  0  0
  -28.6372  -16.4540   23.5322 H   0  0  0  0  0  0
  -27.4665  -15.9548   22.3017 H   0  0  0  0  0  0
  -32.9023  -25.0641   18.5169 H   0  0  0  0  0  0
  -32.3232  -23.9807   19.7695 H   0  0  0  0  0  0
  -33.3247  -25.3706   20.1871 H   0  0  0  0  0  0
  -32.4128  -25.7502   22.2658 H   0  0  0  0  0  0
  -31.0828  -26.5238   23.0935 H   0  0  0  0  0  0
  -31.9631  -27.3907   21.8418 H   0  0  0  0  0  0
  -27.9437  -21.0793   19.9015 H   0  0  0  0  0  0
  -29.4336  -21.1807   19.0084 H   0  0  0  0  0  0
  -30.5442  -25.6078   18.9032 H   0  0  0  0  0  0
  -31.5325  -26.9243   19.4222 H   0  0  0  0  0  0
  -30.6152  -21.7697   21.1924 H   0  0  0  0  0  0
  -29.0598  -21.8822   21.9703 H   0  0  0  0  0  0
  -28.4182  -23.7672   20.4125 H   0  0  0  0  0  0
  -29.9207  -23.5481   19.5558 H   0  0  0  0  0  0
  -31.0755  -23.9398   21.8526 H   0  0  0  0  0  0
  -29.5595  -24.5136   22.4379 H   0  0  0  0  0  0
  -29.8010  -27.8883   20.9019 H   0  0  0  0  0  0
  -28.9122  -26.9071   22.0487 H   0  0  0  0  0  0
  -29.2667  -15.0015   21.8147 H   0  0  0  0  0  0
  1 25  1  0  0  0
  1 30  2  0  0  0
  1 87  1  0  0  0
  2  3  1  0  0  0
  2 25  1  0  0  0
  2 88  1  0  0  0
  2 89  1  0  0  0
  3  4  1  0  0  0
  3 90  1  0  0  0
  3 91  1  0  0  0
  4  5  1  0  0  0
  4 92  1  0  0  0
  4 93  1  0  0  0
  5  6  1  0  0  0
  5 26  1  0  0  0
  5 94  1  0  0  0
  6 25  1  0  0  0
  6 95  1  0  0  0
  6 96  1  0  0  0
  7  8  2  0  0  0
  7 26  1  0  0  0
  7 29  1  0  0  0
  8  9  1  0  0  0
  8 22  1  0  0  0
  9 10  1  0  0  0
  9 27  2  0  0  0
 10 11  2  0  0  0
 10 15  1  0  0  0
 11 12  1  0  0  0
 11 97  1  0  0  0
 12 13  2  0  0  0
 12 98  1  0  0  0
 13 14  1  0  0  0
 13 31  1  0  0  0
 14 15  2  0  0  0
 14 99  1  0  0  0
 15100  1  0  0  0
 16 17  2  0  0  0
 16 21  1  0  0  0
 16 31  1  0  0  0
 17 18  1  0  0  0
 17101  1  0  0  0
 18 19  2  0  0  0
 18102  1  0  0  0
 19 20  1  0  0  0
 19 24  1  0  0  0
 20 21  2  0  0  0
 20103  1  0  0  0
 21 23  1  0  0  0
 22 28  1  0  0  0
 22 32  2  0  0  0
 26 27  1  0  0  0
 28104  1  0  0  0
 28105  1  0  0  0
 29106  1  0  0  0
 29107  1  0  0  0
 33 34  1  0  0  0
 33 66  1  0  0  0
 33 70  2  0  0  0
 34 36  1  0  0  0
 34 59  1  0  0  0
 34108  1  0  0  0
 35 44  2  0  0  0
 35 45  1  0  0  0
 35 68  1  0  0  0
 36 56  1  0  0  0
 36109  1  0  0  0
 37 39  1  0  0  0
 37 47  1  0  0  0
 37 66  1  0  0  0
 37110  1  0  0  0
 38 43  2  0  0  0
 38 46  1  0  0  0
 38 47  1  0  0  0
 39 64  1  0  0  0
 39 67  2  0  0  0
 40 52  1  0  0  0
 40 53  2  0  0  0
 40 58  1  0  0  0
 41111  1  0  0  0
 41112  1  0  0  0
 41113  1  0  0  0
 41 48  1  0  0  0
 42 43  1  0  0  0
 42 66  1  0  0  0
 42114  1  0  0  0
 42115  1  0  0  0
 43 44  1  0  0  0
 44116  1  0  0  0
 45 46  2  0  0  0
 45117  1  0  0  0
 46118  1  0  0  0
 47119  1  0  0  0
 47120  1  0  0  0
 48 56  1  0  0  0
 48 65  1  0  0  0
 48121  1  0  0  0
 49 50  1  0  0  0
 49 53  1  0  0  0
 49 64  1  0  0  0
 49122  1  0  0  0
 50 51  1  0  0  0
 50123  1  0  0  0
 50124  1  0  0  0
 51 52  1  0  0  0
 51125  1  0  0  0
 51126  1  0  0  0
 52127  1  0  0  0
 52128  1  0  0  0
 53 54  1  0  0  0
 54 55  2  0  0  0
 54129  1  0  0  0
 55 57  1  0  0  0
 55130  1  0  0  0
 56 69  2  0  0  0
 57 58  2  0  0  0
 57131  1  0  0  0
 58132  1  0  0  0
 59 60  1  0  0  0
 59 61  1  0  0  0
 59 62  1  0  0  0
 60133  1  0  0  0
 60134  1  0  0  0
 60135  1  0  0  0
 61136  1  0  0  0
 61137  1  0  0  0
 61138  1  0  0  0
 62139  1  0  0  0
 62140  1  0  0  0
 62141  1  0  0  0
 63 65  1  0  0  0
 63142  1  0  0  0
 63143  1  0  0  0
 63144  1  0  0  0
 64145  1  0  0  0
 65146  1  0  0  0
 68 85  1  0  0  0
 71 72  2  0  0  0
 71 74  1  0  0  0
 71147  1  0  0  0
 72 76  1  0  0  0
 72148  1  0  0  0
 73 74  2  0  0  0
 73 75  1  0  0  0
 73149  1  0  0  0
 74 80  1  0  0  0
 75 76  2  0  0  0
 75 77  1  0  0  0
 76 87  1  0  0  0
 77150  1  0  0  0
 77151  1  0  0  0
 77152  1  0  0  0
 78 81  1  0  0  0
 78153  1  0  0  0
 78154  1  0  0  0
 78155  1  0  0  0
 79156  1  0  0  0
 79157  1  0  0  0
 79158  1  0  0  0
 79 86  1  0  0  0
 80 82  1  0  0  0
 80159  1  0  0  0
 80160  1  0  0  0
 81 86  1  0  0  0
 81161  1  0  0  0
 81162  1  0  0  0
 82 83  1  0  0  0
 82163  1  0  0  0
 82164  1  0  0  0
 83 84  1  0  0  0
 83165  1  0  0  0
 83166  1  0  0  0
 84 86  1  0  0  0
 84167  1  0  0  0
 84168  1  0  0  0
 85 86  1  0  0  0
 85169  1  0  0  0
 85170  1  0  0  0
 87171  1  0  0  0
M  ISO  4   1 100  68 101  85 101  87 100
M  END
> <chiral flag>
0

> <version>
0

> <s_m_source_file>
/data/baiqing/PycharmProjects/Reinvent-master-3.2/result/LINK_invent/BTK/process_docking_weight1_custom_product_contain_oxygen_bond_distance_aromatic_linkinvent_7_9_3/rearranged_h_0133.sdf

> <i_m_source_file_index>
53

> <r_mmod_Potential_Energy-OPLS-2005>
-24.6044883728027

> <r_mmod_Stretch_Energy-OPLS-2005>
39.1316719055176

> <r_mmod_Bend_Energy-OPLS-2005>
115.201843261719

> <r_mmod_Torsional_Energy-OPLS-2005>
232.368865966797

> <r_mmod_Improper_Torsional_Energy-OPLS-2005>
3.8006227016449

> <r_mmod_Van_der_Waal_Energy-OPLS-2005>
155.37841796875

> <r_mmod_Electrostatic_Energy-OPLS-2005>
-393.180297851562

> <r_mmod_Solvation_Energy-OPLS-2005>
-186.481796264648

> <b_mmod_Minimization_Converged-OPLS-2005>
0

> <r_mmod_RMS_Derivative-OPLS-2005>
1.99780166149139

$$$$
53
                    3D
 Structure written by MMmdl.
160168  0  0  1  0            999 V2000
  -30.7500  -14.4674   20.6571 C   0  0  0  0  0  0
  -30.4232  -12.3450   19.4232 C   0  0  0  0  0  0
  -29.4943  -12.5261   18.2100 C   0  0  0  0  0  0
  -28.0193  -12.3669   18.6238 C   0  0  0  0  0  0
  -27.6607  -13.2154   19.8735 C   0  0  2  0  0  0
  -28.7006  -13.0248   21.0017 C   0  0  0  0  0  0
  -25.2597  -13.8195   20.5676 C   0  0  0  0  0  0
  -24.1868  -13.0464   20.9163 C   0  0  0  0  0  0
  -24.6417  -11.6910   20.8714 C   0  0  0  0  0  0
  -23.9101  -10.4303   21.0365 C   0  0  0  0  0  0
  -24.3643   -9.4229   21.9158 C   0  0  0  0  0  0
  -23.6309   -8.2271   22.0743 C   0  0  0  0  0  0
  -22.4288   -8.0310   21.3541 C   0  0  0  0  0  0
  -21.9935   -9.0284   20.4636 C   0  0  0  0  0  0
  -22.7268  -10.2150   20.3033 C   0  0  0  0  0  0
  -21.6870   -6.0762   22.5275 C   0  0  0  0  0  0
  -21.4019   -6.5649   23.8211 C   0  0  0  0  0  0
  -21.3651   -5.6788   24.9171 C   0  0  0  0  0  0
  -21.6034   -4.3057   24.7210 C   0  0  0  0  0  0
  -21.8830   -3.8158   23.4334 C   0  0  0  0  0  0
  -21.9195   -4.6986   22.3391 C   0  0  0  0  0  0
  -22.7891  -13.5243   21.1846 C   0  0  0  0  0  0
  -22.1664   -4.2169   21.0973 F   0  0  0  0  0  0
  -21.5614   -3.4532   25.7720 F   0  0  0  0  0  0
  -30.0356  -13.3242   20.4558 N   0  0  0  0  0  0
  -26.3045  -12.9374   20.3383 N   0  0  0  0  0  0
  -25.9355  -11.6510   20.5764 N   0  0  0  0  0  0
  -22.0530  -12.8236   22.0390 N   0  0  0  0  0  0
  -25.4303  -15.1930   20.4106 N   0  0  0  0  0  0
  -31.8172  -14.6895   20.0797 O   0  0  0  0  0  0
  -21.6651   -6.8907   21.4242 O   0  0  0  0  0  0
  -22.3566  -14.5548   20.6691 O   0  0  0  0  0  0
  -24.6182  -31.8668   23.2130 C   0  0  0  0  0  0
  -25.9093  -32.4807   23.8413 C   0  0  1  0  0  0
  -27.2242  -27.4113   20.1107 C   0  0  0  0  0  0
  -25.5945  -33.8608   24.2329 N   0  0  0  0  0  0
  -23.4036  -30.4971   21.5504 C   0  0  2  0  0  0
  -24.8450  -28.9648   20.1124 C   0  0  0  0  0  0
  -22.7440  -29.4708   22.4989 C   0  0  0  0  0  0
  -18.0290  -28.1340   22.8567 C   0  0  0  0  0  0
  -24.1500  -36.7308   23.2633 C   0  0  0  0  0  0
  -25.9359  -30.8351   21.3622 C   0  0  0  0  0  0
  -26.0085  -29.4692   20.7051 C   0  0  0  0  0  0
  -27.2008  -28.7062   20.6853 C   0  0  0  0  0  0
  -26.0344  -26.9195   19.5260 C   0  0  0  0  0  0
  -24.8586  -27.6942   19.5138 C   0  0  0  0  0  0
  -23.6093  -29.8356   20.1620 C   0  0  0  0  0  0
  -25.4124  -36.3097   24.0328 C   0  0  1  0  0  0
  -20.5874  -28.3715   23.1376 C   0  0  2  0  0  0
  -20.6808  -26.9446   22.5437 C   0  0  0  0  0  0
  -19.5798  -26.6455   21.5197 C   0  0  0  0  0  0
  -18.1993  -26.7888   22.1672 C   0  0  0  0  0  0
  -19.1523  -28.8867   23.2913 C   0  0  0  0  0  0
  -18.9433  -30.1484   23.8915 C   0  0  0  0  0  0
  -17.6426  -30.6597   24.0602 C   0  0  0  0  0  0
  -25.9063  -34.9456   23.5133 C   0  0  0  0  0  0
  -16.5335  -29.9081   23.6369 C   0  0  0  0  0  0
  -16.7276  -28.6454   23.0466 C   0  0  0  0  0  0
  -26.4509  -31.6597   25.0747 C   0  0  0  0  0  0
  -25.3738  -31.3682   26.1460 C   0  0  0  0  0  0
  -27.0332  -30.3033   24.6117 C   0  0  0  0  0  0
  -27.6073  -32.4329   25.7477 C   0  0  0  0  0  0
  -27.5590  -37.1809   24.8475 C   0  0  0  0  0  0
  -21.4155  -29.3083   22.3766 N   0  0  0  0  0  0
  -26.4303  -37.3783   23.9408 N   0  0  0  0  0  0
  -24.6714  -31.0805   22.1004 N   0  0  0  0  0  0
  -23.4206  -28.8267   23.3060 O   0  0  0  0  0  0
  -28.4098  -26.6962   20.1274 O   0  0  0  0  0  0
  -26.5613  -34.8903   22.4696 O   0  0  0  0  0  0
  -23.5385  -32.1416   23.7532 O   0  0  0  0  0  0
  -27.9298  -18.1989   21.8899 C   0  0  0  0  0  0
  -28.4969  -16.9104   22.0069 C   0  0  0  0  0  0
  -30.3879  -17.6331   20.6791 C   0  0  0  0  0  0
  -28.5688  -19.2323   21.1587 C   0  0  0  0  0  0
  -29.8235  -18.9336   20.5545 C   0  0  0  0  0  0
  -29.7237  -16.6015   21.3896 C   0  0  0  0  0  0
  -26.1255  -23.0131   21.1293 C   0  0  0  0  0  0
  -27.4632  -23.1457   21.2213 C   0  0  0  0  0  0
  -30.5916  -19.9743   19.7564 C   0  0  0  0  0  0
  -27.7814  -20.5517   20.9574 C   0  0  0  0  0  0
  -28.4439  -21.9494   21.2079 C   0  0  0  0  0  0
  -28.0426  -24.5580   21.3692 C   0  0  0  0  0  0
  -28.3956  -25.2563   20.0306 C   0  0  0  0  0  0
  -30.3080  -15.3100   21.6134 N   0  0  0  0  0  0
  -31.4607  -12.4620   19.1104 H   0  0  0  0  0  0
  -30.3483  -11.3337   19.8244 H   0  0  0  0  0  0
  -29.7474  -11.7988   17.4385 H   0  0  0  0  0  0
  -29.6520  -13.5128   17.7728 H   0  0  0  0  0  0
  -27.8458  -11.3116   18.8322 H   0  0  0  0  0  0
  -27.3650  -12.6261   17.7915 H   0  0  0  0  0  0
  -27.7002  -14.2617   19.5706 H   0  0  0  0  0  0
  -28.6771  -12.0006   21.3772 H   0  0  0  0  0  0
  -28.4450  -13.6570   21.8527 H   0  0  0  0  0  0
  -25.2793   -9.5710   22.4732 H   0  0  0  0  0  0
  -24.0012   -7.4675   22.7482 H   0  0  0  0  0  0
  -21.0860   -8.8830   19.8949 H   0  0  0  0  0  0
  -22.3741  -10.9705   19.6148 H   0  0  0  0  0  0
  -21.2025   -7.6155   23.9728 H   0  0  0  0  0  0
  -21.1450   -6.0510   25.9070 H   0  0  0  0  0  0
  -22.0613   -2.7624   23.2827 H   0  0  0  0  0  0
  -22.4127  -11.9903   22.4808 H   0  0  0  0  0  0
  -21.1138  -13.1263   22.2543 H   0  0  0  0  0  0
  -24.6630  -15.8463   20.5207 H   0  0  0  0  0  0
  -26.2957  -15.6412   20.1347 H   0  0  0  0  0  0
  -26.7189  -32.5524   23.1189 H   0  0  0  0  0  0
  -25.0065  -33.9771   25.0450 H   0  0  0  0  0  0
  -22.6887  -31.3119   21.4175 H   0  0  0  0  0  0
  -23.3742  -35.9667   23.3322 H   0  0  0  0  0  0
  -24.3573  -36.8908   22.2042 H   0  0  0  0  0  0
  -23.7274  -37.6524   23.6642 H   0  0  0  0  0  0
  -26.0602  -31.6114   20.6052 H   0  0  0  0  0  0
  -26.8172  -30.8753   21.9895 H   0  0  0  0  0  0
  -28.1070  -29.1021   21.1227 H   0  0  0  0  0  0
  -25.9871  -25.9447   19.0644 H   0  0  0  0  0  0
  -23.9632  -27.3108   19.0449 H   0  0  0  0  0  0
  -23.7186  -30.6193   19.4123 H   0  0  0  0  0  0
  -22.7306  -29.2608   19.8598 H   0  0  0  0  0  0
  -25.1299  -36.1940   25.0813 H   0  0  0  0  0  0
  -20.9961  -28.3367   24.1515 H   0  0  0  0  0  0
  -20.5730  -26.2230   23.3559 H   0  0  0  0  0  0
  -21.6699  -26.7567   22.1183 H   0  0  0  0  0  0
  -19.7000  -25.6411   21.1161 H   0  0  0  0  0  0
  -19.6668  -27.3386   20.6816 H   0  0  0  0  0  0
  -18.0374  -25.9953   22.8994 H   0  0  0  0  0  0
  -17.4238  -26.6639   21.4114 H   0  0  0  0  0  0
  -19.7890  -30.7351   24.2270 H   0  0  0  0  0  0
  -17.4941  -31.6275   24.5201 H   0  0  0  0  0  0
  -15.5332  -30.2981   23.7604 H   0  0  0  0  0  0
  -15.8688  -28.0711   22.7263 H   0  0  0  0  0  0
  -24.5920  -30.7048   25.7755 H   0  0  0  0  0  0
  -24.8921  -32.2827   26.4919 H   0  0  0  0  0  0
  -25.8046  -30.8808   27.0216 H   0  0  0  0  0  0
  -26.2880  -29.6778   24.1190 H   0  0  0  0  0  0
  -27.4143  -29.7267   25.4560 H   0  0  0  0  0  0
  -27.8706  -30.4356   23.9257 H   0  0  0  0  0  0
  -27.2700  -33.3616   26.2078 H   0  0  0  0  0  0
  -28.3826  -32.6922   25.0262 H   0  0  0  0  0  0
  -28.0808  -31.8459   26.5345 H   0  0  0  0  0  0
  -28.2617  -38.0095   24.7501 H   0  0  0  0  0  0
  -28.1069  -36.2623   24.6323 H   0  0  0  0  0  0
  -27.2312  -37.1502   25.8879 H   0  0  0  0  0  0
  -20.9302  -29.8907   21.7070 H   0  0  0  0  0  0
  -26.0189  -38.2870   24.1356 H   0  0  0  0  0  0
  -26.9712  -18.3733   22.3634 H   0  0  0  0  0  0
  -27.9831  -16.1566   22.5853 H   0  0  0  0  0  0
  -31.3509  -17.4308   20.2254 H   0  0  0  0  0  0
  -25.6200  -22.0658   21.0337 H   0  0  0  0  0  0
  -25.4893  -23.8870   21.1459 H   0  0  0  0  0  0
  -31.4027  -19.5271   19.1795 H   0  0  0  0  0  0
  -31.0395  -20.7070   20.4280 H   0  0  0  0  0  0
  -29.9433  -20.4919   19.0489 H   0  0  0  0  0  0
  -26.9260  -20.4759   21.6284 H   0  0  0  0  0  0
  -27.3595  -20.5337   19.9527 H   0  0  0  0  0  0
  -28.9612  -21.9421   22.1686 H   0  0  0  0  0  0
  -29.1927  -22.1547   20.4455 H   0  0  0  0  0  0
  -27.2999  -25.1696   21.8810 H   0  0  0  0  0  0
  -28.9053  -24.5427   22.0336 H   0  0  0  0  0  0
  -27.7736  -24.9026   19.2130 H   0  0  0  0  0  0
  -29.3982  -24.9357   19.7619 H   0  0  0  0  0  0
  -30.9977  -15.3500   22.3500 H   0  0  0  0  0  0
  1 25  1  0  0  0
  1 30  2  0  0  0
  1 84  1  0  0  0
  2  3  1  0  0  0
  2 25  1  0  0  0
  2 85  1  0  0  0
  2 86  1  0  0  0
  3  4  1  0  0  0
  3 87  1  0  0  0
  3 88  1  0  0  0
  4  5  1  0  0  0
  4 89  1  0  0  0
  4 90  1  0  0  0
  5  6  1  0  0  0
  5 26  1  0  0  0
  5 91  1  0  0  0
  6 25  1  0  0  0
  6 92  1  0  0  0
  6 93  1  0  0  0
  7  8  2  0  0  0
  7 26  1  0  0  0
  7 29  1  0  0  0
  8  9  1  0  0  0
  8 22  1  0  0  0
  9 10  1  0  0  0
  9 27  2  0  0  0
 10 11  2  0  0  0
 10 15  1  0  0  0
 11 12  1  0  0  0
 11 94  1  0  0  0
 12 13  2  0  0  0
 12 95  1  0  0  0
 13 14  1  0  0  0
 13 31  1  0  0  0
 14 15  2  0  0  0
 14 96  1  0  0  0
 15 97  1  0  0  0
 16 17  2  0  0  0
 16 21  1  0  0  0
 16 31  1  0  0  0
 17 18  1  0  0  0
 17 98  1  0  0  0
 18 19  2  0  0  0
 18 99  1  0  0  0
 19 20  1  0  0  0
 19 24  1  0  0  0
 20 21  2  0  0  0
 20100  1  0  0  0
 21 23  1  0  0  0
 22 28  1  0  0  0
 22 32  2  0  0  0
 26 27  1  0  0  0
 28101  1  0  0  0
 28102  1  0  0  0
 29103  1  0  0  0
 29104  1  0  0  0
 33 34  1  0  0  0
 33 66  1  0  0  0
 33 70  2  0  0  0
 34 36  1  0  0  0
 34 59  1  0  0  0
 34105  1  0  0  0
 35 44  2  0  0  0
 35 45  1  0  0  0
 35 68  1  0  0  0
 36 56  1  0  0  0
 36106  1  0  0  0
 37 39  1  0  0  0
 37 47  1  0  0  0
 37 66  1  0  0  0
 37107  1  0  0  0
 38 43  2  0  0  0
 38 46  1  0  0  0
 38 47  1  0  0  0
 39 64  1  0  0  0
 39 67  2  0  0  0
 40 52  1  0  0  0
 40 53  2  0  0  0
 40 58  1  0  0  0
 41108  1  0  0  0
 41109  1  0  0  0
 41110  1  0  0  0
 41 48  1  0  0  0
 42 43  1  0  0  0
 42 66  1  0  0  0
 42111  1  0  0  0
 42112  1  0  0  0
 43 44  1  0  0  0
 44113  1  0  0  0
 45 46  2  0  0  0
 45114  1  0  0  0
 46115  1  0  0  0
 47116  1  0  0  0
 47117  1  0  0  0
 48 56  1  0  0  0
 48 65  1  0  0  0
 48118  1  0  0  0
 49 50  1  0  0  0
 49 53  1  0  0  0
 49 64  1  0  0  0
 49119  1  0  0  0
 50 51  1  0  0  0
 50120  1  0  0  0
 50121  1  0  0  0
 51 52  1  0  0  0
 51122  1  0  0  0
 51123  1  0  0  0
 52124  1  0  0  0
 52125  1  0  0  0
 53 54  1  0  0  0
 54 55  2  0  0  0
 54126  1  0  0  0
 55 57  1  0  0  0
 55127  1  0  0  0
 56 69  2  0  0  0
 57 58  2  0  0  0
 57128  1  0  0  0
 58129  1  0  0  0
 59 60  1  0  0  0
 59 61  1  0  0  0
 59 62  1  0  0  0
 60130  1  0  0  0
 60131  1  0  0  0
 60132  1  0  0  0
 61133  1  0  0  0
 61134  1  0  0  0
 61135  1  0  0  0
 62136  1  0  0  0
 62137  1  0  0  0
 62138  1  0  0  0
 63 65  1  0  0  0
 63139  1  0  0  0
 63140  1  0  0  0
 63141  1  0  0  0
 64142  1  0  0  0
 65143  1  0  0  0
 68 83  1  0  0  0
 71 72  2  0  0  0
 71 74  1  0  0  0
 71144  1  0  0  0
 72 76  1  0  0  0
 72145  1  0  0  0
 73 75  1  0  0  0
 73 76  2  0  0  0
 73146  1  0  0  0
 74 75  2  0  0  0
 74 80  1  0  0  0
 75 79  1  0  0  0
 76 84  1  0  0  0
 77 78  2  0  0  0
 77147  1  0  0  0
 77148  1  0  0  0
 78 81  1  0  0  0
 78 82  1  0  0  0
 79149  1  0  0  0
 79150  1  0  0  0
 79151  1  0  0  0
 80 81  1  0  0  0
 80152  1  0  0  0
 80153  1  0  0  0
 81154  1  0  0  0
 81155  1  0  0  0
 82 83  1  0  0  0
 82156  1  0  0  0
 82157  1  0  0  0
 83158  1  0  0  0
 83159  1  0  0  0
 84160  1  0  0  0
M  ISO  4   1 100  68 101  83 101  84 100
M  END
> <chiral flag>
0

> <version>
0

> <s_m_source_file>
/data/baiqing/PycharmProjects/Reinvent-master-3.2/result/LINK_invent/BTK/process_docking_weight1_custom_product_contain_oxygen_bond_distance_aromatic_linkinvent_7_9_3/rearranged_h_0133.sdf

> <i_m_source_file_index>
54

> <r_mmod_Potential_Energy-OPLS-2005>
40.4605407714844

> <r_mmod_Stretch_Energy-OPLS-2005>
45.666934967041

> <r_mmod_Bend_Energy-OPLS-2005>
123.463844299316

> <r_mmod_Torsional_Energy-OPLS-2005>
274.273254394531

> <r_mmod_Improper_Torsional_Energy-OPLS-2005>
7.48260641098022

> <r_mmod_Van_der_Waal_Energy-OPLS-2005>
148.072555541992

> <r_mmod_Electrostatic_Energy-OPLS-2005>
-387.156036376953

> <r_mmod_Solvation_Energy-OPLS-2005>
-185.379119873047

> <b_mmod_Minimization_Converged-OPLS-2005>
0

> <r_mmod_RMS_Derivative-OPLS-2005>
4.88796997070312

$$$$
54
                    3D
 Structure written by MMmdl.
162170  0  0  1  0            999 V2000
  -30.6669  -14.4562   20.6263 C   0  0  0  0  0  0
  -30.4349  -12.3143   19.4125 C   0  0  0  0  0  0
  -29.5018  -12.5270   18.2008 C   0  0  0  0  0  0
  -28.0179  -12.3883   18.6027 C   0  0  0  0  0  0
  -27.6670  -13.1987   19.8775 C   0  0  2  0  0  0
  -28.7047  -12.9292   20.9905 C   0  0  0  0  0  0
  -25.2642  -13.8093   20.5715 C   0  0  0  0  0  0
  -24.1872  -13.0385   20.9138 C   0  0  0  0  0  0
  -24.6407  -11.6861   20.8671 C   0  0  0  0  0  0
  -23.9067  -10.4270   21.0350 C   0  0  0  0  0  0
  -24.3621   -9.4205   21.9148 C   0  0  0  0  0  0
  -23.6311   -8.2238   22.0715 C   0  0  0  0  0  0
  -22.4283   -8.0275   21.3525 C   0  0  0  0  0  0
  -21.9916   -9.0239   20.4616 C   0  0  0  0  0  0
  -22.7225  -10.2129   20.3023 C   0  0  0  0  0  0
  -21.6858   -6.0735   22.5287 C   0  0  0  0  0  0
  -21.4019   -6.5647   23.8216 C   0  0  0  0  0  0
  -21.3661   -5.6798   24.9172 C   0  0  0  0  0  0
  -21.6045   -4.3064   24.7223 C   0  0  0  0  0  0
  -21.8816   -3.8157   23.4346 C   0  0  0  0  0  0
  -21.9204   -4.6971   22.3403 C   0  0  0  0  0  0
  -22.7918  -13.5214   21.1846 C   0  0  0  0  0  0
  -22.1672   -4.2171   21.0972 F   0  0  0  0  0  0
  -21.5638   -3.4527   25.7724 F   0  0  0  0  0  0
  -30.0361  -13.2649   20.4576 N   0  0  0  0  0  0
  -26.3061  -12.9271   20.3356 N   0  0  0  0  0  0
  -25.9342  -11.6434   20.5702 N   0  0  0  0  0  0
  -22.0567  -12.8196   22.0398 N   0  0  0  0  0  0
  -25.4364  -15.1810   20.4302 N   0  0  0  0  0  0
  -31.7701  -14.7168   20.1364 O   0  0  0  0  0  0
  -21.6647   -6.8874   21.4242 O   0  0  0  0  0  0
  -22.3629  -14.5559   20.6748 O   0  0  0  0  0  0
  -24.6142  -31.8675   23.2114 C   0  0  0  0  0  0
  -25.9021  -32.4827   23.8400 C   0  0  1  0  0  0
  -27.2340  -27.4416   20.0879 C   0  0  0  0  0  0
  -25.5878  -33.8623   24.2328 N   0  0  0  0  0  0
  -23.4020  -30.4916   21.5517 C   0  0  2  0  0  0
  -24.8452  -28.9599   20.1137 C   0  0  0  0  0  0
  -22.7416  -29.4665   22.5010 C   0  0  0  0  0  0
  -18.0354  -28.1357   22.8598 C   0  0  0  0  0  0
  -24.1494  -36.7330   23.2634 C   0  0  0  0  0  0
  -25.9292  -30.8341   21.3636 C   0  0  0  0  0  0
  -26.0036  -29.4677   20.7138 C   0  0  0  0  0  0
  -27.1952  -28.7125   20.7068 C   0  0  0  0  0  0
  -26.0608  -26.9562   19.4629 C   0  0  0  0  0  0
  -24.8674  -27.6997   19.4916 C   0  0  0  0  0  0
  -23.6072  -29.8234   20.1646 C   0  0  0  0  0  0
  -25.4103  -36.3123   24.0347 C   0  0  1  0  0  0
  -20.5915  -28.3690   23.1417 C   0  0  2  0  0  0
  -20.6855  -26.9437   22.5525 C   0  0  0  0  0  0
  -19.5854  -26.6484   21.5272 C   0  0  0  0  0  0
  -18.2060  -26.7883   22.1791 C   0  0  0  0  0  0
  -19.1581  -28.8861   23.2977 C   0  0  0  0  0  0
  -18.9492  -30.1519   23.8852 C   0  0  0  0  0  0
  -17.6481  -30.6645   24.0478 C   0  0  0  0  0  0
  -25.9033  -34.9488   23.5128 C   0  0  0  0  0  0
  -16.5383  -29.9079   23.6321 C   0  0  0  0  0  0
  -16.7319  -28.6459   23.0407 C   0  0  0  0  0  0
  -26.4466  -31.6604   25.0725 C   0  0  0  0  0  0
  -25.3750  -31.3683   26.1484 C   0  0  0  0  0  0
  -27.0280  -30.3042   24.6093 C   0  0  0  0  0  0
  -27.6043  -32.4323   25.7481 C   0  0  0  0  0  0
  -27.5577  -37.1813   24.8459 C   0  0  0  0  0  0
  -21.4140  -29.3096   22.3838 N   0  0  0  0  0  0
  -26.4291  -37.3800   23.9415 N   0  0  0  0  0  0
  -24.6669  -31.0801   22.1016 N   0  0  0  0  0  0
  -23.4244  -28.8115   23.2939 O   0  0  0  0  0  0
  -28.4220  -26.7434   20.1341 O   0  0  0  0  0  0
  -26.5585  -34.8939   22.4701 O   0  0  0  0  0  0
  -23.5330  -32.1431   23.7518 O   0  0  0  0  0  0
  -26.3796  -19.0503   21.6635 C   0  0  0  0  0  0
  -26.6319  -17.9944   22.5558 C   0  0  0  0  0  0
  -28.5536  -18.6819   20.6346 C   0  0  0  0  0  0
  -27.3432  -19.4092   20.7034 C   0  0  0  0  0  0
  -27.8418  -17.2682   22.4941 C   0  0  0  0  0  0
  -28.8120  -17.5965   21.5071 C   0  0  0  0  0  0
  -28.0401  -16.1576   23.5123 C   0  0  0  0  0  0
  -27.0440  -20.5218   19.7091 C   0  0  0  0  0  0
  -30.1309  -16.8204   21.3575 C   0  0  0  0  0  0
  -26.8540  -21.9299   20.3281 C   0  0  0  0  0  0
  -28.0150  -22.9068   20.0408 C   0  0  0  0  0  0
  -27.7531  -24.3541   20.5165 C   0  0  0  0  0  0
  -28.4931  -25.3999   19.6456 C   0  0  0  0  0  0
  -29.9239  -15.3767   21.2640 N   0  0  0  0  0  0
  -31.4788  -12.4385   19.1171 H   0  0  0  0  0  0
  -30.3544  -11.2947   19.7932 H   0  0  0  0  0  0
  -29.7467  -11.8205   17.4086 H   0  0  0  0  0  0
  -29.6713  -13.5186   17.7787 H   0  0  0  0  0  0
  -27.8062  -11.3300   18.7613 H   0  0  0  0  0  0
  -27.3836  -12.7069   17.7753 H   0  0  0  0  0  0
  -27.7157  -14.2519   19.6009 H   0  0  0  0  0  0
  -28.6876  -11.8755   21.2709 H   0  0  0  0  0  0
  -28.4593  -13.4669   21.9038 H   0  0  0  0  0  0
  -25.2737   -9.5726   22.4732 H   0  0  0  0  0  0
  -24.0033   -7.4633   22.7438 H   0  0  0  0  0  0
  -21.0829   -8.8748   19.8922 H   0  0  0  0  0  0
  -22.3638  -10.9678   19.6171 H   0  0  0  0  0  0
  -21.1998   -7.6148   23.9740 H   0  0  0  0  0  0
  -21.1491   -6.0505   25.9088 H   0  0  0  0  0  0
  -22.0594   -2.7619   23.2819 H   0  0  0  0  0  0
  -22.4216  -11.9887   22.4800 H   0  0  0  0  0  0
  -21.1188  -13.1239   22.2585 H   0  0  0  0  0  0
  -24.6810  -15.8318   20.6038 H   0  0  0  0  0  0
  -26.3144  -15.6414   20.2305 H   0  0  0  0  0  0
  -26.7068  -32.5516   23.1132 H   0  0  0  0  0  0
  -25.0086  -33.9785   25.0503 H   0  0  0  0  0  0
  -22.6905  -31.3079   21.4141 H   0  0  0  0  0  0
  -23.3760  -35.9662   23.3299 H   0  0  0  0  0  0
  -24.3584  -36.8933   22.2049 H   0  0  0  0  0  0
  -23.7253  -37.6542   23.6633 H   0  0  0  0  0  0
  -26.0421  -31.5973   20.5919 H   0  0  0  0  0  0
  -26.8182  -30.8856   21.9804 H   0  0  0  0  0  0
  -28.0863  -29.0934   21.1855 H   0  0  0  0  0  0
  -26.0427  -26.0067   18.9460 H   0  0  0  0  0  0
  -23.9759  -27.3030   19.0233 H   0  0  0  0  0  0
  -23.7148  -30.5993   19.4064 H   0  0  0  0  0  0
  -22.7332  -29.2401   19.8693 H   0  0  0  0  0  0
  -25.1288  -36.1997   25.0841 H   0  0  0  0  0  0
  -21.0007  -28.3197   24.1543 H   0  0  0  0  0  0
  -20.5696  -26.2289   23.3687 H   0  0  0  0  0  0
  -21.6768  -26.7497   22.1438 H   0  0  0  0  0  0
  -19.7039  -25.6427   21.1212 H   0  0  0  0  0  0
  -19.6713  -27.3369   20.6853 H   0  0  0  0  0  0
  -17.4278  -26.6524   21.4293 H   0  0  0  0  0  0
  -18.0684  -26.0057   22.9292 H   0  0  0  0  0  0
  -19.7957  -30.7419   24.2114 H   0  0  0  0  0  0
  -17.5025  -31.6402   24.4934 H   0  0  0  0  0  0
  -15.5374  -30.2949   23.7661 H   0  0  0  0  0  0
  -15.8740  -28.0734   22.7146 H   0  0  0  0  0  0
  -24.5940  -30.6998   25.7832 H   0  0  0  0  0  0
  -24.8939  -32.2832   26.4951 H   0  0  0  0  0  0
  -25.8154  -30.8866   27.0224 H   0  0  0  0  0  0
  -26.2810  -29.6800   24.1173 H   0  0  0  0  0  0
  -27.4050  -29.7288   25.4557 H   0  0  0  0  0  0
  -27.8653  -30.4354   23.9234 H   0  0  0  0  0  0
  -27.2662  -33.3600   26.2107 H   0  0  0  0  0  0
  -28.3837  -32.6907   25.0298 H   0  0  0  0  0  0
  -28.0724  -31.8416   26.5361 H   0  0  0  0  0  0
  -28.2606  -38.0098   24.7515 H   0  0  0  0  0  0
  -28.1067  -36.2639   24.6284 H   0  0  0  0  0  0
  -27.2298  -37.1472   25.8858 H   0  0  0  0  0  0
  -20.9242  -29.8918   21.7177 H   0  0  0  0  0  0
  -26.0192  -38.2892   24.1384 H   0  0  0  0  0  0
  -25.4336  -19.5742   21.7093 H   0  0  0  0  0  0
  -25.8764  -17.7432   23.2906 H   0  0  0  0  0  0
  -29.2803  -18.9523   19.8823 H   0  0  0  0  0  0
  -29.0842  -16.0332   23.7938 H   0  0  0  0  0  0
  -27.6659  -15.2129   23.1192 H   0  0  0  0  0  0
  -27.4967  -16.3688   24.4325 H   0  0  0  0  0  0
  -26.1247  -20.2321   19.1948 H   0  0  0  0  0  0
  -27.8119  -20.5460   18.9358 H   0  0  0  0  0  0
  -30.7731  -17.0499   22.2085 H   0  0  0  0  0  0
  -30.6655  -17.1681   20.4703 H   0  0  0  0  0  0
  -26.6347  -21.8723   21.3956 H   0  0  0  0  0  0
  -25.9589  -22.3597   19.8750 H   0  0  0  0  0  0
  -28.1937  -22.9259   18.9636 H   0  0  0  0  0  0
  -28.9359  -22.5372   20.4947 H   0  0  0  0  0  0
  -28.0481  -24.4555   21.5619 H   0  0  0  0  0  0
  -26.6833  -24.5450   20.5043 H   0  0  0  0  0  0
  -28.1586  -25.3545   18.6098 H   0  0  0  0  0  0
  -29.5523  -25.1379   19.6165 H   0  0  0  0  0  0
  -29.0313  -15.0583   21.6078 H   0  0  0  0  0  0
  1 25  1  0  0  0
  1 30  2  0  0  0
  1 84  1  0  0  0
  2  3  1  0  0  0
  2 25  1  0  0  0
  2 85  1  0  0  0
  2 86  1  0  0  0
  3  4  1  0  0  0
  3 87  1  0  0  0
  3 88  1  0  0  0
  4  5  1  0  0  0
  4 89  1  0  0  0
  4 90  1  0  0  0
  5  6  1  0  0  0
  5 26  1  0  0  0
  5 91  1  0  0  0
  6 25  1  0  0  0
  6 92  1  0  0  0
  6 93  1  0  0  0
  7  8  2  0  0  0
  7 26  1  0  0  0
  7 29  1  0  0  0
  8  9  1  0  0  0
  8 22  1  0  0  0
  9 10  1  0  0  0
  9 27  2  0  0  0
 10 11  2  0  0  0
 10 15  1  0  0  0
 11 12  1  0  0  0
 11 94  1  0  0  0
 12 13  2  0  0  0
 12 95  1  0  0  0
 13 14  1  0  0  0
 13 31  1  0  0  0
 14 15  2  0  0  0
 14 96  1  0  0  0
 15 97  1  0  0  0
 16 17  2  0  0  0
 16 21  1  0  0  0
 16 31  1  0  0  0
 17 18  1  0  0  0
 17 98  1  0  0  0
 18 19  2  0  0  0
 18 99  1  0  0  0
 19 20  1  0  0  0
 19 24  1  0  0  0
 20 21  2  0  0  0
 20100  1  0  0  0
 21 23  1  0  0  0
 22 28  1  0  0  0
 22 32  2  0  0  0
 26 27  1  0  0  0
 28101  1  0  0  0
 28102  1  0  0  0
 29103  1  0  0  0
 29104  1  0  0  0
 33 34  1  0  0  0
 33 66  1  0  0  0
 33 70  2  0  0  0
 34 36  1  0  0  0
 34 59  1  0  0  0
 34105  1  0  0  0
 35 44  2  0  0  0
 35 45  1  0  0  0
 35 68  1  0  0  0
 36 56  1  0  0  0
 36106  1  0  0  0
 37 39  1  0  0  0
 37 47  1  0  0  0
 37 66  1  0  0  0
 37107  1  0  0  0
 38 43  2  0  0  0
 38 46  1  0  0  0
 38 47  1  0  0  0
 39 64  1  0  0  0
 39 67  2  0  0  0
 40 52  1  0  0  0
 40 53  2  0  0  0
 40 58  1  0  0  0
 41108  1  0  0  0
 41109  1  0  0  0
 41110  1  0  0  0
 41 48  1  0  0  0
 42 43  1  0  0  0
 42 66  1  0  0  0
 42111  1  0  0  0
 42112  1  0  0  0
 43 44  1  0  0  0
 44113  1  0  0  0
 45 46  2  0  0  0
 45114  1  0  0  0
 46115  1  0  0  0
 47116  1  0  0  0
 47117  1  0  0  0
 48 56  1  0  0  0
 48 65  1  0  0  0
 48118  1  0  0  0
 49 50  1  0  0  0
 49 53  1  0  0  0
 49 64  1  0  0  0
 49119  1  0  0  0
 50 51  1  0  0  0
 50120  1  0  0  0
 50121  1  0  0  0
 51 52  1  0  0  0
 51122  1  0  0  0
 51123  1  0  0  0
 52124  1  0  0  0
 52125  1  0  0  0
 53 54  1  0  0  0
 54 55  2  0  0  0
 54126  1  0  0  0
 55 57  1  0  0  0
 55127  1  0  0  0
 56 69  2  0  0  0
 57 58  2  0  0  0
 57128  1  0  0  0
 58129  1  0  0  0
 59 60  1  0  0  0
 59 61  1  0  0  0
 59 62  1  0  0  0
 60130  1  0  0  0
 60131  1  0  0  0
 60132  1  0  0  0
 61133  1  0  0  0
 61134  1  0  0  0
 61135  1  0  0  0
 62136  1  0  0  0
 62137  1  0  0  0
 62138  1  0  0  0
 63 65  1  0  0  0
 63139  1  0  0  0
 63140  1  0  0  0
 63141  1  0  0  0
 64142  1  0  0  0
 65143  1  0  0  0
 68 83  1  0  0  0
 71 72  2  0  0  0
 71 74  1  0  0  0
 71144  1  0  0  0
 72 75  1  0  0  0
 72145  1  0  0  0
 73 74  2  0  0  0
 73 76  1  0  0  0
 73146  1  0  0  0
 74 78  1  0  0  0
 75 76  2  0  0  0
 75 77  1  0  0  0
 76 79  1  0  0  0
 77147  1  0  0  0
 77148  1  0  0  0
 77149  1  0  0  0
 78 80  1  0  0  0
 78150  1  0  0  0
 78151  1  0  0  0
 79 84  1  0  0  0
 79152  1  0  0  0
 79153  1  0  0  0
 80 81  1  0  0  0
 80154  1  0  0  0
 80155  1  0  0  0
 81 82  1  0  0  0
 81156  1  0  0  0
 81157  1  0  0  0
 82 83  1  0  0  0
 82158  1  0  0  0
 82159  1  0  0  0
 83160  1  0  0  0
 83161  1  0  0  0
 84162  1  0  0  0
M  ISO  4   1 100  68 101  83 101  84 100
M  END
> <chiral flag>
0

> <version>
0

> <s_m_source_file>
/data/baiqing/PycharmProjects/Reinvent-master-3.2/result/LINK_invent/BTK/process_docking_weight1_custom_product_contain_oxygen_bond_distance_aromatic_linkinvent_7_9_3/rearranged_h_0133.sdf

> <i_m_source_file_index>
55

> <r_mmod_Potential_Energy-OPLS-2005>
-98.0926361083984

> <r_mmod_Stretch_Energy-OPLS-2005>
34.81103515625

> <r_mmod_Bend_Energy-OPLS-2005>
101.196868896484

> <r_mmod_Torsional_Energy-OPLS-2005>
202.434036254883

> <r_mmod_Improper_Torsional_Energy-OPLS-2005>
3.32646703720093

> <r_mmod_Van_der_Waal_Energy-OPLS-2005>
150.127944946289

> <r_mmod_Electrostatic_Energy-OPLS-2005>
-411.20703125

> <r_mmod_Solvation_Energy-OPLS-2005>
-191.539611816406

> <b_mmod_Minimization_Converged-OPLS-2005>
0

> <r_mmod_RMS_Derivative-OPLS-2005>
4.686110496521

$$$$
55
                    3D
 Structure written by MMmdl.
165173  0  0  1  0            999 V2000
  -30.7380  -14.4291   20.5565 C   0  0  0  0  0  0
  -30.4069  -12.2847   19.4101 C   0  0  0  0  0  0
  -29.4892  -12.5242   18.1953 C   0  0  0  0  0  0
  -28.0078  -12.4017   18.6047 C   0  0  0  0  0  0
  -27.6626  -13.2193   19.8803 C   0  0  2  0  0  0
  -28.7070  -12.9909   20.9963 C   0  0  0  0  0  0
  -25.2547  -13.8173   20.5662 C   0  0  0  0  0  0
  -24.1808  -13.0423   20.9167 C   0  0  0  0  0  0
  -24.6391  -11.6910   20.8705 C   0  0  0  0  0  0
  -23.9067  -10.4289   21.0383 C   0  0  0  0  0  0
  -24.3627   -9.4211   21.9171 C   0  0  0  0  0  0
  -23.6290   -8.2255   22.0743 C   0  0  0  0  0  0
  -22.4262   -8.0298   21.3540 C   0  0  0  0  0  0
  -21.9891   -9.0265   20.4628 C   0  0  0  0  0  0
  -22.7225  -10.2143   20.3042 C   0  0  0  0  0  0
  -21.6855   -6.0734   22.5283 C   0  0  0  0  0  0
  -21.4008   -6.5630   23.8208 C   0  0  0  0  0  0
  -21.3656   -5.6791   24.9180 C   0  0  0  0  0  0
  -21.6057   -4.3054   24.7223 C   0  0  0  0  0  0
  -21.8813   -3.8143   23.4336 C   0  0  0  0  0  0
  -21.9180   -4.6966   22.3391 C   0  0  0  0  0  0
  -22.7824  -13.5236   21.1828 C   0  0  0  0  0  0
  -22.1647   -4.2130   21.0973 F   0  0  0  0  0  0
  -21.5644   -3.4528   25.7731 F   0  0  0  0  0  0
  -30.0392  -13.2703   20.4392 N   0  0  0  0  0  0
  -26.3023  -12.9372   20.3393 N   0  0  0  0  0  0
  -25.9335  -11.6504   20.5754 N   0  0  0  0  0  0
  -22.0467  -12.8251   22.0410 N   0  0  0  0  0  0
  -25.4209  -15.1891   20.4088 N   0  0  0  0  0  0
  -31.8624  -14.5807   20.0737 O   0  0  0  0  0  0
  -21.6633   -6.8892   21.4240 O   0  0  0  0  0  0
  -22.3499  -14.5525   20.6672 O   0  0  0  0  0  0
  -24.6118  -31.8673   23.2044 C   0  0  0  0  0  0
  -25.9018  -32.4820   23.8355 C   0  0  1  0  0  0
  -27.2633  -27.4607   20.1011 C   0  0  0  0  0  0
  -25.5885  -33.8603   24.2301 N   0  0  0  0  0  0
  -23.3975  -30.4851   21.5428 C   0  0  2  0  0  0
  -24.8490  -28.9392   20.1207 C   0  0  0  0  0  0
  -22.7377  -29.4652   22.4977 C   0  0  0  0  0  0
  -18.0295  -28.1376   22.8510 C   0  0  0  0  0  0
  -24.1483  -36.7302   23.2638 C   0  0  0  0  0  0
  -25.9180  -30.8465   21.3426 C   0  0  0  0  0  0
  -26.0020  -29.4762   20.7022 C   0  0  0  0  0  0
  -27.2065  -28.7447   20.6843 C   0  0  0  0  0  0
  -26.0906  -26.9229   19.5259 C   0  0  0  0  0  0
  -24.8865  -27.6590   19.5322 C   0  0  0  0  0  0
  -23.6049  -29.7962   20.1639 C   0  0  0  0  0  0
  -25.4106  -36.3096   24.0341 C   0  0  1  0  0  0
  -20.5873  -28.3668   23.1318 C   0  0  2  0  0  0
  -20.6767  -26.9405   22.5416 C   0  0  0  0  0  0
  -19.5741  -26.6389   21.5223 C   0  0  0  0  0  0
  -18.1924  -26.7930   22.1641 C   0  0  0  0  0  0
  -19.1543  -28.8840   23.2917 C   0  0  0  0  0  0
  -18.9465  -30.1444   23.8934 C   0  0  0  0  0  0
  -17.6466  -30.6576   24.0574 C   0  0  0  0  0  0
  -25.9037  -34.9462   23.5115 C   0  0  0  0  0  0
  -16.5357  -29.9077   23.6316 C   0  0  0  0  0  0
  -16.7286  -28.6493   23.0349 C   0  0  0  0  0  0
  -26.4481  -31.6587   25.0664 C   0  0  0  0  0  0
  -25.3781  -31.3685   26.1438 C   0  0  0  0  0  0
  -27.0289  -30.3041   24.5982 C   0  0  0  0  0  0
  -27.6062  -32.4301   25.7424 C   0  0  0  0  0  0
  -27.5590  -37.1796   24.8477 C   0  0  0  0  0  0
  -21.4123  -29.3031   22.3709 N   0  0  0  0  0  0
  -26.4300  -37.3775   23.9424 N   0  0  0  0  0  0
  -24.6613  -31.0807   22.0912 N   0  0  0  0  0  0
  -23.4173  -28.8220   23.3024 O   0  0  0  0  0  0
  -28.4846  -26.8243   20.1051 O   0  0  0  0  0  0
  -26.5574  -34.8928   22.4670 O   0  0  0  0  0  0
  -23.5326  -32.1366   23.7496 O   0  0  0  0  0  0
  -27.5634  -19.0173   20.5291 C   0  0  0  0  0  0
  -27.8303  -20.1082   21.3700 C   0  0  0  0  0  0
  -28.4689  -17.9520   20.4648 C   0  0  0  0  0  0
  -28.9918  -20.1490   22.1774 C   0  0  0  0  0  0
  -29.6478  -17.9651   21.2348 C   0  0  0  0  0  0
  -29.9139  -19.0538   22.1221 C   0  0  0  0  0  0
  -31.1386  -18.0116   24.1219 C   0  0  0  0  0  0
  -29.2260  -21.3605   23.1007 C   0  0  0  0  0  0
  -31.1881  -19.0373   22.9805 C   0  0  0  0  0  0
  -30.6413  -16.8333   20.9793 C   0  0  0  0  0  0
  -28.3955  -22.6398   22.8307 C   0  0  0  0  0  0
  -28.7772  -23.3379   21.5081 C   0  0  0  0  0  0
  -28.0646  -24.6809   21.2585 C   0  0  0  0  0  0
  -28.5961  -25.4080   20.0028 C   0  0  0  0  0  0
  -30.0896  -15.4774   21.0830 N   0  0  0  0  0  0
  -31.4549  -12.3496   19.1147 H   0  0  0  0  0  0
  -30.2760  -11.2719   19.7924 H   0  0  0  0  0  0
  -29.7190  -11.8157   17.3981 H   0  0  0  0  0  0
  -29.6799  -13.5172   17.7865 H   0  0  0  0  0  0
  -27.8034  -11.3445   18.7736 H   0  0  0  0  0  0
  -27.3661  -12.7111   17.7766 H   0  0  0  0  0  0
  -27.7068  -14.2732   19.6016 H   0  0  0  0  0  0
  -28.6680  -11.9558   21.3381 H   0  0  0  0  0  0
  -28.4857  -13.5998   21.8731 H   0  0  0  0  0  0
  -25.2782   -9.5681   22.4744 H   0  0  0  0  0  0
  -23.9969   -7.4647   22.7475 H   0  0  0  0  0  0
  -21.0809   -8.8802   19.8941 H   0  0  0  0  0  0
  -22.3688  -10.9687   19.6146 H   0  0  0  0  0  0
  -21.2014   -7.6136   23.9702 H   0  0  0  0  0  0
  -21.1476   -6.0527   25.9084 H   0  0  0  0  0  0
  -22.0591   -2.7593   23.2848 H   0  0  0  0  0  0
  -22.4065  -11.9937   22.4831 H   0  0  0  0  0  0
  -21.1073  -13.1263   22.2581 H   0  0  0  0  0  0
  -24.6554  -15.8424   20.5348 H   0  0  0  0  0  0
  -26.2858  -15.6386   20.1386 H   0  0  0  0  0  0
  -26.7088  -32.5574   23.1134 H   0  0  0  0  0  0
  -25.0087  -33.9748   25.0490 H   0  0  0  0  0  0
  -22.6914  -31.3050   21.3946 H   0  0  0  0  0  0
  -23.3729  -35.9655   23.3311 H   0  0  0  0  0  0
  -24.3575  -36.8918   22.2055 H   0  0  0  0  0  0
  -23.7280  -37.6537   23.6623 H   0  0  0  0  0  0
  -26.0017  -31.6033   20.5607 H   0  0  0  0  0  0
  -26.8175  -30.9190   21.9433 H   0  0  0  0  0  0
  -28.1031  -29.1596   21.1234 H   0  0  0  0  0  0
  -26.1021  -25.9439   19.0696 H   0  0  0  0  0  0
  -23.9977  -27.2306   19.0879 H   0  0  0  0  0  0
  -23.7026  -30.5568   19.3897 H   0  0  0  0  0  0
  -22.7353  -29.2022   19.8749 H   0  0  0  0  0  0
  -25.1286  -36.1939   25.0837 H   0  0  0  0  0  0
  -21.0019  -28.3234   24.1413 H   0  0  0  0  0  0
  -20.5672  -26.2280   23.3598 H   0  0  0  0  0  0
  -21.6631  -26.7427   22.1207 H   0  0  0  0  0  0
  -19.6884  -25.6309   21.1218 H   0  0  0  0  0  0
  -19.6667  -27.3233   20.6772 H   0  0  0  0  0  0
  -17.4196  -26.6744   21.4018 H   0  0  0  0  0  0
  -18.0292  -26.0043   22.9002 H   0  0  0  0  0  0
  -19.7942  -30.7259   24.2311 H   0  0  0  0  0  0
  -17.5017  -31.6260   24.5183 H   0  0  0  0  0  0
  -15.5356  -30.3002   23.7596 H   0  0  0  0  0  0
  -15.8692  -28.0817   22.7042 H   0  0  0  0  0  0
  -24.5963  -30.7014   25.7797 H   0  0  0  0  0  0
  -24.8959  -32.2831   26.4885 H   0  0  0  0  0  0
  -25.8186  -30.8881   27.0181 H   0  0  0  0  0  0
  -26.2768  -29.6805   24.1124 H   0  0  0  0  0  0
  -27.4203  -29.7289   25.4389 H   0  0  0  0  0  0
  -27.8524  -30.4395   23.8961 H   0  0  0  0  0  0
  -27.2674  -33.3587   26.2018 H   0  0  0  0  0  0
  -28.3836  -32.6905   25.0225 H   0  0  0  0  0  0
  -28.0733  -31.8405   26.5329 H   0  0  0  0  0  0
  -28.2601  -38.0084   24.7486 H   0  0  0  0  0  0
  -28.1079  -36.2621   24.6315 H   0  0  0  0  0  0
  -27.2289  -37.1472   25.8871 H   0  0  0  0  0  0
  -20.9284  -29.8754   21.6928 H   0  0  0  0  0  0
  -26.0178  -38.2859   24.1419 H   0  0  0  0  0  0
  -26.6674  -19.0078   19.9220 H   0  0  0  0  0  0
  -27.1150  -20.9151   21.3653 H   0  0  0  0  0  0
  -28.2644  -17.1323   19.7892 H   0  0  0  0  0  0
  -32.0495  -18.0495   24.7212 H   0  0  0  0  0  0
  -31.0311  -16.9897   23.7595 H   0  0  0  0  0  0
  -30.2998  -18.2140   24.7876 H   0  0  0  0  0  0
  -30.2675  -21.6715   23.0485 H   0  0  0  0  0  0
  -29.0599  -21.0364   24.1275 H   0  0  0  0  0  0
  -31.4064  -20.0002   23.4285 H   0  0  0  0  0  0
  -32.0544  -18.8521   22.3436 H   0  0  0  0  0  0
  -31.5534  -16.8950   21.5670 H   0  0  0  0  0  0
  -30.9712  -16.9921   19.9493 H   0  0  0  0  0  0
  -27.3254  -22.4372   22.8858 H   0  0  0  0  0  0
  -28.5921  -23.3314   23.6525 H   0  0  0  0  0  0
  -28.5910  -22.6761   20.6648 H   0  0  0  0  0  0
  -29.8539  -23.5105   21.5185 H   0  0  0  0  0  0
  -28.2002  -25.3196   22.1314 H   0  0  0  0  0  0
  -26.9905  -24.5253   21.1588 H   0  0  0  0  0  0
  -28.1657  -25.0158   19.0819 H   0  0  0  0  0  0
  -29.6703  -25.2228   19.9216 H   0  0  0  0  0  0
  -29.1705  -15.3452   21.4775 H   0  0  0  0  0  0
  1 25  1  0  0  0
  1 30  2  0  0  0
  1 85  1  0  0  0
  2  3  1  0  0  0
  2 25  1  0  0  0
  2 86  1  0  0  0
  2 87  1  0  0  0
  3  4  1  0  0  0
  3 88  1  0  0  0
  3 89  1  0  0  0
  4  5  1  0  0  0
  4 90  1  0  0  0
  4 91  1  0  0  0
  5  6  1  0  0  0
  5 26  1  0  0  0
  5 92  1  0  0  0
  6 25  1  0  0  0
  6 93  1  0  0  0
  6 94  1  0  0  0
  7  8  2  0  0  0
  7 26  1  0  0  0
  7 29  1  0  0  0
  8  9  1  0  0  0
  8 22  1  0  0  0
  9 10  1  0  0  0
  9 27  2  0  0  0
 10 11  2  0  0  0
 10 15  1  0  0  0
 11 12  1  0  0  0
 11 95  1  0  0  0
 12 13  2  0  0  0
 12 96  1  0  0  0
 13 14  1  0  0  0
 13 31  1  0  0  0
 14 15  2  0  0  0
 14 97  1  0  0  0
 15 98  1  0  0  0
 16 17  2  0  0  0
 16 21  1  0  0  0
 16 31  1  0  0  0
 17 18  1  0  0  0
 17 99  1  0  0  0
 18 19  2  0  0  0
 18100  1  0  0  0
 19 20  1  0  0  0
 19 24  1  0  0  0
 20 21  2  0  0  0
 20101  1  0  0  0
 21 23  1  0  0  0
 22 28  1  0  0  0
 22 32  2  0  0  0
 26 27  1  0  0  0
 28102  1  0  0  0
 28103  1  0  0  0
 29104  1  0  0  0
 29105  1  0  0  0
 33 34  1  0  0  0
 33 66  1  0  0  0
 33 70  2  0  0  0
 34 36  1  0  0  0
 34 59  1  0  0  0
 34106  1  0  0  0
 35 44  2  0  0  0
 35 45  1  0  0  0
 35 68  1  0  0  0
 36 56  1  0  0  0
 36107  1  0  0  0
 37 39  1  0  0  0
 37 47  1  0  0  0
 37 66  1  0  0  0
 37108  1  0  0  0
 38 43  2  0  0  0
 38 46  1  0  0  0
 38 47  1  0  0  0
 39 64  1  0  0  0
 39 67  2  0  0  0
 40 52  1  0  0  0
 40 53  2  0  0  0
 40 58  1  0  0  0
 41109  1  0  0  0
 41110  1  0  0  0
 41111  1  0  0  0
 41 48  1  0  0  0
 42 43  1  0  0  0
 42 66  1  0  0  0
 42112  1  0  0  0
 42113  1  0  0  0
 43 44  1  0  0  0
 44114  1  0  0  0
 45 46  2  0  0  0
 45115  1  0  0  0
 46116  1  0  0  0
 47117  1  0  0  0
 47118  1  0  0  0
 48 56  1  0  0  0
 48 65  1  0  0  0
 48119  1  0  0  0
 49 50  1  0  0  0
 49 53  1  0  0  0
 49 64  1  0  0  0
 49120  1  0  0  0
 50 51  1  0  0  0
 50121  1  0  0  0
 50122  1  0  0  0
 51 52  1  0  0  0
 51123  1  0  0  0
 51124  1  0  0  0
 52125  1  0  0  0
 52126  1  0  0  0
 53 54  1  0  0  0
 54 55  2  0  0  0
 54127  1  0  0  0
 55 57  1  0  0  0
 55128  1  0  0  0
 56 69  2  0  0  0
 57 58  2  0  0  0
 57129  1  0  0  0
 58130  1  0  0  0
 59 60  1  0  0  0
 59 61  1  0  0  0
 59 62  1  0  0  0
 60131  1  0  0  0
 60132  1  0  0  0
 60133  1  0  0  0
 61134  1  0  0  0
 61135  1  0  0  0
 61136  1  0  0  0
 62137  1  0  0  0
 62138  1  0  0  0
 62139  1  0  0  0
 63 65  1  0  0  0
 63140  1  0  0  0
 63141  1  0  0  0
 63142  1  0  0  0
 64143  1  0  0  0
 65144  1  0  0  0
 68 84  1  0  0  0
 71 72  2  0  0  0
 71 73  1  0  0  0
 71145  1  0  0  0
 72 74  1  0  0  0
 72146  1  0  0  0
 73 75  2  0  0  0
 73147  1  0  0  0
 74 76  2  0  0  0
 74 78  1  0  0  0
 75 76  1  0  0  0
 75 80  1  0  0  0
 76 79  1  0  0  0
 77 79  1  0  0  0
 77148  1  0  0  0
 77149  1  0  0  0
 77150  1  0  0  0
 78 81  1  0  0  0
 78151  1  0  0  0
 78152  1  0  0  0
 79153  1  0  0  0
 79154  1  0  0  0
 80 85  1  0  0  0
 80155  1  0  0  0
 80156  1  0  0  0
 81 82  1  0  0  0
 81157  1  0  0  0
 81158  1  0  0  0
 82 83  1  0  0  0
 82159  1  0  0  0
 82160  1  0  0  0
 83 84  1  0  0  0
 83161  1  0  0  0
 83162  1  0  0  0
 84163  1  0  0  0
 84164  1  0  0  0
 85165  1  0  0  0
M  ISO  4   1 100  68 101  84 101  85 100
M  END
> <chiral flag>
0

> <version>
0

> <s_m_source_file>
/data/baiqing/PycharmProjects/Reinvent-master-3.2/result/LINK_invent/BTK/process_docking_weight1_custom_product_contain_oxygen_bond_distance_aromatic_linkinvent_7_9_3/rearranged_h_0133.sdf

> <i_m_source_file_index>
56

> <r_mmod_Potential_Energy-OPLS-2005>
-84.328857421875

> <r_mmod_Stretch_Energy-OPLS-2005>
38.778205871582

> <r_mmod_Bend_Energy-OPLS-2005>
112.953231811523

> <r_mmod_Torsional_Energy-OPLS-2005>
200.566818237305

> <r_mmod_Improper_Torsional_Energy-OPLS-2005>
3.83225202560425

> <r_mmod_Van_der_Waal_Energy-OPLS-2005>
159.769790649414

> <r_mmod_Electrostatic_Energy-OPLS-2005>
-419.634552001953

> <r_mmod_Solvation_Energy-OPLS-2005>
-193.168395996094

> <b_mmod_Minimization_Converged-OPLS-2005>
0

> <r_mmod_RMS_Derivative-OPLS-2005>
4.65627813339233

$$$$
56
                    3D
 Structure written by MMmdl.
170178  0  0  1  0            999 V2000
  -30.7127  -14.4239   20.6751 C   0  0  0  0  0  0
  -30.4007  -12.3211   19.3954 C   0  0  0  0  0  0
  -29.4842  -12.5789   18.1843 C   0  0  0  0  0  0
  -27.9958  -12.4636   18.5771 C   0  0  0  0  0  0
  -27.6566  -13.2272   19.8870 C   0  0  2  0  0  0
  -28.6948  -12.9372   20.9895 C   0  0  0  0  0  0
  -25.2526  -13.8260   20.5687 C   0  0  0  0  0  0
  -24.1804  -13.0453   20.9162 C   0  0  0  0  0  0
  -24.6411  -11.6956   20.8702 C   0  0  0  0  0  0
  -23.9112  -10.4317   21.0383 C   0  0  0  0  0  0
  -24.3666   -9.4230   21.9151 C   0  0  0  0  0  0
  -23.6320   -8.2267   22.0729 C   0  0  0  0  0  0
  -22.4273   -8.0333   21.3550 C   0  0  0  0  0  0
  -21.9949   -9.0305   20.4636 C   0  0  0  0  0  0
  -22.7311  -10.2163   20.3027 C   0  0  0  0  0  0
  -21.6865   -6.0775   22.5296 C   0  0  0  0  0  0
  -21.4044   -6.5661   23.8243 C   0  0  0  0  0  0
  -21.3641   -5.6790   24.9176 C   0  0  0  0  0  0
  -21.6007   -4.3059   24.7221 C   0  0  0  0  0  0
  -21.8825   -3.8173   23.4346 C   0  0  0  0  0  0
  -21.9191   -4.6993   22.3404 C   0  0  0  0  0  0
  -22.7830  -13.5232   21.1821 C   0  0  0  0  0  0
  -22.1649   -4.2184   21.0982 F   0  0  0  0  0  0
  -21.5579   -3.4538   25.7728 F   0  0  0  0  0  0
  -30.0227  -13.2678   20.4569 N   0  0  0  0  0  0
  -26.2982  -12.9433   20.3388 N   0  0  0  0  0  0
  -25.9330  -11.6579   20.5710 N   0  0  0  0  0  0
  -22.0506  -12.8183   22.0420 N   0  0  0  0  0  0
  -25.4175  -15.1983   20.4201 N   0  0  0  0  0  0
  -31.7511  -14.6703   20.0518 O   0  0  0  0  0  0
  -21.6634   -6.8935   21.4264 O   0  0  0  0  0  0
  -22.3496  -14.5519   20.6692 O   0  0  0  0  0  0
  -24.6164  -31.8780   23.2146 C   0  0  0  0  0  0
  -25.9061  -32.4846   23.8442 C   0  0  1  0  0  0
  -27.2230  -27.4583   20.0815 C   0  0  0  0  0  0
  -25.5942  -33.8674   24.2380 N   0  0  0  0  0  0
  -23.3997  -30.5024   21.5652 C   0  0  2  0  0  0
  -24.8407  -28.9881   20.1185 C   0  0  0  0  0  0
  -22.7416  -29.4699   22.5135 C   0  0  0  0  0  0
  -18.0260  -28.1378   22.8559 C   0  0  0  0  0  0
  -24.1548  -36.7342   23.2609 C   0  0  0  0  0  0
  -25.9254  -30.8484   21.3641 C   0  0  0  0  0  0
  -26.0028  -29.4901   20.7121 C   0  0  0  0  0  0
  -27.1939  -28.7301   20.7037 C   0  0  0  0  0  0
  -26.0333  -26.9867   19.4762 C   0  0  0  0  0  0
  -24.8462  -27.7293   19.5069 C   0  0  0  0  0  0
  -23.6023  -29.8473   20.1763 C   0  0  0  0  0  0
  -25.4146  -36.3146   24.0332 C   0  0  1  0  0  0
  -20.5888  -28.3452   23.1141 C   0  0  2  0  0  0
  -20.6761  -26.9463   22.4576 C   0  0  0  0  0  0
  -19.5415  -26.6892   21.4669 C   0  0  0  0  0  0
  -18.1905  -26.7951   22.1711 C   0  0  0  0  0  0
  -19.1585  -28.8711   23.2957 C   0  0  0  0  0  0
  -18.9621  -30.1266   23.9072 C   0  0  0  0  0  0
  -17.6650  -30.6438   24.0840 C   0  0  0  0  0  0
  -25.9033  -34.9504   23.5141 C   0  0  0  0  0  0
  -16.5438  -29.9137   23.6547 C   0  0  0  0  0  0
  -16.7273  -28.6578   23.0483 C   0  0  0  0  0  0
  -26.4462  -31.6591   25.0762 C   0  0  0  0  0  0
  -25.3668  -31.3759   26.1467 C   0  0  0  0  0  0
  -27.0206  -30.3015   24.6074 C   0  0  0  0  0  0
  -27.6077  -32.4258   25.7509 C   0  0  0  0  0  0
  -27.5611  -37.1836   24.8427 C   0  0  0  0  0  0
  -21.4168  -29.3006   22.3796 N   0  0  0  0  0  0
  -26.4351  -37.3821   23.9340 N   0  0  0  0  0  0
  -24.6659  -31.0894   22.1059 N   0  0  0  0  0  0
  -23.4237  -28.8301   23.3148 O   0  0  0  0  0  0
  -28.3974  -26.7289   20.0872 O   0  0  0  0  0  0
  -26.5582  -34.8963   22.4680 O   0  0  0  0  0  0
  -23.5331  -32.1626   23.7444 O   0  0  0  0  0  0
  -28.6753  -17.1223   19.5984 C   0  0  0  0  0  0
  -29.2665  -19.1169   20.8206 C   0  0  0  0  0  0
  -29.4404  -17.7324   20.6072 C   0  0  0  0  0  0
  -27.8125  -17.8743   18.7673 C   0  0  0  0  0  0
  -27.6387  -19.2765   18.9871 C   0  0  0  0  0  0
  -28.3433  -19.8843   20.0729 C   0  0  0  0  0  0
  -27.1625  -17.1348   17.6003 C   0  0  0  0  0  0
  -27.5003  -20.7973   16.8716 C   0  0  0  0  0  0
  -25.5550  -23.5083   19.4734 C   0  0  0  0  0  0
  -30.5066  -16.9607   21.4059 C   0  0  0  0  0  0
  -26.7591  -20.1170   18.0390 C   0  0  0  0  0  0
  -30.2312  -15.4593   21.7285 C   0  0  0  0  0  0
  -27.7124  -24.3813   20.5799 C   0  0  0  0  0  0
  -28.3678  -25.3816   19.5884 C   0  0  0  0  0  0
  -27.1052  -21.8715   20.7572 C   0  0  0  0  0  0
  -26.9972  -23.1688   19.9093 C   0  0  1  0  0  0
  -28.3279  -21.2355   20.3659 O   0  0  0  0  0  0
  -31.4491  -12.4036   19.1090 H   0  0  0  0  0  0
  -30.2697  -11.2957   19.7424 H   0  0  0  0  0  0
  -29.7146  -11.8835   17.3791 H   0  0  0  0  0  0
  -29.6782  -13.5762   17.7855 H   0  0  0  0  0  0
  -27.7450  -11.4089   18.6793 H   0  0  0  0  0  0
  -27.3733  -12.8437   17.7667 H   0  0  0  0  0  0
  -27.7043  -14.2884   19.6670 H   0  0  0  0  0  0
  -28.6537  -11.8762   21.2391 H   0  0  0  0  0  0
  -28.4472  -13.4502   21.9150 H   0  0  0  0  0  0
  -25.2819   -9.5652   22.4743 H   0  0  0  0  0  0
  -23.9996   -7.4627   22.7429 H   0  0  0  0  0  0
  -21.0893   -8.8887   19.8945 H   0  0  0  0  0  0
  -22.3822  -10.9702   19.6139 H   0  0  0  0  0  0
  -21.2100   -7.6182   23.9775 H   0  0  0  0  0  0
  -21.1406   -6.0504   25.9072 H   0  0  0  0  0  0
  -22.0618   -2.7646   23.2833 H   0  0  0  0  0  0
  -22.4137  -11.9844   22.4792 H   0  0  0  0  0  0
  -21.1124  -13.1176   22.2631 H   0  0  0  0  0  0
  -24.6561  -15.8565   20.5582 H   0  0  0  0  0  0
  -26.2911  -15.6552   20.1926 H   0  0  0  0  0  0
  -26.7173  -32.5640   23.1252 H   0  0  0  0  0  0
  -25.0261  -33.9906   25.0629 H   0  0  0  0  0  0
  -22.6801  -31.3116   21.4247 H   0  0  0  0  0  0
  -23.3848  -35.9635   23.3275 H   0  0  0  0  0  0
  -24.3690  -36.8952   22.2026 H   0  0  0  0  0  0
  -23.7297  -37.6563   23.6597 H   0  0  0  0  0  0
  -26.0352  -31.6104   20.5939 H   0  0  0  0  0  0
  -26.8153  -30.9017   21.9767 H   0  0  0  0  0  0
  -28.0792  -29.1232   21.1888 H   0  0  0  0  0  0
  -25.9858  -26.0512   18.9611 H   0  0  0  0  0  0
  -23.9530  -27.3291   19.0443 H   0  0  0  0  0  0
  -23.6927  -30.6227   19.4172 H   0  0  0  0  0  0
  -22.7307  -29.2564   19.8928 H   0  0  0  0  0  0
  -25.1315  -36.2066   25.0833 H   0  0  0  0  0  0
  -21.0073  -28.2475   24.1205 H   0  0  0  0  0  0
  -20.6193  -26.1834   23.2364 H   0  0  0  0  0  0
  -21.6396  -26.7955   21.9695 H   0  0  0  0  0  0
  -19.6487  -25.7169   20.9879 H   0  0  0  0  0  0
  -19.5892  -27.4295   20.6656 H   0  0  0  0  0  0
  -17.3796  -26.6350   21.4616 H   0  0  0  0  0  0
  -18.1040  -26.0097   22.9203 H   0  0  0  0  0  0
  -19.8195  -30.6888   24.2522 H   0  0  0  0  0  0
  -17.5379  -31.6012   24.5716 H   0  0  0  0  0  0
  -15.5448  -30.3086   23.8048 H   0  0  0  0  0  0
  -15.8616  -28.1029   22.7182 H   0  0  0  0  0  0
  -24.5805  -30.7171   25.7781 H   0  0  0  0  0  0
  -24.8937  -32.2958   26.4873 H   0  0  0  0  0  0
  -25.7946  -30.8928   27.0251 H   0  0  0  0  0  0
  -26.2756  -29.6873   24.1022 H   0  0  0  0  0  0
  -27.3861  -29.7140   25.4501 H   0  0  0  0  0  0
  -27.8615  -30.4337   23.9287 H   0  0  0  0  0  0
  -27.2717  -33.3495   26.2207 H   0  0  0  0  0  0
  -28.3785  -32.6908   25.0278 H   0  0  0  0  0  0
  -28.0829  -31.8333   26.5329 H   0  0  0  0  0  0
  -28.2606  -38.0154   24.7461 H   0  0  0  0  0  0
  -28.1133  -36.2686   24.6245 H   0  0  0  0  0  0
  -27.2289  -37.1434   25.8821 H   0  0  0  0  0  0
  -20.9423  -29.8554   21.6820 H   0  0  0  0  0  0
  -26.0263  -38.2929   24.1300 H   0  0  0  0  0  0
  -28.8133  -16.0721   19.4098 H   0  0  0  0  0  0
  -29.8850  -19.6112   21.5563 H   0  0  0  0  0  0
  -27.4552  -16.0824   17.5765 H   0  0  0  0  0  0
  -27.4866  -17.5616   16.6523 H   0  0  0  0  0  0
  -26.0746  -17.1526   17.6431 H   0  0  0  0  0  0
  -26.7998  -21.3982   16.2872 H   0  0  0  0  0  0
  -27.9519  -20.0770   16.1873 H   0  0  0  0  0  0
  -28.2848  -21.4692   17.2185 H   0  0  0  0  0  0
  -25.0109  -24.0753   20.2307 H   0  0  0  0  0  0
  -24.9770  -22.6190   19.2256 H   0  0  0  0  0  0
  -25.5707  -24.0812   18.5506 H   0  0  0  0  0  0
  -30.6284  -17.4764   22.3613 H   0  0  0  0  0  0
  -31.4766  -17.0760   20.9199 H   0  0  0  0  0  0
  -26.2574  -20.9103   18.5771 H   0  0  0  0  0  0
  -25.9262  -19.5222   17.6725 H   0  0  0  0  0  0
  -29.1962  -15.3580   22.0372 H   0  0  0  0  0  0
  -30.8255  -15.2022   22.6089 H   0  0  0  0  0  0
  -27.0143  -24.9013   21.2369 H   0  0  0  0  0  0
  -28.4981  -24.0202   21.2439 H   0  0  0  0  0  0
  -29.3990  -25.0805   19.4189 H   0  0  0  0  0  0
  -27.9233  -25.3434   18.5971 H   0  0  0  0  0  0
  -26.2421  -21.2122   20.6549 H   0  0  0  0  0  0
  -27.1408  -22.1126   21.8202 H   0  0  0  0  0  0
  -27.5205  -22.9424   18.9799 H   0  0  0  0  0  0
  1 25  1  0  0  0
  1 30  2  0  0  0
  1 82  1  0  0  0
  2  3  1  0  0  0
  2 25  1  0  0  0
  2 88  1  0  0  0
  2 89  1  0  0  0
  3  4  1  0  0  0
  3 90  1  0  0  0
  3 91  1  0  0  0
  4  5  1  0  0  0
  4 92  1  0  0  0
  4 93  1  0  0  0
  5  6  1  0  0  0
  5 26  1  0  0  0
  5 94  1  0  0  0
  6 25  1  0  0  0
  6 95  1  0  0  0
  6 96  1  0  0  0
  7  8  2  0  0  0
  7 26  1  0  0  0
  7 29  1  0  0  0
  8  9  1  0  0  0
  8 22  1  0  0  0
  9 10  1  0  0  0
  9 27  2  0  0  0
 10 11  2  0  0  0
 10 15  1  0  0  0
 11 12  1  0  0  0
 11 97  1  0  0  0
 12 13  2  0  0  0
 12 98  1  0  0  0
 13 14  1  0  0  0
 13 31  1  0  0  0
 14 15  2  0  0  0
 14 99  1  0  0  0
 15100  1  0  0  0
 16 17  2  0  0  0
 16 21  1  0  0  0
 16 31  1  0  0  0
 17 18  1  0  0  0
 17101  1  0  0  0
 18 19  2  0  0  0
 18102  1  0  0  0
 19 20  1  0  0  0
 19 24  1  0  0  0
 20 21  2  0  0  0
 20103  1  0  0  0
 21 23  1  0  0  0
 22 28  1  0  0  0
 22 32  2  0  0  0
 26 27  1  0  0  0
 28104  1  0  0  0
 28105  1  0  0  0
 29106  1  0  0  0
 29107  1  0  0  0
 33 34  1  0  0  0
 33 66  1  0  0  0
 33 70  2  0  0  0
 34 36  1  0  0  0
 34 59  1  0  0  0
 34108  1  0  0  0
 35 44  2  0  0  0
 35 45  1  0  0  0
 35 68  1  0  0  0
 36 56  1  0  0  0
 36109  1  0  0  0
 37 39  1  0  0  0
 37 47  1  0  0  0
 37 66  1  0  0  0
 37110  1  0  0  0
 38 43  2  0  0  0
 38 46  1  0  0  0
 38 47  1  0  0  0
 39 64  1  0  0  0
 39 67  2  0  0  0
 40 52  1  0  0  0
 40 53  2  0  0  0
 40 58  1  0  0  0
 41111  1  0  0  0
 41112  1  0  0  0
 41113  1  0  0  0
 41 48  1  0  0  0
 42 43  1  0  0  0
 42 66  1  0  0  0
 42114  1  0  0  0
 42115  1  0  0  0
 43 44  1  0  0  0
 44116  1  0  0  0
 45 46  2  0  0  0
 45117  1  0  0  0
 46118  1  0  0  0
 47119  1  0  0  0
 47120  1  0  0  0
 48 56  1  0  0  0
 48 65  1  0  0  0
 48121  1  0  0  0
 49 50  1  0  0  0
 49 53  1  0  0  0
 49 64  1  0  0  0
 49122  1  0  0  0
 50 51  1  0  0  0
 50123  1  0  0  0
 50124  1  0  0  0
 51 52  1  0  0  0
 51125  1  0  0  0
 51126  1  0  0  0
 52127  1  0  0  0
 52128  1  0  0  0
 53 54  1  0  0  0
 54 55  2  0  0  0
 54129  1  0  0  0
 55 57  1  0  0  0
 55130  1  0  0  0
 56 69  2  0  0  0
 57 58  2  0  0  0
 57131  1  0  0  0
 58132  1  0  0  0
 59 60  1  0  0  0
 59 61  1  0  0  0
 59 62  1  0  0  0
 60133  1  0  0  0
 60134  1  0  0  0
 60135  1  0  0  0
 61136  1  0  0  0
 61137  1  0  0  0
 61138  1  0  0  0
 62139  1  0  0  0
 62140  1  0  0  0
 62141  1  0  0  0
 63 65  1  0  0  0
 63142  1  0  0  0
 63143  1  0  0  0
 63144  1  0  0  0
 64145  1  0  0  0
 65146  1  0  0  0
 68 84  1  0  0  0
 71 73  2  0  0  0
 71 74  1  0  0  0
 71147  1  0  0  0
 72 73  1  0  0  0
 72 76  2  0  0  0
 72148  1  0  0  0
 73 80  1  0  0  0
 74 75  2  0  0  0
 74 77  1  0  0  0
 75 76  1  0  0  0
 75 81  1  0  0  0
 76 87  1  0  0  0
 77149  1  0  0  0
 77150  1  0  0  0
 77151  1  0  0  0
 78 81  1  0  0  0
 78152  1  0  0  0
 78153  1  0  0  0
 78154  1  0  0  0
 79155  1  0  0  0
 79156  1  0  0  0
 79157  1  0  0  0
 79 86  1  0  0  0
 80 82  1  0  0  0
 80158  1  0  0  0
 80159  1  0  0  0
 81160  1  0  0  0
 81161  1  0  0  0
 82162  1  0  0  0
 82163  1  0  0  0
 83 84  1  0  0  0
 83 86  1  0  0  0
 83164  1  0  0  0
 83165  1  0  0  0
 84166  1  0  0  0
 84167  1  0  0  0
 85 86  1  0  0  0
 85 87  1  0  0  0
 85168  1  0  0  0
 85169  1  0  0  0
 86170  1  0  0  0
M  ISO  4   1 100  68 101  82 100  84 101
M  END
> <chiral flag>
0

> <version>
0

> <s_m_source_file>
/data/baiqing/PycharmProjects/Reinvent-master-3.2/result/LINK_invent/BTK/process_docking_weight1_custom_product_contain_oxygen_bond_distance_aromatic_linkinvent_7_9_3/rearranged_h_0133.sdf

> <i_m_source_file_index>
57

> <r_mmod_Potential_Energy-OPLS-2005>
18.4040660858154

> <r_mmod_Stretch_Energy-OPLS-2005>
44.7082023620605

> <r_mmod_Bend_Energy-OPLS-2005>
127.176467895508

> <r_mmod_Torsional_Energy-OPLS-2005>
215.483505249023

> <r_mmod_Improper_Torsional_Energy-OPLS-2005>
2.85162997245789

> <r_mmod_Van_der_Waal_Energy-OPLS-2005>
154.94596862793

> <r_mmod_Electrostatic_Energy-OPLS-2005>
-352.912322998047

> <r_mmod_Solvation_Energy-OPLS-2005>
-186.14208984375

> <b_mmod_Minimization_Converged-OPLS-2005>
0

> <r_mmod_RMS_Derivative-OPLS-2005>
9.0668888092041

$$$$
57
                    3D
 Structure written by MMmdl.
155163  0  0  1  0            999 V2000
  -30.7341  -14.4394   20.6017 C   0  0  0  0  0  0
  -30.4187  -12.3025   19.4114 C   0  0  0  0  0  0
  -29.4883  -12.5116   18.2003 C   0  0  0  0  0  0
  -28.0120  -12.3673   18.6176 C   0  0  0  0  0  0
  -27.6622  -13.2064   19.8756 C   0  0  2  0  0  0
  -28.7055  -12.9848   20.9945 C   0  0  0  0  0  0
  -25.2594  -13.8162   20.5694 C   0  0  0  0  0  0
  -24.1838  -13.0438   20.9178 C   0  0  0  0  0  0
  -24.6389  -11.6905   20.8732 C   0  0  0  0  0  0
  -23.9054  -10.4291   21.0398 C   0  0  0  0  0  0
  -24.3609   -9.4209   21.9176 C   0  0  0  0  0  0
  -23.6287   -8.2242   22.0751 C   0  0  0  0  0  0
  -22.4270   -8.0278   21.3542 C   0  0  0  0  0  0
  -21.9901   -9.0250   20.4643 C   0  0  0  0  0  0
  -22.7225  -10.2131   20.3048 C   0  0  0  0  0  0
  -21.6852   -6.0732   22.5279 C   0  0  0  0  0  0
  -21.4013   -6.5634   23.8212 C   0  0  0  0  0  0
  -21.3659   -5.6789   24.9175 C   0  0  0  0  0  0
  -21.6045   -4.3054   24.7227 C   0  0  0  0  0  0
  -21.8820   -3.8144   23.4348 C   0  0  0  0  0  0
  -21.9192   -4.6960   22.3403 C   0  0  0  0  0  0
  -22.7861  -13.5239   21.1839 C   0  0  0  0  0  0
  -22.1663   -4.2145   21.0981 F   0  0  0  0  0  0
  -21.5627   -3.4538   25.7740 F   0  0  0  0  0  0
  -30.0378  -13.2820   20.4406 N   0  0  0  0  0  0
  -26.3027  -12.9331   20.3378 N   0  0  0  0  0  0
  -25.9317  -11.6491   20.5767 N   0  0  0  0  0  0
  -22.0495  -12.8233   22.0393 N   0  0  0  0  0  0
  -25.4330  -15.1880   20.4121 N   0  0  0  0  0  0
  -31.8494  -14.6206   20.1041 O   0  0  0  0  0  0
  -21.6638   -6.8873   21.4239 O   0  0  0  0  0  0
  -22.3551  -14.5548   20.6692 O   0  0  0  0  0  0
  -24.6161  -31.8690   23.2127 C   0  0  0  0  0  0
  -25.9058  -32.4824   23.8413 C   0  0  1  0  0  0
  -27.2252  -27.4273   20.0866 C   0  0  0  0  0  0
  -25.5922  -33.8622   24.2345 N   0  0  0  0  0  0
  -23.4024  -30.4972   21.5538 C   0  0  2  0  0  0
  -24.8452  -28.9713   20.1113 C   0  0  0  0  0  0
  -22.7417  -29.4673   22.4989 C   0  0  0  0  0  0
  -18.0269  -28.1373   22.8489 C   0  0  0  0  0  0
  -24.1489  -36.7313   23.2633 C   0  0  0  0  0  0
  -25.9345  -30.8319   21.3684 C   0  0  0  0  0  0
  -26.0089  -29.4687   20.7108 C   0  0  0  0  0  0
  -27.2007  -28.7042   20.6978 C   0  0  0  0  0  0
  -26.0391  -26.9629   19.4635 C   0  0  0  0  0  0
  -24.8557  -27.7173   19.4853 C   0  0  0  0  0  0
  -23.6091  -29.8380   20.1658 C   0  0  0  0  0  0
  -25.4105  -36.3111   24.0339 C   0  0  1  0  0  0
  -20.5863  -28.3665   23.1311 C   0  0  2  0  0  0
  -20.6762  -26.9403   22.5408 C   0  0  0  0  0  0
  -19.5745  -26.6389   21.5200 C   0  0  0  0  0  0
  -18.1923  -26.7921   22.1615 C   0  0  0  0  0  0
  -19.1519  -28.8835   23.2898 C   0  0  0  0  0  0
  -18.9447  -30.1440   23.8910 C   0  0  0  0  0  0
  -17.6450  -30.6583   24.0561 C   0  0  0  0  0  0
  -25.9037  -34.9476   23.5135 C   0  0  0  0  0  0
  -16.5340  -29.9084   23.6323 C   0  0  0  0  0  0
  -16.7258  -28.6499   23.0347 C   0  0  0  0  0  0
  -26.4482  -31.6593   25.0736 C   0  0  0  0  0  0
  -25.3757  -31.3699   26.1491 C   0  0  0  0  0  0
  -27.0294  -30.3031   24.6106 C   0  0  0  0  0  0
  -27.6071  -32.4296   25.7491 C   0  0  0  0  0  0
  -27.5582  -37.1808   24.8460 C   0  0  0  0  0  0
  -21.4144  -29.3038   22.3726 N   0  0  0  0  0  0
  -26.4291  -37.3796   23.9413 N   0  0  0  0  0  0
  -24.6694  -31.0796   22.1029 N   0  0  0  0  0  0
  -23.4194  -28.8203   23.3018 O   0  0  0  0  0  0
  -28.3819  -26.6624   20.1246 O   0  0  0  0  0  0
  -26.5588  -34.8925   22.4691 O   0  0  0  0  0  0
  -23.5355  -32.1439   23.7525 O   0  0  0  0  0  0
  -29.7557  -17.8601   20.9872 C   0  0  0  0  0  0
  -31.4623  -19.4289   21.7460 C   0  0  0  0  0  0
  -31.8012  -17.0258   22.0164 C   0  0  0  0  0  0
  -30.2082  -19.1987   21.1340 C   0  0  0  0  0  0
  -30.5537  -16.7686   21.4038 C   0  0  0  0  0  0
  -32.2492  -18.3493   22.1873 C   0  0  0  0  0  0
  -29.3647  -20.3288   20.6318 C   0  0  0  0  0  0
  -29.8799  -21.7783   20.8009 C   0  0  0  0  0  0
  -28.9246  -22.8474   20.2105 C   0  0  0  0  0  0
  -29.3237  -24.3314   20.4206 C   0  0  0  0  0  0
  -28.2093  -25.2541   19.8852 C   0  0  0  0  0  0
  -30.0791  -15.4349   21.2286 N   0  0  0  0  0  0
  -28.2747  -20.1345   20.0834 O   0  0  0  0  0  0
  -33.4455  -18.5862   22.7762 F   0  0  0  0  0  0
  -31.4620  -12.3963   19.1053 H   0  0  0  0  0  0
  -30.3164  -11.2894   19.8033 H   0  0  0  0  0  0
  -29.7260  -11.7955   17.4127 H   0  0  0  0  0  0
  -29.6541  -13.5021   17.7732 H   0  0  0  0  0  0
  -27.8259  -11.3107   18.8146 H   0  0  0  0  0  0
  -27.3577  -12.6409   17.7889 H   0  0  0  0  0  0
  -27.7077  -14.2549   19.5800 H   0  0  0  0  0  0
  -28.6780  -11.9492   21.3368 H   0  0  0  0  0  0
  -28.4678  -13.5860   21.8730 H   0  0  0  0  0  0
  -25.2756   -9.5691   22.4748 H   0  0  0  0  0  0
  -24.0001   -7.4637   22.7469 H   0  0  0  0  0  0
  -21.0832   -8.8763   19.8951 H   0  0  0  0  0  0
  -22.3678  -10.9666   19.6155 H   0  0  0  0  0  0
  -21.2005   -7.6143   23.9714 H   0  0  0  0  0  0
  -21.1479   -6.0520   25.9079 H   0  0  0  0  0  0
  -22.0598   -2.7606   23.2849 H   0  0  0  0  0  0
  -22.4101  -11.9890   22.4780 H   0  0  0  0  0  0
  -21.1112  -13.1263   22.2589 H   0  0  0  0  0  0
  -24.6702  -15.8470   20.5249 H   0  0  0  0  0  0
  -26.2906  -15.6257   20.0996 H   0  0  0  0  0  0
  -26.7126  -32.5534   23.1172 H   0  0  0  0  0  0
  -25.0105  -33.9787   25.0514 H   0  0  0  0  0  0
  -22.6912  -31.3149   21.4199 H   0  0  0  0  0  0
  -23.3752  -35.9644   23.3289 H   0  0  0  0  0  0
  -24.3596  -36.8931   22.2050 H   0  0  0  0  0  0
  -23.7239  -37.6518   23.6644 H   0  0  0  0  0  0
  -26.0505  -31.6000   20.6025 H   0  0  0  0  0  0
  -26.8216  -30.8811   21.9876 H   0  0  0  0  0  0
  -28.0955  -29.0821   21.1727 H   0  0  0  0  0  0
  -25.9948  -26.0138   18.9505 H   0  0  0  0  0  0
  -23.9638  -27.3317   19.0105 H   0  0  0  0  0  0
  -23.7182  -30.6164   19.4093 H   0  0  0  0  0  0
  -22.7322  -29.2600   19.8683 H   0  0  0  0  0  0
  -25.1279  -36.1974   25.0832 H   0  0  0  0  0  0
  -20.9953  -28.3220   24.1432 H   0  0  0  0  0  0
  -20.5656  -26.2271   23.3591 H   0  0  0  0  0  0
  -21.6634  -26.7448   22.1205 H   0  0  0  0  0  0
  -19.6911  -25.6305   21.1220 H   0  0  0  0  0  0
  -19.6692  -27.3203   20.6733 H   0  0  0  0  0  0
  -17.4198  -26.6665   21.4013 H   0  0  0  0  0  0
  -18.0336  -26.0057   22.9009 H   0  0  0  0  0  0
  -19.7925  -30.7241   24.2296 H   0  0  0  0  0  0
  -17.5009  -31.6265   24.5158 H   0  0  0  0  0  0
  -15.5341  -30.2986   23.7647 H   0  0  0  0  0  0
  -15.8656  -28.0820   22.7057 H   0  0  0  0  0  0
  -24.5931  -30.7041   25.7836 H   0  0  0  0  0  0
  -24.8949  -32.2853   26.4950 H   0  0  0  0  0  0
  -25.8124  -30.8867   27.0241 H   0  0  0  0  0  0
  -26.2820  -29.6809   24.1166 H   0  0  0  0  0  0
  -27.4064  -29.7256   25.4556 H   0  0  0  0  0  0
  -27.8667  -30.4341   23.9246 H   0  0  0  0  0  0
  -27.2716  -33.3606   26.2072 H   0  0  0  0  0  0
  -28.3880  -32.6829   25.0308 H   0  0  0  0  0  0
  -28.0733  -31.8407   26.5401 H   0  0  0  0  0  0
  -28.2591  -38.0113   24.7519 H   0  0  0  0  0  0
  -28.1085  -36.2646   24.6261 H   0  0  0  0  0  0
  -27.2311  -37.1437   25.8867 H   0  0  0  0  0  0
  -20.9301  -29.8777   21.6965 H   0  0  0  0  0  0
  -26.0179  -38.2875   24.1416 H   0  0  0  0  0  0
  -28.7973  -17.6685   20.5229 H   0  0  0  0  0  0
  -31.8440  -20.4295   21.8865 H   0  0  0  0  0  0
  -32.4252  -16.2131   22.3589 H   0  0  0  0  0  0
  -30.8580  -21.8578   20.3270 H   0  0  0  0  0  0
  -30.0228  -21.9638   21.8652 H   0  0  0  0  0  0
  -27.9352  -22.6948   20.6454 H   0  0  0  0  0  0
  -28.8088  -22.6649   19.1408 H   0  0  0  0  0  0
  -30.2677  -24.5497   19.9202 H   0  0  0  0  0  0
  -29.4750  -24.5248   21.4830 H   0  0  0  0  0  0
  -27.2911  -24.9157   20.3692 H   0  0  0  0  0  0
  -28.0936  -25.0910   18.8125 H   0  0  0  0  0  0
  -29.1161  -15.2491   21.4652 H   0  0  0  0  0  0
  1 25  1  0  0  0
  1 30  2  0  0  0
  1 82  1  0  0  0
  2  3  1  0  0  0
  2 25  1  0  0  0
  2 85  1  0  0  0
  2 86  1  0  0  0
  3  4  1  0  0  0
  3 87  1  0  0  0
  3 88  1  0  0  0
  4  5  1  0  0  0
  4 89  1  0  0  0
  4 90  1  0  0  0
  5  6  1  0  0  0
  5 26  1  0  0  0
  5 91  1  0  0  0
  6 25  1  0  0  0
  6 92  1  0  0  0
  6 93  1  0  0  0
  7  8  2  0  0  0
  7 26  1  0  0  0
  7 29  1  0  0  0
  8  9  1  0  0  0
  8 22  1  0  0  0
  9 10  1  0  0  0
  9 27  2  0  0  0
 10 11  2  0  0  0
 10 15  1  0  0  0
 11 12  1  0  0  0
 11 94  1  0  0  0
 12 13  2  0  0  0
 12 95  1  0  0  0
 13 14  1  0  0  0
 13 31  1  0  0  0
 14 15  2  0  0  0
 14 96  1  0  0  0
 15 97  1  0  0  0
 16 17  2  0  0  0
 16 21  1  0  0  0
 16 31  1  0  0  0
 17 18  1  0  0  0
 17 98  1  0  0  0
 18 19  2  0  0  0
 18 99  1  0  0  0
 19 20  1  0  0  0
 19 24  1  0  0  0
 20 21  2  0  0  0
 20100  1  0  0  0
 21 23  1  0  0  0
 22 28  1  0  0  0
 22 32  2  0  0  0
 26 27  1  0  0  0
 28101  1  0  0  0
 28102  1  0  0  0
 29103  1  0  0  0
 29104  1  0  0  0
 33 34  1  0  0  0
 33 66  1  0  0  0
 33 70  2  0  0  0
 34 36  1  0  0  0
 34 59  1  0  0  0
 34105  1  0  0  0
 35 44  2  0  0  0
 35 45  1  0  0  0
 35 68  1  0  0  0
 36 56  1  0  0  0
 36106  1  0  0  0
 37 39  1  0  0  0
 37 47  1  0  0  0
 37 66  1  0  0  0
 37107  1  0  0  0
 38 43  2  0  0  0
 38 46  1  0  0  0
 38 47  1  0  0  0
 39 64  1  0  0  0
 39 67  2  0  0  0
 40 52  1  0  0  0
 40 53  2  0  0  0
 40 58  1  0  0  0
 41108  1  0  0  0
 41109  1  0  0  0
 41110  1  0  0  0
 41 48  1  0  0  0
 42 43  1  0  0  0
 42 66  1  0  0  0
 42111  1  0  0  0
 42112  1  0  0  0
 43 44  1  0  0  0
 44113  1  0  0  0
 45 46  2  0  0  0
 45114  1  0  0  0
 46115  1  0  0  0
 47116  1  0  0  0
 47117  1  0  0  0
 48 56  1  0  0  0
 48 65  1  0  0  0
 48118  1  0  0  0
 49 50  1  0  0  0
 49 53  1  0  0  0
 49 64  1  0  0  0
 49119  1  0  0  0
 50 51  1  0  0  0
 50120  1  0  0  0
 50121  1  0  0  0
 51 52  1  0  0  0
 51122  1  0  0  0
 51123  1  0  0  0
 52124  1  0  0  0
 52125  1  0  0  0
 53 54  1  0  0  0
 54 55  2  0  0  0
 54126  1  0  0  0
 55 57  1  0  0  0
 55127  1  0  0  0
 56 69  2  0  0  0
 57 58  2  0  0  0
 57128  1  0  0  0
 58129  1  0  0  0
 59 60  1  0  0  0
 59 61  1  0  0  0
 59 62  1  0  0  0
 60130  1  0  0  0
 60131  1  0  0  0
 60132  1  0  0  0
 61133  1  0  0  0
 61134  1  0  0  0
 61135  1  0  0  0
 62136  1  0  0  0
 62137  1  0  0  0
 62138  1  0  0  0
 63 65  1  0  0  0
 63139  1  0  0  0
 63140  1  0  0  0
 63141  1  0  0  0
 64142  1  0  0  0
 65143  1  0  0  0
 68 81  1  0  0  0
 71 74  2  0  0  0
 71 75  1  0  0  0
 71144  1  0  0  0
 72 74  1  0  0  0
 72 76  2  0  0  0
 72145  1  0  0  0
 73 75  2  0  0  0
 73 76  1  0  0  0
 73146  1  0  0  0
 74 77  1  0  0  0
 75 82  1  0  0  0
 76 84  1  0  0  0
 77 78  1  0  0  0
 77 83  2  0  0  0
 78 79  1  0  0  0
 78147  1  0  0  0
 78148  1  0  0  0
 79 80  1  0  0  0
 79149  1  0  0  0
 79150  1  0  0  0
 80 81  1  0  0  0
 80151  1  0  0  0
 80152  1  0  0  0
 81153  1  0  0  0
 81154  1  0  0  0
 82155  1  0  0  0
M  ISO  4   1 100  68 101  81 101  82 100
M  END
> <chiral flag>
0

> <version>
0

> <s_m_source_file>
/data/baiqing/PycharmProjects/Reinvent-master-3.2/result/LINK_invent/BTK/process_docking_weight1_custom_product_contain_oxygen_bond_distance_aromatic_linkinvent_7_9_3/rearranged_h_0133.sdf

> <i_m_source_file_index>
58

> <r_mmod_Potential_Energy-OPLS-2005>
-34.735969543457

> <r_mmod_Stretch_Energy-OPLS-2005>
37.9462432861328

> <r_mmod_Bend_Energy-OPLS-2005>
92.6552352905273

> <r_mmod_Torsional_Energy-OPLS-2005>
235.422866821289

> <r_mmod_Improper_Torsional_Energy-OPLS-2005>
3.02941155433655

> <r_mmod_Van_der_Waal_Energy-OPLS-2005>
167.506759643555

> <r_mmod_Electrostatic_Energy-OPLS-2005>
-372.293518066406

> <r_mmod_Solvation_Energy-OPLS-2005>
-212.028060913086

> <b_mmod_Minimization_Converged-OPLS-2005>
0

> <r_mmod_RMS_Derivative-OPLS-2005>
0.610768616199493

$$$$
58
                    3D
 Structure written by MMmdl.
164172  0  0  1  0            999 V2000
  -30.7306  -14.4145   20.5349 C   0  0  0  0  0  0
  -30.4180  -12.2708   19.4125 C   0  0  0  0  0  0
  -29.4896  -12.4938   18.2018 C   0  0  0  0  0  0
  -28.0104  -12.3687   18.6134 C   0  0  0  0  0  0
  -27.6600  -13.2054   19.8719 C   0  0  2  0  0  0
  -28.7044  -12.9888   20.9920 C   0  0  0  0  0  0
  -25.2581  -13.8162   20.5668 C   0  0  0  0  0  0
  -24.1829  -13.0459   20.9179 C   0  0  0  0  0  0
  -24.6371  -11.6924   20.8735 C   0  0  0  0  0  0
  -23.9037  -10.4315   21.0410 C   0  0  0  0  0  0
  -24.3597   -9.4225   21.9177 C   0  0  0  0  0  0
  -23.6285   -8.2252   22.0751 C   0  0  0  0  0  0
  -22.4259   -8.0290   21.3545 C   0  0  0  0  0  0
  -21.9893   -9.0257   20.4637 C   0  0  0  0  0  0
  -22.7222  -10.2139   20.3057 C   0  0  0  0  0  0
  -21.6855   -6.0736   22.5285 C   0  0  0  0  0  0
  -21.4007   -6.5642   23.8214 C   0  0  0  0  0  0
  -21.3656   -5.6790   24.9174 C   0  0  0  0  0  0
  -21.6048   -4.3058   24.7222 C   0  0  0  0  0  0
  -21.8814   -3.8145   23.4346 C   0  0  0  0  0  0
  -21.9194   -4.6966   22.3405 C   0  0  0  0  0  0
  -22.7852  -13.5264   21.1846 C   0  0  0  0  0  0
  -22.1659   -4.2158   21.0982 F   0  0  0  0  0  0
  -21.5635   -3.4543   25.7736 F   0  0  0  0  0  0
  -30.0404  -13.2531   20.4362 N   0  0  0  0  0  0
  -26.3010  -12.9326   20.3358 N   0  0  0  0  0  0
  -25.9298  -11.6490   20.5759 N   0  0  0  0  0  0
  -22.0464  -12.8259   22.0386 N   0  0  0  0  0  0
  -25.4340  -15.1877   20.4067 N   0  0  0  0  0  0
  -31.9192  -14.5122   20.2379 O   0  0  0  0  0  0
  -21.6641   -6.8877   21.4243 O   0  0  0  0  0  0
  -22.3557  -14.5577   20.6718 O   0  0  0  0  0  0
  -24.6064  -31.8715   23.2085 C   0  0  0  0  0  0
  -25.8981  -32.4849   23.8362 C   0  0  1  0  0  0
  -27.2427  -27.4733   20.0928 C   0  0  0  0  0  0
  -25.5868  -33.8647   24.2307 N   0  0  0  0  0  0
  -23.3912  -30.4909   21.5500 C   0  0  2  0  0  0
  -24.8385  -28.9549   20.1187 C   0  0  0  0  0  0
  -22.7359  -29.4661   22.5013 C   0  0  0  0  0  0
  -18.0273  -28.1364   22.8489 C   0  0  0  0  0  0
  -24.1512  -36.7292   23.2650 C   0  0  0  0  0  0
  -25.9147  -30.8457   21.3558 C   0  0  0  0  0  0
  -25.9924  -29.4813   20.7091 C   0  0  0  0  0  0
  -27.1929  -28.7478   20.6906 C   0  0  0  0  0  0
  -26.0705  -26.9454   19.5002 C   0  0  0  0  0  0
  -24.8702  -27.6833   19.5147 C   0  0  0  0  0  0
  -23.5956  -29.8137   20.1683 C   0  0  0  0  0  0
  -25.4147  -36.3117   24.0335 C   0  0  1  0  0  0
  -20.5844  -28.3634   23.1332 C   0  0  2  0  0  0
  -20.6778  -26.9379   22.5413 C   0  0  0  0  0  0
  -19.5776  -26.6377   21.5197 C   0  0  0  0  0  0
  -18.1943  -26.7923   22.1596 C   0  0  0  0  0  0
  -19.1516  -28.8819   23.2921 C   0  0  0  0  0  0
  -18.9461  -30.1436   23.8923 C   0  0  0  0  0  0
  -17.6466  -30.6582   24.0567 C   0  0  0  0  0  0
  -25.9055  -34.9491   23.5117 C   0  0  0  0  0  0
  -16.5355  -29.9078   23.6341 C   0  0  0  0  0  0
  -16.7264  -28.6495   23.0351 C   0  0  0  0  0  0
  -26.4433  -31.6623   25.0684 C   0  0  0  0  0  0
  -25.3695  -31.3695   26.1431 C   0  0  0  0  0  0
  -27.0277  -30.3100   24.5998 C   0  0  0  0  0  0
  -27.6012  -32.4339   25.7434 C   0  0  0  0  0  0
  -27.5603  -37.1816   24.8482 C   0  0  0  0  0  0
  -21.4095  -29.3007   22.3752 N   0  0  0  0  0  0
  -26.4343  -37.3788   23.9389 N   0  0  0  0  0  0
  -24.6556  -31.0835   22.0974 N   0  0  0  0  0  0
  -23.4163  -28.8226   23.3054 O   0  0  0  0  0  0
  -28.4581  -26.8323   20.1071 O   0  0  0  0  0  0
  -26.5632  -34.8938   22.4686 O   0  0  0  0  0  0
  -23.5268  -32.1436   23.7516 O   0  0  0  0  0  0
  -30.8609  -20.3142   16.3509 C   0  0  0  0  0  0
  -30.6138  -18.9927   15.9442 C   0  0  0  0  0  0
  -31.4137  -19.5274   18.5887 C   0  0  0  0  0  0
  -31.2585  -20.5891   17.6739 C   0  0  0  0  0  0
  -30.7555  -17.9266   16.8550 C   0  0  0  0  0  0
  -31.1680  -18.1982   18.1875 C   0  0  0  0  0  0
  -29.1559  -25.0862   18.6174 C   0  0  0  0  0  0
  -30.4750  -16.5146   16.3575 C   0  0  0  0  0  0
  -31.5085  -22.0202   18.1033 C   0  0  0  0  0  0
  -31.3748  -17.0766   19.1921 C   0  0  0  0  0  0
  -30.4403  -24.2654   18.6333 C   0  0  0  0  0  0
  -28.5216  -25.4204   19.9657 C   0  0  0  0  0  0
  -30.2167  -22.8433   18.1069 C   0  0  0  0  0  0
  -30.1554  -16.8526   20.1298 C   0  0  0  0  0  0
  -29.9528  -15.4970   20.6803 N   0  0  0  0  0  0
  -28.6531  -25.4597   17.5522 O   0  0  0  0  0  0
  -31.4600  -12.3678   19.1015 H   0  0  0  0  0  0
  -30.3175  -11.2568   19.8036 H   0  0  0  0  0  0
  -29.7222  -11.7766   17.4131 H   0  0  0  0  0  0
  -29.6641  -13.4831   17.7765 H   0  0  0  0  0  0
  -27.8032  -11.3143   18.7982 H   0  0  0  0  0  0
  -27.3698  -12.6629   17.7820 H   0  0  0  0  0  0
  -27.7000  -14.2523   19.5701 H   0  0  0  0  0  0
  -28.6621  -11.9612   21.3560 H   0  0  0  0  0  0
  -28.4893  -13.6199   21.8565 H   0  0  0  0  0  0
  -25.2736   -9.5721   22.4757 H   0  0  0  0  0  0
  -24.0006   -7.4655   22.7467 H   0  0  0  0  0  0
  -21.0836   -8.8763   19.8933 H   0  0  0  0  0  0
  -22.3669  -10.9678   19.6169 H   0  0  0  0  0  0
  -21.1973   -7.6147   23.9716 H   0  0  0  0  0  0
  -21.1486   -6.0520   25.9077 H   0  0  0  0  0  0
  -22.0587   -2.7611   23.2843 H   0  0  0  0  0  0
  -22.4062  -11.9919   22.4791 H   0  0  0  0  0  0
  -21.1085  -13.1312   22.2564 H   0  0  0  0  0  0
  -24.6701  -15.8476   20.5024 H   0  0  0  0  0  0
  -26.2923  -15.6207   20.0904 H   0  0  0  0  0  0
  -26.7051  -32.5570   23.1125 H   0  0  0  0  0  0
  -25.0060  -33.9836   25.0472 H   0  0  0  0  0  0
  -22.6766  -31.3059   21.4092 H   0  0  0  0  0  0
  -23.3804  -35.9597   23.3333 H   0  0  0  0  0  0
  -24.3603  -36.8865   22.2060 H   0  0  0  0  0  0
  -23.7230  -37.6491   23.6644 H   0  0  0  0  0  0
  -26.0217  -31.6092   20.5842 H   0  0  0  0  0  0
  -26.8049  -30.9007   21.9708 H   0  0  0  0  0  0
  -28.0883  -29.1560   21.1377 H   0  0  0  0  0  0
  -26.0731  -25.9822   19.0092 H   0  0  0  0  0  0
  -23.9818  -27.2697   19.0584 H   0  0  0  0  0  0
  -23.6910  -30.5835   19.4013 H   0  0  0  0  0  0
  -22.7233  -29.2234   19.8821 H   0  0  0  0  0  0
  -25.1321  -36.1991   25.0826 H   0  0  0  0  0  0
  -20.9946  -28.3206   24.1448 H   0  0  0  0  0  0
  -20.5697  -26.2237   23.3587 H   0  0  0  0  0  0
  -21.6655  -26.7455   22.1199 H   0  0  0  0  0  0
  -19.6951  -25.6285   21.1239 H   0  0  0  0  0  0
  -19.6749  -27.3199   20.6742 H   0  0  0  0  0  0
  -17.4210  -26.6671   21.3988 H   0  0  0  0  0  0
  -18.0359  -26.0037   22.8968 H   0  0  0  0  0  0
  -19.7940  -30.7254   24.2281 H   0  0  0  0  0  0
  -17.5028  -31.6277   24.5147 H   0  0  0  0  0  0
  -15.5371  -30.3000   23.7665 H   0  0  0  0  0  0
  -15.8650  -28.0847   22.7046 H   0  0  0  0  0  0
  -24.5883  -30.7037   25.7728 H   0  0  0  0  0  0
  -24.8895  -32.2848   26.4902 H   0  0  0  0  0  0
  -25.8049  -30.8828   27.0168 H   0  0  0  0  0  0
  -26.2796  -29.6862   24.1104 H   0  0  0  0  0  0
  -27.4165  -29.7318   25.4391 H   0  0  0  0  0  0
  -27.8549  -30.4482   23.9032 H   0  0  0  0  0  0
  -27.2653  -33.3644   26.2011 H   0  0  0  0  0  0
  -28.3814  -32.6889   25.0243 H   0  0  0  0  0  0
  -28.0688  -31.8467   26.5345 H   0  0  0  0  0  0
  -28.2638  -38.0107   24.7529 H   0  0  0  0  0  0
  -28.1087  -36.2634   24.6320 H   0  0  0  0  0  0
  -27.2312  -37.1442   25.8889 H   0  0  0  0  0  0
  -20.9254  -29.8692   21.6940 H   0  0  0  0  0  0
  -26.0240  -38.2864   24.1386 H   0  0  0  0  0  0
  -30.7347  -21.1199   15.6410 H   0  0  0  0  0  0
  -30.3118  -18.8021   14.9235 H   0  0  0  0  0  0
  -31.7265  -19.7298   19.6051 H   0  0  0  0  0  0
  -29.8388  -16.5286   15.4718 H   0  0  0  0  0  0
  -29.9655  -15.9067   17.1060 H   0  0  0  0  0  0
  -31.4099  -16.0202   16.0882 H   0  0  0  0  0  0
  -32.2342  -22.4726   17.4250 H   0  0  0  0  0  0
  -31.9628  -22.0317   19.0949 H   0  0  0  0  0  0
  -32.2630  -17.2841   19.7921 H   0  0  0  0  0  0
  -31.6303  -16.1980   18.6070 H   0  0  0  0  0  0
  -30.8410  -24.2375   19.6488 H   0  0  0  0  0  0
  -31.1816  -24.7821   18.0230 H   0  0  0  0  0  0
  -29.1562  -25.0372   20.7646 H   0  0  0  0  0  0
  -27.5594  -24.9221   20.0731 H   0  0  0  0  0  0
  -29.4688  -22.3407   18.7220 H   0  0  0  0  0  0
  -29.8071  -22.8873   17.0966 H   0  0  0  0  0  0
  -29.2501  -17.0593   19.5581 H   0  0  0  0  0  0
  -30.1703  -17.5819   20.9409 H   0  0  0  0  0  0
  -29.0089  -15.2928   20.9743 H   0  0  0  0  0  0
  1 25  1  0  0  0
  1 30  2  0  0  0
  1 85  1  0  0  0
  2  3  1  0  0  0
  2 25  1  0  0  0
  2 87  1  0  0  0
  2 88  1  0  0  0
  3  4  1  0  0  0
  3 89  1  0  0  0
  3 90  1  0  0  0
  4  5  1  0  0  0
  4 91  1  0  0  0
  4 92  1  0  0  0
  5  6  1  0  0  0
  5 26  1  0  0  0
  5 93  1  0  0  0
  6 25  1  0  0  0
  6 94  1  0  0  0
  6 95  1  0  0  0
  7  8  2  0  0  0
  7 26  1  0  0  0
  7 29  1  0  0  0
  8  9  1  0  0  0
  8 22  1  0  0  0
  9 10  1  0  0  0
  9 27  2  0  0  0
 10 11  2  0  0  0
 10 15  1  0  0  0
 11 12  1  0  0  0
 11 96  1  0  0  0
 12 13  2  0  0  0
 12 97  1  0  0  0
 13 14  1  0  0  0
 13 31  1  0  0  0
 14 15  2  0  0  0
 14 98  1  0  0  0
 15 99  1  0  0  0
 16 17  2  0  0  0
 16 21  1  0  0  0
 16 31  1  0  0  0
 17 18  1  0  0  0
 17100  1  0  0  0
 18 19  2  0  0  0
 18101  1  0  0  0
 19 20  1  0  0  0
 19 24  1  0  0  0
 20 21  2  0  0  0
 20102  1  0  0  0
 21 23  1  0  0  0
 22 28  1  0  0  0
 22 32  2  0  0  0
 26 27  1  0  0  0
 28103  1  0  0  0
 28104  1  0  0  0
 29105  1  0  0  0
 29106  1  0  0  0
 33 34  1  0  0  0
 33 66  1  0  0  0
 33 70  2  0  0  0
 34 36  1  0  0  0
 34 59  1  0  0  0
 34107  1  0  0  0
 35 44  2  0  0  0
 35 45  1  0  0  0
 35 68  1  0  0  0
 36 56  1  0  0  0
 36108  1  0  0  0
 37 39  1  0  0  0
 37 47  1  0  0  0
 37 66  1  0  0  0
 37109  1  0  0  0
 38 43  2  0  0  0
 38 46  1  0  0  0
 38 47  1  0  0  0
 39 64  1  0  0  0
 39 67  2  0  0  0
 40 52  1  0  0  0
 40 53  2  0  0  0
 40 58  1  0  0  0
 41110  1  0  0  0
 41111  1  0  0  0
 41112  1  0  0  0
 41 48  1  0  0  0
 42 43  1  0  0  0
 42 66  1  0  0  0
 42113  1  0  0  0
 42114  1  0  0  0
 43 44  1  0  0  0
 44115  1  0  0  0
 45 46  2  0  0  0
 45116  1  0  0  0
 46117  1  0  0  0
 47118  1  0  0  0
 47119  1  0  0  0
 48 56  1  0  0  0
 48 65  1  0  0  0
 48120  1  0  0  0
 49 50  1  0  0  0
 49 53  1  0  0  0
 49 64  1  0  0  0
 49121  1  0  0  0
 50 51  1  0  0  0
 50122  1  0  0  0
 50123  1  0  0  0
 51 52  1  0  0  0
 51124  1  0  0  0
 51125  1  0  0  0
 52126  1  0  0  0
 52127  1  0  0  0
 53 54  1  0  0  0
 54 55  2  0  0  0
 54128  1  0  0  0
 55 57  1  0  0  0
 55129  1  0  0  0
 56 69  2  0  0  0
 57 58  2  0  0  0
 57130  1  0  0  0
 58131  1  0  0  0
 59 60  1  0  0  0
 59 61  1  0  0  0
 59 62  1  0  0  0
 60132  1  0  0  0
 60133  1  0  0  0
 60134  1  0  0  0
 61135  1  0  0  0
 61136  1  0  0  0
 61137  1  0  0  0
 62138  1  0  0  0
 62139  1  0  0  0
 62140  1  0  0  0
 63 65  1  0  0  0
 63141  1  0  0  0
 63142  1  0  0  0
 63143  1  0  0  0
 64144  1  0  0  0
 65145  1  0  0  0
 68 82  1  0  0  0
 71 72  2  0  0  0
 71 74  1  0  0  0
 71146  1  0  0  0
 72 75  1  0  0  0
 72147  1  0  0  0
 73 74  2  0  0  0
 73 76  1  0  0  0
 73148  1  0  0  0
 74 79  1  0  0  0
 75 76  2  0  0  0
 75 78  1  0  0  0
 76 80  1  0  0  0
 77 81  1  0  0  0
 77 82  1  0  0  0
 77 86  2  0  0  0
 78149  1  0  0  0
 78150  1  0  0  0
 78151  1  0  0  0
 79 83  1  0  0  0
 79152  1  0  0  0
 79153  1  0  0  0
 80 84  1  0  0  0
 80154  1  0  0  0
 80155  1  0  0  0
 81 83  1  0  0  0
 81156  1  0  0  0
 81157  1  0  0  0
 82158  1  0  0  0
 82159  1  0  0  0
 83160  1  0  0  0
 83161  1  0  0  0
 84 85  1  0  0  0
 84162  1  0  0  0
 84163  1  0  0  0
 85164  1  0  0  0
M  ISO  4   1 100  68 101  82 101  85 100
M  END
> <chiral flag>
0

> <version>
0

> <s_m_source_file>
/data/baiqing/PycharmProjects/Reinvent-master-3.2/result/LINK_invent/BTK/process_docking_weight1_custom_product_contain_oxygen_bond_distance_aromatic_linkinvent_7_9_3/rearranged_h_0133.sdf

> <i_m_source_file_index>
59

> <r_mmod_Potential_Energy-OPLS-2005>
-50.1077690124512

> <r_mmod_Stretch_Energy-OPLS-2005>
32.0796241760254

> <r_mmod_Bend_Energy-OPLS-2005>
100.898330688477

> <r_mmod_Torsional_Energy-OPLS-2005>
228.247497558594

> <r_mmod_Improper_Torsional_Energy-OPLS-2005>
8.37104415893555

> <r_mmod_Van_der_Waal_Energy-OPLS-2005>
159.62077331543

> <r_mmod_Electrostatic_Energy-OPLS-2005>
-372.867156982422

> <r_mmod_Solvation_Energy-OPLS-2005>
-224.909423828125

> <b_mmod_Minimization_Converged-OPLS-2005>
0

> <r_mmod_RMS_Derivative-OPLS-2005>
2.72403979301453

$$$$
59
                    3D
 Structure written by MMmdl.
172180  0  0  1  0            999 V2000
  -30.7391  -14.4479   20.4900 C   0  0  0  0  0  0
  -30.4131  -12.2532   19.4450 C   0  0  0  0  0  0
  -29.4963  -12.3985   18.2156 C   0  0  0  0  0  0
  -28.0090  -12.3353   18.6207 C   0  0  0  0  0  0
  -27.6543  -13.2061   19.8588 C   0  0  2  0  0  0
  -28.7012  -13.0400   20.9836 C   0  0  0  0  0  0
  -25.2577  -13.8171   20.5643 C   0  0  0  0  0  0
  -24.1832  -13.0445   20.9189 C   0  0  0  0  0  0
  -24.6380  -11.6915   20.8776 C   0  0  0  0  0  0
  -23.9038  -10.4295   21.0424 C   0  0  0  0  0  0
  -24.3600   -9.4215   21.9178 C   0  0  0  0  0  0
  -23.6291   -8.2246   22.0749 C   0  0  0  0  0  0
  -22.4271   -8.0282   21.3540 C   0  0  0  0  0  0
  -21.9902   -9.0240   20.4647 C   0  0  0  0  0  0
  -22.7218  -10.2130   20.3044 C   0  0  0  0  0  0
  -21.6848   -6.0738   22.5293 C   0  0  0  0  0  0
  -21.4005   -6.5647   23.8224 C   0  0  0  0  0  0
  -21.3671   -5.6799   24.9193 C   0  0  0  0  0  0
  -21.6063   -4.3064   24.7249 C   0  0  0  0  0  0
  -21.8821   -3.8161   23.4373 C   0  0  0  0  0  0
  -21.9186   -4.6970   22.3418 C   0  0  0  0  0  0
  -22.7852  -13.5220   21.1881 C   0  0  0  0  0  0
  -22.1646   -4.2172   21.0989 F   0  0  0  0  0  0
  -21.5641   -3.4527   25.7751 F   0  0  0  0  0  0
  -30.0298  -13.2949   20.4066 N   0  0  0  0  0  0
  -26.2999  -12.9323   20.3316 N   0  0  0  0  0  0
  -25.9299  -11.6498   20.5794 N   0  0  0  0  0  0
  -22.0482  -12.8208   22.0425 N   0  0  0  0  0  0
  -25.4301  -15.1901   20.4030 N   0  0  0  0  0  0
  -31.9224  -14.5347   20.1656 O   0  0  0  0  0  0
  -21.6645   -6.8871   21.4244 O   0  0  0  0  0  0
  -22.3513  -14.5497   20.6700 O   0  0  0  0  0  0
  -24.6087  -31.8731   23.2152 C   0  0  0  0  0  0
  -25.9004  -32.4857   23.8418 C   0  0  1  0  0  0
  -27.2372  -27.4976   20.0591 C   0  0  0  0  0  0
  -25.5878  -33.8655   24.2351 N   0  0  0  0  0  0
  -23.3931  -30.4983   21.5563 C   0  0  2  0  0  0
  -24.8360  -28.9681   20.1174 C   0  0  0  0  0  0
  -22.7369  -29.4692   22.5037 C   0  0  0  0  0  0
  -18.0262  -28.1394   22.8500 C   0  0  0  0  0  0
  -24.1484  -36.7326   23.2638 C   0  0  0  0  0  0
  -25.9167  -30.8514   21.3613 C   0  0  0  0  0  0
  -25.9924  -29.4881   20.7127 C   0  0  0  0  0  0
  -27.1924  -28.7512   20.6967 C   0  0  0  0  0  0
  -26.0620  -26.9648   19.4861 C   0  0  0  0  0  0
  -24.8609  -27.6989   19.5107 C   0  0  0  0  0  0
  -23.5966  -29.8315   20.1693 C   0  0  0  0  0  0
  -25.4108  -36.3142   24.0343 C   0  0  1  0  0  0
  -20.5848  -28.3664   23.1349 C   0  0  2  0  0  0
  -20.6769  -26.9412   22.5431 C   0  0  0  0  0  0
  -19.5741  -26.6401   21.5231 C   0  0  0  0  0  0
  -18.1914  -26.7941   22.1633 C   0  0  0  0  0  0
  -19.1511  -28.8847   23.2923 C   0  0  0  0  0  0
  -18.9444  -30.1456   23.8932 C   0  0  0  0  0  0
  -17.6446  -30.6602   24.0579 C   0  0  0  0  0  0
  -25.9032  -34.9503   23.5145 C   0  0  0  0  0  0
  -16.5333  -29.9111   23.6329 C   0  0  0  0  0  0
  -16.7252  -28.6529   23.0342 C   0  0  0  0  0  0
  -26.4453  -31.6620   25.0720 C   0  0  0  0  0  0
  -25.3726  -31.3701   26.1468 C   0  0  0  0  0  0
  -27.0262  -30.3073   24.6047 C   0  0  0  0  0  0
  -27.6047  -32.4330   25.7463 C   0  0  0  0  0  0
  -27.5588  -37.1816   24.8466 C   0  0  0  0  0  0
  -21.4110  -29.3029   22.3752 N   0  0  0  0  0  0
  -26.4302  -37.3819   23.9410 N   0  0  0  0  0  0
  -24.6580  -31.0871   22.1039 N   0  0  0  0  0  0
  -23.4166  -28.8235   23.3063 O   0  0  0  0  0  0
  -28.4259  -26.8201   20.0290 O   0  0  0  0  0  0
  -26.5599  -34.8942   22.4713 O   0  0  0  0  0  0
  -23.5293  -32.1470   23.7582 O   0  0  0  0  0  0
  -29.1927  -18.3479   17.2188 C   0  0  0  0  0  0
  -29.9808  -19.2170   19.7488 C   0  0  0  0  0  0
  -29.0841  -19.7127   17.5357 C   0  0  0  0  0  0
  -29.6786  -17.4116   18.1538 C   0  0  0  0  0  0
  -29.5219  -20.1583   18.8037 C   0  0  0  0  0  0
  -30.0362  -17.8354   19.4654 C   0  0  0  0  0  0
  -30.1949  -24.4515   17.7600 C   0  0  0  0  0  0
  -30.8496  -23.2759   17.7317 C   0  0  0  0  0  0
  -28.5095  -20.6629   16.4949 C   0  0  0  0  0  0
  -29.8034  -15.9792   17.6874 C   0  0  0  0  0  0
  -33.1148  -23.1675   16.6257 C   0  0  0  0  0  0
  -29.5229  -21.6294   19.1845 C   0  0  0  0  0  0
  -30.5504  -16.9255   20.5953 C   0  0  0  0  0  0
  -29.4410  -24.9869   18.9603 C   0  0  0  0  0  0
  -31.6245  -22.8297   16.5057 C   0  0  0  0  0  0
  -30.8764  -22.3218   18.9195 C   0  0  0  0  0  0
  -28.8737  -26.3857   18.7501 C   0  0  0  0  0  0
  -30.0147  -15.5599   20.6873 N   0  0  0  0  0  0
  -31.4609  -12.3213   19.1459 H   0  0  0  0  0  0
  -30.2951  -11.2686   19.8996 H   0  0  0  0  0  0
  -29.7068  -11.5988   17.5013 H   0  0  0  0  0  0
  -29.7197  -13.3209   17.6895 H   0  0  0  0  0  0
  -27.7836  -11.2891   18.8339 H   0  0  0  0  0  0
  -27.3772  -12.6057   17.7728 H   0  0  0  0  0  0
  -27.6722  -14.2440   19.5293 H   0  0  0  0  0  0
  -28.6661  -12.0290   21.3943 H   0  0  0  0  0  0
  -28.4882  -13.7116   21.8182 H   0  0  0  0  0  0
  -25.2755   -9.5699   22.4746 H   0  0  0  0  0  0
  -24.0041   -7.4625   22.7421 H   0  0  0  0  0  0
  -21.0855   -8.8732   19.8916 H   0  0  0  0  0  0
  -22.3677  -10.9655   19.6152 H   0  0  0  0  0  0
  -21.1969   -7.6152   23.9730 H   0  0  0  0  0  0
  -21.1486   -6.0528   25.9088 H   0  0  0  0  0  0
  -22.0580   -2.7625   23.2860 H   0  0  0  0  0  0
  -22.4080  -11.9870   22.4846 H   0  0  0  0  0  0
  -21.1069  -13.1204   22.2567 H   0  0  0  0  0  0
  -24.6623  -15.8453   20.5024 H   0  0  0  0  0  0
  -26.2797  -15.6294   20.0716 H   0  0  0  0  0  0
  -26.7077  -32.5581   23.1189 H   0  0  0  0  0  0
  -25.0018  -33.9832   25.0485 H   0  0  0  0  0  0
  -22.6792  -31.3144   21.4228 H   0  0  0  0  0  0
  -23.3760  -35.9646   23.3315 H   0  0  0  0  0  0
  -24.3580  -36.8924   22.2050 H   0  0  0  0  0  0
  -23.7218  -37.6529   23.6639 H   0  0  0  0  0  0
  -26.0190  -31.6172   20.5908 H   0  0  0  0  0  0
  -26.8093  -30.9092   21.9721 H   0  0  0  0  0  0
  -28.0903  -29.1532   21.1446 H   0  0  0  0  0  0
  -26.0721  -25.9895   19.0198 H   0  0  0  0  0  0
  -23.9672  -27.2882   19.0598 H   0  0  0  0  0  0
  -23.6985  -30.6090   19.4108 H   0  0  0  0  0  0
  -22.7201  -29.2506   19.8762 H   0  0  0  0  0  0
  -25.1289  -36.2023   25.0839 H   0  0  0  0  0  0
  -20.9945  -28.3237   24.1470 H   0  0  0  0  0  0
  -20.5723  -26.2268   23.3609 H   0  0  0  0  0  0
  -21.6636  -26.7501   22.1186 H   0  0  0  0  0  0
  -19.6909  -25.6319   21.1245 H   0  0  0  0  0  0
  -19.6692  -27.3235   20.6778 H   0  0  0  0  0  0
  -17.4195  -26.6706   21.4023 H   0  0  0  0  0  0
  -18.0299  -26.0079   22.9025 H   0  0  0  0  0  0
  -19.7920  -30.7267   24.2319 H   0  0  0  0  0  0
  -17.5002  -31.6288   24.5170 H   0  0  0  0  0  0
  -15.5338  -30.3028   23.7642 H   0  0  0  0  0  0
  -15.8646  -28.0870   22.7032 H   0  0  0  0  0  0
  -24.5896  -30.7063   25.7788 H   0  0  0  0  0  0
  -24.8912  -32.2841   26.4951 H   0  0  0  0  0  0
  -25.8071  -30.8832   27.0203 H   0  0  0  0  0  0
  -26.2774  -29.6849   24.1130 H   0  0  0  0  0  0
  -27.4086  -29.7296   25.4472 H   0  0  0  0  0  0
  -27.8590  -30.4412   23.9138 H   0  0  0  0  0  0
  -27.2686  -33.3622   26.2075 H   0  0  0  0  0  0
  -28.3817  -32.6905   25.0254 H   0  0  0  0  0  0
  -28.0752  -31.8428   26.5334 H   0  0  0  0  0  0
  -28.2619  -38.0105   24.7535 H   0  0  0  0  0  0
  -28.1075  -36.2644   24.6275 H   0  0  0  0  0  0
  -27.2306  -37.1445   25.8868 H   0  0  0  0  0  0
  -20.9272  -29.8711   21.6938 H   0  0  0  0  0  0
  -26.0204  -38.2901   24.1423 H   0  0  0  0  0  0
  -28.8986  -18.0129   16.2326 H   0  0  0  0  0  0
  -30.3050  -19.5697   20.7185 H   0  0  0  0  0  0
  -30.2048  -25.0820   16.8822 H   0  0  0  0  0  0
  -28.0428  -20.1105   15.6790 H   0  0  0  0  0  0
  -29.2870  -21.2909   16.0635 H   0  0  0  0  0  0
  -27.7394  -21.3052   16.9221 H   0  0  0  0  0  0
  -29.6159  -15.8758   16.6179 H   0  0  0  0  0  0
  -29.0638  -15.3775   18.2049 H   0  0  0  0  0  0
  -30.8021  -15.5880   17.8826 H   0  0  0  0  0  0
  -33.6738  -22.7855   15.7707 H   0  0  0  0  0  0
  -33.5491  -22.7357   17.5280 H   0  0  0  0  0  0
  -33.2670  -24.2474   16.6681 H   0  0  0  0  0  0
  -29.2915  -21.6920   20.2479 H   0  0  0  0  0  0
  -28.7041  -22.1539   18.6955 H   0  0  0  0  0  0
  -30.3119  -17.3942   21.5512 H   0  0  0  0  0  0
  -31.6403  -16.9383   20.5479 H   0  0  0  0  0  0
  -30.1223  -25.0019   19.8114 H   0  0  0  0  0  0
  -28.6254  -24.3146   19.2162 H   0  0  0  0  0  0
  -31.2113  -23.3018   15.6138 H   0  0  0  0  0  0
  -31.4936  -21.7568   16.3685 H   0  0  0  0  0  0
  -31.1416  -22.9068   19.8004 H   0  0  0  0  0  0
  -31.6821  -21.5940   18.8149 H   0  0  0  0  0  0
  -28.1020  -26.3708   17.9783 H   0  0  0  0  0  0
  -29.6485  -27.0708   18.4031 H   0  0  0  0  0  0
  -29.0270  -15.4587   20.8540 H   0  0  0  0  0  0
  1 25  1  0  0  0
  1 30  2  0  0  0
  1 88  1  0  0  0
  2  3  1  0  0  0
  2 25  1  0  0  0
  2 89  1  0  0  0
  2 90  1  0  0  0
  3  4  1  0  0  0
  3 91  1  0  0  0
  3 92  1  0  0  0
  4  5  1  0  0  0
  4 93  1  0  0  0
  4 94  1  0  0  0
  5  6  1  0  0  0
  5 26  1  0  0  0
  5 95  1  0  0  0
  6 25  1  0  0  0
  6 96  1  0  0  0
  6 97  1  0  0  0
  7  8  2  0  0  0
  7 26  1  0  0  0
  7 29  1  0  0  0
  8  9  1  0  0  0
  8 22  1  0  0  0
  9 10  1  0  0  0
  9 27  2  0  0  0
 10 11  2  0  0  0
 10 15  1  0  0  0
 11 12  1  0  0  0
 11 98  1  0  0  0
 12 13  2  0  0  0
 12 99  1  0  0  0
 13 14  1  0  0  0
 13 31  1  0  0  0
 14 15  2  0  0  0
 14100  1  0  0  0
 15101  1  0  0  0
 16 17  2  0  0  0
 16 21  1  0  0  0
 16 31  1  0  0  0
 17 18  1  0  0  0
 17102  1  0  0  0
 18 19  2  0  0  0
 18103  1  0  0  0
 19 20  1  0  0  0
 19 24  1  0  0  0
 20 21  2  0  0  0
 20104  1  0  0  0
 21 23  1  0  0  0
 22 28  1  0  0  0
 22 32  2  0  0  0
 26 27  1  0  0  0
 28105  1  0  0  0
 28106  1  0  0  0
 29107  1  0  0  0
 29108  1  0  0  0
 33 34  1  0  0  0
 33 66  1  0  0  0
 33 70  2  0  0  0
 34 36  1  0  0  0
 34 59  1  0  0  0
 34109  1  0  0  0
 35 44  2  0  0  0
 35 45  1  0  0  0
 35 68  1  0  0  0
 36 56  1  0  0  0
 36110  1  0  0  0
 37 39  1  0  0  0
 37 47  1  0  0  0
 37 66  1  0  0  0
 37111  1  0  0  0
 38 43  2  0  0  0
 38 46  1  0  0  0
 38 47  1  0  0  0
 39 64  1  0  0  0
 39 67  2  0  0  0
 40 52  1  0  0  0
 40 53  2  0  0  0
 40 58  1  0  0  0
 41112  1  0  0  0
 41113  1  0  0  0
 41114  1  0  0  0
 41 48  1  0  0  0
 42 43  1  0  0  0
 42 66  1  0  0  0
 42115  1  0  0  0
 42116  1  0  0  0
 43 44  1  0  0  0
 44117  1  0  0  0
 45 46  2  0  0  0
 45118  1  0  0  0
 46119  1  0  0  0
 47120  1  0  0  0
 47121  1  0  0  0
 48 56  1  0  0  0
 48 65  1  0  0  0
 48122  1  0  0  0
 49 50  1  0  0  0
 49 53  1  0  0  0
 49 64  1  0  0  0
 49123  1  0  0  0
 50 51  1  0  0  0
 50124  1  0  0  0
 50125  1  0  0  0
 51 52  1  0  0  0
 51126  1  0  0  0
 51127  1  0  0  0
 52128  1  0  0  0
 52129  1  0  0  0
 53 54  1  0  0  0
 54 55  2  0  0  0
 54130  1  0  0  0
 55 57  1  0  0  0
 55131  1  0  0  0
 56 69  2  0  0  0
 57 58  2  0  0  0
 57132  1  0  0  0
 58133  1  0  0  0
 59 60  1  0  0  0
 59 61  1  0  0  0
 59 62  1  0  0  0
 60134  1  0  0  0
 60135  1  0  0  0
 60136  1  0  0  0
 61137  1  0  0  0
 61138  1  0  0  0
 61139  1  0  0  0
 62140  1  0  0  0
 62141  1  0  0  0
 62142  1  0  0  0
 63 65  1  0  0  0
 63143  1  0  0  0
 63144  1  0  0  0
 63145  1  0  0  0
 64146  1  0  0  0
 65147  1  0  0  0
 68 87  1  0  0  0
 71 73  2  0  0  0
 71 74  1  0  0  0
 71148  1  0  0  0
 72 75  2  0  0  0
 72 76  1  0  0  0
 72149  1  0  0  0
 73 75  1  0  0  0
 73 79  1  0  0  0
 74 76  2  0  0  0
 74 80  1  0  0  0
 75 82  1  0  0  0
 76 83  1  0  0  0
 77 78  2  0  0  0
 77 84  1  0  0  0
 77150  1  0  0  0
 78 85  1  0  0  0
 78 86  1  0  0  0
 79151  1  0  0  0
 79152  1  0  0  0
 79153  1  0  0  0
 80154  1  0  0  0
 80155  1  0  0  0
 80156  1  0  0  0
 81 85  1  0  0  0
 81157  1  0  0  0
 81158  1  0  0  0
 81159  1  0  0  0
 82 86  1  0  0  0
 82160  1  0  0  0
 82161  1  0  0  0
 83 88  1  0  0  0
 83162  1  0  0  0
 83163  1  0  0  0
 84 87  1  0  0  0
 84164  1  0  0  0
 84165  1  0  0  0
 85166  1  0  0  0
 85167  1  0  0  0
 86168  1  0  0  0
 86169  1  0  0  0
 87170  1  0  0  0
 87171  1  0  0  0
 88172  1  0  0  0
M  ISO  4   1 100  68 101  87 101  88 100
M  END
> <chiral flag>
0

> <version>
0

> <s_m_source_file>
/data/baiqing/PycharmProjects/Reinvent-master-3.2/result/LINK_invent/BTK/process_docking_weight1_custom_product_contain_oxygen_bond_distance_aromatic_linkinvent_7_9_3/rearranged_h_0133.sdf

> <i_m_source_file_index>
60

> <r_mmod_Potential_Energy-OPLS-2005>
-76.2990417480469

> <r_mmod_Stretch_Energy-OPLS-2005>
32.8007469177246

> <r_mmod_Bend_Energy-OPLS-2005>
101.580238342285

> <r_mmod_Torsional_Energy-OPLS-2005>
239.568450927734

> <r_mmod_Improper_Torsional_Energy-OPLS-2005>
6.17175769805908

> <r_mmod_Van_der_Waal_Energy-OPLS-2005>
157.679702758789

> <r_mmod_Electrostatic_Energy-OPLS-2005>
-437.86083984375

> <r_mmod_Solvation_Energy-OPLS-2005>
-196.596481323242

> <b_mmod_Minimization_Converged-OPLS-2005>
0

> <r_mmod_RMS_Derivative-OPLS-2005>
3.11273312568665

$$$$
60
                    3D
 Structure written by MMmdl.
168176  0  0  1  0            999 V2000
  -30.6795  -14.5748   20.5125 C   0  0  0  0  0  0
  -30.4389  -12.3622   19.4190 C   0  0  0  0  0  0
  -29.4978  -12.4689   18.1970 C   0  0  0  0  0  0
  -28.0156  -12.3424   18.6129 C   0  0  0  0  0  0
  -27.6510  -13.2241   19.8373 C   0  0  2  0  0  0
  -28.7066  -13.0731   20.9597 C   0  0  0  0  0  0
  -25.2530  -13.8193   20.5657 C   0  0  0  0  0  0
  -24.1836  -13.0469   20.9203 C   0  0  0  0  0  0
  -24.6413  -11.6909   20.8723 C   0  0  0  0  0  0
  -23.9063  -10.4312   21.0370 C   0  0  0  0  0  0
  -24.3577   -9.4230   21.9181 C   0  0  0  0  0  0
  -23.6262   -8.2269   22.0743 C   0  0  0  0  0  0
  -22.4274   -8.0269   21.3530 C   0  0  0  0  0  0
  -21.9881   -9.0243   20.4651 C   0  0  0  0  0  0
  -22.7186  -10.2142   20.3064 C   0  0  0  0  0  0
  -21.6846   -6.0714   22.5308 C   0  0  0  0  0  0
  -21.4004   -6.5606   23.8229 C   0  0  0  0  0  0
  -21.3659   -5.6757   24.9188 C   0  0  0  0  0  0
  -21.6062   -4.3017   24.7260 C   0  0  0  0  0  0
  -21.8815   -3.8124   23.4369 C   0  0  0  0  0  0
  -21.9179   -4.6943   22.3427 C   0  0  0  0  0  0
  -22.7840  -13.5196   21.1901 C   0  0  0  0  0  0
  -22.1652   -4.2113   21.1012 F   0  0  0  0  0  0
  -21.5654   -3.4510   25.7774 F   0  0  0  0  0  0
  -30.0234  -13.3868   20.3871 N   0  0  0  0  0  0
  -26.2991  -12.9409   20.3239 N   0  0  0  0  0  0
  -25.9356  -11.6547   20.5702 N   0  0  0  0  0  0
  -22.0461  -12.8233   22.0426 N   0  0  0  0  0  0
  -25.4238  -15.1934   20.3992 N   0  0  0  0  0  0
  -31.8683  -14.7095   20.2109 O   0  0  0  0  0  0
  -21.6617   -6.8876   21.4278 O   0  0  0  0  0  0
  -22.3535  -14.5485   20.6659 O   0  0  0  0  0  0
  -24.6136  -31.8712   23.2154 C   0  0  0  0  0  0
  -25.9053  -32.4820   23.8398 C   0  0  1  0  0  0
  -27.2183  -27.4287   20.1004 C   0  0  0  0  0  0
  -25.5916  -33.8609   24.2306 N   0  0  0  0  0  0
  -23.3935  -30.5056   21.5557 C   0  0  2  0  0  0
  -24.8294  -28.9661   20.1148 C   0  0  0  0  0  0
  -22.7370  -29.4773   22.5086 C   0  0  0  0  0  0
  -18.0285  -28.1296   22.8787 C   0  0  0  0  0  0
  -24.1485  -36.7326   23.2632 C   0  0  0  0  0  0
  -25.9302  -30.8318   21.3660 C   0  0  0  0  0  0
  -25.9945  -29.4732   20.7004 C   0  0  0  0  0  0
  -27.1899  -28.7178   20.6745 C   0  0  0  0  0  0
  -26.0181  -26.9184   19.5504 C   0  0  0  0  0  0
  -24.8437  -27.6912   19.5215 C   0  0  0  0  0  0
  -23.5954  -29.8388   20.1661 C   0  0  0  0  0  0
  -25.4113  -36.3117   24.0315 C   0  0  1  0  0  0
  -20.5859  -28.3772   23.1417 C   0  0  2  0  0  0
  -20.6801  -26.9531   22.5579 C   0  0  0  0  0  0
  -19.5763  -26.6514   21.5475 C   0  0  0  0  0  0
  -18.2013  -26.7807   22.2096 C   0  0  0  0  0  0
  -19.1496  -28.8850   23.3082 C   0  0  0  0  0  0
  -18.9406  -30.1553   23.8833 C   0  0  0  0  0  0
  -17.6420  -30.6651   24.0509 C   0  0  0  0  0  0
  -25.9050  -34.9473   23.5120 C   0  0  0  0  0  0
  -16.5357  -29.9051   23.6398 C   0  0  0  0  0  0
  -16.7258  -28.6399   23.0648 C   0  0  0  0  0  0
  -26.4466  -31.6593   25.0727 C   0  0  0  0  0  0
  -25.3723  -31.3714   26.1478 C   0  0  0  0  0  0
  -27.0275  -30.3007   24.6127 C   0  0  0  0  0  0
  -27.6018  -32.4329   25.7495 C   0  0  0  0  0  0
  -27.5596  -37.1805   24.8470 C   0  0  0  0  0  0
  -21.4110  -29.3141   22.3812 N   0  0  0  0  0  0
  -26.4337  -37.3786   23.9376 N   0  0  0  0  0  0
  -24.6630  -31.0851   22.1017 N   0  0  0  0  0  0
  -23.4167  -28.8321   23.3137 O   0  0  0  0  0  0
  -28.4156  -26.7351   20.1157 O   0  0  0  0  0  0
  -26.5630  -34.8920   22.4685 O   0  0  0  0  0  0
  -23.5321  -32.1537   23.7513 O   0  0  0  0  0  0
  -28.1882  -20.2186   18.9517 C   0  0  0  0  0  0
  -29.3393  -18.0567   19.0227 C   0  0  0  0  0  0
  -29.0644  -19.3671   21.0584 C   0  0  0  0  0  0
  -28.6799  -19.0725   18.2981 C   0  0  0  0  0  0
  -28.3943  -20.3989   20.3409 C   0  0  0  0  0  0
  -29.5327  -18.1739   20.4118 C   0  0  0  0  0  0
  -28.5481  -18.9372   16.7905 C   0  0  0  0  0  0
  -30.6185  -23.3259   22.2592 C   0  0  0  0  0  0
  -28.0321  -24.8430   22.0802 C   0  0  0  0  0  0
  -27.8250  -21.6497   21.0702 C   0  0  0  0  0  0
  -30.2968  -17.0421   21.1512 C   0  0  0  0  0  0
  -30.1132  -23.8810   20.9127 C   0  0  0  0  0  0
  -27.7682  -23.0124   20.2872 C   0  0  0  0  0  0
  -28.5023  -25.3698   19.6484 C   0  0  0  0  0  0
  -28.6045  -24.2575   20.7660 C   0  0  1  0  0  0
  -29.9059  -15.6529   20.7964 N   0  0  0  0  0  0
  -31.4816  -12.4858   19.1034 H   0  0  0  0  0  0
  -30.3901  -11.3757   19.8801 H   0  0  0  0  0  0
  -29.7479  -11.6974   17.4651 H   0  0  0  0  0  0
  -29.6573  -13.4260   17.6970 H   0  0  0  0  0  0
  -27.8313  -11.2911   18.8439 H   0  0  0  0  0  0
  -27.3720  -12.5878   17.7701 H   0  0  0  0  0  0
  -27.6667  -14.2559   19.4775 H   0  0  0  0  0  0
  -28.7179  -12.0520   21.3403 H   0  0  0  0  0  0
  -28.4760  -13.7149   21.8090 H   0  0  0  0  0  0
  -25.2728   -9.5678   22.4731 H   0  0  0  0  0  0
  -23.9929   -7.4656   22.7446 H   0  0  0  0  0  0
  -21.0805   -8.8756   19.8966 H   0  0  0  0  0  0
  -22.3622  -10.9652   19.6149 H   0  0  0  0  0  0
  -21.1992   -7.6113   23.9718 H   0  0  0  0  0  0
  -21.1473   -6.0495   25.9073 H   0  0  0  0  0  0
  -22.0587   -2.7591   23.2902 H   0  0  0  0  0  0
  -22.3960  -11.9882   22.4859 H   0  0  0  0  0  0
  -21.1131  -13.1356   22.2690 H   0  0  0  0  0  0
  -24.6568  -15.8471   20.4949 H   0  0  0  0  0  0
  -26.2550  -15.6261   20.0226 H   0  0  0  0  0  0
  -26.7123  -32.5508   23.1161 H   0  0  0  0  0  0
  -25.0012  -33.9762   25.0410 H   0  0  0  0  0  0
  -22.6781  -31.3252   21.4309 H   0  0  0  0  0  0
  -23.3740  -35.9691   23.3363 H   0  0  0  0  0  0
  -24.3576  -36.8866   22.2050 H   0  0  0  0  0  0
  -23.7291  -37.6556   23.6620 H   0  0  0  0  0  0
  -26.0607  -31.5992   20.6046 H   0  0  0  0  0  0
  -26.8186  -30.8732   21.9836 H   0  0  0  0  0  0
  -28.0925  -29.1220   21.1073 H   0  0  0  0  0  0
  -25.9482  -25.9109   19.1634 H   0  0  0  0  0  0
  -23.9476  -27.2831   19.0673 H   0  0  0  0  0  0
  -23.6900  -30.6204   19.4038 H   0  0  0  0  0  0
  -22.7148  -29.2537   19.8918 H   0  0  0  0  0  0
  -25.1295  -36.1994   25.0823 H   0  0  0  0  0  0
  -20.9936  -28.3280   24.1525 H   0  0  0  0  0  0
  -20.5860  -26.2395   23.3762 H   0  0  0  0  0  0
  -21.6645  -26.7771   22.1304 H   0  0  0  0  0  0
  -19.7078  -25.6555   21.1260 H   0  0  0  0  0  0
  -19.6557  -27.3518   20.7123 H   0  0  0  0  0  0
  -17.4191  -26.6230   21.4673 H   0  0  0  0  0  0
  -18.0693  -26.0097   22.9696 H   0  0  0  0  0  0
  -19.7894  -30.7506   24.1913 H   0  0  0  0  0  0
  -17.4829  -31.6451   24.4798 H   0  0  0  0  0  0
  -15.5372  -30.2956   23.7618 H   0  0  0  0  0  0
  -15.8598  -28.0724   22.7569 H   0  0  0  0  0  0
  -24.5905  -30.7053   25.7847 H   0  0  0  0  0  0
  -24.8905  -32.2866   26.4896 H   0  0  0  0  0  0
  -25.8061  -30.8918   27.0250 H   0  0  0  0  0  0
  -26.2836  -29.6797   24.1129 H   0  0  0  0  0  0
  -27.3989  -29.7206   25.4577 H   0  0  0  0  0  0
  -27.8707  -30.4303   23.9349 H   0  0  0  0  0  0
  -27.2623  -33.3617   26.2084 H   0  0  0  0  0  0
  -28.3826  -32.6894   25.0335 H   0  0  0  0  0  0
  -28.0731  -31.8461   26.5386 H   0  0  0  0  0  0
  -28.2615  -38.0080   24.7471 H   0  0  0  0  0  0
  -28.1064  -36.2601   24.6363 H   0  0  0  0  0  0
  -27.2287  -37.1564   25.8861 H   0  0  0  0  0  0
  -20.9376  -29.8684   21.6854 H   0  0  0  0  0  0
  -26.0216  -38.2874   24.1312 H   0  0  0  0  0  0
  -27.6528  -20.9581   18.3763 H   0  0  0  0  0  0
  -29.7179  -17.1914   18.4971 H   0  0  0  0  0  0
  -29.2045  -19.5058   22.1261 H   0  0  0  0  0  0
  -28.3721  -19.9031   16.3173 H   0  0  0  0  0  0
  -27.7360  -18.2582   16.5174 H   0  0  0  0  0  0
  -29.4767  -18.5402   16.3718 H   0  0  0  0  0  0
  -30.2104  -22.3466   22.5058 H   0  0  0  0  0  0
  -30.4286  -23.9963   23.0914 H   0  0  0  0  0  0
  -31.6950  -23.1979   22.2158 H   0  0  0  0  0  0
  -27.9678  -24.1124   22.8824 H   0  0  0  0  0  0
  -27.0330  -25.2530   21.9417 H   0  0  0  0  0  0
  -28.6475  -25.6670   22.4536 H   0  0  0  0  0  0
  -28.2558  -21.7806   22.0605 H   0  0  0  0  0  0
  -26.7946  -21.3733   21.2942 H   0  0  0  0  0  0
  -30.1534  -17.1531   22.2275 H   0  0  0  0  0  0
  -31.3676  -17.1814   20.9736 H   0  0  0  0  0  0
  -30.3492  -23.1594   20.1315 H   0  0  0  0  0  0
  -30.7337  -24.7516   20.6868 H   0  0  0  0  0  0
  -26.7120  -23.2908   20.2335 H   0  0  0  0  0  0
  -28.0367  -22.8436   19.2467 H   0  0  0  0  0  0
  -27.7764  -25.1162   18.8745 H   0  0  0  0  0  0
  -29.4297  -25.3875   19.0735 H   0  0  0  0  0  0
  -28.9152  -15.4866   20.7979 H   0  0  0  0  0  0
  1 25  1  0  0  0
  1 30  2  0  0  0
  1 86  1  0  0  0
  2  3  1  0  0  0
  2 25  1  0  0  0
  2 87  1  0  0  0
  2 88  1  0  0  0
  3  4  1  0  0  0
  3 89  1  0  0  0
  3 90  1  0  0  0
  4  5  1  0  0  0
  4 91  1  0  0  0
  4 92  1  0  0  0
  5  6  1  0  0  0
  5 26  1  0  0  0
  5 93  1  0  0  0
  6 25  1  0  0  0
  6 94  1  0  0  0
  6 95  1  0  0  0
  7  8  2  0  0  0
  7 26  1  0  0  0
  7 29  1  0  0  0
  8  9  1  0  0  0
  8 22  1  0  0  0
  9 10  1  0  0  0
  9 27  2  0  0  0
 10 11  2  0  0  0
 10 15  1  0  0  0
 11 12  1  0  0  0
 11 96  1  0  0  0
 12 13  2  0  0  0
 12 97  1  0  0  0
 13 14  1  0  0  0
 13 31  1  0  0  0
 14 15  2  0  0  0
 14 98  1  0  0  0
 15 99  1  0  0  0
 16 17  2  0  0  0
 16 21  1  0  0  0
 16 31  1  0  0  0
 17 18  1  0  0  0
 17100  1  0  0  0
 18 19  2  0  0  0
 18101  1  0  0  0
 19 20  1  0  0  0
 19 24  1  0  0  0
 20 21  2  0  0  0
 20102  1  0  0  0
 21 23  1  0  0  0
 22 28  1  0  0  0
 22 32  2  0  0  0
 26 27  1  0  0  0
 28103  1  0  0  0
 28104  1  0  0  0
 29105  1  0  0  0
 29106  1  0  0  0
 33 34  1  0  0  0
 33 66  1  0  0  0
 33 70  2  0  0  0
 34 36  1  0  0  0
 34 59  1  0  0  0
 34107  1  0  0  0
 35 44  2  0  0  0
 35 45  1  0  0  0
 35 68  1  0  0  0
 36 56  1  0  0  0
 36108  1  0  0  0
 37 39  1  0  0  0
 37 47  1  0  0  0
 37 66  1  0  0  0
 37109  1  0  0  0
 38 43  2  0  0  0
 38 46  1  0  0  0
 38 47  1  0  0  0
 39 64  1  0  0  0
 39 67  2  0  0  0
 40 52  1  0  0  0
 40 53  2  0  0  0
 40 58  1  0  0  0
 41110  1  0  0  0
 41111  1  0  0  0
 41112  1  0  0  0
 41 48  1  0  0  0
 42 43  1  0  0  0
 42 66  1  0  0  0
 42113  1  0  0  0
 42114  1  0  0  0
 43 44  1  0  0  0
 44115  1  0  0  0
 45 46  2  0  0  0
 45116  1  0  0  0
 46117  1  0  0  0
 47118  1  0  0  0
 47119  1  0  0  0
 48 56  1  0  0  0
 48 65  1  0  0  0
 48120  1  0  0  0
 49 50  1  0  0  0
 49 53  1  0  0  0
 49 64  1  0  0  0
 49121  1  0  0  0
 50 51  1  0  0  0
 50122  1  0  0  0
 50123  1  0  0  0
 51 52  1  0  0  0
 51124  1  0  0  0
 51125  1  0  0  0
 52126  1  0  0  0
 52127  1  0  0  0
 53 54  1  0  0  0
 54 55  2  0  0  0
 54128  1  0  0  0
 55 57  1  0  0  0
 55129  1  0  0  0
 56 69  2  0  0  0
 57 58  2  0  0  0
 57130  1  0  0  0
 58131  1  0  0  0
 59 60  1  0  0  0
 59 61  1  0  0  0
 59 62  1  0  0  0
 60132  1  0  0  0
 60133  1  0  0  0
 60134  1  0  0  0
 61135  1  0  0  0
 61136  1  0  0  0
 61137  1  0  0  0
 62138  1  0  0  0
 62139  1  0  0  0
 62140  1  0  0  0
 63 65  1  0  0  0
 63141  1  0  0  0
 63142  1  0  0  0
 63143  1  0  0  0
 64144  1  0  0  0
 65145  1  0  0  0
 68 84  1  0  0  0
 71 74  2  0  0  0
 71 75  1  0  0  0
 71146  1  0  0  0
 72 74  1  0  0  0
 72 76  2  0  0  0
 72147  1  0  0  0
 73 75  2  0  0  0
 73 76  1  0  0  0
 73148  1  0  0  0
 74 77  1  0  0  0
 75 80  1  0  0  0
 76 81  1  0  0  0
 77149  1  0  0  0
 77150  1  0  0  0
 77151  1  0  0  0
 78 82  1  0  0  0
 78152  1  0  0  0
 78153  1  0  0  0
 78154  1  0  0  0
 79155  1  0  0  0
 79156  1  0  0  0
 79157  1  0  0  0
 79 85  1  0  0  0
 80 83  1  0  0  0
 80158  1  0  0  0
 80159  1  0  0  0
 81 86  1  0  0  0
 81160  1  0  0  0
 81161  1  0  0  0
 82 85  1  0  0  0
 82162  1  0  0  0
 82163  1  0  0  0
 83 85  1  0  0  0
 83164  1  0  0  0
 83165  1  0  0  0
 84 85  1  0  0  0
 84166  1  0  0  0
 84167  1  0  0  0
 86168  1  0  0  0
M  ISO  4   1 100  68 101  84 101  86 100
M  END
> <chiral flag>
0

> <version>
0

> <s_m_source_file>
/data/baiqing/PycharmProjects/Reinvent-master-3.2/result/LINK_invent/BTK/process_docking_weight1_custom_product_contain_oxygen_bond_distance_aromatic_linkinvent_7_9_3/rearranged_h_0133.sdf

> <i_m_source_file_index>
61

> <r_mmod_Potential_Energy-OPLS-2005>
9.40901947021484

> <r_mmod_Stretch_Energy-OPLS-2005>
55.069995880127

> <r_mmod_Bend_Energy-OPLS-2005>
136.393859863281

> <r_mmod_Torsional_Energy-OPLS-2005>
243.798736572266

> <r_mmod_Improper_Torsional_Energy-OPLS-2005>
4.59562063217163

> <r_mmod_Van_der_Waal_Energy-OPLS-2005>
155.567718505859

> <r_mmod_Electrostatic_Energy-OPLS-2005>
-423.371398925781

> <r_mmod_Solvation_Energy-OPLS-2005>
-191.530395507812

> <b_mmod_Minimization_Converged-OPLS-2005>
0

> <r_mmod_RMS_Derivative-OPLS-2005>
11.5602350234985

$$$$
61
                    3D
 Structure written by MMmdl.
166174  0  0  1  0            999 V2000
  -30.6687  -14.4029   20.6160 C   0  0  0  0  0  0
  -30.4357  -12.2787   19.3991 C   0  0  0  0  0  0
  -29.4957  -12.5214   18.1995 C   0  0  0  0  0  0
  -28.0152  -12.3756   18.6068 C   0  0  0  0  0  0
  -27.6717  -13.1829   19.8866 C   0  0  2  0  0  0
  -28.7075  -12.8785   20.9945 C   0  0  0  0  0  0
  -25.2638  -13.8111   20.5627 C   0  0  0  0  0  0
  -24.1857  -13.0426   20.9119 C   0  0  0  0  0  0
  -24.6371  -11.6885   20.8703 C   0  0  0  0  0  0
  -23.9026  -10.4283   21.0404 C   0  0  0  0  0  0
  -24.3597   -9.4189   21.9166 C   0  0  0  0  0  0
  -23.6279   -8.2229   22.0734 C   0  0  0  0  0  0
  -22.4259   -8.0271   21.3539 C   0  0  0  0  0  0
  -21.9879   -9.0238   20.4628 C   0  0  0  0  0  0
  -22.7204  -10.2117   20.3041 C   0  0  0  0  0  0
  -21.6843   -6.0718   22.5267 C   0  0  0  0  0  0
  -21.3999   -6.5627   23.8197 C   0  0  0  0  0  0
  -21.3656   -5.6778   24.9162 C   0  0  0  0  0  0
  -21.6049   -4.3038   24.7219 C   0  0  0  0  0  0
  -21.8838   -3.8126   23.4344 C   0  0  0  0  0  0
  -21.9195   -4.6942   22.3397 C   0  0  0  0  0  0
  -22.7886  -13.5254   21.1811 C   0  0  0  0  0  0
  -22.1679   -4.2128   21.0982 F   0  0  0  0  0  0
  -21.5621   -3.4536   25.7735 F   0  0  0  0  0  0
  -30.0515  -13.2018   20.4724 N   0  0  0  0  0  0
  -26.3063  -12.9225   20.3375 N   0  0  0  0  0  0
  -25.9283  -11.6415   20.5738 N   0  0  0  0  0  0
  -22.0542  -12.8244   22.0376 N   0  0  0  0  0  0
  -25.4416  -15.1810   20.4014 N   0  0  0  0  0  0
  -31.7275  -14.7053   20.0556 O   0  0  0  0  0  0
  -21.6631   -6.8864   21.4232 O   0  0  0  0  0  0
  -22.3581  -14.5573   20.6667 O   0  0  0  0  0  0
  -24.6111  -31.8704   23.2102 C   0  0  0  0  0  0
  -25.9030  -32.4826   23.8375 C   0  0  1  0  0  0
  -27.2432  -27.4668   20.0779 C   0  0  0  0  0  0
  -25.5934  -33.8624   24.2328 N   0  0  0  0  0  0
  -23.3958  -30.4938   21.5509 C   0  0  2  0  0  0
  -24.8404  -28.9566   20.1174 C   0  0  0  0  0  0
  -22.7363  -29.4679   22.4991 C   0  0  0  0  0  0
  -18.0269  -28.1373   22.8472 C   0  0  0  0  0  0
  -24.1503  -36.7290   23.2627 C   0  0  0  0  0  0
  -25.9200  -30.8417   21.3605 C   0  0  0  0  0  0
  -25.9954  -29.4767   20.7108 C   0  0  0  0  0  0
  -27.1926  -28.7337   20.6967 C   0  0  0  0  0  0
  -26.0627  -26.9388   19.5045 C   0  0  0  0  0  0
  -24.8648  -27.6825   19.5212 C   0  0  0  0  0  0
  -23.6020  -29.8239   20.1654 C   0  0  0  0  0  0
  -25.4123  -36.3104   24.0331 C   0  0  1  0  0  0
  -20.5850  -28.3661   23.1314 C   0  0  2  0  0  0
  -20.6772  -26.9406   22.5401 C   0  0  0  0  0  0
  -19.5755  -26.6391   21.5193 C   0  0  0  0  0  0
  -18.1933  -26.7926   22.1608 C   0  0  0  0  0  0
  -19.1514  -28.8833   23.2898 C   0  0  0  0  0  0
  -18.9456  -30.1441   23.8913 C   0  0  0  0  0  0
  -17.6459  -30.6580   24.0570 C   0  0  0  0  0  0
  -25.9044  -34.9475   23.5119 C   0  0  0  0  0  0
  -16.5347  -29.9082   23.6337 C   0  0  0  0  0  0
  -16.7259  -28.6507   23.0339 C   0  0  0  0  0  0
  -26.4480  -31.6594   25.0684 C   0  0  0  0  0  0
  -25.3750  -31.3721   26.1441 C   0  0  0  0  0  0
  -27.0285  -30.3026   24.6045 C   0  0  0  0  0  0
  -27.6084  -32.4289   25.7430 C   0  0  0  0  0  0
  -27.5598  -37.1789   24.8456 C   0  0  0  0  0  0
  -21.4107  -29.3030   22.3717 N   0  0  0  0  0  0
  -26.4297  -37.3795   23.9418 N   0  0  0  0  0  0
  -24.6596  -31.0826   22.0999 N   0  0  0  0  0  0
  -23.4145  -28.8230   23.3045 O   0  0  0  0  0  0
  -28.4612  -26.8246   20.0797 O   0  0  0  0  0  0
  -26.5577  -34.8921   22.4655 O   0  0  0  0  0  0
  -23.5318  -32.1456   23.7531 O   0  0  0  0  0  0
  -32.1262  -19.1019   22.3772 C   0  0  0  0  0  0
  -30.2658  -18.9463   20.2975 C   0  0  0  0  0  0
  -31.3837  -17.9126   22.2061 C   0  0  0  0  0  0
  -31.9470  -20.2084   21.5207 C   0  0  0  0  0  0
  -30.4600  -17.8200   21.1271 C   0  0  0  0  0  0
  -30.9819  -20.1384   20.4970 C   0  0  0  0  0  0
  -31.6049  -16.7917   23.2087 C   0  0  0  0  0  0
  -33.9298  -21.5247   20.6651 C   0  0  0  0  0  0
  -32.7959  -21.4573   21.6968 C   0  0  0  0  0  0
  -29.5834  -16.6120   20.7931 C   0  0  0  0  0  0
  -28.7451  -24.4171   20.0240 C   0  0  0  0  0  0
  -29.7492  -23.3973   19.4567 C   0  0  0  0  0  0
  -28.7205  -25.7232   19.2161 C   0  0  0  0  0  0
  -29.6811  -22.0363   20.1592 C   0  0  0  0  0  0
  -29.9323  -15.2879   21.2936 N   0  0  0  0  0  0
  -30.7432  -21.2173   19.6880 O   0  0  0  0  0  0
  -31.4743  -12.4144   19.0889 H   0  0  0  0  0  0
  -30.3589  -11.2483   19.7499 H   0  0  0  0  0  0
  -29.7358  -11.8317   17.3898 H   0  0  0  0  0  0
  -29.6626  -13.5255   17.8068 H   0  0  0  0  0  0
  -27.8142  -11.3168   18.7716 H   0  0  0  0  0  0
  -27.3680  -12.6808   17.7845 H   0  0  0  0  0  0
  -27.7392  -14.2412   19.6347 H   0  0  0  0  0  0
  -28.6717  -11.8192   21.2536 H   0  0  0  0  0  0
  -28.4594  -13.3966   21.9217 H   0  0  0  0  0  0
  -25.2757   -9.5651   22.4720 H   0  0  0  0  0  0
  -23.9980   -7.4613   22.7440 H   0  0  0  0  0  0
  -21.0803   -8.8749   19.8940 H   0  0  0  0  0  0
  -22.3665  -10.9648   19.6139 H   0  0  0  0  0  0
  -21.1987   -7.6124   23.9695 H   0  0  0  0  0  0
  -21.1465   -6.0509   25.9066 H   0  0  0  0  0  0
  -22.0628   -2.7585   23.2862 H   0  0  0  0  0  0
  -22.4196  -11.9899   22.4730 H   0  0  0  0  0  0
  -21.1162  -13.1253   22.2635 H   0  0  0  0  0  0
  -24.6751  -15.8419   20.4720 H   0  0  0  0  0  0
  -26.3006  -15.6030   20.0731 H   0  0  0  0  0  0
  -26.7096  -32.5549   23.1135 H   0  0  0  0  0  0
  -25.0172  -33.9802   25.0537 H   0  0  0  0  0  0
  -22.6828  -31.3093   21.4133 H   0  0  0  0  0  0
  -23.3776  -35.9608   23.3286 H   0  0  0  0  0  0
  -24.3610  -36.8900   22.2041 H   0  0  0  0  0  0
  -23.7232  -37.6483   23.6643 H   0  0  0  0  0  0
  -26.0302  -31.6095   20.5932 H   0  0  0  0  0  0
  -26.8077  -30.8930   21.9785 H   0  0  0  0  0  0
  -28.0874  -29.1383   21.1483 H   0  0  0  0  0  0
  -26.0451  -25.9596   19.0495 H   0  0  0  0  0  0
  -23.9695  -27.2685   19.0785 H   0  0  0  0  0  0
  -23.7083  -30.5982   19.4041 H   0  0  0  0  0  0
  -22.7249  -29.2446   19.8731 H   0  0  0  0  0  0
  -25.1292  -36.1960   25.0819 H   0  0  0  0  0  0
  -20.9934  -28.3240   24.1438 H   0  0  0  0  0  0
  -20.5702  -26.2258   23.3572 H   0  0  0  0  0  0
  -21.6651  -26.7487   22.1189 H   0  0  0  0  0  0
  -19.6932  -25.6309   21.1215 H   0  0  0  0  0  0
  -19.6698  -27.3206   20.6727 H   0  0  0  0  0  0
  -17.4192  -26.6639   21.4025 H   0  0  0  0  0  0
  -18.0366  -26.0074   22.9015 H   0  0  0  0  0  0
  -19.7930  -30.7254   24.2280 H   0  0  0  0  0  0
  -17.5019  -31.6265   24.5167 H   0  0  0  0  0  0
  -15.5353  -30.2992   23.7675 H   0  0  0  0  0  0
  -15.8653  -28.0849   22.7034 H   0  0  0  0  0  0
  -24.5895  -30.7106   25.7778 H   0  0  0  0  0  0
  -24.8979  -32.2895   26.4899 H   0  0  0  0  0  0
  -25.8093  -30.8862   27.0185 H   0  0  0  0  0  0
  -26.2802  -29.6777   24.1149 H   0  0  0  0  0  0
  -27.4112  -29.7278   25.4493 H   0  0  0  0  0  0
  -27.8626  -30.4333   23.9138 H   0  0  0  0  0  0
  -27.2735  -33.3583   26.2051 H   0  0  0  0  0  0
  -28.3866  -32.6849   25.0227 H   0  0  0  0  0  0
  -28.0775  -31.8367   26.5300 H   0  0  0  0  0  0
  -28.2595  -38.0113   24.7568 H   0  0  0  0  0  0
  -28.1122  -36.2652   24.6208 H   0  0  0  0  0  0
  -27.2325  -37.1337   25.8858 H   0  0  0  0  0  0
  -20.9243  -29.8706   21.6910 H   0  0  0  0  0  0
  -26.0184  -38.2858   24.1466 H   0  0  0  0  0  0
  -32.8400  -19.1717   23.1863 H   0  0  0  0  0  0
  -29.5423  -18.9073   19.4942 H   0  0  0  0  0  0
  -32.1943  -17.1303   24.0618 H   0  0  0  0  0  0
  -32.1425  -15.9622   22.7493 H   0  0  0  0  0  0
  -30.6528  -16.4293   23.5991 H   0  0  0  0  0  0
  -34.5554  -22.4030   20.8241 H   0  0  0  0  0  0
  -33.5362  -21.5847   19.6497 H   0  0  0  0  0  0
  -34.5681  -20.6425   20.7245 H   0  0  0  0  0  0
  -33.2073  -21.4814   22.7059 H   0  0  0  0  0  0
  -32.1678  -22.3448   21.6116 H   0  0  0  0  0  0
  -29.4813  -16.5477   19.7071 H   0  0  0  0  0  0
  -28.5793  -16.8345   21.1578 H   0  0  0  0  0  0
  -29.0271  -24.6333   21.0555 H   0  0  0  0  0  0
  -27.7424  -23.9922   20.0681 H   0  0  0  0  0  0
  -30.7581  -23.7994   19.5646 H   0  0  0  0  0  0
  -29.5860  -23.2649   18.3874 H   0  0  0  0  0  0
  -28.0648  -25.6595   18.3480 H   0  0  0  0  0  0
  -29.7133  -25.9057   18.8050 H   0  0  0  0  0  0
  -28.7243  -21.5532   19.9564 H   0  0  0  0  0  0
  -29.7549  -22.1744   21.2402 H   0  0  0  0  0  0
  -29.1946  -14.8546   21.8297 H   0  0  0  0  0  0
  1 25  1  0  0  0
  1 30  2  0  0  0
  1 85  1  0  0  0
  2  3  1  0  0  0
  2 25  1  0  0  0
  2 87  1  0  0  0
  2 88  1  0  0  0
  3  4  1  0  0  0
  3 89  1  0  0  0
  3 90  1  0  0  0
  4  5  1  0  0  0
  4 91  1  0  0  0
  4 92  1  0  0  0
  5  6  1  0  0  0
  5 26  1  0  0  0
  5 93  1  0  0  0
  6 25  1  0  0  0
  6 94  1  0  0  0
  6 95  1  0  0  0
  7  8  2  0  0  0
  7 26  1  0  0  0
  7 29  1  0  0  0
  8  9  1  0  0  0
  8 22  1  0  0  0
  9 10  1  0  0  0
  9 27  2  0  0  0
 10 11  2  0  0  0
 10 15  1  0  0  0
 11 12  1  0  0  0
 11 96  1  0  0  0
 12 13  2  0  0  0
 12 97  1  0  0  0
 13 14  1  0  0  0
 13 31  1  0  0  0
 14 15  2  0  0  0
 14 98  1  0  0  0
 15 99  1  0  0  0
 16 17  2  0  0  0
 16 21  1  0  0  0
 16 31  1  0  0  0
 17 18  1  0  0  0
 17100  1  0  0  0
 18 19  2  0  0  0
 18101  1  0  0  0
 19 20  1  0  0  0
 19 24  1  0  0  0
 20 21  2  0  0  0
 20102  1  0  0  0
 21 23  1  0  0  0
 22 28  1  0  0  0
 22 32  2  0  0  0
 26 27  1  0  0  0
 28103  1  0  0  0
 28104  1  0  0  0
 29105  1  0  0  0
 29106  1  0  0  0
 33 34  1  0  0  0
 33 66  1  0  0  0
 33 70  2  0  0  0
 34 36  1  0  0  0
 34 59  1  0  0  0
 34107  1  0  0  0
 35 44  2  0  0  0
 35 45  1  0  0  0
 35 68  1  0  0  0
 36 56  1  0  0  0
 36108  1  0  0  0
 37 39  1  0  0  0
 37 47  1  0  0  0
 37 66  1  0  0  0
 37109  1  0  0  0
 38 43  2  0  0  0
 38 46  1  0  0  0
 38 47  1  0  0  0
 39 64  1  0  0  0
 39 67  2  0  0  0
 40 52  1  0  0  0
 40 53  2  0  0  0
 40 58  1  0  0  0
 41110  1  0  0  0
 41111  1  0  0  0
 41112  1  0  0  0
 41 48  1  0  0  0
 42 43  1  0  0  0
 42 66  1  0  0  0
 42113  1  0  0  0
 42114  1  0  0  0
 43 44  1  0  0  0
 44115  1  0  0  0
 45 46  2  0  0  0
 45116  1  0  0  0
 46117  1  0  0  0
 47118  1  0  0  0
 47119  1  0  0  0
 48 56  1  0  0  0
 48 65  1  0  0  0
 48120  1  0  0  0
 49 50  1  0  0  0
 49 53  1  0  0  0
 49 64  1  0  0  0
 49121  1  0  0  0
 50 51  1  0  0  0
 50122  1  0  0  0
 50123  1  0  0  0
 51 52  1  0  0  0
 51124  1  0  0  0
 51125  1  0  0  0
 52126  1  0  0  0
 52127  1  0  0  0
 53 54  1  0  0  0
 54 55  2  0  0  0
 54128  1  0  0  0
 55 57  1  0  0  0
 55129  1  0  0  0
 56 69  2  0  0  0
 57 58  2  0  0  0
 57130  1  0  0  0
 58131  1  0  0  0
 59 60  1  0  0  0
 59 61  1  0  0  0
 59 62  1  0  0  0
 60132  1  0  0  0
 60133  1  0  0  0
 60134  1  0  0  0
 61135  1  0  0  0
 61136  1  0  0  0
 61137  1  0  0  0
 62138  1  0  0  0
 62139  1  0  0  0
 62140  1  0  0  0
 63 65  1  0  0  0
 63141  1  0  0  0
 63142  1  0  0  0
 63143  1  0  0  0
 64144  1  0  0  0
 65145  1  0  0  0
 68 83  1  0  0  0
 71 73  2  0  0  0
 71 74  1  0  0  0
 71146  1  0  0  0
 72 75  2  0  0  0
 72 76  1  0  0  0
 72147  1  0  0  0
 73 75  1  0  0  0
 73 77  1  0  0  0
 74 76  2  0  0  0
 74 79  1  0  0  0
 75 80  1  0  0  0
 76 86  1  0  0  0
 77148  1  0  0  0
 77149  1  0  0  0
 77150  1  0  0  0
 78 79  1  0  0  0
 78151  1  0  0  0
 78152  1  0  0  0
 78153  1  0  0  0
 79154  1  0  0  0
 79155  1  0  0  0
 80 85  1  0  0  0
 80156  1  0  0  0
 80157  1  0  0  0
 81 82  1  0  0  0
 81 83  1  0  0  0
 81158  1  0  0  0
 81159  1  0  0  0
 82 84  1  0  0  0
 82160  1  0  0  0
 82161  1  0  0  0
 83162  1  0  0  0
 83163  1  0  0  0
 84 86  1  0  0  0
 84164  1  0  0  0
 84165  1  0  0  0
 85166  1  0  0  0
M  ISO  4   1 100  68 101  83 101  85 100
M  END
> <chiral flag>
0

> <version>
0

> <s_m_source_file>
/data/baiqing/PycharmProjects/Reinvent-master-3.2/result/LINK_invent/BTK/process_docking_weight1_custom_product_contain_oxygen_bond_distance_aromatic_linkinvent_7_9_3/rearranged_h_0133.sdf

> <i_m_source_file_index>
62

> <r_mmod_Potential_Energy-OPLS-2005>
-74.0464248657227

> <r_mmod_Stretch_Energy-OPLS-2005>
32.4628791809082

> <r_mmod_Bend_Energy-OPLS-2005>
111.133209228516

> <r_mmod_Torsional_Energy-OPLS-2005>
248.518188476562

> <r_mmod_Improper_Torsional_Energy-OPLS-2005>
7.06820487976074

> <r_mmod_Van_der_Waal_Energy-OPLS-2005>
155.532470703125

> <r_mmod_Electrostatic_Energy-OPLS-2005>
-422.284362792969

> <r_mmod_Solvation_Energy-OPLS-2005>
-217.185852050781

> <b_mmod_Minimization_Converged-OPLS-2005>
0

> <r_mmod_RMS_Derivative-OPLS-2005>
2.99883627891541

$$$$
62
                    3D
 Structure written by MMmdl.
178186  0  0  1  0            999 V2000
  -30.6803  -14.5197   20.4977 C   0  0  0  0  0  0
  -30.4174  -12.2915   19.4667 C   0  0  0  0  0  0
  -29.5032  -12.4443   18.2329 C   0  0  0  0  0  0
  -28.0171  -12.3368   18.6251 C   0  0  0  0  0  0
  -27.6503  -13.2080   19.8543 C   0  0  2  0  0  0
  -28.6883  -13.0637   20.9888 C   0  0  0  0  0  0
  -25.2555  -13.8151   20.5666 C   0  0  0  0  0  0
  -24.1818  -13.0435   20.9174 C   0  0  0  0  0  0
  -24.6376  -11.6896   20.8734 C   0  0  0  0  0  0
  -23.9063  -10.4282   21.0406 C   0  0  0  0  0  0
  -24.3607   -9.4196   21.9183 C   0  0  0  0  0  0
  -23.6296   -8.2229   22.0749 C   0  0  0  0  0  0
  -22.4277   -8.0265   21.3550 C   0  0  0  0  0  0
  -21.9920   -9.0240   20.4645 C   0  0  0  0  0  0
  -22.7243  -10.2124   20.3054 C   0  0  0  0  0  0
  -21.6862   -6.0726   22.5275 C   0  0  0  0  0  0
  -21.4032   -6.5644   23.8202 C   0  0  0  0  0  0
  -21.3653   -5.6803   24.9167 C   0  0  0  0  0  0
  -21.6035   -4.3061   24.7224 C   0  0  0  0  0  0
  -21.8822   -3.8142   23.4359 C   0  0  0  0  0  0
  -21.9198   -4.6954   22.3410 C   0  0  0  0  0  0
  -22.7840  -13.5212   21.1856 C   0  0  0  0  0  0
  -22.1672   -4.2132   21.0990 F   0  0  0  0  0  0
  -21.5621   -3.4543   25.7746 F   0  0  0  0  0  0
  -30.0238  -13.3277   20.4357 N   0  0  0  0  0  0
  -26.2965  -12.9320   20.3274 N   0  0  0  0  0  0
  -25.9290  -11.6486   20.5758 N   0  0  0  0  0  0
  -22.0528  -12.8179   22.0426 N   0  0  0  0  0  0
  -25.4314  -15.1870   20.4106 N   0  0  0  0  0  0
  -31.8555  -14.6174   20.1366 O   0  0  0  0  0  0
  -21.6647   -6.8863   21.4234 O   0  0  0  0  0  0
  -22.3480  -14.5513   20.6707 O   0  0  0  0  0  0
  -24.6172  -31.8657   23.2074 C   0  0  0  0  0  0
  -25.9057  -32.4805   23.8385 C   0  0  1  0  0  0
  -27.2380  -27.4008   20.0962 C   0  0  0  0  0  0
  -25.5901  -33.8600   24.2315 N   0  0  0  0  0  0
  -23.4073  -30.4875   21.5478 C   0  0  2  0  0  0
  -24.8541  -28.9490   20.1143 C   0  0  0  0  0  0
  -22.7425  -29.4639   22.4961 C   0  0  0  0  0  0
  -18.0282  -28.1374   22.8490 C   0  0  0  0  0  0
  -24.1489  -36.7303   23.2642 C   0  0  0  0  0  0
  -25.9406  -30.8156   21.3708 C   0  0  0  0  0  0
  -26.0147  -29.4489   20.7165 C   0  0  0  0  0  0
  -27.2052  -28.6803   20.7080 C   0  0  0  0  0  0
  -26.0573  -26.9336   19.4713 C   0  0  0  0  0  0
  -24.8715  -27.6909   19.4915 C   0  0  0  0  0  0
  -23.6179  -29.8182   20.1638 C   0  0  0  0  0  0
  -25.4115  -36.3098   24.0337 C   0  0  1  0  0  0
  -20.5879  -28.3673   23.1297 C   0  0  2  0  0  0
  -20.6771  -26.9402   22.5411 C   0  0  0  0  0  0
  -19.5752  -26.6377   21.5206 C   0  0  0  0  0  0
  -18.1929  -26.7921   22.1613 C   0  0  0  0  0  0
  -19.1533  -28.8839   23.2892 C   0  0  0  0  0  0
  -18.9455  -30.1441   23.8907 C   0  0  0  0  0  0
  -17.6456  -30.6579   24.0566 C   0  0  0  0  0  0
  -25.9039  -34.9460   23.5124 C   0  0  0  0  0  0
  -16.5348  -29.9080   23.6327 C   0  0  0  0  0  0
  -16.7268  -28.6492   23.0355 C   0  0  0  0  0  0
  -26.4474  -31.6600   25.0722 C   0  0  0  0  0  0
  -25.3721  -31.3707   26.1453 C   0  0  0  0  0  0
  -27.0332  -30.3042   24.6134 C   0  0  0  0  0  0
  -27.6054  -32.4318   25.7481 C   0  0  0  0  0  0
  -27.5584  -37.1804   24.8464 C   0  0  0  0  0  0
  -21.4153  -29.3030   22.3696 N   0  0  0  0  0  0
  -26.4303  -37.3784   23.9402 N   0  0  0  0  0  0
  -24.6727  -31.0725   22.0992 N   0  0  0  0  0  0
  -23.4183  -28.8194   23.3026 O   0  0  0  0  0  0
  -28.4096  -26.6571   20.1408 O   0  0  0  0  0  0
  -26.5604  -34.8921   22.4685 O   0  0  0  0  0  0
  -23.5351  -32.1422   23.7440 O   0  0  0  0  0  0
  -29.1003  -18.9945   17.5200 C   0  0  0  0  0  0
  -29.6710  -19.5342   20.1904 C   0  0  0  0  0  0
  -28.7364  -20.2458   18.0553 C   0  0  0  0  0  0
  -29.7572  -18.0119   18.2875 C   0  0  0  0  0  0
  -29.1001  -20.5689   19.3926 C   0  0  0  0  0  0
  -29.9820  -18.2438   19.6699 C   0  0  0  0  0  0
  -28.0032  -21.1969   17.1184 C   0  0  0  0  0  0
  -29.1927  -15.9581   16.8507 C   0  0  0  0  0  0
  -31.1719  -22.4900   22.1576 C   0  0  0  0  0  0
  -31.4371  -22.4308   17.7202 C   0  0  0  0  0  0
  -30.2800  -16.7794   17.5526 C   0  0  0  0  0  0
  -30.6661  -17.1877   20.5701 C   0  0  0  0  0  0
  -28.8636  -21.9775   20.0021 C   0  0  0  0  0  0
  -29.8971  -15.8335   20.8092 C   0  0  0  0  0  0
  -31.2758  -22.6116   20.6274 C   0  0  0  0  0  0
  -30.3854  -23.3477   18.3724 C   0  0  0  0  0  0
  -29.5330  -24.4619   20.4570 C   0  0  0  0  0  0
  -28.3985  -25.2637   19.7464 C   0  0  0  0  0  0
  -29.9950  -23.0734   19.8596 C   0  0  0  0  0  0
  -31.4663  -12.3645   19.1742 H   0  0  0  0  0  0
  -30.3032  -11.3019   19.9138 H   0  0  0  0  0  0
  -29.7425  -11.6840   17.4882 H   0  0  0  0  0  0
  -29.6918  -13.4037   17.7597 H   0  0  0  0  0  0
  -27.8070  -11.2874   18.8370 H   0  0  0  0  0  0
  -27.3836  -12.6033   17.7777 H   0  0  0  0  0  0
  -27.6657  -14.2375   19.5031 H   0  0  0  0  0  0
  -28.6546  -12.0597   21.4134 H   0  0  0  0  0  0
  -28.4489  -13.7399   21.8110 H   0  0  0  0  0  0
  -25.2758   -9.5653   22.4746 H   0  0  0  0  0  0
  -24.0009   -7.4603   22.7458 H   0  0  0  0  0  0
  -21.0863   -8.8751   19.8936 H   0  0  0  0  0  0
  -22.3709  -10.9657   19.6151 H   0  0  0  0  0  0
  -21.2050   -7.6153   23.9707 H   0  0  0  0  0  0
  -21.1471   -6.0536   25.9071 H   0  0  0  0  0  0
  -22.0612   -2.7601   23.2864 H   0  0  0  0  0  0
  -22.4214  -11.9846   22.4766 H   0  0  0  0  0  0
  -21.1133  -13.1126   22.2678 H   0  0  0  0  0  0
  -24.6699  -15.8472   20.5214 H   0  0  0  0  0  0
  -26.2957  -15.6218   20.1116 H   0  0  0  0  0  0
  -26.7119  -32.5504   23.1145 H   0  0  0  0  0  0
  -25.0068  -33.9767   25.0470 H   0  0  0  0  0  0
  -22.6978  -31.3050   21.4051 H   0  0  0  0  0  0
  -23.3751  -35.9634   23.3311 H   0  0  0  0  0  0
  -24.3584  -36.8911   22.2054 H   0  0  0  0  0  0
  -23.7240  -37.6510   23.6654 H   0  0  0  0  0  0
  -26.0653  -31.5784   20.6019 H   0  0  0  0  0  0
  -26.8245  -30.8642   21.9953 H   0  0  0  0  0  0
  -28.0983  -29.0581   21.1858 H   0  0  0  0  0  0
  -26.0253  -25.9834   18.9596 H   0  0  0  0  0  0
  -23.9811  -27.3006   19.0175 H   0  0  0  0  0  0
  -23.7297  -30.5904   19.4019 H   0  0  0  0  0  0
  -22.7420  -29.2371   19.8690 H   0  0  0  0  0  0
  -25.1290  -36.1974   25.0833 H   0  0  0  0  0  0
  -20.9973  -28.3245   24.1418 H   0  0  0  0  0  0
  -20.5672  -26.2278   23.3605 H   0  0  0  0  0  0
  -21.6643  -26.7437   22.1209 H   0  0  0  0  0  0
  -19.6919  -25.6289   21.1233 H   0  0  0  0  0  0
  -19.6704  -27.3192   20.6742 H   0  0  0  0  0  0
  -17.4208  -26.6681   21.4006 H   0  0  0  0  0  0
  -18.0327  -26.0055   22.8998 H   0  0  0  0  0  0
  -19.7931  -30.7249   24.2287 H   0  0  0  0  0  0
  -17.5013  -31.6263   24.5155 H   0  0  0  0  0  0
  -15.5352  -30.2983   23.7638 H   0  0  0  0  0  0
  -15.8670  -28.0804   22.7076 H   0  0  0  0  0  0
  -24.5899  -30.7061   25.7765 H   0  0  0  0  0  0
  -24.8905  -32.2861   26.4898 H   0  0  0  0  0  0
  -25.8044  -30.8861   27.0219 H   0  0  0  0  0  0
  -26.2901  -29.6776   24.1186 H   0  0  0  0  0  0
  -27.4102  -29.7302   25.4614 H   0  0  0  0  0  0
  -27.8733  -30.4366   23.9311 H   0  0  0  0  0  0
  -27.2689  -33.3610   26.2096 H   0  0  0  0  0  0
  -28.3845  -32.6890   25.0289 H   0  0  0  0  0  0
  -28.0756  -31.8420   26.5366 H   0  0  0  0  0  0
  -28.2603  -38.0099   24.7511 H   0  0  0  0  0  0
  -28.1080  -36.2630   24.6295 H   0  0  0  0  0  0
  -27.2299  -37.1458   25.8866 H   0  0  0  0  0  0
  -20.9321  -29.8742   21.6909 H   0  0  0  0  0  0
  -26.0192  -38.2865   24.1393 H   0  0  0  0  0  0
  -28.9042  -18.8059   16.4733 H   0  0  0  0  0  0
  -29.9094  -19.7510   21.2222 H   0  0  0  0  0  0
  -27.2627  -20.6494   16.5325 H   0  0  0  0  0  0
  -28.7038  -21.6483   16.4173 H   0  0  0  0  0  0
  -27.4637  -21.9934   17.6235 H   0  0  0  0  0  0
  -29.6432  -15.1312   16.3007 H   0  0  0  0  0  0
  -28.6381  -16.5538   16.1276 H   0  0  0  0  0  0
  -28.4798  -15.5412   17.5610 H   0  0  0  0  0  0
  -32.1187  -22.1401   22.5726 H   0  0  0  0  0  0
  -30.4118  -21.7722   22.4629 H   0  0  0  0  0  0
  -30.9531  -23.4471   22.6295 H   0  0  0  0  0  0
  -32.4237  -22.5843   18.1575 H   0  0  0  0  0  0
  -31.5277  -22.6520   16.6572 H   0  0  0  0  0  0
  -31.1875  -21.3760   17.8143 H   0  0  0  0  0  0
  -30.8571  -16.1302   18.2008 H   0  0  0  0  0  0
  -31.0004  -17.1262   16.8095 H   0  0  0  0  0  0
  -30.8597  -17.6342   21.5454 H   0  0  0  0  0  0
  -31.6614  -17.0300   20.1587 H   0  0  0  0  0  0
  -28.6457  -21.8333   21.0588 H   0  0  0  0  0  0
  -27.9282  -22.3817   19.6248 H   0  0  0  0  0  0
  -28.9984  -15.8391   20.1956 H   0  0  0  0  0  0
  -29.5459  -15.7993   21.8401 H   0  0  0  0  0  0
  -31.6057  -21.6440   20.2458 H   0  0  0  0  0  0
  -32.0971  -23.2959   20.4095 H   0  0  0  0  0  0
  -29.4862  -23.3533   17.7594 H   0  0  0  0  0  0
  -30.7810  -24.3613   18.2833 H   0  0  0  0  0  0
  -29.2246  -24.3324   21.4938 H   0  0  0  0  0  0
  -30.4073  -25.1130   20.5012 H   0  0  0  0  0  0
  -27.4577  -24.7755   19.9984 H   0  0  0  0  0  0
  -28.4983  -25.2332   18.6614 H   0  0  0  0  0  0
  1 25  1  0  0  0
  1 30  2  0  0  0
  1 84  1  0  0  0
  2  3  1  0  0  0
  2 25  1  0  0  0
  2 90  1  0  0  0
  2 91  1  0  0  0
  3  4  1  0  0  0
  3 92  1  0  0  0
  3 93  1  0  0  0
  4  5  1  0  0  0
  4 94  1  0  0  0
  4 95  1  0  0  0
  5  6  1  0  0  0
  5 26  1  0  0  0
  5 96  1  0  0  0
  6 25  1  0  0  0
  6 97  1  0  0  0
  6 98  1  0  0  0
  7  8  2  0  0  0
  7 26  1  0  0  0
  7 29  1  0  0  0
  8  9  1  0  0  0
  8 22  1  0  0  0
  9 10  1  0  0  0
  9 27  2  0  0  0
 10 11  2  0  0  0
 10 15  1  0  0  0
 11 12  1  0  0  0
 11 99  1  0  0  0
 12 13  2  0  0  0
 12100  1  0  0  0
 13 14  1  0  0  0
 13 31  1  0  0  0
 14 15  2  0  0  0
 14101  1  0  0  0
 15102  1  0  0  0
 16 17  2  0  0  0
 16 21  1  0  0  0
 16 31  1  0  0  0
 17 18  1  0  0  0
 17103  1  0  0  0
 18 19  2  0  0  0
 18104  1  0  0  0
 19 20  1  0  0  0
 19 24  1  0  0  0
 20 21  2  0  0  0
 20105  1  0  0  0
 21 23  1  0  0  0
 22 28  1  0  0  0
 22 32  2  0  0  0
 26 27  1  0  0  0
 28106  1  0  0  0
 28107  1  0  0  0
 29108  1  0  0  0
 29109  1  0  0  0
 33 34  1  0  0  0
 33 66  1  0  0  0
 33 70  2  0  0  0
 34 36  1  0  0  0
 34 59  1  0  0  0
 34110  1  0  0  0
 35 44  2  0  0  0
 35 45  1  0  0  0
 35 68  1  0  0  0
 36 56  1  0  0  0
 36111  1  0  0  0
 37 39  1  0  0  0
 37 47  1  0  0  0
 37 66  1  0  0  0
 37112  1  0  0  0
 38 43  2  0  0  0
 38 46  1  0  0  0
 38 47  1  0  0  0
 39 64  1  0  0  0
 39 67  2  0  0  0
 40 52  1  0  0  0
 40 53  2  0  0  0
 40 58  1  0  0  0
 41113  1  0  0  0
 41114  1  0  0  0
 41115  1  0  0  0
 41 48  1  0  0  0
 42 43  1  0  0  0
 42 66  1  0  0  0
 42116  1  0  0  0
 42117  1  0  0  0
 43 44  1  0  0  0
 44118  1  0  0  0
 45 46  2  0  0  0
 45119  1  0  0  0
 46120  1  0  0  0
 47121  1  0  0  0
 47122  1  0  0  0
 48 56  1  0  0  0
 48 65  1  0  0  0
 48123  1  0  0  0
 49 50  1  0  0  0
 49 53  1  0  0  0
 49 64  1  0  0  0
 49124  1  0  0  0
 50 51  1  0  0  0
 50125  1  0  0  0
 50126  1  0  0  0
 51 52  1  0  0  0
 51127  1  0  0  0
 51128  1  0  0  0
 52129  1  0  0  0
 52130  1  0  0  0
 53 54  1  0  0  0
 54 55  2  0  0  0
 54131  1  0  0  0
 55 57  1  0  0  0
 55132  1  0  0  0
 56 69  2  0  0  0
 57 58  2  0  0  0
 57133  1  0  0  0
 58134  1  0  0  0
 59 60  1  0  0  0
 59 61  1  0  0  0
 59 62  1  0  0  0
 60135  1  0  0  0
 60136  1  0  0  0
 60137  1  0  0  0
 61138  1  0  0  0
 61139  1  0  0  0
 61140  1  0  0  0
 62141  1  0  0  0
 62142  1  0  0  0
 62143  1  0  0  0
 63 65  1  0  0  0
 63144  1  0  0  0
 63145  1  0  0  0
 63146  1  0  0  0
 64147  1  0  0  0
 65148  1  0  0  0
 68 88  1  0  0  0
 71 73  2  0  0  0
 71 74  1  0  0  0
 71149  1  0  0  0
 72 75  2  0  0  0
 72 76  1  0  0  0
 72150  1  0  0  0
 73 75  1  0  0  0
 73 77  1  0  0  0
 74 76  2  0  0  0
 74 81  1  0  0  0
 75 83  1  0  0  0
 76 82  1  0  0  0
 77151  1  0  0  0
 77152  1  0  0  0
 77153  1  0  0  0
 78 81  1  0  0  0
 78154  1  0  0  0
 78155  1  0  0  0
 78156  1  0  0  0
 79 85  1  0  0  0
 79157  1  0  0  0
 79158  1  0  0  0
 79159  1  0  0  0
 80 86  1  0  0  0
 80160  1  0  0  0
 80161  1  0  0  0
 80162  1  0  0  0
 81163  1  0  0  0
 81164  1  0  0  0
 82 84  1  0  0  0
 82165  1  0  0  0
 82166  1  0  0  0
 83167  1  0  0  0
 83168  1  0  0  0
 83 89  1  0  0  0
 84169  1  0  0  0
 84170  1  0  0  0
 85 89  1  0  0  0
 85171  1  0  0  0
 85172  1  0  0  0
 86 89  1  0  0  0
 86173  1  0  0  0
 86174  1  0  0  0
 87 88  1  0  0  0
 87 89  1  0  0  0
 87175  1  0  0  0
 87176  1  0  0  0
 88177  1  0  0  0
 88178  1  0  0  0
M  ISO  4   1 100  68 101  84 100  88 101
M  END
> <chiral flag>
0

> <version>
0

> <s_m_source_file>
/data/baiqing/PycharmProjects/Reinvent-master-3.2/result/LINK_invent/BTK/process_docking_weight1_custom_product_contain_oxygen_bond_distance_aromatic_linkinvent_7_9_3/rearranged_h_0133.sdf

> <i_m_source_file_index>
63

> <r_mmod_Potential_Energy-OPLS-2005>
49.0997924804688

> <r_mmod_Stretch_Energy-OPLS-2005>
56.9748420715332

> <r_mmod_Bend_Energy-OPLS-2005>
129.346557617188

> <r_mmod_Torsional_Energy-OPLS-2005>
220.600341796875

> <r_mmod_Improper_Torsional_Energy-OPLS-2005>
4.99719476699829

> <r_mmod_Van_der_Waal_Energy-OPLS-2005>
153.492828369141

> <r_mmod_Electrostatic_Energy-OPLS-2005>
-363.708770751953

> <r_mmod_Solvation_Energy-OPLS-2005>
-176.436569213867

> <b_mmod_Minimization_Converged-OPLS-2005>
0

> <r_mmod_RMS_Derivative-OPLS-2005>
2.60972356796265

$$$$
63
                    3D
 Structure written by MMmdl.
162170  0  0  1  0            999 V2000
  -30.6884  -14.4234   20.6349 C   0  0  0  0  0  0
  -30.4285  -12.2985   19.3936 C   0  0  0  0  0  0
  -29.4881  -12.5264   18.1910 C   0  0  0  0  0  0
  -28.0088  -12.3814   18.6041 C   0  0  0  0  0  0
  -27.6659  -13.1940   19.8800 C   0  0  2  0  0  0
  -28.7048  -12.9075   20.9866 C   0  0  0  0  0  0
  -25.2611  -13.8140   20.5655 C   0  0  0  0  0  0
  -24.1843  -13.0429   20.9145 C   0  0  0  0  0  0
  -24.6377  -11.6886   20.8721 C   0  0  0  0  0  0
  -23.9041  -10.4277   21.0404 C   0  0  0  0  0  0
  -24.3599   -9.4196   21.9183 C   0  0  0  0  0  0
  -23.6276   -8.2235   22.0757 C   0  0  0  0  0  0
  -22.4264   -8.0272   21.3539 C   0  0  0  0  0  0
  -21.9892   -9.0245   20.4646 C   0  0  0  0  0  0
  -22.7216  -10.2121   20.3051 C   0  0  0  0  0  0
  -21.6850   -6.0725   22.5278 C   0  0  0  0  0  0
  -21.4012   -6.5634   23.8210 C   0  0  0  0  0  0
  -21.3658   -5.6793   24.9177 C   0  0  0  0  0  0
  -21.6049   -4.3055   24.7235 C   0  0  0  0  0  0
  -21.8817   -3.8139   23.4358 C   0  0  0  0  0  0
  -21.9191   -4.6950   22.3408 C   0  0  0  0  0  0
  -22.7873  -13.5232   21.1831 C   0  0  0  0  0  0
  -22.1657   -4.2138   21.0986 F   0  0  0  0  0  0
  -21.5632   -3.4541   25.7750 F   0  0  0  0  0  0
  -30.0423  -13.2389   20.4555 N   0  0  0  0  0  0
  -26.3035  -12.9276   20.3363 N   0  0  0  0  0  0
  -25.9295  -11.6442   20.5734 N   0  0  0  0  0  0
  -22.0510  -12.8236   22.0390 N   0  0  0  0  0  0
  -25.4361  -15.1856   20.4041 N   0  0  0  0  0  0
  -31.7645  -14.6932   20.0916 O   0  0  0  0  0  0
  -21.6631   -6.8871   21.4238 O   0  0  0  0  0  0
  -22.3565  -14.5544   20.6688 O   0  0  0  0  0  0
  -24.6132  -31.8676   23.2093 C   0  0  0  0  0  0
  -25.9036  -32.4814   23.8402 C   0  0  1  0  0  0
  -27.2391  -27.4564   20.0874 C   0  0  0  0  0  0
  -25.5912  -33.8617   24.2338 N   0  0  0  0  0  0
  -23.4006  -30.4868   21.5510 C   0  0  2  0  0  0
  -24.8488  -28.9548   20.1162 C   0  0  0  0  0  0
  -22.7417  -29.4634   22.5017 C   0  0  0  0  0  0
  -18.0282  -28.1345   22.8471 C   0  0  0  0  0  0
  -24.1495  -36.7317   23.2643 C   0  0  0  0  0  0
  -25.9278  -30.8391   21.3602 C   0  0  0  0  0  0
  -26.0083  -29.4733   20.7101 C   0  0  0  0  0  0
  -27.2090  -28.7306   20.6931 C   0  0  0  0  0  0
  -26.0678  -26.9422   19.4968 C   0  0  0  0  0  0
  -24.8727  -27.6864   19.5080 C   0  0  0  0  0  0
  -23.6069  -29.8147   20.1669 C   0  0  0  0  0  0
  -25.4107  -36.3102   24.0349 C   0  0  1  0  0  0
  -20.5872  -28.3631   23.1325 C   0  0  2  0  0  0
  -20.6776  -26.9373   22.5409 C   0  0  0  0  0  0
  -19.5761  -26.6369   21.5197 C   0  0  0  0  0  0
  -18.1927  -26.7896   22.1596 C   0  0  0  0  0  0
  -19.1527  -28.8806   23.2884 C   0  0  0  0  0  0
  -18.9455  -30.1409   23.8902 C   0  0  0  0  0  0
  -17.6457  -30.6553   24.0546 C   0  0  0  0  0  0
  -25.9040  -34.9467   23.5128 C   0  0  0  0  0  0
  -16.5351  -29.9049   23.6308 C   0  0  0  0  0  0
  -16.7271  -28.6466   23.0331 C   0  0  0  0  0  0
  -26.4456  -31.6591   25.0725 C   0  0  0  0  0  0
  -25.3719  -31.3703   26.1463 C   0  0  0  0  0  0
  -27.0299  -30.3048   24.6079 C   0  0  0  0  0  0
  -27.6046  -32.4300   25.7485 C   0  0  0  0  0  0
  -27.5578  -37.1797   24.8462 C   0  0  0  0  0  0
  -21.4148  -29.3000   22.3748 N   0  0  0  0  0  0
  -26.4290  -37.3781   23.9407 N   0  0  0  0  0  0
  -24.6653  -31.0793   22.0983 N   0  0  0  0  0  0
  -23.4199  -28.8190   23.3064 O   0  0  0  0  0  0
  -28.3937  -26.7152   20.0523 O   0  0  0  0  0  0
  -26.5589  -34.8913   22.4687 O   0  0  0  0  0  0
  -23.5328  -32.1415   23.7493 O   0  0  0  0  0  0
  -31.0832  -18.9145   21.3058 C   0  0  0  0  0  0
  -31.1174  -17.5179   21.0882 C   0  0  0  0  0  0
  -28.9733  -17.3049   22.2108 C   0  0  0  0  0  0
  -30.0060  -19.5155   21.9993 C   0  0  0  0  0  0
  -30.0636  -16.6950   21.5550 C   0  0  0  0  0  0
  -28.9388  -18.6956   22.4297 C   0  0  0  0  0  0
  -31.4755  -20.6520   24.4583 C   0  0  0  0  0  0
  -31.2934  -21.4086   23.1342 C   0  0  0  0  0  0
  -29.1589  -23.3015   21.5670 C   0  0  0  0  0  0
  -29.0120  -24.3640   20.4597 C   0  0  0  0  0  0
  -29.7662  -21.9423   21.1380 C   0  0  0  0  0  0
  -28.4422  -25.6782   21.0325 C   0  0  0  0  0  0
  -30.0175  -21.0096   22.3523 C   0  0  1  0  0  0
  -30.0195  -15.2742   21.4338 N   0  0  0  0  0  0
  -27.8766  -19.2306   23.0786 F   0  0  0  0  0  0
  -31.4699  -12.4196   19.0907 H   0  0  0  0  0  0
  -30.3412  -11.2721   19.7531 H   0  0  0  0  0  0
  -29.7200  -11.8237   17.3889 H   0  0  0  0  0  0
  -29.6570  -13.5236   17.7805 H   0  0  0  0  0  0
  -27.8130  -11.3220   18.7753 H   0  0  0  0  0  0
  -27.3588  -12.6799   17.7811 H   0  0  0  0  0  0
  -27.7280  -14.2503   19.6180 H   0  0  0  0  0  0
  -28.6800  -11.8489   21.2511 H   0  0  0  0  0  0
  -28.4498  -13.4281   21.9100 H   0  0  0  0  0  0
  -25.2743   -9.5688   22.4746 H   0  0  0  0  0  0
  -23.9995   -7.4635   22.7477 H   0  0  0  0  0  0
  -21.0824   -8.8753   19.8953 H   0  0  0  0  0  0
  -22.3672  -10.9656   19.6161 H   0  0  0  0  0  0
  -21.1997   -7.6144   23.9713 H   0  0  0  0  0  0
  -21.1485   -6.0524   25.9084 H   0  0  0  0  0  0
  -22.0596   -2.7599   23.2863 H   0  0  0  0  0  0
  -22.4111  -11.9895   22.4780 H   0  0  0  0  0  0
  -21.1132  -13.1272   22.2593 H   0  0  0  0  0  0
  -24.6706  -15.8442   20.5020 H   0  0  0  0  0  0
  -26.2917  -15.6185   20.0789 H   0  0  0  0  0  0
  -26.7132  -32.5531   23.1200 H   0  0  0  0  0  0
  -25.0080  -33.9805   25.0489 H   0  0  0  0  0  0
  -22.6856  -31.2999   21.4124 H   0  0  0  0  0  0
  -23.3749  -35.9659   23.3311 H   0  0  0  0  0  0
  -24.3605  -36.8916   22.2053 H   0  0  0  0  0  0
  -23.7249  -37.6533   23.6647 H   0  0  0  0  0  0
  -26.0353  -31.6045   20.5904 H   0  0  0  0  0  0
  -26.8180  -30.8967   21.9756 H   0  0  0  0  0  0
  -28.1091  -29.1254   21.1441 H   0  0  0  0  0  0
  -26.0849  -25.9689   19.0269 H   0  0  0  0  0  0
  -23.9824  -27.2800   19.0482 H   0  0  0  0  0  0
  -23.7103  -30.5867   19.4049 H   0  0  0  0  0  0
  -22.7313  -29.2298   19.8752 H   0  0  0  0  0  0
  -25.1271  -36.1979   25.0843 H   0  0  0  0  0  0
  -20.9937  -28.3199   24.1460 H   0  0  0  0  0  0
  -20.5677  -26.2238   23.3588 H   0  0  0  0  0  0
  -21.6644  -26.7400   22.1211 H   0  0  0  0  0  0
  -19.6917  -25.6280   21.1224 H   0  0  0  0  0  0
  -19.6719  -27.3188   20.6738 H   0  0  0  0  0  0
  -17.4188  -26.6645   21.4000 H   0  0  0  0  0  0
  -18.0322  -26.0024   22.8984 H   0  0  0  0  0  0
  -19.7931  -30.7212   24.2288 H   0  0  0  0  0  0
  -17.5007  -31.6244   24.5130 H   0  0  0  0  0  0
  -15.5341  -30.2943   23.7631 H   0  0  0  0  0  0
  -15.8676  -28.0793   22.7031 H   0  0  0  0  0  0
  -24.5936  -30.6995   25.7805 H   0  0  0  0  0  0
  -24.8856  -32.2855   26.4851 H   0  0  0  0  0  0
  -25.8064  -30.8932   27.0254 H   0  0  0  0  0  0
  -26.2843  -29.6813   24.1123 H   0  0  0  0  0  0
  -27.4088  -29.7264   25.4519 H   0  0  0  0  0  0
  -27.8669  -30.4403   23.9223 H   0  0  0  0  0  0
  -27.2700  -33.3612   26.2071 H   0  0  0  0  0  0
  -28.3856  -32.6823   25.0301 H   0  0  0  0  0  0
  -28.0713  -31.8403   26.5382 H   0  0  0  0  0  0
  -28.2575  -38.0105   24.7499 H   0  0  0  0  0  0
  -28.1086  -36.2629   24.6294 H   0  0  0  0  0  0
  -27.2311  -37.1467   25.8869 H   0  0  0  0  0  0
  -20.9311  -29.8721   21.6964 H   0  0  0  0  0  0
  -26.0185  -38.2866   24.1391 H   0  0  0  0  0  0
  -31.9107  -19.5194   20.9646 H   0  0  0  0  0  0
  -31.9732  -17.1001   20.5789 H   0  0  0  0  0  0
  -28.1469  -16.7078   22.5674 H   0  0  0  0  0  0
  -32.3651  -21.0025   24.9835 H   0  0  0  0  0  0
  -31.5921  -19.5801   24.3016 H   0  0  0  0  0  0
  -30.6214  -20.8056   25.1189 H   0  0  0  0  0  0
  -32.1759  -21.2648   22.5117 H   0  0  0  0  0  0
  -31.2708  -22.4736   23.3638 H   0  0  0  0  0  0
  -28.1795  -23.1172   22.0096 H   0  0  0  0  0  0
  -29.7599  -23.7389   22.3637 H   0  0  0  0  0  0
  -28.3628  -23.9953   19.6646 H   0  0  0  0  0  0
  -29.9835  -24.5586   20.0032 H   0  0  0  0  0  0
  -30.6904  -22.0823   20.5761 H   0  0  0  0  0  0
  -29.0651  -21.4649   20.4510 H   0  0  0  0  0  0
  -29.0785  -26.0260   21.8473 H   0  0  0  0  0  0
  -27.4614  -25.4833   21.4718 H   0  0  0  0  0  0
  -29.1848  -21.1692   23.0390 H   0  0  0  0  0  0
  -29.2151  -14.8389   21.8591 H   0  0  0  0  0  0
  1 25  1  0  0  0
  1 30  2  0  0  0
  1 84  1  0  0  0
  2  3  1  0  0  0
  2 25  1  0  0  0
  2 86  1  0  0  0
  2 87  1  0  0  0
  3  4  1  0  0  0
  3 88  1  0  0  0
  3 89  1  0  0  0
  4  5  1  0  0  0
  4 90  1  0  0  0
  4 91  1  0  0  0
  5  6  1  0  0  0
  5 26  1  0  0  0
  5 92  1  0  0  0
  6 25  1  0  0  0
  6 93  1  0  0  0
  6 94  1  0  0  0
  7  8  2  0  0  0
  7 26  1  0  0  0
  7 29  1  0  0  0
  8  9  1  0  0  0
  8 22  1  0  0  0
  9 10  1  0  0  0
  9 27  2  0  0  0
 10 11  2  0  0  0
 10 15  1  0  0  0
 11 12  1  0  0  0
 11 95  1  0  0  0
 12 13  2  0  0  0
 12 96  1  0  0  0
 13 14  1  0  0  0
 13 31  1  0  0  0
 14 15  2  0  0  0
 14 97  1  0  0  0
 15 98  1  0  0  0
 16 17  2  0  0  0
 16 21  1  0  0  0
 16 31  1  0  0  0
 17 18  1  0  0  0
 17 99  1  0  0  0
 18 19  2  0  0  0
 18100  1  0  0  0
 19 20  1  0  0  0
 19 24  1  0  0  0
 20 21  2  0  0  0
 20101  1  0  0  0
 21 23  1  0  0  0
 22 28  1  0  0  0
 22 32  2  0  0  0
 26 27  1  0  0  0
 28102  1  0  0  0
 28103  1  0  0  0
 29104  1  0  0  0
 29105  1  0  0  0
 33 34  1  0  0  0
 33 66  1  0  0  0
 33 70  2  0  0  0
 34 36  1  0  0  0
 34 59  1  0  0  0
 34106  1  0  0  0
 35 44  2  0  0  0
 35 45  1  0  0  0
 35 68  1  0  0  0
 36 56  1  0  0  0
 36107  1  0  0  0
 37 39  1  0  0  0
 37 47  1  0  0  0
 37 66  1  0  0  0
 37108  1  0  0  0
 38 43  2  0  0  0
 38 46  1  0  0  0
 38 47  1  0  0  0
 39 64  1  0  0  0
 39 67  2  0  0  0
 40 52  1  0  0  0
 40 53  2  0  0  0
 40 58  1  0  0  0
 41109  1  0  0  0
 41110  1  0  0  0
 41111  1  0  0  0
 41 48  1  0  0  0
 42 43  1  0  0  0
 42 66  1  0  0  0
 42112  1  0  0  0
 42113  1  0  0  0
 43 44  1  0  0  0
 44114  1  0  0  0
 45 46  2  0  0  0
 45115  1  0  0  0
 46116  1  0  0  0
 47117  1  0  0  0
 47118  1  0  0  0
 48 56  1  0  0  0
 48 65  1  0  0  0
 48119  1  0  0  0
 49 50  1  0  0  0
 49 53  1  0  0  0
 49 64  1  0  0  0
 49120  1  0  0  0
 50 51  1  0  0  0
 50121  1  0  0  0
 50122  1  0  0  0
 51 52  1  0  0  0
 51123  1  0  0  0
 51124  1  0  0  0
 52125  1  0  0  0
 52126  1  0  0  0
 53 54  1  0  0  0
 54 55  2  0  0  0
 54127  1  0  0  0
 55 57  1  0  0  0
 55128  1  0  0  0
 56 69  2  0  0  0
 57 58  2  0  0  0
 57129  1  0  0  0
 58130  1  0  0  0
 59 60  1  0  0  0
 59 61  1  0  0  0
 59 62  1  0  0  0
 60131  1  0  0  0
 60132  1  0  0  0
 60133  1  0  0  0
 61134  1  0  0  0
 61135  1  0  0  0
 61136  1  0  0  0
 62137  1  0  0  0
 62138  1  0  0  0
 62139  1  0  0  0
 63 65  1  0  0  0
 63140  1  0  0  0
 63141  1  0  0  0
 63142  1  0  0  0
 64143  1  0  0  0
 65144  1  0  0  0
 68 82  1  0  0  0
 71 72  2  0  0  0
 71 74  1  0  0  0
 71145  1  0  0  0
 72 75  1  0  0  0
 72146  1  0  0  0
 73 75  2  0  0  0
 73 76  1  0  0  0
 73147  1  0  0  0
 74 76  2  0  0  0
 74 83  1  0  0  0
 75 84  1  0  0  0
 76 85  1  0  0  0
 77 78  1  0  0  0
 77148  1  0  0  0
 77149  1  0  0  0
 77150  1  0  0  0
 78151  1  0  0  0
 78152  1  0  0  0
 78 83  1  0  0  0
 79 80  1  0  0  0
 79 81  1  0  0  0
 79153  1  0  0  0
 79154  1  0  0  0
 80 82  1  0  0  0
 80155  1  0  0  0
 80156  1  0  0  0
 81 83  1  0  0  0
 81157  1  0  0  0
 81158  1  0  0  0
 82159  1  0  0  0
 82160  1  0  0  0
 83161  1  0  0  0
 84162  1  0  0  0
M  ISO  4   1 100  68 101  82 101  84 100
M  END
> <chiral flag>
0

> <version>
0

> <s_m_source_file>
/data/baiqing/PycharmProjects/Reinvent-master-3.2/result/LINK_invent/BTK/process_docking_weight1_custom_product_contain_oxygen_bond_distance_aromatic_linkinvent_7_9_3/rearranged_h_0133.sdf

> <i_m_source_file_index>
64

> <r_mmod_Potential_Energy-OPLS-2005>
2.88173913955688

> <r_mmod_Stretch_Energy-OPLS-2005>
35.3765106201172

> <r_mmod_Bend_Energy-OPLS-2005>
100.364234924316

> <r_mmod_Torsional_Energy-OPLS-2005>
238.780670166016

> <r_mmod_Improper_Torsional_Energy-OPLS-2005>
2.83287477493286

> <r_mmod_Van_der_Waal_Energy-OPLS-2005>
151.966583251953

> <r_mmod_Electrostatic_Energy-OPLS-2005>
-345.877380371094

> <r_mmod_Solvation_Energy-OPLS-2005>
-189.078506469727

> <b_mmod_Minimization_Converged-OPLS-2005>
0

> <r_mmod_RMS_Derivative-OPLS-2005>
1.94898736476898

$$$$
64
                    3D
 Structure written by MMmdl.
162170  0  0  1  0            999 V2000
  -30.6669  -14.4562   20.6263 C   0  0  0  0  0  0
  -30.4349  -12.3143   19.4125 C   0  0  0  0  0  0
  -29.5018  -12.5270   18.2008 C   0  0  0  0  0  0
  -28.0179  -12.3883   18.6027 C   0  0  0  0  0  0
  -27.6670  -13.1987   19.8775 C   0  0  2  0  0  0
  -28.7047  -12.9292   20.9905 C   0  0  0  0  0  0
  -25.2642  -13.8093   20.5715 C   0  0  0  0  0  0
  -24.1872  -13.0385   20.9138 C   0  0  0  0  0  0
  -24.6407  -11.6861   20.8671 C   0  0  0  0  0  0
  -23.9067  -10.4270   21.0350 C   0  0  0  0  0  0
  -24.3621   -9.4205   21.9148 C   0  0  0  0  0  0
  -23.6311   -8.2238   22.0715 C   0  0  0  0  0  0
  -22.4283   -8.0275   21.3525 C   0  0  0  0  0  0
  -21.9916   -9.0239   20.4616 C   0  0  0  0  0  0
  -22.7225  -10.2129   20.3023 C   0  0  0  0  0  0
  -21.6858   -6.0735   22.5287 C   0  0  0  0  0  0
  -21.4019   -6.5647   23.8216 C   0  0  0  0  0  0
  -21.3661   -5.6798   24.9172 C   0  0  0  0  0  0
  -21.6045   -4.3064   24.7223 C   0  0  0  0  0  0
  -21.8816   -3.8157   23.4346 C   0  0  0  0  0  0
  -21.9204   -4.6971   22.3403 C   0  0  0  0  0  0
  -22.7918  -13.5214   21.1846 C   0  0  0  0  0  0
  -22.1672   -4.2171   21.0972 F   0  0  0  0  0  0
  -21.5638   -3.4527   25.7724 F   0  0  0  0  0  0
  -30.0361  -13.2649   20.4576 N   0  0  0  0  0  0
  -26.3061  -12.9271   20.3356 N   0  0  0  0  0  0
  -25.9342  -11.6434   20.5702 N   0  0  0  0  0  0
  -22.0567  -12.8196   22.0398 N   0  0  0  0  0  0
  -25.4364  -15.1810   20.4302 N   0  0  0  0  0  0
  -31.7701  -14.7168   20.1364 O   0  0  0  0  0  0
  -21.6647   -6.8874   21.4242 O   0  0  0  0  0  0
  -22.3629  -14.5559   20.6748 O   0  0  0  0  0  0
  -24.6142  -31.8675   23.2114 C   0  0  0  0  0  0
  -25.9021  -32.4827   23.8400 C   0  0  1  0  0  0
  -27.2340  -27.4416   20.0879 C   0  0  0  0  0  0
  -25.5878  -33.8623   24.2328 N   0  0  0  0  0  0
  -23.4020  -30.4916   21.5517 C   0  0  2  0  0  0
  -24.8452  -28.9599   20.1137 C   0  0  0  0  0  0
  -22.7416  -29.4665   22.5010 C   0  0  0  0  0  0
  -18.0354  -28.1357   22.8598 C   0  0  0  0  0  0
  -24.1494  -36.7330   23.2634 C   0  0  0  0  0  0
  -25.9292  -30.8341   21.3636 C   0  0  0  0  0  0
  -26.0036  -29.4677   20.7138 C   0  0  0  0  0  0
  -27.1952  -28.7125   20.7068 C   0  0  0  0  0  0
  -26.0608  -26.9562   19.4629 C   0  0  0  0  0  0
  -24.8674  -27.6997   19.4916 C   0  0  0  0  0  0
  -23.6072  -29.8234   20.1646 C   0  0  0  0  0  0
  -25.4103  -36.3123   24.0347 C   0  0  1  0  0  0
  -20.5915  -28.3690   23.1417 C   0  0  2  0  0  0
  -20.6855  -26.9437   22.5525 C   0  0  0  0  0  0
  -19.5854  -26.6484   21.5272 C   0  0  0  0  0  0
  -18.2060  -26.7883   22.1791 C   0  0  0  0  0  0
  -19.1581  -28.8861   23.2977 C   0  0  0  0  0  0
  -18.9492  -30.1519   23.8852 C   0  0  0  0  0  0
  -17.6481  -30.6645   24.0478 C   0  0  0  0  0  0
  -25.9033  -34.9488   23.5128 C   0  0  0  0  0  0
  -16.5383  -29.9079   23.6321 C   0  0  0  0  0  0
  -16.7319  -28.6459   23.0407 C   0  0  0  0  0  0
  -26.4466  -31.6604   25.0725 C   0  0  0  0  0  0
  -25.3750  -31.3683   26.1484 C   0  0  0  0  0  0
  -27.0280  -30.3042   24.6093 C   0  0  0  0  0  0
  -27.6043  -32.4323   25.7481 C   0  0  0  0  0  0
  -27.5577  -37.1813   24.8459 C   0  0  0  0  0  0
  -21.4140  -29.3096   22.3838 N   0  0  0  0  0  0
  -26.4291  -37.3800   23.9415 N   0  0  0  0  0  0
  -24.6669  -31.0801   22.1016 N   0  0  0  0  0  0
  -23.4244  -28.8115   23.2939 O   0  0  0  0  0  0
  -28.4220  -26.7434   20.1341 O   0  0  0  0  0  0
  -26.5585  -34.8939   22.4701 O   0  0  0  0  0  0
  -23.5330  -32.1431   23.7518 O   0  0  0  0  0  0
  -26.3796  -19.0503   21.6635 C   0  0  0  0  0  0
  -26.6319  -17.9944   22.5558 C   0  0  0  0  0  0
  -28.5536  -18.6819   20.6346 C   0  0  0  0  0  0
  -27.3432  -19.4092   20.7034 C   0  0  0  0  0  0
  -27.8418  -17.2682   22.4941 C   0  0  0  0  0  0
  -28.8120  -17.5965   21.5071 C   0  0  0  0  0  0
  -28.0401  -16.1576   23.5123 C   0  0  0  0  0  0
  -27.0440  -20.5218   19.7091 C   0  0  0  0  0  0
  -30.1309  -16.8204   21.3575 C   0  0  0  0  0  0
  -26.8540  -21.9299   20.3281 C   0  0  0  0  0  0
  -28.0150  -22.9068   20.0408 C   0  0  0  0  0  0
  -27.7531  -24.3541   20.5165 C   0  0  0  0  0  0
  -28.4931  -25.3999   19.6456 C   0  0  0  0  0  0
  -29.9239  -15.3767   21.2640 N   0  0  0  0  0  0
  -31.4788  -12.4385   19.1171 H   0  0  0  0  0  0
  -30.3544  -11.2947   19.7932 H   0  0  0  0  0  0
  -29.7467  -11.8205   17.4086 H   0  0  0  0  0  0
  -29.6713  -13.5186   17.7787 H   0  0  0  0  0  0
  -27.8062  -11.3300   18.7613 H   0  0  0  0  0  0
  -27.3836  -12.7069   17.7753 H   0  0  0  0  0  0
  -27.7157  -14.2519   19.6009 H   0  0  0  0  0  0
  -28.6876  -11.8755   21.2709 H   0  0  0  0  0  0
  -28.4593  -13.4669   21.9038 H   0  0  0  0  0  0
  -25.2737   -9.5726   22.4732 H   0  0  0  0  0  0
  -24.0033   -7.4633   22.7438 H   0  0  0  0  0  0
  -21.0829   -8.8748   19.8922 H   0  0  0  0  0  0
  -22.3638  -10.9678   19.6171 H   0  0  0  0  0  0
  -21.1998   -7.6148   23.9740 H   0  0  0  0  0  0
  -21.1491   -6.0505   25.9088 H   0  0  0  0  0  0
  -22.0594   -2.7619   23.2819 H   0  0  0  0  0  0
  -22.4216  -11.9887   22.4800 H   0  0  0  0  0  0
  -21.1188  -13.1239   22.2585 H   0  0  0  0  0  0
  -24.6810  -15.8318   20.6038 H   0  0  0  0  0  0
  -26.3144  -15.6414   20.2305 H   0  0  0  0  0  0
  -26.7068  -32.5516   23.1132 H   0  0  0  0  0  0
  -25.0086  -33.9785   25.0503 H   0  0  0  0  0  0
  -22.6905  -31.3079   21.4141 H   0  0  0  0  0  0
  -23.3760  -35.9662   23.3299 H   0  0  0  0  0  0
  -24.3584  -36.8933   22.2049 H   0  0  0  0  0  0
  -23.7253  -37.6542   23.6633 H   0  0  0  0  0  0
  -26.0421  -31.5973   20.5919 H   0  0  0  0  0  0
  -26.8182  -30.8856   21.9804 H   0  0  0  0  0  0
  -28.0863  -29.0934   21.1855 H   0  0  0  0  0  0
  -26.0427  -26.0067   18.9460 H   0  0  0  0  0  0
  -23.9759  -27.3030   19.0233 H   0  0  0  0  0  0
  -23.7148  -30.5993   19.4064 H   0  0  0  0  0  0
  -22.7332  -29.2401   19.8693 H   0  0  0  0  0  0
  -25.1288  -36.1997   25.0841 H   0  0  0  0  0  0
  -21.0007  -28.3197   24.1543 H   0  0  0  0  0  0
  -20.5696  -26.2289   23.3687 H   0  0  0  0  0  0
  -21.6768  -26.7497   22.1438 H   0  0  0  0  0  0
  -19.7039  -25.6427   21.1212 H   0  0  0  0  0  0
  -19.6713  -27.3369   20.6853 H   0  0  0  0  0  0
  -17.4278  -26.6524   21.4293 H   0  0  0  0  0  0
  -18.0684  -26.0057   22.9292 H   0  0  0  0  0  0
  -19.7957  -30.7419   24.2114 H   0  0  0  0  0  0
  -17.5025  -31.6402   24.4934 H   0  0  0  0  0  0
  -15.5374  -30.2949   23.7661 H   0  0  0  0  0  0
  -15.8740  -28.0734   22.7146 H   0  0  0  0  0  0
  -24.5940  -30.6998   25.7832 H   0  0  0  0  0  0
  -24.8939  -32.2832   26.4951 H   0  0  0  0  0  0
  -25.8154  -30.8866   27.0224 H   0  0  0  0  0  0
  -26.2810  -29.6800   24.1173 H   0  0  0  0  0  0
  -27.4050  -29.7288   25.4557 H   0  0  0  0  0  0
  -27.8653  -30.4354   23.9234 H   0  0  0  0  0  0
  -27.2662  -33.3600   26.2107 H   0  0  0  0  0  0
  -28.3837  -32.6907   25.0298 H   0  0  0  0  0  0
  -28.0724  -31.8416   26.5361 H   0  0  0  0  0  0
  -28.2606  -38.0098   24.7515 H   0  0  0  0  0  0
  -28.1067  -36.2639   24.6284 H   0  0  0  0  0  0
  -27.2298  -37.1472   25.8858 H   0  0  0  0  0  0
  -20.9242  -29.8918   21.7177 H   0  0  0  0  0  0
  -26.0192  -38.2892   24.1384 H   0  0  0  0  0  0
  -25.4336  -19.5742   21.7093 H   0  0  0  0  0  0
  -25.8764  -17.7432   23.2906 H   0  0  0  0  0  0
  -29.2803  -18.9523   19.8823 H   0  0  0  0  0  0
  -29.0842  -16.0332   23.7938 H   0  0  0  0  0  0
  -27.6659  -15.2129   23.1192 H   0  0  0  0  0  0
  -27.4967  -16.3688   24.4325 H   0  0  0  0  0  0
  -26.1247  -20.2321   19.1948 H   0  0  0  0  0  0
  -27.8119  -20.5460   18.9358 H   0  0  0  0  0  0
  -30.7731  -17.0499   22.2085 H   0  0  0  0  0  0
  -30.6655  -17.1681   20.4703 H   0  0  0  0  0  0
  -26.6347  -21.8723   21.3956 H   0  0  0  0  0  0
  -25.9589  -22.3597   19.8750 H   0  0  0  0  0  0
  -28.1937  -22.9259   18.9636 H   0  0  0  0  0  0
  -28.9359  -22.5372   20.4947 H   0  0  0  0  0  0
  -28.0481  -24.4555   21.5619 H   0  0  0  0  0  0
  -26.6833  -24.5450   20.5043 H   0  0  0  0  0  0
  -28.1586  -25.3545   18.6098 H   0  0  0  0  0  0
  -29.5523  -25.1379   19.6165 H   0  0  0  0  0  0
  -29.0313  -15.0583   21.6078 H   0  0  0  0  0  0
  1 25  1  0  0  0
  1 30  2  0  0  0
  1 84  1  0  0  0
  2  3  1  0  0  0
  2 25  1  0  0  0
  2 85  1  0  0  0
  2 86  1  0  0  0
  3  4  1  0  0  0
  3 87  1  0  0  0
  3 88  1  0  0  0
  4  5  1  0  0  0
  4 89  1  0  0  0
  4 90  1  0  0  0
  5  6  1  0  0  0
  5 26  1  0  0  0
  5 91  1  0  0  0
  6 25  1  0  0  0
  6 92  1  0  0  0
  6 93  1  0  0  0
  7  8  2  0  0  0
  7 26  1  0  0  0
  7 29  1  0  0  0
  8  9  1  0  0  0
  8 22  1  0  0  0
  9 10  1  0  0  0
  9 27  2  0  0  0
 10 11  2  0  0  0
 10 15  1  0  0  0
 11 12  1  0  0  0
 11 94  1  0  0  0
 12 13  2  0  0  0
 12 95  1  0  0  0
 13 14  1  0  0  0
 13 31  1  0  0  0
 14 15  2  0  0  0
 14 96  1  0  0  0
 15 97  1  0  0  0
 16 17  2  0  0  0
 16 21  1  0  0  0
 16 31  1  0  0  0
 17 18  1  0  0  0
 17 98  1  0  0  0
 18 19  2  0  0  0
 18 99  1  0  0  0
 19 20  1  0  0  0
 19 24  1  0  0  0
 20 21  2  0  0  0
 20100  1  0  0  0
 21 23  1  0  0  0
 22 28  1  0  0  0
 22 32  2  0  0  0
 26 27  1  0  0  0
 28101  1  0  0  0
 28102  1  0  0  0
 29103  1  0  0  0
 29104  1  0  0  0
 33 34  1  0  0  0
 33 66  1  0  0  0
 33 70  2  0  0  0
 34 36  1  0  0  0
 34 59  1  0  0  0
 34105  1  0  0  0
 35 44  2  0  0  0
 35 45  1  0  0  0
 35 68  1  0  0  0
 36 56  1  0  0  0
 36106  1  0  0  0
 37 39  1  0  0  0
 37 47  1  0  0  0
 37 66  1  0  0  0
 37107  1  0  0  0
 38 43  2  0  0  0
 38 46  1  0  0  0
 38 47  1  0  0  0
 39 64  1  0  0  0
 39 67  2  0  0  0
 40 52  1  0  0  0
 40 53  2  0  0  0
 40 58  1  0  0  0
 41108  1  0  0  0
 41109  1  0  0  0
 41110  1  0  0  0
 41 48  1  0  0  0
 42 43  1  0  0  0
 42 66  1  0  0  0
 42111  1  0  0  0
 42112  1  0  0  0
 43 44  1  0  0  0
 44113  1  0  0  0
 45 46  2  0  0  0
 45114  1  0  0  0
 46115  1  0  0  0
 47116  1  0  0  0
 47117  1  0  0  0
 48 56  1  0  0  0
 48 65  1  0  0  0
 48118  1  0  0  0
 49 50  1  0  0  0
 49 53  1  0  0  0
 49 64  1  0  0  0
 49119  1  0  0  0
 50 51  1  0  0  0
 50120  1  0  0  0
 50121  1  0  0  0
 51 52  1  0  0  0
 51122  1  0  0  0
 51123  1  0  0  0
 52124  1  0  0  0
 52125  1  0  0  0
 53 54  1  0  0  0
 54 55  2  0  0  0
 54126  1  0  0  0
 55 57  1  0  0  0
 55127  1  0  0  0
 56 69  2  0  0  0
 57 58  2  0  0  0
 57128  1  0  0  0
 58129  1  0  0  0
 59 60  1  0  0  0
 59 61  1  0  0  0
 59 62  1  0  0  0
 60130  1  0  0  0
 60131  1  0  0  0
 60132  1  0  0  0
 61133  1  0  0  0
 61134  1  0  0  0
 61135  1  0  0  0
 62136  1  0  0  0
 62137  1  0  0  0
 62138  1  0  0  0
 63 65  1  0  0  0
 63139  1  0  0  0
 63140  1  0  0  0
 63141  1  0  0  0
 64142  1  0  0  0
 65143  1  0  0  0
 68 83  1  0  0  0
 71 72  2  0  0  0
 71 74  1  0  0  0
 71144  1  0  0  0
 72 75  1  0  0  0
 72145  1  0  0  0
 73 74  2  0  0  0
 73 76  1  0  0  0
 73146  1  0  0  0
 74 78  1  0  0  0
 75 76  2  0  0  0
 75 77  1  0  0  0
 76 79  1  0  0  0
 77147  1  0  0  0
 77148  1  0  0  0
 77149  1  0  0  0
 78 80  1  0  0  0
 78150  1  0  0  0
 78151  1  0  0  0
 79 84  1  0  0  0
 79152  1  0  0  0
 79153  1  0  0  0
 80 81  1  0  0  0
 80154  1  0  0  0
 80155  1  0  0  0
 81 82  1  0  0  0
 81156  1  0  0  0
 81157  1  0  0  0
 82 83  1  0  0  0
 82158  1  0  0  0
 82159  1  0  0  0
 83160  1  0  0  0
 83161  1  0  0  0
 84162  1  0  0  0
M  ISO  4   1 100  68 101  83 101  84 100
M  END
> <chiral flag>
0

> <version>
0

> <s_m_source_file>
/data/baiqing/PycharmProjects/Reinvent-master-3.2/result/LINK_invent/BTK/process_docking_weight1_custom_product_contain_oxygen_bond_distance_aromatic_linkinvent_7_9_3/rearranged_h_0133.sdf

> <i_m_source_file_index>
65

> <r_mmod_Potential_Energy-OPLS-2005>
-98.0926361083984

> <r_mmod_Stretch_Energy-OPLS-2005>
34.81103515625

> <r_mmod_Bend_Energy-OPLS-2005>
101.196868896484

> <r_mmod_Torsional_Energy-OPLS-2005>
202.434036254883

> <r_mmod_Improper_Torsional_Energy-OPLS-2005>
3.32646703720093

> <r_mmod_Van_der_Waal_Energy-OPLS-2005>
150.127944946289

> <r_mmod_Electrostatic_Energy-OPLS-2005>
-411.20703125

> <r_mmod_Solvation_Energy-OPLS-2005>
-191.539611816406

> <b_mmod_Minimization_Converged-OPLS-2005>
0

> <r_mmod_RMS_Derivative-OPLS-2005>
4.686110496521

$$$$
65
                    3D
 Structure written by MMmdl.
171179  0  0  1  0            999 V2000
  -30.7642  -14.3872   20.6627 C   0  0  0  0  0  0
  -30.4120  -12.2831   19.4149 C   0  0  0  0  0  0
  -29.4859  -12.5011   18.2036 C   0  0  0  0  0  0
  -28.0066  -12.3791   18.6180 C   0  0  0  0  0  0
  -27.6633  -13.2144   19.8799 C   0  0  2  0  0  0
  -28.7033  -12.9831   21.0006 C   0  0  0  0  0  0
  -25.2582  -13.8189   20.5705 C   0  0  0  0  0  0
  -24.1829  -13.0446   20.9173 C   0  0  0  0  0  0
  -24.6409  -11.6907   20.8749 C   0  0  0  0  0  0
  -23.9081  -10.4292   21.0394 C   0  0  0  0  0  0
  -24.3622   -9.4203   21.9174 C   0  0  0  0  0  0
  -23.6294   -8.2249   22.0748 C   0  0  0  0  0  0
  -22.4280   -8.0287   21.3530 C   0  0  0  0  0  0
  -21.9932   -9.0255   20.4618 C   0  0  0  0  0  0
  -22.7269  -10.2126   20.3027 C   0  0  0  0  0  0
  -21.6853   -6.0727   22.5280 C   0  0  0  0  0  0
  -21.4006   -6.5628   23.8203 C   0  0  0  0  0  0
  -21.3654   -5.6780   24.9175 C   0  0  0  0  0  0
  -21.6047   -4.3048   24.7222 C   0  0  0  0  0  0
  -21.8822   -3.8137   23.4352 C   0  0  0  0  0  0
  -21.9190   -4.6959   22.3398 C   0  0  0  0  0  0
  -22.7844  -13.5200   21.1835 C   0  0  0  0  0  0
  -22.1662   -4.2144   21.0985 F   0  0  0  0  0  0
  -21.5631   -3.4531   25.7741 F   0  0  0  0  0  0
  -30.0407  -13.2570   20.4539 N   0  0  0  0  0  0
  -26.3036  -12.9384   20.3402 N   0  0  0  0  0  0
  -25.9336  -11.6525   20.5783 N   0  0  0  0  0  0
  -22.0486  -12.8173   22.0383 N   0  0  0  0  0  0
  -25.4325  -15.1925   20.4107 N   0  0  0  0  0  0
  -31.8238  -14.5938   20.0622 O   0  0  0  0  0  0
  -21.6632   -6.8891   21.4239 O   0  0  0  0  0  0
  -22.3513  -14.5508   20.6707 O   0  0  0  0  0  0
  -24.6201  -31.8680   23.2122 C   0  0  0  0  0  0
  -25.9111  -32.4784   23.8461 C   0  0  1  0  0  0
  -27.2345  -27.4454   20.0907 C   0  0  0  0  0  0
  -25.5978  -33.8582   24.2384 N   0  0  0  0  0  0
  -23.4059  -30.4963   21.5514 C   0  0  2  0  0  0
  -24.8489  -28.9616   20.1211 C   0  0  0  0  0  0
  -22.7418  -29.4708   22.4978 C   0  0  0  0  0  0
  -18.0277  -28.1428   22.8467 C   0  0  0  0  0  0
  -24.1441  -36.7273   23.2640 C   0  0  0  0  0  0
  -25.9365  -30.8463   21.3575 C   0  0  0  0  0  0
  -26.0144  -29.4822   20.6976 C   0  0  0  0  0  0
  -27.2169  -28.7379   20.6596 C   0  0  0  0  0  0
  -26.0470  -26.9380   19.5205 C   0  0  0  0  0  0
  -24.8570  -27.6875   19.5337 C   0  0  0  0  0  0
  -23.6149  -29.8336   20.1672 C   0  0  0  0  0  0
  -25.4045  -36.3064   24.0339 C   0  0  1  0  0  0
  -20.5863  -28.3708   23.1270 C   0  0  2  0  0  0
  -20.6744  -26.9444   22.5371 C   0  0  0  0  0  0
  -19.5724  -26.6440   21.5155 C   0  0  0  0  0  0
  -18.1914  -26.7995   22.1583 C   0  0  0  0  0  0
  -19.1520  -28.8875   23.2894 C   0  0  0  0  0  0
  -18.9460  -30.1472   23.8932 C   0  0  0  0  0  0
  -17.6452  -30.6615   24.0576 C   0  0  0  0  0  0
  -25.9004  -34.9438   23.5134 C   0  0  0  0  0  0
  -16.5345  -29.9117   23.6348 C   0  0  0  0  0  0
  -16.7266  -28.6559   23.0336 C   0  0  0  0  0  0
  -26.4490  -31.6494   25.0779 C   0  0  0  0  0  0
  -25.3699  -31.3488   26.1448 C   0  0  0  0  0  0
  -27.0346  -30.2955   24.6103 C   0  0  0  0  0  0
  -27.6108  -32.4129   25.7583 C   0  0  0  0  0  0
  -27.5502  -37.1727   24.8505 C   0  0  0  0  0  0
  -21.4142  -29.3081   22.3697 N   0  0  0  0  0  0
  -26.4223  -37.3758   23.9469 N   0  0  0  0  0  0
  -24.6726  -31.0852   22.0982 N   0  0  0  0  0  0
  -23.4192  -28.8206   23.2979 O   0  0  0  0  0  0
  -28.4106  -26.7230   20.0844 O   0  0  0  0  0  0
  -26.5520  -34.8906   22.4667 O   0  0  0  0  0  0
  -23.5384  -32.1416   23.7524 O   0  0  0  0  0  0
  -29.6156  -18.0152   23.2149 C   0  0  0  0  0  0
  -29.1150  -19.2142   23.7654 C   0  0  0  0  0  0
  -30.8353  -19.3147   21.5568 C   0  0  0  0  0  0
  -30.4732  -18.0619   22.0953 C   0  0  0  0  0  0
  -29.4622  -20.4667   23.2096 C   0  0  0  0  0  0
  -30.3356  -20.5170   22.0964 C   0  0  0  0  0  0
  -29.9473  -23.4973   19.5797 C   0  0  0  0  0  0
  -28.8763  -21.7342   23.8126 C   0  0  0  0  0  0
  -27.6770  -22.3601   17.7159 C   0  0  0  0  0  0
  -29.0767  -25.2020   17.9113 C   0  0  0  0  0  0
  -31.0416  -16.8054   21.4392 C   0  0  0  0  0  0
  -30.7141  -21.8284   21.4135 C   0  0  0  0  0  0
  -29.7174  -22.1503   20.2880 C   0  0  0  0  0  0
  -30.2661  -15.4780   21.6348 C   0  0  0  0  0  0
  -27.4810  -23.4552   18.7851 C   0  0  0  0  0  0
  -28.3368  -25.3080   20.3553 C   0  0  0  0  0  0
  -28.7108  -24.3550   19.1593 C   0  0  1  0  0  0
  -31.1014  -23.8917   19.3808 O   0  0  0  0  0  0
  -31.4563  -12.3664   19.1076 H   0  0  0  0  0  0
  -30.3020  -11.2702   19.8073 H   0  0  0  0  0  0
  -29.7138  -11.7719   17.4244 H   0  0  0  0  0  0
  -29.6728  -13.4849   17.7690 H   0  0  0  0  0  0
  -27.8004  -11.3243   18.8075 H   0  0  0  0  0  0
  -27.3627  -12.6697   17.7874 H   0  0  0  0  0  0
  -27.7111  -14.2641   19.5873 H   0  0  0  0  0  0
  -28.6588  -11.9483   21.3421 H   0  0  0  0  0  0
  -28.4701  -13.5906   21.8747 H   0  0  0  0  0  0
  -25.2752   -9.5659   22.4761 H   0  0  0  0  0  0
  -23.9978   -7.4621   22.7468 H   0  0  0  0  0  0
  -21.0872   -8.8771   19.8901 H   0  0  0  0  0  0
  -22.3744  -10.9660   19.6127 H   0  0  0  0  0  0
  -21.1999   -7.6132   23.9715 H   0  0  0  0  0  0
  -21.1471   -6.0510   25.9075 H   0  0  0  0  0  0
  -22.0614   -2.7608   23.2856 H   0  0  0  0  0  0
  -22.4110  -11.9815   22.4728 H   0  0  0  0  0  0
  -21.1083  -13.1153   22.2559 H   0  0  0  0  0  0
  -24.6771  -15.8605   20.5209 H   0  0  0  0  0  0
  -26.2984  -15.6208   20.1111 H   0  0  0  0  0  0
  -26.7205  -32.5531   23.1274 H   0  0  0  0  0  0
  -25.0367  -33.9739   25.0684 H   0  0  0  0  0  0
  -22.7017  -31.3184   21.4110 H   0  0  0  0  0  0
  -23.3713  -35.9601   23.3332 H   0  0  0  0  0  0
  -24.3538  -36.8903   22.2060 H   0  0  0  0  0  0
  -23.7193  -37.6457   23.6680 H   0  0  0  0  0  0
  -26.0495  -31.6229   20.5988 H   0  0  0  0  0  0
  -26.8199  -30.8940   21.9823 H   0  0  0  0  0  0
  -28.1310  -29.1470   21.0665 H   0  0  0  0  0  0
  -26.0285  -25.9705   19.0541 H   0  0  0  0  0  0
  -23.9573  -27.2785   19.0940 H   0  0  0  0  0  0
  -23.7286  -30.6144   19.4144 H   0  0  0  0  0  0
  -22.7419  -29.2571   19.8602 H   0  0  0  0  0  0
  -25.1168  -36.1902   25.0811 H   0  0  0  0  0  0
  -20.9960  -28.3285   24.1383 H   0  0  0  0  0  0
  -20.5567  -26.2343   23.3569 H   0  0  0  0  0  0
  -21.6618  -26.7420   22.1198 H   0  0  0  0  0  0
  -19.6894  -25.6345   21.1205 H   0  0  0  0  0  0
  -19.6698  -27.3231   20.6671 H   0  0  0  0  0  0
  -17.4149  -26.6739   21.4019 H   0  0  0  0  0  0
  -18.0350  -26.0118   22.8963 H   0  0  0  0  0  0
  -19.7921  -30.7277   24.2358 H   0  0  0  0  0  0
  -17.4998  -31.6290   24.5185 H   0  0  0  0  0  0
  -15.5341  -30.3001   23.7697 H   0  0  0  0  0  0
  -15.8676  -28.0891   22.7012 H   0  0  0  0  0  0
  -24.6118  -30.6584   25.7721 H   0  0  0  0  0  0
  -24.8564  -32.2529   26.4705 H   0  0  0  0  0  0
  -25.7963  -30.8829   27.0358 H   0  0  0  0  0  0
  -26.2915  -29.6759   24.1061 H   0  0  0  0  0  0
  -27.4071  -29.7090   25.4522 H   0  0  0  0  0  0
  -27.8781  -30.4305   23.9325 H   0  0  0  0  0  0
  -27.2918  -33.3630   26.1884 H   0  0  0  0  0  0
  -28.4096  -32.6259   25.0463 H   0  0  0  0  0  0
  -28.0538  -31.8354   26.5719 H   0  0  0  0  0  0
  -28.2486  -38.0045   24.7576 H   0  0  0  0  0  0
  -28.0990  -36.2561   24.6283 H   0  0  0  0  0  0
  -27.2237  -37.1357   25.8914 H   0  0  0  0  0  0
  -20.9307  -29.8894   21.7004 H   0  0  0  0  0  0
  -26.0096  -38.2809   24.1565 H   0  0  0  0  0  0
  -29.3333  -17.0690   23.6582 H   0  0  0  0  0  0
  -28.4515  -19.1643   24.6180 H   0  0  0  0  0  0
  -31.4978  -19.3541   20.7023 H   0  0  0  0  0  0
  -28.2631  -21.5126   24.6865 H   0  0  0  0  0  0
  -28.2587  -22.2637   23.0861 H   0  0  0  0  0  0
  -29.6673  -22.4077   24.1435 H   0  0  0  0  0  0
  -26.7472  -21.8000   17.6004 H   0  0  0  0  0  0
  -28.4395  -21.6284   17.9741 H   0  0  0  0  0  0
  -27.9333  -22.7747   16.7407 H   0  0  0  0  0  0
  -29.4659  -24.5857   17.0999 H   0  0  0  0  0  0
  -29.8376  -25.9509   18.1367 H   0  0  0  0  0  0
  -28.2098  -25.7375   17.5217 H   0  0  0  0  0  0
  -32.0689  -16.6836   21.7845 H   0  0  0  0  0  0
  -31.1067  -17.0173   20.3697 H   0  0  0  0  0  0
  -31.7172  -21.7215   20.9964 H   0  0  0  0  0  0
  -30.7736  -22.6500   22.1256 H   0  0  0  0  0  0
  -29.7979  -21.3552   19.5464 H   0  0  0  0  0  0
  -28.7061  -22.1133   20.6898 H   0  0  0  0  0  0
  -29.2067  -15.6575   21.4604 H   0  0  0  0  0  0
  -30.3780  -15.1155   22.6581 H   0  0  0  0  0  0
  -27.0775  -22.9798   19.6776 H   0  0  0  0  0  0
  -26.6668  -24.0828   18.4287 H   0  0  0  0  0  0
  -29.0407  -25.1627   21.1778 H   0  0  0  0  0  0
  -27.3835  -25.0291   20.8085 H   0  0  0  0  0  0
  1 25  1  0  0  0
  1 30  2  0  0  0
  1 84  1  0  0  0
  2  3  1  0  0  0
  2 25  1  0  0  0
  2 89  1  0  0  0
  2 90  1  0  0  0
  3  4  1  0  0  0
  3 91  1  0  0  0
  3 92  1  0  0  0
  4  5  1  0  0  0
  4 93  1  0  0  0
  4 94  1  0  0  0
  5  6  1  0  0  0
  5 26  1  0  0  0
  5 95  1  0  0  0
  6 25  1  0  0  0
  6 96  1  0  0  0
  6 97  1  0  0  0
  7  8  2  0  0  0
  7 26  1  0  0  0
  7 29  1  0  0  0
  8  9  1  0  0  0
  8 22  1  0  0  0
  9 10  1  0  0  0
  9 27  2  0  0  0
 10 11  2  0  0  0
 10 15  1  0  0  0
 11 12  1  0  0  0
 11 98  1  0  0  0
 12 13  2  0  0  0
 12 99  1  0  0  0
 13 14  1  0  0  0
 13 31  1  0  0  0
 14 15  2  0  0  0
 14100  1  0  0  0
 15101  1  0  0  0
 16 17  2  0  0  0
 16 21  1  0  0  0
 16 31  1  0  0  0
 17 18  1  0  0  0
 17102  1  0  0  0
 18 19  2  0  0  0
 18103  1  0  0  0
 19 20  1  0  0  0
 19 24  1  0  0  0
 20 21  2  0  0  0
 20104  1  0  0  0
 21 23  1  0  0  0
 22 28  1  0  0  0
 22 32  2  0  0  0
 26 27  1  0  0  0
 28105  1  0  0  0
 28106  1  0  0  0
 29107  1  0  0  0
 29108  1  0  0  0
 33 34  1  0  0  0
 33 66  1  0  0  0
 33 70  2  0  0  0
 34 36  1  0  0  0
 34 59  1  0  0  0
 34109  1  0  0  0
 35 44  2  0  0  0
 35 45  1  0  0  0
 35 68  1  0  0  0
 36 56  1  0  0  0
 36110  1  0  0  0
 37 39  1  0  0  0
 37 47  1  0  0  0
 37 66  1  0  0  0
 37111  1  0  0  0
 38 43  2  0  0  0
 38 46  1  0  0  0
 38 47  1  0  0  0
 39 64  1  0  0  0
 39 67  2  0  0  0
 40 52  1  0  0  0
 40 53  2  0  0  0
 40 58  1  0  0  0
 41112  1  0  0  0
 41113  1  0  0  0
 41114  1  0  0  0
 41 48  1  0  0  0
 42 43  1  0  0  0
 42 66  1  0  0  0
 42115  1  0  0  0
 42116  1  0  0  0
 43 44  1  0  0  0
 44117  1  0  0  0
 45 46  2  0  0  0
 45118  1  0  0  0
 46119  1  0  0  0
 47120  1  0  0  0
 47121  1  0  0  0
 48 56  1  0  0  0
 48 65  1  0  0  0
 48122  1  0  0  0
 49 50  1  0  0  0
 49 53  1  0  0  0
 49 64  1  0  0  0
 49123  1  0  0  0
 50 51  1  0  0  0
 50124  1  0  0  0
 50125  1  0  0  0
 51 52  1  0  0  0
 51126  1  0  0  0
 51127  1  0  0  0
 52128  1  0  0  0
 52129  1  0  0  0
 53 54  1  0  0  0
 54 55  2  0  0  0
 54130  1  0  0  0
 55 57  1  0  0  0
 55131  1  0  0  0
 56 69  2  0  0  0
 57 58  2  0  0  0
 57132  1  0  0  0
 58133  1  0  0  0
 59 60  1  0  0  0
 59 61  1  0  0  0
 59 62  1  0  0  0
 60134  1  0  0  0
 60135  1  0  0  0
 60136  1  0  0  0
 61137  1  0  0  0
 61138  1  0  0  0
 61139  1  0  0  0
 62140  1  0  0  0
 62141  1  0  0  0
 62142  1  0  0  0
 63 65  1  0  0  0
 63143  1  0  0  0
 63144  1  0  0  0
 63145  1  0  0  0
 64146  1  0  0  0
 65147  1  0  0  0
 68 86  1  0  0  0
 71 72  2  0  0  0
 71 74  1  0  0  0
 71148  1  0  0  0
 72 75  1  0  0  0
 72149  1  0  0  0
 73 74  2  0  0  0
 73 76  1  0  0  0
 73150  1  0  0  0
 74 81  1  0  0  0
 75 76  2  0  0  0
 75 78  1  0  0  0
 76 82  1  0  0  0
 77 83  1  0  0  0
 77 88  2  0  0  0
 77 87  1  0  0  0
 78151  1  0  0  0
 78152  1  0  0  0
 78153  1  0  0  0
 79 85  1  0  0  0
 79154  1  0  0  0
 79155  1  0  0  0
 79156  1  0  0  0
 80157  1  0  0  0
 80158  1  0  0  0
 80159  1  0  0  0
 80 87  1  0  0  0
 81 84  1  0  0  0
 81160  1  0  0  0
 81161  1  0  0  0
 82 83  1  0  0  0
 82162  1  0  0  0
 82163  1  0  0  0
 83164  1  0  0  0
 83165  1  0  0  0
 84166  1  0  0  0
 84167  1  0  0  0
 85 87  1  0  0  0
 85168  1  0  0  0
 85169  1  0  0  0
 86 87  1  0  0  0
 86170  1  0  0  0
 86171  1  0  0  0
M  ISO  4   1 100  68 101  84 100  86 101
M  END
> <chiral flag>
0

> <version>
0

> <s_m_source_file>
/data/baiqing/PycharmProjects/Reinvent-master-3.2/result/LINK_invent/BTK/process_docking_weight1_custom_product_contain_oxygen_bond_distance_aromatic_linkinvent_7_9_3/rearranged_h_0133.sdf

> <i_m_source_file_index>
66

> <r_mmod_Potential_Energy-OPLS-2005>
-20.3051528930664

> <r_mmod_Stretch_Energy-OPLS-2005>
42.4789848327637

> <r_mmod_Bend_Energy-OPLS-2005>
107.235229492188

> <r_mmod_Torsional_Energy-OPLS-2005>
196.589904785156

> <r_mmod_Improper_Torsional_Energy-OPLS-2005>
1.78305244445801

> <r_mmod_Van_der_Waal_Energy-OPLS-2005>
166.378433227539

> <r_mmod_Electrostatic_Energy-OPLS-2005>
-347.549377441406

> <r_mmod_Solvation_Energy-OPLS-2005>
-196.579895019531

> <b_mmod_Minimization_Converged-OPLS-2005>
0

> <r_mmod_RMS_Derivative-OPLS-2005>
4.89297771453857

$$$$
66
                    3D
 Structure written by MMmdl.
169177  0  0  1  0            999 V2000
  -30.7450  -14.4033   20.6449 C   0  0  0  0  0  0
  -30.4165  -12.2879   19.4065 C   0  0  0  0  0  0
  -29.4911  -12.5240   18.1958 C   0  0  0  0  0  0
  -28.0104  -12.3761   18.6003 C   0  0  0  0  0  0
  -27.6620  -13.1966   19.8702 C   0  0  2  0  0  0
  -28.7017  -12.9540   20.9874 C   0  0  0  0  0  0
  -25.2591  -13.8133   20.5620 C   0  0  0  0  0  0
  -24.1846  -13.0419   20.9162 C   0  0  0  0  0  0
  -24.6400  -11.6890   20.8725 C   0  0  0  0  0  0
  -23.9065  -10.4267   21.0392 C   0  0  0  0  0  0
  -24.3604   -9.4178   21.9180 C   0  0  0  0  0  0
  -23.6265   -8.2226   22.0767 C   0  0  0  0  0  0
  -22.4256   -8.0267   21.3543 C   0  0  0  0  0  0
  -21.9889   -9.0237   20.4654 C   0  0  0  0  0  0
  -22.7239  -10.2108   20.3043 C   0  0  0  0  0  0
  -21.6845   -6.0722   22.5281 C   0  0  0  0  0  0
  -21.4022   -6.5632   23.8215 C   0  0  0  0  0  0
  -21.3650   -5.6791   24.9179 C   0  0  0  0  0  0
  -21.6020   -4.3052   24.7229 C   0  0  0  0  0  0
  -21.8817   -3.8134   23.4357 C   0  0  0  0  0  0
  -21.9195   -4.6949   22.3408 C   0  0  0  0  0  0
  -22.7870  -13.5245   21.1849 C   0  0  0  0  0  0
  -22.1683   -4.2135   21.0990 F   0  0  0  0  0  0
  -21.5592   -3.4538   25.7747 F   0  0  0  0  0  0
  -30.0430  -13.2516   20.4538 N   0  0  0  0  0  0
  -26.3023  -12.9287   20.3318 N   0  0  0  0  0  0
  -25.9313  -11.6458   20.5717 N   0  0  0  0  0  0
  -22.0509  -12.8248   22.0421 N   0  0  0  0  0  0
  -25.4289  -15.1841   20.4005 N   0  0  0  0  0  0
  -31.8069  -14.6290   20.0573 O   0  0  0  0  0  0
  -21.6613   -6.8871   21.4250 O   0  0  0  0  0  0
  -22.3537  -14.5531   20.6699 O   0  0  0  0  0  0
  -24.6128  -31.8705   23.2133 C   0  0  0  0  0  0
  -25.9041  -32.4836   23.8411 C   0  0  1  0  0  0
  -27.2289  -27.4531   20.0969 C   0  0  0  0  0  0
  -25.5910  -33.8630   24.2343 N   0  0  0  0  0  0
  -23.3997  -30.4948   21.5516 C   0  0  2  0  0  0
  -24.8472  -28.9651   20.1118 C   0  0  0  0  0  0
  -22.7399  -29.4679   22.4996 C   0  0  0  0  0  0
  -18.0286  -28.1360   22.8500 C   0  0  0  0  0  0
  -24.1482  -36.7318   23.2637 C   0  0  0  0  0  0
  -25.9259  -30.8403   21.3680 C   0  0  0  0  0  0
  -26.0030  -29.4756   20.7175 C   0  0  0  0  0  0
  -27.1958  -28.7213   20.7192 C   0  0  0  0  0  0
  -26.0722  -26.9683   19.4586 C   0  0  0  0  0  0
  -24.8752  -27.7082   19.4815 C   0  0  0  0  0  0
  -23.6080  -29.8294   20.1643 C   0  0  0  0  0  0
  -25.4103  -36.3119   24.0340 C   0  0  1  0  0  0
  -20.5872  -28.3669   23.1324 C   0  0  2  0  0  0
  -20.6793  -26.9389   22.5459 C   0  0  0  0  0  0
  -19.5771  -26.6313   21.5269 C   0  0  0  0  0  0
  -18.1940  -26.7892   22.1656 C   0  0  0  0  0  0
  -19.1530  -28.8828   23.2895 C   0  0  0  0  0  0
  -18.9447  -30.1446   23.8884 C   0  0  0  0  0  0
  -17.6451  -30.6582   24.0529 C   0  0  0  0  0  0
  -25.9031  -34.9484   23.5130 C   0  0  0  0  0  0
  -16.5348  -29.9070   23.6306 C   0  0  0  0  0  0
  -16.7279  -28.6478   23.0350 C   0  0  0  0  0  0
  -26.4478  -31.6616   25.0733 C   0  0  0  0  0  0
  -25.3761  -31.3723   26.1496 C   0  0  0  0  0  0
  -27.0309  -30.3056   24.6115 C   0  0  0  0  0  0
  -27.6045  -32.4343   25.7498 C   0  0  0  0  0  0
  -27.5573  -37.1814   24.8461 C   0  0  0  0  0  0
  -21.4130  -29.3035   22.3721 N   0  0  0  0  0  0
  -26.4286  -37.3799   23.9409 N   0  0  0  0  0  0
  -24.6637  -31.0829   22.1026 N   0  0  0  0  0  0
  -23.4170  -28.8240   23.3059 O   0  0  0  0  0  0
  -28.3604  -26.6745   20.0926 O   0  0  0  0  0  0
  -26.5586  -34.8930   22.4690 O   0  0  0  0  0  0
  -23.5331  -32.1450   23.7542 O   0  0  0  0  0  0
  -27.5642  -16.8758   22.4694 C   0  0  0  0  0  0
  -26.8262  -19.0760   23.2053 C   0  0  0  0  0  0
  -28.6461  -18.8802   21.5928 C   0  0  0  0  0  0
  -26.7072  -17.6729   23.2496 C   0  0  0  0  0  0
  -28.5430  -17.4695   21.6459 C   0  0  0  0  0  0
  -27.7813  -19.6895   22.3661 C   0  0  0  0  0  0
  -25.6503  -17.0217   24.1198 C   0  0  0  0  0  0
  -24.6609  -23.3884   22.3058 C   0  0  0  0  0  0
  -29.4250  -16.5792   20.7802 C   0  0  0  0  0  0
  -27.8521  -21.2144   22.3116 C   0  0  0  0  0  0
  -30.2176  -15.5121   21.5716 C   0  0  0  0  0  0
  -26.5759  -21.8499   21.7103 C   0  0  0  0  0  0
  -28.2984  -24.6759   21.5882 C   0  0  0  0  0  0
  -26.7792  -24.4448   21.4885 C   0  0  0  0  0  0
  -28.7278  -26.1508   21.3751 C   0  0  0  0  0  0
  -26.1944  -23.2468   22.2705 C   0  0  1  0  0  0
  -31.4651  -12.3659   19.1119 H   0  0  0  0  0  0
  -30.2971  -11.2701   19.7815 H   0  0  0  0  0  0
  -29.7305  -11.8233   17.3952 H   0  0  0  0  0  0
  -29.6680  -13.5227   17.7910 H   0  0  0  0  0  0
  -27.8129  -11.3173   18.7752 H   0  0  0  0  0  0
  -27.3668  -12.6748   17.7708 H   0  0  0  0  0  0
  -27.7075  -14.2442   19.5825 H   0  0  0  0  0  0
  -28.6693  -11.9113   21.3076 H   0  0  0  0  0  0
  -28.4336  -13.5220   21.8740 H   0  0  0  0  0  0
  -25.2747   -9.5635   22.4755 H   0  0  0  0  0  0
  -23.9938   -7.4616   22.7505 H   0  0  0  0  0  0
  -21.0800   -8.8765   19.8979 H   0  0  0  0  0  0
  -22.3697  -10.9635   19.6140 H   0  0  0  0  0  0
  -21.2039   -7.6145   23.9711 H   0  0  0  0  0  0
  -21.1479   -6.0534   25.9082 H   0  0  0  0  0  0
  -22.0613   -2.7593   23.2868 H   0  0  0  0  0  0
  -22.4111  -11.9894   22.4783 H   0  0  0  0  0  0
  -21.1129  -13.1296   22.2637 H   0  0  0  0  0  0
  -24.6689  -15.8408   20.5399 H   0  0  0  0  0  0
  -26.3004  -15.6353   20.1533 H   0  0  0  0  0  0
  -26.7116  -32.5558   23.1177 H   0  0  0  0  0  0
  -25.0077  -33.9789   25.0498 H   0  0  0  0  0  0
  -22.6892  -31.3126   21.4149 H   0  0  0  0  0  0
  -23.3735  -35.9659   23.3316 H   0  0  0  0  0  0
  -24.3571  -36.8915   22.2049 H   0  0  0  0  0  0
  -23.7249  -37.6532   23.6639 H   0  0  0  0  0  0
  -26.0380  -31.6084   20.6009 H   0  0  0  0  0  0
  -26.8123  -30.8908   21.9894 H   0  0  0  0  0  0
  -28.0869  -29.1067   21.1938 H   0  0  0  0  0  0
  -26.0951  -26.0098   18.9610 H   0  0  0  0  0  0
  -23.9915  -27.3116   19.0021 H   0  0  0  0  0  0
  -23.7152  -30.6056   19.4056 H   0  0  0  0  0  0
  -22.7318  -29.2491   19.8688 H   0  0  0  0  0  0
  -25.1282  -36.1975   25.0832 H   0  0  0  0  0  0
  -20.9955  -28.3289   24.1445 H   0  0  0  0  0  0
  -20.5730  -26.2281   23.3668 H   0  0  0  0  0  0
  -21.6654  -26.7436   22.1243 H   0  0  0  0  0  0
  -19.6942  -25.6195   21.1369 H   0  0  0  0  0  0
  -19.6716  -27.3050   20.6747 H   0  0  0  0  0  0
  -17.4205  -26.6625   21.4066 H   0  0  0  0  0  0
  -18.0340  -26.0045   22.9056 H   0  0  0  0  0  0
  -19.7924  -30.7267   24.2244 H   0  0  0  0  0  0
  -17.4993  -31.6272   24.5116 H   0  0  0  0  0  0
  -15.5342  -30.2962   23.7615 H   0  0  0  0  0  0
  -15.8681  -28.0790   22.7072 H   0  0  0  0  0  0
  -24.5909  -30.7095   25.7837 H   0  0  0  0  0  0
  -24.8989  -32.2888   26.4980 H   0  0  0  0  0  0
  -25.8137  -30.8865   27.0228 H   0  0  0  0  0  0
  -26.2858  -29.6819   24.1162 H   0  0  0  0  0  0
  -27.4058  -29.7289   25.4579 H   0  0  0  0  0  0
  -27.8698  -30.4355   23.9275 H   0  0  0  0  0  0
  -27.2644  -33.3616   26.2122 H   0  0  0  0  0  0
  -28.3837  -32.6963   25.0327 H   0  0  0  0  0  0
  -28.0741  -31.8456   26.5389 H   0  0  0  0  0  0
  -28.2604  -38.0097   24.7499 H   0  0  0  0  0  0
  -28.1058  -36.2634   24.6296 H   0  0  0  0  0  0
  -27.2295  -37.1476   25.8864 H   0  0  0  0  0  0
  -20.9275  -29.8749   21.6951 H   0  0  0  0  0  0
  -26.0179  -38.2875   24.1407 H   0  0  0  0  0  0
  -27.4530  -15.8000   22.4936 H   0  0  0  0  0  0
  -26.1635  -19.6905   23.8005 H   0  0  0  0  0  0
  -29.3770  -19.3441   20.9446 H   0  0  0  0  0  0
  -25.5554  -15.9574   23.8973 H   0  0  0  0  0  0
  -24.6803  -17.4867   23.9432 H   0  0  0  0  0  0
  -25.8977  -17.1259   25.1768 H   0  0  0  0  0  0
  -24.2070  -22.6322   22.9480 H   0  0  0  0  0  0
  -24.2286  -23.2783   21.3102 H   0  0  0  0  0  0
  -24.3527  -24.3617   22.6900 H   0  0  0  0  0  0
  -30.1197  -17.1931   20.2046 H   0  0  0  0  0  0
  -28.7817  -16.1054   20.0405 H   0  0  0  0  0  0
  -28.7321  -21.5408   21.7552 H   0  0  0  0  0  0
  -28.0015  -21.5632   23.3343 H   0  0  0  0  0  0
  -29.6474  -15.0953   22.3956 H   0  0  0  0  0  0
  -31.0672  -15.9930   22.0574 H   0  0  0  0  0  0
  -25.7424  -21.1818   21.9296 H   0  0  0  0  0  0
  -26.6332  -21.8591   20.6215 H   0  0  0  0  0  0
  -28.8145  -24.0258   20.8825 H   0  0  0  0  0  0
  -28.6416  -24.3727   22.5783 H   0  0  0  0  0  0
  -26.4989  -24.3594   20.4394 H   0  0  0  0  0  0
  -26.2893  -25.3474   21.8565 H   0  0  0  0  0  0
  -29.8122  -26.2184   21.4567 H   0  0  0  0  0  0
  -28.3343  -26.7602   22.1911 H   0  0  0  0  0  0
  -26.5260  -23.3177   23.3079 H   0  0  0  0  0  0
  1 25  1  0  0  0
  1 30  2  0  0  0
  1 81  1  0  0  0
  2  3  1  0  0  0
  2 25  1  0  0  0
  2 87  1  0  0  0
  2 88  1  0  0  0
  3  4  1  0  0  0
  3 89  1  0  0  0
  3 90  1  0  0  0
  4  5  1  0  0  0
  4 91  1  0  0  0
  4 92  1  0  0  0
  5  6  1  0  0  0
  5 26  1  0  0  0
  5 93  1  0  0  0
  6 25  1  0  0  0
  6 94  1  0  0  0
  6 95  1  0  0  0
  7  8  2  0  0  0
  7 26  1  0  0  0
  7 29  1  0  0  0
  8  9  1  0  0  0
  8 22  1  0  0  0
  9 10  1  0  0  0
  9 27  2  0  0  0
 10 11  2  0  0  0
 10 15  1  0  0  0
 11 12  1  0  0  0
 11 96  1  0  0  0
 12 13  2  0  0  0
 12 97  1  0  0  0
 13 14  1  0  0  0
 13 31  1  0  0  0
 14 15  2  0  0  0
 14 98  1  0  0  0
 15 99  1  0  0  0
 16 17  2  0  0  0
 16 21  1  0  0  0
 16 31  1  0  0  0
 17 18  1  0  0  0
 17100  1  0  0  0
 18 19  2  0  0  0
 18101  1  0  0  0
 19 20  1  0  0  0
 19 24  1  0  0  0
 20 21  2  0  0  0
 20102  1  0  0  0
 21 23  1  0  0  0
 22 28  1  0  0  0
 22 32  2  0  0  0
 26 27  1  0  0  0
 28103  1  0  0  0
 28104  1  0  0  0
 29105  1  0  0  0
 29106  1  0  0  0
 33 34  1  0  0  0
 33 66  1  0  0  0
 33 70  2  0  0  0
 34 36  1  0  0  0
 34 59  1  0  0  0
 34107  1  0  0  0
 35 44  2  0  0  0
 35 45  1  0  0  0
 35 68  1  0  0  0
 36 56  1  0  0  0
 36108  1  0  0  0
 37 39  1  0  0  0
 37 47  1  0  0  0
 37 66  1  0  0  0
 37109  1  0  0  0
 38 43  2  0  0  0
 38 46  1  0  0  0
 38 47  1  0  0  0
 39 64  1  0  0  0
 39 67  2  0  0  0
 40 52  1  0  0  0
 40 53  2  0  0  0
 40 58  1  0  0  0
 41110  1  0  0  0
 41111  1  0  0  0
 41112  1  0  0  0
 41 48  1  0  0  0
 42 43  1  0  0  0
 42 66  1  0  0  0
 42113  1  0  0  0
 42114  1  0  0  0
 43 44  1  0  0  0
 44115  1  0  0  0
 45 46  2  0  0  0
 45116  1  0  0  0
 46117  1  0  0  0
 47118  1  0  0  0
 47119  1  0  0  0
 48 56  1  0  0  0
 48 65  1  0  0  0
 48120  1  0  0  0
 49 50  1  0  0  0
 49 53  1  0  0  0
 49 64  1  0  0  0
 49121  1  0  0  0
 50 51  1  0  0  0
 50122  1  0  0  0
 50123  1  0  0  0
 51 52  1  0  0  0
 51124  1  0  0  0
 51125  1  0  0  0
 52126  1  0  0  0
 52127  1  0  0  0
 53 54  1  0  0  0
 54 55  2  0  0  0
 54128  1  0  0  0
 55 57  1  0  0  0
 55129  1  0  0  0
 56 69  2  0  0  0
 57 58  2  0  0  0
 57130  1  0  0  0
 58131  1  0  0  0
 59 60  1  0  0  0
 59 61  1  0  0  0
 59 62  1  0  0  0
 60132  1  0  0  0
 60133  1  0  0  0
 60134  1  0  0  0
 61135  1  0  0  0
 61136  1  0  0  0
 61137  1  0  0  0
 62138  1  0  0  0
 62139  1  0  0  0
 62140  1  0  0  0
 63 65  1  0  0  0
 63141  1  0  0  0
 63142  1  0  0  0
 63143  1  0  0  0
 64144  1  0  0  0
 65145  1  0  0  0
 68 85  1  0  0  0
 71 74  2  0  0  0
 71 75  1  0  0  0
 71146  1  0  0  0
 72 74  1  0  0  0
 72 76  2  0  0  0
 72147  1  0  0  0
 73 75  2  0  0  0
 73 76  1  0  0  0
 73148  1  0  0  0
 74 77  1  0  0  0
 75 79  1  0  0  0
 76 80  1  0  0  0
 77149  1  0  0  0
 77150  1  0  0  0
 77151  1  0  0  0
 78152  1  0  0  0
 78153  1  0  0  0
 78154  1  0  0  0
 78 86  1  0  0  0
 79 81  1  0  0  0
 79155  1  0  0  0
 79156  1  0  0  0
 80 82  1  0  0  0
 80157  1  0  0  0
 80158  1  0  0  0
 81159  1  0  0  0
 81160  1  0  0  0
 82 86  1  0  0  0
 82161  1  0  0  0
 82162  1  0  0  0
 83 84  1  0  0  0
 83 85  1  0  0  0
 83163  1  0  0  0
 83164  1  0  0  0
 84 86  1  0  0  0
 84165  1  0  0  0
 84166  1  0  0  0
 85167  1  0  0  0
 85168  1  0  0  0
 86169  1  0  0  0
M  ISO  4   1 100  68 101  81 100  85 101
M  END
> <chiral flag>
0

> <version>
0

> <s_m_source_file>
/data/baiqing/PycharmProjects/Reinvent-master-3.2/result/LINK_invent/BTK/process_docking_weight1_custom_product_contain_oxygen_bond_distance_aromatic_linkinvent_7_9_3/rearranged_h_0133.sdf

> <i_m_source_file_index>
67

> <r_mmod_Potential_Energy-OPLS-2005>
-30.5344715118408

> <r_mmod_Stretch_Energy-OPLS-2005>
34.5541915893555

> <r_mmod_Bend_Energy-OPLS-2005>
95.8406829833984

> <r_mmod_Torsional_Energy-OPLS-2005>
216.909362792969

> <r_mmod_Improper_Torsional_Energy-OPLS-2005>
1.88301491737366

> <r_mmod_Van_der_Waal_Energy-OPLS-2005>
135.904434204102

> <r_mmod_Electrostatic_Energy-OPLS-2005>
-348.951995849609

> <r_mmod_Solvation_Energy-OPLS-2005>
-175.577362060547

> <b_mmod_Minimization_Converged-OPLS-2005>
0

> <r_mmod_RMS_Derivative-OPLS-2005>
2.15949702262878

$$$$
67
                    3D
 Structure written by MMmdl.
170178  0  0  1  0            999 V2000
  -30.6775  -14.4694   20.5461 C   0  0  0  0  0  0
  -30.4291  -12.2892   19.4225 C   0  0  0  0  0  0
  -29.4981  -12.4951   18.2067 C   0  0  0  0  0  0
  -28.0159  -12.3489   18.6154 C   0  0  0  0  0  0
  -27.6644  -13.1815   19.8737 C   0  0  2  0  0  0
  -28.7088  -12.9442   20.9927 C   0  0  0  0  0  0
  -25.2629  -13.8093   20.5596 C   0  0  0  0  0  0
  -24.1872  -13.0423   20.9152 C   0  0  0  0  0  0
  -24.6390  -11.6869   20.8778 C   0  0  0  0  0  0
  -23.9054  -10.4285   21.0439 C   0  0  0  0  0  0
  -24.3606   -9.4196   21.9210 C   0  0  0  0  0  0
  -23.6291   -8.2234   22.0779 C   0  0  0  0  0  0
  -22.4278   -8.0283   21.3558 C   0  0  0  0  0  0
  -21.9909   -9.0260   20.4664 C   0  0  0  0  0  0
  -22.7233  -10.2140   20.3075 C   0  0  0  0  0  0
  -21.6856   -6.0740   22.5273 C   0  0  0  0  0  0
  -21.4024   -6.5648   23.8206 C   0  0  0  0  0  0
  -21.3651   -5.6800   24.9172 C   0  0  0  0  0  0
  -21.6037   -4.3064   24.7220 C   0  0  0  0  0  0
  -21.8815   -3.8149   23.4342 C   0  0  0  0  0  0
  -21.9194   -4.6969   22.3398 C   0  0  0  0  0  0
  -22.7895  -13.5248   21.1827 C   0  0  0  0  0  0
  -22.1662   -4.2147   21.0980 F   0  0  0  0  0  0
  -21.5617   -3.4549   25.7736 F   0  0  0  0  0  0
  -30.0370  -13.2692   20.4488 N   0  0  0  0  0  0
  -26.3045  -12.9210   20.3352 N   0  0  0  0  0  0
  -25.9308  -11.6395   20.5819 N   0  0  0  0  0  0
  -22.0540  -12.8259   22.0391 N   0  0  0  0  0  0
  -25.4365  -15.1784   20.3837 N   0  0  0  0  0  0
  -31.8423  -14.6235   20.1645 O   0  0  0  0  0  0
  -21.6648   -6.8874   21.4236 O   0  0  0  0  0  0
  -22.3585  -14.5555   20.6670 O   0  0  0  0  0  0
  -24.6122  -31.8723   23.2138 C   0  0  0  0  0  0
  -25.9031  -32.4855   23.8427 C   0  0  1  0  0  0
  -27.2330  -27.4506   20.0759 C   0  0  0  0  0  0
  -25.5885  -33.8654   24.2347 N   0  0  0  0  0  0
  -23.3997  -30.4979   21.5530 C   0  0  2  0  0  0
  -24.8458  -28.9651   20.1190 C   0  0  0  0  0  0
  -22.7389  -29.4709   22.5002 C   0  0  0  0  0  0
  -18.0258  -28.1339   22.8517 C   0  0  0  0  0  0
  -24.1483  -36.7319   23.2633 C   0  0  0  0  0  0
  -25.9292  -30.8416   21.3651 C   0  0  0  0  0  0
  -26.0067  -29.4758   20.7127 C   0  0  0  0  0  0
  -27.2034  -28.7219   20.6947 C   0  0  0  0  0  0
  -26.0450  -26.9412   19.5111 C   0  0  0  0  0  0
  -24.8568  -27.6935   19.5234 C   0  0  0  0  0  0
  -23.6087  -29.8353   20.1665 C   0  0  0  0  0  0
  -25.4101  -36.3129   24.0339 C   0  0  1  0  0  0
  -20.5878  -28.3646   23.1267 C   0  0  2  0  0  0
  -20.6783  -26.9403   22.5266 C   0  0  0  0  0  0
  -19.5627  -26.6217   21.5252 C   0  0  0  0  0  0
  -18.1856  -26.7841   22.1739 C   0  0  0  0  0  0
  -19.1531  -28.8806   23.2883 C   0  0  0  0  0  0
  -18.9502  -30.1407   23.8905 C   0  0  0  0  0  0
  -17.6499  -30.6494   24.0662 C   0  0  0  0  0  0
  -25.9017  -34.9487   23.5134 C   0  0  0  0  0  0
  -16.5366  -29.8994   23.6483 C   0  0  0  0  0  0
  -16.7260  -28.6437   23.0437 C   0  0  0  0  0  0
  -26.4444  -31.6623   25.0747 C   0  0  0  0  0  0
  -25.3703  -31.3709   26.1477 C   0  0  0  0  0  0
  -27.0266  -30.3078   24.6096 C   0  0  0  0  0  0
  -27.6041  -32.4316   25.7494 C   0  0  0  0  0  0
  -27.5580  -37.1813   24.8469 C   0  0  0  0  0  0
  -21.4108  -29.3090   22.3721 N   0  0  0  0  0  0
  -26.4294  -37.3798   23.9412 N   0  0  0  0  0  0
  -24.6658  -31.0834   22.1029 N   0  0  0  0  0  0
  -23.4159  -28.8254   23.3046 O   0  0  0  0  0  0
  -28.3915  -26.7055   20.0704 O   0  0  0  0  0  0
  -26.5593  -34.8930   22.4698 O   0  0  0  0  0  0
  -23.5324  -32.1461   23.7537 O   0  0  0  0  0  0
  -29.6619  -19.1155   19.9356 C   0  0  0  0  0  0
  -27.1757  -19.1176   21.1654 C   0  0  0  0  0  0
  -29.3525  -18.0744   20.8385 C   0  0  0  0  0  0
  -28.7350  -20.1234   19.5715 C   0  0  0  0  0  0
  -28.1261  -18.1476   21.5438 C   0  0  0  0  0  0
  -27.4214  -20.0347   20.1143 C   0  0  0  0  0  0
  -30.2347  -16.8847   20.7829 C   0  0  0  0  0  0
  -29.8050  -15.6059   20.8494 C   0  0  0  0  0  0
  -27.7736  -17.2049   22.6863 C   0  0  0  0  0  0
  -23.8006  -20.8629   18.8429 C   0  0  0  0  0  0
  -29.2229  -21.0923   18.4710 C   0  0  0  0  0  0
  -26.2505  -20.8090   19.5202 C   0  0  0  0  0  0
  -24.8508  -20.2053   19.7454 C   0  0  0  0  0  0
  -28.5742  -22.4767   18.1624 C   0  0  0  0  0  0
  -29.0528  -23.7297   18.9303 C   0  0  0  0  0  0
  -28.5418  -25.0006   18.2050 C   0  0  0  0  0  0
  -28.9362  -26.3781   18.7896 C   0  0  0  0  0  0
  -31.4745  -12.3910   19.1230 H   0  0  0  0  0  0
  -30.3297  -11.2742   19.8097 H   0  0  0  0  0  0
  -29.7402  -11.7811   17.4183 H   0  0  0  0  0  0
  -29.6626  -13.4852   17.7812 H   0  0  0  0  0  0
  -27.8275  -11.2915   18.8075 H   0  0  0  0  0  0
  -27.3653  -12.6263   17.7866 H   0  0  0  0  0  0
  -27.7083  -14.2251   19.5652 H   0  0  0  0  0  0
  -28.6916  -11.9009   21.3070 H   0  0  0  0  0  0
  -28.4834  -13.5113   21.8976 H   0  0  0  0  0  0
  -25.2747   -9.5673   22.4790 H   0  0  0  0  0  0
  -24.0000   -7.4620   22.7481 H   0  0  0  0  0  0
  -21.0855   -8.8758   19.8967 H   0  0  0  0  0  0
  -22.3684  -10.9681   19.6184 H   0  0  0  0  0  0
  -21.2034   -7.6160   23.9705 H   0  0  0  0  0  0
  -21.1477   -6.0542   25.9070 H   0  0  0  0  0  0
  -22.0614   -2.7614   23.2841 H   0  0  0  0  0  0
  -22.4166  -11.9902   22.4737 H   0  0  0  0  0  0
  -21.1169  -13.1295   22.2639 H   0  0  0  0  0  0
  -24.6582  -15.8249   20.4369 H   0  0  0  0  0  0
  -26.2766  -15.6021   20.0103 H   0  0  0  0  0  0
  -26.7093  -32.5577   23.1193 H   0  0  0  0  0  0
  -25.0031  -33.9815   25.0490 H   0  0  0  0  0  0
  -22.6902  -31.3158   21.4142 H   0  0  0  0  0  0
  -23.3742  -35.9646   23.3329 H   0  0  0  0  0  0
  -24.3599  -36.8905   22.2037 H   0  0  0  0  0  0
  -23.7239  -37.6533   23.6642 H   0  0  0  0  0  0
  -26.0390  -31.6059   20.5962 H   0  0  0  0  0  0
  -26.8169  -30.8937   21.9837 H   0  0  0  0  0  0
  -28.1038  -29.1169   21.1424 H   0  0  0  0  0  0
  -26.0049  -25.9540   19.0860 H   0  0  0  0  0  0
  -23.9556  -27.2825   19.0900 H   0  0  0  0  0  0
  -23.7260  -30.6142   19.4106 H   0  0  0  0  0  0
  -22.7318  -29.2626   19.8620 H   0  0  0  0  0  0
  -25.1284  -36.1995   25.0833 H   0  0  0  0  0  0
  -21.0046  -28.3099   24.1353 H   0  0  0  0  0  0
  -20.5991  -26.2243   23.3441 H   0  0  0  0  0  0
  -21.6575  -26.7598   22.0852 H   0  0  0  0  0  0
  -19.6648  -25.6017   21.1506 H   0  0  0  0  0  0
  -19.6467  -27.2840   20.6618 H   0  0  0  0  0  0
  -17.4007  -26.6464   21.4270 H   0  0  0  0  0  0
  -18.0332  -26.0050   22.9212 H   0  0  0  0  0  0
  -19.8025  -30.7207   24.2192 H   0  0  0  0  0  0
  -17.5086  -31.6115   24.5394 H   0  0  0  0  0  0
  -15.5371  -30.2823   23.8001 H   0  0  0  0  0  0
  -15.8667  -28.0689   22.7252 H   0  0  0  0  0  0
  -24.5887  -30.7043   25.7795 H   0  0  0  0  0  0
  -24.8861  -32.2856   26.4905 H   0  0  0  0  0  0
  -25.8033  -30.8889   27.0244 H   0  0  0  0  0  0
  -26.2812  -29.6869   24.1094 H   0  0  0  0  0  0
  -27.3997  -29.7276   25.4535 H   0  0  0  0  0  0
  -27.8670  -30.4424   23.9281 H   0  0  0  0  0  0
  -27.2687  -33.3611   26.2098 H   0  0  0  0  0  0
  -28.3826  -32.6850   25.0288 H   0  0  0  0  0  0
  -28.0725  -31.8404   26.5369 H   0  0  0  0  0  0
  -28.2601  -38.0109   24.7513 H   0  0  0  0  0  0
  -28.1076  -36.2628   24.6304 H   0  0  0  0  0  0
  -27.2310  -37.1493   25.8880 H   0  0  0  0  0  0
  -20.9251  -29.8792   21.6926 H   0  0  0  0  0  0
  -26.0192  -38.2880   24.1397 H   0  0  0  0  0  0
  -30.6069  -19.0724   19.4123 H   0  0  0  0  0  0
  -26.2094  -19.0857   21.6453 H   0  0  0  0  0  0
  -31.2840  -17.0842   20.6154 H   0  0  0  0  0  0
  -28.7630  -15.4467   21.0498 H   0  0  0  0  0  0
  -28.6675  -16.8872   23.2240 H   0  0  0  0  0  0
  -27.2473  -16.3211   22.3213 H   0  0  0  0  0  0
  -27.1233  -17.6945   23.4128 H   0  0  0  0  0  0
  -22.8450  -20.3402   18.9026 H   0  0  0  0  0  0
  -24.1125  -20.8486   17.7988 H   0  0  0  0  0  0
  -23.6379  -21.9029   19.1305 H   0  0  0  0  0  0
  -29.1714  -20.5073   17.5535 H   0  0  0  0  0  0
  -30.2889  -21.2641   18.6259 H   0  0  0  0  0  0
  -26.3931  -20.7804   18.4407 H   0  0  0  0  0  0
  -26.2773  -21.8453   19.8550 H   0  0  0  0  0  0
  -24.8783  -19.1383   19.5180 H   0  0  0  0  0  0
  -24.5496  -20.3031   20.7888 H   0  0  0  0  0  0
  -27.4935  -22.4819   18.1074 H   0  0  0  0  0  0
  -28.8596  -22.6594   17.1246 H   0  0  0  0  0  0
  -30.1436  -23.7519   18.9769 H   0  0  0  0  0  0
  -28.6924  -23.7056   19.9588 H   0  0  0  0  0  0
  -27.4670  -24.9297   18.0647 H   0  0  0  0  0  0
  -28.9371  -24.9790   17.1889 H   0  0  0  0  0  0
  -28.6710  -27.1611   18.0748 H   0  0  0  0  0  0
  -30.0213  -26.4256   18.8707 H   0  0  0  0  0  0
  1 25  1  0  0  0
  1 30  2  0  0  0
  1 78  1  0  0  0
  2  3  1  0  0  0
  2 25  1  0  0  0
  2 88  1  0  0  0
  2 89  1  0  0  0
  3  4  1  0  0  0
  3 90  1  0  0  0
  3 91  1  0  0  0
  4  5  1  0  0  0
  4 92  1  0  0  0
  4 93  1  0  0  0
  5  6  1  0  0  0
  5 26  1  0  0  0
  5 94  1  0  0  0
  6 25  1  0  0  0
  6 95  1  0  0  0
  6 96  1  0  0  0
  7  8  2  0  0  0
  7 26  1  0  0  0
  7 29  1  0  0  0
  8  9  1  0  0  0
  8 22  1  0  0  0
  9 10  1  0  0  0
  9 27  2  0  0  0
 10 11  2  0  0  0
 10 15  1  0  0  0
 11 12  1  0  0  0
 11 97  1  0  0  0
 12 13  2  0  0  0
 12 98  1  0  0  0
 13 14  1  0  0  0
 13 31  1  0  0  0
 14 15  2  0  0  0
 14 99  1  0  0  0
 15100  1  0  0  0
 16 17  2  0  0  0
 16 21  1  0  0  0
 16 31  1  0  0  0
 17 18  1  0  0  0
 17101  1  0  0  0
 18 19  2  0  0  0
 18102  1  0  0  0
 19 20  1  0  0  0
 19 24  1  0  0  0
 20 21  2  0  0  0
 20103  1  0  0  0
 21 23  1  0  0  0
 22 28  1  0  0  0
 22 32  2  0  0  0
 26 27  1  0  0  0
 28104  1  0  0  0
 28105  1  0  0  0
 29106  1  0  0  0
 29107  1  0  0  0
 33 34  1  0  0  0
 33 66  1  0  0  0
 33 70  2  0  0  0
 34 36  1  0  0  0
 34 59  1  0  0  0
 34108  1  0  0  0
 35 44  2  0  0  0
 35 45  1  0  0  0
 35 68  1  0  0  0
 36 56  1  0  0  0
 36109  1  0  0  0
 37 39  1  0  0  0
 37 47  1  0  0  0
 37 66  1  0  0  0
 37110  1  0  0  0
 38 43  2  0  0  0
 38 46  1  0  0  0
 38 47  1  0  0  0
 39 64  1  0  0  0
 39 67  2  0  0  0
 40 52  1  0  0  0
 40 53  2  0  0  0
 40 58  1  0  0  0
 41111  1  0  0  0
 41112  1  0  0  0
 41113  1  0  0  0
 41 48  1  0  0  0
 42 43  1  0  0  0
 42 66  1  0  0  0
 42114  1  0  0  0
 42115  1  0  0  0
 43 44  1  0  0  0
 44116  1  0  0  0
 45 46  2  0  0  0
 45117  1  0  0  0
 46118  1  0  0  0
 47119  1  0  0  0
 47120  1  0  0  0
 48 56  1  0  0  0
 48 65  1  0  0  0
 48121  1  0  0  0
 49 50  1  0  0  0
 49 53  1  0  0  0
 49 64  1  0  0  0
 49122  1  0  0  0
 50 51  1  0  0  0
 50123  1  0  0  0
 50124  1  0  0  0
 51 52  1  0  0  0
 51125  1  0  0  0
 51126  1  0  0  0
 52127  1  0  0  0
 52128  1  0  0  0
 53 54  1  0  0  0
 54 55  2  0  0  0
 54129  1  0  0  0
 55 57  1  0  0  0
 55130  1  0  0  0
 56 69  2  0  0  0
 57 58  2  0  0  0
 57131  1  0  0  0
 58132  1  0  0  0
 59 60  1  0  0  0
 59 61  1  0  0  0
 59 62  1  0  0  0
 60133  1  0  0  0
 60134  1  0  0  0
 60135  1  0  0  0
 61136  1  0  0  0
 61137  1  0  0  0
 61138  1  0  0  0
 62139  1  0  0  0
 62140  1  0  0  0
 62141  1  0  0  0
 63 65  1  0  0  0
 63142  1  0  0  0
 63143  1  0  0  0
 63144  1  0  0  0
 64145  1  0  0  0
 65146  1  0  0  0
 68 87  1  0  0  0
 71 73  2  0  0  0
 71 74  1  0  0  0
 71147  1  0  0  0
 72 75  2  0  0  0
 72 76  1  0  0  0
 72148  1  0  0  0
 73 75  1  0  0  0
 73 77  1  0  0  0
 74 76  2  0  0  0
 74 81  1  0  0  0
 75 79  1  0  0  0
 76 82  1  0  0  0
 77 78  2  0  0  0
 77149  1  0  0  0
 78150  1  0  0  0
 79151  1  0  0  0
 79152  1  0  0  0
 79153  1  0  0  0
 80 83  1  0  0  0
 80154  1  0  0  0
 80155  1  0  0  0
 80156  1  0  0  0
 81 84  1  0  0  0
 81157  1  0  0  0
 81158  1  0  0  0
 82 83  1  0  0  0
 82159  1  0  0  0
 82160  1  0  0  0
 83161  1  0  0  0
 83162  1  0  0  0
 84 85  1  0  0  0
 84163  1  0  0  0
 84164  1  0  0  0
 85 86  1  0  0  0
 85165  1  0  0  0
 85166  1  0  0  0
 86 87  1  0  0  0
 86167  1  0  0  0
 86168  1  0  0  0
 87169  1  0  0  0
 87170  1  0  0  0
M  ISO  4   1 100  68 101  78 100  87 101
M  END
> <chiral flag>
0

> <version>
0

> <s_m_source_file>
/data/baiqing/PycharmProjects/Reinvent-master-3.2/result/LINK_invent/BTK/process_docking_weight1_custom_product_contain_oxygen_bond_distance_aromatic_linkinvent_7_9_3/rearranged_h_0133.sdf

> <i_m_source_file_index>
68

> <r_mmod_Potential_Energy-OPLS-2005>
84.8888854980469

> <r_mmod_Stretch_Energy-OPLS-2005>
39.9358596801758

> <r_mmod_Bend_Energy-OPLS-2005>
137.132232666016

> <r_mmod_Torsional_Energy-OPLS-2005>
240.305953979492

> <r_mmod_Improper_Torsional_Energy-OPLS-2005>
11.0700054168701

> <r_mmod_Van_der_Waal_Energy-OPLS-2005>
166.397048950195

> <r_mmod_Electrostatic_Energy-OPLS-2005>
-343.809204101562

> <r_mmod_Solvation_Energy-OPLS-2005>
-180.04768371582

> <b_mmod_Minimization_Converged-OPLS-2005>
0

> <r_mmod_RMS_Derivative-OPLS-2005>
4.16004276275635

$$$$
68
                    3D
 Structure written by MMmdl.
169177  0  0  1  0            999 V2000
  -30.7176  -14.4660   20.5156 C   0  0  0  0  0  0
  -30.4165  -12.2881   19.4318 C   0  0  0  0  0  0
  -29.4958  -12.4918   18.2123 C   0  0  0  0  0  0
  -28.0155  -12.3524   18.6179 C   0  0  0  0  0  0
  -27.6576  -13.1971   19.8693 C   0  0  2  0  0  0
  -28.7038  -13.0309   20.9930 C   0  0  0  0  0  0
  -25.2592  -13.8118   20.5737 C   0  0  0  0  0  0
  -24.1830  -13.0391   20.9137 C   0  0  0  0  0  0
  -24.6385  -11.6860   20.8731 C   0  0  0  0  0  0
  -23.9064  -10.4258   21.0395 C   0  0  0  0  0  0
  -24.3610   -9.4172   21.9173 C   0  0  0  0  0  0
  -23.6263   -8.2232   22.0757 C   0  0  0  0  0  0
  -22.4256   -8.0276   21.3549 C   0  0  0  0  0  0
  -21.9904   -9.0255   20.4649 C   0  0  0  0  0  0
  -22.7244  -10.2111   20.3055 C   0  0  0  0  0  0
  -21.6843   -6.0725   22.5266 C   0  0  0  0  0  0
  -21.3995   -6.5620   23.8196 C   0  0  0  0  0  0
  -21.3642   -5.6780   24.9164 C   0  0  0  0  0  0
  -21.6043   -4.3049   24.7231 C   0  0  0  0  0  0
  -21.8827   -3.8143   23.4352 C   0  0  0  0  0  0
  -21.9194   -4.6952   22.3396 C   0  0  0  0  0  0
  -22.7858  -13.5196   21.1818 C   0  0  0  0  0  0
  -22.1676   -4.2137   21.0969 F   0  0  0  0  0  0
  -21.5625   -3.4535   25.7740 F   0  0  0  0  0  0
  -30.0347  -13.2951   20.4320 N   0  0  0  0  0  0
  -26.3016  -12.9274   20.3385 N   0  0  0  0  0  0
  -25.9309  -11.6439   20.5775 N   0  0  0  0  0  0
  -22.0505  -12.8192   22.0357 N   0  0  0  0  0  0
  -25.4310  -15.1856   20.4358 N   0  0  0  0  0  0
  -31.8954  -14.5497   20.1590 O   0  0  0  0  0  0
  -21.6618   -6.8882   21.4237 O   0  0  0  0  0  0
  -22.3550  -14.5508   20.6672 O   0  0  0  0  0  0
  -24.6112  -31.8712   23.2129 C   0  0  0  0  0  0
  -25.9028  -32.4851   23.8414 C   0  0  1  0  0  0
  -27.2365  -27.4621   20.0933 C   0  0  0  0  0  0
  -25.5889  -33.8653   24.2364 N   0  0  0  0  0  0
  -23.3962  -30.4937   21.5560 C   0  0  2  0  0  0
  -24.8422  -28.9637   20.1176 C   0  0  0  0  0  0
  -22.7381  -29.4674   22.5052 C   0  0  0  0  0  0
  -18.0261  -28.1371   22.8514 C   0  0  0  0  0  0
  -24.1495  -36.7316   23.2643 C   0  0  0  0  0  0
  -25.9218  -30.8451   21.3596 C   0  0  0  0  0  0
  -26.0001  -29.4795   20.7134 C   0  0  0  0  0  0
  -27.1992  -28.7343   20.7002 C   0  0  0  0  0  0
  -26.0649  -26.9659   19.4742 C   0  0  0  0  0  0
  -24.8692  -27.7057   19.4946 C   0  0  0  0  0  0
  -23.6001  -29.8225   20.1709 C   0  0  0  0  0  0
  -25.4128  -36.3140   24.0335 C   0  0  1  0  0  0
  -20.5834  -28.3663   23.1354 C   0  0  2  0  0  0
  -20.6757  -26.9405   22.5441 C   0  0  0  0  0  0
  -19.5737  -26.6381   21.5233 C   0  0  0  0  0  0
  -18.1906  -26.7929   22.1620 C   0  0  0  0  0  0
  -19.1496  -28.8837   23.2931 C   0  0  0  0  0  0
  -18.9438  -30.1443   23.8944 C   0  0  0  0  0  0
  -17.6441  -30.6586   24.0577 C   0  0  0  0  0  0
  -25.9039  -34.9488   23.5158 C   0  0  0  0  0  0
  -16.5340  -29.9088   23.6331 C   0  0  0  0  0  0
  -16.7253  -28.6495   23.0373 C   0  0  0  0  0  0
  -26.4457  -31.6593   25.0714 C   0  0  0  0  0  0
  -25.3716  -31.3624   26.1443 C   0  0  0  0  0  0
  -27.0290  -30.3074   24.6005 C   0  0  0  0  0  0
  -27.6060  -32.4273   25.7479 C   0  0  0  0  0  0
  -27.5597  -37.1820   24.8468 C   0  0  0  0  0  0
  -21.4111  -29.3029   22.3776 N   0  0  0  0  0  0
  -26.4318  -37.3816   23.9400 N   0  0  0  0  0  0
  -24.6622  -31.0824   22.1030 N   0  0  0  0  0  0
  -23.4170  -28.8231   23.3084 O   0  0  0  0  0  0
  -28.4176  -26.7533   20.0868 O   0  0  0  0  0  0
  -26.5598  -34.8920   22.4707 O   0  0  0  0  0  0
  -23.5315  -32.1449   23.7550 O   0  0  0  0  0  0
  -28.3455  -20.4318   18.6290 C   0  0  0  0  0  0
  -27.8791  -19.1563   18.2880 C   0  0  0  0  0  0
  -30.1440  -19.4280   19.9283 C   0  0  0  0  0  0
  -29.4952  -20.5809   19.4302 C   0  0  0  0  0  0
  -28.5689  -18.0072   18.7161 C   0  0  0  0  0  0
  -29.7021  -18.1331   19.5629 C   0  0  0  0  0  0
  -28.0783  -16.6752   18.1879 C   0  0  0  0  0  0
  -28.4969  -24.3252   17.4282 C   0  0  0  0  0  0
  -30.8003  -24.8688   20.5684 C   0  0  0  0  0  0
  -30.1024  -21.9649   19.6273 C   0  0  0  0  0  0
  -30.5832  -16.9319   19.9142 C   0  0  0  0  0  0
  -29.9928  -15.8016   20.8129 C   0  0  0  0  0  0
  -29.6363  -24.8060   18.3410 C   0  0  0  0  0  0
  -29.1151  -23.0271   20.1580 C   0  0  0  0  0  0
  -28.3310  -25.3751   20.4591 C   0  0  0  0  0  0
  -29.4751  -24.5137   19.8637 C   0  0  1  0  0  0
  -31.4629  -12.3640   19.1284 H   0  0  0  0  0  0
  -30.2980  -11.2850   19.8438 H   0  0  0  0  0  0
  -29.7363  -11.7673   17.4326 H   0  0  0  0  0  0
  -29.6725  -13.4780   17.7793 H   0  0  0  0  0  0
  -27.8227  -11.2977   18.8136 H   0  0  0  0  0  0
  -27.3727  -12.6302   17.7810 H   0  0  0  0  0  0
  -27.6835  -14.2300   19.5445 H   0  0  0  0  0  0
  -28.6712  -12.0170   21.3915 H   0  0  0  0  0  0
  -28.4843  -13.6926   21.8319 H   0  0  0  0  0  0
  -25.2760   -9.5606   22.4738 H   0  0  0  0  0  0
  -23.9953   -7.4613   22.7484 H   0  0  0  0  0  0
  -21.0839   -8.8773   19.8960 H   0  0  0  0  0  0
  -22.3724  -10.9644   19.6160 H   0  0  0  0  0  0
  -21.1969   -7.6117   23.9677 H   0  0  0  0  0  0
  -21.1449   -6.0521   25.9054 H   0  0  0  0  0  0
  -22.0624   -2.7608   23.2859 H   0  0  0  0  0  0
  -22.4137  -11.9846   22.4708 H   0  0  0  0  0  0
  -21.1148  -13.1227   22.2616 H   0  0  0  0  0  0
  -24.6691  -15.8422   20.5690 H   0  0  0  0  0  0
  -26.3074  -15.6387   20.2154 H   0  0  0  0  0  0
  -26.7106  -32.5590   23.1190 H   0  0  0  0  0  0
  -25.0065  -33.9843   25.0527 H   0  0  0  0  0  0
  -22.6829  -31.3094   21.4189 H   0  0  0  0  0  0
  -23.3765  -35.9635   23.3315 H   0  0  0  0  0  0
  -24.3595  -36.8928   22.2055 H   0  0  0  0  0  0
  -23.7213  -37.6510   23.6650 H   0  0  0  0  0  0
  -26.0157  -31.6071   20.5838 H   0  0  0  0  0  0
  -26.8170  -30.9133   21.9651 H   0  0  0  0  0  0
  -28.0930  -29.1286   21.1635 H   0  0  0  0  0  0
  -26.0624  -26.0192   18.9558 H   0  0  0  0  0  0
  -23.9843  -27.3096   19.0170 H   0  0  0  0  0  0
  -23.6947  -30.5943   19.4062 H   0  0  0  0  0  0
  -22.7272  -29.2317   19.8864 H   0  0  0  0  0  0
  -25.1305  -36.2038   25.0826 H   0  0  0  0  0  0
  -20.9935  -28.3223   24.1469 H   0  0  0  0  0  0
  -20.5690  -26.2258   23.3618 H   0  0  0  0  0  0
  -21.6637  -26.7474   22.1224 H   0  0  0  0  0  0
  -19.6910  -25.6296   21.1251 H   0  0  0  0  0  0
  -19.6685  -27.3202   20.6770 H   0  0  0  0  0  0
  -17.4201  -26.6723   21.4000 H   0  0  0  0  0  0
  -18.0277  -26.0056   22.8983 H   0  0  0  0  0  0
  -19.7911  -30.7251   24.2334 H   0  0  0  0  0  0
  -17.4986  -31.6270   24.5162 H   0  0  0  0  0  0
  -15.5332  -30.3001   23.7618 H   0  0  0  0  0  0
  -15.8651  -28.0804   22.7090 H   0  0  0  0  0  0
  -24.5947  -30.6932   25.7728 H   0  0  0  0  0  0
  -24.8816  -32.2729   26.4907 H   0  0  0  0  0  0
  -25.8061  -30.8774   27.0190 H   0  0  0  0  0  0
  -26.2804  -29.6845   24.1106 H   0  0  0  0  0  0
  -27.4170  -29.7311   25.4408 H   0  0  0  0  0  0
  -27.8576  -30.4467   23.9060 H   0  0  0  0  0  0
  -27.2738  -33.3572   26.2108 H   0  0  0  0  0  0
  -28.3851  -32.6825   25.0282 H   0  0  0  0  0  0
  -28.0736  -31.8332   26.5343 H   0  0  0  0  0  0
  -28.2625  -38.0121   24.7566 H   0  0  0  0  0  0
  -28.1095  -36.2648   24.6267 H   0  0  0  0  0  0
  -27.2302  -37.1460   25.8871 H   0  0  0  0  0  0
  -20.9274  -29.8740   21.6991 H   0  0  0  0  0  0
  -26.0219  -38.2897   24.1399 H   0  0  0  0  0  0
  -27.8316  -21.2883   18.2221 H   0  0  0  0  0  0
  -27.0179  -19.0664   17.6406 H   0  0  0  0  0  0
  -31.0417  -19.5370   20.5230 H   0  0  0  0  0  0
  -27.3814  -16.2520   18.9014 H   0  0  0  0  0  0
  -28.8858  -15.9710   17.9981 H   0  0  0  0  0  0
  -27.5364  -16.8031   17.2500 H   0  0  0  0  0  0
  -28.6883  -24.6126   16.3942 H   0  0  0  0  0  0
  -27.5325  -24.7469   17.7089 H   0  0  0  0  0  0
  -28.4091  -23.2422   17.4383 H   0  0  0  0  0  0
  -31.6289  -24.2553   20.2099 H   0  0  0  0  0  0
  -30.7350  -24.7199   21.6458 H   0  0  0  0  0  0
  -31.0746  -25.9098   20.3952 H   0  0  0  0  0  0
  -30.4802  -22.2556   18.6494 H   0  0  0  0  0  0
  -30.9766  -21.9085   20.2783 H   0  0  0  0  0  0
  -31.4974  -17.2943   20.3866 H   0  0  0  0  0  0
  -30.9112  -16.5304   18.9537 H   0  0  0  0  0  0
  -28.9274  -15.7036   20.6330 H   0  0  0  0  0  0
  -30.1028  -16.0591   21.8667 H   0  0  0  0  0  0
  -29.7593  -25.8797   18.1909 H   0  0  0  0  0  0
  -30.5687  -24.3759   17.9751 H   0  0  0  0  0  0
  -28.9894  -22.8754   21.2312 H   0  0  0  0  0  0
  -28.1253  -22.8431   19.7420 H   0  0  0  0  0  0
  -28.3537  -25.3221   21.5495 H   0  0  0  0  0  0
  -27.3794  -24.9271   20.1807 H   0  0  0  0  0  0
  1 25  1  0  0  0
  1 30  2  0  0  0
  1 82  1  0  0  0
  2  3  1  0  0  0
  2 25  1  0  0  0
  2 87  1  0  0  0
  2 88  1  0  0  0
  3  4  1  0  0  0
  3 89  1  0  0  0
  3 90  1  0  0  0
  4  5  1  0  0  0
  4 91  1  0  0  0
  4 92  1  0  0  0
  5  6  1  0  0  0
  5 26  1  0  0  0
  5 93  1  0  0  0
  6 25  1  0  0  0
  6 94  1  0  0  0
  6 95  1  0  0  0
  7  8  2  0  0  0
  7 26  1  0  0  0
  7 29  1  0  0  0
  8  9  1  0  0  0
  8 22  1  0  0  0
  9 10  1  0  0  0
  9 27  2  0  0  0
 10 11  2  0  0  0
 10 15  1  0  0  0
 11 12  1  0  0  0
 11 96  1  0  0  0
 12 13  2  0  0  0
 12 97  1  0  0  0
 13 14  1  0  0  0
 13 31  1  0  0  0
 14 15  2  0  0  0
 14 98  1  0  0  0
 15 99  1  0  0  0
 16 17  2  0  0  0
 16 21  1  0  0  0
 16 31  1  0  0  0
 17 18  1  0  0  0
 17100  1  0  0  0
 18 19  2  0  0  0
 18101  1  0  0  0
 19 20  1  0  0  0
 19 24  1  0  0  0
 20 21  2  0  0  0
 20102  1  0  0  0
 21 23  1  0  0  0
 22 28  1  0  0  0
 22 32  2  0  0  0
 26 27  1  0  0  0
 28103  1  0  0  0
 28104  1  0  0  0
 29105  1  0  0  0
 29106  1  0  0  0
 33 34  1  0  0  0
 33 66  1  0  0  0
 33 70  2  0  0  0
 34 36  1  0  0  0
 34 59  1  0  0  0
 34107  1  0  0  0
 35 44  2  0  0  0
 35 45  1  0  0  0
 35 68  1  0  0  0
 36 56  1  0  0  0
 36108  1  0  0  0
 37 39  1  0  0  0
 37 47  1  0  0  0
 37 66  1  0  0  0
 37109  1  0  0  0
 38 43  2  0  0  0
 38 46  1  0  0  0
 38 47  1  0  0  0
 39 64  1  0  0  0
 39 67  2  0  0  0
 40 52  1  0  0  0
 40 53  2  0  0  0
 40 58  1  0  0  0
 41110  1  0  0  0
 41111  1  0  0  0
 41112  1  0  0  0
 41 48  1  0  0  0
 42 43  1  0  0  0
 42 66  1  0  0  0
 42113  1  0  0  0
 42114  1  0  0  0
 43 44  1  0  0  0
 44115  1  0  0  0
 45 46  2  0  0  0
 45116  1  0  0  0
 46117  1  0  0  0
 47118  1  0  0  0
 47119  1  0  0  0
 48 56  1  0  0  0
 48 65  1  0  0  0
 48120  1  0  0  0
 49 50  1  0  0  0
 49 53  1  0  0  0
 49 64  1  0  0  0
 49121  1  0  0  0
 50 51  1  0  0  0
 50122  1  0  0  0
 50123  1  0  0  0
 51 52  1  0  0  0
 51124  1  0  0  0
 51125  1  0  0  0
 52126  1  0  0  0
 52127  1  0  0  0
 53 54  1  0  0  0
 54 55  2  0  0  0
 54128  1  0  0  0
 55 57  1  0  0  0
 55129  1  0  0  0
 56 69  2  0  0  0
 57 58  2  0  0  0
 57130  1  0  0  0
 58131  1  0  0  0
 59 60  1  0  0  0
 59 61  1  0  0  0
 59 62  1  0  0  0
 60132  1  0  0  0
 60133  1  0  0  0
 60134  1  0  0  0
 61135  1  0  0  0
 61136  1  0  0  0
 61137  1  0  0  0
 62138  1  0  0  0
 62139  1  0  0  0
 62140  1  0  0  0
 63 65  1  0  0  0
 63141  1  0  0  0
 63142  1  0  0  0
 63143  1  0  0  0
 64144  1  0  0  0
 65145  1  0  0  0
 68 85  1  0  0  0
 71 72  2  0  0  0
 71 74  1  0  0  0
 71146  1  0  0  0
 72 75  1  0  0  0
 72147  1  0  0  0
 73 74  2  0  0  0
 73 76  1  0  0  0
 73148  1  0  0  0
 74 80  1  0  0  0
 75 76  2  0  0  0
 75 77  1  0  0  0
 76 81  1  0  0  0
 77149  1  0  0  0
 77150  1  0  0  0
 77151  1  0  0  0
 78 83  1  0  0  0
 78152  1  0  0  0
 78153  1  0  0  0
 78154  1  0  0  0
 79155  1  0  0  0
 79156  1  0  0  0
 79157  1  0  0  0
 79 86  1  0  0  0
 80 84  1  0  0  0
 80158  1  0  0  0
 80159  1  0  0  0
 81 82  1  0  0  0
 81160  1  0  0  0
 81161  1  0  0  0
 82162  1  0  0  0
 82163  1  0  0  0
 83 86  1  0  0  0
 83164  1  0  0  0
 83165  1  0  0  0
 84 86  1  0  0  0
 84166  1  0  0  0
 84167  1  0  0  0
 85 86  1  0  0  0
 85168  1  0  0  0
 85169  1  0  0  0
M  ISO  4   1 100  68 101  82 100  85 101
M  END
> <chiral flag>
0

> <version>
0

> <s_m_source_file>
/data/baiqing/PycharmProjects/Reinvent-master-3.2/result/LINK_invent/BTK/process_docking_weight1_custom_product_contain_oxygen_bond_distance_aromatic_linkinvent_7_9_3/rearranged_h_0133.sdf

> <i_m_source_file_index>
69

> <r_mmod_Potential_Energy-OPLS-2005>
13.4608678817749

> <r_mmod_Stretch_Energy-OPLS-2005>
36.598087310791

> <r_mmod_Bend_Energy-OPLS-2005>
105.56689453125

> <r_mmod_Torsional_Energy-OPLS-2005>
220.867752075195

> <r_mmod_Improper_Torsional_Energy-OPLS-2005>
6.42549991607666

> <r_mmod_Van_der_Waal_Energy-OPLS-2005>
160.330444335938

> <r_mmod_Electrostatic_Energy-OPLS-2005>
-354.188446044922

> <r_mmod_Solvation_Energy-OPLS-2005>
-178.428192138672

> <b_mmod_Minimization_Converged-OPLS-2005>
0

> <r_mmod_RMS_Derivative-OPLS-2005>
2.86990785598755

$$$$
69
                    3D
 Structure written by MMmdl.
158166  0  0  1  0            999 V2000
  -30.6668  -14.4560   20.5443 C   0  0  0  0  0  0
  -30.4330  -12.2811   19.4139 C   0  0  0  0  0  0
  -29.4992  -12.4965   18.2013 C   0  0  0  0  0  0
  -28.0157  -12.3619   18.6109 C   0  0  0  0  0  0
  -27.6651  -13.1897   19.8753 C   0  0  2  0  0  0
  -28.7067  -12.9309   20.9870 C   0  0  0  0  0  0
  -25.2628  -13.8131   20.5678 C   0  0  0  0  0  0
  -24.1855  -13.0411   20.9165 C   0  0  0  0  0  0
  -24.6387  -11.6879   20.8725 C   0  0  0  0  0  0
  -23.9055  -10.4271   21.0400 C   0  0  0  0  0  0
  -24.3602   -9.4194   21.9180 C   0  0  0  0  0  0
  -23.6284   -8.2223   22.0739 C   0  0  0  0  0  0
  -22.4277   -8.0260   21.3529 C   0  0  0  0  0  0
  -21.9902   -9.0234   20.4638 C   0  0  0  0  0  0
  -22.7223  -10.2114   20.3055 C   0  0  0  0  0  0
  -21.6852   -6.0734   22.5274 C   0  0  0  0  0  0
  -21.4014   -6.5639   23.8205 C   0  0  0  0  0  0
  -21.3659   -5.6785   24.9165 C   0  0  0  0  0  0
  -21.6050   -4.3053   24.7224 C   0  0  0  0  0  0
  -21.8822   -3.8147   23.4348 C   0  0  0  0  0  0
  -21.9194   -4.6961   22.3406 C   0  0  0  0  0  0
  -22.7896  -13.5216   21.1854 C   0  0  0  0  0  0
  -22.1659   -4.2143   21.0987 F   0  0  0  0  0  0
  -21.5637   -3.4547   25.7744 F   0  0  0  0  0  0
  -30.0443  -13.2484   20.4476 N   0  0  0  0  0  0
  -26.3038  -12.9248   20.3352 N   0  0  0  0  0  0
  -25.9300  -11.6424   20.5733 N   0  0  0  0  0  0
  -22.0547  -12.8191   22.0413 N   0  0  0  0  0  0
  -25.4395  -15.1844   20.4158 N   0  0  0  0  0  0
  -31.8228  -14.6351   20.1264 O   0  0  0  0  0  0
  -21.6633   -6.8868   21.4234 O   0  0  0  0  0  0
  -22.3566  -14.5512   20.6709 O   0  0  0  0  0  0
  -24.6099  -31.8712   23.2134 C   0  0  0  0  0  0
  -25.9012  -32.4851   23.8419 C   0  0  1  0  0  0
  -27.2444  -27.4942   20.0767 C   0  0  0  0  0  0
  -25.5867  -33.8641   24.2354 N   0  0  0  0  0  0
  -23.3955  -30.4972   21.5508 C   0  0  2  0  0  0
  -24.8455  -28.9671   20.1138 C   0  0  0  0  0  0
  -22.7347  -29.4711   22.4999 C   0  0  0  0  0  0
  -18.0267  -28.1361   22.8497 C   0  0  0  0  0  0
  -24.1488  -36.7335   23.2636 C   0  0  0  0  0  0
  -25.9178  -30.8558   21.3589 C   0  0  0  0  0  0
  -26.0001  -29.4929   20.7081 C   0  0  0  0  0  0
  -27.2044  -28.7614   20.6928 C   0  0  0  0  0  0
  -26.0826  -26.9739   19.4739 C   0  0  0  0  0  0
  -24.8782  -27.7036   19.4957 C   0  0  0  0  0  0
  -23.6028  -29.8256   20.1664 C   0  0  0  0  0  0
  -25.4097  -36.3132   24.0351 C   0  0  1  0  0  0
  -20.5860  -28.3648   23.1302 C   0  0  2  0  0  0
  -20.6802  -26.9416   22.5348 C   0  0  0  0  0  0
  -19.5726  -26.6304   21.5238 C   0  0  0  0  0  0
  -18.1921  -26.7870   22.1700 C   0  0  0  0  0  0
  -19.1528  -28.8803   23.2918 C   0  0  0  0  0  0
  -18.9475  -30.1387   23.8973 C   0  0  0  0  0  0
  -17.6484  -30.6524   24.0673 C   0  0  0  0  0  0
  -25.9010  -34.9494   23.5146 C   0  0  0  0  0  0
  -16.5374  -29.9091   23.6340 C   0  0  0  0  0  0
  -16.7264  -28.6520   23.0310 C   0  0  0  0  0  0
  -26.4472  -31.6613   25.0721 C   0  0  0  0  0  0
  -25.3731  -31.3697   26.1460 C   0  0  0  0  0  0
  -27.0292  -30.3055   24.6062 C   0  0  0  0  0  0
  -27.6069  -32.4312   25.7480 C   0  0  0  0  0  0
  -27.5588  -37.1816   24.8464 C   0  0  0  0  0  0
  -21.4070  -29.3051   22.3703 N   0  0  0  0  0  0
  -26.4306  -37.3804   23.9392 N   0  0  0  0  0  0
  -24.6589  -31.0863   22.1001 N   0  0  0  0  0  0
  -23.4140  -28.8241   23.3013 O   0  0  0  0  0  0
  -28.3982  -26.7561   20.0470 O   0  0  0  0  0  0
  -26.5593  -34.8933   22.4716 O   0  0  0  0  0  0
  -23.5302  -32.1439   23.7564 O   0  0  0  0  0  0
  -26.7131  -18.8147   22.9201 C   0  0  0  0  0  0
  -27.6038  -17.7731   22.6128 C   0  0  0  0  0  0
  -26.6747  -19.9661   22.1169 C   0  0  0  0  0  0
  -28.4292  -19.0447   20.7112 C   0  0  0  0  0  0
  -28.4516  -17.8568   21.4762 C   0  0  0  0  0  0
  -27.5555  -20.1158   21.0205 C   0  0  0  0  0  0
  -29.3446  -16.7619   21.0117 C   0  0  0  0  0  0
  -29.7487  -15.4842   21.0481 C   0  0  0  0  0  0
  -27.5492  -21.3462   20.1778 C   0  0  0  0  0  0
  -27.1332  -22.6660   20.8279 C   0  0  0  0  0  0
  -28.1668  -23.7924   20.6587 C   0  0  0  0  0  0
  -27.8906  -24.9697   21.6080 C   0  0  0  0  0  0
  -28.7614  -26.2005   21.3078 C   0  0  0  0  0  0
  -27.9077  -21.3425   18.9630 N   0  0  0  0  0  0
  -31.4754  -12.3860   19.1085 H   0  0  0  0  0  0
  -30.3314  -11.2646   19.7984 H   0  0  0  0  0  0
  -29.7317  -11.7811   17.4121 H   0  0  0  0  0  0
  -29.6741  -13.4875   17.7794 H   0  0  0  0  0  0
  -27.8195  -11.3069   18.8018 H   0  0  0  0  0  0
  -27.3669  -12.6451   17.7822 H   0  0  0  0  0  0
  -27.7164  -14.2407   19.5917 H   0  0  0  0  0  0
  -28.6787  -11.8831   21.2893 H   0  0  0  0  0  0
  -28.4653  -13.4912   21.8915 H   0  0  0  0  0  0
  -25.2756   -9.5673   22.4743 H   0  0  0  0  0  0
  -24.0002   -7.4624   22.7460 H   0  0  0  0  0  0
  -21.0829   -8.8765   19.8944 H   0  0  0  0  0  0
  -22.3698  -10.9653   19.6165 H   0  0  0  0  0  0
  -21.1995   -7.6148   23.9709 H   0  0  0  0  0  0
  -21.1476   -6.0520   25.9064 H   0  0  0  0  0  0
  -22.0603   -2.7612   23.2858 H   0  0  0  0  0  0
  -22.4174  -11.9843   22.4775 H   0  0  0  0  0  0
  -21.1168  -13.1200   22.2638 H   0  0  0  0  0  0
  -24.6845  -15.8479   20.5471 H   0  0  0  0  0  0
  -26.3078  -15.6225   20.1346 H   0  0  0  0  0  0
  -26.7075  -32.5601   23.1190 H   0  0  0  0  0  0
  -25.0024  -33.9822   25.0503 H   0  0  0  0  0  0
  -22.6851  -31.3146   21.4117 H   0  0  0  0  0  0
  -23.3751  -35.9674   23.3318 H   0  0  0  0  0  0
  -24.3587  -36.8922   22.2047 H   0  0  0  0  0  0
  -23.7252  -37.6548   23.6632 H   0  0  0  0  0  0
  -26.0206  -31.6240   20.5916 H   0  0  0  0  0  0
  -26.8088  -30.9112   21.9726 H   0  0  0  0  0  0
  -28.1006  -29.1712   21.1395 H   0  0  0  0  0  0
  -26.1114  -26.0030   18.9978 H   0  0  0  0  0  0
  -23.9915  -27.2934   19.0333 H   0  0  0  0  0  0
  -23.7089  -30.6016   19.4079 H   0  0  0  0  0  0
  -22.7275  -29.2450   19.8691 H   0  0  0  0  0  0
  -25.1278  -36.2020   25.0855 H   0  0  0  0  0  0
  -20.9971  -28.3206   24.1413 H   0  0  0  0  0  0
  -20.5885  -26.2265   23.3524 H   0  0  0  0  0  0
  -21.6642  -26.7511   22.1027 H   0  0  0  0  0  0
  -19.6901  -25.6203   21.1288 H   0  0  0  0  0  0
  -19.6599  -27.3100   20.6765 H   0  0  0  0  0  0
  -17.4150  -26.6487   21.4167 H   0  0  0  0  0  0
  -18.0339  -26.0059   22.9163 H   0  0  0  0  0  0
  -19.7958  -30.7165   24.2409 H   0  0  0  0  0  0
  -17.5068  -31.6137   24.5420 H   0  0  0  0  0  0
  -15.5387  -30.3022   23.7715 H   0  0  0  0  0  0
  -15.8632  -28.0923   22.6981 H   0  0  0  0  0  0
  -24.5912  -30.7062   25.7760 H   0  0  0  0  0  0
  -24.8931  -32.2848   26.4927 H   0  0  0  0  0  0
  -25.8066  -30.8826   27.0202 H   0  0  0  0  0  0
  -26.2823  -29.6816   24.1144 H   0  0  0  0  0  0
  -27.4092  -29.7291   25.4509 H   0  0  0  0  0  0
  -27.8643  -30.4376   23.9181 H   0  0  0  0  0  0
  -27.2717  -33.3587   26.2131 H   0  0  0  0  0  0
  -28.3852  -32.6902   25.0289 H   0  0  0  0  0  0
  -28.0781  -31.8390   26.5337 H   0  0  0  0  0  0
  -28.2622  -38.0103   24.7500 H   0  0  0  0  0  0
  -28.1070  -36.2628   24.6302 H   0  0  0  0  0  0
  -27.2303  -37.1489   25.8874 H   0  0  0  0  0  0
  -20.9233  -29.8612   21.6774 H   0  0  0  0  0  0
  -26.0210  -38.2897   24.1364 H   0  0  0  0  0  0
  -26.0474  -18.7224   23.7657 H   0  0  0  0  0  0
  -27.5992  -16.8931   23.2422 H   0  0  0  0  0  0
  -25.9509  -20.7288   22.3634 H   0  0  0  0  0  0
  -29.0792  -19.1284   19.8510 H   0  0  0  0  0  0
  -28.7021  -16.1521   21.6252 H   0  0  0  0  0  0
  -30.3303  -16.0649   20.3457 H   0  0  0  0  0  0
  -26.9759  -22.5289   21.8959 H   0  0  0  0  0  0
  -26.1690  -22.9757   20.4219 H   0  0  0  0  0  0
  -28.1696  -24.1376   19.6246 H   0  0  0  0  0  0
  -29.1678  -23.4061   20.8639 H   0  0  0  0  0  0
  -28.0682  -24.6489   22.6348 H   0  0  0  0  0  0
  -26.8369  -25.2469   21.5649 H   0  0  0  0  0  0
  -29.8147  -25.9192   21.2794 H   0  0  0  0  0  0
  -28.6660  -26.9359   22.1088 H   0  0  0  0  0  0
  -27.8553  -22.2709   18.5590 H   0  0  0  0  0  0
  1 25  1  0  0  0
  1 30  2  0  0  0
  1 78  1  0  0  0
  2  3  1  0  0  0
  2 25  1  0  0  0
  2 85  1  0  0  0
  2 86  1  0  0  0
  3  4  1  0  0  0
  3 87  1  0  0  0
  3 88  1  0  0  0
  4  5  1  0  0  0
  4 89  1  0  0  0
  4 90  1  0  0  0
  5  6  1  0  0  0
  5 26  1  0  0  0
  5 91  1  0  0  0
  6 25  1  0  0  0
  6 92  1  0  0  0
  6 93  1  0  0  0
  7  8  2  0  0  0
  7 26  1  0  0  0
  7 29  1  0  0  0
  8  9  1  0  0  0
  8 22  1  0  0  0
  9 10  1  0  0  0
  9 27  2  0  0  0
 10 11  2  0  0  0
 10 15  1  0  0  0
 11 12  1  0  0  0
 11 94  1  0  0  0
 12 13  2  0  0  0
 12 95  1  0  0  0
 13 14  1  0  0  0
 13 31  1  0  0  0
 14 15  2  0  0  0
 14 96  1  0  0  0
 15 97  1  0  0  0
 16 17  2  0  0  0
 16 21  1  0  0  0
 16 31  1  0  0  0
 17 18  1  0  0  0
 17 98  1  0  0  0
 18 19  2  0  0  0
 18 99  1  0  0  0
 19 20  1  0  0  0
 19 24  1  0  0  0
 20 21  2  0  0  0
 20100  1  0  0  0
 21 23  1  0  0  0
 22 28  1  0  0  0
 22 32  2  0  0  0
 26 27  1  0  0  0
 28101  1  0  0  0
 28102  1  0  0  0
 29103  1  0  0  0
 29104  1  0  0  0
 33 34  1  0  0  0
 33 66  1  0  0  0
 33 70  2  0  0  0
 34 36  1  0  0  0
 34 59  1  0  0  0
 34105  1  0  0  0
 35 44  2  0  0  0
 35 45  1  0  0  0
 35 68  1  0  0  0
 36 56  1  0  0  0
 36106  1  0  0  0
 37 39  1  0  0  0
 37 47  1  0  0  0
 37 66  1  0  0  0
 37107  1  0  0  0
 38 43  2  0  0  0
 38 46  1  0  0  0
 38 47  1  0  0  0
 39 64  1  0  0  0
 39 67  2  0  0  0
 40 52  1  0  0  0
 40 53  2  0  0  0
 40 58  1  0  0  0
 41108  1  0  0  0
 41109  1  0  0  0
 41110  1  0  0  0
 41 48  1  0  0  0
 42 43  1  0  0  0
 42 66  1  0  0  0
 42111  1  0  0  0
 42112  1  0  0  0
 43 44  1  0  0  0
 44113  1  0  0  0
 45 46  2  0  0  0
 45114  1  0  0  0
 46115  1  0  0  0
 47116  1  0  0  0
 47117  1  0  0  0
 48 56  1  0  0  0
 48 65  1  0  0  0
 48118  1  0  0  0
 49 50  1  0  0  0
 49 53  1  0  0  0
 49 64  1  0  0  0
 49119  1  0  0  0
 50 51  1  0  0  0
 50120  1  0  0  0
 50121  1  0  0  0
 51 52  1  0  0  0
 51122  1  0  0  0
 51123  1  0  0  0
 52124  1  0  0  0
 52125  1  0  0  0
 53 54  1  0  0  0
 54 55  2  0  0  0
 54126  1  0  0  0
 55 57  1  0  0  0
 55127  1  0  0  0
 56 69  2  0  0  0
 57 58  2  0  0  0
 57128  1  0  0  0
 58129  1  0  0  0
 59 60  1  0  0  0
 59 61  1  0  0  0
 59 62  1  0  0  0
 60130  1  0  0  0
 60131  1  0  0  0
 60132  1  0  0  0
 61133  1  0  0  0
 61134  1  0  0  0
 61135  1  0  0  0
 62136  1  0  0  0
 62137  1  0  0  0
 62138  1  0  0  0
 63 65  1  0  0  0
 63139  1  0  0  0
 63140  1  0  0  0
 63141  1  0  0  0
 64142  1  0  0  0
 65143  1  0  0  0
 68 83  1  0  0  0
 71 72  2  0  0  0
 71 73  1  0  0  0
 71144  1  0  0  0
 72 75  1  0  0  0
 72145  1  0  0  0
 73 76  2  0  0  0
 73146  1  0  0  0
 74 75  2  0  0  0
 74 76  1  0  0  0
 74147  1  0  0  0
 75 77  1  0  0  0
 76 79  1  0  0  0
 77 78  2  0  0  0
 77148  1  0  0  0
 78149  1  0  0  0
 79 80  1  0  0  0
 79 84  2  0  0  0
 80 81  1  0  0  0
 80150  1  0  0  0
 80151  1  0  0  0
 81 82  1  0  0  0
 81152  1  0  0  0
 81153  1  0  0  0
 82 83  1  0  0  0
 82154  1  0  0  0
 82155  1  0  0  0
 83156  1  0  0  0
 83157  1  0  0  0
 84158  1  0  0  0
M  ISO  4   1 100  68 101  78 100  83 101
M  END
> <chiral flag>
0

> <version>
0

> <s_m_source_file>
/data/baiqing/PycharmProjects/Reinvent-master-3.2/result/LINK_invent/BTK/process_docking_weight1_custom_product_contain_oxygen_bond_distance_aromatic_linkinvent_7_9_3/rearranged_h_0133.sdf

> <i_m_source_file_index>
70

> <r_mmod_Potential_Energy-OPLS-2005>
486.555053710938

> <r_mmod_Stretch_Energy-OPLS-2005>
34.9789123535156

> <r_mmod_Bend_Energy-OPLS-2005>
588.700500488281

> <r_mmod_Torsional_Energy-OPLS-2005>
206.138000488281

> <r_mmod_Improper_Torsional_Energy-OPLS-2005>
3.93252944946289

> <r_mmod_Van_der_Waal_Energy-OPLS-2005>
178.589721679688

> <r_mmod_Electrostatic_Energy-OPLS-2005>
-341.007476806641

> <r_mmod_Solvation_Energy-OPLS-2005>
-195.685134887695

> <b_mmod_Minimization_Converged-OPLS-2005>
0

> <r_mmod_RMS_Derivative-OPLS-2005>
3.06858086585999

$$$$
70
                    3D
 Structure written by MMmdl.
171179  0  0  1  0            999 V2000
  -30.7447  -14.4258   20.5972 C   0  0  0  0  0  0
  -30.4127  -12.2879   19.4121 C   0  0  0  0  0  0
  -29.4871  -12.4983   18.1989 C   0  0  0  0  0  0
  -28.0100  -12.3675   18.6173 C   0  0  0  0  0  0
  -27.6623  -13.2082   19.8749 C   0  0  2  0  0  0
  -28.7054  -12.9804   20.9924 C   0  0  0  0  0  0
  -25.2533  -13.8141   20.5552 C   0  0  0  0  0  0
  -24.1828  -13.0422   20.9174 C   0  0  0  0  0  0
  -24.6411  -11.6899   20.8765 C   0  0  0  0  0  0
  -23.9067  -10.4283   21.0425 C   0  0  0  0  0  0
  -24.3612   -9.4199   21.9205 C   0  0  0  0  0  0
  -23.6283   -8.2231   22.0767 C   0  0  0  0  0  0
  -22.4269   -8.0273   21.3545 C   0  0  0  0  0  0
  -21.9910   -9.0254   20.4647 C   0  0  0  0  0  0
  -22.7240  -10.2129   20.3067 C   0  0  0  0  0  0
  -21.6846   -6.0728   22.5278 C   0  0  0  0  0  0
  -21.4016   -6.5637   23.8211 C   0  0  0  0  0  0
  -21.3662   -5.6791   24.9175 C   0  0  0  0  0  0
  -21.6041   -4.3054   24.7229 C   0  0  0  0  0  0
  -21.8815   -3.8142   23.4350 C   0  0  0  0  0  0
  -21.9194   -4.6956   22.3403 C   0  0  0  0  0  0
  -22.7853  -13.5222   21.1835 C   0  0  0  0  0  0
  -22.1659   -4.2142   21.0979 F   0  0  0  0  0  0
  -21.5629   -3.4536   25.7742 F   0  0  0  0  0  0
  -30.0387  -13.2735   20.4380 N   0  0  0  0  0  0
  -26.3023  -12.9344   20.3361 N   0  0  0  0  0  0
  -25.9344  -11.6500   20.5817 N   0  0  0  0  0  0
  -22.0501  -12.8215   22.0397 N   0  0  0  0  0  0
  -25.4099  -15.1817   20.3670 N   0  0  0  0  0  0
  -31.8474  -14.6121   20.0793 O   0  0  0  0  0  0
  -21.6631   -6.8870   21.4239 O   0  0  0  0  0  0
  -22.3540  -14.5530   20.6689 O   0  0  0  0  0  0
  -24.6128  -31.8699   23.2114 C   0  0  0  0  0  0
  -25.9033  -32.4833   23.8406 C   0  0  1  0  0  0
  -27.2390  -27.4447   20.0817 C   0  0  0  0  0  0
  -25.5901  -33.8635   24.2350 N   0  0  0  0  0  0
  -23.4004  -30.4966   21.5500 C   0  0  2  0  0  0
  -24.8455  -28.9605   20.1155 C   0  0  0  0  0  0
  -22.7400  -29.4686   22.4971 C   0  0  0  0  0  0
  -18.0300  -28.1350   22.8475 C   0  0  0  0  0  0
  -24.1491  -36.7317   23.2629 C   0  0  0  0  0  0
  -25.9287  -30.8346   21.3667 C   0  0  0  0  0  0
  -26.0038  -29.4681   20.7173 C   0  0  0  0  0  0
  -27.1980  -28.7130   20.7047 C   0  0  0  0  0  0
  -26.0556  -26.9467   19.4861 C   0  0  0  0  0  0
  -24.8650  -27.6973   19.5015 C   0  0  0  0  0  0
  -23.6091  -29.8292   20.1639 C   0  0  0  0  0  0
  -25.4111  -36.3124   24.0335 C   0  0  1  0  0  0
  -20.5882  -28.3651   23.1308 C   0  0  2  0  0  0
  -20.6776  -26.9390   22.5392 C   0  0  0  0  0  0
  -19.5767  -26.6370   21.5186 C   0  0  0  0  0  0
  -18.1944  -26.7897   22.1598 C   0  0  0  0  0  0
  -19.1542  -28.8810   23.2895 C   0  0  0  0  0  0
  -18.9477  -30.1425   23.8894 C   0  0  0  0  0  0
  -17.6479  -30.6555   24.0554 C   0  0  0  0  0  0
  -25.9021  -34.9483   23.5137 C   0  0  0  0  0  0
  -16.5372  -29.9062   23.6302 C   0  0  0  0  0  0
  -16.7288  -28.6481   23.0313 C   0  0  0  0  0  0
  -26.4462  -31.6603   25.0717 C   0  0  0  0  0  0
  -25.3719  -31.3713   26.1461 C   0  0  0  0  0  0
  -27.0306  -30.3056   24.6075 C   0  0  0  0  0  0
  -27.6054  -32.4322   25.7460 C   0  0  0  0  0  0
  -27.5601  -37.1813   24.8461 C   0  0  0  0  0  0
  -21.4131  -29.3044   22.3720 N   0  0  0  0  0  0
  -26.4307  -37.3801   23.9404 N   0  0  0  0  0  0
  -24.6651  -31.0811   22.1006 N   0  0  0  0  0  0
  -23.4185  -28.8207   23.2988 O   0  0  0  0  0  0
  -28.4292  -26.7421   20.0859 O   0  0  0  0  0  0
  -26.5570  -34.8918   22.4688 O   0  0  0  0  0  0
  -23.5316  -32.1459   23.7506 O   0  0  0  0  0  0
  -27.5549  -18.9250   22.2917 C   0  0  0  0  0  0
  -30.1994  -19.2072   21.4502 C   0  0  0  0  0  0
  -28.0584  -20.2144   22.0260 C   0  0  0  0  0  0
  -28.3639  -17.7738   22.1767 C   0  0  0  0  0  0
  -29.4074  -20.3685   21.6227 C   0  0  0  0  0  0
  -29.7039  -17.9045   21.7162 C   0  0  0  0  0  0
  -27.1294  -21.4037   22.2120 C   0  0  0  0  0  0
  -27.7529  -16.4482   22.6015 C   0  0  0  0  0  0
  -30.2420  -24.3396   17.8417 C   0  0  0  0  0  0
  -31.0168  -26.1926   19.3077 C   0  0  0  0  0  0
  -30.0585  -21.7524   21.4931 C   0  0  0  0  0  0
  -30.6912  -16.7333   21.5518 C   0  0  0  0  0  0
  -29.6532  -22.6135   20.2723 C   0  0  0  0  0  0
  -30.2561  -24.0423   20.3723 C   0  0  0  0  0  0
  -28.5570  -25.6117   19.2162 C   0  0  0  0  0  0
  -30.0010  -25.0337   19.1980 C   0  0  0  0  0  0
  -30.1357  -15.4002   21.2877 N   0  0  0  0  0  0
  -31.4594  -12.3635   19.1134 H   0  0  0  0  0  0
  -30.2928  -11.2771   19.8073 H   0  0  0  0  0  0
  -29.7173  -11.7684   17.4215 H   0  0  0  0  0  0
  -29.6649  -13.4810   17.7582 H   0  0  0  0  0  0
  -27.8198  -11.3120   18.8197 H   0  0  0  0  0  0
  -27.3562  -12.6377   17.7873 H   0  0  0  0  0  0
  -27.7108  -14.2563   19.5817 H   0  0  0  0  0  0
  -28.6725  -11.9427   21.3289 H   0  0  0  0  0  0
  -28.4722  -13.5732   21.8761 H   0  0  0  0  0  0
  -25.2749   -9.5667   22.4788 H   0  0  0  0  0  0
  -23.9983   -7.4619   22.7489 H   0  0  0  0  0  0
  -21.0841   -8.8768   19.8947 H   0  0  0  0  0  0
  -22.3701  -10.9672   19.6173 H   0  0  0  0  0  0
  -21.2008   -7.6144   23.9712 H   0  0  0  0  0  0
  -21.1492   -6.0523   25.9078 H   0  0  0  0  0  0
  -22.0596   -2.7602   23.2852 H   0  0  0  0  0  0
  -22.4105  -11.9869   22.4777 H   0  0  0  0  0  0
  -21.1124  -13.1258   22.2612 H   0  0  0  0  0  0
  -24.6177  -15.8124   20.4081 H   0  0  0  0  0  0
  -26.2258  -15.6023   19.9413 H   0  0  0  0  0  0
  -26.7099  -32.5541   23.1177 H   0  0  0  0  0  0
  -25.0075  -33.9804   25.0520 H   0  0  0  0  0  0
  -22.6898  -31.3134   21.4129 H   0  0  0  0  0  0
  -23.3744  -35.9662   23.3301 H   0  0  0  0  0  0
  -24.3564  -36.8910   22.2033 H   0  0  0  0  0  0
  -23.7266  -37.6536   23.6632 H   0  0  0  0  0  0
  -26.0412  -31.5997   20.5970 H   0  0  0  0  0  0
  -26.8168  -30.8876   21.9831 H   0  0  0  0  0  0
  -28.0934  -29.1030   21.1694 H   0  0  0  0  0  0
  -26.0243  -25.9814   19.0055 H   0  0  0  0  0  0
  -23.9751  -27.3003   19.0345 H   0  0  0  0  0  0
  -23.7167  -30.6018   19.4026 H   0  0  0  0  0  0
  -22.7322  -29.2488   19.8702 H   0  0  0  0  0  0
  -25.1306  -36.1991   25.0830 H   0  0  0  0  0  0
  -20.9985  -28.3202   24.1421 H   0  0  0  0  0  0
  -20.5659  -26.2257   23.3580 H   0  0  0  0  0  0
  -21.6657  -26.7426   22.1217 H   0  0  0  0  0  0
  -19.6916  -25.6273   21.1222 H   0  0  0  0  0  0
  -19.6695  -27.3145   20.6685 H   0  0  0  0  0  0
  -17.4223  -26.6636   21.3999 H   0  0  0  0  0  0
  -18.0376  -26.0039   22.8992 H   0  0  0  0  0  0
  -19.7955  -30.7233   24.2252 H   0  0  0  0  0  0
  -17.5040  -31.6226   24.5162 H   0  0  0  0  0  0
  -15.5364  -30.2956   23.7621 H   0  0  0  0  0  0
  -15.8697  -28.0796   22.7002 H   0  0  0  0  0  0
  -24.5896  -30.7046   25.7803 H   0  0  0  0  0  0
  -24.8877  -32.2855   26.4892 H   0  0  0  0  0  0
  -25.8051  -30.8893   27.0239 H   0  0  0  0  0  0
  -26.2854  -29.6791   24.1144 H   0  0  0  0  0  0
  -27.4127  -29.7301   25.4526 H   0  0  0  0  0  0
  -27.8668  -30.4385   23.9202 H   0  0  0  0  0  0
  -27.2708  -33.3633   26.2047 H   0  0  0  0  0  0
  -28.3850  -32.6874   25.0262 H   0  0  0  0  0  0
  -28.0742  -31.8438   26.5351 H   0  0  0  0  0  0
  -28.2631  -38.0105   24.7538 H   0  0  0  0  0  0
  -28.1107  -36.2644   24.6293 H   0  0  0  0  0  0
  -27.2303  -37.1466   25.8859 H   0  0  0  0  0  0
  -20.9282  -29.8791   21.6969 H   0  0  0  0  0  0
  -26.0200  -38.2891   24.1386 H   0  0  0  0  0  0
  -26.5303  -18.8213   22.6247 H   0  0  0  0  0  0
  -31.2324  -19.3194   21.1483 H   0  0  0  0  0  0
  -26.2382  -21.1201   22.7740 H   0  0  0  0  0  0
  -26.7968  -21.7741   21.2436 H   0  0  0  0  0  0
  -27.6098  -22.2168   22.7568 H   0  0  0  0  0  0
  -26.7681  -16.5844   23.0497 H   0  0  0  0  0  0
  -28.3822  -15.9467   23.3386 H   0  0  0  0  0  0
  -27.6174  -15.7976   21.7416 H   0  0  0  0  0  0
  -31.2201  -23.8554   17.8036 H   0  0  0  0  0  0
  -30.2022  -25.0555   17.0190 H   0  0  0  0  0  0
  -29.4855  -23.5838   17.6334 H   0  0  0  0  0  0
  -32.0417  -25.8517   19.1519 H   0  0  0  0  0  0
  -30.9815  -26.6618   20.2924 H   0  0  0  0  0  0
  -30.8145  -26.9714   18.5737 H   0  0  0  0  0  0
  -31.1420  -21.6310   21.4843 H   0  0  0  0  0  0
  -29.8578  -22.3037   22.4124 H   0  0  0  0  0  0
  -31.3020  -16.6758   22.4543 H   0  0  0  0  0  0
  -31.3768  -16.9969   20.7433 H   0  0  0  0  0  0
  -28.5712  -22.6827   20.1900 H   0  0  0  0  0  0
  -29.9957  -22.1107   19.3673 H   0  0  0  0  0  0
  -31.3335  -23.9261   20.4930 H   0  0  0  0  0  0
  -29.9115  -24.5049   21.2994 H   0  0  0  0  0  0
  -27.8512  -24.8279   19.4951 H   0  0  0  0  0  0
  -28.2945  -25.9381   18.2082 H   0  0  0  0  0  0
  -29.2178  -15.2060   21.6519 H   0  0  0  0  0  0
  1 25  1  0  0  0
  1 30  2  0  0  0
  1 87  1  0  0  0
  2  3  1  0  0  0
  2 25  1  0  0  0
  2 88  1  0  0  0
  2 89  1  0  0  0
  3  4  1  0  0  0
  3 90  1  0  0  0
  3 91  1  0  0  0
  4  5  1  0  0  0
  4 92  1  0  0  0
  4 93  1  0  0  0
  5  6  1  0  0  0
  5 26  1  0  0  0
  5 94  1  0  0  0
  6 25  1  0  0  0
  6 95  1  0  0  0
  6 96  1  0  0  0
  7  8  2  0  0  0
  7 26  1  0  0  0
  7 29  1  0  0  0
  8  9  1  0  0  0
  8 22  1  0  0  0
  9 10  1  0  0  0
  9 27  2  0  0  0
 10 11  2  0  0  0
 10 15  1  0  0  0
 11 12  1  0  0  0
 11 97  1  0  0  0
 12 13  2  0  0  0
 12 98  1  0  0  0
 13 14  1  0  0  0
 13 31  1  0  0  0
 14 15  2  0  0  0
 14 99  1  0  0  0
 15100  1  0  0  0
 16 17  2  0  0  0
 16 21  1  0  0  0
 16 31  1  0  0  0
 17 18  1  0  0  0
 17101  1  0  0  0
 18 19  2  0  0  0
 18102  1  0  0  0
 19 20  1  0  0  0
 19 24  1  0  0  0
 20 21  2  0  0  0
 20103  1  0  0  0
 21 23  1  0  0  0
 22 28  1  0  0  0
 22 32  2  0  0  0
 26 27  1  0  0  0
 28104  1  0  0  0
 28105  1  0  0  0
 29106  1  0  0  0
 29107  1  0  0  0
 33 34  1  0  0  0
 33 66  1  0  0  0
 33 70  2  0  0  0
 34 36  1  0  0  0
 34 59  1  0  0  0
 34108  1  0  0  0
 35 44  2  0  0  0
 35 45  1  0  0  0
 35 68  1  0  0  0
 36 56  1  0  0  0
 36109  1  0  0  0
 37 39  1  0  0  0
 37 47  1  0  0  0
 37 66  1  0  0  0
 37110  1  0  0  0
 38 43  2  0  0  0
 38 46  1  0  0  0
 38 47  1  0  0  0
 39 64  1  0  0  0
 39 67  2  0  0  0
 40 52  1  0  0  0
 40 53  2  0  0  0
 40 58  1  0  0  0
 41111  1  0  0  0
 41112  1  0  0  0
 41113  1  0  0  0
 41 48  1  0  0  0
 42 43  1  0  0  0
 42 66  1  0  0  0
 42114  1  0  0  0
 42115  1  0  0  0
 43 44  1  0  0  0
 44116  1  0  0  0
 45 46  2  0  0  0
 45117  1  0  0  0
 46118  1  0  0  0
 47119  1  0  0  0
 47120  1  0  0  0
 48 56  1  0  0  0
 48 65  1  0  0  0
 48121  1  0  0  0
 49 50  1  0  0  0
 49 53  1  0  0  0
 49 64  1  0  0  0
 49122  1  0  0  0
 50 51  1  0  0  0
 50123  1  0  0  0
 50124  1  0  0  0
 51 52  1  0  0  0
 51125  1  0  0  0
 51126  1  0  0  0
 52127  1  0  0  0
 52128  1  0  0  0
 53 54  1  0  0  0
 54 55  2  0  0  0
 54129  1  0  0  0
 55 57  1  0  0  0
 55130  1  0  0  0
 56 69  2  0  0  0
 57 58  2  0  0  0
 57131  1  0  0  0
 58132  1  0  0  0
 59 60  1  0  0  0
 59 61  1  0  0  0
 59 62  1  0  0  0
 60133  1  0  0  0
 60134  1  0  0  0
 60135  1  0  0  0
 61136  1  0  0  0
 61137  1  0  0  0
 61138  1  0  0  0
 62139  1  0  0  0
 62140  1  0  0  0
 62141  1  0  0  0
 63 65  1  0  0  0
 63142  1  0  0  0
 63143  1  0  0  0
 63144  1  0  0  0
 64145  1  0  0  0
 65146  1  0  0  0
 68 85  1  0  0  0
 71 73  2  0  0  0
 71 74  1  0  0  0
 71147  1  0  0  0
 72 75  2  0  0  0
 72 76  1  0  0  0
 72148  1  0  0  0
 73 75  1  0  0  0
 73 77  1  0  0  0
 74 76  2  0  0  0
 74 78  1  0  0  0
 75 81  1  0  0  0
 76 82  1  0  0  0
 77149  1  0  0  0
 77150  1  0  0  0
 77151  1  0  0  0
 78152  1  0  0  0
 78153  1  0  0  0
 78154  1  0  0  0
 79155  1  0  0  0
 79156  1  0  0  0
 79157  1  0  0  0
 79 86  1  0  0  0
 80 86  1  0  0  0
 80158  1  0  0  0
 80159  1  0  0  0
 80160  1  0  0  0
 81 83  1  0  0  0
 81161  1  0  0  0
 81162  1  0  0  0
 82 87  1  0  0  0
 82163  1  0  0  0
 82164  1  0  0  0
 83 84  1  0  0  0
 83165  1  0  0  0
 83166  1  0  0  0
 84 86  1  0  0  0
 84167  1  0  0  0
 84168  1  0  0  0
 85 86  1  0  0  0
 85169  1  0  0  0
 85170  1  0  0  0
 87171  1  0  0  0
M  ISO  4   1 100  68 101  85 101  87 100
M  END
> <chiral flag>
0

> <version>
0

> <s_m_source_file>
/data/baiqing/PycharmProjects/Reinvent-master-3.2/result/LINK_invent/BTK/process_docking_weight1_custom_product_contain_oxygen_bond_distance_aromatic_linkinvent_7_9_3/rearranged_h_0133.sdf

> <i_m_source_file_index>
71

> <r_mmod_Potential_Energy-OPLS-2005>
-91.7426071166992

> <r_mmod_Stretch_Energy-OPLS-2005>
39.8679161071777

> <r_mmod_Bend_Energy-OPLS-2005>
110.625823974609

> <r_mmod_Torsional_Energy-OPLS-2005>
205.653381347656

> <r_mmod_Improper_Torsional_Energy-OPLS-2005>
3.40280938148499

> <r_mmod_Van_der_Waal_Energy-OPLS-2005>
163.370544433594

> <r_mmod_Electrostatic_Energy-OPLS-2005>
-435.435913085938

> <r_mmod_Solvation_Energy-OPLS-2005>
-189.724014282227

> <b_mmod_Minimization_Converged-OPLS-2005>
0

> <r_mmod_RMS_Derivative-OPLS-2005>
2.59892010688782

$$$$
71
                    3D
 Structure written by MMmdl.
175183  0  0  1  0            999 V2000
  -30.7485  -14.3877   20.6515 C   0  0  0  0  0  0
  -30.4150  -12.2796   19.4092 C   0  0  0  0  0  0
  -29.4907  -12.5156   18.2015 C   0  0  0  0  0  0
  -28.0132  -12.3678   18.6125 C   0  0  0  0  0  0
  -27.6640  -13.1980   19.8760 C   0  0  2  0  0  0
  -28.7035  -12.9664   20.9984 C   0  0  0  0  0  0
  -25.2616  -13.8112   20.5690 C   0  0  0  0  0  0
  -24.1857  -13.0394   20.9186 C   0  0  0  0  0  0
  -24.6399  -11.6863   20.8722 C   0  0  0  0  0  0
  -23.9057  -10.4262   21.0385 C   0  0  0  0  0  0
  -24.3598   -9.4184   21.9167 C   0  0  0  0  0  0
  -23.6274   -8.2219   22.0730 C   0  0  0  0  0  0
  -22.4254   -8.0262   21.3530 C   0  0  0  0  0  0
  -21.9895   -9.0235   20.4631 C   0  0  0  0  0  0
  -22.7224  -10.2112   20.3039 C   0  0  0  0  0  0
  -21.6837   -6.0737   22.5292 C   0  0  0  0  0  0
  -21.3999   -6.5643   23.8232 C   0  0  0  0  0  0
  -21.3665   -5.6793   24.9189 C   0  0  0  0  0  0
  -21.6051   -4.3054   24.7232 C   0  0  0  0  0  0
  -21.8813   -3.8150   23.4352 C   0  0  0  0  0  0
  -21.9177   -4.6968   22.3408 C   0  0  0  0  0  0
  -22.7890  -13.5203   21.1849 C   0  0  0  0  0  0
  -22.1638   -4.2155   21.0987 F   0  0  0  0  0  0
  -21.5634   -3.4540   25.7744 F   0  0  0  0  0  0
  -30.0435  -13.2424   20.4565 N   0  0  0  0  0  0
  -26.3042  -12.9275   20.3358 N   0  0  0  0  0  0
  -25.9323  -11.6439   20.5745 N   0  0  0  0  0  0
  -22.0522  -12.8209   22.0410 N   0  0  0  0  0  0
  -25.4302  -15.1822   20.4105 N   0  0  0  0  0  0
  -31.8008  -14.6239   20.0509 O   0  0  0  0  0  0
  -21.6610   -6.8864   21.4245 O   0  0  0  0  0  0
  -22.3578  -14.5501   20.6690 O   0  0  0  0  0  0
  -24.6089  -31.8722   23.2160 C   0  0  0  0  0  0
  -25.9019  -32.4845   23.8419 C   0  0  1  0  0  0
  -27.2283  -27.4848   20.0738 C   0  0  0  0  0  0
  -25.5913  -33.8647   24.2353 N   0  0  0  0  0  0
  -23.3938  -30.4976   21.5550 C   0  0  2  0  0  0
  -24.8415  -28.9756   20.1101 C   0  0  0  0  0  0
  -22.7367  -29.4681   22.5011 C   0  0  0  0  0  0
  -18.0270  -28.1321   22.8526 C   0  0  0  0  0  0
  -24.1493  -36.7312   23.2633 C   0  0  0  0  0  0
  -25.9201  -30.8458   21.3704 C   0  0  0  0  0  0
  -25.9970  -29.4858   20.7163 C   0  0  0  0  0  0
  -27.1938  -28.7400   20.7143 C   0  0  0  0  0  0
  -26.0737  -27.0016   19.4262 C   0  0  0  0  0  0
  -24.8701  -27.7271   19.4667 C   0  0  0  0  0  0
  -23.6013  -29.8362   20.1660 C   0  0  0  0  0  0
  -25.4118  -36.3131   24.0338 C   0  0  1  0  0  0
  -20.5861  -28.3620   23.1321 C   0  0  2  0  0  0
  -20.6789  -26.9382   22.5339 C   0  0  0  0  0  0
  -19.5704  -26.6327   21.5212 C   0  0  0  0  0  0
  -18.1913  -26.7839   22.1706 C   0  0  0  0  0  0
  -19.1523  -28.8790   23.2917 C   0  0  0  0  0  0
  -18.9443  -30.1413   23.8905 C   0  0  0  0  0  0
  -17.6450  -30.6563   24.0537 C   0  0  0  0  0  0
  -25.9036  -34.9490   23.5128 C   0  0  0  0  0  0
  -16.5338  -29.9046   23.6320 C   0  0  0  0  0  0
  -16.7265  -28.6449   23.0381 C   0  0  0  0  0  0
  -26.4471  -31.6604   25.0716 C   0  0  0  0  0  0
  -25.3742  -31.3702   26.1458 C   0  0  0  0  0  0
  -27.0286  -30.3046   24.6076 C   0  0  0  0  0  0
  -27.6070  -32.4301   25.7466 C   0  0  0  0  0  0
  -27.5594  -37.1815   24.8468 C   0  0  0  0  0  0
  -21.4099  -29.3034   22.3764 N   0  0  0  0  0  0
  -26.4306  -37.3819   23.9406 N   0  0  0  0  0  0
  -24.6583  -31.0849   22.1056 N   0  0  0  0  0  0
  -23.4147  -28.8229   23.3049 O   0  0  0  0  0  0
  -28.3664  -26.7215   20.0682 O   0  0  0  0  0  0
  -26.5579  -34.8933   22.4685 O   0  0  0  0  0  0
  -23.5292  -32.1481   23.7570 O   0  0  0  0  0  0
  -29.5943  -20.5568   21.9130 C   0  0  0  0  0  0
  -30.0460  -20.0599   20.6765 C   0  0  0  0  0  0
  -28.8131  -18.3364   22.5089 C   0  0  0  0  0  0
  -28.9528  -19.7023   22.8354 C   0  0  0  0  0  0
  -29.8904  -18.6982   20.3433 C   0  0  0  0  0  0
  -29.2816  -17.8223   21.2801 C   0  0  0  0  0  0
  -29.2609  -18.2048   17.9262 C   0  0  0  0  0  0
  -26.0428  -26.0744   23.0822 C   0  0  0  0  0  0
  -28.4209  -20.1899   24.1853 C   0  0  0  0  0  0
  -30.3799  -18.2266   18.9787 C   0  0  0  0  0  0
  -29.1139  -16.3327   21.0016 C   0  0  0  0  0  0
  -30.2389  -15.4690   21.6148 C   0  0  0  0  0  0
  -28.3577  -21.7149   24.4161 C   0  0  0  0  0  0
  -27.3370  -22.4419   23.5279 C   0  0  0  0  0  0
  -27.3183  -23.9655   23.7600 C   0  0  0  0  0  0
  -27.4924  -24.7888   21.3430 C   0  0  0  0  0  0
  -28.5307  -25.9366   21.2506 C   0  0  0  0  0  0
  -26.6114  -24.7185   22.6196 C   0  0  2  0  0  0
  -31.4608  -12.3629   19.1073 H   0  0  0  0  0  0
  -30.2989  -11.2610   19.7837 H   0  0  0  0  0  0
  -29.7330  -11.8148   17.4014 H   0  0  0  0  0  0
  -29.6631  -13.5140   17.7981 H   0  0  0  0  0  0
  -27.8196  -11.3103   18.7990 H   0  0  0  0  0  0
  -27.3647  -12.6550   17.7842 H   0  0  0  0  0  0
  -27.7075  -14.2451   19.5804 H   0  0  0  0  0  0
  -28.6640  -11.9326   21.3439 H   0  0  0  0  0  0
  -28.4635  -13.5730   21.8702 H   0  0  0  0  0  0
  -25.2730   -9.5663   22.4752 H   0  0  0  0  0  0
  -23.9998   -7.4596   22.7431 H   0  0  0  0  0  0
  -21.0839   -8.8743   19.8918 H   0  0  0  0  0  0
  -22.3672  -10.9651   19.6156 H   0  0  0  0  0  0
  -21.1980   -7.6143   23.9743 H   0  0  0  0  0  0
  -21.1498   -6.0513   25.9099 H   0  0  0  0  0  0
  -22.0585   -2.7613   23.2848 H   0  0  0  0  0  0
  -22.4122  -11.9883   22.4839 H   0  0  0  0  0  0
  -21.1128  -13.1224   22.2570 H   0  0  0  0  0  0
  -24.6593  -15.8305   20.5200 H   0  0  0  0  0  0
  -26.2781  -15.6244   20.0804 H   0  0  0  0  0  0
  -26.7091  -32.5576   23.1189 H   0  0  0  0  0  0
  -25.0123  -33.9837   25.0532 H   0  0  0  0  0  0
  -22.6791  -31.3103   21.4177 H   0  0  0  0  0  0
  -23.3761  -35.9637   23.3313 H   0  0  0  0  0  0
  -24.3584  -36.8904   22.2043 H   0  0  0  0  0  0
  -23.7227  -37.6520   23.6621 H   0  0  0  0  0  0
  -26.0335  -31.6147   20.6053 H   0  0  0  0  0  0
  -26.8074  -30.8956   21.9894 H   0  0  0  0  0  0
  -28.0820  -29.1230   21.1976 H   0  0  0  0  0  0
  -26.0944  -26.0594   18.8990 H   0  0  0  0  0  0
  -23.9873  -27.3340   18.9824 H   0  0  0  0  0  0
  -23.7069  -30.6146   19.4088 H   0  0  0  0  0  0
  -22.7276  -29.2539   19.8690 H   0  0  0  0  0  0
  -25.1300  -36.2013   25.0834 H   0  0  0  0  0  0
  -20.9975  -28.3160   24.1436 H   0  0  0  0  0  0
  -20.5849  -26.2194   23.3480 H   0  0  0  0  0  0
  -21.6625  -26.7508   22.1034 H   0  0  0  0  0  0
  -19.6885  -25.6238   21.1232 H   0  0  0  0  0  0
  -19.6575  -27.3141   20.6738 H   0  0  0  0  0  0
  -17.4109  -26.6521   21.4185 H   0  0  0  0  0  0
  -18.0395  -25.9996   22.9141 H   0  0  0  0  0  0
  -19.7919  -30.7215   24.2310 H   0  0  0  0  0  0
  -17.4997  -31.6263   24.5092 H   0  0  0  0  0  0
  -15.5337  -30.2943   23.7638 H   0  0  0  0  0  0
  -15.8662  -28.0753   22.7108 H   0  0  0  0  0  0
  -24.5910  -30.7075   25.7769 H   0  0  0  0  0  0
  -24.8935  -32.2855   26.4922 H   0  0  0  0  0  0
  -25.8089  -30.8839   27.0198 H   0  0  0  0  0  0
  -26.2821  -29.6799   24.1158 H   0  0  0  0  0  0
  -27.4097  -29.7296   25.4524 H   0  0  0  0  0  0
  -27.8643  -30.4364   23.9195 H   0  0  0  0  0  0
  -27.2727  -33.3587   26.2103 H   0  0  0  0  0  0
  -28.3852  -32.6881   25.0270 H   0  0  0  0  0  0
  -28.0766  -31.8376   26.5332 H   0  0  0  0  0  0
  -28.2631  -38.0100   24.7540 H   0  0  0  0  0  0
  -28.1083  -36.2642   24.6284 H   0  0  0  0  0  0
  -27.2306  -37.1453   25.8870 H   0  0  0  0  0  0
  -20.9230  -29.8807   21.7054 H   0  0  0  0  0  0
  -26.0199  -38.2898   24.1422 H   0  0  0  0  0  0
  -29.7365  -21.6051   22.1293 H   0  0  0  0  0  0
  -30.5133  -20.7404   19.9778 H   0  0  0  0  0  0
  -28.3389  -17.6691   23.2161 H   0  0  0  0  0  0
  -29.6470  -17.8876   16.9574 H   0  0  0  0  0  0
  -28.8238  -19.1951   17.7984 H   0  0  0  0  0  0
  -28.4558  -17.5218   18.1974 H   0  0  0  0  0  0
  -25.2760  -25.9343   23.8460 H   0  0  0  0  0  0
  -25.5713  -26.6151   22.2615 H   0  0  0  0  0  0
  -26.8015  -26.7264   23.5137 H   0  0  0  0  0  0
  -29.0452  -19.7493   24.9622 H   0  0  0  0  0  0
  -27.4256  -19.7682   24.3329 H   0  0  0  0  0  0
  -30.8526  -17.2479   19.0599 H   0  0  0  0  0  0
  -31.1700  -18.8954   18.6338 H   0  0  0  0  0  0
  -29.0194  -16.1564   19.9308 H   0  0  0  0  0  0
  -28.1592  -16.0147   21.4232 H   0  0  0  0  0  0
  -29.9496  -15.0520   22.5787 H   0  0  0  0  0  0
  -31.0952  -16.1075   21.8363 H   0  0  0  0  0  0
  -29.3490  -22.1525   24.2935 H   0  0  0  0  0  0
  -28.0843  -21.8933   25.4573 H   0  0  0  0  0  0
  -26.3384  -22.0401   23.7037 H   0  0  0  0  0  0
  -27.5478  -22.2163   22.4857 H   0  0  0  0  0  0
  -28.3308  -24.3561   23.8738 H   0  0  0  0  0  0
  -26.8155  -24.1631   24.7087 H   0  0  0  0  0  0
  -28.0330  -23.8557   21.2050 H   0  0  0  0  0  0
  -26.8285  -24.7965   20.4862 H   0  0  0  0  0  0
  -28.5315  -26.5750   22.1330 H   0  0  0  0  0  0
  -29.5299  -25.5034   21.2131 H   0  0  0  0  0  0
  -25.7363  -24.1231   22.3502 H   0  0  0  0  0  0
  1 25  1  0  0  0
  1 30  2  0  0  0
  1 82  1  0  0  0
  2  3  1  0  0  0
  2 25  1  0  0  0
  2 89  1  0  0  0
  2 90  1  0  0  0
  3  4  1  0  0  0
  3 91  1  0  0  0
  3 92  1  0  0  0
  4  5  1  0  0  0
  4 93  1  0  0  0
  4 94  1  0  0  0
  5  6  1  0  0  0
  5 26  1  0  0  0
  5 95  1  0  0  0
  6 25  1  0  0  0
  6 96  1  0  0  0
  6 97  1  0  0  0
  7  8  2  0  0  0
  7 26  1  0  0  0
  7 29  1  0  0  0
  8  9  1  0  0  0
  8 22  1  0  0  0
  9 10  1  0  0  0
  9 27  2  0  0  0
 10 11  2  0  0  0
 10 15  1  0  0  0
 11 12  1  0  0  0
 11 98  1  0  0  0
 12 13  2  0  0  0
 12 99  1  0  0  0
 13 14  1  0  0  0
 13 31  1  0  0  0
 14 15  2  0  0  0
 14100  1  0  0  0
 15101  1  0  0  0
 16 17  2  0  0  0
 16 21  1  0  0  0
 16 31  1  0  0  0
 17 18  1  0  0  0
 17102  1  0  0  0
 18 19  2  0  0  0
 18103  1  0  0  0
 19 20  1  0  0  0
 19 24  1  0  0  0
 20 21  2  0  0  0
 20104  1  0  0  0
 21 23  1  0  0  0
 22 28  1  0  0  0
 22 32  2  0  0  0
 26 27  1  0  0  0
 28105  1  0  0  0
 28106  1  0  0  0
 29107  1  0  0  0
 29108  1  0  0  0
 33 34  1  0  0  0
 33 66  1  0  0  0
 33 70  2  0  0  0
 34 36  1  0  0  0
 34 59  1  0  0  0
 34109  1  0  0  0
 35 44  2  0  0  0
 35 45  1  0  0  0
 35 68  1  0  0  0
 36 56  1  0  0  0
 36110  1  0  0  0
 37 39  1  0  0  0
 37 47  1  0  0  0
 37 66  1  0  0  0
 37111  1  0  0  0
 38 43  2  0  0  0
 38 46  1  0  0  0
 38 47  1  0  0  0
 39 64  1  0  0  0
 39 67  2  0  0  0
 40 52  1  0  0  0
 40 53  2  0  0  0
 40 58  1  0  0  0
 41112  1  0  0  0
 41113  1  0  0  0
 41114  1  0  0  0
 41 48  1  0  0  0
 42 43  1  0  0  0
 42 66  1  0  0  0
 42115  1  0  0  0
 42116  1  0  0  0
 43 44  1  0  0  0
 44117  1  0  0  0
 45 46  2  0  0  0
 45118  1  0  0  0
 46119  1  0  0  0
 47120  1  0  0  0
 47121  1  0  0  0
 48 56  1  0  0  0
 48 65  1  0  0  0
 48122  1  0  0  0
 49 50  1  0  0  0
 49 53  1  0  0  0
 49 64  1  0  0  0
 49123  1  0  0  0
 50 51  1  0  0  0
 50124  1  0  0  0
 50125  1  0  0  0
 51 52  1  0  0  0
 51126  1  0  0  0
 51127  1  0  0  0
 52128  1  0  0  0
 52129  1  0  0  0
 53 54  1  0  0  0
 54 55  2  0  0  0
 54130  1  0  0  0
 55 57  1  0  0  0
 55131  1  0  0  0
 56 69  2  0  0  0
 57 58  2  0  0  0
 57132  1  0  0  0
 58133  1  0  0  0
 59 60  1  0  0  0
 59 61  1  0  0  0
 59 62  1  0  0  0
 60134  1  0  0  0
 60135  1  0  0  0
 60136  1  0  0  0
 61137  1  0  0  0
 61138  1  0  0  0
 61139  1  0  0  0
 62140  1  0  0  0
 62141  1  0  0  0
 62142  1  0  0  0
 63 65  1  0  0  0
 63143  1  0  0  0
 63144  1  0  0  0
 63145  1  0  0  0
 64146  1  0  0  0
 65147  1  0  0  0
 68 87  1  0  0  0
 71 72  2  0  0  0
 71 74  1  0  0  0
 71148  1  0  0  0
 72 75  1  0  0  0
 72149  1  0  0  0
 73 74  2  0  0  0
 73 76  1  0  0  0
 73150  1  0  0  0
 74 79  1  0  0  0
 75 76  2  0  0  0
 75 80  1  0  0  0
 76 81  1  0  0  0
 77 80  1  0  0  0
 77151  1  0  0  0
 77152  1  0  0  0
 77153  1  0  0  0
 78154  1  0  0  0
 78155  1  0  0  0
 78156  1  0  0  0
 78 88  1  0  0  0
 79 83  1  0  0  0
 79157  1  0  0  0
 79158  1  0  0  0
 80159  1  0  0  0
 80160  1  0  0  0
 81 82  1  0  0  0
 81161  1  0  0  0
 81162  1  0  0  0
 82163  1  0  0  0
 82164  1  0  0  0
 83 84  1  0  0  0
 83165  1  0  0  0
 83166  1  0  0  0
 84 85  1  0  0  0
 84167  1  0  0  0
 84168  1  0  0  0
 85 88  1  0  0  0
 85169  1  0  0  0
 85170  1  0  0  0
 86 87  1  0  0  0
 86 88  1  0  0  0
 86171  1  0  0  0
 86172  1  0  0  0
 87173  1  0  0  0
 87174  1  0  0  0
 88175  1  0  0  0
M  ISO  4   1 100  68 101  82 100  87 101
M  END
> <chiral flag>
0

> <version>
0

> <s_m_source_file>
/data/baiqing/PycharmProjects/Reinvent-master-3.2/result/LINK_invent/BTK/process_docking_weight1_custom_product_contain_oxygen_bond_distance_aromatic_linkinvent_7_9_3/rearranged_h_0133.sdf

> <i_m_source_file_index>
72

> <r_mmod_Potential_Energy-OPLS-2005>
0.850812554359436

> <r_mmod_Stretch_Energy-OPLS-2005>
33.6079902648926

> <r_mmod_Bend_Energy-OPLS-2005>
97.6835021972656

> <r_mmod_Torsional_Energy-OPLS-2005>
236.905502319336

> <r_mmod_Improper_Torsional_Energy-OPLS-2005>
1.86209487915039

> <r_mmod_Van_der_Waal_Energy-OPLS-2005>
141.635025024414

> <r_mmod_Electrostatic_Energy-OPLS-2005>
-343.282623291016

> <r_mmod_Solvation_Energy-OPLS-2005>
-175.846176147461

> <b_mmod_Minimization_Converged-OPLS-2005>
0

> <r_mmod_RMS_Derivative-OPLS-2005>
2.41833829879761

$$$$
72
                    3D
 Structure written by MMmdl.
174182  0  0  1  0            999 V2000
  -30.7336  -14.4163   20.6039 C   0  0  0  0  0  0
  -30.4202  -12.2894   19.4048 C   0  0  0  0  0  0
  -29.4872  -12.5080   18.1971 C   0  0  0  0  0  0
  -28.0100  -12.3746   18.6132 C   0  0  0  0  0  0
  -27.6659  -13.2043   19.8779 C   0  0  2  0  0  0
  -28.7090  -12.9633   20.9937 C   0  0  0  0  0  0
  -25.2615  -13.8167   20.5670 C   0  0  0  0  0  0
  -24.1850  -13.0438   20.9176 C   0  0  0  0  0  0
  -24.6403  -11.6913   20.8734 C   0  0  0  0  0  0
  -23.9064  -10.4289   21.0404 C   0  0  0  0  0  0
  -24.3619   -9.4205   21.9180 C   0  0  0  0  0  0
  -23.6293   -8.2246   22.0760 C   0  0  0  0  0  0
  -22.4271   -8.0280   21.3546 C   0  0  0  0  0  0
  -21.9908   -9.0254   20.4649 C   0  0  0  0  0  0
  -22.7240  -10.2135   20.3051 C   0  0  0  0  0  0
  -21.6852   -6.0736   22.5282 C   0  0  0  0  0  0
  -21.4012   -6.5639   23.8211 C   0  0  0  0  0  0
  -21.3660   -5.6791   24.9176 C   0  0  0  0  0  0
  -21.6046   -4.3056   24.7224 C   0  0  0  0  0  0
  -21.8820   -3.8148   23.4349 C   0  0  0  0  0  0
  -21.9191   -4.6961   22.3401 C   0  0  0  0  0  0
  -22.7879  -13.5247   21.1826 C   0  0  0  0  0  0
  -22.1661   -4.2152   21.0983 F   0  0  0  0  0  0
  -21.5629   -3.4540   25.7741 F   0  0  0  0  0  0
  -30.0442  -13.2591   20.4424 N   0  0  0  0  0  0
  -26.3047  -12.9325   20.3389 N   0  0  0  0  0  0
  -25.9333  -11.6487   20.5781 N   0  0  0  0  0  0
  -22.0512  -12.8231   22.0389 N   0  0  0  0  0  0
  -25.4338  -15.1874   20.4076 N   0  0  0  0  0  0
  -31.8316  -14.6297   20.0815 O   0  0  0  0  0  0
  -21.6644   -6.8880   21.4239 O   0  0  0  0  0  0
  -22.3562  -14.5548   20.6690 O   0  0  0  0  0  0
  -24.6127  -31.8672   23.2111 C   0  0  0  0  0  0
  -25.9031  -32.4809   23.8393 C   0  0  1  0  0  0
  -27.2406  -27.4531   20.0622 C   0  0  0  0  0  0
  -25.5902  -33.8616   24.2335 N   0  0  0  0  0  0
  -23.3983  -30.4858   21.5577 C   0  0  2  0  0  0
  -24.8417  -28.9568   20.1160 C   0  0  0  0  0  0
  -22.7368  -29.4653   22.5102 C   0  0  0  0  0  0
  -18.0260  -28.1424   22.8513 C   0  0  0  0  0  0
  -24.1484  -36.7296   23.2641 C   0  0  0  0  0  0
  -25.9271  -30.8285   21.3651 C   0  0  0  0  0  0
  -25.9999  -29.4647   20.7161 C   0  0  0  0  0  0
  -27.1954  -28.7147   20.6999 C   0  0  0  0  0  0
  -26.0610  -26.9612   19.4533 C   0  0  0  0  0  0
  -24.8683  -27.7031   19.4847 C   0  0  0  0  0  0
  -23.5974  -29.8137   20.1734 C   0  0  0  0  0  0
  -25.4101  -36.3071   24.0344 C   0  0  1  0  0  0
  -20.5838  -28.3663   23.1406 C   0  0  2  0  0  0
  -20.6753  -26.9429   22.5459 C   0  0  0  0  0  0
  -19.5740  -26.6431   21.5242 C   0  0  0  0  0  0
  -18.1916  -26.7987   22.1631 C   0  0  0  0  0  0
  -19.1502  -28.8867   23.2952 C   0  0  0  0  0  0
  -18.9419  -30.1501   23.8941 C   0  0  0  0  0  0
  -17.6408  -30.6627   24.0585 C   0  0  0  0  0  0
  -25.9036  -34.9452   23.5131 C   0  0  0  0  0  0
  -16.5313  -29.9115   23.6372 C   0  0  0  0  0  0
  -16.7245  -28.6553   23.0360 C   0  0  0  0  0  0
  -26.4479  -31.6569   25.0713 C   0  0  0  0  0  0
  -25.3741  -31.3657   26.1452 C   0  0  0  0  0  0
  -27.0284  -30.2992   24.6090 C   0  0  0  0  0  0
  -27.6080  -32.4301   25.7426 C   0  0  0  0  0  0
  -27.5591  -37.1790   24.8485 C   0  0  0  0  0  0
  -21.4104  -29.3018   22.3810 N   0  0  0  0  0  0
  -26.4299  -37.3755   23.9430 N   0  0  0  0  0  0
  -24.6650  -31.0741   22.1016 N   0  0  0  0  0  0
  -23.4139  -28.8223   23.3157 O   0  0  0  0  0  0
  -28.4342  -26.7587   20.0628 O   0  0  0  0  0  0
  -26.5595  -34.8902   22.4700 O   0  0  0  0  0  0
  -23.5322  -32.1484   23.7488 O   0  0  0  0  0  0
  -27.6334  -18.6277   16.2823 C   0  0  0  0  0  0
  -27.8331  -17.9383   17.4946 C   0  0  0  0  0  0
  -28.1925  -19.9067   16.0945 C   0  0  0  0  0  0
  -29.1396  -19.8156   18.3383 C   0  0  0  0  0  0
  -28.5835  -18.5320   18.5317 C   0  0  0  0  0  0
  -28.9578  -20.5069   17.1188 C   0  0  0  0  0  0
  -28.1403  -22.6261   21.5989 C   0  0  0  0  0  0
  -31.0747  -21.6190   16.3682 C   0  0  0  0  0  0
  -28.7999  -17.7841   19.8410 C   0  0  0  0  0  0
  -28.8162  -23.8456   20.9442 C   0  0  0  0  0  0
  -30.2889  -17.6250   20.2084 C   0  0  0  0  0  0
  -29.6109  -22.8326   18.0538 C   0  0  0  0  0  0
  -28.1938  -23.2408   18.5107 C   0  0  0  0  0  0
  -30.5498  -16.7509   21.4552 C   0  0  0  0  0  0
  -28.6326  -25.6848   19.1330 C   0  0  0  0  0  0
  -29.6374  -21.8508   16.8588 C   0  0  2  0  0  0
  -28.1287  -24.3048   19.6367 C   0  0  2  0  0  0
  -30.0929  -15.3709   21.2878 N   0  0  0  0  0  0
  -31.4638  -12.3860   19.1006 H   0  0  0  0  0  0
  -30.3187  -11.2740   19.7924 H   0  0  0  0  0  0
  -29.7197  -11.7894   17.4102 H   0  0  0  0  0  0
  -29.6612  -13.4972   17.7682 H   0  0  0  0  0  0
  -27.8126  -11.3174   18.7986 H   0  0  0  0  0  0
  -27.3595  -12.6635   17.7877 H   0  0  0  0  0  0
  -27.7170  -14.2559   19.5936 H   0  0  0  0  0  0
  -28.6785  -11.9236   21.3236 H   0  0  0  0  0  0
  -28.4712  -13.5502   21.8816 H   0  0  0  0  0  0
  -25.2769   -9.5685   22.4749 H   0  0  0  0  0  0
  -24.0004   -7.4641   22.7477 H   0  0  0  0  0  0
  -21.0842   -8.8768   19.8954 H   0  0  0  0  0  0
  -22.3695  -10.9670   19.6160 H   0  0  0  0  0  0
  -21.2001   -7.6149   23.9716 H   0  0  0  0  0  0
  -21.1477   -6.0525   25.9079 H   0  0  0  0  0  0
  -22.0599   -2.7611   23.2849 H   0  0  0  0  0  0
  -22.4125  -11.9885   22.4756 H   0  0  0  0  0  0
  -21.1132  -13.1267   22.2594 H   0  0  0  0  0  0
  -24.6687  -15.8446   20.5105 H   0  0  0  0  0  0
  -26.2881  -15.6229   20.0862 H   0  0  0  0  0  0
  -26.7098  -32.5456   23.1140 H   0  0  0  0  0  0
  -24.9990  -33.9784   25.0430 H   0  0  0  0  0  0
  -22.6880  -31.3031   21.4213 H   0  0  0  0  0  0
  -23.3725  -35.9653   23.3291 H   0  0  0  0  0  0
  -24.3601  -36.8913   22.2065 H   0  0  0  0  0  0
  -23.7257  -37.6520   23.6645 H   0  0  0  0  0  0
  -26.0448  -31.5871   20.5923 H   0  0  0  0  0  0
  -26.8169  -30.8777   21.9799 H   0  0  0  0  0  0
  -28.0875  -29.1154   21.1598 H   0  0  0  0  0  0
  -26.0300  -26.0139   18.9377 H   0  0  0  0  0  0
  -23.9810  -27.3102   19.0093 H   0  0  0  0  0  0
  -23.6890  -30.5894   19.4121 H   0  0  0  0  0  0
  -22.7229  -29.2212   19.8916 H   0  0  0  0  0  0
  -25.1265  -36.1957   25.0843 H   0  0  0  0  0  0
  -20.9907  -28.3194   24.1537 H   0  0  0  0  0  0
  -20.5700  -26.2248   23.3596 H   0  0  0  0  0  0
  -21.6607  -26.7519   22.1219 H   0  0  0  0  0  0
  -19.6890  -25.6347   21.1263 H   0  0  0  0  0  0
  -19.6710  -27.3235   20.6763 H   0  0  0  0  0  0
  -17.4193  -26.6788   21.4031 H   0  0  0  0  0  0
  -18.0297  -26.0136   22.9013 H   0  0  0  0  0  0
  -19.7865  -30.7358   24.2302 H   0  0  0  0  0  0
  -17.4935  -31.6305   24.5169 H   0  0  0  0  0  0
  -15.5307  -30.2992   23.7708 H   0  0  0  0  0  0
  -15.8642  -28.0868   22.7050 H   0  0  0  0  0  0
  -24.6080  -30.6802   25.7813 H   0  0  0  0  0  0
  -24.8706  -32.2752   26.4736 H   0  0  0  0  0  0
  -25.8129  -30.9023   27.0296 H   0  0  0  0  0  0
  -26.2792  -29.6774   24.1174 H   0  0  0  0  0  0
  -27.4069  -29.7240   25.4556 H   0  0  0  0  0  0
  -27.8634  -30.4299   23.9198 H   0  0  0  0  0  0
  -27.2766  -33.3658   26.1937 H   0  0  0  0  0  0
  -28.3865  -32.6783   25.0197 H   0  0  0  0  0  0
  -28.0753  -31.8457   26.5358 H   0  0  0  0  0  0
  -28.2594  -38.0083   24.7498 H   0  0  0  0  0  0
  -28.1086  -36.2629   24.6316 H   0  0  0  0  0  0
  -27.2329  -37.1439   25.8887 H   0  0  0  0  0  0
  -20.9286  -29.8594   21.6893 H   0  0  0  0  0  0
  -26.0174  -38.2850   24.1369 H   0  0  0  0  0  0
  -27.0592  -18.1699   15.4886 H   0  0  0  0  0  0
  -27.4045  -16.9521   17.6245 H   0  0  0  0  0  0
  -28.0516  -20.4136   15.1498 H   0  0  0  0  0  0
  -29.7267  -20.2620   19.1279 H   0  0  0  0  0  0
  -28.5965  -22.3836   22.5575 H   0  0  0  0  0  0
  -28.2113  -21.7340   20.9791 H   0  0  0  0  0  0
  -27.0837  -22.8188   21.7831 H   0  0  0  0  0  0
  -31.0861  -20.9968   15.4730 H   0  0  0  0  0  0
  -31.6650  -21.1119   17.1330 H   0  0  0  0  0  0
  -31.5796  -22.5559   16.1256 H   0  0  0  0  0  0
  -28.3309  -16.8025   19.7709 H   0  0  0  0  0  0
  -28.2752  -18.3133   20.6377 H   0  0  0  0  0  0
  -29.8698  -23.6349   20.7672 H   0  0  0  0  0  0
  -28.8018  -24.6687   21.6624 H   0  0  0  0  0  0
  -30.7181  -18.6118   20.3866 H   0  0  0  0  0  0
  -30.8314  -17.2172   19.3542 H   0  0  0  0  0  0
  -30.1765  -22.4184   18.8863 H   0  0  0  0  0  0
  -30.1533  -23.7301   17.7598 H   0  0  0  0  0  0
  -27.6435  -22.3521   18.8183 H   0  0  0  0  0  0
  -27.6570  -23.6327   17.6458 H   0  0  0  0  0  0
  -30.0486  -17.1847   22.3190 H   0  0  0  0  0  0
  -31.6158  -16.7592   21.6869 H   0  0  0  0  0  0
  -29.7056  -25.6254   18.9494 H   0  0  0  0  0  0
  -28.1902  -25.9365   18.1672 H   0  0  0  0  0  0
  -29.0913  -22.3336   16.0452 H   0  0  0  0  0  0
  -27.0748  -24.4120   19.8801 H   0  0  0  0  0  0
  -29.1989  -15.1241   21.6864 H   0  0  0  0  0  0
  1 25  1  0  0  0
  1 30  2  0  0  0
  1 88  1  0  0  0
  2  3  1  0  0  0
  2 25  1  0  0  0
  2 89  1  0  0  0
  2 90  1  0  0  0
  3  4  1  0  0  0
  3 91  1  0  0  0
  3 92  1  0  0  0
  4  5  1  0  0  0
  4 93  1  0  0  0
  4 94  1  0  0  0
  5  6  1  0  0  0
  5 26  1  0  0  0
  5 95  1  0  0  0
  6 25  1  0  0  0
  6 96  1  0  0  0
  6 97  1  0  0  0
  7  8  2  0  0  0
  7 26  1  0  0  0
  7 29  1  0  0  0
  8  9  1  0  0  0
  8 22  1  0  0  0
  9 10  1  0  0  0
  9 27  2  0  0  0
 10 11  2  0  0  0
 10 15  1  0  0  0
 11 12  1  0  0  0
 11 98  1  0  0  0
 12 13  2  0  0  0
 12 99  1  0  0  0
 13 14  1  0  0  0
 13 31  1  0  0  0
 14 15  2  0  0  0
 14100  1  0  0  0
 15101  1  0  0  0
 16 17  2  0  0  0
 16 21  1  0  0  0
 16 31  1  0  0  0
 17 18  1  0  0  0
 17102  1  0  0  0
 18 19  2  0  0  0
 18103  1  0  0  0
 19 20  1  0  0  0
 19 24  1  0  0  0
 20 21  2  0  0  0
 20104  1  0  0  0
 21 23  1  0  0  0
 22 28  1  0  0  0
 22 32  2  0  0  0
 26 27  1  0  0  0
 28105  1  0  0  0
 28106  1  0  0  0
 29107  1  0  0  0
 29108  1  0  0  0
 33 34  1  0  0  0
 33 66  1  0  0  0
 33 70  2  0  0  0
 34 36  1  0  0  0
 34 59  1  0  0  0
 34109  1  0  0  0
 35 44  2  0  0  0
 35 45  1  0  0  0
 35 68  1  0  0  0
 36 56  1  0  0  0
 36110  1  0  0  0
 37 39  1  0  0  0
 37 47  1  0  0  0
 37 66  1  0  0  0
 37111  1  0  0  0
 38 43  2  0  0  0
 38 46  1  0  0  0
 38 47  1  0  0  0
 39 64  1  0  0  0
 39 67  2  0  0  0
 40 52  1  0  0  0
 40 53  2  0  0  0
 40 58  1  0  0  0
 41112  1  0  0  0
 41113  1  0  0  0
 41114  1  0  0  0
 41 48  1  0  0  0
 42 43  1  0  0  0
 42 66  1  0  0  0
 42115  1  0  0  0
 42116  1  0  0  0
 43 44  1  0  0  0
 44117  1  0  0  0
 45 46  2  0  0  0
 45118  1  0  0  0
 46119  1  0  0  0
 47120  1  0  0  0
 47121  1  0  0  0
 48 56  1  0  0  0
 48 65  1  0  0  0
 48122  1  0  0  0
 49 50  1  0  0  0
 49 53  1  0  0  0
 49 64  1  0  0  0
 49123  1  0  0  0
 50 51  1  0  0  0
 50124  1  0  0  0
 50125  1  0  0  0
 51 52  1  0  0  0
 51126  1  0  0  0
 51127  1  0  0  0
 52128  1  0  0  0
 52129  1  0  0  0
 53 54  1  0  0  0
 54 55  2  0  0  0
 54130  1  0  0  0
 55 57  1  0  0  0
 55131  1  0  0  0
 56 69  2  0  0  0
 57 58  2  0  0  0
 57132  1  0  0  0
 58133  1  0  0  0
 59 60  1  0  0  0
 59 61  1  0  0  0
 59 62  1  0  0  0
 60134  1  0  0  0
 60135  1  0  0  0
 60136  1  0  0  0
 61137  1  0  0  0
 61138  1  0  0  0
 61139  1  0  0  0
 62140  1  0  0  0
 62141  1  0  0  0
 62142  1  0  0  0
 63 65  1  0  0  0
 63143  1  0  0  0
 63144  1  0  0  0
 63145  1  0  0  0
 64146  1  0  0  0
 65147  1  0  0  0
 68 85  1  0  0  0
 71 72  2  0  0  0
 71 73  1  0  0  0
 71148  1  0  0  0
 72 75  1  0  0  0
 72149  1  0  0  0
 73 76  2  0  0  0
 73150  1  0  0  0
 74 75  2  0  0  0
 74 76  1  0  0  0
 74151  1  0  0  0
 75 79  1  0  0  0
 76 86  1  0  0  0
 77 80  1  0  0  0
 77152  1  0  0  0
 77153  1  0  0  0
 77154  1  0  0  0
 78155  1  0  0  0
 78156  1  0  0  0
 78157  1  0  0  0
 78 86  1  0  0  0
 79 81  1  0  0  0
 79158  1  0  0  0
 79159  1  0  0  0
 80160  1  0  0  0
 80161  1  0  0  0
 80 87  1  0  0  0
 81 84  1  0  0  0
 81162  1  0  0  0
 81163  1  0  0  0
 82 83  1  0  0  0
 82 86  1  0  0  0
 82164  1  0  0  0
 82165  1  0  0  0
 83 87  1  0  0  0
 83166  1  0  0  0
 83167  1  0  0  0
 84 88  1  0  0  0
 84168  1  0  0  0
 84169  1  0  0  0
 85 87  1  0  0  0
 85170  1  0  0  0
 85171  1  0  0  0
 86172  1  0  0  0
 87173  1  0  0  0
 88174  1  0  0  0
M  ISO  4   1 100  68 101  85 101  88 100
M  END
> <chiral flag>
0

> <version>
0

> <s_m_source_file>
/data/baiqing/PycharmProjects/Reinvent-master-3.2/result/LINK_invent/BTK/process_docking_weight1_custom_product_contain_oxygen_bond_distance_aromatic_linkinvent_7_9_3/rearranged_h_0133.sdf

> <i_m_source_file_index>
73

> <r_mmod_Potential_Energy-OPLS-2005>
-67.9432373046875

> <r_mmod_Stretch_Energy-OPLS-2005>
35.4112510681152

> <r_mmod_Bend_Energy-OPLS-2005>
100.167602539062

> <r_mmod_Torsional_Energy-OPLS-2005>
204.09912109375

> <r_mmod_Improper_Torsional_Energy-OPLS-2005>
2.74827694892883

> <r_mmod_Van_der_Waal_Energy-OPLS-2005>
146.975479125977

> <r_mmod_Electrostatic_Energy-OPLS-2005>
-370.623260498047

> <r_mmod_Solvation_Energy-OPLS-2005>
-196.329681396484

> <b_mmod_Minimization_Converged-OPLS-2005>
0

> <r_mmod_RMS_Derivative-OPLS-2005>
4.1239595413208

$$$$
73
                    3D
 Structure written by MMmdl.
153161  0  0  1  0            999 V2000
  -30.7101  -14.4923   20.5873 C   0  0  0  0  0  0
  -30.4223  -12.3271   19.4266 C   0  0  0  0  0  0
  -29.4949  -12.5075   18.2083 C   0  0  0  0  0  0
  -28.0183  -12.3592   18.6226 C   0  0  0  0  0  0
  -27.6590  -13.2100   19.8701 C   0  0  2  0  0  0
  -28.7011  -13.0118   20.9936 C   0  0  0  0  0  0
  -25.2580  -13.8165   20.5674 C   0  0  0  0  0  0
  -24.1835  -13.0440   20.9173 C   0  0  0  0  0  0
  -24.6391  -11.6908   20.8733 C   0  0  0  0  0  0
  -23.9058  -10.4294   21.0409 C   0  0  0  0  0  0
  -24.3612   -9.4208   21.9188 C   0  0  0  0  0  0
  -23.6287   -8.2240   22.0756 C   0  0  0  0  0  0
  -22.4269   -8.0282   21.3546 C   0  0  0  0  0  0
  -21.9903   -9.0255   20.4649 C   0  0  0  0  0  0
  -22.7231  -10.2136   20.3061 C   0  0  0  0  0  0
  -21.6849   -6.0734   22.5282 C   0  0  0  0  0  0
  -21.4012   -6.5638   23.8214 C   0  0  0  0  0  0
  -21.3660   -5.6793   24.9178 C   0  0  0  0  0  0
  -21.6046   -4.3052   24.7227 C   0  0  0  0  0  0
  -21.8820   -3.8146   23.4346 C   0  0  0  0  0  0
  -21.9191   -4.6964   22.3406 C   0  0  0  0  0  0
  -22.7862  -13.5243   21.1844 C   0  0  0  0  0  0
  -22.1659   -4.2149   21.0982 F   0  0  0  0  0  0
  -21.5631   -3.4539   25.7737 F   0  0  0  0  0  0
  -30.0294  -13.3211   20.4392 N   0  0  0  0  0  0
  -26.3012  -12.9338   20.3343 N   0  0  0  0  0  0
  -25.9317  -11.6497   20.5754 N   0  0  0  0  0  0
  -22.0494  -12.8244   22.0401 N   0  0  0  0  0  0
  -25.4318  -15.1879   20.4078 N   0  0  0  0  0  0
  -31.8310  -14.6697   20.1038 O   0  0  0  0  0  0
  -21.6635   -6.8879   21.4244 O   0  0  0  0  0  0
  -22.3556  -14.5555   20.6695 O   0  0  0  0  0  0
  -24.6192  -31.8658   23.2070 C   0  0  0  0  0  0
  -25.9075  -32.4808   23.8380 C   0  0  1  0  0  0
  -27.2252  -27.3914   20.1007 C   0  0  0  0  0  0
  -25.5918  -33.8608   24.2303 N   0  0  0  0  0  0
  -23.4084  -30.4928   21.5486 C   0  0  2  0  0  0
  -24.8524  -28.9608   20.1091 C   0  0  0  0  0  0
  -22.7437  -29.4659   22.4955 C   0  0  0  0  0  0
  -18.0283  -28.1375   22.8492 C   0  0  0  0  0  0
  -24.1483  -36.7311   23.2630 C   0  0  0  0  0  0
  -25.9439  -30.8183   21.3694 C   0  0  0  0  0  0
  -26.0169  -29.4522   20.7118 C   0  0  0  0  0  0
  -27.2056  -28.6773   20.7032 C   0  0  0  0  0  0
  -26.0391  -26.9408   19.4701 C   0  0  0  0  0  0
  -24.8614  -27.7069   19.4814 C   0  0  0  0  0  0
  -23.6170  -29.8308   20.1617 C   0  0  0  0  0  0
  -25.4106  -36.3105   24.0326 C   0  0  1  0  0  0
  -20.5877  -28.3671   23.1288 C   0  0  2  0  0  0
  -20.6762  -26.9400   22.5400 C   0  0  0  0  0  0
  -19.5735  -26.6379   21.5202 C   0  0  0  0  0  0
  -18.1922  -26.7917   22.1627 C   0  0  0  0  0  0
  -19.1535  -28.8841   23.2889 C   0  0  0  0  0  0
  -18.9460  -30.1448   23.8898 C   0  0  0  0  0  0
  -17.6461  -30.6580   24.0568 C   0  0  0  0  0  0
  -25.9040  -34.9470   23.5109 C   0  0  0  0  0  0
  -16.5354  -29.9084   23.6324 C   0  0  0  0  0  0
  -16.7273  -28.6503   23.0346 C   0  0  0  0  0  0
  -26.4476  -31.6593   25.0728 C   0  0  0  0  0  0
  -25.3726  -31.3733   26.1463 C   0  0  0  0  0  0
  -27.0290  -30.3017   24.6148 C   0  0  0  0  0  0
  -27.6047  -32.4313   25.7506 C   0  0  0  0  0  0
  -27.5574  -37.1806   24.8464 C   0  0  0  0  0  0
  -21.4161  -29.3041   22.3696 N   0  0  0  0  0  0
  -26.4287  -37.3797   23.9411 N   0  0  0  0  0  0
  -24.6756  -31.0743   22.0987 N   0  0  0  0  0  0
  -23.4200  -28.8191   23.3001 O   0  0  0  0  0  0
  -28.3682  -26.5977   20.1555 O   0  0  0  0  0  0
  -26.5607  -34.8922   22.4673 O   0  0  0  0  0  0
  -23.5380  -32.1421   23.7447 O   0  0  0  0  0  0
  -28.7736  -19.5571   19.7258 C   0  0  0  0  0  0
  -28.9704  -18.1548   19.9133 C   0  0  0  0  0  0
  -29.6141  -20.2042   20.5925 C   0  0  0  0  0  0
  -29.9241  -18.0108   20.8827 C   0  0  0  0  0  0
  -29.9179  -21.6648   20.8872 C   0  0  0  0  0  0
  -30.6005  -16.8259   21.5450 C   0  0  0  0  0  0
  -28.9617  -22.7091   20.2348 C   0  0  0  0  0  0
  -29.2749  -24.2184   20.5083 C   0  0  0  0  0  0
  -28.1837  -25.1725   19.9401 C   0  0  0  0  0  0
  -30.0556  -15.4925   21.2120 N   0  0  0  0  0  0
  -30.3228  -19.2610   21.2993 O   0  0  0  0  0  0
  -31.4665  -12.4259   19.1246 H   0  0  0  0  0  0
  -30.3275  -11.3200   19.8354 H   0  0  0  0  0  0
  -29.7411  -11.7774   17.4361 H   0  0  0  0  0  0
  -29.6565  -13.4907   17.7635 H   0  0  0  0  0  0
  -27.8389  -11.3036   18.8322 H   0  0  0  0  0  0
  -27.3643  -12.6168   17.7883 H   0  0  0  0  0  0
  -27.6974  -14.2547   19.5594 H   0  0  0  0  0  0
  -28.6847  -11.9797   21.3473 H   0  0  0  0  0  0
  -28.4555  -13.6222   21.8632 H   0  0  0  0  0  0
  -25.2757   -9.5681   22.4760 H   0  0  0  0  0  0
  -23.9995   -7.4633   22.7472 H   0  0  0  0  0  0
  -21.0831   -8.8775   19.8954 H   0  0  0  0  0  0
  -22.3690  -10.9675   19.6168 H   0  0  0  0  0  0
  -21.2001   -7.6145   23.9719 H   0  0  0  0  0  0
  -21.1485   -6.0520   25.9080 H   0  0  0  0  0  0
  -22.0598   -2.7606   23.2849 H   0  0  0  0  0  0
  -22.4086  -11.9896   22.4792 H   0  0  0  0  0  0
  -21.1129  -13.1297   22.2618 H   0  0  0  0  0  0
  -24.6689  -15.8474   20.5179 H   0  0  0  0  0  0
  -26.2888  -15.6236   20.0920 H   0  0  0  0  0  0
  -26.7160  -32.5493   23.1150 H   0  0  0  0  0  0
  -25.0082  -33.9770   25.0460 H   0  0  0  0  0  0
  -22.6993  -31.3118   21.4094 H   0  0  0  0  0  0
  -23.3739  -35.9653   23.3306 H   0  0  0  0  0  0
  -24.3580  -36.8911   22.2043 H   0  0  0  0  0  0
  -23.7228  -37.6515   23.6640 H   0  0  0  0  0  0
  -26.0672  -31.5841   20.6026 H   0  0  0  0  0  0
  -26.8281  -30.8646   21.9936 H   0  0  0  0  0  0
  -28.0995  -29.0506   21.1834 H   0  0  0  0  0  0
  -25.9909  -25.9876   18.9646 H   0  0  0  0  0  0
  -23.9703  -27.3273   19.0012 H   0  0  0  0  0  0
  -23.7275  -30.6064   19.4028 H   0  0  0  0  0  0
  -22.7400  -29.2534   19.8635 H   0  0  0  0  0  0
  -25.1282  -36.1966   25.0819 H   0  0  0  0  0  0
  -20.9982  -28.3234   24.1403 H   0  0  0  0  0  0
  -20.5635  -26.2294   23.3603 H   0  0  0  0  0  0
  -21.6633  -26.7411   22.1208 H   0  0  0  0  0  0
  -19.6889  -25.6291   21.1222 H   0  0  0  0  0  0
  -19.6652  -27.3200   20.6737 H   0  0  0  0  0  0
  -17.4180  -26.6664   21.4042 H   0  0  0  0  0  0
  -18.0334  -26.0057   22.9022 H   0  0  0  0  0  0
  -19.7939  -30.7267   24.2254 H   0  0  0  0  0  0
  -17.5018  -31.6255   24.5178 H   0  0  0  0  0  0
  -15.5353  -30.2991   23.7634 H   0  0  0  0  0  0
  -15.8677  -28.0824   22.7046 H   0  0  0  0  0  0
  -24.5916  -30.7059   25.7803 H   0  0  0  0  0  0
  -24.8899  -32.2901   26.4858 H   0  0  0  0  0  0
  -25.8058  -30.8938   27.0248 H   0  0  0  0  0  0
  -26.2839  -29.6808   24.1159 H   0  0  0  0  0  0
  -27.3971  -29.7239   25.4633 H   0  0  0  0  0  0
  -27.8728  -30.4298   23.9365 H   0  0  0  0  0  0
  -27.2667  -33.3627   26.2064 H   0  0  0  0  0  0
  -28.3879  -32.6836   25.0346 H   0  0  0  0  0  0
  -28.0689  -31.8437   26.5435 H   0  0  0  0  0  0
  -28.2601  -38.0094   24.7514 H   0  0  0  0  0  0
  -28.1054  -36.2624   24.6290 H   0  0  0  0  0  0
  -27.2295  -37.1465   25.8867 H   0  0  0  0  0  0
  -20.9324  -29.8810   21.6957 H   0  0  0  0  0  0
  -26.0170  -38.2874   24.1418 H   0  0  0  0  0  0
  -28.1003  -20.0365   19.0284 H   0  0  0  0  0  0
  -28.4790  -17.3445   19.3930 H   0  0  0  0  0  0
  -30.9384  -21.8777   20.5679 H   0  0  0  0  0  0
  -29.9127  -21.8111   21.9679 H   0  0  0  0  0  0
  -31.6690  -16.8682   21.3287 H   0  0  0  0  0  0
  -30.5269  -16.9410   22.6267 H   0  0  0  0  0  0
  -27.9482  -22.4950   20.5764 H   0  0  0  0  0  0
  -28.9513  -22.5490   19.1564 H   0  0  0  0  0  0
  -30.2446  -24.4750   20.0826 H   0  0  0  0  0  0
  -29.3603  -24.3792   21.5838 H   0  0  0  0  0  0
  -28.0874  -24.9971   18.8678 H   0  0  0  0  0  0
  -27.2481  -24.8534   20.4017 H   0  0  0  0  0  0
  -29.1288  -15.2845   21.5502 H   0  0  0  0  0  0
  1 25  1  0  0  0
  1 30  2  0  0  0
  1 80  1  0  0  0
  2  3  1  0  0  0
  2 25  1  0  0  0
  2 82  1  0  0  0
  2 83  1  0  0  0
  3  4  1  0  0  0
  3 84  1  0  0  0
  3 85  1  0  0  0
  4  5  1  0  0  0
  4 86  1  0  0  0
  4 87  1  0  0  0
  5  6  1  0  0  0
  5 26  1  0  0  0
  5 88  1  0  0  0
  6 25  1  0  0  0
  6 89  1  0  0  0
  6 90  1  0  0  0
  7  8  2  0  0  0
  7 26  1  0  0  0
  7 29  1  0  0  0
  8  9  1  0  0  0
  8 22  1  0  0  0
  9 10  1  0  0  0
  9 27  2  0  0  0
 10 11  2  0  0  0
 10 15  1  0  0  0
 11 12  1  0  0  0
 11 91  1  0  0  0
 12 13  2  0  0  0
 12 92  1  0  0  0
 13 14  1  0  0  0
 13 31  1  0  0  0
 14 15  2  0  0  0
 14 93  1  0  0  0
 15 94  1  0  0  0
 16 17  2  0  0  0
 16 21  1  0  0  0
 16 31  1  0  0  0
 17 18  1  0  0  0
 17 95  1  0  0  0
 18 19  2  0  0  0
 18 96  1  0  0  0
 19 20  1  0  0  0
 19 24  1  0  0  0
 20 21  2  0  0  0
 20 97  1  0  0  0
 21 23  1  0  0  0
 22 28  1  0  0  0
 22 32  2  0  0  0
 26 27  1  0  0  0
 28 98  1  0  0  0
 28 99  1  0  0  0
 29100  1  0  0  0
 29101  1  0  0  0
 33 34  1  0  0  0
 33 66  1  0  0  0
 33 70  2  0  0  0
 34 36  1  0  0  0
 34 59  1  0  0  0
 34102  1  0  0  0
 35 44  2  0  0  0
 35 45  1  0  0  0
 35 68  1  0  0  0
 36 56  1  0  0  0
 36103  1  0  0  0
 37 39  1  0  0  0
 37 47  1  0  0  0
 37 66  1  0  0  0
 37104  1  0  0  0
 38 43  2  0  0  0
 38 46  1  0  0  0
 38 47  1  0  0  0
 39 64  1  0  0  0
 39 67  2  0  0  0
 40 52  1  0  0  0
 40 53  2  0  0  0
 40 58  1  0  0  0
 41105  1  0  0  0
 41106  1  0  0  0
 41107  1  0  0  0
 41 48  1  0  0  0
 42 43  1  0  0  0
 42 66  1  0  0  0
 42108  1  0  0  0
 42109  1  0  0  0
 43 44  1  0  0  0
 44110  1  0  0  0
 45 46  2  0  0  0
 45111  1  0  0  0
 46112  1  0  0  0
 47113  1  0  0  0
 47114  1  0  0  0
 48 56  1  0  0  0
 48 65  1  0  0  0
 48115  1  0  0  0
 49 50  1  0  0  0
 49 53  1  0  0  0
 49 64  1  0  0  0
 49116  1  0  0  0
 50 51  1  0  0  0
 50117  1  0  0  0
 50118  1  0  0  0
 51 52  1  0  0  0
 51119  1  0  0  0
 51120  1  0  0  0
 52121  1  0  0  0
 52122  1  0  0  0
 53 54  1  0  0  0
 54 55  2  0  0  0
 54123  1  0  0  0
 55 57  1  0  0  0
 55124  1  0  0  0
 56 69  2  0  0  0
 57 58  2  0  0  0
 57125  1  0  0  0
 58126  1  0  0  0
 59 60  1  0  0  0
 59 61  1  0  0  0
 59 62  1  0  0  0
 60127  1  0  0  0
 60128  1  0  0  0
 60129  1  0  0  0
 61130  1  0  0  0
 61131  1  0  0  0
 61132  1  0  0  0
 62133  1  0  0  0
 62134  1  0  0  0
 62135  1  0  0  0
 63 65  1  0  0  0
 63136  1  0  0  0
 63137  1  0  0  0
 63138  1  0  0  0
 64139  1  0  0  0
 65140  1  0  0  0
 68 79  1  0  0  0
 71 72  1  0  0  0
 71 73  2  0  0  0
 71141  1  0  0  0
 72 74  2  0  0  0
 72142  1  0  0  0
 73 75  1  0  0  0
 73 81  1  0  0  0
 74 76  1  0  0  0
 74 81  1  0  0  0
 75 77  1  0  0  0
 75143  1  0  0  0
 75144  1  0  0  0
 76 80  1  0  0  0
 76145  1  0  0  0
 76146  1  0  0  0
 77 78  1  0  0  0
 77147  1  0  0  0
 77148  1  0  0  0
 78 79  1  0  0  0
 78149  1  0  0  0
 78150  1  0  0  0
 79151  1  0  0  0
 79152  1  0  0  0
 80153  1  0  0  0
M  ISO  4   1 100  68 101  79 101  80 100
M  END
> <chiral flag>
0

> <version>
0

> <s_m_source_file>
/data/baiqing/PycharmProjects/Reinvent-master-3.2/result/LINK_invent/BTK/process_docking_weight1_custom_product_contain_oxygen_bond_distance_aromatic_linkinvent_7_9_3/rearranged_h_0133.sdf

> <i_m_source_file_index>
74

> <r_mmod_Potential_Energy-OPLS-2005>
-146.10432434082

> <r_mmod_Stretch_Energy-OPLS-2005>
42.5247344970703

> <r_mmod_Bend_Energy-OPLS-2005>
97.5318145751953

> <r_mmod_Torsional_Energy-OPLS-2005>
184.903915405273

> <r_mmod_Improper_Torsional_Energy-OPLS-2005>
2.35124826431274

> <r_mmod_Van_der_Waal_Energy-OPLS-2005>
131.042922973633

> <r_mmod_Electrostatic_Energy-OPLS-2005>
-415.355102539062

> <r_mmod_Solvation_Energy-OPLS-2005>
-208.57194519043

> <b_mmod_Minimization_Converged-OPLS-2005>
0

> <r_mmod_RMS_Derivative-OPLS-2005>
1.17835092544556

$$$$
74
                    3D
 Structure written by MMmdl.
192202  0  0  1  0            999 V2000
  -30.7395  -14.3890   20.7162 C   0  0  0  0  0  0
  -30.4275  -12.2981   19.4271 C   0  0  0  0  0  0
  -29.5059  -12.5132   18.2129 C   0  0  0  0  0  0
  -28.0285  -12.3519   18.6176 C   0  0  0  0  0  0
  -27.6667  -13.1966   19.8666 C   0  0  2  0  0  0
  -28.6895  -12.9614   20.9968 C   0  0  0  0  0  0
  -25.2633  -13.8154   20.5572 C   0  0  0  0  0  0
  -24.1852  -13.0442   20.9126 C   0  0  0  0  0  0
  -24.6387  -11.6925   20.8689 C   0  0  0  0  0  0
  -23.9027  -10.4328   21.0405 C   0  0  0  0  0  0
  -24.3611   -9.4271   21.9185 C   0  0  0  0  0  0
  -23.6308   -8.2292   22.0770 C   0  0  0  0  0  0
  -22.4298   -8.0303   21.3543 C   0  0  0  0  0  0
  -21.9899   -9.0268   20.4648 C   0  0  0  0  0  0
  -22.7200  -10.2172   20.3055 C   0  0  0  0  0  0
  -21.6877   -6.0746   22.5271 C   0  0  0  0  0  0
  -21.4027   -6.5649   23.8205 C   0  0  0  0  0  0
  -21.3661   -5.6806   24.9166 C   0  0  0  0  0  0
  -21.6040   -4.3056   24.7233 C   0  0  0  0  0  0
  -21.8833   -3.8147   23.4351 C   0  0  0  0  0  0
  -21.9227   -4.6964   22.3414 C   0  0  0  0  0  0
  -22.7893  -13.5296   21.1845 C   0  0  0  0  0  0
  -22.1697   -4.2138   21.0988 F   0  0  0  0  0  0
  -21.5616   -3.4553   25.7748 F   0  0  0  0  0  0
  -30.0397  -13.2476   20.4822 N   0  0  0  0  0  0
  -26.3027  -12.9281   20.3214 N   0  0  0  0  0  0
  -25.9289  -11.6463   20.5646 N   0  0  0  0  0  0
  -22.0518  -12.8258   22.0397 N   0  0  0  0  0  0
  -25.4410  -15.1842   20.3988 N   0  0  0  0  0  0
  -31.7639  -14.6872   20.0903 O   0  0  0  0  0  0
  -21.6661   -6.8886   21.4245 O   0  0  0  0  0  0
  -22.3611  -14.5643   20.6775 O   0  0  0  0  0  0
  -24.6020  -31.8714   23.2060 C   0  0  0  0  0  0
  -25.8907  -32.4831   23.8374 C   0  0  1  0  0  0
  -27.2357  -27.5189   20.0553 C   0  0  0  0  0  0
  -25.5783  -33.8637   24.2385 N   0  0  0  0  0  0
  -23.3875  -30.4952   21.5504 C   0  0  2  0  0  0
  -24.8271  -28.9713   20.1028 C   0  0  0  0  0  0
  -22.7385  -29.4700   22.5029 C   0  0  0  0  0  0
  -18.0281  -28.1493   22.8428 C   0  0  0  0  0  0
  -24.1485  -36.7371   23.2631 C   0  0  0  0  0  0
  -25.9053  -30.8650   21.3415 C   0  0  0  0  0  0
  -25.9845  -29.5129   20.6754 C   0  0  0  0  0  0
  -27.1972  -28.8031   20.6270 C   0  0  0  0  0  0
  -26.0647  -26.9669   19.4922 C   0  0  0  0  0  0
  -24.8613  -27.6961   19.5055 C   0  0  0  0  0  0
  -23.5766  -29.8132   20.1696 C   0  0  0  0  0  0
  -25.4091  -36.3168   24.0364 C   0  0  1  0  0  0
  -20.5856  -28.3700   23.1307 C   0  0  2  0  0  0
  -20.6786  -26.9534   22.5178 C   0  0  0  0  0  0
  -19.5741  -26.6688   21.4981 C   0  0  0  0  0  0
  -18.1928  -26.8122   22.1400 C   0  0  0  0  0  0
  -19.1537  -28.8849   23.2970 C   0  0  0  0  0  0
  -18.9536  -30.1404   23.9096 C   0  0  0  0  0  0
  -17.6563  -30.6524   24.0854 C   0  0  0  0  0  0
  -25.9010  -34.9486   23.5208 C   0  0  0  0  0  0
  -16.5441  -29.9136   23.6487 C   0  0  0  0  0  0
  -16.7268  -28.6616   23.0349 C   0  0  0  0  0  0
  -26.4407  -31.6486   25.0585 C   0  0  0  0  0  0
  -25.3762  -31.3418   26.1375 C   0  0  0  0  0  0
  -27.0165  -30.2939   24.5777 C   0  0  0  0  0  0
  -27.6094  -32.4127   25.7255 C   0  0  0  0  0  0
  -27.5613  -37.1800   24.8458 C   0  0  0  0  0  0
  -21.4125  -29.3078   22.3744 N   0  0  0  0  0  0
  -26.4325  -37.3821   23.9400 N   0  0  0  0  0  0
  -24.6514  -31.0863   22.0926 N   0  0  0  0  0  0
  -23.4147  -28.8252   23.3075 O   0  0  0  0  0  0
  -28.4300  -26.8530   20.1005 O   0  0  0  0  0  0
  -26.5611  -34.8922   22.4803 O   0  0  0  0  0  0
  -23.5223  -32.1476   23.7468 O   0  0  0  0  0  0
  -23.4037  -20.6928   22.9232 C   0  0  0  0  0  0
  -29.7380  -16.6115   21.3850 C   0  0  0  0  0  0
  -24.3009  -19.9376   23.6993 C   0  0  0  0  0  0
  -29.1715  -17.4794   22.3429 C   0  0  0  0  0  0
  -23.5204  -22.0961   22.8590 C   0  0  0  0  0  0
  -30.1959  -14.9893   23.1307 C   0  0  0  0  0  0
  -25.4324  -21.9847   24.3613 C   0  0  0  0  0  0
  -30.2154  -15.3408   21.7639 C   0  0  0  0  0  0
  -25.3460  -20.5669   24.4036 C   0  0  0  0  0  0
  -29.0851  -17.1088   23.7083 C   0  0  0  0  0  0
  -24.5240  -22.7612   23.5986 C   0  0  0  0  0  0
  -29.6460  -15.8614   24.0997 C   0  0  0  0  0  0
  -28.4196  -19.5763   26.6930 C   0  0  0  0  0  0
  -27.2907  -20.4464   26.1148 C   0  0  0  0  0  0
  -29.2435  -18.9233   25.5651 C   0  0  0  0  0  0
  -27.2207  -18.8844   24.0925 C   0  0  0  0  0  0
  -26.3781  -19.6789   25.1258 C   0  0  2  0  0  0
  -28.3364  -18.0103   24.7197 C   0  0  1  0  0  0
  -29.6468  -15.4028   25.5498 C   0  0  0  0  0  0
  -23.2967  -24.9635   23.9621 C   0  0  0  0  0  0
  -27.8159  -26.5150   22.8911 C   0  0  0  0  0  0
  -29.0052  -24.3915   22.7067 C   0  0  0  0  0  0
  -25.2372  -24.9416   22.3341 C   0  0  0  0  0  0
  -26.6202  -24.3558   21.9633 C   0  0  0  0  0  0
  -28.4164  -25.5039   20.5345 C   0  0  0  0  0  0
  -24.6310  -24.2993   23.6072 C   0  0  2  0  0  0
  -27.9189  -25.2377   22.0019 C   0  0  0  0  0  0
  -31.4726  -12.4044   19.1338 H   0  0  0  0  0  0
  -30.3315  -11.2760   19.7989 H   0  0  0  0  0  0
  -29.7572  -11.8010   17.4259 H   0  0  0  0  0  0
  -29.6704  -13.5112   17.8028 H   0  0  0  0  0  0
  -27.8547  -11.2937   18.8247 H   0  0  0  0  0  0
  -27.3753  -12.6012   17.7829 H   0  0  0  0  0  0
  -27.7240  -14.2460   19.5725 H   0  0  0  0  0  0
  -28.6479  -11.9262   21.3386 H   0  0  0  0  0  0
  -28.4008  -13.5581   21.8583 H   0  0  0  0  0  0
  -25.2783   -9.5746   22.4722 H   0  0  0  0  0  0
  -24.0024   -7.4693   22.7500 H   0  0  0  0  0  0
  -21.0824   -8.8784   19.8950 H   0  0  0  0  0  0
  -22.3659  -10.9702   19.6154 H   0  0  0  0  0  0
  -21.2000   -7.6152   23.9712 H   0  0  0  0  0  0
  -21.1458   -6.0517   25.9063 H   0  0  0  0  0  0
  -22.0603   -2.7607   23.2850 H   0  0  0  0  0  0
  -22.4129  -11.9903   22.4731 H   0  0  0  0  0  0
  -21.1155  -13.1311   22.2631 H   0  0  0  0  0  0
  -24.6925  -15.8550   20.5264 H   0  0  0  0  0  0
  -26.3121  -15.6108   20.1031 H   0  0  0  0  0  0
  -26.7004  -32.5608   23.1181 H   0  0  0  0  0  0
  -24.9793  -33.9802   25.0423 H   0  0  0  0  0  0
  -22.6711  -31.3064   21.4215 H   0  0  0  0  0  0
  -23.3742  -35.9720   23.3293 H   0  0  0  0  0  0
  -24.3607  -36.8953   22.2052 H   0  0  0  0  0  0
  -23.7230  -37.6588   23.6608 H   0  0  0  0  0  0
  -25.9922  -31.6278   20.5667 H   0  0  0  0  0  0
  -26.8010  -30.9233   21.9471 H   0  0  0  0  0  0
  -28.0902  -29.2134   21.0755 H   0  0  0  0  0  0
  -26.0737  -25.9852   19.0455 H   0  0  0  0  0  0
  -23.9701  -27.2658   19.0683 H   0  0  0  0  0  0
  -23.6387  -30.5720   19.3889 H   0  0  0  0  0  0
  -22.7119  -29.1973   19.9202 H   0  0  0  0  0  0
  -25.1263  -36.2114   25.0870 H   0  0  0  0  0  0
  -20.9937  -28.3189   24.1433 H   0  0  0  0  0  0
  -20.5910  -26.2280   23.3265 H   0  0  0  0  0  0
  -21.6632  -26.7838   22.0776 H   0  0  0  0  0  0
  -19.6871  -25.6783   21.0589 H   0  0  0  0  0  0
  -19.6701  -27.3817   20.6781 H   0  0  0  0  0  0
  -17.4248  -26.7131   21.3686 H   0  0  0  0  0  0
  -18.0271  -26.0167   22.8695 H   0  0  0  0  0  0
  -19.8077  -30.7135   24.2443 H   0  0  0  0  0  0
  -17.5158  -31.6121   24.5647 H   0  0  0  0  0  0
  -15.5453  -30.3008   23.7895 H   0  0  0  0  0  0
  -15.8620  -28.1054   22.6931 H   0  0  0  0  0  0
  -24.5914  -30.6812   25.7654 H   0  0  0  0  0  0
  -24.8996  -32.2504   26.5048 H   0  0  0  0  0  0
  -25.8273  -30.8351   26.9922 H   0  0  0  0  0  0
  -26.2665  -29.6835   24.0739 H   0  0  0  0  0  0
  -27.3832  -29.6966   25.4140 H   0  0  0  0  0  0
  -27.8558  -30.4270   23.8943 H   0  0  0  0  0  0
  -27.2858  -33.3478   26.1853 H   0  0  0  0  0  0
  -28.3817  -32.6581   24.9941 H   0  0  0  0  0  0
  -28.0834  -31.8154   26.5054 H   0  0  0  0  0  0
  -28.2656  -38.0089   24.7544 H   0  0  0  0  0  0
  -28.1104  -36.2619   24.6276 H   0  0  0  0  0  0
  -27.2309  -37.1453   25.8861 H   0  0  0  0  0  0
  -20.9385  -29.8571   21.6739 H   0  0  0  0  0  0
  -26.0251  -38.2907   24.1475 H   0  0  0  0  0  0
  -22.6327  -20.1801   22.3667 H   0  0  0  0  0  0
  -29.7698  -16.9074   20.3451 H   0  0  0  0  0  0
  -24.2016  -18.8609   23.7321 H   0  0  0  0  0  0
  -28.7728  -18.4183   21.9971 H   0  0  0  0  0  0
  -22.8250  -22.6520   22.2470 H   0  0  0  0  0  0
  -30.5874  -14.0260   23.4291 H   0  0  0  0  0  0
  -26.2093  -22.5063   24.8976 H   0  0  0  0  0  0
  -28.0076  -18.8069   27.3506 H   0  0  0  0  0  0
  -29.0643  -20.1918   27.3198 H   0  0  0  0  0  0
  -27.7728  -21.2809   25.6048 H   0  0  0  0  0  0
  -26.6901  -20.8646   26.9247 H   0  0  0  0  0  0
  -30.0745  -18.3739   26.0023 H   0  0  0  0  0  0
  -29.6888  -19.6992   24.9408 H   0  0  0  0  0  0
  -27.6547  -19.6038   23.4006 H   0  0  0  0  0  0
  -26.5590  -18.2472   23.5056 H   0  0  0  0  0  0
  -25.8145  -18.9539   25.7173 H   0  0  0  0  0  0
  -27.8358  -17.3266   25.4025 H   0  0  0  0  0  0
  -30.2669  -14.5114   25.6780 H   0  0  0  0  0  0
  -28.6344  -15.1526   25.8767 H   0  0  0  0  0  0
  -30.0502  -16.1733   26.2057 H   0  0  0  0  0  0
  -22.8938  -24.5673   24.8933 H   0  0  0  0  0  0
  -22.5539  -24.8169   23.1813 H   0  0  0  0  0  0
  -23.4292  -26.0359   24.0933 H   0  0  0  0  0  0
  -27.0224  -27.1993   22.6069 H   0  0  0  0  0  0
  -28.7398  -27.0943   22.8649 H   0  0  0  0  0  0
  -27.6091  -26.2712   23.9334 H   0  0  0  0  0  0
  -28.7692  -24.2593   23.7691 H   0  0  0  0  0  0
  -29.9907  -24.8558   22.6541 H   0  0  0  0  0  0
  -29.0988  -23.3964   22.2677 H   0  0  0  0  0  0
  -25.2782  -26.0215   22.4634 H   0  0  0  0  0  0
  -24.5533  -24.8149   21.4934 H   0  0  0  0  0  0
  -26.5114  -23.8665   20.9957 H   0  0  0  0  0  0
  -26.7858  -23.5125   22.6259 H   0  0  0  0  0  0
  -27.9238  -24.8823   19.7891 H   0  0  0  0  0  0
  -29.4612  -25.2054   20.4472 H   0  0  0  0  0  0
  -25.3200  -24.5468   24.4141 H   0  0  0  0  0  0
  1 25  1  0  0  0
  1 30  2  0  0  0
  1 78  1  0  0  0
  2  3  1  0  0  0
  2 25  1  0  0  0
  2 98  1  0  0  0
  2 99  1  0  0  0
  3  4  1  0  0  0
  3100  1  0  0  0
  3101  1  0  0  0
  4  5  1  0  0  0
  4102  1  0  0  0
  4103  1  0  0  0
  5  6  1  0  0  0
  5 26  1  0  0  0
  5104  1  0  0  0
  6 25  1  0  0  0
  6105  1  0  0  0
  6106  1  0  0  0
  7  8  2  0  0  0
  7 26  1  0  0  0
  7 29  1  0  0  0
  8  9  1  0  0  0
  8 22  1  0  0  0
  9 10  1  0  0  0
  9 27  2  0  0  0
 10 11  2  0  0  0
 10 15  1  0  0  0
 11 12  1  0  0  0
 11107  1  0  0  0
 12 13  2  0  0  0
 12108  1  0  0  0
 13 14  1  0  0  0
 13 31  1  0  0  0
 14 15  2  0  0  0
 14109  1  0  0  0
 15110  1  0  0  0
 16 17  2  0  0  0
 16 21  1  0  0  0
 16 31  1  0  0  0
 17 18  1  0  0  0
 17111  1  0  0  0
 18 19  2  0  0  0
 18112  1  0  0  0
 19 20  1  0  0  0
 19 24  1  0  0  0
 20 21  2  0  0  0
 20113  1  0  0  0
 21 23  1  0  0  0
 22 28  1  0  0  0
 22 32  2  0  0  0
 26 27  1  0  0  0
 28114  1  0  0  0
 28115  1  0  0  0
 29116  1  0  0  0
 29117  1  0  0  0
 33 34  1  0  0  0
 33 66  1  0  0  0
 33 70  2  0  0  0
 34 36  1  0  0  0
 34 59  1  0  0  0
 34118  1  0  0  0
 35 44  2  0  0  0
 35 45  1  0  0  0
 35 68  1  0  0  0
 36 56  1  0  0  0
 36119  1  0  0  0
 37 39  1  0  0  0
 37 47  1  0  0  0
 37 66  1  0  0  0
 37120  1  0  0  0
 38 43  2  0  0  0
 38 46  1  0  0  0
 38 47  1  0  0  0
 39 64  1  0  0  0
 39 67  2  0  0  0
 40 52  1  0  0  0
 40 53  2  0  0  0
 40 58  1  0  0  0
 41121  1  0  0  0
 41122  1  0  0  0
 41123  1  0  0  0
 41 48  1  0  0  0
 42 43  1  0  0  0
 42 66  1  0  0  0
 42124  1  0  0  0
 42125  1  0  0  0
 43 44  1  0  0  0
 44126  1  0  0  0
 45 46  2  0  0  0
 45127  1  0  0  0
 46128  1  0  0  0
 47129  1  0  0  0
 47130  1  0  0  0
 48 56  1  0  0  0
 48 65  1  0  0  0
 48131  1  0  0  0
 49 50  1  0  0  0
 49 53  1  0  0  0
 49 64  1  0  0  0
 49132  1  0  0  0
 50 51  1  0  0  0
 50133  1  0  0  0
 50134  1  0  0  0
 51 52  1  0  0  0
 51135  1  0  0  0
 51136  1  0  0  0
 52137  1  0  0  0
 52138  1  0  0  0
 53 54  1  0  0  0
 54 55  2  0  0  0
 54139  1  0  0  0
 55 57  1  0  0  0
 55140  1  0  0  0
 56 69  2  0  0  0
 57 58  2  0  0  0
 57141  1  0  0  0
 58142  1  0  0  0
 59 60  1  0  0  0
 59 61  1  0  0  0
 59 62  1  0  0  0
 60143  1  0  0  0
 60144  1  0  0  0
 60145  1  0  0  0
 61146  1  0  0  0
 61147  1  0  0  0
 61148  1  0  0  0
 62149  1  0  0  0
 62150  1  0  0  0
 62151  1  0  0  0
 63 65  1  0  0  0
 63152  1  0  0  0
 63153  1  0  0  0
 63154  1  0  0  0
 64155  1  0  0  0
 65156  1  0  0  0
 68 95  1  0  0  0
 71 73  2  0  0  0
 71 75  1  0  0  0
 71157  1  0  0  0
 72 74  2  0  0  0
 72 78  1  0  0  0
 72158  1  0  0  0
 73 79  1  0  0  0
 73159  1  0  0  0
 74 80  1  0  0  0
 74160  1  0  0  0
 75 81  2  0  0  0
 75161  1  0  0  0
 76 78  2  0  0  0
 76 82  1  0  0  0
 76162  1  0  0  0
 77 79  2  0  0  0
 77 81  1  0  0  0
 77163  1  0  0  0
 79 87  1  0  0  0
 80 82  2  0  0  0
 80 88  1  0  0  0
 81 96  1  0  0  0
 82 89  1  0  0  0
 83 84  1  0  0  0
 83 85  1  0  0  0
 83164  1  0  0  0
 83165  1  0  0  0
 84 87  1  0  0  0
 84166  1  0  0  0
 84167  1  0  0  0
 85 88  1  0  0  0
 85168  1  0  0  0
 85169  1  0  0  0
 86 87  1  0  0  0
 86 88  1  0  0  0
 86170  1  0  0  0
 86171  1  0  0  0
 87172  1  0  0  0
 88173  1  0  0  0
 89174  1  0  0  0
 89175  1  0  0  0
 89176  1  0  0  0
 90177  1  0  0  0
 90178  1  0  0  0
 90179  1  0  0  0
 90 96  1  0  0  0
 91180  1  0  0  0
 91181  1  0  0  0
 91182  1  0  0  0
 91 97  1  0  0  0
 92 97  1  0  0  0
 92183  1  0  0  0
 92184  1  0  0  0
 92185  1  0  0  0
 93 94  1  0  0  0
 93 96  1  0  0  0
 93186  1  0  0  0
 93187  1  0  0  0
 94 97  1  0  0  0
 94188  1  0  0  0
 94189  1  0  0  0
 95 97  1  0  0  0
 95190  1  0  0  0
 95191  1  0  0  0
 96192  1  0  0  0
M  ISO  4   1 100  68 101  78 100  95 101
M  END
> <chiral flag>
0

> <version>
0

> <s_m_source_file>
/data/baiqing/PycharmProjects/Reinvent-master-3.2/result/LINK_invent/BTK/process_docking_weight1_custom_product_contain_oxygen_bond_distance_aromatic_linkinvent_7_9_3/rearranged_h_0133.sdf

> <i_m_source_file_index>
75

> <r_mmod_Potential_Energy-OPLS-2005>
139.448928833008

> <r_mmod_Stretch_Energy-OPLS-2005>
46.3388290405273

> <r_mmod_Bend_Energy-OPLS-2005>
132.696731567383

> <r_mmod_Torsional_Energy-OPLS-2005>
272.481811523438

> <r_mmod_Improper_Torsional_Energy-OPLS-2005>
2.09270286560059

> <r_mmod_Van_der_Waal_Energy-OPLS-2005>
177.022506713867

> <r_mmod_Electrostatic_Energy-OPLS-2005>
-338.301788330078

> <r_mmod_Solvation_Energy-OPLS-2005>
-165.05046081543

> <b_mmod_Minimization_Converged-OPLS-2005>
0

> <r_mmod_RMS_Derivative-OPLS-2005>
6.94494867324829

$$$$
75
                    3D
 Structure written by MMmdl.
160168  0  0  1  0            999 V2000
  -30.7222  -14.4176   20.6192 C   0  0  0  0  0  0
  -30.4212  -12.2852   19.4142 C   0  0  0  0  0  0
  -29.4940  -12.5110   18.2033 C   0  0  0  0  0  0
  -28.0137  -12.3778   18.6118 C   0  0  0  0  0  0
  -27.6656  -13.2054   19.8772 C   0  0  2  0  0  0
  -28.7050  -12.9632   20.9934 C   0  0  0  0  0  0
  -25.2607  -13.8162   20.5691 C   0  0  0  0  0  0
  -24.1853  -13.0433   20.9160 C   0  0  0  0  0  0
  -24.6406  -11.6901   20.8720 C   0  0  0  0  0  0
  -23.9070  -10.4287   21.0394 C   0  0  0  0  0  0
  -24.3622   -9.4206   21.9176 C   0  0  0  0  0  0
  -23.6294   -8.2243   22.0751 C   0  0  0  0  0  0
  -22.4277   -8.0279   21.3537 C   0  0  0  0  0  0
  -21.9914   -9.0255   20.4638 C   0  0  0  0  0  0
  -22.7247  -10.2129   20.3043 C   0  0  0  0  0  0
  -21.6852   -6.0737   22.5280 C   0  0  0  0  0  0
  -21.4014   -6.5643   23.8216 C   0  0  0  0  0  0
  -21.3659   -5.6794   24.9178 C   0  0  0  0  0  0
  -21.6046   -4.3053   24.7226 C   0  0  0  0  0  0
  -21.8822   -3.8144   23.4344 C   0  0  0  0  0  0
  -21.9196   -4.6962   22.3401 C   0  0  0  0  0  0
  -22.7874  -13.5218   21.1830 C   0  0  0  0  0  0
  -22.1665   -4.2152   21.0973 F   0  0  0  0  0  0
  -21.5627   -3.4536   25.7737 F   0  0  0  0  0  0
  -30.0414  -13.2538   20.4518 N   0  0  0  0  0  0
  -26.3050  -12.9335   20.3373 N   0  0  0  0  0  0
  -25.9329  -11.6488   20.5740 N   0  0  0  0  0  0
  -22.0528  -12.8205   22.0390 N   0  0  0  0  0  0
  -25.4328  -15.1885   20.4139 N   0  0  0  0  0  0
  -31.8266  -14.6027   20.0977 O   0  0  0  0  0  0
  -21.6634   -6.8878   21.4239 O   0  0  0  0  0  0
  -22.3554  -14.5526   20.6686 O   0  0  0  0  0  0
  -24.6125  -31.8687   23.2122 C   0  0  0  0  0  0
  -25.9027  -32.4829   23.8408 C   0  0  1  0  0  0
  -27.2362  -27.4568   20.1002 C   0  0  0  0  0  0
  -25.5879  -33.8622   24.2336 N   0  0  0  0  0  0
  -23.3991  -30.4925   21.5518 C   0  0  2  0  0  0
  -24.8457  -28.9540   20.1235 C   0  0  0  0  0  0
  -22.7383  -29.4677   22.5008 C   0  0  0  0  0  0
  -18.0262  -28.1392   22.8494 C   0  0  0  0  0  0
  -24.1483  -36.7330   23.2645 C   0  0  0  0  0  0
  -25.9233  -30.8421   21.3594 C   0  0  0  0  0  0
  -26.0026  -29.4742   20.7170 C   0  0  0  0  0  0
  -27.2029  -28.7309   20.7050 C   0  0  0  0  0  0
  -26.0662  -26.9426   19.5048 C   0  0  0  0  0  0
  -24.8695  -27.6840   19.5189 C   0  0  0  0  0  0
  -23.6066  -29.8199   20.1685 C   0  0  0  0  0  0
  -25.4102  -36.3114   24.0334 C   0  0  1  0  0  0
  -20.5848  -28.3681   23.1332 C   0  0  2  0  0  0
  -20.6768  -26.9422   22.5426 C   0  0  0  0  0  0
  -19.5751  -26.6400   21.5222 C   0  0  0  0  0  0
  -18.1919  -26.7941   22.1623 C   0  0  0  0  0  0
  -19.1508  -28.8849   23.2915 C   0  0  0  0  0  0
  -18.9439  -30.1454   23.8937 C   0  0  0  0  0  0
  -17.6444  -30.6601   24.0576 C   0  0  0  0  0  0
  -25.9018  -34.9474   23.5132 C   0  0  0  0  0  0
  -16.5333  -29.9104   23.6330 C   0  0  0  0  0  0
  -16.7251  -28.6518   23.0351 C   0  0  0  0  0  0
  -26.4474  -31.6598   25.0723 C   0  0  0  0  0  0
  -25.3744  -31.3651   26.1463 C   0  0  0  0  0  0
  -27.0331  -30.3055   24.6077 C   0  0  0  0  0  0
  -27.6041  -32.4325   25.7495 C   0  0  0  0  0  0
  -27.5574  -37.1822   24.8465 C   0  0  0  0  0  0
  -21.4115  -29.3043   22.3733 N   0  0  0  0  0  0
  -26.4297  -37.3791   23.9398 N   0  0  0  0  0  0
  -24.6635  -31.0813   22.1007 N   0  0  0  0  0  0
  -23.4159  -28.8220   23.3046 O   0  0  0  0  0  0
  -28.4195  -26.7674   20.0175 O   0  0  0  0  0  0
  -26.5595  -34.8931   22.4704 O   0  0  0  0  0  0
  -23.5327  -32.1425   23.7535 O   0  0  0  0  0  0
  -30.3956  -18.9022   20.1000 C   0  0  0  0  0  0
  -29.6769  -20.0827   19.8419 C   0  0  0  0  0  0
  -29.1438  -18.5931   22.1651 C   0  0  0  0  0  0
  -30.1308  -18.1490   21.2609 C   0  0  0  0  0  0
  -28.6791  -20.5269   20.7340 C   0  0  0  0  0  0
  -28.4161  -19.7782   21.9105 C   0  0  0  0  0  0
  -27.3561  -20.2194   22.9055 C   0  0  0  0  0  0
  -30.9094  -16.8674   21.5181 C   0  0  0  0  0  0
  -27.9061  -21.7939   20.3822 C   0  0  0  0  0  0
  -30.0448  -15.5894   21.3604 C   0  0  0  0  0  0
  -28.5798  -23.0770   20.9007 C   0  0  0  0  0  0
  -27.9320  -24.3569   20.3382 C   0  0  0  0  0  0
  -28.5733  -25.6469   20.8876 C   0  0  0  0  0  0
  -31.4667  -12.3750   19.1137 H   0  0  0  0  0  0
  -30.3113  -11.2700   19.7991 H   0  0  0  0  0  0
  -29.7286  -11.7989   17.4115 H   0  0  0  0  0  0
  -29.6714  -13.5031   17.7866 H   0  0  0  0  0  0
  -27.8130  -11.3218   18.7942 H   0  0  0  0  0  0
  -27.3680  -12.6727   17.7838 H   0  0  0  0  0  0
  -27.7157  -14.2567   19.5938 H   0  0  0  0  0  0
  -28.6699  -11.9234   21.3218 H   0  0  0  0  0  0
  -28.4604  -13.5493   21.8780 H   0  0  0  0  0  0
  -25.2773   -9.5682   22.4744 H   0  0  0  0  0  0
  -24.0011   -7.4637   22.7473 H   0  0  0  0  0  0
  -21.0847   -8.8780   19.8936 H   0  0  0  0  0  0
  -22.3720  -10.9670   19.6150 H   0  0  0  0  0  0
  -21.2007   -7.6154   23.9717 H   0  0  0  0  0  0
  -21.1476   -6.0521   25.9081 H   0  0  0  0  0  0
  -22.0599   -2.7605   23.2847 H   0  0  0  0  0  0
  -22.4168  -11.9866   22.4767 H   0  0  0  0  0  0
  -21.1135  -13.1205   22.2598 H   0  0  0  0  0  0
  -24.6719  -15.8485   20.5326 H   0  0  0  0  0  0
  -26.2977  -15.6293   20.1265 H   0  0  0  0  0  0
  -26.7100  -32.5563   23.1182 H   0  0  0  0  0  0
  -25.0005  -33.9779   25.0464 H   0  0  0  0  0  0
  -22.6879  -31.3087   21.4114 H   0  0  0  0  0  0
  -23.3730  -35.9680   23.3324 H   0  0  0  0  0  0
  -24.3572  -36.8941   22.2058 H   0  0  0  0  0  0
  -23.7263  -37.6544   23.6664 H   0  0  0  0  0  0
  -26.0220  -31.6029   20.5841 H   0  0  0  0  0  0
  -26.8163  -30.9065   21.9689 H   0  0  0  0  0  0
  -28.1031  -29.1319   21.1498 H   0  0  0  0  0  0
  -26.0842  -25.9821   19.0117 H   0  0  0  0  0  0
  -23.9799  -27.2792   19.0555 H   0  0  0  0  0  0
  -23.7123  -30.5909   19.4038 H   0  0  0  0  0  0
  -22.7319  -29.2353   19.8776 H   0  0  0  0  0  0
  -25.1286  -36.1983   25.0827 H   0  0  0  0  0  0
  -20.9944  -28.3269   24.1453 H   0  0  0  0  0  0
  -20.5699  -26.2283   23.3607 H   0  0  0  0  0  0
  -21.6639  -26.7496   22.1212 H   0  0  0  0  0  0
  -19.6921  -25.6318   21.1240 H   0  0  0  0  0  0
  -19.6698  -27.3218   20.6761 H   0  0  0  0  0  0
  -17.4197  -26.6695   21.4013 H   0  0  0  0  0  0
  -18.0310  -26.0073   22.9010 H   0  0  0  0  0  0
  -19.7917  -30.7248   24.2330 H   0  0  0  0  0  0
  -17.5005  -31.6281   24.5186 H   0  0  0  0  0  0
  -15.5336  -30.3025   23.7639 H   0  0  0  0  0  0
  -15.8646  -28.0853   22.7057 H   0  0  0  0  0  0
  -24.5966  -30.6947   25.7794 H   0  0  0  0  0  0
  -24.8872  -32.2770   26.4917 H   0  0  0  0  0  0
  -25.8115  -30.8836   27.0219 H   0  0  0  0  0  0
  -26.2871  -29.6770   24.1198 H   0  0  0  0  0  0
  -27.4197  -29.7331   25.4526 H   0  0  0  0  0  0
  -27.8656  -30.4404   23.9163 H   0  0  0  0  0  0
  -27.2656  -33.3622   26.2082 H   0  0  0  0  0  0
  -28.3846  -32.6884   25.0316 H   0  0  0  0  0  0
  -28.0710  -31.8441   26.5404 H   0  0  0  0  0  0
  -28.2602  -38.0112   24.7503 H   0  0  0  0  0  0
  -28.1059  -36.2640   24.6308 H   0  0  0  0  0  0
  -27.2281  -37.1498   25.8867 H   0  0  0  0  0  0
  -20.9271  -29.8736   21.6934 H   0  0  0  0  0  0
  -26.0184  -38.2872   24.1391 H   0  0  0  0  0  0
  -31.1496  -18.5765   19.3968 H   0  0  0  0  0  0
  -29.8920  -20.6452   18.9433 H   0  0  0  0  0  0
  -28.9406  -18.0134   23.0559 H   0  0  0  0  0  0
  -27.3696  -19.6016   23.8036 H   0  0  0  0  0  0
  -26.3625  -20.1428   22.4640 H   0  0  0  0  0  0
  -27.5186  -21.2519   23.2142 H   0  0  0  0  0  0
  -31.3166  -16.9034   22.5297 H   0  0  0  0  0  0
  -31.7795  -16.8732   20.8612 H   0  0  0  0  0  0
  -26.8814  -21.7335   20.7486 H   0  0  0  0  0  0
  -27.8204  -21.8434   19.2951 H   0  0  0  0  0  0
  -29.1553  -15.8357   20.7800 H   0  0  0  0  0  0
  -29.6983  -15.2790   22.3449 H   0  0  0  0  0  0
  -29.6318  -23.0668   20.6114 H   0  0  0  0  0  0
  -28.5601  -23.0898   21.9909 H   0  0  0  0  0  0
  -26.8641  -24.3573   20.5605 H   0  0  0  0  0  0
  -28.0244  -24.3450   19.2521 H   0  0  0  0  0  0
  -29.6484  -25.4939   20.9901 H   0  0  0  0  0  0
  -28.2025  -25.8717   21.8893 H   0  0  0  0  0  0
  1 25  1  0  0  0
  1 30  2  0  0  0
  1 80  1  0  0  0
  2  3  1  0  0  0
  2 25  1  0  0  0
  2 84  1  0  0  0
  2 85  1  0  0  0
  3  4  1  0  0  0
  3 86  1  0  0  0
  3 87  1  0  0  0
  4  5  1  0  0  0
  4 88  1  0  0  0
  4 89  1  0  0  0
  5  6  1  0  0  0
  5 26  1  0  0  0
  5 90  1  0  0  0
  6 25  1  0  0  0
  6 91  1  0  0  0
  6 92  1  0  0  0
  7  8  2  0  0  0
  7 26  1  0  0  0
  7 29  1  0  0  0
  8  9  1  0  0  0
  8 22  1  0  0  0
  9 10  1  0  0  0
  9 27  2  0  0  0
 10 11  2  0  0  0
 10 15  1  0  0  0
 11 12  1  0  0  0
 11 93  1  0  0  0
 12 13  2  0  0  0
 12 94  1  0  0  0
 13 14  1  0  0  0
 13 31  1  0  0  0
 14 15  2  0  0  0
 14 95  1  0  0  0
 15 96  1  0  0  0
 16 17  2  0  0  0
 16 21  1  0  0  0
 16 31  1  0  0  0
 17 18  1  0  0  0
 17 97  1  0  0  0
 18 19  2  0  0  0
 18 98  1  0  0  0
 19 20  1  0  0  0
 19 24  1  0  0  0
 20 21  2  0  0  0
 20 99  1  0  0  0
 21 23  1  0  0  0
 22 28  1  0  0  0
 22 32  2  0  0  0
 26 27  1  0  0  0
 28100  1  0  0  0
 28101  1  0  0  0
 29102  1  0  0  0
 29103  1  0  0  0
 33 34  1  0  0  0
 33 66  1  0  0  0
 33 70  2  0  0  0
 34 36  1  0  0  0
 34 59  1  0  0  0
 34104  1  0  0  0
 35 44  2  0  0  0
 35 45  1  0  0  0
 35 68  1  0  0  0
 36 56  1  0  0  0
 36105  1  0  0  0
 37 39  1  0  0  0
 37 47  1  0  0  0
 37 66  1  0  0  0
 37106  1  0  0  0
 38 43  2  0  0  0
 38 46  1  0  0  0
 38 47  1  0  0  0
 39 64  1  0  0  0
 39 67  2  0  0  0
 40 52  1  0  0  0
 40 53  2  0  0  0
 40 58  1  0  0  0
 41107  1  0  0  0
 41108  1  0  0  0
 41109  1  0  0  0
 41 48  1  0  0  0
 42 43  1  0  0  0
 42 66  1  0  0  0
 42110  1  0  0  0
 42111  1  0  0  0
 43 44  1  0  0  0
 44112  1  0  0  0
 45 46  2  0  0  0
 45113  1  0  0  0
 46114  1  0  0  0
 47115  1  0  0  0
 47116  1  0  0  0
 48 56  1  0  0  0
 48 65  1  0  0  0
 48117  1  0  0  0
 49 50  1  0  0  0
 49 53  1  0  0  0
 49 64  1  0  0  0
 49118  1  0  0  0
 50 51  1  0  0  0
 50119  1  0  0  0
 50120  1  0  0  0
 51 52  1  0  0  0
 51121  1  0  0  0
 51122  1  0  0  0
 52123  1  0  0  0
 52124  1  0  0  0
 53 54  1  0  0  0
 54 55  2  0  0  0
 54125  1  0  0  0
 55 57  1  0  0  0
 55126  1  0  0  0
 56 69  2  0  0  0
 57 58  2  0  0  0
 57127  1  0  0  0
 58128  1  0  0  0
 59 60  1  0  0  0
 59 61  1  0  0  0
 59 62  1  0  0  0
 60129  1  0  0  0
 60130  1  0  0  0
 60131  1  0  0  0
 61132  1  0  0  0
 61133  1  0  0  0
 61134  1  0  0  0
 62135  1  0  0  0
 62136  1  0  0  0
 62137  1  0  0  0
 63 65  1  0  0  0
 63138  1  0  0  0
 63139  1  0  0  0
 63140  1  0  0  0
 64141  1  0  0  0
 65142  1  0  0  0
 68 83  1  0  0  0
 71 72  2  0  0  0
 71 74  1  0  0  0
 71143  1  0  0  0
 72 75  1  0  0  0
 72144  1  0  0  0
 73 74  2  0  0  0
 73 76  1  0  0  0
 73145  1  0  0  0
 74 78  1  0  0  0
 75 76  2  0  0  0
 75 79  1  0  0  0
 76 77  1  0  0  0
 77146  1  0  0  0
 77147  1  0  0  0
 77148  1  0  0  0
 78 80  1  0  0  0
 78149  1  0  0  0
 78150  1  0  0  0
 79 81  1  0  0  0
 79151  1  0  0  0
 79152  1  0  0  0
 80153  1  0  0  0
 80154  1  0  0  0
 81 82  1  0  0  0
 81155  1  0  0  0
 81156  1  0  0  0
 82 83  1  0  0  0
 82157  1  0  0  0
 82158  1  0  0  0
 83159  1  0  0  0
 83160  1  0  0  0
M  ISO  4   1 100  68 101  80 100  83 101
M  END
> <chiral flag>
0

> <version>
0

> <s_m_source_file>
/data/baiqing/PycharmProjects/Reinvent-master-3.2/result/LINK_invent/BTK/process_docking_weight1_custom_product_contain_oxygen_bond_distance_aromatic_linkinvent_7_9_3/rearranged_h_0133.sdf

> <i_m_source_file_index>
76

> <r_mmod_Potential_Energy-OPLS-2005>
-54.9335289001465

> <r_mmod_Stretch_Energy-OPLS-2005>
32.5789031982422

> <r_mmod_Bend_Energy-OPLS-2005>
86.8593215942383

> <r_mmod_Torsional_Energy-OPLS-2005>
200.565933227539

> <r_mmod_Improper_Torsional_Energy-OPLS-2005>
2.93133902549744

> <r_mmod_Van_der_Waal_Energy-OPLS-2005>
149.560745239258

> <r_mmod_Electrostatic_Energy-OPLS-2005>
-351.026397705078

> <r_mmod_Solvation_Energy-OPLS-2005>
-184.507186889648

> <b_mmod_Minimization_Converged-OPLS-2005>
0

> <r_mmod_RMS_Derivative-OPLS-2005>
1.46131455898285

$$$$
76
                    3D
 Structure written by MMmdl.
164172  0  0  1  0            999 V2000
  -28.1880  -17.1043   21.1077 C   0  0  0  0  0  0
  -29.7358  -14.5260   19.9413 C   0  0  0  0  0  0
  -29.4495  -13.3913   18.7696 C   0  0  0  0  0  0
  -28.2528  -12.4951   19.0691 C   0  0  0  0  0  0
  -27.3978  -13.4159   19.9251 C   0  0  2  0  0  0
  -28.0272  -14.1058   21.1775 C   0  0  0  0  0  0
  -25.0958  -13.8204   20.5551 C   0  0  0  0  0  0
  -24.0767  -13.0174   20.9268 C   0  0  0  0  0  0
  -24.5794  -11.6780   20.8772 C   0  0  0  0  0  0
  -23.8782  -10.4120   21.0439 C   0  0  0  0  0  0
  -24.3472   -9.4109   21.9202 C   0  0  0  0  0  0
  -23.6215   -8.2118   22.0752 C   0  0  0  0  0  0
  -22.4199   -8.0139   21.3537 C   0  0  0  0  0  0
  -21.9766   -9.0057   20.4627 C   0  0  0  0  0  0
  -22.7015  -10.1950   20.3047 C   0  0  0  0  0  0
  -21.6810   -6.0661   22.5299 C   0  0  0  0  0  0
  -21.3981   -6.5595   23.8222 C   0  0  0  0  0  0
  -21.3653   -5.6763   24.9194 C   0  0  0  0  0  0
  -21.6045   -4.3026   24.7253 C   0  0  0  0  0  0
  -21.8823   -3.8101   23.4380 C   0  0  0  0  0  0
  -21.9182   -4.6903   22.3429 C   0  0  0  0  0  0
  -22.6916  -13.4906   21.2042 C   0  0  0  0  0  0
  -22.1657   -4.2096   21.1006 F   0  0  0  0  0  0
  -21.5640   -3.4520   25.7772 F   0  0  0  0  0  0
  -28.5444  -15.4624   20.7480 N   0  0  0  0  0  0
  -26.1306  -12.9591   20.3029 N   0  0  0  0  0  0
  -25.8671  -11.6616   20.5572 N   0  0  0  0  0  0
  -21.9754  -12.7922   22.0722 N   0  0  0  0  0  0
  -25.2343  -15.2020   20.3998 N   0  0  0  0  0  0
  -29.4863  -17.1462   20.8202 O   0  0  0  0  0  0
  -21.6576   -6.8754   21.4243 O   0  0  0  0  0  0
  -22.2645  -14.5253   20.6923 O   0  0  0  0  0  0
  -24.7429  -31.8841   23.2608 C   0  0  0  0  0  0
  -25.9822  -32.5215   23.9131 C   0  0  1  0  0  0
  -26.9239  -27.4296   19.9268 C   0  0  0  0  0  0
  -25.6273  -33.8933   24.2776 N   0  0  0  0  0  0
  -23.8848  -30.2679   21.6617 C   0  0  2  0  0  0
  -25.2962  -29.5340   19.7509 C   0  0  0  0  0  0
  -24.0004  -28.8020   22.3817 C   0  0  0  0  0  0
  -18.2248  -26.9884   23.2985 C   0  0  0  0  0  0
  -24.1490  -36.7407   23.2556 C   0  0  0  0  0  0
  -26.2753  -30.8114   21.6006 C   0  0  0  0  0  0
  -26.3053  -29.6042   20.6884 C   0  0  0  0  0  0
  -27.1937  -28.5269   20.7813 C   0  0  0  0  0  0
  -26.4805  -27.7170   18.6687 C   0  0  0  0  0  0
  -25.4951  -28.7214   18.6191 C   0  0  0  0  0  0
  -24.1231  -30.3945   20.0906 C   0  0  0  0  0  0
  -25.4079  -36.3280   24.0332 C   0  0  1  0  0  0
  -21.9239  -26.7194   21.6287 C   0  0  2  0  0  0
  -21.0834  -25.5046   20.4662 C   0  0  0  0  0  0
  -19.2150  -24.9825   20.7761 C   0  0  0  0  0  0
  -18.0061  -25.6623   22.1419 C   0  0  0  0  0  0
  -19.7130  -27.4097   23.7232 C   0  0  0  0  0  0
  -19.4153  -28.8216   24.3440 C   0  0  0  0  0  0
  -18.2367  -29.6947   24.3223 C   0  0  0  0  0  0
  -25.9062  -34.9641   23.5251 C   0  0  0  0  0  0
  -17.0206  -29.2294   23.8207 C   0  0  0  0  0  0
  -17.0564  -27.8934   23.3437 C   0  0  0  0  0  0
  -26.4860  -31.6929   25.1532 C   0  0  0  0  0  0
  -25.3787  -31.4002   26.1899 C   0  0  0  0  0  0
  -27.1141  -30.3343   24.7568 C   0  0  0  0  0  0
  -27.6172  -32.4764   25.8483 C   0  0  0  0  0  0
  -27.5594  -37.1865   24.8434 C   0  0  0  0  0  0
  -23.5032  -27.5060   21.9658 N   0  0  0  0  0  0
  -26.4288  -37.3927   23.9420 N   0  0  0  0  0  0
  -24.9535  -31.0587   22.2148 N   0  0  0  0  0  0
  -24.2055  -28.8384   23.5805 O   0  0  0  0  0  0
  -25.8803  -26.6372   20.3211 O   0  0  0  0  0  0
  -26.5450  -34.8973   22.4711 O   0  0  0  0  0  0
  -23.6211  -32.1318   23.7341 O   0  0  0  0  0  0
  -20.4958  -25.4513   22.7569 C   0  0  0  0  0  0
  -22.0873  -26.8695   23.8475 C   0  0  0  0  0  0
  -19.7814  -27.1878   21.4920 C   0  0  0  0  0  0
  -21.5011  -28.5732   22.7656 C   0  0  0  0  0  0
  -20.2978  -28.6267   21.8067 C   0  0  0  0  0  0
  -22.1494  -25.0087   23.3073 C   0  0  0  0  0  0
  -18.8729  -27.4524   20.1921 C   0  0  0  0  0  0
  -18.0799  -30.1805   21.1257 C   0  0  0  0  0  0
  -21.8572  -28.9180   20.7985 C   0  0  0  0  0  0
  -19.5760  -30.0368   21.5037 C   0  0  0  0  0  0
  -26.5146  -19.0340   21.8785 C   0  0  0  0  0  0
  -22.9488  -27.9321   19.5949 C   0  0  0  0  0  0
  -24.8718  -21.3837   22.1729 C   0  0  0  0  0  0
  -24.3295  -26.6889   19.7091 C   0  0  0  0  0  0
  -23.5157  -23.3434   23.0571 O   0  0  0  0  0  0
  -30.3840  -15.2544   19.4535 H   0  0  0  0  0  0
  -30.4200  -14.0953   20.6765 H   0  0  0  0  0  0
  -30.3414  -12.7936   18.5758 H   0  0  0  0  0  0
  -29.2448  -13.9228   17.8387 H   0  0  0  0  0  0
  -28.5539  -11.6155   19.6394 H   0  0  0  0  0  0
  -27.7454  -12.1600   18.1632 H   0  0  0  0  0  0
  -27.1677  -14.2045   19.2027 H   0  0  0  0  0  0
  -28.7117  -13.4545   21.7285 H   0  0  0  0  0  0
  -27.2782  -14.3343   21.9359 H   0  0  0  0  0  0
  -25.2597   -9.5666   22.4784 H   0  0  0  0  0  0
  -23.9942   -7.4520   22.7470 H   0  0  0  0  0  0
  -21.0698   -8.8517   19.8947 H   0  0  0  0  0  0
  -22.3426  -10.9481   19.6172 H   0  0  0  0  0  0
  -21.1952   -7.6101   23.9705 H   0  0  0  0  0  0
  -21.1483   -6.0502   25.9094 H   0  0  0  0  0  0
  -22.0615   -2.7563   23.2895 H   0  0  0  0  0  0
  -22.3449  -11.9589   22.5053 H   0  0  0  0  0  0
  -21.0417  -13.0951   22.3100 H   0  0  0  0  0  0
  -24.4352  -15.8222   20.4712 H   0  0  0  0  0  0
  -26.0341  -15.6286   19.9518 H   0  0  0  0  0  0
  -26.8155  -32.5939   23.2184 H   0  0  0  0  0  0
  -25.0629  -34.0162   25.1051 H   0  0  0  0  0  0
  -22.9740  -30.7779   21.9710 H   0  0  0  0  0  0
  -23.3778  -35.9710   23.3199 H   0  0  0  0  0  0
  -24.3643  -36.8979   22.1974 H   0  0  0  0  0  0
  -23.7190  -37.6611   23.6520 H   0  0  0  0  0  0
  -26.5479  -31.6904   21.0127 H   0  0  0  0  0  0
  -27.0819  -30.6673   22.3029 H   0  0  0  0  0  0
  -27.8715  -28.4377   21.6182 H   0  0  0  0  0  0
  -26.4893  -26.9767   17.8813 H   0  0  0  0  0  0
  -24.8728  -28.7947   17.7374 H   0  0  0  0  0  0
  -24.4515  -31.4152   19.8825 H   0  0  0  0  0  0
  -23.3184  -30.3948   19.3672 H   0  0  0  0  0  0
  -25.1186  -36.2236   25.0811 H   0  0  0  0  0  0
  -22.7136  -25.9899   21.5161 H   0  0  0  0  0  0
  -21.6533  -24.5729   20.4990 H   0  0  0  0  0  0
  -21.1508  -25.7474   19.4138 H   0  0  0  0  0  0
  -19.2531  -23.9037   20.9421 H   0  0  0  0  0  0
  -18.6833  -24.9316   19.8261 H   0  0  0  0  0  0
  -17.0444  -25.8115   21.6517 H   0  0  0  0  0  0
  -17.7823  -24.8071   22.7784 H   0  0  0  0  0  0
  -20.2771  -29.3442   24.7355 H   0  0  0  0  0  0
  -18.2990  -30.6905   24.7351 H   0  0  0  0  0  0
  -16.1267  -29.8376   23.8074 H   0  0  0  0  0  0
  -16.1319  -27.5255   22.9182 H   0  0  0  0  0  0
  -24.6203  -30.7197   25.8023 H   0  0  0  0  0  0
  -24.8760  -32.3142   26.5071 H   0  0  0  0  0  0
  -25.7883  -30.9323   27.0859 H   0  0  0  0  0  0
  -26.4438  -29.6907   24.1965 H   0  0  0  0  0  0
  -27.3908  -29.7709   25.6491 H   0  0  0  0  0  0
  -28.0389  -30.4630   24.1933 H   0  0  0  0  0  0
  -27.2609  -33.4067   26.2932 H   0  0  0  0  0  0
  -28.4189  -32.7303   25.1533 H   0  0  0  0  0  0
  -28.0644  -31.8960   26.6567 H   0  0  0  0  0  0
  -28.2536  -38.0237   24.7618 H   0  0  0  0  0  0
  -28.1181  -36.2782   24.6116 H   0  0  0  0  0  0
  -27.2319  -37.1319   25.8828 H   0  0  0  0  0  0
  -24.0665  -26.8231   22.4534 H   0  0  0  0  0  0
  -26.0207  -38.2996   24.1520 H   0  0  0  0  0  0
  -20.0385  -24.4709   22.7713 H   0  0  0  0  0  0
  -22.8293  -27.1097   24.5984 H   0  0  0  0  0  0
  -19.1533  -26.8731   19.3173 H   0  0  0  0  0  0
  -19.0389  -28.4163   19.7278 H   0  0  0  0  0  0
  -17.7980  -27.3750   20.3346 H   0  0  0  0  0  0
  -17.9545  -30.3546   20.0580 H   0  0  0  0  0  0
  -17.6380  -31.0481   21.6155 H   0  0  0  0  0  0
  -17.4638  -29.3238   21.3529 H   0  0  0  0  0  0
  -21.8414  -29.9764   20.5995 H   0  0  0  0  0  0
  -21.1387  -28.8171   19.9527 H   0  0  0  0  0  0
  -20.0082  -30.5907   20.6750 H   0  0  0  0  0  0
  -19.7842  -30.6835   22.3568 H   0  0  0  0  0  0
  -25.7820  -18.3337   22.2804 H   0  0  0  0  0  0
  -27.1571  -19.2874   22.7214 H   0  0  0  0  0  0
  -23.0599  -28.5230   18.6953 H   0  0  0  0  0  0
  -22.2301  -27.3273   19.0737 H   0  0  0  0  0  0
  -24.0747  -21.0450   21.5114 H   0  0  0  0  0  0
  -25.4977  -22.0184   21.5462 H   0  0  0  0  0  0
  -24.4332  -26.3811   18.6668 H   0  0  0  0  0  0
  -23.9391  -25.7266   20.0234 H   0  0  0  0  0  0
  1 25  1  0  0  0
  1 30  2  0  0  0
  1 81  1  0  0  0
  2  3  1  0  0  0
  2 25  1  0  0  0
  2 86  1  0  0  0
  2 87  1  0  0  0
  3  4  1  0  0  0
  3 88  1  0  0  0
  3 89  1  0  0  0
  4  5  1  0  0  0
  4 90  1  0  0  0
  4 91  1  0  0  0
  5  6  1  0  0  0
  5 26  1  0  0  0
  5 92  1  0  0  0
  6 25  1  0  0  0
  6 93  1  0  0  0
  6 94  1  0  0  0
  7  8  2  0  0  0
  7 26  1  0  0  0
  7 29  1  0  0  0
  8  9  1  0  0  0
  8 22  1  0  0  0
  9 10  1  0  0  0
  9 27  2  0  0  0
 10 11  2  0  0  0
 10 15  1  0  0  0
 11 12  1  0  0  0
 11 95  1  0  0  0
 12 13  2  0  0  0
 12 96  1  0  0  0
 13 14  1  0  0  0
 13 31  1  0  0  0
 14 15  2  0  0  0
 14 97  1  0  0  0
 15 98  1  0  0  0
 16 17  2  0  0  0
 16 21  1  0  0  0
 16 31  1  0  0  0
 17 18  1  0  0  0
 17 99  1  0  0  0
 18 19  2  0  0  0
 18100  1  0  0  0
 19 20  1  0  0  0
 19 24  1  0  0  0
 20 21  2  0  0  0
 20101  1  0  0  0
 21 23  1  0  0  0
 22 28  1  0  0  0
 22 32  2  0  0  0
 26 27  1  0  0  0
 28102  1  0  0  0
 28103  1  0  0  0
 29104  1  0  0  0
 29105  1  0  0  0
 33 34  1  0  0  0
 33 66  1  0  0  0
 33 70  2  0  0  0
 34 36  1  0  0  0
 34 59  1  0  0  0
 34106  1  0  0  0
 35 44  2  0  0  0
 35 45  1  0  0  0
 35 68  1  0  0  0
 36 56  1  0  0  0
 36107  1  0  0  0
 37 39  1  0  0  0
 37 47  1  0  0  0
 37 66  1  0  0  0
 37108  1  0  0  0
 38 43  2  0  0  0
 38 46  1  0  0  0
 38 47  1  0  0  0
 39 64  1  0  0  0
 39 67  2  0  0  0
 40 52  1  0  0  0
 40 53  2  0  0  0
 40 58  1  0  0  0
 41109  1  0  0  0
 41110  1  0  0  0
 41111  1  0  0  0
 41 48  1  0  0  0
 42 43  1  0  0  0
 42 66  1  0  0  0
 42112  1  0  0  0
 42113  1  0  0  0
 43 44  1  0  0  0
 44114  1  0  0  0
 45 46  2  0  0  0
 45115  1  0  0  0
 46116  1  0  0  0
 47117  1  0  0  0
 47118  1  0  0  0
 48 56  1  0  0  0
 48 65  1  0  0  0
 48119  1  0  0  0
 49 50  1  0  0  0
 49 53  1  0  0  0
 49 64  1  0  0  0
 49120  1  0  0  0
 50 51  1  0  0  0
 50121  1  0  0  0
 50122  1  0  0  0
 51 52  1  0  0  0
 51123  1  0  0  0
 51124  1  0  0  0
 52125  1  0  0  0
 52126  1  0  0  0
 53 54  1  0  0  0
 54 55  2  0  0  0
 54127  1  0  0  0
 55 57  1  0  0  0
 55128  1  0  0  0
 56 69  2  0  0  0
 57 58  2  0  0  0
 57129  1  0  0  0
 58130  1  0  0  0
 59 60  1  0  0  0
 59 61  1  0  0  0
 59 62  1  0  0  0
 60131  1  0  0  0
 60132  1  0  0  0
 60133  1  0  0  0
 61134  1  0  0  0
 61135  1  0  0  0
 61136  1  0  0  0
 62137  1  0  0  0
 62138  1  0  0  0
 62139  1  0  0  0
 63 65  1  0  0  0
 63140  1  0  0  0
 63141  1  0  0  0
 63142  1  0  0  0
 64143  1  0  0  0
 65144  1  0  0  0
 68 84  1  0  0  0
 71 73  2  0  0  0
 71 76  1  0  0  0
 71145  1  0  0  0
 72 74  1  0  0  0
 72 76  2  0  0  0
 72146  1  0  0  0
 73 75  1  0  0  0
 73 77  1  0  0  0
 74 75  2  0  0  0
 74 79  1  0  0  0
 75 80  1  0  0  0
 76 85  1  0  0  0
 77147  1  0  0  0
 77148  1  0  0  0
 77149  1  0  0  0
 78 80  1  0  0  0
 78150  1  0  0  0
 78151  1  0  0  0
 78152  1  0  0  0
 79 82  1  0  0  0
 79153  1  0  0  0
 79154  1  0  0  0
 80155  1  0  0  0
 80156  1  0  0  0
 81 83  1  0  0  0
 81157  1  0  0  0
 81158  1  0  0  0
 82 84  1  0  0  0
 82159  1  0  0  0
 82160  1  0  0  0
 83 85  1  0  0  0
 83161  1  0  0  0
 83162  1  0  0  0
 84163  1  0  0  0
 84164  1  0  0  0
M  ISO  4   1 100  68 101  81 100  84 101
M  END
> <chiral flag>
0

> <version>
0

> <s_m_source_file>
/data/baiqing/PycharmProjects/Reinvent-master-3.2/result/LINK_invent/BTK/process_docking_weight1_custom_product_contain_oxygen_bond_distance_aromatic_linkinvent_7_9_3/rearranged_h_0133.sdf

> <i_m_source_file_index>
77

> <r_mmod_Potential_Energy-OPLS-2005>
32791.1328125

> <r_mmod_Stretch_Energy-OPLS-2005>
15821.7275390625

> <r_mmod_Bend_Energy-OPLS-2005>
2872.19897460938

> <r_mmod_Torsional_Energy-OPLS-2005>
879.378601074219

> <r_mmod_Improper_Torsional_Energy-OPLS-2005>
104.945487976074

> <r_mmod_Van_der_Waal_Energy-OPLS-2005>
4301.287109375

> <r_mmod_Electrostatic_Energy-OPLS-2005>
-329.320343017578

> <r_mmod_Solvation_Energy-OPLS-2005>
-201.720672607422

> <b_mmod_Minimization_Converged-OPLS-2005>
0

> <r_mmod_RMS_Derivative-OPLS-2005>
5.21173286437988

$$$$
77
                    3D
 Structure written by MMmdl.
165173  0  0  1  0            999 V2000
  -30.7516  -14.4224   20.6321 C   0  0  0  0  0  0
  -30.4121  -12.3189   19.3794 C   0  0  0  0  0  0
  -29.4644  -12.5255   18.1839 C   0  0  0  0  0  0
  -27.9911  -12.4065   18.6136 C   0  0  0  0  0  0
  -27.6639  -13.2130   19.8975 C   0  0  2  0  0  0
  -28.7218  -12.9342   20.9874 C   0  0  0  0  0  0
  -25.2538  -13.8182   20.5629 C   0  0  0  0  0  0
  -24.1806  -13.0450   20.9222 C   0  0  0  0  0  0
  -24.6401  -11.6941   20.8811 C   0  0  0  0  0  0
  -23.9068  -10.4309   21.0463 C   0  0  0  0  0  0
  -24.3607   -9.4207   21.9229 C   0  0  0  0  0  0
  -23.6285   -8.2229   22.0761 C   0  0  0  0  0  0
  -22.4268   -8.0282   21.3539 C   0  0  0  0  0  0
  -21.9909   -9.0271   20.4647 C   0  0  0  0  0  0
  -22.7247  -10.2159   20.3098 C   0  0  0  0  0  0
  -21.6840   -6.0740   22.5272 C   0  0  0  0  0  0
  -21.4013   -6.5644   23.8209 C   0  0  0  0  0  0
  -21.3651   -5.6789   24.9169 C   0  0  0  0  0  0
  -21.6043   -4.3051   24.7215 C   0  0  0  0  0  0
  -21.8823   -3.8151   23.4334 C   0  0  0  0  0  0
  -21.9193   -4.6972   22.3398 C   0  0  0  0  0  0
  -22.7827  -13.5248   21.1842 C   0  0  0  0  0  0
  -22.1664   -4.2158   21.0981 F   0  0  0  0  0  0
  -21.5627   -3.4538   25.7732 F   0  0  0  0  0  0
  -30.0305  -13.2835   20.4289 N   0  0  0  0  0  0
  -26.3040  -12.9369   20.3568 N   0  0  0  0  0  0
  -25.9348  -11.6527   20.5923 N   0  0  0  0  0  0
  -22.0439  -12.8260   22.0417 N   0  0  0  0  0  0
  -25.4180  -15.1845   20.3792 N   0  0  0  0  0  0
  -31.8292  -14.6169   20.0681 O   0  0  0  0  0  0
  -21.6636   -6.8874   21.4227 O   0  0  0  0  0  0
  -22.3517  -14.5553   20.6698 O   0  0  0  0  0  0
  -24.6165  -31.8656   23.2146 C   0  0  0  0  0  0
  -25.9049  -32.4808   23.8445 C   0  0  1  0  0  0
  -27.2414  -27.4222   20.0887 C   0  0  0  0  0  0
  -25.5905  -33.8610   24.2377 N   0  0  0  0  0  0
  -23.4087  -30.4849   21.5556 C   0  0  2  0  0  0
  -24.8556  -28.9497   20.1154 C   0  0  0  0  0  0
  -22.7448  -29.4652   22.5073 C   0  0  0  0  0  0
  -18.0368  -28.1190   22.8453 C   0  0  0  0  0  0
  -24.1470  -36.7323   23.2639 C   0  0  0  0  0  0
  -25.9357  -30.8253   21.3661 C   0  0  0  0  0  0
  -26.0147  -29.4557   20.7159 C   0  0  0  0  0  0
  -27.2123  -28.6990   20.6975 C   0  0  0  0  0  0
  -26.0678  -26.9341   19.4767 C   0  0  0  0  0  0
  -24.8796  -27.6912   19.4853 C   0  0  0  0  0  0
  -23.6159  -29.8159   20.1685 C   0  0  0  0  0  0
  -25.4085  -36.3115   24.0353 C   0  0  1  0  0  0
  -20.5921  -28.3662   23.1409 C   0  0  2  0  0  0
  -20.6990  -26.9510   22.5249 C   0  0  0  0  0  0
  -19.5981  -26.6622   21.5015 C   0  0  0  0  0  0
  -18.2158  -26.7800   22.1497 C   0  0  0  0  0  0
  -19.1515  -28.8725   23.2943 C   0  0  0  0  0  0
  -18.9274  -30.1320   23.8924 C   0  0  0  0  0  0
  -17.6198  -30.6363   24.0395 C   0  0  0  0  0  0
  -25.9010  -34.9468   23.5154 C   0  0  0  0  0  0
  -16.5188  -29.8707   23.6152 C   0  0  0  0  0  0
  -16.7295  -28.6136   23.0251 C   0  0  0  0  0  0
  -26.4515  -31.6567   25.0749 C   0  0  0  0  0  0
  -25.3850  -31.3611   26.1546 C   0  0  0  0  0  0
  -27.0343  -30.3031   24.6059 C   0  0  0  0  0  0
  -27.6090  -32.4284   25.7519 C   0  0  0  0  0  0
  -27.5576  -37.1836   24.8484 C   0  0  0  0  0  0
  -21.4158  -29.3146   22.3933 N   0  0  0  0  0  0
  -26.4284  -37.3802   23.9426 N   0  0  0  0  0  0
  -24.6738  -31.0718   22.1059 N   0  0  0  0  0  0
  -23.4246  -28.8125   23.3035 O   0  0  0  0  0  0
  -28.4096  -26.6869   20.0672 O   0  0  0  0  0  0
  -26.5552  -34.8943   22.4700 O   0  0  0  0  0  0
  -23.5353  -32.1419   23.7524 O   0  0  0  0  0  0
  -26.9417  -17.9258   21.7849 C   0  0  0  0  0  0
  -28.1815  -15.9545   22.4579 C   0  0  0  0  0  0
  -27.9065  -18.2291   20.7992 C   0  0  0  0  0  0
  -29.0089  -17.3384   20.6063 C   0  0  0  0  0  0
  -29.1344  -16.1779   21.4404 C   0  0  0  0  0  0
  -27.0812  -16.8070   22.6170 C   0  0  0  0  0  0
  -31.0743  -18.7248   20.0352 C   0  0  0  0  0  0
  -27.7122  -19.5374   20.0096 C   0  0  0  0  0  0
  -30.0663  -17.6720   19.5498 C   0  0  0  0  0  0
  -27.4818  -20.7693   20.9176 C   0  0  0  0  0  0
  -27.4075  -22.1335   20.1902 C   0  0  0  0  0  0
  -28.7702  -22.8075   19.9181 C   0  0  0  0  0  0
  -28.6867  -24.2783   19.4180 C   0  0  0  0  0  0
  -28.3307  -25.3166   20.5112 C   0  0  0  0  0  0
  -30.3161  -15.3726   21.4829 N   0  0  0  0  0  0
  -26.1688  -16.5711   23.5902 F   0  0  0  0  0  0
  -31.4471  -12.4333   19.0496 H   0  0  0  0  0  0
  -30.3362  -11.2970   19.7564 H   0  0  0  0  0  0
  -29.6801  -11.7943   17.4042 H   0  0  0  0  0  0
  -29.6407  -13.5070   17.7411 H   0  0  0  0  0  0
  -27.7785  -11.3501   18.7835 H   0  0  0  0  0  0
  -27.3368  -12.7284   17.8035 H   0  0  0  0  0  0
  -27.7226  -14.2724   19.6473 H   0  0  0  0  0  0
  -28.7095  -11.8757   21.2441 H   0  0  0  0  0  0
  -28.5098  -13.4374   21.9226 H   0  0  0  0  0  0
  -25.2745   -9.5671   22.4830 H   0  0  0  0  0  0
  -23.9986   -7.4609   22.7480 H   0  0  0  0  0  0
  -21.0837   -8.8812   19.8940 H   0  0  0  0  0  0
  -22.3716  -10.9713   19.6222 H   0  0  0  0  0  0
  -21.1998   -7.6153   23.9711 H   0  0  0  0  0  0
  -21.1468   -6.0525   25.9070 H   0  0  0  0  0  0
  -22.0607   -2.7615   23.2841 H   0  0  0  0  0  0
  -22.3990  -11.9960   22.4891 H   0  0  0  0  0  0
  -21.1059  -13.1322   22.2555 H   0  0  0  0  0  0
  -24.6696  -15.8509   20.5321 H   0  0  0  0  0  0
  -26.2936  -15.6211   20.1189 H   0  0  0  0  0  0
  -26.7111  -32.5538   23.1206 H   0  0  0  0  0  0
  -25.0165  -33.9762   25.0603 H   0  0  0  0  0  0
  -22.6970  -31.3016   21.4174 H   0  0  0  0  0  0
  -23.3716  -35.9673   23.3315 H   0  0  0  0  0  0
  -24.3597  -36.8925   22.2064 H   0  0  0  0  0  0
  -23.7239  -37.6546   23.6632 H   0  0  0  0  0  0
  -26.0282  -31.5863   20.5901 H   0  0  0  0  0  0
  -26.8324  -30.8929   21.9727 H   0  0  0  0  0  0
  -28.1101  -29.0851   21.1595 H   0  0  0  0  0  0
  -26.0795  -25.9798   18.9683 H   0  0  0  0  0  0
  -23.9950  -27.3077   18.9924 H   0  0  0  0  0  0
  -23.7213  -30.5907   19.4094 H   0  0  0  0  0  0
  -22.7427  -29.2317   19.8745 H   0  0  0  0  0  0
  -25.1245  -36.1999   25.0846 H   0  0  0  0  0  0
  -20.9949  -28.3132   24.1555 H   0  0  0  0  0  0
  -20.6148  -26.2082   23.3182 H   0  0  0  0  0  0
  -21.6836  -26.7883   22.0848 H   0  0  0  0  0  0
  -19.6875  -27.3779   20.6810 H   0  0  0  0  0  0
  -19.7280  -25.6714   21.0652 H   0  0  0  0  0  0
  -17.4444  -26.6460   21.3900 H   0  0  0  0  0  0
  -18.0784  -25.9861   22.8853 H   0  0  0  0  0  0
  -19.7693  -30.7176   24.2329 H   0  0  0  0  0  0
  -17.4582  -31.6069   24.4865 H   0  0  0  0  0  0
  -15.5105  -30.2447   23.7331 H   0  0  0  0  0  0
  -15.8801  -28.0276   22.6990 H   0  0  0  0  0  0
  -24.6045  -30.6898   25.7950 H   0  0  0  0  0  0
  -24.9030  -32.2727   26.5089 H   0  0  0  0  0  0
  -25.8323  -30.8799   27.0255 H   0  0  0  0  0  0
  -26.2846  -29.6793   24.1194 H   0  0  0  0  0  0
  -27.4228  -29.7253   25.4456 H   0  0  0  0  0  0
  -27.8627  -30.4375   23.9103 H   0  0  0  0  0  0
  -27.2695  -33.3558   26.2144 H   0  0  0  0  0  0
  -28.3905  -32.6885   25.0360 H   0  0  0  0  0  0
  -28.0751  -31.8383   26.5428 H   0  0  0  0  0  0
  -28.2598  -38.0124   24.7491 H   0  0  0  0  0  0
  -28.1049  -36.2657   24.6315 H   0  0  0  0  0  0
  -27.2303  -37.1515   25.8890 H   0  0  0  0  0  0
  -20.9276  -29.9013   21.7306 H   0  0  0  0  0  0
  -26.0160  -38.2863   24.1472 H   0  0  0  0  0  0
  -26.0916  -18.5722   21.9442 H   0  0  0  0  0  0
  -28.3006  -15.1423   23.1603 H   0  0  0  0  0  0
  -30.5841  -19.6651   20.2855 H   0  0  0  0  0  0
  -31.8124  -18.9386   19.2611 H   0  0  0  0  0  0
  -31.6076  -18.3868   20.9216 H   0  0  0  0  0  0
  -28.5282  -19.7516   19.3245 H   0  0  0  0  0  0
  -26.8415  -19.4013   19.3706 H   0  0  0  0  0  0
  -29.5761  -18.0254   18.6407 H   0  0  0  0  0  0
  -30.6002  -16.7795   19.2275 H   0  0  0  0  0  0
  -28.2449  -20.8012   21.6971 H   0  0  0  0  0  0
  -26.5307  -20.6329   21.4337 H   0  0  0  0  0  0
  -26.8190  -22.8066   20.8137 H   0  0  0  0  0  0
  -26.8551  -22.0287   19.2541 H   0  0  0  0  0  0
  -29.3117  -22.2176   19.1768 H   0  0  0  0  0  0
  -29.3827  -22.7682   20.8187 H   0  0  0  0  0  0
  -27.9893  -24.3587   18.5853 H   0  0  0  0  0  0
  -29.6597  -24.5393   19.0033 H   0  0  0  0  0  0
  -29.0527  -25.2117   21.3228 H   0  0  0  0  0  0
  -27.3590  -25.0852   20.9497 H   0  0  0  0  0  0
  -31.1180  -15.9475   21.6976 H   0  0  0  0  0  0
  1 25  1  0  0  0
  1 30  2  0  0  0
  1 85  1  0  0  0
  2  3  1  0  0  0
  2 25  1  0  0  0
  2 87  1  0  0  0
  2 88  1  0  0  0
  3  4  1  0  0  0
  3 89  1  0  0  0
  3 90  1  0  0  0
  4  5  1  0  0  0
  4 91  1  0  0  0
  4 92  1  0  0  0
  5  6  1  0  0  0
  5 26  1  0  0  0
  5 93  1  0  0  0
  6 25  1  0  0  0
  6 94  1  0  0  0
  6 95  1  0  0  0
  7  8  2  0  0  0
  7 26  1  0  0  0
  7 29  1  0  0  0
  8  9  1  0  0  0
  8 22  1  0  0  0
  9 10  1  0  0  0
  9 27  2  0  0  0
 10 11  2  0  0  0
 10 15  1  0  0  0
 11 12  1  0  0  0
 11 96  1  0  0  0
 12 13  2  0  0  0
 12 97  1  0  0  0
 13 14  1  0  0  0
 13 31  1  0  0  0
 14 15  2  0  0  0
 14 98  1  0  0  0
 15 99  1  0  0  0
 16 17  2  0  0  0
 16 21  1  0  0  0
 16 31  1  0  0  0
 17 18  1  0  0  0
 17100  1  0  0  0
 18 19  2  0  0  0
 18101  1  0  0  0
 19 20  1  0  0  0
 19 24  1  0  0  0
 20 21  2  0  0  0
 20102  1  0  0  0
 21 23  1  0  0  0
 22 28  1  0  0  0
 22 32  2  0  0  0
 26 27  1  0  0  0
 28103  1  0  0  0
 28104  1  0  0  0
 29105  1  0  0  0
 29106  1  0  0  0
 33 34  1  0  0  0
 33 66  1  0  0  0
 33 70  2  0  0  0
 34 36  1  0  0  0
 34 59  1  0  0  0
 34107  1  0  0  0
 35 44  2  0  0  0
 35 45  1  0  0  0
 35 68  1  0  0  0
 36 56  1  0  0  0
 36108  1  0  0  0
 37 39  1  0  0  0
 37 47  1  0  0  0
 37 66  1  0  0  0
 37109  1  0  0  0
 38 43  2  0  0  0
 38 46  1  0  0  0
 38 47  1  0  0  0
 39 64  1  0  0  0
 39 67  2  0  0  0
 40 52  1  0  0  0
 40 53  2  0  0  0
 40 58  1  0  0  0
 41110  1  0  0  0
 41111  1  0  0  0
 41112  1  0  0  0
 41 48  1  0  0  0
 42 43  1  0  0  0
 42 66  1  0  0  0
 42113  1  0  0  0
 42114  1  0  0  0
 43 44  1  0  0  0
 44115  1  0  0  0
 45 46  2  0  0  0
 45116  1  0  0  0
 46117  1  0  0  0
 47118  1  0  0  0
 47119  1  0  0  0
 48 56  1  0  0  0
 48 65  1  0  0  0
 48120  1  0  0  0
 49 50  1  0  0  0
 49 53  1  0  0  0
 49 64  1  0  0  0
 49121  1  0  0  0
 50 51  1  0  0  0
 50122  1  0  0  0
 50123  1  0  0  0
 51 52  1  0  0  0
 51124  1  0  0  0
 51125  1  0  0  0
 52126  1  0  0  0
 52127  1  0  0  0
 53 54  1  0  0  0
 54 55  2  0  0  0
 54128  1  0  0  0
 55 57  1  0  0  0
 55129  1  0  0  0
 56 69  2  0  0  0
 57 58  2  0  0  0
 57130  1  0  0  0
 58131  1  0  0  0
 59 60  1  0  0  0
 59 61  1  0  0  0
 59 62  1  0  0  0
 60132  1  0  0  0
 60133  1  0  0  0
 60134  1  0  0  0
 61135  1  0  0  0
 61136  1  0  0  0
 61137  1  0  0  0
 62138  1  0  0  0
 62139  1  0  0  0
 62140  1  0  0  0
 63 65  1  0  0  0
 63141  1  0  0  0
 63142  1  0  0  0
 63143  1  0  0  0
 64144  1  0  0  0
 65145  1  0  0  0
 68 84  1  0  0  0
 71 73  2  0  0  0
 71 76  1  0  0  0
 71146  1  0  0  0
 72 75  1  0  0  0
 72 76  2  0  0  0
 72147  1  0  0  0
 73 74  1  0  0  0
 73 78  1  0  0  0
 74 75  2  0  0  0
 74 79  1  0  0  0
 75 85  1  0  0  0
 76 86  1  0  0  0
 77 79  1  0  0  0
 77148  1  0  0  0
 77149  1  0  0  0
 77150  1  0  0  0
 78 80  1  0  0  0
 78151  1  0  0  0
 78152  1  0  0  0
 79153  1  0  0  0
 79154  1  0  0  0
 80 81  1  0  0  0
 80155  1  0  0  0
 80156  1  0  0  0
 81 82  1  0  0  0
 81157  1  0  0  0
 81158  1  0  0  0
 82 83  1  0  0  0
 82159  1  0  0  0
 82160  1  0  0  0
 83 84  1  0  0  0
 83161  1  0  0  0
 83162  1  0  0  0
 84163  1  0  0  0
 84164  1  0  0  0
 85165  1  0  0  0
M  ISO  4   1 100  68 101  84 101  85 100
M  END
> <chiral flag>
0

> <version>
0

> <s_m_source_file>
/data/baiqing/PycharmProjects/Reinvent-master-3.2/result/LINK_invent/BTK/process_docking_weight1_custom_product_contain_oxygen_bond_distance_aromatic_linkinvent_7_9_3/rearranged_h_0133.sdf

> <i_m_source_file_index>
78

> <r_mmod_Potential_Energy-OPLS-2005>
49.1574859619141

> <r_mmod_Stretch_Energy-OPLS-2005>
42.1373138427734

> <r_mmod_Bend_Energy-OPLS-2005>
127.64754486084

> <r_mmod_Torsional_Energy-OPLS-2005>
271.566589355469

> <r_mmod_Improper_Torsional_Energy-OPLS-2005>
7.48504590988159

> <r_mmod_Van_der_Waal_Energy-OPLS-2005>
140.355575561523

> <r_mmod_Electrostatic_Energy-OPLS-2005>
-376.115539550781

> <r_mmod_Solvation_Energy-OPLS-2005>
-175.572708129883

> <b_mmod_Minimization_Converged-OPLS-2005>
0

> <r_mmod_RMS_Derivative-OPLS-2005>
5.64376783370972

$$$$
78
                    3D
 Structure written by MMmdl.
176185  0  0  1  0            999 V2000
  -30.7091  -14.3810   20.7078 C   0  0  0  0  0  0
  -30.4239  -12.2950   19.4097 C   0  0  0  0  0  0
  -29.4930  -12.5393   18.2039 C   0  0  0  0  0  0
  -28.0137  -12.3827   18.6080 C   0  0  0  0  0  0
  -27.6642  -13.1965   19.8817 C   0  0  2  0  0  0
  -28.6889  -12.9065   20.9972 C   0  0  0  0  0  0
  -25.2568  -13.8164   20.5634 C   0  0  0  0  0  0
  -24.1805  -13.0432   20.9150 C   0  0  0  0  0  0
  -24.6362  -11.6909   20.8717 C   0  0  0  0  0  0
  -23.9044  -10.4286   21.0404 C   0  0  0  0  0  0
  -24.3610   -9.4202   21.9175 C   0  0  0  0  0  0
  -23.6285   -8.2236   22.0748 C   0  0  0  0  0  0
  -22.4258   -8.0280   21.3543 C   0  0  0  0  0  0
  -21.9903   -9.0252   20.4638 C   0  0  0  0  0  0
  -22.7230  -10.2126   20.3047 C   0  0  0  0  0  0
  -21.6849   -6.0745   22.5285 C   0  0  0  0  0  0
  -21.4008   -6.5643   23.8222 C   0  0  0  0  0  0
  -21.3659   -5.6790   24.9180 C   0  0  0  0  0  0
  -21.6043   -4.3055   24.7224 C   0  0  0  0  0  0
  -21.8820   -3.8147   23.4349 C   0  0  0  0  0  0
  -21.9183   -4.6971   22.3401 C   0  0  0  0  0  0
  -22.7836  -13.5235   21.1839 C   0  0  0  0  0  0
  -22.1645   -4.2162   21.0981 F   0  0  0  0  0  0
  -21.5635   -3.4535   25.7738 F   0  0  0  0  0  0
  -30.0367  -13.2209   20.4849 N   0  0  0  0  0  0
  -26.2997  -12.9306   20.3334 N   0  0  0  0  0  0
  -25.9266  -11.6468   20.5711 N   0  0  0  0  0  0
  -22.0487  -12.8214   22.0420 N   0  0  0  0  0  0
  -25.4322  -15.1876   20.4059 N   0  0  0  0  0  0
  -31.7445  -14.6751   20.0974 O   0  0  0  0  0  0
  -21.6620   -6.8883   21.4241 O   0  0  0  0  0  0
  -22.3502  -14.5536   20.6711 O   0  0  0  0  0  0
  -24.6104  -31.8710   23.2178 C   0  0  0  0  0  0
  -25.9019  -32.4875   23.8443 C   0  0  1  0  0  0
  -27.2460  -27.4613   20.1076 C   0  0  0  0  0  0
  -25.5955  -33.8674   24.2405 N   0  0  0  0  0  0
  -23.3983  -30.4848   21.5630 C   0  0  2  0  0  0
  -24.8496  -28.9568   20.1203 C   0  0  0  0  0  0
  -22.7406  -29.4601   22.5152 C   0  0  0  0  0  0
  -18.0245  -28.1352   22.8525 C   0  0  0  0  0  0
  -24.1496  -36.7277   23.2629 C   0  0  0  0  0  0
  -25.9219  -30.8417   21.3680 C   0  0  0  0  0  0
  -26.0048  -29.4769   20.7187 C   0  0  0  0  0  0
  -27.2046  -28.7364   20.7155 C   0  0  0  0  0  0
  -26.0814  -26.9547   19.4950 C   0  0  0  0  0  0
  -24.8814  -27.6906   19.5063 C   0  0  0  0  0  0
  -23.6014  -29.8093   20.1793 C   0  0  0  0  0  0
  -25.4145  -36.3144   24.0346 C   0  0  1  0  0  0
  -20.5835  -28.3582   23.1434 C   0  0  2  0  0  0
  -20.6742  -26.9342   22.5471 C   0  0  0  0  0  0
  -19.5723  -26.6348   21.5265 C   0  0  0  0  0  0
  -18.1889  -26.7908   22.1648 C   0  0  0  0  0  0
  -19.1495  -28.8795   23.2953 C   0  0  0  0  0  0
  -18.9411  -30.1409   23.8935 C   0  0  0  0  0  0
  -17.6412  -30.6553   24.0549 C   0  0  0  0  0  0
  -25.9072  -34.9500   23.5162 C   0  0  0  0  0  0
  -16.5307  -29.9052   23.6320 C   0  0  0  0  0  0
  -16.7237  -28.6470   23.0361 C   0  0  0  0  0  0
  -26.4452  -31.6669   25.0772 C   0  0  0  0  0  0
  -25.3712  -31.3735   26.1506 C   0  0  0  0  0  0
  -27.0272  -30.3140   24.6098 C   0  0  0  0  0  0
  -27.6059  -32.4364   25.7504 C   0  0  0  0  0  0
  -27.5606  -37.1794   24.8468 C   0  0  0  0  0  0
  -21.4137  -29.2971   22.3891 N   0  0  0  0  0  0
  -26.4337  -37.3835   23.9419 N   0  0  0  0  0  0
  -24.6609  -31.0811   22.1075 N   0  0  0  0  0  0
  -23.4205  -28.8148   23.3169 O   0  0  0  0  0  0
  -28.3769  -26.6787   20.0614 O   0  0  0  0  0  0
  -26.5562  -34.8915   22.4682 O   0  0  0  0  0  0
  -23.5310  -32.1417   23.7621 O   0  0  0  0  0  0
  -30.4891  -19.2848   22.6121 C   0  0  0  0  0  0
  -31.1048  -17.4079   21.1810 C   0  0  0  0  0  0
  -29.5650  -17.0729   23.0385 C   0  0  0  0  0  0
  -31.1889  -18.7752   21.5025 C   0  0  0  0  0  0
  -29.6578  -18.4442   23.3800 C   0  0  0  0  0  0
  -30.3036  -16.5367   21.9549 C   0  0  0  0  0  0
  -28.0702  -24.4949   22.4129 C   0  0  0  0  0  0
  -27.5477  -23.8529   23.4932 C   0  0  0  0  0  0
  -28.2799  -23.7825   21.0720 C   0  0  0  0  0  0
  -27.8570  -22.3046   21.0365 C   0  0  0  0  0  0
  -26.6961  -22.0208   21.9931 C   0  0  0  0  0  0
  -27.0698  -22.3979   23.4424 C   0  0  1  0  0  0
  -32.0357  -19.6940   20.6483 C   0  0  0  0  0  0
  -27.3349  -24.5212   24.8477 C   0  0  0  0  0  0
  -28.8867  -19.0058   24.5767 C   0  0  0  0  0  0
  -28.4670  -25.9810   22.4649 C   0  0  0  0  0  0
  -28.1277  -21.4573   24.0812 C   0  0  0  0  0  0
  -27.7305  -19.9656   24.2082 C   0  0  0  0  0  0
  -29.1870  -26.5954   21.2366 C   0  0  0  0  0  0
  -30.1731  -15.1422   21.6829 N   0  0  0  0  0  0
  -31.4671  -12.4157   19.1122 H   0  0  0  0  0  0
  -30.3357  -11.2640   19.7573 H   0  0  0  0  0  0
  -29.7370  -11.8526   17.3919 H   0  0  0  0  0  0
  -29.6583  -13.5448   17.8159 H   0  0  0  0  0  0
  -27.8223  -11.3234   18.7806 H   0  0  0  0  0  0
  -27.3649  -12.6771   17.7818 H   0  0  0  0  0  0
  -27.7319  -14.2538   19.6257 H   0  0  0  0  0  0
  -28.6476  -11.8506   21.2706 H   0  0  0  0  0  0
  -28.4149  -13.4385   21.9080 H   0  0  0  0  0  0
  -25.2771   -9.5672   22.4729 H   0  0  0  0  0  0
  -24.0008   -7.4622   22.7461 H   0  0  0  0  0  0
  -21.0843   -8.8766   19.8936 H   0  0  0  0  0  0
  -22.3709  -10.9658   19.6139 H   0  0  0  0  0  0
  -21.1998   -7.6152   23.9737 H   0  0  0  0  0  0
  -21.1479   -6.0517   25.9095 H   0  0  0  0  0  0
  -22.0600   -2.7616   23.2840 H   0  0  0  0  0  0
  -22.4105  -11.9862   22.4775 H   0  0  0  0  0  0
  -21.1107  -13.1230   22.2646 H   0  0  0  0  0  0
  -24.6765  -15.8542   20.5251 H   0  0  0  0  0  0
  -26.3002  -15.6234   20.1174 H   0  0  0  0  0  0
  -26.7098  -32.5598   23.1216 H   0  0  0  0  0  0
  -25.0248  -33.9860   25.0645 H   0  0  0  0  0  0
  -22.6810  -31.2978   21.4308 H   0  0  0  0  0  0
  -23.3825  -35.9542   23.3324 H   0  0  0  0  0  0
  -24.3540  -36.8834   22.2025 H   0  0  0  0  0  0
  -23.7159  -37.6466   23.6590 H   0  0  0  0  0  0
  -26.0266  -31.6069   20.5988 H   0  0  0  0  0  0
  -26.8111  -30.9026   21.9845 H   0  0  0  0  0  0
  -28.0915  -29.1521   21.1712 H   0  0  0  0  0  0
  -26.0963  -25.9796   19.0294 H   0  0  0  0  0  0
  -23.9935  -27.2859   19.0421 H   0  0  0  0  0  0
  -23.6770  -30.5749   19.4068 H   0  0  0  0  0  0
  -22.7346  -29.2026   19.9143 H   0  0  0  0  0  0
  -25.1322  -36.2029   25.0842 H   0  0  0  0  0  0
  -20.9865  -28.3077   24.1580 H   0  0  0  0  0  0
  -20.5718  -26.2146   23.3618 H   0  0  0  0  0  0
  -21.6597  -26.7428   22.1227 H   0  0  0  0  0  0
  -19.6870  -25.6265   21.1269 H   0  0  0  0  0  0
  -19.6702  -27.3178   20.6834 H   0  0  0  0  0  0
  -17.4191  -26.6717   21.4000 H   0  0  0  0  0  0
  -18.0199  -26.0029   22.9016 H   0  0  0  0  0  0
  -19.7876  -30.7208   24.2358 H   0  0  0  0  0  0
  -17.4950  -31.6259   24.5090 H   0  0  0  0  0  0
  -15.5296  -30.2944   23.7633 H   0  0  0  0  0  0
  -15.8644  -28.0771   22.7101 H   0  0  0  0  0  0
  -24.5913  -30.7093   25.7787 H   0  0  0  0  0  0
  -24.8864  -32.2858   26.4979 H   0  0  0  0  0  0
  -25.8025  -30.8852   27.0255 H   0  0  0  0  0  0
  -26.2789  -29.6966   24.1124 H   0  0  0  0  0  0
  -27.4034  -29.7346   25.4544 H   0  0  0  0  0  0
  -27.8631  -30.4535   23.9250 H   0  0  0  0  0  0
  -27.2749  -33.3671   26.2122 H   0  0  0  0  0  0
  -28.3815  -32.6912   25.0279 H   0  0  0  0  0  0
  -28.0788  -31.8472   26.5371 H   0  0  0  0  0  0
  -28.2652  -38.0067   24.7556 H   0  0  0  0  0  0
  -28.1073  -36.2606   24.6288 H   0  0  0  0  0  0
  -27.2283  -37.1421   25.8852 H   0  0  0  0  0  0
  -20.9300  -29.8683   21.7106 H   0  0  0  0  0  0
  -26.0250  -38.2920   24.1443 H   0  0  0  0  0  0
  -30.5940  -20.3289   22.8638 H   0  0  0  0  0  0
  -31.6631  -17.0519   20.3305 H   0  0  0  0  0  0
  -28.9235  -16.4248   23.6206 H   0  0  0  0  0  0
  -29.3354  -23.8439   20.8033 H   0  0  0  0  0  0
  -27.7139  -24.3133   20.3070 H   0  0  0  0  0  0
  -28.7019  -21.6648   21.2910 H   0  0  0  0  0  0
  -27.5817  -22.0295   20.0179 H   0  0  0  0  0  0
  -26.3814  -20.9816   21.9119 H   0  0  0  0  0  0
  -25.8326  -22.6095   21.6792 H   0  0  0  0  0  0
  -26.1569  -22.3352   24.0389 H   0  0  0  0  0  0
  -31.9011  -20.7378   20.9324 H   0  0  0  0  0  0
  -31.7576  -19.5942   19.5988 H   0  0  0  0  0  0
  -33.0914  -19.4424   20.7502 H   0  0  0  0  0  0
  -27.7878  -25.5071   24.9290 H   0  0  0  0  0  0
  -27.7601  -23.9136   25.6461 H   0  0  0  0  0  0
  -26.2672  -24.6309   25.0475 H   0  0  0  0  0  0
  -29.5804  -19.4928   25.2630 H   0  0  0  0  0  0
  -28.4651  -18.1681   25.1364 H   0  0  0  0  0  0
  -29.1424  -26.1087   23.3094 H   0  0  0  0  0  0
  -27.5790  -26.5686   22.7067 H   0  0  0  0  0  0
  -28.3601  -21.8094   25.0851 H   0  0  0  0  0  0
  -29.0542  -21.5738   23.5291 H   0  0  0  0  0  0
  -26.9886  -19.9177   25.0069 H   0  0  0  0  0  0
  -27.2308  -19.5839   23.3193 H   0  0  0  0  0  0
  -30.0740  -26.0081   20.9959 H   0  0  0  0  0  0
  -29.5733  -27.5814   21.4924 H   0  0  0  0  0  0
  -29.4501  -14.6690   22.2036 H   0  0  0  0  0  0
  1 25  1  0  0  0
  1 30  2  0  0  0
  1 90  1  0  0  0
  2  3  1  0  0  0
  2 25  1  0  0  0
  2 91  1  0  0  0
  2 92  1  0  0  0
  3  4  1  0  0  0
  3 93  1  0  0  0
  3 94  1  0  0  0
  4  5  1  0  0  0
  4 95  1  0  0  0
  4 96  1  0  0  0
  5  6  1  0  0  0
  5 26  1  0  0  0
  5 97  1  0  0  0
  6 25  1  0  0  0
  6 98  1  0  0  0
  6 99  1  0  0  0
  7  8  2  0  0  0
  7 26  1  0  0  0
  7 29  1  0  0  0
  8  9  1  0  0  0
  8 22  1  0  0  0
  9 10  1  0  0  0
  9 27  2  0  0  0
 10 11  2  0  0  0
 10 15  1  0  0  0
 11 12  1  0  0  0
 11100  1  0  0  0
 12 13  2  0  0  0
 12101  1  0  0  0
 13 14  1  0  0  0
 13 31  1  0  0  0
 14 15  2  0  0  0
 14102  1  0  0  0
 15103  1  0  0  0
 16 17  2  0  0  0
 16 21  1  0  0  0
 16 31  1  0  0  0
 17 18  1  0  0  0
 17104  1  0  0  0
 18 19  2  0  0  0
 18105  1  0  0  0
 19 20  1  0  0  0
 19 24  1  0  0  0
 20 21  2  0  0  0
 20106  1  0  0  0
 21 23  1  0  0  0
 22 28  1  0  0  0
 22 32  2  0  0  0
 26 27  1  0  0  0
 28107  1  0  0  0
 28108  1  0  0  0
 29109  1  0  0  0
 29110  1  0  0  0
 33 34  1  0  0  0
 33 66  1  0  0  0
 33 70  2  0  0  0
 34 36  1  0  0  0
 34 59  1  0  0  0
 34111  1  0  0  0
 35 44  2  0  0  0
 35 45  1  0  0  0
 35 68  1  0  0  0
 36 56  1  0  0  0
 36112  1  0  0  0
 37 39  1  0  0  0
 37 47  1  0  0  0
 37 66  1  0  0  0
 37113  1  0  0  0
 38 43  2  0  0  0
 38 46  1  0  0  0
 38 47  1  0  0  0
 39 64  1  0  0  0
 39 67  2  0  0  0
 40 52  1  0  0  0
 40 53  2  0  0  0
 40 58  1  0  0  0
 41114  1  0  0  0
 41115  1  0  0  0
 41116  1  0  0  0
 41 48  1  0  0  0
 42 43  1  0  0  0
 42 66  1  0  0  0
 42117  1  0  0  0
 42118  1  0  0  0
 43 44  1  0  0  0
 44119  1  0  0  0
 45 46  2  0  0  0
 45120  1  0  0  0
 46121  1  0  0  0
 47122  1  0  0  0
 47123  1  0  0  0
 48 56  1  0  0  0
 48 65  1  0  0  0
 48124  1  0  0  0
 49 50  1  0  0  0
 49 53  1  0  0  0
 49 64  1  0  0  0
 49125  1  0  0  0
 50 51  1  0  0  0
 50126  1  0  0  0
 50127  1  0  0  0
 51 52  1  0  0  0
 51128  1  0  0  0
 51129  1  0  0  0
 52130  1  0  0  0
 52131  1  0  0  0
 53 54  1  0  0  0
 54 55  2  0  0  0
 54132  1  0  0  0
 55 57  1  0  0  0
 55133  1  0  0  0
 56 69  2  0  0  0
 57 58  2  0  0  0
 57134  1  0  0  0
 58135  1  0  0  0
 59 60  1  0  0  0
 59 61  1  0  0  0
 59 62  1  0  0  0
 60136  1  0  0  0
 60137  1  0  0  0
 60138  1  0  0  0
 61139  1  0  0  0
 61140  1  0  0  0
 61141  1  0  0  0
 62142  1  0  0  0
 62143  1  0  0  0
 62144  1  0  0  0
 63 65  1  0  0  0
 63145  1  0  0  0
 63146  1  0  0  0
 63147  1  0  0  0
 64148  1  0  0  0
 65149  1  0  0  0
 68 89  1  0  0  0
 71 74  2  0  0  0
 71 75  1  0  0  0
 71150  1  0  0  0
 72 74  1  0  0  0
 72 76  2  0  0  0
 72151  1  0  0  0
 73 75  2  0  0  0
 73 76  1  0  0  0
 73152  1  0  0  0
 74 83  1  0  0  0
 75 85  1  0  0  0
 76 90  1  0  0  0
 77 78  2  0  0  0
 77 79  1  0  0  0
 77 86  1  0  0  0
 78 82  1  0  0  0
 78 84  1  0  0  0
 79 80  1  0  0  0
 79153  1  0  0  0
 79154  1  0  0  0
 80 81  1  0  0  0
 80155  1  0  0  0
 80156  1  0  0  0
 81 82  1  0  0  0
 81157  1  0  0  0
 81158  1  0  0  0
 82 87  1  0  0  0
 82159  1  0  0  0
 83160  1  0  0  0
 83161  1  0  0  0
 83162  1  0  0  0
 84163  1  0  0  0
 84164  1  0  0  0
 84165  1  0  0  0
 85 88  1  0  0  0
 85166  1  0  0  0
 85167  1  0  0  0
 86 89  1  0  0  0
 86168  1  0  0  0
 86169  1  0  0  0
 87 88  1  0  0  0
 87170  1  0  0  0
 87171  1  0  0  0
 88172  1  0  0  0
 88173  1  0  0  0
 89174  1  0  0  0
 89175  1  0  0  0
 90176  1  0  0  0
M  ISO  4   1 100  68 101  89 101  90 100
M  END
> <chiral flag>
0

> <version>
0

> <s_m_source_file>
/data/baiqing/PycharmProjects/Reinvent-master-3.2/result/LINK_invent/BTK/process_docking_weight1_custom_product_contain_oxygen_bond_distance_aromatic_linkinvent_7_9_3/rearranged_h_0133.sdf

> <i_m_source_file_index>
79

> <r_mmod_Potential_Energy-OPLS-2005>
7.37192440032959

> <r_mmod_Stretch_Energy-OPLS-2005>
39.1900177001953

> <r_mmod_Bend_Energy-OPLS-2005>
114.466674804688

> <r_mmod_Torsional_Energy-OPLS-2005>
244.440338134766

> <r_mmod_Improper_Torsional_Energy-OPLS-2005>
2.34816455841064

> <r_mmod_Van_der_Waal_Energy-OPLS-2005>
165.31901550293

> <r_mmod_Electrostatic_Energy-OPLS-2005>
-378.507080078125

> <r_mmod_Solvation_Energy-OPLS-2005>
-187.926528930664

> <b_mmod_Minimization_Converged-OPLS-2005>
0

> <r_mmod_RMS_Derivative-OPLS-2005>
3.88431739807129

$$$$
79
                    3D
 Structure written by MMmdl.
165173  0  0  1  0            999 V2000
  -30.7619  -14.5464   20.3256 C   0  0  0  0  0  0
  -30.3979  -12.2964   19.4546 C   0  0  0  0  0  0
  -29.4793  -12.3407   18.2184 C   0  0  0  0  0  0
  -27.9962  -12.3012   18.6337 C   0  0  0  0  0  0
  -27.6328  -13.2223   19.8340 C   0  0  2  0  0  0
  -28.6972  -13.1901   20.9472 C   0  0  0  0  0  0
  -25.2504  -13.8183   20.5768 C   0  0  0  0  0  0
  -24.1774  -13.0432   20.9218 C   0  0  0  0  0  0
  -24.6361  -11.6911   20.8784 C   0  0  0  0  0  0
  -23.9047  -10.4286   21.0425 C   0  0  0  0  0  0
  -24.3605   -9.4198   21.9196 C   0  0  0  0  0  0
  -23.6285   -8.2231   22.0752 C   0  0  0  0  0  0
  -22.4268   -8.0272   21.3542 C   0  0  0  0  0  0
  -21.9903   -9.0247   20.4646 C   0  0  0  0  0  0
  -22.7227  -10.2129   20.3064 C   0  0  0  0  0  0
  -21.6850   -6.0733   22.5274 C   0  0  0  0  0  0
  -21.4014   -6.5637   23.8209 C   0  0  0  0  0  0
  -21.3658   -5.6788   24.9169 C   0  0  0  0  0  0
  -21.6046   -4.3052   24.7220 C   0  0  0  0  0  0
  -21.8821   -3.8144   23.4341 C   0  0  0  0  0  0
  -21.9191   -4.6961   22.3397 C   0  0  0  0  0  0
  -22.7797  -13.5225   21.1860 C   0  0  0  0  0  0
  -22.1656   -4.2148   21.0973 F   0  0  0  0  0  0
  -21.5631   -3.4535   25.7734 F   0  0  0  0  0  0
  -30.0122  -13.4077   20.3366 N   0  0  0  0  0  0
  -26.2928  -12.9377   20.3363 N   0  0  0  0  0  0
  -25.9298  -11.6531   20.5859 N   0  0  0  0  0  0
  -22.0438  -12.8219   22.0415 N   0  0  0  0  0  0
  -25.4186  -15.1905   20.4270 N   0  0  0  0  0  0
  -31.9851  -14.4471   20.3758 O   0  0  0  0  0  0
  -21.6633   -6.8873   21.4236 O   0  0  0  0  0  0
  -22.3485  -14.5532   20.6705 O   0  0  0  0  0  0
  -24.6137  -31.8682   23.2107 C   0  0  0  0  0  0
  -25.9033  -32.4825   23.8402 C   0  0  1  0  0  0
  -27.2250  -27.4387   20.1074 C   0  0  0  0  0  0
  -25.5894  -33.8625   24.2336 N   0  0  0  0  0  0
  -23.4015  -30.4914   21.5505 C   0  0  2  0  0  0
  -24.8482  -28.9577   20.1134 C   0  0  0  0  0  0
  -22.7408  -29.4660   22.4996 C   0  0  0  0  0  0
  -18.0272  -28.1375   22.8495 C   0  0  0  0  0  0
  -24.1484  -36.7316   23.2637 C   0  0  0  0  0  0
  -25.9287  -30.8371   21.3614 C   0  0  0  0  0  0
  -26.0072  -29.4718   20.7100 C   0  0  0  0  0  0
  -27.2032  -28.7192   20.7030 C   0  0  0  0  0  0
  -26.0567  -26.9372   19.5003 C   0  0  0  0  0  0
  -24.8676  -27.6906   19.5033 C   0  0  0  0  0  0
  -23.6093  -29.8229   20.1646 C   0  0  0  0  0  0
  -25.4104  -36.3117   24.0341 C   0  0  1  0  0  0
  -20.5863  -28.3659   23.1322 C   0  0  2  0  0  0
  -20.6764  -26.9396   22.5419 C   0  0  0  0  0  0
  -19.5743  -26.6383   21.5215 C   0  0  0  0  0  0
  -18.1920  -26.7923   22.1623 C   0  0  0  0  0  0
  -19.1522  -28.8834   23.2907 C   0  0  0  0  0  0
  -18.9450  -30.1443   23.8914 C   0  0  0  0  0  0
  -17.6452  -30.6582   24.0566 C   0  0  0  0  0  0
  -25.9029  -34.9479   23.5136 C   0  0  0  0  0  0
  -16.5343  -29.9082   23.6327 C   0  0  0  0  0  0
  -16.7261  -28.6499   23.0349 C   0  0  0  0  0  0
  -26.4467  -31.6599   25.0722 C   0  0  0  0  0  0
  -25.3745  -31.3696   26.1481 C   0  0  0  0  0  0
  -27.0291  -30.3045   24.6077 C   0  0  0  0  0  0
  -27.6056  -32.4309   25.7475 C   0  0  0  0  0  0
  -27.5585  -37.1807   24.8461 C   0  0  0  0  0  0
  -21.4138  -29.3028   22.3732 N   0  0  0  0  0  0
  -26.4292  -37.3800   23.9415 N   0  0  0  0  0  0
  -24.6662  -31.0792   22.0999 N   0  0  0  0  0  0
  -23.4185  -28.8203   23.3036 O   0  0  0  0  0  0
  -28.3595  -26.6659   20.1329 O   0  0  0  0  0  0
  -26.5592  -34.8928   22.4698 O   0  0  0  0  0  0
  -23.5333  -32.1430   23.7508 O   0  0  0  0  0  0
  -29.7025  -17.3793   21.7568 C   0  0  0  0  0  0
  -29.0849  -18.5557   22.2329 C   0  0  0  0  0  0
  -28.0763  -17.2639   19.9655 C   0  0  0  0  0  0
  -29.2732  -16.7784   20.5496 C   0  0  0  0  0  0
  -27.9986  -19.1364   21.5417 C   0  0  0  0  0  0
  -27.4398  -18.4296   20.4477 C   0  0  0  0  0  0
  -28.1161  -24.2227   20.5302 C   0  0  0  0  0  0
  -26.2084  -18.9395   19.7164 C   0  0  0  0  0  0
  -31.5062  -16.8627   19.5325 C   0  0  0  0  0  0
  -29.8167  -15.7306   18.2465 C   0  0  0  0  0  0
  -27.5046  -20.5308   21.9496 C   0  0  0  0  0  0
  -27.6720  -23.0962   21.4880 C   0  0  0  0  0  0
  -28.3074  -25.6303   21.1333 C   0  0  0  0  0  0
  -28.0647  -21.6611   21.0434 C   0  0  0  0  0  0
  -30.2657  -15.9263   19.7192 C   0  0  0  0  0  0
  -28.3049  -24.0055   19.3285 O   0  0  0  0  0  0
  -31.4431  -12.3426   19.1423 H   0  0  0  0  0  0
  -30.2845  -11.3484   19.9828 H   0  0  0  0  0  0
  -29.6925  -11.4799   17.5835 H   0  0  0  0  0  0
  -29.6873  -13.1990   17.5900 H   0  0  0  0  0  0
  -27.7828  -11.2645   18.8952 H   0  0  0  0  0  0
  -27.3584  -12.5272   17.7782 H   0  0  0  0  0  0
  -27.5994  -14.2383   19.4566 H   0  0  0  0  0  0
  -28.6828  -12.2334   21.4712 H   0  0  0  0  0  0
  -28.4917  -13.9609   21.6917 H   0  0  0  0  0  0
  -25.2745   -9.5676   22.4779 H   0  0  0  0  0  0
  -23.9997   -7.4619   22.7463 H   0  0  0  0  0  0
  -21.0839   -8.8763   19.8946 H   0  0  0  0  0  0
  -22.3686  -10.9671   19.6178 H   0  0  0  0  0  0
  -21.2005   -7.6146   23.9712 H   0  0  0  0  0  0
  -21.1477   -6.0517   25.9073 H   0  0  0  0  0  0
  -22.0602   -2.7607   23.2835 H   0  0  0  0  0  0
  -22.4058  -11.9897   22.4828 H   0  0  0  0  0  0
  -21.1045  -13.1235   22.2590 H   0  0  0  0  0  0
  -24.6625  -15.8454   20.5912 H   0  0  0  0  0  0
  -26.3067  -15.6464   20.2570 H   0  0  0  0  0  0
  -26.7107  -32.5541   23.1171 H   0  0  0  0  0  0
  -25.0063  -33.9792   25.0494 H   0  0  0  0  0  0
  -22.6898  -31.3079   21.4119 H   0  0  0  0  0  0
  -23.3748  -35.9647   23.3300 H   0  0  0  0  0  0
  -24.3583  -36.8927   22.2051 H   0  0  0  0  0  0
  -23.7228  -37.6520   23.6646 H   0  0  0  0  0  0
  -26.0372  -31.6024   20.5917 H   0  0  0  0  0  0
  -26.8181  -30.8936   21.9772 H   0  0  0  0  0  0
  -28.0984  -29.1068   21.1694 H   0  0  0  0  0  0
  -26.0641  -25.9620   19.0339 H   0  0  0  0  0  0
  -23.9768  -27.2904   19.0390 H   0  0  0  0  0  0
  -23.7152  -30.5975   19.4043 H   0  0  0  0  0  0
  -22.7341  -29.2408   19.8706 H   0  0  0  0  0  0
  -25.1280  -36.1984   25.0834 H   0  0  0  0  0  0
  -20.9955  -28.3218   24.1442 H   0  0  0  0  0  0
  -20.5669  -26.2265   23.3603 H   0  0  0  0  0  0
  -21.6633  -26.7441   22.1205 H   0  0  0  0  0  0
  -19.6900  -25.6298   21.1233 H   0  0  0  0  0  0
  -19.6684  -27.3206   20.6755 H   0  0  0  0  0  0
  -17.4193  -26.6684   21.4020 H   0  0  0  0  0  0
  -18.0316  -26.0055   22.9008 H   0  0  0  0  0  0
  -19.7925  -30.7260   24.2285 H   0  0  0  0  0  0
  -17.5004  -31.6266   24.5160 H   0  0  0  0  0  0
  -15.5343  -30.2988   23.7642 H   0  0  0  0  0  0
  -15.8661  -28.0823   22.7052 H   0  0  0  0  0  0
  -24.5906  -30.7055   25.7820 H   0  0  0  0  0  0
  -24.8948  -32.2847   26.4965 H   0  0  0  0  0  0
  -25.8107  -30.8838   27.0217 H   0  0  0  0  0  0
  -26.2821  -29.6808   24.1149 H   0  0  0  0  0  0
  -27.4092  -29.7278   25.4520 H   0  0  0  0  0  0
  -27.8646  -30.4375   23.9199 H   0  0  0  0  0  0
  -27.2693  -33.3604   26.2081 H   0  0  0  0  0  0
  -28.3847  -32.6873   25.0284 H   0  0  0  0  0  0
  -28.0742  -31.8410   26.5362 H   0  0  0  0  0  0
  -28.2593  -38.0116   24.7536 H   0  0  0  0  0  0
  -28.1092  -36.2651   24.6249 H   0  0  0  0  0  0
  -27.2313  -37.1407   25.8866 H   0  0  0  0  0  0
  -20.9296  -29.8748   21.6955 H   0  0  0  0  0  0
  -26.0184  -38.2877   24.1431 H   0  0  0  0  0  0
  -30.6040  -17.0377   22.2462 H   0  0  0  0  0  0
  -29.5100  -19.0589   23.0908 H   0  0  0  0  0  0
  -27.6908  -16.8297   19.0553 H   0  0  0  0  0  0
  -25.8153  -18.1877   19.0310 H   0  0  0  0  0  0
  -26.4423  -19.8272   19.1301 H   0  0  0  0  0  0
  -25.4098  -19.1837   20.4167 H   0  0  0  0  0  0
  -31.2161  -17.8352   19.1321 H   0  0  0  0  0  0
  -32.2385  -16.4479   18.8380 H   0  0  0  0  0  0
  -32.0374  -17.0519   20.4659 H   0  0  0  0  0  0
  -29.6803  -16.6858   17.7372 H   0  0  0  0  0  0
  -28.8831  -15.1930   18.1346 H   0  0  0  0  0  0
  -30.5744  -15.1944   17.6748 H   0  0  0  0  0  0
  -27.7999  -20.7189   22.9828 H   0  0  0  0  0  0
  -26.4150  -20.5546   21.9521 H   0  0  0  0  0  0
  -26.5883  -23.1620   21.5857 H   0  0  0  0  0  0
  -28.0829  -23.3017   22.4764 H   0  0  0  0  0  0
  -29.2453  -25.6382   21.6882 H   0  0  0  0  0  0
  -27.5141  -25.8199   21.8584 H   0  0  0  0  0  0
  -27.7351  -21.4967   20.0178 H   0  0  0  0  0  0
  -29.1530  -21.5898   21.0214 H   0  0  0  0  0  0
  1 25  1  0  0  0
  1 30  2  0  0  0
  1 85  1  0  0  0
  2  3  1  0  0  0
  2 25  1  0  0  0
  2 87  1  0  0  0
  2 88  1  0  0  0
  3  4  1  0  0  0
  3 89  1  0  0  0
  3 90  1  0  0  0
  4  5  1  0  0  0
  4 91  1  0  0  0
  4 92  1  0  0  0
  5  6  1  0  0  0
  5 26  1  0  0  0
  5 93  1  0  0  0
  6 25  1  0  0  0
  6 94  1  0  0  0
  6 95  1  0  0  0
  7  8  2  0  0  0
  7 26  1  0  0  0
  7 29  1  0  0  0
  8  9  1  0  0  0
  8 22  1  0  0  0
  9 10  1  0  0  0
  9 27  2  0  0  0
 10 11  2  0  0  0
 10 15  1  0  0  0
 11 12  1  0  0  0
 11 96  1  0  0  0
 12 13  2  0  0  0
 12 97  1  0  0  0
 13 14  1  0  0  0
 13 31  1  0  0  0
 14 15  2  0  0  0
 14 98  1  0  0  0
 15 99  1  0  0  0
 16 17  2  0  0  0
 16 21  1  0  0  0
 16 31  1  0  0  0
 17 18  1  0  0  0
 17100  1  0  0  0
 18 19  2  0  0  0
 18101  1  0  0  0
 19 20  1  0  0  0
 19 24  1  0  0  0
 20 21  2  0  0  0
 20102  1  0  0  0
 21 23  1  0  0  0
 22 28  1  0  0  0
 22 32  2  0  0  0
 26 27  1  0  0  0
 28103  1  0  0  0
 28104  1  0  0  0
 29105  1  0  0  0
 29106  1  0  0  0
 33 34  1  0  0  0
 33 66  1  0  0  0
 33 70  2  0  0  0
 34 36  1  0  0  0
 34 59  1  0  0  0
 34107  1  0  0  0
 35 44  2  0  0  0
 35 45  1  0  0  0
 35 68  1  0  0  0
 36 56  1  0  0  0
 36108  1  0  0  0
 37 39  1  0  0  0
 37 47  1  0  0  0
 37 66  1  0  0  0
 37109  1  0  0  0
 38 43  2  0  0  0
 38 46  1  0  0  0
 38 47  1  0  0  0
 39 64  1  0  0  0
 39 67  2  0  0  0
 40 52  1  0  0  0
 40 53  2  0  0  0
 40 58  1  0  0  0
 41110  1  0  0  0
 41111  1  0  0  0
 41112  1  0  0  0
 41 48  1  0  0  0
 42 43  1  0  0  0
 42 66  1  0  0  0
 42113  1  0  0  0
 42114  1  0  0  0
 43 44  1  0  0  0
 44115  1  0  0  0
 45 46  2  0  0  0
 45116  1  0  0  0
 46117  1  0  0  0
 47118  1  0  0  0
 47119  1  0  0  0
 48 56  1  0  0  0
 48 65  1  0  0  0
 48120  1  0  0  0
 49 50  1  0  0  0
 49 53  1  0  0  0
 49 64  1  0  0  0
 49121  1  0  0  0
 50 51  1  0  0  0
 50122  1  0  0  0
 50123  1  0  0  0
 51 52  1  0  0  0
 51124  1  0  0  0
 51125  1  0  0  0
 52126  1  0  0  0
 52127  1  0  0  0
 53 54  1  0  0  0
 54 55  2  0  0  0
 54128  1  0  0  0
 55 57  1  0  0  0
 55129  1  0  0  0
 56 69  2  0  0  0
 57 58  2  0  0  0
 57130  1  0  0  0
 58131  1  0  0  0
 59 60  1  0  0  0
 59 61  1  0  0  0
 59 62  1  0  0  0
 60132  1  0  0  0
 60133  1  0  0  0
 60134  1  0  0  0
 61135  1  0  0  0
 61136  1  0  0  0
 61137  1  0  0  0
 62138  1  0  0  0
 62139  1  0  0  0
 62140  1  0  0  0
 63 65  1  0  0  0
 63141  1  0  0  0
 63142  1  0  0  0
 63143  1  0  0  0
 64144  1  0  0  0
 65145  1  0  0  0
 68 83  1  0  0  0
 71 72  2  0  0  0
 71 74  1  0  0  0
 71146  1  0  0  0
 72 75  1  0  0  0
 72147  1  0  0  0
 73 74  2  0  0  0
 73 76  1  0  0  0
 73148  1  0  0  0
 74 85  1  0  0  0
 75 76  2  0  0  0
 75 81  1  0  0  0
 76 78  1  0  0  0
 77 82  1  0  0  0
 77 83  1  0  0  0
 77 86  2  0  0  0
 78149  1  0  0  0
 78150  1  0  0  0
 78151  1  0  0  0
 79152  1  0  0  0
 79153  1  0  0  0
 79154  1  0  0  0
 79 85  1  0  0  0
 80 85  1  0  0  0
 80155  1  0  0  0
 80156  1  0  0  0
 80157  1  0  0  0
 81 84  1  0  0  0
 81158  1  0  0  0
 81159  1  0  0  0
 82 84  1  0  0  0
 82160  1  0  0  0
 82161  1  0  0  0
 83162  1  0  0  0
 83163  1  0  0  0
 84164  1  0  0  0
 84165  1  0  0  0
M  ISO  4   1 100  68 101  83 101  85 100
M  END
> <chiral flag>
0

> <version>
0

> <s_m_source_file>
/data/baiqing/PycharmProjects/Reinvent-master-3.2/result/LINK_invent/BTK/process_docking_weight1_custom_product_contain_oxygen_bond_distance_aromatic_linkinvent_7_9_3/rearranged_h_0133.sdf

> <i_m_source_file_index>
80

> <r_mmod_Potential_Energy-OPLS-2005>
192.727508544922

> <r_mmod_Stretch_Energy-OPLS-2005>
45.8524322509766

> <r_mmod_Bend_Energy-OPLS-2005>
122.301734924316

> <r_mmod_Torsional_Energy-OPLS-2005>
276.319885253906

> <r_mmod_Improper_Torsional_Energy-OPLS-2005>
18.6704483032227

> <r_mmod_Van_der_Waal_Energy-OPLS-2005>
157.154235839844

> <r_mmod_Electrostatic_Energy-OPLS-2005>
-295.910858154297

> <r_mmod_Solvation_Energy-OPLS-2005>
-192.403411865234

> <b_mmod_Minimization_Converged-OPLS-2005>
0

> <r_mmod_RMS_Derivative-OPLS-2005>
0.591938138008118

$$$$
80
                    3D
 Structure written by MMmdl.
167175  0  0  1  0            999 V2000
  -30.7326  -14.5026   20.5313 C   0  0  0  0  0  0
  -30.4079  -12.3164   19.4471 C   0  0  0  0  0  0
  -29.4964  -12.5025   18.2167 C   0  0  0  0  0  0
  -28.0144  -12.3671   18.6161 C   0  0  0  0  0  0
  -27.6526  -13.2154   19.8650 C   0  0  2  0  0  0
  -28.6894  -13.0200   20.9882 C   0  0  0  0  0  0
  -25.2542  -13.8178   20.5653 C   0  0  0  0  0  0
  -24.1813  -13.0439   20.9162 C   0  0  0  0  0  0
  -24.6387  -11.6912   20.8729 C   0  0  0  0  0  0
  -23.9061  -10.4295   21.0405 C   0  0  0  0  0  0
  -24.3620   -9.4213   21.9185 C   0  0  0  0  0  0
  -23.6288   -8.2250   22.0759 C   0  0  0  0  0  0
  -22.4267   -8.0289   21.3549 C   0  0  0  0  0  0
  -21.9899   -9.0260   20.4650 C   0  0  0  0  0  0
  -22.7230  -10.2135   20.3059 C   0  0  0  0  0  0
  -21.6860   -6.0736   22.5278 C   0  0  0  0  0  0
  -21.4017   -6.5641   23.8212 C   0  0  0  0  0  0
  -21.3660   -5.6794   24.9176 C   0  0  0  0  0  0
  -21.6045   -4.3055   24.7229 C   0  0  0  0  0  0
  -21.8819   -3.8146   23.4349 C   0  0  0  0  0  0
  -21.9194   -4.6963   22.3403 C   0  0  0  0  0  0
  -22.7841  -13.5229   21.1844 C   0  0  0  0  0  0
  -22.1657   -4.2150   21.0979 F   0  0  0  0  0  0
  -21.5634   -3.4537   25.7741 F   0  0  0  0  0  0
  -30.0194  -13.3352   20.4432 N   0  0  0  0  0  0
  -26.2971  -12.9357   20.3308 N   0  0  0  0  0  0
  -25.9307  -11.6508   20.5732 N   0  0  0  0  0  0
  -22.0496  -12.8219   22.0408 N   0  0  0  0  0  0
  -25.4266  -15.1894   20.4067 N   0  0  0  0  0  0
  -31.9022  -14.5543   20.1435 O   0  0  0  0  0  0
  -21.6650   -6.8874   21.4234 O   0  0  0  0  0  0
  -22.3513  -14.5532   20.6700 O   0  0  0  0  0  0
  -24.6170  -31.8680   23.2112 C   0  0  0  0  0  0
  -25.9061  -32.4822   23.8400 C   0  0  1  0  0  0
  -27.2241  -27.4146   20.0739 C   0  0  0  0  0  0
  -25.5915  -33.8623   24.2331 N   0  0  0  0  0  0
  -23.4041  -30.4956   21.5536 C   0  0  2  0  0  0
  -24.8450  -28.9650   20.1146 C   0  0  0  0  0  0
  -22.7415  -29.4666   22.4986 C   0  0  0  0  0  0
  -18.0276  -28.1376   22.8491 C   0  0  0  0  0  0
  -24.1491  -36.7311   23.2636 C   0  0  0  0  0  0
  -25.9381  -30.8248   21.3704 C   0  0  0  0  0  0
  -26.0100  -29.4599   20.7123 C   0  0  0  0  0  0
  -27.1985  -28.6886   20.6961 C   0  0  0  0  0  0
  -26.0245  -26.9362   19.4921 C   0  0  0  0  0  0
  -24.8472  -27.7014   19.5082 C   0  0  0  0  0  0
  -23.6118  -29.8358   20.1660 C   0  0  0  0  0  0
  -25.4113  -36.3108   24.0334 C   0  0  1  0  0  0
  -20.5867  -28.3663   23.1310 C   0  0  2  0  0  0
  -20.6770  -26.9398   22.5409 C   0  0  0  0  0  0
  -19.5749  -26.6380   21.5207 C   0  0  0  0  0  0
  -18.1927  -26.7923   22.1619 C   0  0  0  0  0  0
  -19.1526  -28.8835   23.2898 C   0  0  0  0  0  0
  -18.9453  -30.1443   23.8907 C   0  0  0  0  0  0
  -17.6458  -30.6584   24.0561 C   0  0  0  0  0  0
  -25.9038  -34.9476   23.5126 C   0  0  0  0  0  0
  -16.5347  -29.9085   23.6328 C   0  0  0  0  0  0
  -16.7267  -28.6499   23.0349 C   0  0  0  0  0  0
  -26.4478  -31.6608   25.0737 C   0  0  0  0  0  0
  -25.3739  -31.3721   26.1484 C   0  0  0  0  0  0
  -27.0310  -30.3044   24.6137 C   0  0  0  0  0  0
  -27.6055  -32.4322   25.7500 C   0  0  0  0  0  0
  -27.5583  -37.1812   24.8464 C   0  0  0  0  0  0
  -21.4140  -29.3037   22.3721 N   0  0  0  0  0  0
  -26.4295  -37.3794   23.9405 N   0  0  0  0  0  0
  -24.6717  -31.0767   22.1028 N   0  0  0  0  0  0
  -23.4179  -28.8199   23.3026 O   0  0  0  0  0  0
  -28.3937  -26.6690   20.0954 O   0  0  0  0  0  0
  -26.5593  -34.8922   22.4681 O   0  0  0  0  0  0
  -23.5357  -32.1445   23.7492 O   0  0  0  0  0  0
  -31.4658  -18.3381   18.5008 C   0  0  0  0  0  0
  -31.0896  -17.1507   19.1340 C   0  0  0  0  0  0
  -30.9509  -19.5556   18.9397 C   0  0  0  0  0  0
  -30.1929  -17.1105   20.2384 C   0  0  0  0  0  0
  -29.5161  -18.3630   20.5376 C   0  0  0  0  0  0
  -29.9606  -19.5984   19.9472 C   0  0  0  0  0  0
  -30.0571  -15.8026   21.0603 C   0  0  0  0  0  0
  -25.4350  -19.9437   19.2042 C   0  0  0  0  0  0
  -28.2884  -18.4099   21.4734 C   0  0  0  0  0  0
  -26.6197  -19.0463   19.5824 C   0  0  0  0  0  0
  -27.0806  -19.2733   21.0335 C   0  0  0  0  0  0
  -29.6434  -24.5870   19.4509 C   0  0  0  0  0  0
  -29.0727  -23.2984   20.1168 C   0  0  0  0  0  0
  -28.6156  -25.6805   19.0720 C   0  0  0  0  0  0
  -29.8832  -22.0333   19.7369 C   0  0  0  0  0  0
  -29.5249  -15.7948   22.2105 N   0  0  0  0  0  0
  -29.4215  -20.8175   20.3555 O   0  0  0  0  0  0
  -31.4543  -12.3830   19.1476 H   0  0  0  0  0  0
  -30.2885  -11.3154   19.8645 H   0  0  0  0  0  0
  -29.7440  -11.7699   17.4473 H   0  0  0  0  0  0
  -29.6715  -13.4838   17.7721 H   0  0  0  0  0  0
  -27.8225  -11.3121   18.8163 H   0  0  0  0  0  0
  -27.3712  -12.6388   17.7788 H   0  0  0  0  0  0
  -27.6887  -14.2614   19.5605 H   0  0  0  0  0  0
  -28.6763  -11.9857   21.3350 H   0  0  0  0  0  0
  -28.4253  -13.6058   21.8644 H   0  0  0  0  0  0
  -25.2775   -9.5695   22.4746 H   0  0  0  0  0  0
  -24.0003   -7.4639   22.7473 H   0  0  0  0  0  0
  -21.0839   -8.8775   19.8943 H   0  0  0  0  0  0
  -22.3696  -10.9673   19.6166 H   0  0  0  0  0  0
  -21.2010   -7.6149   23.9718 H   0  0  0  0  0  0
  -21.1478   -6.0528   25.9079 H   0  0  0  0  0  0
  -22.0599   -2.7607   23.2859 H   0  0  0  0  0  0
  -22.4120  -11.9880   22.4784 H   0  0  0  0  0  0
  -21.1122  -13.1248   22.2638 H   0  0  0  0  0  0
  -24.6656  -15.8490   20.5238 H   0  0  0  0  0  0
  -26.2909  -15.6254   20.1136 H   0  0  0  0  0  0
  -26.7130  -32.5518   23.1157 H   0  0  0  0  0  0
  -25.0093  -33.9793   25.0490 H   0  0  0  0  0  0
  -22.6945  -31.3138   21.4173 H   0  0  0  0  0  0
  -23.3751  -35.9645   23.3307 H   0  0  0  0  0  0
  -24.3582  -36.8918   22.2047 H   0  0  0  0  0  0
  -23.7247  -37.6519   23.6645 H   0  0  0  0  0  0
  -26.0591  -31.5934   20.6055 H   0  0  0  0  0  0
  -26.8232  -30.8705   21.9932 H   0  0  0  0  0  0
  -28.0982  -29.0671   21.1613 H   0  0  0  0  0  0
  -25.9363  -25.9626   19.0388 H   0  0  0  0  0  0
  -23.9451  -27.3071   19.0602 H   0  0  0  0  0  0
  -23.7250  -30.6139   19.4106 H   0  0  0  0  0  0
  -22.7336  -29.2614   19.8655 H   0  0  0  0  0  0
  -25.1292  -36.1973   25.0828 H   0  0  0  0  0  0
  -20.9958  -28.3225   24.1429 H   0  0  0  0  0  0
  -20.5676  -26.2267   23.3592 H   0  0  0  0  0  0
  -21.6642  -26.7449   22.1197 H   0  0  0  0  0  0
  -19.6910  -25.6290   21.1237 H   0  0  0  0  0  0
  -19.6694  -27.3189   20.6736 H   0  0  0  0  0  0
  -17.4196  -26.6670   21.4022 H   0  0  0  0  0  0
  -18.0331  -26.0062   22.9014 H   0  0  0  0  0  0
  -19.7929  -30.7258   24.2279 H   0  0  0  0  0  0
  -17.5013  -31.6270   24.5157 H   0  0  0  0  0  0
  -15.5348  -30.2990   23.7653 H   0  0  0  0  0  0
  -15.8661  -28.0827   22.7059 H   0  0  0  0  0  0
  -24.5904  -30.7082   25.7817 H   0  0  0  0  0  0
  -24.8945  -32.2882   26.4941 H   0  0  0  0  0  0
  -25.8084  -30.8877   27.0237 H   0  0  0  0  0  0
  -26.2867  -29.6807   24.1178 H   0  0  0  0  0  0
  -27.4056  -29.7282   25.4608 H   0  0  0  0  0  0
  -27.8712  -30.4356   23.9314 H   0  0  0  0  0  0
  -27.2683  -33.3616   26.2102 H   0  0  0  0  0  0
  -28.3853  -32.6894   25.0320 H   0  0  0  0  0  0
  -28.0737  -31.8433   26.5397 H   0  0  0  0  0  0
  -28.2605  -38.0105   24.7507 H   0  0  0  0  0  0
  -28.1075  -36.2637   24.6298 H   0  0  0  0  0  0
  -27.2298  -37.1470   25.8866 H   0  0  0  0  0  0
  -20.9291  -29.8772   21.6962 H   0  0  0  0  0  0
  -26.0186  -38.2871   24.1406 H   0  0  0  0  0  0
  -32.1890  -18.3164   17.6973 H   0  0  0  0  0  0
  -31.5726  -16.2800   18.7280 H   0  0  0  0  0  0
  -31.3256  -20.4401   18.4476 H   0  0  0  0  0  0
  -25.1246  -19.7659   18.1740 H   0  0  0  0  0  0
  -25.6989  -20.9985   19.2910 H   0  0  0  0  0  0
  -24.5746  -19.7605   19.8500 H   0  0  0  0  0  0
  -28.6079  -18.6938   22.4770 H   0  0  0  0  0  0
  -27.8484  -17.4198   21.5484 H   0  0  0  0  0  0
  -27.4357  -19.2417   18.8868 H   0  0  0  0  0  0
  -26.3468  -18.0002   19.4410 H   0  0  0  0  0  0
  -27.2837  -20.3308   21.1897 H   0  0  0  0  0  0
  -26.2504  -19.0582   21.7070 H   0  0  0  0  0  0
  -30.1140  -24.2869   18.5130 H   0  0  0  0  0  0
  -30.4520  -25.0079   20.0487 H   0  0  0  0  0  0
  -28.0408  -23.1416   19.8017 H   0  0  0  0  0  0
  -29.0438  -23.4260   21.1995 H   0  0  0  0  0  0
  -27.7307  -25.1621   18.7184 H   0  0  0  0  0  0
  -28.9920  -26.2267   18.2057 H   0  0  0  0  0  0
  -30.9335  -22.1858   19.9904 H   0  0  0  0  0  0
  -29.8129  -21.9352   18.6525 H   0  0  0  0  0  0
  -29.1919  -16.7169   22.4595 H   0  0  0  0  0  0
  1 25  1  0  0  0
  1 30  2  0  0  0
  1 77  1  0  0  0
  2  3  1  0  0  0
  2 25  1  0  0  0
  2 88  1  0  0  0
  2 89  1  0  0  0
  3  4  1  0  0  0
  3 90  1  0  0  0
  3 91  1  0  0  0
  4  5  1  0  0  0
  4 92  1  0  0  0
  4 93  1  0  0  0
  5  6  1  0  0  0
  5 26  1  0  0  0
  5 94  1  0  0  0
  6 25  1  0  0  0
  6 95  1  0  0  0
  6 96  1  0  0  0
  7  8  2  0  0  0
  7 26  1  0  0  0
  7 29  1  0  0  0
  8  9  1  0  0  0
  8 22  1  0  0  0
  9 10  1  0  0  0
  9 27  2  0  0  0
 10 11  2  0  0  0
 10 15  1  0  0  0
 11 12  1  0  0  0
 11 97  1  0  0  0
 12 13  2  0  0  0
 12 98  1  0  0  0
 13 14  1  0  0  0
 13 31  1  0  0  0
 14 15  2  0  0  0
 14 99  1  0  0  0
 15100  1  0  0  0
 16 17  2  0  0  0
 16 21  1  0  0  0
 16 31  1  0  0  0
 17 18  1  0  0  0
 17101  1  0  0  0
 18 19  2  0  0  0
 18102  1  0  0  0
 19 20  1  0  0  0
 19 24  1  0  0  0
 20 21  2  0  0  0
 20103  1  0  0  0
 21 23  1  0  0  0
 22 28  1  0  0  0
 22 32  2  0  0  0
 26 27  1  0  0  0
 28104  1  0  0  0
 28105  1  0  0  0
 29106  1  0  0  0
 29107  1  0  0  0
 33 34  1  0  0  0
 33 66  1  0  0  0
 33 70  2  0  0  0
 34 36  1  0  0  0
 34 59  1  0  0  0
 34108  1  0  0  0
 35 44  2  0  0  0
 35 45  1  0  0  0
 35 68  1  0  0  0
 36 56  1  0  0  0
 36109  1  0  0  0
 37 39  1  0  0  0
 37 47  1  0  0  0
 37 66  1  0  0  0
 37110  1  0  0  0
 38 43  2  0  0  0
 38 46  1  0  0  0
 38 47  1  0  0  0
 39 64  1  0  0  0
 39 67  2  0  0  0
 40 52  1  0  0  0
 40 53  2  0  0  0
 40 58  1  0  0  0
 41111  1  0  0  0
 41112  1  0  0  0
 41113  1  0  0  0
 41 48  1  0  0  0
 42 43  1  0  0  0
 42 66  1  0  0  0
 42114  1  0  0  0
 42115  1  0  0  0
 43 44  1  0  0  0
 44116  1  0  0  0
 45 46  2  0  0  0
 45117  1  0  0  0
 46118  1  0  0  0
 47119  1  0  0  0
 47120  1  0  0  0
 48 56  1  0  0  0
 48 65  1  0  0  0
 48121  1  0  0  0
 49 50  1  0  0  0
 49 53  1  0  0  0
 49 64  1  0  0  0
 49122  1  0  0  0
 50 51  1  0  0  0
 50123  1  0  0  0
 50124  1  0  0  0
 51 52  1  0  0  0
 51125  1  0  0  0
 51126  1  0  0  0
 52127  1  0  0  0
 52128  1  0  0  0
 53 54  1  0  0  0
 54 55  2  0  0  0
 54129  1  0  0  0
 55 57  1  0  0  0
 55130  1  0  0  0
 56 69  2  0  0  0
 57 58  2  0  0  0
 57131  1  0  0  0
 58132  1  0  0  0
 59 60  1  0  0  0
 59 61  1  0  0  0
 59 62  1  0  0  0
 60133  1  0  0  0
 60134  1  0  0  0
 60135  1  0  0  0
 61136  1  0  0  0
 61137  1  0  0  0
 61138  1  0  0  0
 62139  1  0  0  0
 62140  1  0  0  0
 62141  1  0  0  0
 63 65  1  0  0  0
 63142  1  0  0  0
 63143  1  0  0  0
 63144  1  0  0  0
 64145  1  0  0  0
 65146  1  0  0  0
 68 84  1  0  0  0
 71 72  2  0  0  0
 71 73  1  0  0  0
 71147  1  0  0  0
 72 74  1  0  0  0
 72148  1  0  0  0
 73 76  2  0  0  0
 73149  1  0  0  0
 74 75  2  0  0  0
 74 77  1  0  0  0
 75 76  1  0  0  0
 75 79  1  0  0  0
 76 87  1  0  0  0
 77 86  2  0  0  0
 78 80  1  0  0  0
 78150  1  0  0  0
 78151  1  0  0  0
 78152  1  0  0  0
 79 81  1  0  0  0
 79153  1  0  0  0
 79154  1  0  0  0
 80 81  1  0  0  0
 80155  1  0  0  0
 80156  1  0  0  0
 81157  1  0  0  0
 81158  1  0  0  0
 82 83  1  0  0  0
 82 84  1  0  0  0
 82159  1  0  0  0
 82160  1  0  0  0
 83 85  1  0  0  0
 83161  1  0  0  0
 83162  1  0  0  0
 84163  1  0  0  0
 84164  1  0  0  0
 85 87  1  0  0  0
 85165  1  0  0  0
 85166  1  0  0  0
 86167  1  0  0  0
M  ISO  4   1 100  68 101  77 100  84 101
M  END
> <chiral flag>
0

> <version>
0

> <s_m_source_file>
/data/baiqing/PycharmProjects/Reinvent-master-3.2/result/LINK_invent/BTK/process_docking_weight1_custom_product_contain_oxygen_bond_distance_aromatic_linkinvent_7_9_3/rearranged_h_0133.sdf

> <i_m_source_file_index>
81

> <r_mmod_Potential_Energy-OPLS-2005>
234.275894165039

> <r_mmod_Stretch_Energy-OPLS-2005>
65.8544235229492

> <r_mmod_Bend_Energy-OPLS-2005>
138.635650634766

> <r_mmod_Torsional_Energy-OPLS-2005>
228.083770751953

> <r_mmod_Improper_Torsional_Energy-OPLS-2005>
3.47678327560425

> <r_mmod_Van_der_Waal_Energy-OPLS-2005>
187.17546081543

> <r_mmod_Electrostatic_Energy-OPLS-2005>
-223.374206542969

> <r_mmod_Solvation_Energy-OPLS-2005>
-186.368560791016

> <b_mmod_Minimization_Converged-OPLS-2005>
0

> <r_mmod_RMS_Derivative-OPLS-2005>
1.28494918346405

$$$$
81
                    3D
 Structure written by MMmdl.
169177  0  0  1  0            999 V2000
  -30.8085  -14.3609   20.6988 C   0  0  0  0  0  0
  -30.4049  -12.2940   19.4099 C   0  0  0  0  0  0
  -29.4847  -12.5317   18.2003 C   0  0  0  0  0  0
  -28.0113  -12.3810   18.6164 C   0  0  0  0  0  0
  -27.6654  -13.2122   19.8802 C   0  0  2  0  0  0
  -28.7026  -12.9912   21.0047 C   0  0  0  0  0  0
  -25.2597  -13.8161   20.5686 C   0  0  0  0  0  0
  -24.1848  -13.0432   20.9153 C   0  0  0  0  0  0
  -24.6395  -11.6894   20.8726 C   0  0  0  0  0  0
  -23.9068  -10.4275   21.0398 C   0  0  0  0  0  0
  -24.3611   -9.4206   21.9193 C   0  0  0  0  0  0
  -23.6283   -8.2250   22.0767 C   0  0  0  0  0  0
  -22.4275   -8.0279   21.3551 C   0  0  0  0  0  0
  -21.9914   -9.0243   20.4646 C   0  0  0  0  0  0
  -22.7240  -10.2117   20.3041 C   0  0  0  0  0  0
  -21.6855   -6.0735   22.5272 C   0  0  0  0  0  0
  -21.4012   -6.5638   23.8213 C   0  0  0  0  0  0
  -21.3662   -5.6790   24.9175 C   0  0  0  0  0  0
  -21.6031   -4.3059   24.7221 C   0  0  0  0  0  0
  -21.8821   -3.8143   23.4343 C   0  0  0  0  0  0
  -21.9198   -4.6953   22.3395 C   0  0  0  0  0  0
  -22.7861  -13.5232   21.1824 C   0  0  0  0  0  0
  -22.1667   -4.2141   21.0972 F   0  0  0  0  0  0
  -21.5626   -3.4539   25.7741 F   0  0  0  0  0  0
  -30.0506  -13.2563   20.4679 N   0  0  0  0  0  0
  -26.3045  -12.9341   20.3394 N   0  0  0  0  0  0
  -25.9338  -11.6498   20.5771 N   0  0  0  0  0  0
  -22.0489  -12.8205   22.0337 N   0  0  0  0  0  0
  -25.4318  -15.1876   20.4105 N   0  0  0  0  0  0
  -31.8038  -14.6376   20.0234 O   0  0  0  0  0  0
  -21.6645   -6.8871   21.4235 O   0  0  0  0  0  0
  -22.3570  -14.5577   20.6710 O   0  0  0  0  0  0
  -24.6139  -31.8659   23.2089 C   0  0  0  0  0  0
  -25.9053  -32.4805   23.8358 C   0  0  1  0  0  0
  -27.2306  -27.4613   20.0914 C   0  0  0  0  0  0
  -25.5956  -33.8595   24.2321 N   0  0  0  0  0  0
  -23.3957  -30.4949   21.5483 C   0  0  2  0  0  0
  -24.8399  -28.9683   20.1057 C   0  0  0  0  0  0
  -22.7357  -29.4685   22.4975 C   0  0  0  0  0  0
  -18.0252  -28.1412   22.8493 C   0  0  0  0  0  0
  -24.1473  -36.7293   23.2621 C   0  0  0  0  0  0
  -25.9172  -30.8507   21.3447 C   0  0  0  0  0  0
  -25.9966  -29.4857   20.6986 C   0  0  0  0  0  0
  -27.1931  -28.7399   20.6878 C   0  0  0  0  0  0
  -26.0613  -26.9644   19.4711 C   0  0  0  0  0  0
  -24.8660  -27.7040   19.4936 C   0  0  0  0  0  0
  -23.5951  -29.8244   20.1626 C   0  0  0  0  0  0
  -25.4085  -36.3078   24.0321 C   0  0  1  0  0  0
  -20.5842  -28.3675   23.1334 C   0  0  2  0  0  0
  -20.6769  -26.9423   22.5419 C   0  0  0  0  0  0
  -19.5743  -26.6409   21.5225 C   0  0  0  0  0  0
  -18.1903  -26.7967   22.1608 C   0  0  0  0  0  0
  -19.1508  -28.8844   23.2928 C   0  0  0  0  0  0
  -18.9432  -30.1445   23.8961 C   0  0  0  0  0  0
  -17.6422  -30.6606   24.0581 C   0  0  0  0  0  0
  -25.9018  -34.9466   23.5101 C   0  0  0  0  0  0
  -16.5322  -29.9098   23.6358 C   0  0  0  0  0  0
  -16.7243  -28.6524   23.0366 C   0  0  0  0  0  0
  -26.4516  -31.6538   25.0634 C   0  0  0  0  0  0
  -25.3801  -31.3615   26.1370 C   0  0  0  0  0  0
  -27.0364  -30.3009   24.5909 C   0  0  0  0  0  0
  -27.6111  -32.4228   25.7414 C   0  0  0  0  0  0
  -27.5570  -37.1763   24.8436 C   0  0  0  0  0  0
  -21.4088  -29.3052   22.3706 N   0  0  0  0  0  0
  -26.4244  -37.3768   23.9435 N   0  0  0  0  0  0
  -24.6624  -31.0790   22.0968 N   0  0  0  0  0  0
  -23.4125  -28.8235   23.3016 O   0  0  0  0  0  0
  -28.4163  -26.7625   20.1312 O   0  0  0  0  0  0
  -26.5539  -34.8941   22.4632 O   0  0  0  0  0  0
  -23.5338  -32.1389   23.7510 O   0  0  0  0  0  0
  -29.4726  -18.2583   24.9435 C   0  0  0  0  0  0
  -29.4888  -19.5168   24.3159 C   0  0  0  0  0  0
  -30.6217  -18.5291   22.4089 C   0  0  0  0  0  0
  -30.0604  -17.1323   24.3289 C   0  0  0  0  0  0
  -30.6412  -17.2670   23.0419 C   0  0  0  0  0  0
  -30.0806  -19.6644   23.0398 C   0  0  0  0  0  0
  -31.2060  -15.8284   26.1622 C   0  0  0  0  0  0
  -26.3673  -24.4530   21.3510 C   0  0  0  0  0  0
  -30.0947  -15.8263   25.1057 C   0  0  0  0  0  0
  -31.3649  -16.1188   22.3477 C   0  0  0  0  0  0
  -29.9814  -23.2390   22.0969 C   0  0  0  0  0  0
  -28.5726  -23.2145   21.4570 C   0  0  0  0  0  0
  -30.1920  -22.0716   23.0744 C   0  0  0  0  0  0
  -28.4144  -25.3345   20.0203 C   0  0  0  0  0  0
  -27.9042  -24.6022   21.2949 C   0  0  1  0  0  0
  -30.4894  -15.0895   21.7782 N   0  0  0  0  0  0
  -30.1587  -20.8505   22.3433 O   0  0  0  0  0  0
  -31.4530  -12.3647   19.1125 H   0  0  0  0  0  0
  -30.2768  -11.2765   19.7850 H   0  0  0  0  0  0
  -29.7221  -11.8250   17.4042 H   0  0  0  0  0  0
  -29.6536  -13.5288   17.7898 H   0  0  0  0  0  0
  -27.8277  -11.3216   18.8036 H   0  0  0  0  0  0
  -27.3569  -12.6598   17.7898 H   0  0  0  0  0  0
  -27.7135  -14.2629   19.5934 H   0  0  0  0  0  0
  -28.6577  -11.9639   21.3675 H   0  0  0  0  0  0
  -28.4529  -13.6159   21.8623 H   0  0  0  0  0  0
  -25.2748   -9.5694   22.4780 H   0  0  0  0  0  0
  -23.9982   -7.4645   22.7496 H   0  0  0  0  0  0
  -21.0848   -8.8733   19.8946 H   0  0  0  0  0  0
  -22.3698  -10.9641   19.6137 H   0  0  0  0  0  0
  -21.2005   -7.6155   23.9706 H   0  0  0  0  0  0
  -21.1482   -6.0535   25.9077 H   0  0  0  0  0  0
  -22.0604   -2.7597   23.2842 H   0  0  0  0  0  0
  -22.4061  -11.9818   22.4656 H   0  0  0  0  0  0
  -21.1100  -13.1233   22.2521 H   0  0  0  0  0  0
  -24.6695  -15.8479   20.5241 H   0  0  0  0  0  0
  -26.2962  -15.6268   20.1122 H   0  0  0  0  0  0
  -26.7123  -32.5521   23.1135 H   0  0  0  0  0  0
  -25.0292  -33.9761   25.0587 H   0  0  0  0  0  0
  -22.6882  -31.3146   21.4083 H   0  0  0  0  0  0
  -23.3771  -35.9583   23.3179 H   0  0  0  0  0  0
  -24.3626  -36.8989   22.2061 H   0  0  0  0  0  0
  -23.7166  -37.6452   23.6686 H   0  0  0  0  0  0
  -25.9947  -31.6135   20.5685 H   0  0  0  0  0  0
  -26.8192  -30.9238   21.9402 H   0  0  0  0  0  0
  -28.0889  -29.1420   21.1419 H   0  0  0  0  0  0
  -26.0442  -26.0036   18.9831 H   0  0  0  0  0  0
  -23.9772  -27.3001   19.0302 H   0  0  0  0  0  0
  -23.6913  -30.5984   19.3998 H   0  0  0  0  0  0
  -22.7195  -29.2401   19.8733 H   0  0  0  0  0  0
  -25.1239  -36.1909   25.0804 H   0  0  0  0  0  0
  -20.9970  -28.3267   24.1443 H   0  0  0  0  0  0
  -20.5729  -26.2290   23.3600 H   0  0  0  0  0  0
  -21.6619  -26.7516   22.1157 H   0  0  0  0  0  0
  -19.6914  -25.6331   21.1231 H   0  0  0  0  0  0
  -19.6704  -27.3254   20.6790 H   0  0  0  0  0  0
  -17.4191  -26.6760   21.3985 H   0  0  0  0  0  0
  -18.0263  -26.0087   22.8978 H   0  0  0  0  0  0
  -19.7903  -30.7244   24.2356 H   0  0  0  0  0  0
  -17.4983  -31.6319   24.5123 H   0  0  0  0  0  0
  -15.5326  -30.3014   23.7673 H   0  0  0  0  0  0
  -15.8639  -28.0851   22.7094 H   0  0  0  0  0  0
  -24.6098  -30.6787   25.7740 H   0  0  0  0  0  0
  -24.8854  -32.2750   26.4688 H   0  0  0  0  0  0
  -25.8184  -30.8944   27.0193 H   0  0  0  0  0  0
  -26.2876  -29.6722   24.1055 H   0  0  0  0  0  0
  -27.4344  -29.7231   25.4265 H   0  0  0  0  0  0
  -27.8598  -30.4393   23.8886 H   0  0  0  0  0  0
  -27.2802  -33.3644   26.1800 H   0  0  0  0  0  0
  -28.4072  -32.6520   25.0318 H   0  0  0  0  0  0
  -28.0583  -31.8404   26.5480 H   0  0  0  0  0  0
  -28.2462  -38.0182   24.7643 H   0  0  0  0  0  0
  -28.1191  -36.2720   24.6045 H   0  0  0  0  0  0
  -27.2307  -37.1116   25.8833 H   0  0  0  0  0  0
  -20.9195  -29.8758   21.6946 H   0  0  0  0  0  0
  -26.0119  -38.2803   24.1594 H   0  0  0  0  0  0
  -29.0213  -18.1631   25.9213 H   0  0  0  0  0  0
  -29.0300  -20.3427   24.8403 H   0  0  0  0  0  0
  -31.0723  -18.6480   21.4345 H   0  0  0  0  0  0
  -31.2513  -14.8690   26.6780 H   0  0  0  0  0  0
  -31.0318  -16.6011   26.9116 H   0  0  0  0  0  0
  -32.1836  -16.0144   25.7149 H   0  0  0  0  0  0
  -26.0512  -23.8090   22.1713 H   0  0  0  0  0  0
  -25.9725  -24.0239   20.4303 H   0  0  0  0  0  0
  -25.8744  -25.4091   21.5279 H   0  0  0  0  0  0
  -30.2160  -14.9709   24.4427 H   0  0  0  0  0  0
  -29.1276  -15.6816   25.5904 H   0  0  0  0  0  0
  -32.0441  -15.6475   23.0590 H   0  0  0  0  0  0
  -32.0137  -16.5471   21.5803 H   0  0  0  0  0  0
  -30.1383  -24.1623   22.6556 H   0  0  0  0  0  0
  -30.7507  -23.2268   21.3228 H   0  0  0  0  0  0
  -27.9327  -22.5969   22.0844 H   0  0  0  0  0  0
  -28.6071  -22.6908   20.4995 H   0  0  0  0  0  0
  -29.4183  -22.1309   23.8372 H   0  0  0  0  0  0
  -31.1563  -22.1686   23.5773 H   0  0  0  0  0  0
  -27.9344  -24.9774   19.1078 H   0  0  0  0  0  0
  -29.4657  -25.0779   19.8856 H   0  0  0  0  0  0
  -28.1791  -25.1986   22.1654 H   0  0  0  0  0  0
  -29.6683  -14.8259   22.3013 H   0  0  0  0  0  0
  1 25  1  0  0  0
  1 30  2  0  0  0
  1 86  1  0  0  0
  2  3  1  0  0  0
  2 25  1  0  0  0
  2 88  1  0  0  0
  2 89  1  0  0  0
  3  4  1  0  0  0
  3 90  1  0  0  0
  3 91  1  0  0  0
  4  5  1  0  0  0
  4 92  1  0  0  0
  4 93  1  0  0  0
  5  6  1  0  0  0
  5 26  1  0  0  0
  5 94  1  0  0  0
  6 25  1  0  0  0
  6 95  1  0  0  0
  6 96  1  0  0  0
  7  8  2  0  0  0
  7 26  1  0  0  0
  7 29  1  0  0  0
  8  9  1  0  0  0
  8 22  1  0  0  0
  9 10  1  0  0  0
  9 27  2  0  0  0
 10 11  2  0  0  0
 10 15  1  0  0  0
 11 12  1  0  0  0
 11 97  1  0  0  0
 12 13  2  0  0  0
 12 98  1  0  0  0
 13 14  1  0  0  0
 13 31  1  0  0  0
 14 15  2  0  0  0
 14 99  1  0  0  0
 15100  1  0  0  0
 16 17  2  0  0  0
 16 21  1  0  0  0
 16 31  1  0  0  0
 17 18  1  0  0  0
 17101  1  0  0  0
 18 19  2  0  0  0
 18102  1  0  0  0
 19 20  1  0  0  0
 19 24  1  0  0  0
 20 21  2  0  0  0
 20103  1  0  0  0
 21 23  1  0  0  0
 22 28  1  0  0  0
 22 32  2  0  0  0
 26 27  1  0  0  0
 28104  1  0  0  0
 28105  1  0  0  0
 29106  1  0  0  0
 29107  1  0  0  0
 33 34  1  0  0  0
 33 66  1  0  0  0
 33 70  2  0  0  0
 34 36  1  0  0  0
 34 59  1  0  0  0
 34108  1  0  0  0
 35 44  2  0  0  0
 35 45  1  0  0  0
 35 68  1  0  0  0
 36 56  1  0  0  0
 36109  1  0  0  0
 37 39  1  0  0  0
 37 47  1  0  0  0
 37 66  1  0  0  0
 37110  1  0  0  0
 38 43  2  0  0  0
 38 46  1  0  0  0
 38 47  1  0  0  0
 39 64  1  0  0  0
 39 67  2  0  0  0
 40 52  1  0  0  0
 40 53  2  0  0  0
 40 58  1  0  0  0
 41111  1  0  0  0
 41112  1  0  0  0
 41113  1  0  0  0
 41 48  1  0  0  0
 42 43  1  0  0  0
 42 66  1  0  0  0
 42114  1  0  0  0
 42115  1  0  0  0
 43 44  1  0  0  0
 44116  1  0  0  0
 45 46  2  0  0  0
 45117  1  0  0  0
 46118  1  0  0  0
 47119  1  0  0  0
 47120  1  0  0  0
 48 56  1  0  0  0
 48 65  1  0  0  0
 48121  1  0  0  0
 49 50  1  0  0  0
 49 53  1  0  0  0
 49 64  1  0  0  0
 49122  1  0  0  0
 50 51  1  0  0  0
 50123  1  0  0  0
 50124  1  0  0  0
 51 52  1  0  0  0
 51125  1  0  0  0
 51126  1  0  0  0
 52127  1  0  0  0
 52128  1  0  0  0
 53 54  1  0  0  0
 54 55  2  0  0  0
 54129  1  0  0  0
 55 57  1  0  0  0
 55130  1  0  0  0
 56 69  2  0  0  0
 57 58  2  0  0  0
 57131  1  0  0  0
 58132  1  0  0  0
 59 60  1  0  0  0
 59 61  1  0  0  0
 59 62  1  0  0  0
 60133  1  0  0  0
 60134  1  0  0  0
 60135  1  0  0  0
 61136  1  0  0  0
 61137  1  0  0  0
 61138  1  0  0  0
 62139  1  0  0  0
 62140  1  0  0  0
 62141  1  0  0  0
 63 65  1  0  0  0
 63142  1  0  0  0
 63143  1  0  0  0
 63144  1  0  0  0
 64145  1  0  0  0
 65146  1  0  0  0
 68 84  1  0  0  0
 71 72  2  0  0  0
 71 74  1  0  0  0
 71147  1  0  0  0
 72 76  1  0  0  0
 72148  1  0  0  0
 73 75  1  0  0  0
 73 76  2  0  0  0
 73149  1  0  0  0
 74 75  2  0  0  0
 74 79  1  0  0  0
 75 80  1  0  0  0
 76 87  1  0  0  0
 77 79  1  0  0  0
 77150  1  0  0  0
 77151  1  0  0  0
 77152  1  0  0  0
 78153  1  0  0  0
 78154  1  0  0  0
 78155  1  0  0  0
 78 85  1  0  0  0
 79156  1  0  0  0
 79157  1  0  0  0
 80 86  1  0  0  0
 80158  1  0  0  0
 80159  1  0  0  0
 81 82  1  0  0  0
 81 83  1  0  0  0
 81160  1  0  0  0
 81161  1  0  0  0
 82 85  1  0  0  0
 82162  1  0  0  0
 82163  1  0  0  0
 83 87  1  0  0  0
 83164  1  0  0  0
 83165  1  0  0  0
 84 85  1  0  0  0
 84166  1  0  0  0
 84167  1  0  0  0
 85168  1  0  0  0
 86169  1  0  0  0
M  ISO  4   1 100  68 101  84 101  86 100
M  END
> <chiral flag>
0

> <version>
0

> <s_m_source_file>
/data/baiqing/PycharmProjects/Reinvent-master-3.2/result/LINK_invent/BTK/process_docking_weight1_custom_product_contain_oxygen_bond_distance_aromatic_linkinvent_7_9_3/rearranged_h_0133.sdf

> <i_m_source_file_index>
82

> <r_mmod_Potential_Energy-OPLS-2005>
-84.2457580566406

> <r_mmod_Stretch_Energy-OPLS-2005>
34.9186706542969

> <r_mmod_Bend_Energy-OPLS-2005>
110.981986999512

> <r_mmod_Torsional_Energy-OPLS-2005>
221.685928344727

> <r_mmod_Improper_Torsional_Energy-OPLS-2005>
2.72601199150085

> <r_mmod_Van_der_Waal_Energy-OPLS-2005>
163.100616455078

> <r_mmod_Electrostatic_Energy-OPLS-2005>
-427.873687744141

> <r_mmod_Solvation_Energy-OPLS-2005>
-198.764190673828

> <b_mmod_Minimization_Converged-OPLS-2005>
0

> <r_mmod_RMS_Derivative-OPLS-2005>
3.55879306793213

$$$$
82
                    3D
 Structure written by MMmdl.
170178  0  0  1  0            999 V2000
  -30.6991  -14.3860   20.6271 C   0  0  0  0  0  0
  -30.4249  -12.2830   19.3664 C   0  0  0  0  0  0
  -29.4816  -12.5320   18.1731 C   0  0  0  0  0  0
  -28.0014  -12.3946   18.5891 C   0  0  0  0  0  0
  -27.6656  -13.1916   19.8789 C   0  0  2  0  0  0
  -28.7094  -12.8914   20.9763 C   0  0  0  0  0  0
  -25.2626  -13.8129   20.5662 C   0  0  0  0  0  0
  -24.1864  -13.0422   20.9166 C   0  0  0  0  0  0
  -24.6394  -11.6878   20.8738 C   0  0  0  0  0  0
  -23.9048  -10.4272   21.0400 C   0  0  0  0  0  0
  -24.3606   -9.4196   21.9179 C   0  0  0  0  0  0
  -23.6288   -8.2238   22.0751 C   0  0  0  0  0  0
  -22.4274   -8.0278   21.3549 C   0  0  0  0  0  0
  -21.9898   -9.0246   20.4651 C   0  0  0  0  0  0
  -22.7219  -10.2124   20.3048 C   0  0  0  0  0  0
  -21.6845   -6.0735   22.5286 C   0  0  0  0  0  0
  -21.4009   -6.5641   23.8226 C   0  0  0  0  0  0
  -21.3659   -5.6790   24.9187 C   0  0  0  0  0  0
  -21.6046   -4.3054   24.7237 C   0  0  0  0  0  0
  -21.8814   -3.8148   23.4359 C   0  0  0  0  0  0
  -21.9195   -4.6963   22.3412 C   0  0  0  0  0  0
  -22.7891  -13.5247   21.1853 C   0  0  0  0  0  0
  -22.1659   -4.2152   21.0994 F   0  0  0  0  0  0
  -21.5634   -3.4536   25.7750 F   0  0  0  0  0  0
  -30.0374  -13.2197   20.4245 N   0  0  0  0  0  0
  -26.3043  -12.9263   20.3365 N   0  0  0  0  0  0
  -25.9311  -11.6441   20.5745 N   0  0  0  0  0  0
  -22.0520  -12.8242   22.0398 N   0  0  0  0  0  0
  -25.4360  -15.1839   20.4064 N   0  0  0  0  0  0
  -31.8095  -14.6463   20.1521 O   0  0  0  0  0  0
  -21.6641   -6.8875   21.4248 O   0  0  0  0  0  0
  -22.3580  -14.5555   20.6702 O   0  0  0  0  0  0
  -24.6100  -31.8691   23.2102 C   0  0  0  0  0  0
  -25.9002  -32.4834   23.8390 C   0  0  1  0  0  0
  -27.2396  -27.4778   20.0876 C   0  0  0  0  0  0
  -25.5853  -33.8638   24.2315 N   0  0  0  0  0  0
  -23.3971  -30.4906   21.5483 C   0  0  2  0  0  0
  -24.8454  -28.9584   20.1150 C   0  0  0  0  0  0
  -22.7395  -29.4649   22.4993 C   0  0  0  0  0  0
  -18.0261  -28.1395   22.8474 C   0  0  0  0  0  0
  -24.1472  -36.7329   23.2639 C   0  0  0  0  0  0
  -25.9212  -30.8500   21.3523 C   0  0  0  0  0  0
  -26.0018  -29.4847   20.7054 C   0  0  0  0  0  0
  -27.2061  -28.7498   20.6879 C   0  0  0  0  0  0
  -26.0726  -26.9504   19.5004 C   0  0  0  0  0  0
  -24.8711  -27.6876   19.5126 C   0  0  0  0  0  0
  -23.6037  -29.8187   20.1641 C   0  0  0  0  0  0
  -25.4099  -36.3130   24.0328 C   0  0  1  0  0  0
  -20.5853  -28.3634   23.1337 C   0  0  2  0  0  0
  -20.6762  -26.9379   22.5422 C   0  0  0  0  0  0
  -19.5748  -26.6386   21.5213 C   0  0  0  0  0  0
  -18.1919  -26.7942   22.1607 C   0  0  0  0  0  0
  -19.1515  -28.8828   23.2903 C   0  0  0  0  0  0
  -18.9447  -30.1456   23.8885 C   0  0  0  0  0  0
  -17.6448  -30.6588   24.0568 C   0  0  0  0  0  0
  -25.9007  -34.9496   23.5129 C   0  0  0  0  0  0
  -16.5339  -29.9086   23.6342 C   0  0  0  0  0  0
  -16.7249  -28.6524   23.0322 C   0  0  0  0  0  0
  -26.4451  -31.6618   25.0713 C   0  0  0  0  0  0
  -25.3754  -31.3736   26.1484 C   0  0  0  0  0  0
  -27.0293  -30.3069   24.6066 C   0  0  0  0  0  0
  -27.6015  -32.4346   25.7481 C   0  0  0  0  0  0
  -27.5577  -37.1816   24.8472 C   0  0  0  0  0  0
  -21.4119  -29.3011   22.3746 N   0  0  0  0  0  0
  -26.4288  -37.3810   23.9409 N   0  0  0  0  0  0
  -24.6603  -31.0854   22.0960 N   0  0  0  0  0  0
  -23.4195  -28.8186   23.3006 O   0  0  0  0  0  0
  -28.4053  -26.7598   20.0571 O   0  0  0  0  0  0
  -26.5617  -34.8940   22.4713 O   0  0  0  0  0  0
  -23.5301  -32.1388   23.7525 O   0  0  0  0  0  0
  -31.0335  -18.2257   24.0810 C   0  0  0  0  0  0
  -30.9897  -15.8972   23.3671 C   0  0  0  0  0  0
  -30.1321  -17.6436   21.8892 C   0  0  0  0  0  0
  -31.2894  -16.8662   24.3426 C   0  0  0  0  0  0
  -30.4413  -18.6156   22.8615 C   0  0  0  0  0  0
  -30.4154  -16.2865   22.1402 C   0  0  0  0  0  0
  -29.1674  -23.2728   21.3004 C   0  0  0  0  0  0
  -30.7060  -15.7344   26.5144 C   0  0  0  0  0  0
  -28.9277  -22.4936   24.3797 C   0  0  0  0  0  0
  -31.8058  -16.4235   25.6957 C   0  0  0  0  0  0
  -30.0535  -20.0650   22.6365 C   0  0  0  0  0  0
  -28.9029  -24.4047   20.3068 C   0  0  0  0  0  0
  -27.9407  -22.6310   21.9791 C   0  0  0  0  0  0
  -28.5898  -20.3108   23.0428 C   0  0  0  0  0  0
  -28.4605  -25.6984   21.0073 C   0  0  0  0  0  0
  -28.1496  -21.7779   23.2603 C   0  0  1  0  0  0
  -29.9525  -15.3058   21.2471 N   0  0  0  0  0  0
  -30.3219  -22.9013   21.5176 O   0  0  0  0  0  0
  -31.4666  -12.4044   19.0616 H   0  0  0  0  0  0
  -30.3352  -11.2545   19.7174 H   0  0  0  0  0  0
  -29.7085  -11.8421   17.3598 H   0  0  0  0  0  0
  -29.6547  -13.5351   17.7772 H   0  0  0  0  0  0
  -27.7923  -11.3350   18.7380 H   0  0  0  0  0  0
  -27.3529  -12.7188   17.7739 H   0  0  0  0  0  0
  -27.7311  -14.2501   19.6285 H   0  0  0  0  0  0
  -28.6831  -11.8319   21.2392 H   0  0  0  0  0  0
  -28.4778  -13.4157   21.9047 H   0  0  0  0  0  0
  -25.2744   -9.5689   22.4755 H   0  0  0  0  0  0
  -24.0008   -7.4627   22.7452 H   0  0  0  0  0  0
  -21.0834   -8.8746   19.8953 H   0  0  0  0  0  0
  -22.3660  -10.9667   19.6162 H   0  0  0  0  0  0
  -21.1987   -7.6145   23.9732 H   0  0  0  0  0  0
  -21.1488   -6.0524   25.9097 H   0  0  0  0  0  0
  -22.0595   -2.7609   23.2862 H   0  0  0  0  0  0
  -22.4113  -11.9885   22.4789 H   0  0  0  0  0  0
  -21.1143  -13.1278   22.2606 H   0  0  0  0  0  0
  -24.6684  -15.8379   20.5139 H   0  0  0  0  0  0
  -26.2898  -15.6261   20.0899 H   0  0  0  0  0  0
  -26.7081  -32.5562   23.1173 H   0  0  0  0  0  0
  -25.0025  -33.9818   25.0464 H   0  0  0  0  0  0
  -22.6846  -31.3067   21.4106 H   0  0  0  0  0  0
  -23.3733  -35.9668   23.3340 H   0  0  0  0  0  0
  -24.3558  -36.8918   22.2048 H   0  0  0  0  0  0
  -23.7238  -37.6545   23.6639 H   0  0  0  0  0  0
  -26.0311  -31.6116   20.5778 H   0  0  0  0  0  0
  -26.8124  -30.9097   21.9650 H   0  0  0  0  0  0
  -28.1063  -29.1530   21.1328 H   0  0  0  0  0  0
  -26.0965  -25.9779   19.0307 H   0  0  0  0  0  0
  -23.9804  -27.2723   19.0603 H   0  0  0  0  0  0
  -23.7088  -30.5941   19.4040 H   0  0  0  0  0  0
  -22.7287  -29.2351   19.8698 H   0  0  0  0  0  0
  -25.1293  -36.1999   25.0826 H   0  0  0  0  0  0
  -20.9949  -28.3201   24.1449 H   0  0  0  0  0  0
  -20.5691  -26.2226   23.3591 H   0  0  0  0  0  0
  -21.6632  -26.7447   22.1200 H   0  0  0  0  0  0
  -19.6905  -25.6307   21.1214 H   0  0  0  0  0  0
  -19.6715  -27.3218   20.6770 H   0  0  0  0  0  0
  -17.4203  -26.6675   21.4001 H   0  0  0  0  0  0
  -18.0310  -26.0109   22.9020 H   0  0  0  0  0  0
  -19.7925  -30.7300   24.2217 H   0  0  0  0  0  0
  -17.5002  -31.6258   24.5200 H   0  0  0  0  0  0
  -15.5346  -30.2988   23.7691 H   0  0  0  0  0  0
  -15.8646  -28.0872   22.7002 H   0  0  0  0  0  0
  -24.5884  -30.7116   25.7857 H   0  0  0  0  0  0
  -24.8998  -32.2907   26.4968 H   0  0  0  0  0  0
  -25.8112  -30.8884   27.0230 H   0  0  0  0  0  0
  -26.2825  -29.6808   24.1156 H   0  0  0  0  0  0
  -27.4160  -29.7316   25.4501 H   0  0  0  0  0  0
  -27.8609  -30.4429   23.9149 H   0  0  0  0  0  0
  -27.2599  -33.3619   26.2095 H   0  0  0  0  0  0
  -28.3784  -32.6960   25.0291 H   0  0  0  0  0  0
  -28.0722  -31.8470   26.5376 H   0  0  0  0  0  0
  -28.2631  -38.0083   24.7521 H   0  0  0  0  0  0
  -28.1035  -36.2623   24.6293 H   0  0  0  0  0  0
  -27.2307  -37.1493   25.8881 H   0  0  0  0  0  0
  -20.9271  -29.8734   21.6973 H   0  0  0  0  0  0
  -26.0184  -38.2894   24.1412 H   0  0  0  0  0  0
  -31.2433  -18.9674   24.8389 H   0  0  0  0  0  0
  -31.1514  -14.8504   23.5873 H   0  0  0  0  0  0
  -29.6395  -17.9348   20.9704 H   0  0  0  0  0  0
  -31.0851  -15.4032   27.4810 H   0  0  0  0  0  0
  -30.3165  -14.8579   25.9940 H   0  0  0  0  0  0
  -29.8692  -16.4085   26.7002 H   0  0  0  0  0  0
  -28.9157  -21.9047   25.2991 H   0  0  0  0  0  0
  -28.4781  -23.4602   24.6082 H   0  0  0  0  0  0
  -29.9688  -22.6738   24.1152 H   0  0  0  0  0  0
  -32.1964  -17.2808   26.2446 H   0  0  0  0  0  0
  -32.6435  -15.7400   25.5500 H   0  0  0  0  0  0
  -30.2045  -20.3238   21.5877 H   0  0  0  0  0  0
  -30.7251  -20.6995   23.2140 H   0  0  0  0  0  0
  -28.1467  -24.0854   19.5906 H   0  0  0  0  0  0
  -29.8181  -24.5845   19.7433 H   0  0  0  0  0  0
  -27.4104  -22.0418   21.2305 H   0  0  0  0  0  0
  -27.2663  -23.4448   22.2436 H   0  0  0  0  0  0
  -28.4102  -19.7832   23.9820 H   0  0  0  0  0  0
  -27.9300  -19.8302   22.3166 H   0  0  0  0  0  0
  -29.1753  -25.9798   21.7811 H   0  0  0  0  0  0
  -27.5042  -25.5491   21.5154 H   0  0  0  0  0  0
  -27.1392  -21.6786   23.6599 H   0  0  0  0  0  0
  -28.9947  -15.0206   21.3876 H   0  0  0  0  0  0
  1 25  1  0  0  0
  1 30  2  0  0  0
  1 87  1  0  0  0
  2  3  1  0  0  0
  2 25  1  0  0  0
  2 89  1  0  0  0
  2 90  1  0  0  0
  3  4  1  0  0  0
  3 91  1  0  0  0
  3 92  1  0  0  0
  4  5  1  0  0  0
  4 93  1  0  0  0
  4 94  1  0  0  0
  5  6  1  0  0  0
  5 26  1  0  0  0
  5 95  1  0  0  0
  6 25  1  0  0  0
  6 96  1  0  0  0
  6 97  1  0  0  0
  7  8  2  0  0  0
  7 26  1  0  0  0
  7 29  1  0  0  0
  8  9  1  0  0  0
  8 22  1  0  0  0
  9 10  1  0  0  0
  9 27  2  0  0  0
 10 11  2  0  0  0
 10 15  1  0  0  0
 11 12  1  0  0  0
 11 98  1  0  0  0
 12 13  2  0  0  0
 12 99  1  0  0  0
 13 14  1  0  0  0
 13 31  1  0  0  0
 14 15  2  0  0  0
 14100  1  0  0  0
 15101  1  0  0  0
 16 17  2  0  0  0
 16 21  1  0  0  0
 16 31  1  0  0  0
 17 18  1  0  0  0
 17102  1  0  0  0
 18 19  2  0  0  0
 18103  1  0  0  0
 19 20  1  0  0  0
 19 24  1  0  0  0
 20 21  2  0  0  0
 20104  1  0  0  0
 21 23  1  0  0  0
 22 28  1  0  0  0
 22 32  2  0  0  0
 26 27  1  0  0  0
 28105  1  0  0  0
 28106  1  0  0  0
 29107  1  0  0  0
 29108  1  0  0  0
 33 34  1  0  0  0
 33 66  1  0  0  0
 33 70  2  0  0  0
 34 36  1  0  0  0
 34 59  1  0  0  0
 34109  1  0  0  0
 35 44  2  0  0  0
 35 45  1  0  0  0
 35 68  1  0  0  0
 36 56  1  0  0  0
 36110  1  0  0  0
 37 39  1  0  0  0
 37 47  1  0  0  0
 37 66  1  0  0  0
 37111  1  0  0  0
 38 43  2  0  0  0
 38 46  1  0  0  0
 38 47  1  0  0  0
 39 64  1  0  0  0
 39 67  2  0  0  0
 40 52  1  0  0  0
 40 53  2  0  0  0
 40 58  1  0  0  0
 41112  1  0  0  0
 41113  1  0  0  0
 41114  1  0  0  0
 41 48  1  0  0  0
 42 43  1  0  0  0
 42 66  1  0  0  0
 42115  1  0  0  0
 42116  1  0  0  0
 43 44  1  0  0  0
 44117  1  0  0  0
 45 46  2  0  0  0
 45118  1  0  0  0
 46119  1  0  0  0
 47120  1  0  0  0
 47121  1  0  0  0
 48 56  1  0  0  0
 48 65  1  0  0  0
 48122  1  0  0  0
 49 50  1  0  0  0
 49 53  1  0  0  0
 49 64  1  0  0  0
 49123  1  0  0  0
 50 51  1  0  0  0
 50124  1  0  0  0
 50125  1  0  0  0
 51 52  1  0  0  0
 51126  1  0  0  0
 51127  1  0  0  0
 52128  1  0  0  0
 52129  1  0  0  0
 53 54  1  0  0  0
 54 55  2  0  0  0
 54130  1  0  0  0
 55 57  1  0  0  0
 55131  1  0  0  0
 56 69  2  0  0  0
 57 58  2  0  0  0
 57132  1  0  0  0
 58133  1  0  0  0
 59 60  1  0  0  0
 59 61  1  0  0  0
 59 62  1  0  0  0
 60134  1  0  0  0
 60135  1  0  0  0
 60136  1  0  0  0
 61137  1  0  0  0
 61138  1  0  0  0
 61139  1  0  0  0
 62140  1  0  0  0
 62141  1  0  0  0
 62142  1  0  0  0
 63 65  1  0  0  0
 63143  1  0  0  0
 63144  1  0  0  0
 63145  1  0  0  0
 64146  1  0  0  0
 65147  1  0  0  0
 68 85  1  0  0  0
 71 74  2  0  0  0
 71 75  1  0  0  0
 71148  1  0  0  0
 72 74  1  0  0  0
 72 76  2  0  0  0
 72149  1  0  0  0
 73 75  2  0  0  0
 73 76  1  0  0  0
 73150  1  0  0  0
 74 80  1  0  0  0
 75 81  1  0  0  0
 76 87  1  0  0  0
 77 82  1  0  0  0
 77 83  1  0  0  0
 77 88  2  0  0  0
 78 80  1  0  0  0
 78151  1  0  0  0
 78152  1  0  0  0
 78153  1  0  0  0
 79154  1  0  0  0
 79155  1  0  0  0
 79156  1  0  0  0
 79 86  1  0  0  0
 80157  1  0  0  0
 80158  1  0  0  0
 81 84  1  0  0  0
 81159  1  0  0  0
 81160  1  0  0  0
 82 85  1  0  0  0
 82161  1  0  0  0
 82162  1  0  0  0
 83 86  1  0  0  0
 83163  1  0  0  0
 83164  1  0  0  0
 84 86  1  0  0  0
 84165  1  0  0  0
 84166  1  0  0  0
 85167  1  0  0  0
 85168  1  0  0  0
 86169  1  0  0  0
 87170  1  0  0  0
M  ISO  4   1 100  68 101  85 101  87 100
M  END
> <chiral flag>
0

> <version>
0

> <s_m_source_file>
/data/baiqing/PycharmProjects/Reinvent-master-3.2/result/LINK_invent/BTK/process_docking_weight1_custom_product_contain_oxygen_bond_distance_aromatic_linkinvent_7_9_3/rearranged_h_0133.sdf

> <i_m_source_file_index>
83

> <r_mmod_Potential_Energy-OPLS-2005>
-18.5391139984131

> <r_mmod_Stretch_Energy-OPLS-2005>
31.5121212005615

> <r_mmod_Bend_Energy-OPLS-2005>
100.615631103516

> <r_mmod_Torsional_Energy-OPLS-2005>
264.791198730469

> <r_mmod_Improper_Torsional_Energy-OPLS-2005>
6.53439378738403

> <r_mmod_Van_der_Waal_Energy-OPLS-2005>
146.655960083008

> <r_mmod_Electrostatic_Energy-OPLS-2005>
-367

> <r_mmod_Solvation_Energy-OPLS-2005>
-210.26220703125

> <b_mmod_Minimization_Converged-OPLS-2005>
0

> <r_mmod_RMS_Derivative-OPLS-2005>
3.20081305503845

$$$$
83
                    3D
 Structure written by MMmdl.
168176  0  0  1  0            999 V2000
  -30.6528  -14.5666   20.4531 C   0  0  0  0  0  0
  -30.4491  -12.3446   19.4300 C   0  0  0  0  0  0
  -29.5014  -12.4243   18.2143 C   0  0  0  0  0  0
  -28.0175  -12.3195   18.6324 C   0  0  0  0  0  0
  -27.6576  -13.1711   19.8799 C   0  0  2  0  0  0
  -28.7159  -13.0289   20.9930 C   0  0  0  0  0  0
  -25.2632  -13.8056   20.5728 C   0  0  0  0  0  0
  -24.1837  -13.0387   20.9150 C   0  0  0  0  0  0
  -24.6297  -11.6839   20.8705 C   0  0  0  0  0  0
  -23.8939  -10.4244   21.0342 C   0  0  0  0  0  0
  -24.3524   -9.4180   21.9131 C   0  0  0  0  0  0
  -23.6258   -8.2182   22.0682 C   0  0  0  0  0  0
  -22.4233   -8.0213   21.3509 C   0  0  0  0  0  0
  -21.9834   -9.0145   20.4589 C   0  0  0  0  0  0
  -22.7106  -10.2049   20.3015 C   0  0  0  0  0  0
  -21.6815   -6.0700   22.5257 C   0  0  0  0  0  0
  -21.3966   -6.5611   23.8195 C   0  0  0  0  0  0
  -21.3691   -5.6770   24.9172 C   0  0  0  0  0  0
  -21.6074   -4.3030   24.7200 C   0  0  0  0  0  0
  -21.8856   -3.8117   23.4308 C   0  0  0  0  0  0
  -21.9204   -4.6944   22.3378 C   0  0  0  0  0  0
  -22.7881  -13.5217   21.1843 C   0  0  0  0  0  0
  -22.1676   -4.2151   21.0950 F   0  0  0  0  0  0
  -21.5653   -3.4524   25.7707 F   0  0  0  0  0  0
  -30.0161  -13.3617   20.3951 N   0  0  0  0  0  0
  -26.3028  -12.9131   20.3488 N   0  0  0  0  0  0
  -25.9239  -11.6323   20.5858 N   0  0  0  0  0  0
  -22.0532  -12.8181   22.0394 N   0  0  0  0  0  0
  -25.4506  -15.1765   20.4067 N   0  0  0  0  0  0
  -31.8458  -14.6889   20.1778 O   0  0  0  0  0  0
  -21.6590   -6.8811   21.4219 O   0  0  0  0  0  0
  -22.3635  -14.5568   20.6768 O   0  0  0  0  0  0
  -24.6144  -31.8654   23.2073 C   0  0  0  0  0  0
  -25.9033  -32.4829   23.8386 C   0  0  1  0  0  0
  -27.2868  -27.4719   20.0667 C   0  0  0  0  0  0
  -25.5883  -33.8623   24.2335 N   0  0  0  0  0  0
  -23.4078  -30.4836   21.5445 C   0  0  2  0  0  0
  -24.8655  -28.9480   20.1070 C   0  0  0  0  0  0
  -22.7418  -29.4651   22.4963 C   0  0  0  0  0  0
  -18.0274  -28.1403   22.8492 C   0  0  0  0  0  0
  -24.1483  -36.7326   23.2643 C   0  0  0  0  0  0
  -25.9323  -30.8362   21.3584 C   0  0  0  0  0  0
  -26.0153  -29.4702   20.7098 C   0  0  0  0  0  0
  -27.2185  -28.7307   20.7018 C   0  0  0  0  0  0
  -26.1197  -26.9523   19.4622 C   0  0  0  0  0  0
  -24.9107  -27.6846   19.4842 C   0  0  0  0  0  0
  -23.6197  -29.8073   20.1601 C   0  0  0  0  0  0
  -25.4100  -36.3132   24.0354 C   0  0  1  0  0  0
  -20.5866  -28.3687   23.1319 C   0  0  2  0  0  0
  -20.6779  -26.9420   22.5422 C   0  0  0  0  0  0
  -19.5754  -26.6402   21.5227 C   0  0  0  0  0  0
  -18.1927  -26.7956   22.1625 C   0  0  0  0  0  0
  -19.1525  -28.8860   23.2905 C   0  0  0  0  0  0
  -18.9451  -30.1469   23.8911 C   0  0  0  0  0  0
  -17.6453  -30.6608   24.0575 C   0  0  0  0  0  0
  -25.9022  -34.9491   23.5143 C   0  0  0  0  0  0
  -16.5340  -29.9108   23.6343 C   0  0  0  0  0  0
  -16.7263  -28.6533   23.0341 C   0  0  0  0  0  0
  -26.4454  -31.6608   25.0716 C   0  0  0  0  0  0
  -25.3714  -31.3714   26.1462 C   0  0  0  0  0  0
  -27.0306  -30.3068   24.6087 C   0  0  0  0  0  0
  -27.6051  -32.4311   25.7461 C   0  0  0  0  0  0
  -27.5585  -37.1818   24.8464 C   0  0  0  0  0  0
  -21.4144  -29.3033   22.3700 N   0  0  0  0  0  0
  -26.4298  -37.3807   23.9411 N   0  0  0  0  0  0
  -24.6698  -31.0753   22.0971 N   0  0  0  0  0  0
  -23.4178  -28.8205   23.3030 O   0  0  0  0  0  0
  -28.4839  -26.7844   20.1272 O   0  0  0  0  0  0
  -26.5582  -34.8936   22.4706 O   0  0  0  0  0  0
  -23.5335  -32.1399   23.7455 O   0  0  0  0  0  0
  -29.4440  -19.6616   16.9309 C   0  0  0  0  0  0
  -28.7671  -18.4389   17.0336 C   0  0  0  0  0  0
  -30.5963  -19.1643   19.0119 C   0  0  0  0  0  0
  -30.3680  -20.0405   17.9174 C   0  0  0  0  0  0
  -29.0099  -17.5613   18.1136 C   0  0  0  0  0  0
  -29.9359  -17.9102   19.1402 C   0  0  0  0  0  0
  -28.2395  -16.2733   18.1223 C   0  0  0  0  0  0
  -33.0714  -24.0138   19.6955 C   0  0  0  0  0  0
  -31.1062  -21.3683   17.7172 C   0  0  0  0  0  0
  -30.2463  -17.0770   20.4247 C   0  0  0  0  0  0
  -31.4083  -22.2022   18.9750 C   0  0  0  0  0  0
  -30.2690  -25.3240   19.4112 C   0  0  0  0  0  0
  -31.0345  -24.6658   18.2372 C   0  0  0  0  0  0
  -28.9857  -26.0847   18.9859 C   0  0  0  0  0  0
  -32.0658  -23.5650   18.6191 C   0  0  1  0  0  0
  -29.8485  -15.6490   20.5646 N   0  0  0  0  0  0
  -31.4748  -12.5068   19.0910 H   0  0  0  0  0  0
  -30.4332  -11.3610   19.8973 H   0  0  0  0  0  0
  -29.7403  -11.6255   17.5080 H   0  0  0  0  0  0
  -29.6753  -13.3529   17.6743 H   0  0  0  0  0  0
  -27.7898  -11.2701   18.8281 H   0  0  0  0  0  0
  -27.3815  -12.6050   17.7936 H   0  0  0  0  0  0
  -27.6784  -14.2027   19.5672 H   0  0  0  0  0  0
  -28.7309  -12.0029   21.3736 H   0  0  0  0  0  0
  -28.5045  -13.6741   21.8444 H   0  0  0  0  0  0
  -25.2631   -9.5739   22.4754 H   0  0  0  0  0  0
  -24.0040   -7.4549   22.7355 H   0  0  0  0  0  0
  -21.0785   -8.8560   19.8863 H   0  0  0  0  0  0
  -22.3454  -10.9590   19.6160 H   0  0  0  0  0  0
  -21.1861   -7.6103   23.9702 H   0  0  0  0  0  0
  -21.1530   -6.0458   25.9081 H   0  0  0  0  0  0
  -22.0618   -2.7581   23.2763 H   0  0  0  0  0  0
  -22.4095  -11.9809   22.4783 H   0  0  0  0  0  0
  -21.1186  -13.1293   22.2670 H   0  0  0  0  0  0
  -24.6873  -15.8456   20.4138 H   0  0  0  0  0  0
  -26.3226  -15.5766   20.0919 H   0  0  0  0  0  0
  -26.7122  -32.5556   23.1171 H   0  0  0  0  0  0
  -25.0063  -33.9767   25.0501 H   0  0  0  0  0  0
  -22.6999  -31.3015   21.3986 H   0  0  0  0  0  0
  -23.3749  -35.9655   23.3315 H   0  0  0  0  0  0
  -24.3586  -36.8914   22.2056 H   0  0  0  0  0  0
  -23.7220  -37.6535   23.6627 H   0  0  0  0  0  0
  -26.0328  -31.5977   20.5829 H   0  0  0  0  0  0
  -26.8249  -30.9020   21.9695 H   0  0  0  0  0  0
  -28.1067  -29.1295   21.1720 H   0  0  0  0  0  0
  -26.1321  -25.9814   18.9897 H   0  0  0  0  0  0
  -24.0284  -27.2724   19.0150 H   0  0  0  0  0  0
  -23.7205  -30.5807   19.3974 H   0  0  0  0  0  0
  -22.7481  -29.2193   19.8682 H   0  0  0  0  0  0
  -25.1273  -36.2022   25.0852 H   0  0  0  0  0  0
  -20.9974  -28.3271   24.1431 H   0  0  0  0  0  0
  -20.5726  -26.2286   23.3605 H   0  0  0  0  0  0
  -21.6640  -26.7499   22.1182 H   0  0  0  0  0  0
  -19.6914  -25.6320   21.1247 H   0  0  0  0  0  0
  -19.6709  -27.3226   20.6772 H   0  0  0  0  0  0
  -17.4209  -26.6725   21.4008 H   0  0  0  0  0  0
  -18.0302  -26.0092   22.9012 H   0  0  0  0  0  0
  -19.7923  -30.7286   24.2279 H   0  0  0  0  0  0
  -17.5006  -31.6283   24.5173 H   0  0  0  0  0  0
  -15.5344  -30.3008   23.7669 H   0  0  0  0  0  0
  -15.8665  -28.0874   22.7022 H   0  0  0  0  0  0
  -24.5868  -30.7090   25.7784 H   0  0  0  0  0  0
  -24.8912  -32.2870   26.4932 H   0  0  0  0  0  0
  -25.8038  -30.8851   27.0215 H   0  0  0  0  0  0
  -26.2869  -29.6806   24.1153 H   0  0  0  0  0  0
  -27.4124  -29.7321   25.4535 H   0  0  0  0  0  0
  -27.8663  -30.4424   23.9217 H   0  0  0  0  0  0
  -27.2715  -33.3614   26.2063 H   0  0  0  0  0  0
  -28.3832  -32.6858   25.0256 H   0  0  0  0  0  0
  -28.0751  -31.8415   26.5336 H   0  0  0  0  0  0
  -28.2617  -38.0103   24.7517 H   0  0  0  0  0  0
  -28.1063  -36.2641   24.6284 H   0  0  0  0  0  0
  -27.2303  -37.1466   25.8864 H   0  0  0  0  0  0
  -20.9316  -29.8709   21.6876 H   0  0  0  0  0  0
  -26.0207  -38.2899   24.1385 H   0  0  0  0  0  0
  -29.2505  -20.3011   16.0773 H   0  0  0  0  0  0
  -28.0540  -18.1820   16.2643 H   0  0  0  0  0  0
  -31.2928  -19.4536   19.7849 H   0  0  0  0  0  0
  -28.9309  -15.4362   18.1078 H   0  0  0  0  0  0
  -27.5773  -16.1594   17.2646 H   0  0  0  0  0  0
  -27.6293  -16.2670   19.0195 H   0  0  0  0  0  0
  -33.8358  -23.2485   19.8471 H   0  0  0  0  0  0
  -32.5875  -24.1893   20.6552 H   0  0  0  0  0  0
  -33.5891  -24.9303   19.4066 H   0  0  0  0  0  0
  -30.5066  -21.9878   17.0483 H   0  0  0  0  0  0
  -32.0353  -21.1709   17.1814 H   0  0  0  0  0  0
  -29.7575  -17.6031   21.2475 H   0  0  0  0  0  0
  -31.3164  -17.1617   20.6247 H   0  0  0  0  0  0
  -32.0634  -21.6228   19.6283 H   0  0  0  0  0  0
  -30.4891  -22.3669   19.5374 H   0  0  0  0  0  0
  -30.9430  -26.0074   19.9309 H   0  0  0  0  0  0
  -29.9922  -24.5679   20.1448 H   0  0  0  0  0  0
  -31.5487  -25.4524   17.6796 H   0  0  0  0  0  0
  -30.3147  -24.2485   17.5338 H   0  0  0  0  0  0
  -28.2597  -25.3746   18.5934 H   0  0  0  0  0  0
  -29.2175  -26.7969   18.1925 H   0  0  0  0  0  0
  -32.6697  -23.4033   17.7205 H   0  0  0  0  0  0
  -28.8830  -15.4778   20.8018 H   0  0  0  0  0  0
  1 25  1  0  0  0
  1 30  2  0  0  0
  1 86  1  0  0  0
  2  3  1  0  0  0
  2 25  1  0  0  0
  2 87  1  0  0  0
  2 88  1  0  0  0
  3  4  1  0  0  0
  3 89  1  0  0  0
  3 90  1  0  0  0
  4  5  1  0  0  0
  4 91  1  0  0  0
  4 92  1  0  0  0
  5  6  1  0  0  0
  5 26  1  0  0  0
  5 93  1  0  0  0
  6 25  1  0  0  0
  6 94  1  0  0  0
  6 95  1  0  0  0
  7  8  2  0  0  0
  7 26  1  0  0  0
  7 29  1  0  0  0
  8  9  1  0  0  0
  8 22  1  0  0  0
  9 10  1  0  0  0
  9 27  2  0  0  0
 10 11  2  0  0  0
 10 15  1  0  0  0
 11 12  1  0  0  0
 11 96  1  0  0  0
 12 13  2  0  0  0
 12 97  1  0  0  0
 13 14  1  0  0  0
 13 31  1  0  0  0
 14 15  2  0  0  0
 14 98  1  0  0  0
 15 99  1  0  0  0
 16 17  2  0  0  0
 16 21  1  0  0  0
 16 31  1  0  0  0
 17 18  1  0  0  0
 17100  1  0  0  0
 18 19  2  0  0  0
 18101  1  0  0  0
 19 20  1  0  0  0
 19 24  1  0  0  0
 20 21  2  0  0  0
 20102  1  0  0  0
 21 23  1  0  0  0
 22 28  1  0  0  0
 22 32  2  0  0  0
 26 27  1  0  0  0
 28103  1  0  0  0
 28104  1  0  0  0
 29105  1  0  0  0
 29106  1  0  0  0
 33 34  1  0  0  0
 33 66  1  0  0  0
 33 70  2  0  0  0
 34 36  1  0  0  0
 34 59  1  0  0  0
 34107  1  0  0  0
 35 44  2  0  0  0
 35 45  1  0  0  0
 35 68  1  0  0  0
 36 56  1  0  0  0
 36108  1  0  0  0
 37 39  1  0  0  0
 37 47  1  0  0  0
 37 66  1  0  0  0
 37109  1  0  0  0
 38 43  2  0  0  0
 38 46  1  0  0  0
 38 47  1  0  0  0
 39 64  1  0  0  0
 39 67  2  0  0  0
 40 52  1  0  0  0
 40 53  2  0  0  0
 40 58  1  0  0  0
 41110  1  0  0  0
 41111  1  0  0  0
 41112  1  0  0  0
 41 48  1  0  0  0
 42 43  1  0  0  0
 42 66  1  0  0  0
 42113  1  0  0  0
 42114  1  0  0  0
 43 44  1  0  0  0
 44115  1  0  0  0
 45 46  2  0  0  0
 45116  1  0  0  0
 46117  1  0  0  0
 47118  1  0  0  0
 47119  1  0  0  0
 48 56  1  0  0  0
 48 65  1  0  0  0
 48120  1  0  0  0
 49 50  1  0  0  0
 49 53  1  0  0  0
 49 64  1  0  0  0
 49121  1  0  0  0
 50 51  1  0  0  0
 50122  1  0  0  0
 50123  1  0  0  0
 51 52  1  0  0  0
 51124  1  0  0  0
 51125  1  0  0  0
 52126  1  0  0  0
 52127  1  0  0  0
 53 54  1  0  0  0
 54 55  2  0  0  0
 54128  1  0  0  0
 55 57  1  0  0  0
 55129  1  0  0  0
 56 69  2  0  0  0
 57 58  2  0  0  0
 57130  1  0  0  0
 58131  1  0  0  0
 59 60  1  0  0  0
 59 61  1  0  0  0
 59 62  1  0  0  0
 60132  1  0  0  0
 60133  1  0  0  0
 60134  1  0  0  0
 61135  1  0  0  0
 61136  1  0  0  0
 61137  1  0  0  0
 62138  1  0  0  0
 62139  1  0  0  0
 62140  1  0  0  0
 63 65  1  0  0  0
 63141  1  0  0  0
 63142  1  0  0  0
 63143  1  0  0  0
 64144  1  0  0  0
 65145  1  0  0  0
 68 84  1  0  0  0
 71 72  2  0  0  0
 71 74  1  0  0  0
 71146  1  0  0  0
 72 75  1  0  0  0
 72147  1  0  0  0
 73 74  2  0  0  0
 73 76  1  0  0  0
 73148  1  0  0  0
 74 79  1  0  0  0
 75 76  2  0  0  0
 75 77  1  0  0  0
 76 80  1  0  0  0
 77149  1  0  0  0
 77150  1  0  0  0
 77151  1  0  0  0
 78152  1  0  0  0
 78153  1  0  0  0
 78154  1  0  0  0
 78 85  1  0  0  0
 79 81  1  0  0  0
 79155  1  0  0  0
 79156  1  0  0  0
 80 86  1  0  0  0
 80157  1  0  0  0
 80158  1  0  0  0
 81 85  1  0  0  0
 81159  1  0  0  0
 81160  1  0  0  0
 82 83  1  0  0  0
 82 84  1  0  0  0
 82161  1  0  0  0
 82162  1  0  0  0
 83 85  1  0  0  0
 83163  1  0  0  0
 83164  1  0  0  0
 84165  1  0  0  0
 84166  1  0  0  0
 85167  1  0  0  0
 86168  1  0  0  0
M  ISO  4   1 100  68 101  84 101  86 100
M  END
> <chiral flag>
0

> <version>
0

> <s_m_source_file>
/data/baiqing/PycharmProjects/Reinvent-master-3.2/result/LINK_invent/BTK/process_docking_weight1_custom_product_contain_oxygen_bond_distance_aromatic_linkinvent_7_9_3/rearranged_h_0133.sdf

> <i_m_source_file_index>
84

> <r_mmod_Potential_Energy-OPLS-2005>
-32.4956550598145

> <r_mmod_Stretch_Energy-OPLS-2005>
44.4422607421875

> <r_mmod_Bend_Energy-OPLS-2005>
124.519546508789

> <r_mmod_Torsional_Energy-OPLS-2005>
226.113220214844

> <r_mmod_Improper_Torsional_Energy-OPLS-2005>
6.52492094039917

> <r_mmod_Van_der_Waal_Energy-OPLS-2005>
146.920211791992

> <r_mmod_Electrostatic_Energy-OPLS-2005>
-405.633209228516

> <r_mmod_Solvation_Energy-OPLS-2005>
-203.694931030273

> <b_mmod_Minimization_Converged-OPLS-2005>
0

> <r_mmod_RMS_Derivative-OPLS-2005>
6.08214282989502

$$$$
84
                    3D
 Structure written by MMmdl.
161169  0  0  1  0            999 V2000
  -30.6871  -14.5557   20.5372 C   0  0  0  0  0  0
  -30.4237  -12.3560   19.4286 C   0  0  0  0  0  0
  -29.4941  -12.5026   18.2064 C   0  0  0  0  0  0
  -28.0157  -12.3546   18.6209 C   0  0  0  0  0  0
  -27.6503  -13.2160   19.8596 C   0  0  2  0  0  0
  -28.6977  -13.0579   20.9831 C   0  0  0  0  0  0
  -25.2541  -13.8180   20.5677 C   0  0  0  0  0  0
  -24.1819  -13.0437   20.9196 C   0  0  0  0  0  0
  -24.6390  -11.6909   20.8736 C   0  0  0  0  0  0
  -23.9060  -10.4281   21.0391 C   0  0  0  0  0  0
  -24.3625   -9.4210   21.9173 C   0  0  0  0  0  0
  -23.6300   -8.2248   22.0753 C   0  0  0  0  0  0
  -22.4276   -8.0274   21.3553 C   0  0  0  0  0  0
  -21.9900   -9.0241   20.4648 C   0  0  0  0  0  0
  -22.7221  -10.2119   20.3052 C   0  0  0  0  0  0
  -21.6856   -6.0724   22.5273 C   0  0  0  0  0  0
  -21.4004   -6.5627   23.8208 C   0  0  0  0  0  0
  -21.3668   -5.6785   24.9180 C   0  0  0  0  0  0
  -21.6057   -4.3047   24.7225 C   0  0  0  0  0  0
  -21.8812   -3.8139   23.4348 C   0  0  0  0  0  0
  -21.9195   -4.6954   22.3405 C   0  0  0  0  0  0
  -22.7832  -13.5227   21.1862 C   0  0  0  0  0  0
  -22.1661   -4.2144   21.0984 F   0  0  0  0  0  0
  -21.5653   -3.4522   25.7736 F   0  0  0  0  0  0
  -30.0147  -13.3748   20.4101 N   0  0  0  0  0  0
  -26.2964  -12.9359   20.3312 N   0  0  0  0  0  0
  -25.9315  -11.6506   20.5754 N   0  0  0  0  0  0
  -22.0490  -12.8218   22.0427 N   0  0  0  0  0  0
  -25.4268  -15.1903   20.4083 N   0  0  0  0  0  0
  -31.8611  -14.6588   20.1888 O   0  0  0  0  0  0
  -21.6661   -6.8852   21.4238 O   0  0  0  0  0  0
  -22.3489  -14.5523   20.6711 O   0  0  0  0  0  0
  -24.6206  -31.8650   23.2062 C   0  0  0  0  0  0
  -25.9080  -32.4806   23.8379 C   0  0  1  0  0  0
  -27.2285  -27.3662   20.0964 C   0  0  0  0  0  0
  -25.5925  -33.8611   24.2310 N   0  0  0  0  0  0
  -23.4113  -30.4888   21.5483 C   0  0  2  0  0  0
  -24.8565  -28.9489   20.1144 C   0  0  0  0  0  0
  -22.7443  -29.4646   22.4961 C   0  0  0  0  0  0
  -18.0277  -28.1379   22.8490 C   0  0  0  0  0  0
  -24.1496  -36.7303   23.2641 C   0  0  0  0  0  0
  -25.9488  -30.8085   21.3715 C   0  0  0  0  0  0
  -26.0218  -29.4396   20.7113 C   0  0  0  0  0  0
  -27.2066  -28.6579   20.6959 C   0  0  0  0  0  0
  -26.0297  -26.9038   19.5043 C   0  0  0  0  0  0
  -24.8583  -27.6834   19.5090 C   0  0  0  0  0  0
  -23.6235  -29.8246   20.1629 C   0  0  0  0  0  0
  -25.4121  -36.3096   24.0343 C   0  0  1  0  0  0
  -20.5875  -28.3684   23.1299 C   0  0  2  0  0  0
  -20.6778  -26.9419   22.5408 C   0  0  0  0  0  0
  -19.5746  -26.6377   21.5218 C   0  0  0  0  0  0
  -18.1920  -26.7926   22.1624 C   0  0  0  0  0  0
  -19.1527  -28.8845   23.2890 C   0  0  0  0  0  0
  -18.9454  -30.1450   23.8907 C   0  0  0  0  0  0
  -17.6460  -30.6589   24.0558 C   0  0  0  0  0  0
  -25.9048  -34.9466   23.5118 C   0  0  0  0  0  0
  -16.5350  -29.9085   23.6321 C   0  0  0  0  0  0
  -16.7266  -28.6499   23.0358 C   0  0  0  0  0  0
  -26.4481  -31.6605   25.0737 C   0  0  0  0  0  0
  -25.3729  -31.3749   26.1480 C   0  0  0  0  0  0
  -27.0322  -30.3031   24.6176 C   0  0  0  0  0  0
  -27.6035  -32.4354   25.7500 C   0  0  0  0  0  0
  -27.5591  -37.1818   24.8470 C   0  0  0  0  0  0
  -21.4163  -29.3049   22.3709 N   0  0  0  0  0  0
  -26.4304  -37.3784   23.9408 N   0  0  0  0  0  0
  -24.6788  -31.0704   22.0986 N   0  0  0  0  0  0
  -23.4202  -28.8184   23.3012 O   0  0  0  0  0  0
  -28.3978  -26.6050   20.1321 O   0  0  0  0  0  0
  -26.5604  -34.8919   22.4678 O   0  0  0  0  0  0
  -23.5380  -32.1433   23.7409 O   0  0  0  0  0  0
  -32.8512  -19.6184   18.9595 C   0  0  0  0  0  0
  -31.5454  -20.0562   19.2417 C   0  0  0  0  0  0
  -32.4283  -17.6271   20.2725 C   0  0  0  0  0  0
  -33.3111  -18.4153   19.5145 C   0  0  0  0  0  0
  -30.6643  -19.3118   20.0639 C   0  0  0  0  0  0
  -31.0884  -18.0027   20.5205 C   0  0  0  0  0  0
  -28.7526  -24.1044   20.4868 C   0  0  0  0  0  0
  -34.7504  -17.9788   19.3231 C   0  0  0  0  0  0
  -29.3256  -20.0214   20.3891 C   0  0  0  0  0  0
  -30.2729  -17.0055   21.3920 C   0  0  0  0  0  0
  -28.8049  -22.6451   19.9220 C   0  0  0  0  0  0
  -28.4901  -25.2862   19.4982 C   0  0  0  0  0  0
  -29.4291  -21.5342   20.8521 C   0  0  0  0  0  0
  -29.9387  -15.6257   20.9113 N   0  0  0  0  0  0
  -28.9236  -24.3168   21.6917 O   0  0  0  0  0  0
  -31.4648  -12.4647   19.1189 H   0  0  0  0  0  0
  -30.3440  -11.3590   19.8655 H   0  0  0  0  0  0
  -29.7455  -11.7642   17.4444 H   0  0  0  0  0  0
  -29.6470  -13.4812   17.7471 H   0  0  0  0  0  0
  -27.8358  -11.2996   18.8377 H   0  0  0  0  0  0
  -27.3660  -12.6075   17.7819 H   0  0  0  0  0  0
  -27.6712  -14.2551   19.5274 H   0  0  0  0  0  0
  -28.6963  -12.0379   21.3695 H   0  0  0  0  0  0
  -28.4576  -13.6976   21.8334 H   0  0  0  0  0  0
  -25.2773   -9.5691   22.4743 H   0  0  0  0  0  0
  -24.0034   -7.4621   22.7442 H   0  0  0  0  0  0
  -21.0847   -8.8714   19.8925 H   0  0  0  0  0  0
  -22.3665  -10.9651   19.6155 H   0  0  0  0  0  0
  -21.1978   -7.6131   23.9689 H   0  0  0  0  0  0
  -21.1508   -6.0535   25.9082 H   0  0  0  0  0  0
  -22.0594   -2.7601   23.2849 H   0  0  0  0  0  0
  -22.4145  -11.9901   22.4832 H   0  0  0  0  0  0
  -21.1076  -13.1174   22.2600 H   0  0  0  0  0  0
  -24.6643  -15.8479   20.5285 H   0  0  0  0  0  0
  -26.2782  -15.6253   20.0754 H   0  0  0  0  0  0
  -26.7146  -32.5492   23.1123 H   0  0  0  0  0  0
  -25.0111  -33.9788   25.0477 H   0  0  0  0  0  0
  -22.7013  -31.3070   21.4070 H   0  0  0  0  0  0
  -23.3758  -35.9636   23.3300 H   0  0  0  0  0  0
  -24.3574  -36.8919   22.2052 H   0  0  0  0  0  0
  -23.7249  -37.6513   23.6648 H   0  0  0  0  0  0
  -26.0822  -31.5763   20.6084 H   0  0  0  0  0  0
  -26.8286  -30.8506   22.0024 H   0  0  0  0  0  0
  -28.1056  -29.0372   21.1597 H   0  0  0  0  0  0
  -25.9427  -25.9342   19.0450 H   0  0  0  0  0  0
  -23.9579  -27.2960   19.0549 H   0  0  0  0  0  0
  -23.7441  -30.6020   19.4075 H   0  0  0  0  0  0
  -22.7444  -29.2547   19.8572 H   0  0  0  0  0  0
  -25.1289  -36.1955   25.0837 H   0  0  0  0  0  0
  -20.9966  -28.3249   24.1424 H   0  0  0  0  0  0
  -20.5687  -26.2305   23.3605 H   0  0  0  0  0  0
  -21.6647  -26.7461   22.1193 H   0  0  0  0  0  0
  -19.6918  -25.6282   21.1255 H   0  0  0  0  0  0
  -19.6677  -27.3179   20.6737 H   0  0  0  0  0  0
  -17.4202  -26.6679   21.4013 H   0  0  0  0  0  0
  -18.0312  -26.0058   22.9006 H   0  0  0  0  0  0
  -19.7936  -30.7252   24.2289 H   0  0  0  0  0  0
  -17.5020  -31.6273   24.5155 H   0  0  0  0  0  0
  -15.5357  -30.3002   23.7634 H   0  0  0  0  0  0
  -15.8663  -28.0810   22.7096 H   0  0  0  0  0  0
  -24.5888  -30.7111   25.7818 H   0  0  0  0  0  0
  -24.8948  -32.2927   26.4912 H   0  0  0  0  0  0
  -25.8073  -30.8924   27.0242 H   0  0  0  0  0  0
  -26.2893  -29.6798   24.1195 H   0  0  0  0  0  0
  -27.4011  -29.7271   25.4667 H   0  0  0  0  0  0
  -27.8747  -30.4310   23.9379 H   0  0  0  0  0  0
  -27.2619  -33.3641   26.2074 H   0  0  0  0  0  0
  -28.3828  -32.6961   25.0330 H   0  0  0  0  0  0
  -28.0713  -31.8507   26.5425 H   0  0  0  0  0  0
  -28.2612  -38.0113   24.7504 H   0  0  0  0  0  0
  -28.1080  -36.2646   24.6288 H   0  0  0  0  0  0
  -27.2308  -37.1450   25.8874 H   0  0  0  0  0  0
  -20.9346  -29.8800   21.6939 H   0  0  0  0  0  0
  -26.0188  -38.2864   24.1391 H   0  0  0  0  0  0
  -33.5083  -20.2291   18.3537 H   0  0  0  0  0  0
  -31.2312  -21.0102   18.8396 H   0  0  0  0  0  0
  -32.8142  -16.7220   20.7117 H   0  0  0  0  0  0
  -34.9607  -17.7795   18.2721 H   0  0  0  0  0  0
  -34.9686  -17.0724   19.8901 H   0  0  0  0  0  0
  -35.4290  -18.7587   19.6709 H   0  0  0  0  0  0
  -28.7964  -19.4667   21.1625 H   0  0  0  0  0  0
  -28.6893  -19.9535   19.5057 H   0  0  0  0  0  0
  -29.3357  -17.4633   21.6960 H   0  0  0  0  0  0
  -30.8320  -16.8782   22.3215 H   0  0  0  0  0  0
  -29.3403  -22.6739   18.9734 H   0  0  0  0  0  0
  -27.7796  -22.3625   19.6788 H   0  0  0  0  0  0
  -27.6527  -25.0285   18.8572 H   0  0  0  0  0  0
  -29.3488  -25.3277   18.8277 H   0  0  0  0  0  0
  -30.4676  -21.7920   21.0674 H   0  0  0  0  0  0
  -28.9346  -21.6033   21.8224 H   0  0  0  0  0  0
  -28.9645  -15.3922   21.0274 H   0  0  0  0  0  0
  1 25  1  0  0  0
  1 30  2  0  0  0
  1 84  1  0  0  0
  2  3  1  0  0  0
  2 25  1  0  0  0
  2 86  1  0  0  0
  2 87  1  0  0  0
  3  4  1  0  0  0
  3 88  1  0  0  0
  3 89  1  0  0  0
  4  5  1  0  0  0
  4 90  1  0  0  0
  4 91  1  0  0  0
  5  6  1  0  0  0
  5 26  1  0  0  0
  5 92  1  0  0  0
  6 25  1  0  0  0
  6 93  1  0  0  0
  6 94  1  0  0  0
  7  8  2  0  0  0
  7 26  1  0  0  0
  7 29  1  0  0  0
  8  9  1  0  0  0
  8 22  1  0  0  0
  9 10  1  0  0  0
  9 27  2  0  0  0
 10 11  2  0  0  0
 10 15  1  0  0  0
 11 12  1  0  0  0
 11 95  1  0  0  0
 12 13  2  0  0  0
 12 96  1  0  0  0
 13 14  1  0  0  0
 13 31  1  0  0  0
 14 15  2  0  0  0
 14 97  1  0  0  0
 15 98  1  0  0  0
 16 17  2  0  0  0
 16 21  1  0  0  0
 16 31  1  0  0  0
 17 18  1  0  0  0
 17 99  1  0  0  0
 18 19  2  0  0  0
 18100  1  0  0  0
 19 20  1  0  0  0
 19 24  1  0  0  0
 20 21  2  0  0  0
 20101  1  0  0  0
 21 23  1  0  0  0
 22 28  1  0  0  0
 22 32  2  0  0  0
 26 27  1  0  0  0
 28102  1  0  0  0
 28103  1  0  0  0
 29104  1  0  0  0
 29105  1  0  0  0
 33 34  1  0  0  0
 33 66  1  0  0  0
 33 70  2  0  0  0
 34 36  1  0  0  0
 34 59  1  0  0  0
 34106  1  0  0  0
 35 44  2  0  0  0
 35 45  1  0  0  0
 35 68  1  0  0  0
 36 56  1  0  0  0
 36107  1  0  0  0
 37 39  1  0  0  0
 37 47  1  0  0  0
 37 66  1  0  0  0
 37108  1  0  0  0
 38 43  2  0  0  0
 38 46  1  0  0  0
 38 47  1  0  0  0
 39 64  1  0  0  0
 39 67  2  0  0  0
 40 52  1  0  0  0
 40 53  2  0  0  0
 40 58  1  0  0  0
 41109  1  0  0  0
 41110  1  0  0  0
 41111  1  0  0  0
 41 48  1  0  0  0
 42 43  1  0  0  0
 42 66  1  0  0  0
 42112  1  0  0  0
 42113  1  0  0  0
 43 44  1  0  0  0
 44114  1  0  0  0
 45 46  2  0  0  0
 45115  1  0  0  0
 46116  1  0  0  0
 47117  1  0  0  0
 47118  1  0  0  0
 48 56  1  0  0  0
 48 65  1  0  0  0
 48119  1  0  0  0
 49 50  1  0  0  0
 49 53  1  0  0  0
 49 64  1  0  0  0
 49120  1  0  0  0
 50 51  1  0  0  0
 50121  1  0  0  0
 50122  1  0  0  0
 51 52  1  0  0  0
 51123  1  0  0  0
 51124  1  0  0  0
 52125  1  0  0  0
 52126  1  0  0  0
 53 54  1  0  0  0
 54 55  2  0  0  0
 54127  1  0  0  0
 55 57  1  0  0  0
 55128  1  0  0  0
 56 69  2  0  0  0
 57 58  2  0  0  0
 57129  1  0  0  0
 58130  1  0  0  0
 59 60  1  0  0  0
 59 61  1  0  0  0
 59 62  1  0  0  0
 60131  1  0  0  0
 60132  1  0  0  0
 60133  1  0  0  0
 61134  1  0  0  0
 61135  1  0  0  0
 61136  1  0  0  0
 62137  1  0  0  0
 62138  1  0  0  0
 62139  1  0  0  0
 63 65  1  0  0  0
 63140  1  0  0  0
 63141  1  0  0  0
 63142  1  0  0  0
 64143  1  0  0  0
 65144  1  0  0  0
 68 82  1  0  0  0
 71 72  2  0  0  0
 71 74  1  0  0  0
 71145  1  0  0  0
 72 75  1  0  0  0
 72146  1  0  0  0
 73 74  2  0  0  0
 73 76  1  0  0  0
 73147  1  0  0  0
 74 78  1  0  0  0
 75 76  2  0  0  0
 75 79  1  0  0  0
 76 80  1  0  0  0
 77 81  1  0  0  0
 77 82  1  0  0  0
 77 85  2  0  0  0
 78148  1  0  0  0
 78149  1  0  0  0
 78150  1  0  0  0
 79 83  1  0  0  0
 79151  1  0  0  0
 79152  1  0  0  0
 80 84  1  0  0  0
 80153  1  0  0  0
 80154  1  0  0  0
 81 83  1  0  0  0
 81155  1  0  0  0
 81156  1  0  0  0
 82157  1  0  0  0
 82158  1  0  0  0
 83159  1  0  0  0
 83160  1  0  0  0
 84161  1  0  0  0
M  ISO  4   1 100  68 101  82 101  84 100
M  END
> <chiral flag>
0

> <version>
0

> <s_m_source_file>
/data/baiqing/PycharmProjects/Reinvent-master-3.2/result/LINK_invent/BTK/process_docking_weight1_custom_product_contain_oxygen_bond_distance_aromatic_linkinvent_7_9_3/rearranged_h_0133.sdf

> <i_m_source_file_index>
85

> <r_mmod_Potential_Energy-OPLS-2005>
-11.419017791748

> <r_mmod_Stretch_Energy-OPLS-2005>
64.1994323730469

> <r_mmod_Bend_Energy-OPLS-2005>
148.161270141602

> <r_mmod_Torsional_Energy-OPLS-2005>
210.318450927734

> <r_mmod_Improper_Torsional_Energy-OPLS-2005>
4.14582967758179

> <r_mmod_Van_der_Waal_Energy-OPLS-2005>
150.857696533203

> <r_mmod_Electrostatic_Energy-OPLS-2005>
-381.237243652344

> <r_mmod_Solvation_Energy-OPLS-2005>
-236.77392578125

> <b_mmod_Minimization_Converged-OPLS-2005>
0

> <r_mmod_RMS_Derivative-OPLS-2005>
2.51675581932068

$$$$
85
                    3D
 Structure written by MMmdl.
177185  0  0  1  0            999 V2000
  -30.6811  -14.4654   20.6178 C   0  0  0  0  0  0
  -30.4274  -12.3220   19.4042 C   0  0  0  0  0  0
  -29.4873  -12.5032   18.1950 C   0  0  0  0  0  0
  -28.0111  -12.3562   18.6154 C   0  0  0  0  0  0
  -27.6589  -13.1955   19.8721 C   0  0  2  0  0  0
  -28.6982  -12.9557   20.9870 C   0  0  0  0  0  0
  -25.2588  -13.8133   20.5635 C   0  0  0  0  0  0
  -24.1834  -13.0431   20.9175 C   0  0  0  0  0  0
  -24.6371  -11.6896   20.8747 C   0  0  0  0  0  0
  -23.9042  -10.4292   21.0425 C   0  0  0  0  0  0
  -24.3597   -9.4217   21.9206 C   0  0  0  0  0  0
  -23.6278   -8.2241   22.0767 C   0  0  0  0  0  0
  -22.4268   -8.0279   21.3543 C   0  0  0  0  0  0
  -21.9904   -9.0253   20.4646 C   0  0  0  0  0  0
  -22.7220  -10.2136   20.3065 C   0  0  0  0  0  0
  -21.6849   -6.0737   22.5285 C   0  0  0  0  0  0
  -21.4012   -6.5639   23.8218 C   0  0  0  0  0  0
  -21.3656   -5.6797   24.9181 C   0  0  0  0  0  0
  -21.6044   -4.3061   24.7236 C   0  0  0  0  0  0
  -21.8821   -3.8151   23.4358 C   0  0  0  0  0  0
  -21.9190   -4.6964   22.3410 C   0  0  0  0  0  0
  -22.7869  -13.5249   21.1845 C   0  0  0  0  0  0
  -22.1666   -4.2147   21.0989 F   0  0  0  0  0  0
  -21.5624   -3.4552   25.7753 F   0  0  0  0  0  0
  -30.0238  -13.2888   20.4363 N   0  0  0  0  0  0
  -26.2998  -12.9274   20.3333 N   0  0  0  0  0  0
  -25.9288  -11.6456   20.5760 N   0  0  0  0  0  0
  -22.0495  -12.8236   22.0382 N   0  0  0  0  0  0
  -25.4330  -15.1838   20.3989 N   0  0  0  0  0  0
  -31.7978  -14.6915   20.1420 O   0  0  0  0  0  0
  -21.6636   -6.8876   21.4242 O   0  0  0  0  0  0
  -22.3579  -14.5570   20.6715 O   0  0  0  0  0  0
  -24.6172  -31.8633   23.2082 C   0  0  0  0  0  0
  -25.9069  -32.4762   23.8374 C   0  0  1  0  0  0
  -27.2258  -27.4083   20.1067 C   0  0  0  0  0  0
  -25.5907  -33.8558   24.2307 N   0  0  0  0  0  0
  -23.4010  -30.4849   21.5545 C   0  0  2  0  0  0
  -24.8424  -28.9540   20.1126 C   0  0  0  0  0  0
  -22.7403  -29.4620   22.5043 C   0  0  0  0  0  0
  -18.0239  -28.1379   22.8467 C   0  0  0  0  0  0
  -24.1484  -36.7323   23.2638 C   0  0  0  0  0  0
  -25.9285  -30.8266   21.3562 C   0  0  0  0  0  0
  -26.0050  -29.4595   20.7063 C   0  0  0  0  0  0
  -27.1982  -28.6982   20.6914 C   0  0  0  0  0  0
  -26.0399  -26.9254   19.5042 C   0  0  0  0  0  0
  -24.8602  -27.6904   19.5017 C   0  0  0  0  0  0
  -23.6004  -29.8139   20.1706 C   0  0  0  0  0  0
  -25.4095  -36.3056   24.0321 C   0  0  1  0  0  0
  -20.5820  -28.3657   23.1322 C   0  0  2  0  0  0
  -20.6744  -26.9402   22.5401 C   0  0  0  0  0  0
  -19.5727  -26.6380   21.5201 C   0  0  0  0  0  0
  -18.1886  -26.7916   22.1596 C   0  0  0  0  0  0
  -19.1485  -28.8835   23.2868 C   0  0  0  0  0  0
  -18.9429  -30.1448   23.8869 C   0  0  0  0  0  0
  -17.6436  -30.6590   24.0549 C   0  0  0  0  0  0
  -25.9033  -34.9420   23.5116 C   0  0  0  0  0  0
  -16.5321  -29.9091   23.6339 C   0  0  0  0  0  0
  -16.7229  -28.6517   23.0338 C   0  0  0  0  0  0
  -26.4512  -31.6535   25.0702 C   0  0  0  0  0  0
  -25.3742  -31.3614   26.1416 C   0  0  0  0  0  0
  -27.0395  -30.2984   24.6089 C   0  0  0  0  0  0
  -27.6052  -32.4278   25.7476 C   0  0  0  0  0  0
  -27.5560  -37.1794   24.8453 C   0  0  0  0  0  0
  -21.4133  -29.3030   22.3780 N   0  0  0  0  0  0
  -26.4271  -37.3746   23.9393 N   0  0  0  0  0  0
  -24.6676  -31.0723   22.0980 N   0  0  0  0  0  0
  -23.4166  -28.8157   23.3080 O   0  0  0  0  0  0
  -28.4142  -26.6932   20.1333 O   0  0  0  0  0  0
  -26.5594  -34.8868   22.4675 O   0  0  0  0  0  0
  -23.5374  -32.1401   23.7473 O   0  0  0  0  0  0
  -28.3512  -19.7937   21.1693 C   0  0  0  0  0  0
  -30.8991  -18.7906   20.6474 C   0  0  0  0  0  0
  -28.6812  -18.4678   21.5606 C   0  0  0  0  0  0
  -30.5574  -20.0833   20.1858 C   0  0  0  0  0  0
  -29.9896  -17.9702   21.3381 C   0  0  0  0  0  0
  -29.2819  -20.6375   20.5076 C   0  0  0  0  0  0
  -27.6223  -17.6098   22.2334 C   0  0  0  0  0  0
  -34.3359  -20.4610   14.9985 C   0  0  0  0  0  0
  -28.1800  -21.9730   18.7009 C   0  0  0  0  0  0
  -31.5995  -20.7901   19.3159 C   0  0  0  0  0  0
  -30.5078  -16.6316   21.8979 C   0  0  0  0  0  0
  -33.4387  -19.7331   16.0049 C   0  0  0  0  0  0
  -31.9765  -19.9486   18.0802 C   0  0  0  0  0  0
  -32.9264  -20.6662   17.1137 C   0  0  0  0  0  0
  -28.2679  -24.4232   21.2063 C   0  0  0  0  0  0
  -27.9962  -22.8823   21.0788 C   0  0  0  0  0  0
  -28.4310  -25.2652   19.9082 C   0  0  0  0  0  0
  -28.8674  -22.0677   20.0719 C   0  0  1  0  0  0
  -29.9908  -15.3931   21.3087 N   0  0  0  0  0  0
  -31.4657  -12.4517   19.0963 H   0  0  0  0  0  0
  -30.3568  -11.3061   19.7952 H   0  0  0  0  0  0
  -29.7266  -11.7735   17.4203 H   0  0  0  0  0  0
  -29.6429  -13.4864   17.7483 H   0  0  0  0  0  0
  -27.8302  -11.2989   18.8159 H   0  0  0  0  0  0
  -27.3543  -12.6241   17.7872 H   0  0  0  0  0  0
  -27.7103  -14.2441   19.5801 H   0  0  0  0  0  0
  -28.6842  -11.9094   21.2965 H   0  0  0  0  0  0
  -28.4466  -13.5205   21.8856 H   0  0  0  0  0  0
  -25.2727   -9.5710   22.4795 H   0  0  0  0  0  0
  -23.9996   -7.4645   22.7493 H   0  0  0  0  0  0
  -21.0839   -8.8765   19.8948 H   0  0  0  0  0  0
  -22.3676  -10.9683   19.6184 H   0  0  0  0  0  0
  -21.2002   -7.6151   23.9716 H   0  0  0  0  0  0
  -21.1478   -6.0537   25.9082 H   0  0  0  0  0  0
  -22.0597   -2.7617   23.2870 H   0  0  0  0  0  0
  -22.4097  -11.9867   22.4730 H   0  0  0  0  0  0
  -21.1125  -13.1291   22.2609 H   0  0  0  0  0  0
  -24.6628  -15.8373   20.4860 H   0  0  0  0  0  0
  -26.2733  -15.6096   20.0287 H   0  0  0  0  0  0
  -26.7128  -32.5498   23.1131 H   0  0  0  0  0  0
  -25.0012  -33.9726   25.0411 H   0  0  0  0  0  0
  -22.6872  -31.3009   21.4197 H   0  0  0  0  0  0
  -23.3686  -35.9713   23.3297 H   0  0  0  0  0  0
  -24.3596  -36.8984   22.2057 H   0  0  0  0  0  0
  -23.7321  -37.6552   23.6694 H   0  0  0  0  0  0
  -26.0281  -31.5872   20.5819 H   0  0  0  0  0  0
  -26.8213  -30.8912   21.9663 H   0  0  0  0  0  0
  -28.0991  -29.0940   21.1393 H   0  0  0  0  0  0
  -25.9853  -25.9626   19.0197 H   0  0  0  0  0  0
  -23.9716  -27.3007   19.0247 H   0  0  0  0  0  0
  -23.6800  -30.5855   19.4032 H   0  0  0  0  0  0
  -22.7283  -29.2176   19.8964 H   0  0  0  0  0  0
  -25.1262  -36.1911   25.0804 H   0  0  0  0  0  0
  -20.9834  -28.3217   24.1471 H   0  0  0  0  0  0
  -20.5678  -26.2261   23.3586 H   0  0  0  0  0  0
  -21.6629  -26.7479   22.1188 H   0  0  0  0  0  0
  -19.6909  -25.6285   21.1271 H   0  0  0  0  0  0
  -19.6673  -27.3174   20.6708 H   0  0  0  0  0  0
  -17.4159  -26.6624   21.3998 H   0  0  0  0  0  0
  -18.0293  -26.0052   22.8979 H   0  0  0  0  0  0
  -19.7900  -30.7267   24.2229 H   0  0  0  0  0  0
  -17.4996  -31.6281   24.5142 H   0  0  0  0  0  0
  -15.5334  -30.2996   23.7696 H   0  0  0  0  0  0
  -15.8608  -28.0877   22.7022 H   0  0  0  0  0  0
  -24.5936  -30.6974   25.7717 H   0  0  0  0  0  0
  -24.8896  -32.2752   26.4852 H   0  0  0  0  0  0
  -25.8037  -30.8766   27.0193 H   0  0  0  0  0  0
  -26.2986  -29.6671   24.1191 H   0  0  0  0  0  0
  -27.4266  -29.7273   25.4548 H   0  0  0  0  0  0
  -27.8733  -30.4325   23.9188 H   0  0  0  0  0  0
  -27.2679  -33.3609   26.2003 H   0  0  0  0  0  0
  -28.3889  -32.6816   25.0318 H   0  0  0  0  0  0
  -28.0701  -31.8442   26.5449 H   0  0  0  0  0  0
  -28.2519  -38.0126   24.7497 H   0  0  0  0  0  0
  -28.1112  -36.2660   24.6272 H   0  0  0  0  0  0
  -27.2290  -37.1432   25.8855 H   0  0  0  0  0  0
  -20.9333  -29.8748   21.6970 H   0  0  0  0  0  0
  -26.0145  -38.2819   24.1368 H   0  0  0  0  0  0
  -27.3564  -20.1685   21.3683 H   0  0  0  0  0  0
  -31.8916  -18.4080   20.4552 H   0  0  0  0  0  0
  -26.6354  -18.0695   22.1726 H   0  0  0  0  0  0
  -27.8583  -17.4524   23.2854 H   0  0  0  0  0  0
  -27.5487  -16.6350   21.7519 H   0  0  0  0  0  0
  -34.7294  -19.7693   14.2523 H   0  0  0  0  0  0
  -35.1846  -20.9351   15.4933 H   0  0  0  0  0  0
  -33.7789  -21.2354   14.4699 H   0  0  0  0  0  0
  -28.8263  -21.4831   17.9737 H   0  0  0  0  0  0
  -27.9188  -22.9481   18.2960 H   0  0  0  0  0  0
  -27.2606  -21.3880   18.7671 H   0  0  0  0  0  0
  -32.4879  -20.9785   19.9206 H   0  0  0  0  0  0
  -31.2717  -21.7603   18.9592 H   0  0  0  0  0  0
  -30.2677  -16.6072   22.9613 H   0  0  0  0  0  0
  -31.5989  -16.6266   21.8635 H   0  0  0  0  0  0
  -33.9929  -18.9031   16.4485 H   0  0  0  0  0  0
  -32.5954  -19.2892   15.4740 H   0  0  0  0  0  0
  -31.0661  -19.6754   17.5456 H   0  0  0  0  0  0
  -32.4389  -19.0126   18.3907 H   0  0  0  0  0  0
  -32.4134  -21.5188   16.6665 H   0  0  0  0  0  0
  -33.7747  -21.0711   17.6675 H   0  0  0  0  0  0
  -29.1620  -24.5680   21.8148 H   0  0  0  0  0  0
  -27.4537  -24.8468   21.7965 H   0  0  0  0  0  0
  -26.9393  -22.7119   20.8718 H   0  0  0  0  0  0
  -28.1549  -22.4741   22.0777 H   0  0  0  0  0  0
  -27.7395  -24.9525   19.1351 H   0  0  0  0  0  0
  -29.4136  -25.0453   19.4901 H   0  0  0  0  0  0
  -29.7671  -22.6665   19.9754 H   0  0  0  0  0  0
  -29.0654  -15.1171   21.5963 H   0  0  0  0  0  0
  1 25  1  0  0  0
  1 30  2  0  0  0
  1 89  1  0  0  0
  2  3  1  0  0  0
  2 25  1  0  0  0
  2 90  1  0  0  0
  2 91  1  0  0  0
  3  4  1  0  0  0
  3 92  1  0  0  0
  3 93  1  0  0  0
  4  5  1  0  0  0
  4 94  1  0  0  0
  4 95  1  0  0  0
  5  6  1  0  0  0
  5 26  1  0  0  0
  5 96  1  0  0  0
  6 25  1  0  0  0
  6 97  1  0  0  0
  6 98  1  0  0  0
  7  8  2  0  0  0
  7 26  1  0  0  0
  7 29  1  0  0  0
  8  9  1  0  0  0
  8 22  1  0  0  0
  9 10  1  0  0  0
  9 27  2  0  0  0
 10 11  2  0  0  0
 10 15  1  0  0  0
 11 12  1  0  0  0
 11 99  1  0  0  0
 12 13  2  0  0  0
 12100  1  0  0  0
 13 14  1  0  0  0
 13 31  1  0  0  0
 14 15  2  0  0  0
 14101  1  0  0  0
 15102  1  0  0  0
 16 17  2  0  0  0
 16 21  1  0  0  0
 16 31  1  0  0  0
 17 18  1  0  0  0
 17103  1  0  0  0
 18 19  2  0  0  0
 18104  1  0  0  0
 19 20  1  0  0  0
 19 24  1  0  0  0
 20 21  2  0  0  0
 20105  1  0  0  0
 21 23  1  0  0  0
 22 28  1  0  0  0
 22 32  2  0  0  0
 26 27  1  0  0  0
 28106  1  0  0  0
 28107  1  0  0  0
 29108  1  0  0  0
 29109  1  0  0  0
 33 34  1  0  0  0
 33 66  1  0  0  0
 33 70  2  0  0  0
 34 36  1  0  0  0
 34 59  1  0  0  0
 34110  1  0  0  0
 35 44  2  0  0  0
 35 45  1  0  0  0
 35 68  1  0  0  0
 36 56  1  0  0  0
 36111  1  0  0  0
 37 39  1  0  0  0
 37 47  1  0  0  0
 37 66  1  0  0  0
 37112  1  0  0  0
 38 43  2  0  0  0
 38 46  1  0  0  0
 38 47  1  0  0  0
 39 64  1  0  0  0
 39 67  2  0  0  0
 40 52  1  0  0  0
 40 53  2  0  0  0
 40 58  1  0  0  0
 41113  1  0  0  0
 41114  1  0  0  0
 41115  1  0  0  0
 41 48  1  0  0  0
 42 43  1  0  0  0
 42 66  1  0  0  0
 42116  1  0  0  0
 42117  1  0  0  0
 43 44  1  0  0  0
 44118  1  0  0  0
 45 46  2  0  0  0
 45119  1  0  0  0
 46120  1  0  0  0
 47121  1  0  0  0
 47122  1  0  0  0
 48 56  1  0  0  0
 48 65  1  0  0  0
 48123  1  0  0  0
 49 50  1  0  0  0
 49 53  1  0  0  0
 49 64  1  0  0  0
 49124  1  0  0  0
 50 51  1  0  0  0
 50125  1  0  0  0
 50126  1  0  0  0
 51 52  1  0  0  0
 51127  1  0  0  0
 51128  1  0  0  0
 52129  1  0  0  0
 52130  1  0  0  0
 53 54  1  0  0  0
 54 55  2  0  0  0
 54131  1  0  0  0
 55 57  1  0  0  0
 55132  1  0  0  0
 56 69  2  0  0  0
 57 58  2  0  0  0
 57133  1  0  0  0
 58134  1  0  0  0
 59 60  1  0  0  0
 59 61  1  0  0  0
 59 62  1  0  0  0
 60135  1  0  0  0
 60136  1  0  0  0
 60137  1  0  0  0
 61138  1  0  0  0
 61139  1  0  0  0
 61140  1  0  0  0
 62141  1  0  0  0
 62142  1  0  0  0
 62143  1  0  0  0
 63 65  1  0  0  0
 63144  1  0  0  0
 63145  1  0  0  0
 63146  1  0  0  0
 64147  1  0  0  0
 65148  1  0  0  0
 68 87  1  0  0  0
 71 73  2  0  0  0
 71 76  1  0  0  0
 71149  1  0  0  0
 72 74  1  0  0  0
 72 75  2  0  0  0
 72150  1  0  0  0
 73 75  1  0  0  0
 73 77  1  0  0  0
 74 76  2  0  0  0
 74 80  1  0  0  0
 75 81  1  0  0  0
 76 88  1  0  0  0
 77151  1  0  0  0
 77152  1  0  0  0
 77153  1  0  0  0
 78 82  1  0  0  0
 78154  1  0  0  0
 78155  1  0  0  0
 78156  1  0  0  0
 79157  1  0  0  0
 79158  1  0  0  0
 79159  1  0  0  0
 79 88  1  0  0  0
 80 83  1  0  0  0
 80160  1  0  0  0
 80161  1  0  0  0
 81 89  1  0  0  0
 81162  1  0  0  0
 81163  1  0  0  0
 82 84  1  0  0  0
 82164  1  0  0  0
 82165  1  0  0  0
 83 84  1  0  0  0
 83166  1  0  0  0
 83167  1  0  0  0
 84168  1  0  0  0
 84169  1  0  0  0
 85 86  1  0  0  0
 85 87  1  0  0  0
 85170  1  0  0  0
 85171  1  0  0  0
 86 88  1  0  0  0
 86172  1  0  0  0
 86173  1  0  0  0
 87174  1  0  0  0
 87175  1  0  0  0
 88176  1  0  0  0
 89177  1  0  0  0
M  ISO  4   1 100  68 101  87 101  89 100
M  END
> <chiral flag>
0

> <version>
0

> <s_m_source_file>
/data/baiqing/PycharmProjects/Reinvent-master-3.2/result/LINK_invent/BTK/process_docking_weight1_custom_product_contain_oxygen_bond_distance_aromatic_linkinvent_7_9_3/rearranged_h_0133.sdf

> <i_m_source_file_index>
86

> <r_mmod_Potential_Energy-OPLS-2005>
-69.0005798339844

> <r_mmod_Stretch_Energy-OPLS-2005>
45.1405372619629

> <r_mmod_Bend_Energy-OPLS-2005>
123.357894897461

> <r_mmod_Torsional_Energy-OPLS-2005>
213.819763183594

> <r_mmod_Improper_Torsional_Energy-OPLS-2005>
3.06356430053711

> <r_mmod_Van_der_Waal_Energy-OPLS-2005>
151.539428710938

> <r_mmod_Electrostatic_Energy-OPLS-2005>
-427.394683837891

> <r_mmod_Solvation_Energy-OPLS-2005>
-192.586822509766

> <b_mmod_Minimization_Converged-OPLS-2005>
0

> <r_mmod_RMS_Derivative-OPLS-2005>
3.12700581550598

$$$$
86
                    3D
 Structure written by MMmdl.
173181  0  0  1  0            999 V2000
  -30.7659  -14.4204   20.5281 C   0  0  0  0  0  0
  -30.4038  -12.2534   19.4405 C   0  0  0  0  0  0
  -29.4986  -12.4903   18.2137 C   0  0  0  0  0  0
  -28.0181  -12.3593   18.6199 C   0  0  0  0  0  0
  -27.6662  -13.2132   19.8719 C   0  0  2  0  0  0
  -28.7059  -13.0122   20.9994 C   0  0  0  0  0  0
  -25.2619  -13.8169   20.5689 C   0  0  0  0  0  0
  -24.1871  -13.0446   20.9191 C   0  0  0  0  0  0
  -24.6434  -11.6905   20.8739 C   0  0  0  0  0  0
  -23.9128  -10.4278   21.0381 C   0  0  0  0  0  0
  -24.3673   -9.4196   21.9146 C   0  0  0  0  0  0
  -23.6327   -8.2245   22.0742 C   0  0  0  0  0  0
  -22.4298   -8.0292   21.3555 C   0  0  0  0  0  0
  -21.9942   -9.0277   20.4662 C   0  0  0  0  0  0
  -22.7283  -10.2133   20.3032 C   0  0  0  0  0  0
  -21.6861   -6.0752   22.5288 C   0  0  0  0  0  0
  -21.4023   -6.5663   23.8234 C   0  0  0  0  0  0
  -21.3654   -5.6797   24.9194 C   0  0  0  0  0  0
  -21.6042   -4.3059   24.7252 C   0  0  0  0  0  0
  -21.8811   -3.8160   23.4361 C   0  0  0  0  0  0
  -21.9195   -4.6986   22.3422 C   0  0  0  0  0  0
  -22.7892  -13.5233   21.1845 C   0  0  0  0  0  0
  -22.1639   -4.2165   21.1002 F   0  0  0  0  0  0
  -21.5657   -3.4538   25.7753 F   0  0  0  0  0  0
  -30.0462  -13.2651   20.4503 N   0  0  0  0  0  0
  -26.3062  -12.9355   20.3369 N   0  0  0  0  0  0
  -25.9356  -11.6508   20.5757 N   0  0  0  0  0  0
  -22.0537  -12.8227   22.0413 N   0  0  0  0  0  0
  -25.4362  -15.1880   20.4149 N   0  0  0  0  0  0
  -31.8919  -14.5143   20.0376 O   0  0  0  0  0  0
  -21.6645   -6.8887   21.4240 O   0  0  0  0  0  0
  -22.3557  -14.5526   20.6686 O   0  0  0  0  0  0
  -24.6091  -31.8703   23.2113 C   0  0  0  0  0  0
  -25.9015  -32.4832   23.8383 C   0  0  1  0  0  0
  -27.2305  -27.4658   20.1003 C   0  0  0  0  0  0
  -25.5870  -33.8623   24.2351 N   0  0  0  0  0  0
  -23.3949  -30.4934   21.5483 C   0  0  2  0  0  0
  -24.8472  -28.9681   20.1057 C   0  0  0  0  0  0
  -22.7372  -29.4699   22.4986 C   0  0  0  0  0  0
  -18.0275  -28.1404   22.8472 C   0  0  0  0  0  0
  -24.1503  -36.7304   23.2650 C   0  0  0  0  0  0
  -25.9213  -30.8510   21.3568 C   0  0  0  0  0  0
  -26.0038  -29.4912   20.7005 C   0  0  0  0  0  0
  -27.2036  -28.7495   20.6912 C   0  0  0  0  0  0
  -26.0668  -26.9564   19.4940 C   0  0  0  0  0  0
  -24.8736  -27.7027   19.4952 C   0  0  0  0  0  0
  -23.6011  -29.8219   20.1643 C   0  0  0  0  0  0
  -25.4110  -36.3074   24.0348 C   0  0  1  0  0  0
  -20.5872  -28.3661   23.1343 C   0  0  2  0  0  0
  -20.6765  -26.9381   22.5479 C   0  0  0  0  0  0
  -19.5781  -26.6359   21.5249 C   0  0  0  0  0  0
  -18.1933  -26.7967   22.1580 C   0  0  0  0  0  0
  -19.1529  -28.8837   23.2927 C   0  0  0  0  0  0
  -18.9458  -30.1449   23.8943 C   0  0  0  0  0  0
  -17.6461  -30.6597   24.0594 C   0  0  0  0  0  0
  -25.9018  -34.9463   23.5136 C   0  0  0  0  0  0
  -16.5340  -29.9112   23.6350 C   0  0  0  0  0  0
  -16.7266  -28.6542   23.0328 C   0  0  0  0  0  0
  -26.4429  -31.6607   25.0704 C   0  0  0  0  0  0
  -25.3707  -31.3800   26.1479 C   0  0  0  0  0  0
  -27.0199  -30.3023   24.6066 C   0  0  0  0  0  0
  -27.6030  -32.4310   25.7428 C   0  0  0  0  0  0
  -27.5618  -37.1775   24.8436 C   0  0  0  0  0  0
  -21.4105  -29.3019   22.3720 N   0  0  0  0  0  0
  -26.4281  -37.3770   23.9436 N   0  0  0  0  0  0
  -24.6596  -31.0851   22.0988 N   0  0  0  0  0  0
  -23.4179  -28.8246   23.3025 O   0  0  0  0  0  0
  -28.3584  -26.6936   20.1732 O   0  0  0  0  0  0
  -26.5556  -34.8888   22.4688 O   0  0  0  0  0  0
  -23.5314  -32.1418   23.7552 O   0  0  0  0  0  0
  -29.2824  -18.9683   19.8233 C   0  0  0  0  0  0
  -30.1893  -20.0986   22.1975 C   0  0  0  0  0  0
  -29.9195  -18.1394   20.7689 C   0  0  0  0  0  0
  -30.3098  -18.7085   22.0045 C   0  0  0  0  0  0
  -29.6292  -20.9495   21.2215 C   0  0  0  0  0  0
  -29.0712  -20.3588   20.0506 C   0  0  0  0  0  0
  -30.2351  -16.7484   20.3818 C   0  0  0  0  0  0
  -30.1269  -15.5996   21.0945 C   0  0  0  0  0  0
  -27.4517  -22.0916   16.3581 C   0  0  0  0  0  0
  -30.9205  -17.8814   23.1203 C   0  0  0  0  0  0
  -27.6370  -23.6984   14.3769 C   0  0  0  0  0  0
  -29.6785  -22.4539   21.5602 C   0  0  0  0  0  0
  -27.0951  -23.4725   15.8041 C   0  0  0  0  0  0
  -26.6243  -21.5627   17.5362 C   0  0  0  0  0  0
  -29.4205  -23.5195   20.4570 C   0  0  0  0  0  0
  -28.0739  -24.2750   20.6052 C   0  0  0  0  0  0
  -27.3672  -20.4949   18.3539 C   0  0  0  0  0  0
  -28.2565  -25.6945   21.2002 C   0  0  0  0  0  0
  -28.3647  -21.4288   15.8551 O   0  0  0  0  0  0
  -28.3547  -21.1359   19.1652 O   0  0  0  0  0  0
  -31.4557  -12.2837   19.1535 H   0  0  0  0  0  0
  -30.2446  -11.2498   19.8384 H   0  0  0  0  0  0
  -29.7415  -11.7703   17.4293 H   0  0  0  0  0  0
  -29.6868  -13.4783   17.7909 H   0  0  0  0  0  0
  -27.8338  -11.3051   18.8288 H   0  0  0  0  0  0
  -27.3690  -12.6241   17.7845 H   0  0  0  0  0  0
  -27.7049  -14.2589   19.5732 H   0  0  0  0  0  0
  -28.6533  -11.9879   21.3693 H   0  0  0  0  0  0
  -28.4779  -13.6468   21.8571 H   0  0  0  0  0  0
  -25.2821   -9.5681   22.4731 H   0  0  0  0  0  0
  -24.0058   -7.4625   22.7432 H   0  0  0  0  0  0
  -21.0888   -8.8808   19.8950 H   0  0  0  0  0  0
  -22.3740  -10.9706   19.6175 H   0  0  0  0  0  0
  -21.1980   -7.6145   23.9774 H   0  0  0  0  0  0
  -21.1488   -6.0506   25.9111 H   0  0  0  0  0  0
  -22.0588   -2.7618   23.2873 H   0  0  0  0  0  0
  -22.4142  -11.9897   22.4840 H   0  0  0  0  0  0
  -21.1165  -13.1266   22.2610 H   0  0  0  0  0  0
  -24.6840  -15.8544   20.5523 H   0  0  0  0  0  0
  -26.3136  -15.6225   20.1529 H   0  0  0  0  0  0
  -26.7078  -32.5564   23.1162 H   0  0  0  0  0  0
  -24.9983  -33.9767   25.0450 H   0  0  0  0  0  0
  -22.6840  -31.3119   21.4089 H   0  0  0  0  0  0
  -23.3754  -35.9647   23.3229 H   0  0  0  0  0  0
  -24.3635  -36.8989   22.2087 H   0  0  0  0  0  0
  -23.7233  -37.6479   23.6696 H   0  0  0  0  0  0
  -26.0294  -31.6222   20.5917 H   0  0  0  0  0  0
  -26.8143  -30.9023   21.9703 H   0  0  0  0  0  0
  -28.0943  -29.1437   21.1591 H   0  0  0  0  0  0
  -26.0796  -25.9787   19.0340 H   0  0  0  0  0  0
  -23.9850  -27.2897   19.0394 H   0  0  0  0  0  0
  -23.6975  -30.5944   19.4019 H   0  0  0  0  0  0
  -22.7283  -29.2331   19.8754 H   0  0  0  0  0  0
  -25.1297  -36.1905   25.0834 H   0  0  0  0  0  0
  -20.9965  -28.3229   24.1468 H   0  0  0  0  0  0
  -20.5643  -26.2270   23.3672 H   0  0  0  0  0  0
  -21.6648  -26.7424   22.1309 H   0  0  0  0  0  0
  -19.6942  -25.6265   21.1298 H   0  0  0  0  0  0
  -19.6799  -27.3172   20.6796 H   0  0  0  0  0  0
  -17.4259  -26.6805   21.3918 H   0  0  0  0  0  0
  -18.0212  -26.0093   22.8922 H   0  0  0  0  0  0
  -19.7938  -30.7260   24.2316 H   0  0  0  0  0  0
  -17.5028  -31.6290   24.5183 H   0  0  0  0  0  0
  -15.5361  -30.3044   23.7669 H   0  0  0  0  0  0
  -15.8644  -28.0909   22.6997 H   0  0  0  0  0  0
  -24.5871  -30.7121   25.7888 H   0  0  0  0  0  0
  -24.8894  -32.3006   26.4807 H   0  0  0  0  0  0
  -25.8058  -30.9089   27.0305 H   0  0  0  0  0  0
  -26.2712  -29.6842   24.1098 H   0  0  0  0  0  0
  -27.3918  -29.7212   25.4519 H   0  0  0  0  0  0
  -27.8575  -30.4332   23.9214 H   0  0  0  0  0  0
  -27.2629  -33.3549   26.2131 H   0  0  0  0  0  0
  -28.3729  -32.6999   25.0181 H   0  0  0  0  0  0
  -28.0813  -31.8371   26.5235 H   0  0  0  0  0  0
  -28.2563  -38.0133   24.7472 H   0  0  0  0  0  0
  -28.1153  -36.2646   24.6183 H   0  0  0  0  0  0
  -27.2371  -37.1331   25.8845 H   0  0  0  0  0  0
  -20.9207  -29.8671   21.6915 H   0  0  0  0  0  0
  -26.0158  -38.2838   24.1445 H   0  0  0  0  0  0
  -28.9753  -18.5044   18.8956 H   0  0  0  0  0  0
  -30.5484  -20.5353   23.1211 H   0  0  0  0  0  0
  -30.6883  -16.6830   19.3975 H   0  0  0  0  0  0
  -29.6598  -15.5671   22.0670 H   0  0  0  0  0  0
  -31.4393  -18.5139   23.8396 H   0  0  0  0  0  0
  -31.6382  -17.1538   22.7423 H   0  0  0  0  0  0
  -30.1283  -17.3528   23.6498 H   0  0  0  0  0  0
  -27.4184  -24.7071   14.0252 H   0  0  0  0  0  0
  -27.1943  -22.9939   13.6685 H   0  0  0  0  0  0
  -28.7208  -23.5678   14.3353 H   0  0  0  0  0  0
  -30.6937  -22.6290   21.9328 H   0  0  0  0  0  0
  -29.0481  -22.6363   22.4332 H   0  0  0  0  0  0
  -27.5106  -24.2222   16.4799 H   0  0  0  0  0  0
  -26.0109  -23.5924   15.8291 H   0  0  0  0  0  0
  -25.7048  -21.1327   17.1324 H   0  0  0  0  0  0
  -26.3267  -22.3873   18.1865 H   0  0  0  0  0  0
  -29.5709  -23.1375   19.4482 H   0  0  0  0  0  0
  -30.2168  -24.2642   20.5314 H   0  0  0  0  0  0
  -27.3886  -23.7045   21.2410 H   0  0  0  0  0  0
  -27.5634  -24.3329   19.6406 H   0  0  0  0  0  0
  -27.8074  -19.7632   17.6742 H   0  0  0  0  0  0
  -26.6529  -19.9558   18.9814 H   0  0  0  0  0  0
  -29.1507  -25.7461   21.8234 H   0  0  0  0  0  0
  -27.4428  -25.9100   21.9017 H   0  0  0  0  0  0
  1 25  1  0  0  0
  1 30  2  0  0  0
  1 78  1  0  0  0
  2  3  1  0  0  0
  2 25  1  0  0  0
  2 91  1  0  0  0
  2 92  1  0  0  0
  3  4  1  0  0  0
  3 93  1  0  0  0
  3 94  1  0  0  0
  4  5  1  0  0  0
  4 95  1  0  0  0
  4 96  1  0  0  0
  5  6  1  0  0  0
  5 26  1  0  0  0
  5 97  1  0  0  0
  6 25  1  0  0  0
  6 98  1  0  0  0
  6 99  1  0  0  0
  7  8  2  0  0  0
  7 26  1  0  0  0
  7 29  1  0  0  0
  8  9  1  0  0  0
  8 22  1  0  0  0
  9 10  1  0  0  0
  9 27  2  0  0  0
 10 11  2  0  0  0
 10 15  1  0  0  0
 11 12  1  0  0  0
 11100  1  0  0  0
 12 13  2  0  0  0
 12101  1  0  0  0
 13 14  1  0  0  0
 13 31  1  0  0  0
 14 15  2  0  0  0
 14102  1  0  0  0
 15103  1  0  0  0
 16 17  2  0  0  0
 16 21  1  0  0  0
 16 31  1  0  0  0
 17 18  1  0  0  0
 17104  1  0  0  0
 18 19  2  0  0  0
 18105  1  0  0  0
 19 20  1  0  0  0
 19 24  1  0  0  0
 20 21  2  0  0  0
 20106  1  0  0  0
 21 23  1  0  0  0
 22 28  1  0  0  0
 22 32  2  0  0  0
 26 27  1  0  0  0
 28107  1  0  0  0
 28108  1  0  0  0
 29109  1  0  0  0
 29110  1  0  0  0
 33 34  1  0  0  0
 33 66  1  0  0  0
 33 70  2  0  0  0
 34 36  1  0  0  0
 34 59  1  0  0  0
 34111  1  0  0  0
 35 44  2  0  0  0
 35 45  1  0  0  0
 35 68  1  0  0  0
 36 56  1  0  0  0
 36112  1  0  0  0
 37 39  1  0  0  0
 37 47  1  0  0  0
 37 66  1  0  0  0
 37113  1  0  0  0
 38 43  2  0  0  0
 38 46  1  0  0  0
 38 47  1  0  0  0
 39 64  1  0  0  0
 39 67  2  0  0  0
 40 52  1  0  0  0
 40 53  2  0  0  0
 40 58  1  0  0  0
 41114  1  0  0  0
 41115  1  0  0  0
 41116  1  0  0  0
 41 48  1  0  0  0
 42 43  1  0  0  0
 42 66  1  0  0  0
 42117  1  0  0  0
 42118  1  0  0  0
 43 44  1  0  0  0
 44119  1  0  0  0
 45 46  2  0  0  0
 45120  1  0  0  0
 46121  1  0  0  0
 47122  1  0  0  0
 47123  1  0  0  0
 48 56  1  0  0  0
 48 65  1  0  0  0
 48124  1  0  0  0
 49 50  1  0  0  0
 49 53  1  0  0  0
 49 64  1  0  0  0
 49125  1  0  0  0
 50 51  1  0  0  0
 50126  1  0  0  0
 50127  1  0  0  0
 51 52  1  0  0  0
 51128  1  0  0  0
 51129  1  0  0  0
 52130  1  0  0  0
 52131  1  0  0  0
 53 54  1  0  0  0
 54 55  2  0  0  0
 54132  1  0  0  0
 55 57  1  0  0  0
 55133  1  0  0  0
 56 69  2  0  0  0
 57 58  2  0  0  0
 57134  1  0  0  0
 58135  1  0  0  0
 59 60  1  0  0  0
 59 61  1  0  0  0
 59 62  1  0  0  0
 60136  1  0  0  0
 60137  1  0  0  0
 60138  1  0  0  0
 61139  1  0  0  0
 61140  1  0  0  0
 61141  1  0  0  0
 62142  1  0  0  0
 62143  1  0  0  0
 62144  1  0  0  0
 63 65  1  0  0  0
 63145  1  0  0  0
 63146  1  0  0  0
 63147  1  0  0  0
 64148  1  0  0  0
 65149  1  0  0  0
 68 88  1  0  0  0
 71 73  2  0  0  0
 71 76  1  0  0  0
 71150  1  0  0  0
 72 74  2  0  0  0
 72 75  1  0  0  0
 72151  1  0  0  0
 73 74  1  0  0  0
 73 77  1  0  0  0
 74 80  1  0  0  0
 75 76  2  0  0  0
 75 82  1  0  0  0
 76 90  1  0  0  0
 77 78  2  0  0  0
 77152  1  0  0  0
 78153  1  0  0  0
 79 83  1  0  0  0
 79 84  1  0  0  0
 79 89  2  0  0  0
 80154  1  0  0  0
 80155  1  0  0  0
 80156  1  0  0  0
 81 83  1  0  0  0
 81157  1  0  0  0
 81158  1  0  0  0
 81159  1  0  0  0
 82 85  1  0  0  0
 82160  1  0  0  0
 82161  1  0  0  0
 83162  1  0  0  0
 83163  1  0  0  0
 84 87  1  0  0  0
 84164  1  0  0  0
 84165  1  0  0  0
 85 86  1  0  0  0
 85166  1  0  0  0
 85167  1  0  0  0
 86 88  1  0  0  0
 86168  1  0  0  0
 86169  1  0  0  0
 87 90  1  0  0  0
 87170  1  0  0  0
 87171  1  0  0  0
 88172  1  0  0  0
 88173  1  0  0  0
M  ISO  4   1 100  68 101  78 100  88 101
M  END
> <chiral flag>
0

> <version>
0

> <s_m_source_file>
/data/baiqing/PycharmProjects/Reinvent-master-3.2/result/LINK_invent/BTK/process_docking_weight1_custom_product_contain_oxygen_bond_distance_aromatic_linkinvent_7_9_3/rearranged_h_0133.sdf

> <i_m_source_file_index>
87

> <r_mmod_Potential_Energy-OPLS-2005>
34.7697982788086

> <r_mmod_Stretch_Energy-OPLS-2005>
40.2473754882812

> <r_mmod_Bend_Energy-OPLS-2005>
121.146659851074

> <r_mmod_Torsional_Energy-OPLS-2005>
267.448455810547

> <r_mmod_Improper_Torsional_Energy-OPLS-2005>
4.8972110748291

> <r_mmod_Van_der_Waal_Energy-OPLS-2005>
164.580169677734

> <r_mmod_Electrostatic_Energy-OPLS-2005>
-371.02734375

> <r_mmod_Solvation_Energy-OPLS-2005>
-209.169128417969

> <b_mmod_Minimization_Converged-OPLS-2005>
0

> <r_mmod_RMS_Derivative-OPLS-2005>
5.70923042297363

$$$$
87
                    3D
 Structure written by MMmdl.
156164  0  0  1  0            999 V2000
  -30.7227  -14.4231   20.6217 C   0  0  0  0  0  0
  -30.4205  -12.2854   19.4194 C   0  0  0  0  0  0
  -29.4928  -12.5206   18.2081 C   0  0  0  0  0  0
  -28.0130  -12.3788   18.6181 C   0  0  0  0  0  0
  -27.6635  -13.2037   19.8849 C   0  0  2  0  0  0
  -28.7073  -12.9652   21.0037 C   0  0  0  0  0  0
  -25.2493  -13.8105   20.5587 C   0  0  0  0  0  0
  -24.1773  -13.0363   20.9099 C   0  0  0  0  0  0
  -24.6377  -11.6854   20.8715 C   0  0  0  0  0  0
  -23.9059  -10.4237   21.0388 C   0  0  0  0  0  0
  -24.3614   -9.4163   21.9172 C   0  0  0  0  0  0
  -23.6290   -8.2199   22.0742 C   0  0  0  0  0  0
  -22.4267   -8.0242   21.3544 C   0  0  0  0  0  0
  -21.9899   -9.0211   20.4646 C   0  0  0  0  0  0
  -22.7226  -10.2088   20.3046 C   0  0  0  0  0  0
  -21.6835   -6.0714   22.5288 C   0  0  0  0  0  0
  -21.4001   -6.5624   23.8221 C   0  0  0  0  0  0
  -21.3662   -5.6781   24.9190 C   0  0  0  0  0  0
  -21.6043   -4.3040   24.7245 C   0  0  0  0  0  0
  -21.8814   -3.8128   23.4365 C   0  0  0  0  0  0
  -21.9190   -4.6943   22.3419 C   0  0  0  0  0  0
  -22.7807  -13.5158   21.1800 C   0  0  0  0  0  0
  -22.1647   -4.2120   21.0997 F   0  0  0  0  0  0
  -21.5647   -3.4534   25.7764 F   0  0  0  0  0  0
  -30.0495  -13.2508   20.4646 N   0  0  0  0  0  0
  -26.3020  -12.9313   20.3434 N   0  0  0  0  0  0
  -25.9324  -11.6471   20.5824 N   0  0  0  0  0  0
  -22.0488  -12.8150   22.0393 N   0  0  0  0  0  0
  -25.4022  -15.1819   20.3952 N   0  0  0  0  0  0
  -31.8067  -14.6598   20.0767 O   0  0  0  0  0  0
  -21.6624   -6.8850   21.4243 O   0  0  0  0  0  0
  -22.3471  -14.5479   20.6696 O   0  0  0  0  0  0
  -24.6102  -31.8662   23.2081 C   0  0  0  0  0  0
  -25.8995  -32.4822   23.8375 C   0  0  1  0  0  0
  -27.2518  -27.4594   20.1006 C   0  0  0  0  0  0
  -25.5864  -33.8612   24.2322 N   0  0  0  0  0  0
  -23.3982  -30.4881   21.5462 C   0  0  2  0  0  0
  -24.8494  -28.9554   20.1158 C   0  0  0  0  0  0
  -22.7392  -29.4625   22.4974 C   0  0  0  0  0  0
  -18.0258  -28.1384   22.8471 C   0  0  0  0  0  0
  -24.1473  -36.7301   23.2647 C   0  0  0  0  0  0
  -25.9208  -30.8505   21.3439 C   0  0  0  0  0  0
  -26.0076  -29.4813   20.7025 C   0  0  0  0  0  0
  -27.2104  -28.7433   20.6870 C   0  0  0  0  0  0
  -26.0720  -26.9424   19.5115 C   0  0  0  0  0  0
  -24.8745  -27.6834   19.5208 C   0  0  0  0  0  0
  -23.6076  -29.8163   20.1624 C   0  0  0  0  0  0
  -25.4094  -36.3110   24.0349 C   0  0  1  0  0  0
  -20.5837  -28.3644   23.1323 C   0  0  2  0  0  0
  -20.6738  -26.9377   22.5420 C   0  0  0  0  0  0
  -19.5740  -26.6389   21.5187 C   0  0  0  0  0  0
  -18.1914  -26.7937   22.1592 C   0  0  0  0  0  0
  -19.1508  -28.8830   23.2898 C   0  0  0  0  0  0
  -18.9453  -30.1442   23.8902 C   0  0  0  0  0  0
  -17.6460  -30.6596   24.0567 C   0  0  0  0  0  0
  -25.9013  -34.9476   23.5141 C   0  0  0  0  0  0
  -16.5345  -29.9100   23.6332 C   0  0  0  0  0  0
  -16.7246  -28.6523   23.0327 C   0  0  0  0  0  0
  -26.4473  -31.6565   25.0657 C   0  0  0  0  0  0
  -25.3816  -31.3586   26.1461 C   0  0  0  0  0  0
  -27.0262  -30.3045   24.5877 C   0  0  0  0  0  0
  -27.6070  -32.4252   25.7412 C   0  0  0  0  0  0
  -27.5565  -37.1796   24.8484 C   0  0  0  0  0  0
  -21.4111  -29.3022   22.3742 N   0  0  0  0  0  0
  -26.4281  -37.3793   23.9425 N   0  0  0  0  0  0
  -24.6626  -31.0813   22.0936 N   0  0  0  0  0  0
  -23.4190  -28.8154   23.2988 O   0  0  0  0  0  0
  -28.4391  -26.7566   20.1254 O   0  0  0  0  0  0
  -26.5596  -34.8934   22.4713 O   0  0  0  0  0  0
  -23.5306  -32.1357   23.7512 O   0  0  0  0  0  0
  -29.3796  -20.3510   22.1595 C   0  0  0  0  0  0
  -31.1641  -20.0626   20.5166 C   0  0  0  0  0  0
  -29.0318  -18.9925   22.0235 C   0  0  0  0  0  0
  -30.8203  -18.7005   20.3826 C   0  0  0  0  0  0
  -30.4181  -20.8994   21.3758 C   0  0  0  0  0  0
  -29.7310  -18.1804   21.1079 C   0  0  0  0  0  0
  -30.6632  -22.4003   21.4001 C   0  0  0  0  0  0
  -29.4711  -23.1567   20.7798 C   0  0  0  0  0  0
  -29.6302  -24.6851   20.6862 C   0  0  0  0  0  0
  -28.3423  -25.3332   20.1476 C   0  0  0  0  0  0
  -30.1285  -15.4066   21.4014 N   0  0  0  0  0  0
  -27.7797  -16.4081   21.3455 O   0  0  0  0  0  0
  -29.1633  -16.4243   19.2154 O   0  0  0  0  0  0
  -29.0835  -16.5630   20.6800 S   0  0  0  0  0  0
  -31.4674  -12.3704   19.1215 H   0  0  0  0  0  0
  -30.2994  -11.2674   19.7952 H   0  0  0  0  0  0
  -29.7261  -11.8188   17.4065 H   0  0  0  0  0  0
  -29.6663  -13.5199   17.8022 H   0  0  0  0  0  0
  -27.8150  -11.3216   18.7982 H   0  0  0  0  0  0
  -27.3646  -12.6686   17.7907 H   0  0  0  0  0  0
  -27.7046  -14.2526   19.5974 H   0  0  0  0  0  0
  -28.6666  -11.9291   21.3403 H   0  0  0  0  0  0
  -28.4660  -13.5631   21.8829 H   0  0  0  0  0  0
  -25.2747   -9.5643   22.4768 H   0  0  0  0  0  0
  -23.9993   -7.4581   22.7457 H   0  0  0  0  0  0
  -21.0821   -8.8728   19.8966 H   0  0  0  0  0  0
  -22.3655  -10.9634   19.6174 H   0  0  0  0  0  0
  -21.1959   -7.6127   23.9719 H   0  0  0  0  0  0
  -21.1500   -6.0512   25.9093 H   0  0  0  0  0  0
  -22.0590   -2.7588   23.2883 H   0  0  0  0  0  0
  -22.4101  -11.9781   22.4730 H   0  0  0  0  0  0
  -21.1125  -13.1188   22.2667 H   0  0  0  0  0  0
  -24.6415  -15.8210   20.5941 H   0  0  0  0  0  0
  -26.3095  -15.6425   20.4052 H   0  0  0  0  0  0
  -26.7057  -32.5556   23.1134 H   0  0  0  0  0  0
  -25.0027  -33.9790   25.0477 H   0  0  0  0  0  0
  -22.6847  -31.3015   21.4017 H   0  0  0  0  0  0
  -23.3735  -35.9638   23.3339 H   0  0  0  0  0  0
  -24.3563  -36.8877   22.2057 H   0  0  0  0  0  0
  -23.7231  -37.6513   23.6640 H   0  0  0  0  0  0
  -26.0069  -31.6067   20.5623 H   0  0  0  0  0  0
  -26.8206  -30.9267   21.9429 H   0  0  0  0  0  0
  -28.1087  -29.1493   21.1324 H   0  0  0  0  0  0
  -26.0647  -25.9709   19.0409 H   0  0  0  0  0  0
  -23.9815  -27.2663   19.0739 H   0  0  0  0  0  0
  -23.7184  -30.5861   19.3990 H   0  0  0  0  0  0
  -22.7352  -29.2321   19.8652 H   0  0  0  0  0  0
  -25.1264  -36.1970   25.0843 H   0  0  0  0  0  0
  -20.9926  -28.3201   24.1443 H   0  0  0  0  0  0
  -20.5580  -26.2247   23.3593 H   0  0  0  0  0  0
  -21.6618  -26.7391   22.1248 H   0  0  0  0  0  0
  -19.6900  -25.6306   21.1199 H   0  0  0  0  0  0
  -19.6714  -27.3222   20.6743 H   0  0  0  0  0  0
  -17.4175  -26.6660   21.4008 H   0  0  0  0  0  0
  -18.0332  -26.0092   22.9009 H   0  0  0  0  0  0
  -19.7938  -30.7247   24.2272 H   0  0  0  0  0  0
  -17.5032  -31.6274   24.5172 H   0  0  0  0  0  0
  -15.5352  -30.3021   23.7674 H   0  0  0  0  0  0
  -15.8637  -28.0879   22.7019 H   0  0  0  0  0  0
  -24.6050  -30.6831   25.7838 H   0  0  0  0  0  0
  -24.8941  -32.2691   26.4953 H   0  0  0  0  0  0
  -25.8292  -30.8784   27.0175 H   0  0  0  0  0  0
  -26.2696  -29.6803   24.1094 H   0  0  0  0  0  0
  -27.4303  -29.7256   25.4184 H   0  0  0  0  0  0
  -27.8415  -30.4422   23.8771 H   0  0  0  0  0  0
  -27.2714  -33.3554   26.2014 H   0  0  0  0  0  0
  -28.3884  -32.6790   25.0235 H   0  0  0  0  0  0
  -28.0731  -31.8341   26.5313 H   0  0  0  0  0  0
  -28.2611  -38.0064   24.7508 H   0  0  0  0  0  0
  -28.1028  -36.2596   24.6334 H   0  0  0  0  0  0
  -27.2292  -37.1490   25.8894 H   0  0  0  0  0  0
  -20.9257  -29.8806   21.7019 H   0  0  0  0  0  0
  -26.0163  -38.2857   24.1484 H   0  0  0  0  0  0
  -28.8053  -20.9890   22.8174 H   0  0  0  0  0  0
  -31.9640  -20.4730   19.9158 H   0  0  0  0  0  0
  -28.1834  -18.5981   22.5646 H   0  0  0  0  0  0
  -31.3373  -18.0718   19.6732 H   0  0  0  0  0  0
  -31.5795  -22.6368   20.8555 H   0  0  0  0  0  0
  -30.8273  -22.7190   22.4309 H   0  0  0  0  0  0
  -29.2903  -22.7643   19.7785 H   0  0  0  0  0  0
  -28.5727  -22.9310   21.3565 H   0  0  0  0  0  0
  -29.8582  -25.0943   21.6698 H   0  0  0  0  0  0
  -30.4751  -24.9342   20.0429 H   0  0  0  0  0  0
  -27.5127  -25.0287   20.7893 H   0  0  0  0  0  0
  -28.1401  -24.9636   19.1417 H   0  0  0  0  0  0
  -29.6744  -15.1106   22.2613 H   0  0  0  0  0  0
  1 25  1  0  0  0
  1 30  2  0  0  0
  1 81  1  0  0  0
  2  3  1  0  0  0
  2 25  1  0  0  0
  2 85  1  0  0  0
  2 86  1  0  0  0
  3  4  1  0  0  0
  3 87  1  0  0  0
  3 88  1  0  0  0
  4  5  1  0  0  0
  4 89  1  0  0  0
  4 90  1  0  0  0
  5  6  1  0  0  0
  5 26  1  0  0  0
  5 91  1  0  0  0
  6 25  1  0  0  0
  6 92  1  0  0  0
  6 93  1  0  0  0
  7  8  2  0  0  0
  7 26  1  0  0  0
  7 29  1  0  0  0
  8  9  1  0  0  0
  8 22  1  0  0  0
  9 10  1  0  0  0
  9 27  2  0  0  0
 10 11  2  0  0  0
 10 15  1  0  0  0
 11 12  1  0  0  0
 11 94  1  0  0  0
 12 13  2  0  0  0
 12 95  1  0  0  0
 13 14  1  0  0  0
 13 31  1  0  0  0
 14 15  2  0  0  0
 14 96  1  0  0  0
 15 97  1  0  0  0
 16 17  2  0  0  0
 16 21  1  0  0  0
 16 31  1  0  0  0
 17 18  1  0  0  0
 17 98  1  0  0  0
 18 19  2  0  0  0
 18 99  1  0  0  0
 19 20  1  0  0  0
 19 24  1  0  0  0
 20 21  2  0  0  0
 20100  1  0  0  0
 21 23  1  0  0  0
 22 28  1  0  0  0
 22 32  2  0  0  0
 26 27  1  0  0  0
 28101  1  0  0  0
 28102  1  0  0  0
 29103  1  0  0  0
 29104  1  0  0  0
 33 34  1  0  0  0
 33 66  1  0  0  0
 33 70  2  0  0  0
 34 36  1  0  0  0
 34 59  1  0  0  0
 34105  1  0  0  0
 35 44  2  0  0  0
 35 45  1  0  0  0
 35 68  1  0  0  0
 36 56  1  0  0  0
 36106  1  0  0  0
 37 39  1  0  0  0
 37 47  1  0  0  0
 37 66  1  0  0  0
 37107  1  0  0  0
 38 43  2  0  0  0
 38 46  1  0  0  0
 38 47  1  0  0  0
 39 64  1  0  0  0
 39 67  2  0  0  0
 40 52  1  0  0  0
 40 53  2  0  0  0
 40 58  1  0  0  0
 41108  1  0  0  0
 41109  1  0  0  0
 41110  1  0  0  0
 41 48  1  0  0  0
 42 43  1  0  0  0
 42 66  1  0  0  0
 42111  1  0  0  0
 42112  1  0  0  0
 43 44  1  0  0  0
 44113  1  0  0  0
 45 46  2  0  0  0
 45114  1  0  0  0
 46115  1  0  0  0
 47116  1  0  0  0
 47117  1  0  0  0
 48 56  1  0  0  0
 48 65  1  0  0  0
 48118  1  0  0  0
 49 50  1  0  0  0
 49 53  1  0  0  0
 49 64  1  0  0  0
 49119  1  0  0  0
 50 51  1  0  0  0
 50120  1  0  0  0
 50121  1  0  0  0
 51 52  1  0  0  0
 51122  1  0  0  0
 51123  1  0  0  0
 52124  1  0  0  0
 52125  1  0  0  0
 53 54  1  0  0  0
 54 55  2  0  0  0
 54126  1  0  0  0
 55 57  1  0  0  0
 55127  1  0  0  0
 56 69  2  0  0  0
 57 58  2  0  0  0
 57128  1  0  0  0
 58129  1  0  0  0
 59 60  1  0  0  0
 59 61  1  0  0  0
 59 62  1  0  0  0
 60130  1  0  0  0
 60131  1  0  0  0
 60132  1  0  0  0
 61133  1  0  0  0
 61134  1  0  0  0
 61135  1  0  0  0
 62136  1  0  0  0
 62137  1  0  0  0
 62138  1  0  0  0
 63 65  1  0  0  0
 63139  1  0  0  0
 63140  1  0  0  0
 63141  1  0  0  0
 64142  1  0  0  0
 65143  1  0  0  0
 68 80  1  0  0  0
 71 73  2  0  0  0
 71 75  1  0  0  0
 71144  1  0  0  0
 72 74  1  0  0  0
 72 75  2  0  0  0
 72145  1  0  0  0
 73 76  1  0  0  0
 73146  1  0  0  0
 74 76  2  0  0  0
 74147  1  0  0  0
 75 77  1  0  0  0
 76 84  1  0  0  0
 77 78  1  0  0  0
 77148  1  0  0  0
 77149  1  0  0  0
 78 79  1  0  0  0
 78150  1  0  0  0
 78151  1  0  0  0
 79 80  1  0  0  0
 79152  1  0  0  0
 79153  1  0  0  0
 80154  1  0  0  0
 80155  1  0  0  0
 81156  1  0  0  0
 81 84  1  0  0  0
 82 84  2  0  0  0
 83 84  2  0  0  0
M  ISO  4   1 100  68 101  80 101  81 100
M  END
> <chiral flag>
0

> <version>
0

> <s_m_source_file>
/data/baiqing/PycharmProjects/Reinvent-master-3.2/result/LINK_invent/BTK/process_docking_weight1_custom_product_contain_oxygen_bond_distance_aromatic_linkinvent_7_9_3/rearranged_h_0133.sdf

> <i_m_source_file_index>
88

> <r_mmod_Potential_Energy-OPLS-2005>
-202.048614501953

> <r_mmod_Stretch_Energy-OPLS-2005>
32.7798881530762

> <r_mmod_Bend_Energy-OPLS-2005>
87.9900970458984

> <r_mmod_Torsional_Energy-OPLS-2005>
225.535446166992

> <r_mmod_Improper_Torsional_Energy-OPLS-2005>
8.43799877166748

> <r_mmod_Van_der_Waal_Energy-OPLS-2005>
141.585342407227

> <r_mmod_Electrostatic_Energy-OPLS-2005>
-487.654541015625

> <r_mmod_Solvation_Energy-OPLS-2005>
-219.560073852539

> <b_mmod_Minimization_Converged-OPLS-2005>
0

> <r_mmod_RMS_Derivative-OPLS-2005>
2.82479000091553

$$$$
88
                    3D
 Structure written by MMmdl.
164173  0  0  1  0            999 V2000
  -30.6895  -14.4760   20.5885 C   0  0  0  0  0  0
  -30.4345  -12.3112   19.4143 C   0  0  0  0  0  0
  -29.5011  -12.5098   18.2022 C   0  0  0  0  0  0
  -28.0223  -12.3592   18.6170 C   0  0  0  0  0  0
  -27.6667  -13.1990   19.8738 C   0  0  2  0  0  0
  -28.7131  -12.9742   20.9914 C   0  0  0  0  0  0
  -25.2633  -13.8138   20.5685 C   0  0  0  0  0  0
  -24.1870  -13.0435   20.9178 C   0  0  0  0  0  0
  -24.6403  -11.6894   20.8719 C   0  0  0  0  0  0
  -23.9053  -10.4292   21.0391 C   0  0  0  0  0  0
  -24.3604   -9.4210   21.9175 C   0  0  0  0  0  0
  -23.6286   -8.2241   22.0746 C   0  0  0  0  0  0
  -22.4264   -8.0274   21.3540 C   0  0  0  0  0  0
  -21.9901   -9.0246   20.4633 C   0  0  0  0  0  0
  -22.7223  -10.2129   20.3044 C   0  0  0  0  0  0
  -21.6847   -6.0728   22.5282 C   0  0  0  0  0  0
  -21.3999   -6.5635   23.8210 C   0  0  0  0  0  0
  -21.3667   -5.6791   24.9180 C   0  0  0  0  0  0
  -21.6054   -4.3055   24.7230 C   0  0  0  0  0  0
  -21.8813   -3.8141   23.4352 C   0  0  0  0  0  0
  -21.9188   -4.6958   22.3404 C   0  0  0  0  0  0
  -22.7891  -13.5238   21.1842 C   0  0  0  0  0  0
  -22.1656   -4.2143   21.0984 F   0  0  0  0  0  0
  -21.5643   -3.4538   25.7745 F   0  0  0  0  0  0
  -30.0411  -13.2870   20.4406 N   0  0  0  0  0  0
  -26.3059  -12.9290   20.3361 N   0  0  0  0  0  0
  -25.9331  -11.6455   20.5747 N   0  0  0  0  0  0
  -22.0512  -12.8241   22.0391 N   0  0  0  0  0  0
  -25.4373  -15.1857   20.4095 N   0  0  0  0  0  0
  -31.8020  -14.6812   20.0937 O   0  0  0  0  0  0
  -21.6636   -6.8870   21.4237 O   0  0  0  0  0  0
  -22.3580  -14.5545   20.6687 O   0  0  0  0  0  0
  -24.6165  -31.8685   23.2108 C   0  0  0  0  0  0
  -25.9055  -32.4823   23.8409 C   0  0  1  0  0  0
  -27.2247  -27.4025   20.1081 C   0  0  0  0  0  0
  -25.5915  -33.8620   24.2347 N   0  0  0  0  0  0
  -23.4062  -30.4922   21.5525 C   0  0  2  0  0  0
  -24.8527  -28.9571   20.1211 C   0  0  0  0  0  0
  -22.7437  -29.4640   22.4988 C   0  0  0  0  0  0
  -18.0290  -28.1361   22.8502 C   0  0  0  0  0  0
  -24.1480  -36.7298   23.2643 C   0  0  0  0  0  0
  -25.9386  -30.8200   21.3762 C   0  0  0  0  0  0
  -26.0135  -29.4479   20.7340 C   0  0  0  0  0  0
  -27.2018  -28.6737   20.7360 C   0  0  0  0  0  0
  -26.0591  -26.9621   19.4454 C   0  0  0  0  0  0
  -24.8710  -27.7118   19.4771 C   0  0  0  0  0  0
  -23.6180  -29.8282   20.1671 C   0  0  0  0  0  0
  -25.4101  -36.3107   24.0349 C   0  0  1  0  0  0
  -20.5885  -28.3648   23.1324 C   0  0  2  0  0  0
  -20.6766  -26.9374   22.5426 C   0  0  0  0  0  0
  -19.5740  -26.6365   21.5225 C   0  0  0  0  0  0
  -18.1921  -26.7911   22.1634 C   0  0  0  0  0  0
  -19.1540  -28.8824   23.2910 C   0  0  0  0  0  0
  -18.9457  -30.1438   23.8903 C   0  0  0  0  0  0
  -17.6458  -30.6574   24.0560 C   0  0  0  0  0  0
  -25.9034  -34.9474   23.5143 C   0  0  0  0  0  0
  -16.5352  -29.9069   23.6330 C   0  0  0  0  0  0
  -16.7278  -28.6491   23.0347 C   0  0  0  0  0  0
  -26.4466  -31.6597   25.0740 C   0  0  0  0  0  0
  -25.3729  -31.3702   26.1489 C   0  0  0  0  0  0
  -27.0295  -30.3046   24.6110 C   0  0  0  0  0  0
  -27.6044  -32.4314   25.7501 C   0  0  0  0  0  0
  -27.5571  -37.1800   24.8474 C   0  0  0  0  0  0
  -21.4159  -29.3011   22.3722 N   0  0  0  0  0  0
  -26.4288  -37.3793   23.9412 N   0  0  0  0  0  0
  -24.6716  -31.0756   22.1038 N   0  0  0  0  0  0
  -23.4203  -28.8180   23.3027 O   0  0  0  0  0  0
  -28.3807  -26.6476   20.0061 O   0  0  0  0  0  0
  -26.5587  -34.8923   22.4699 O   0  0  0  0  0  0
  -23.5349  -32.1451   23.7482 O   0  0  0  0  0  0
  -28.7963  -20.5588   20.6479 C   0  0  0  0  0  0
  -30.0214  -22.4243   21.5975 C   0  0  0  0  0  0
  -30.7666  -20.1248   21.9976 C   0  0  0  0  0  0
  -28.9190  -21.9672   20.8396 C   0  0  0  0  0  0
  -29.6733  -19.6303   21.2604 C   0  0  0  0  0  0
  -30.9442  -21.5143   22.1539 C   0  0  0  0  0  0
  -26.0680  -22.7584   21.9105 C   0  0  0  0  0  0
  -26.4333  -22.3574   20.4698 C   0  0  0  0  0  0
  -26.9129  -24.0060   22.2251 C   0  0  0  0  0  0
  -27.8552  -22.9328   20.2415 C   0  0  1  0  0  0
  -27.5964  -24.3376   20.8955 C   0  0  1  0  0  0
  -29.3245  -18.1339   21.2517 C   0  0  0  0  0  0
  -29.9711  -15.6488   21.3026 C   0  0  0  0  0  0
  -28.6077  -25.5348   20.9108 C   0  0  0  0  0  0
  -30.4412  -17.0964   20.9490 C   0  0  0  0  0  0
  -31.9903  -21.9784   22.8782 F   0  0  0  0  0  0
  -31.4787  -12.4159   19.1148 H   0  0  0  0  0  0
  -30.3394  -11.2976   19.8068 H   0  0  0  0  0  0
  -29.7448  -11.7911   17.4193 H   0  0  0  0  0  0
  -29.6646  -13.4989   17.7711 H   0  0  0  0  0  0
  -27.8390  -11.3022   18.8162 H   0  0  0  0  0  0
  -27.3695  -12.6276   17.7856 H   0  0  0  0  0  0
  -27.7101  -14.2442   19.5691 H   0  0  0  0  0  0
  -28.6914  -11.9350   21.3231 H   0  0  0  0  0  0
  -28.4834  -13.5596   21.8814 H   0  0  0  0  0  0
  -25.2747   -9.5698   22.4746 H   0  0  0  0  0  0
  -24.0001   -7.4633   22.7465 H   0  0  0  0  0  0
  -21.0835   -8.8757   19.8935 H   0  0  0  0  0  0
  -22.3676  -10.9665   19.6151 H   0  0  0  0  0  0
  -21.1963   -7.6136   23.9715 H   0  0  0  0  0  0
  -21.1507   -6.0519   25.9087 H   0  0  0  0  0  0
  -22.0579   -2.7601   23.2854 H   0  0  0  0  0  0
  -22.4122  -11.9925   22.4835 H   0  0  0  0  0  0
  -21.1108  -13.1249   22.2523 H   0  0  0  0  0  0
  -24.6754  -15.8447   20.5248 H   0  0  0  0  0  0
  -26.2947  -15.6214   20.0950 H   0  0  0  0  0  0
  -26.7126  -32.5523   23.1168 H   0  0  0  0  0  0
  -25.0086  -33.9787   25.0509 H   0  0  0  0  0  0
  -22.6961  -31.3103   21.4137 H   0  0  0  0  0  0
  -23.3747  -35.9627   23.3321 H   0  0  0  0  0  0
  -24.3575  -36.8892   22.2056 H   0  0  0  0  0  0
  -23.7228  -37.6507   23.6639 H   0  0  0  0  0  0
  -26.0636  -31.5815   20.6046 H   0  0  0  0  0  0
  -26.8238  -30.8712   21.9968 H   0  0  0  0  0  0
  -28.0969  -29.0538   21.2091 H   0  0  0  0  0  0
  -26.0644  -26.0471   18.8731 H   0  0  0  0  0  0
  -23.9882  -27.3414   18.9757 H   0  0  0  0  0  0
  -23.7295  -30.6035   19.4080 H   0  0  0  0  0  0
  -22.7397  -29.2535   19.8696 H   0  0  0  0  0  0
  -25.1269  -36.1974   25.0845 H   0  0  0  0  0  0
  -20.9989  -28.3192   24.1451 H   0  0  0  0  0  0
  -20.5664  -26.2230   23.3602 H   0  0  0  0  0  0
  -21.6622  -26.7396   22.1201 H   0  0  0  0  0  0
  -19.6878  -25.6285   21.1228 H   0  0  0  0  0  0
  -19.6679  -27.3199   20.6777 H   0  0  0  0  0  0
  -17.4184  -26.6693   21.4041 H   0  0  0  0  0  0
  -18.0302  -26.0054   22.9028 H   0  0  0  0  0  0
  -19.7935  -30.7267   24.2246 H   0  0  0  0  0  0
  -17.5013  -31.6258   24.5156 H   0  0  0  0  0  0
  -15.5349  -30.2965   23.7648 H   0  0  0  0  0  0
  -15.8684  -28.0814   22.7032 H   0  0  0  0  0  0
  -24.5913  -30.7034   25.7821 H   0  0  0  0  0  0
  -24.8908  -32.2857   26.4930 H   0  0  0  0  0  0
  -25.8089  -30.8876   27.0250 H   0  0  0  0  0  0
  -26.2828  -29.6819   24.1168 H   0  0  0  0  0  0
  -27.4084  -29.7270   25.4551 H   0  0  0  0  0  0
  -27.8664  -30.4376   23.9255 H   0  0  0  0  0  0
  -27.2663  -33.3611   26.2093 H   0  0  0  0  0  0
  -28.3844  -32.6887   25.0323 H   0  0  0  0  0  0
  -28.0720  -31.8436   26.5413 H   0  0  0  0  0  0
  -28.2601  -38.0081   24.7508 H   0  0  0  0  0  0
  -28.1052  -36.2616   24.6309 H   0  0  0  0  0  0
  -27.2294  -37.1466   25.8881 H   0  0  0  0  0  0
  -20.9313  -29.8755   21.6967 H   0  0  0  0  0  0
  -26.0178  -38.2873   24.1411 H   0  0  0  0  0  0
  -27.9836  -20.1522   20.0647 H   0  0  0  0  0  0
  -30.1792  -23.4720   21.7852 H   0  0  0  0  0  0
  -31.4570  -19.4500   22.4814 H   0  0  0  0  0  0
  -26.3159  -21.9548   22.6065 H   0  0  0  0  0  0
  -24.9986  -22.9530   21.9996 H   0  0  0  0  0  0
  -25.7374  -22.8472   19.7856 H   0  0  0  0  0  0
  -26.2910  -21.2965   20.2770 H   0  0  0  0  0  0
  -27.6543  -23.7811   22.9933 H   0  0  0  0  0  0
  -26.3025  -24.8360   22.5824 H   0  0  0  0  0  0
  -28.0638  -23.0431   19.1767 H   0  0  0  0  0  0
  -26.7837  -24.7287   20.3027 H   0  0  0  0  0  0
  -28.5056  -17.9669   20.5497 H   0  0  0  0  0  0
  -28.9120  -17.9183   22.2380 H   0  0  0  0  0  0
  -28.9135  -15.5943   21.0516 H   0  0  0  0  0  0
  -30.0367  -15.4867   22.3782 H   0  0  0  0  0  0
  -29.6028  -25.1703   20.6647 H   0  0  0  0  0  0
  -28.6801  -25.9389   21.9216 H   0  0  0  0  0  0
  -31.3377  -17.3167   21.5279 H   0  0  0  0  0  0
  -30.7225  -17.1717   19.8978 H   0  0  0  0  0  0
  1 25  1  0  0  0
  1 30  2  0  0  0
  1 83  1  0  0  0
  2  3  1  0  0  0
  2 25  1  0  0  0
  2 87  1  0  0  0
  2 88  1  0  0  0
  3  4  1  0  0  0
  3 89  1  0  0  0
  3 90  1  0  0  0
  4  5  1  0  0  0
  4 91  1  0  0  0
  4 92  1  0  0  0
  5  6  1  0  0  0
  5 26  1  0  0  0
  5 93  1  0  0  0
  6 25  1  0  0  0
  6 94  1  0  0  0
  6 95  1  0  0  0
  7  8  2  0  0  0
  7 26  1  0  0  0
  7 29  1  0  0  0
  8  9  1  0  0  0
  8 22  1  0  0  0
  9 10  1  0  0  0
  9 27  2  0  0  0
 10 11  2  0  0  0
 10 15  1  0  0  0
 11 12  1  0  0  0
 11 96  1  0  0  0
 12 13  2  0  0  0
 12 97  1  0  0  0
 13 14  1  0  0  0
 13 31  1  0  0  0
 14 15  2  0  0  0
 14 98  1  0  0  0
 15 99  1  0  0  0
 16 17  2  0  0  0
 16 21  1  0  0  0
 16 31  1  0  0  0
 17 18  1  0  0  0
 17100  1  0  0  0
 18 19  2  0  0  0
 18101  1  0  0  0
 19 20  1  0  0  0
 19 24  1  0  0  0
 20 21  2  0  0  0
 20102  1  0  0  0
 21 23  1  0  0  0
 22 28  1  0  0  0
 22 32  2  0  0  0
 26 27  1  0  0  0
 28103  1  0  0  0
 28104  1  0  0  0
 29105  1  0  0  0
 29106  1  0  0  0
 33 34  1  0  0  0
 33 66  1  0  0  0
 33 70  2  0  0  0
 34 36  1  0  0  0
 34 59  1  0  0  0
 34107  1  0  0  0
 35 44  2  0  0  0
 35 45  1  0  0  0
 35 68  1  0  0  0
 36 56  1  0  0  0
 36108  1  0  0  0
 37 39  1  0  0  0
 37 47  1  0  0  0
 37 66  1  0  0  0
 37109  1  0  0  0
 38 43  2  0  0  0
 38 46  1  0  0  0
 38 47  1  0  0  0
 39 64  1  0  0  0
 39 67  2  0  0  0
 40 52  1  0  0  0
 40 53  2  0  0  0
 40 58  1  0  0  0
 41110  1  0  0  0
 41111  1  0  0  0
 41112  1  0  0  0
 41 48  1  0  0  0
 42 43  1  0  0  0
 42 66  1  0  0  0
 42113  1  0  0  0
 42114  1  0  0  0
 43 44  1  0  0  0
 44115  1  0  0  0
 45 46  2  0  0  0
 45116  1  0  0  0
 46117  1  0  0  0
 47118  1  0  0  0
 47119  1  0  0  0
 48 56  1  0  0  0
 48 65  1  0  0  0
 48120  1  0  0  0
 49 50  1  0  0  0
 49 53  1  0  0  0
 49 64  1  0  0  0
 49121  1  0  0  0
 50 51  1  0  0  0
 50122  1  0  0  0
 50123  1  0  0  0
 51 52  1  0  0  0
 51124  1  0  0  0
 51125  1  0  0  0
 52126  1  0  0  0
 52127  1  0  0  0
 53 54  1  0  0  0
 54 55  2  0  0  0
 54128  1  0  0  0
 55 57  1  0  0  0
 55129  1  0  0  0
 56 69  2  0  0  0
 57 58  2  0  0  0
 57130  1  0  0  0
 58131  1  0  0  0
 59 60  1  0  0  0
 59 61  1  0  0  0
 59 62  1  0  0  0
 60132  1  0  0  0
 60133  1  0  0  0
 60134  1  0  0  0
 61135  1  0  0  0
 61136  1  0  0  0
 61137  1  0  0  0
 62138  1  0  0  0
 62139  1  0  0  0
 62140  1  0  0  0
 63 65  1  0  0  0
 63141  1  0  0  0
 63142  1  0  0  0
 63143  1  0  0  0
 64144  1  0  0  0
 65145  1  0  0  0
 68 84  1  0  0  0
 71 74  2  0  0  0
 71 75  1  0  0  0
 71146  1  0  0  0
 72 74  1  0  0  0
 72 76  2  0  0  0
 72147  1  0  0  0
 73 75  2  0  0  0
 73 76  1  0  0  0
 73148  1  0  0  0
 74 80  1  0  0  0
 75 82  1  0  0  0
 76 86  1  0  0  0
 77 78  1  0  0  0
 77 79  1  0  0  0
 77149  1  0  0  0
 77150  1  0  0  0
 78 80  1  0  0  0
 78151  1  0  0  0
 78152  1  0  0  0
 79 81  1  0  0  0
 79153  1  0  0  0
 79154  1  0  0  0
 80 81  1  0  0  0
 80155  1  0  0  0
 81 84  1  0  0  0
 81156  1  0  0  0
 82 85  1  0  0  0
 82157  1  0  0  0
 82158  1  0  0  0
 83 85  1  0  0  0
 83159  1  0  0  0
 83160  1  0  0  0
 84161  1  0  0  0
 84162  1  0  0  0
 85163  1  0  0  0
 85164  1  0  0  0
M  ISO  4   1 100  68 101  83 100  84 101
M  END
> <chiral flag>
0

> <version>
0

> <s_m_source_file>
/data/baiqing/PycharmProjects/Reinvent-master-3.2/result/LINK_invent/BTK/process_docking_weight1_custom_product_contain_oxygen_bond_distance_aromatic_linkinvent_7_9_3/rearranged_h_0133.sdf

> <i_m_source_file_index>
89

> <r_mmod_Potential_Energy-OPLS-2005>
154.536087036133

> <r_mmod_Stretch_Energy-OPLS-2005>
47.0525665283203

> <r_mmod_Bend_Energy-OPLS-2005>
174.878067016602

> <r_mmod_Torsional_Energy-OPLS-2005>
256.553466796875

> <r_mmod_Improper_Torsional_Energy-OPLS-2005>
3.60116100311279

> <r_mmod_Van_der_Waal_Energy-OPLS-2005>
154.199645996094

> <r_mmod_Electrostatic_Energy-OPLS-2005>
-312.476501464844

> <r_mmod_Solvation_Energy-OPLS-2005>
-183.391876220703

> <b_mmod_Minimization_Converged-OPLS-2005>
0

> <r_mmod_RMS_Derivative-OPLS-2005>
1.89535856246948

$$$$
89
                    3D
 Structure written by MMmdl.
166174  0  0  1  0            999 V2000
  -30.7540  -14.3982   20.6155 C   0  0  0  0  0  0
  -30.4092  -12.2811   19.4135 C   0  0  0  0  0  0
  -29.4865  -12.5110   18.2008 C   0  0  0  0  0  0
  -28.0068  -12.3781   18.6103 C   0  0  0  0  0  0
  -27.6606  -13.2051   19.8771 C   0  0  2  0  0  0
  -28.6972  -12.9602   20.9946 C   0  0  0  0  0  0
  -25.2591  -13.8176   20.5691 C   0  0  0  0  0  0
  -24.1836  -13.0447   20.9170 C   0  0  0  0  0  0
  -24.6381  -11.6913   20.8724 C   0  0  0  0  0  0
  -23.9050  -10.4299   21.0399 C   0  0  0  0  0  0
  -24.3609   -9.4218   21.9179 C   0  0  0  0  0  0
  -23.6290   -8.2249   22.0751 C   0  0  0  0  0  0
  -22.4274   -8.0283   21.3543 C   0  0  0  0  0  0
  -21.9902   -9.0253   20.4644 C   0  0  0  0  0  0
  -22.7223  -10.2135   20.3051 C   0  0  0  0  0  0
  -21.6851   -6.0733   22.5279 C   0  0  0  0  0  0
  -21.4015   -6.5639   23.8213 C   0  0  0  0  0  0
  -21.3660   -5.6794   24.9175 C   0  0  0  0  0  0
  -21.6044   -4.3056   24.7226 C   0  0  0  0  0  0
  -21.8821   -3.8145   23.4347 C   0  0  0  0  0  0
  -21.9195   -4.6961   22.3403 C   0  0  0  0  0  0
  -22.7862  -13.5248   21.1844 C   0  0  0  0  0  0
  -22.1663   -4.2149   21.0979 F   0  0  0  0  0  0
  -21.5628   -3.4539   25.7737 F   0  0  0  0  0  0
  -30.0347  -13.2535   20.4511 N   0  0  0  0  0  0
  -26.3014  -12.9335   20.3369 N   0  0  0  0  0  0
  -25.9304  -11.6492   20.5752 N   0  0  0  0  0  0
  -22.0511  -12.8232   22.0403 N   0  0  0  0  0  0
  -25.4339  -15.1893   20.4127 N   0  0  0  0  0  0
  -31.8549  -14.5948   20.0885 O   0  0  0  0  0  0
  -21.6639   -6.8876   21.4241 O   0  0  0  0  0  0
  -22.3545  -14.5553   20.6699 O   0  0  0  0  0  0
  -24.6095  -31.8704   23.2131 C   0  0  0  0  0  0
  -25.9001  -32.4838   23.8415 C   0  0  1  0  0  0
  -27.2392  -27.4714   20.0948 C   0  0  0  0  0  0
  -25.5873  -33.8635   24.2348 N   0  0  0  0  0  0
  -23.3964  -30.4930   21.5519 C   0  0  2  0  0  0
  -24.8460  -28.9606   20.1159 C   0  0  0  0  0  0
  -22.7382  -29.4670   22.5008 C   0  0  0  0  0  0
  -18.0264  -28.1378   22.8495 C   0  0  0  0  0  0
  -24.1480  -36.7326   23.2642 C   0  0  0  0  0  0
  -25.9199  -30.8469   21.3609 C   0  0  0  0  0  0
  -26.0001  -29.4814   20.7151 C   0  0  0  0  0  0
  -27.2003  -28.7420   20.7085 C   0  0  0  0  0  0
  -26.0779  -26.9597   19.4840 C   0  0  0  0  0  0
  -24.8768  -27.6957   19.5001 C   0  0  0  0  0  0
  -23.6040  -29.8221   20.1667 C   0  0  0  0  0  0
  -25.4101  -36.3125   24.0342 C   0  0  1  0  0  0
  -20.5848  -28.3661   23.1330 C   0  0  2  0  0  0
  -20.6756  -26.9402   22.5420 C   0  0  0  0  0  0
  -19.5739  -26.6388   21.5212 C   0  0  0  0  0  0
  -18.1915  -26.7926   22.1622 C   0  0  0  0  0  0
  -19.1510  -28.8838   23.2911 C   0  0  0  0  0  0
  -18.9444  -30.1442   23.8925 C   0  0  0  0  0  0
  -17.6449  -30.6587   24.0569 C   0  0  0  0  0  0
  -25.9022  -34.9484   23.5144 C   0  0  0  0  0  0
  -16.5339  -29.9095   23.6325 C   0  0  0  0  0  0
  -16.7254  -28.6506   23.0353 C   0  0  0  0  0  0
  -26.4456  -31.6601   25.0720 C   0  0  0  0  0  0
  -25.3739  -31.3672   26.1476 C   0  0  0  0  0  0
  -27.0292  -30.3058   24.6057 C   0  0  0  0  0  0
  -27.6035  -32.4322   25.7478 C   0  0  0  0  0  0
  -27.5581  -37.1815   24.8468 C   0  0  0  0  0  0
  -21.4114  -29.3030   22.3738 N   0  0  0  0  0  0
  -26.4296  -37.3802   23.9405 N   0  0  0  0  0  0
  -24.6599  -31.0839   22.1011 N   0  0  0  0  0  0
  -23.4167  -28.8213   23.3040 O   0  0  0  0  0  0
  -28.3886  -26.7239   20.0564 O   0  0  0  0  0  0
  -26.5593  -34.8932   22.4710 O   0  0  0  0  0  0
  -23.5298  -32.1442   23.7541 O   0  0  0  0  0  0
  -28.9848  -17.6058   18.3620 C   0  0  0  0  0  0
  -29.5428  -16.6144   19.1777 C   0  0  0  0  0  0
  -28.2748  -18.6582   18.9415 C   0  0  0  0  0  0
  -29.3796  -16.6009   20.5932 C   0  0  0  0  0  0
  -28.0827  -18.7094   20.3338 C   0  0  0  0  0  0
  -28.5673  -17.6484   21.1642 C   0  0  0  0  0  0
  -30.1069  -15.5288   21.4015 C   0  0  0  0  0  0
  -29.1056  -18.5095   23.5165 C   0  0  0  0  0  0
  -27.3829  -19.9663   20.8638 C   0  0  0  0  0  0
  -28.1710  -17.6541   22.6458 C   0  0  0  0  0  0
  -28.2182  -21.2362   20.5985 C   0  0  0  0  0  0
  -27.6708  -22.4976   21.2873 C   0  0  0  0  0  0
  -28.4632  -23.7615   20.9054 C   0  0  0  0  0  0
  -28.0910  -24.9908   21.7521 C   0  0  0  0  0  0
  -28.8430  -26.2671   21.3290 C   0  0  0  0  0  0
  -30.2696  -15.5532   22.6586 N   0  0  0  0  0  0
  -31.4552  -12.3624   19.1130 H   0  0  0  0  0  0
  -30.2921  -11.2655   19.7951 H   0  0  0  0  0  0
  -29.7187  -11.7968   17.4097 H   0  0  0  0  0  0
  -29.6656  -13.5021   17.7815 H   0  0  0  0  0  0
  -27.8059  -11.3216   18.7911 H   0  0  0  0  0  0
  -27.3600  -12.6718   17.7832 H   0  0  0  0  0  0
  -27.7121  -14.2567   19.5959 H   0  0  0  0  0  0
  -28.6621  -11.9192   21.3190 H   0  0  0  0  0  0
  -28.4514  -13.5409   21.8837 H   0  0  0  0  0  0
  -25.2753   -9.5699   22.4752 H   0  0  0  0  0  0
  -24.0003   -7.4643   22.7470 H   0  0  0  0  0  0
  -21.0835   -8.8766   19.8949 H   0  0  0  0  0  0
  -22.3679  -10.9672   19.6161 H   0  0  0  0  0  0
  -21.2007   -7.6148   23.9716 H   0  0  0  0  0  0
  -21.1481   -6.0522   25.9078 H   0  0  0  0  0  0
  -22.0599   -2.7608   23.2846 H   0  0  0  0  0  0
  -22.4129  -11.9886   22.4771 H   0  0  0  0  0  0
  -21.1136  -13.1261   22.2627 H   0  0  0  0  0  0
  -24.6713  -15.8472   20.5283 H   0  0  0  0  0  0
  -26.2957  -15.6322   20.1187 H   0  0  0  0  0  0
  -26.7071  -32.5574   23.1185 H   0  0  0  0  0  0
  -25.0009  -33.9799   25.0484 H   0  0  0  0  0  0
  -22.6829  -31.3081   21.4130 H   0  0  0  0  0  0
  -23.3735  -35.9667   23.3318 H   0  0  0  0  0  0
  -24.3574  -36.8929   22.2054 H   0  0  0  0  0  0
  -23.7241  -37.6538   23.6648 H   0  0  0  0  0  0
  -26.0223  -31.6105   20.5884 H   0  0  0  0  0  0
  -26.8112  -30.9074   21.9736 H   0  0  0  0  0  0
  -28.0927  -29.1479   21.1643 H   0  0  0  0  0  0
  -26.1046  -25.9900   19.0074 H   0  0  0  0  0  0
  -23.9901  -27.2892   19.0326 H   0  0  0  0  0  0
  -23.7073  -30.5960   19.4051 H   0  0  0  0  0  0
  -22.7300  -29.2378   19.8744 H   0  0  0  0  0  0
  -25.1275  -36.2001   25.0835 H   0  0  0  0  0  0
  -20.9942  -28.3229   24.1450 H   0  0  0  0  0  0
  -20.5666  -26.2267   23.3602 H   0  0  0  0  0  0
  -21.6631  -26.7456   22.1216 H   0  0  0  0  0  0
  -19.6906  -25.6304   21.1232 H   0  0  0  0  0  0
  -19.6680  -27.3205   20.6746 H   0  0  0  0  0  0
  -17.4185  -26.6678   21.4022 H   0  0  0  0  0  0
  -18.0315  -26.0062   22.9012 H   0  0  0  0  0  0
  -19.7921  -30.7247   24.2314 H   0  0  0  0  0  0
  -17.5009  -31.6273   24.5165 H   0  0  0  0  0  0
  -15.5345  -30.3012   23.7637 H   0  0  0  0  0  0
  -15.8648  -28.0836   22.7066 H   0  0  0  0  0  0
  -24.5918  -30.7015   25.7805 H   0  0  0  0  0  0
  -24.8918  -32.2810   26.4960 H   0  0  0  0  0  0
  -25.8113  -30.8820   27.0209 H   0  0  0  0  0  0
  -26.2823  -29.6813   24.1141 H   0  0  0  0  0  0
  -27.4117  -29.7294   25.4491 H   0  0  0  0  0  0
  -27.8628  -30.4400   23.9159 H   0  0  0  0  0  0
  -27.2653  -33.3605   26.2096 H   0  0  0  0  0  0
  -28.3819  -32.6913   25.0288 H   0  0  0  0  0  0
  -28.0731  -31.8425   26.5361 H   0  0  0  0  0  0
  -28.2607  -38.0104   24.7516 H   0  0  0  0  0  0
  -28.1067  -36.2638   24.6294 H   0  0  0  0  0  0
  -27.2296  -37.1470   25.8871 H   0  0  0  0  0  0
  -20.9268  -29.8750   21.6965 H   0  0  0  0  0  0
  -26.0190  -38.2883   24.1403 H   0  0  0  0  0  0
  -29.1377  -17.5784   17.2919 H   0  0  0  0  0  0
  -30.1216  -15.8695   18.6531 H   0  0  0  0  0  0
  -27.8884  -19.4434   18.3057 H   0  0  0  0  0  0
  -28.7949  -18.4769   24.5608 H   0  0  0  0  0  0
  -29.0990  -19.5540   23.2056 H   0  0  0  0  0  0
  -30.1389  -18.1670   23.4676 H   0  0  0  0  0  0
  -27.1605  -19.9209   21.9255 H   0  0  0  0  0  0
  -26.4140  -20.0557   20.3700 H   0  0  0  0  0  0
  -28.0860  -16.6423   23.0375 H   0  0  0  0  0  0
  -27.1442  -18.0021   22.7499 H   0  0  0  0  0  0
  -28.2891  -21.4126   19.5248 H   0  0  0  0  0  0
  -29.2382  -21.0669   20.9464 H   0  0  0  0  0  0
  -27.7029  -22.3534   22.3684 H   0  0  0  0  0  0
  -26.6209  -22.6378   21.0257 H   0  0  0  0  0  0
  -28.3006  -23.9814   19.8496 H   0  0  0  0  0  0
  -29.5320  -23.5708   21.0156 H   0  0  0  0  0  0
  -28.3251  -24.7818   22.7966 H   0  0  0  0  0  0
  -27.0148  -25.1632   21.7158 H   0  0  0  0  0  0
  -29.9130  -26.0661   21.2658 H   0  0  0  0  0  0
  -28.7275  -27.0354   22.0949 H   0  0  0  0  0  0
  -29.8337  -16.3760   23.0559 H   0  0  0  0  0  0
  1 25  1  0  0  0
  1 30  2  0  0  0
  1 77  1  0  0  0
  2  3  1  0  0  0
  2 25  1  0  0  0
  2 87  1  0  0  0
  2 88  1  0  0  0
  3  4  1  0  0  0
  3 89  1  0  0  0
  3 90  1  0  0  0
  4  5  1  0  0  0
  4 91  1  0  0  0
  4 92  1  0  0  0
  5  6  1  0  0  0
  5 26  1  0  0  0
  5 93  1  0  0  0
  6 25  1  0  0  0
  6 94  1  0  0  0
  6 95  1  0  0  0
  7  8  2  0  0  0
  7 26  1  0  0  0
  7 29  1  0  0  0
  8  9  1  0  0  0
  8 22  1  0  0  0
  9 10  1  0  0  0
  9 27  2  0  0  0
 10 11  2  0  0  0
 10 15  1  0  0  0
 11 12  1  0  0  0
 11 96  1  0  0  0
 12 13  2  0  0  0
 12 97  1  0  0  0
 13 14  1  0  0  0
 13 31  1  0  0  0
 14 15  2  0  0  0
 14 98  1  0  0  0
 15 99  1  0  0  0
 16 17  2  0  0  0
 16 21  1  0  0  0
 16 31  1  0  0  0
 17 18  1  0  0  0
 17100  1  0  0  0
 18 19  2  0  0  0
 18101  1  0  0  0
 19 20  1  0  0  0
 19 24  1  0  0  0
 20 21  2  0  0  0
 20102  1  0  0  0
 21 23  1  0  0  0
 22 28  1  0  0  0
 22 32  2  0  0  0
 26 27  1  0  0  0
 28103  1  0  0  0
 28104  1  0  0  0
 29105  1  0  0  0
 29106  1  0  0  0
 33 34  1  0  0  0
 33 66  1  0  0  0
 33 70  2  0  0  0
 34 36  1  0  0  0
 34 59  1  0  0  0
 34107  1  0  0  0
 35 44  2  0  0  0
 35 45  1  0  0  0
 35 68  1  0  0  0
 36 56  1  0  0  0
 36108  1  0  0  0
 37 39  1  0  0  0
 37 47  1  0  0  0
 37 66  1  0  0  0
 37109  1  0  0  0
 38 43  2  0  0  0
 38 46  1  0  0  0
 38 47  1  0  0  0
 39 64  1  0  0  0
 39 67  2  0  0  0
 40 52  1  0  0  0
 40 53  2  0  0  0
 40 58  1  0  0  0
 41110  1  0  0  0
 41111  1  0  0  0
 41112  1  0  0  0
 41 48  1  0  0  0
 42 43  1  0  0  0
 42 66  1  0  0  0
 42113  1  0  0  0
 42114  1  0  0  0
 43 44  1  0  0  0
 44115  1  0  0  0
 45 46  2  0  0  0
 45116  1  0  0  0
 46117  1  0  0  0
 47118  1  0  0  0
 47119  1  0  0  0
 48 56  1  0  0  0
 48 65  1  0  0  0
 48120  1  0  0  0
 49 50  1  0  0  0
 49 53  1  0  0  0
 49 64  1  0  0  0
 49121  1  0  0  0
 50 51  1  0  0  0
 50122  1  0  0  0
 50123  1  0  0  0
 51 52  1  0  0  0
 51124  1  0  0  0
 51125  1  0  0  0
 52126  1  0  0  0
 52127  1  0  0  0
 53 54  1  0  0  0
 54 55  2  0  0  0
 54128  1  0  0  0
 55 57  1  0  0  0
 55129  1  0  0  0
 56 69  2  0  0  0
 57 58  2  0  0  0
 57130  1  0  0  0
 58131  1  0  0  0
 59 60  1  0  0  0
 59 61  1  0  0  0
 59 62  1  0  0  0
 60132  1  0  0  0
 60133  1  0  0  0
 60134  1  0  0  0
 61135  1  0  0  0
 61136  1  0  0  0
 61137  1  0  0  0
 62138  1  0  0  0
 62139  1  0  0  0
 62140  1  0  0  0
 63 65  1  0  0  0
 63141  1  0  0  0
 63142  1  0  0  0
 63143  1  0  0  0
 64144  1  0  0  0
 65145  1  0  0  0
 68 85  1  0  0  0
 71 72  2  0  0  0
 71 73  1  0  0  0
 71146  1  0  0  0
 72 74  1  0  0  0
 72147  1  0  0  0
 73 75  2  0  0  0
 73148  1  0  0  0
 74 76  2  0  0  0
 74 77  1  0  0  0
 75 76  1  0  0  0
 75 79  1  0  0  0
 76 80  1  0  0  0
 77 86  2  0  0  0
 78 80  1  0  0  0
 78149  1  0  0  0
 78150  1  0  0  0
 78151  1  0  0  0
 79 81  1  0  0  0
 79152  1  0  0  0
 79153  1  0  0  0
 80154  1  0  0  0
 80155  1  0  0  0
 81 82  1  0  0  0
 81156  1  0  0  0
 81157  1  0  0  0
 82 83  1  0  0  0
 82158  1  0  0  0
 82159  1  0  0  0
 83 84  1  0  0  0
 83160  1  0  0  0
 83161  1  0  0  0
 84 85  1  0  0  0
 84162  1  0  0  0
 84163  1  0  0  0
 85164  1  0  0  0
 85165  1  0  0  0
 86166  1  0  0  0
M  ISO  4   1 100  68 101  77 100  85 101
M  END
> <chiral flag>
0

> <version>
0

> <s_m_source_file>
/data/baiqing/PycharmProjects/Reinvent-master-3.2/result/LINK_invent/BTK/process_docking_weight1_custom_product_contain_oxygen_bond_distance_aromatic_linkinvent_7_9_3/rearranged_h_0133.sdf

> <i_m_source_file_index>
90

> <r_mmod_Potential_Energy-OPLS-2005>
168.125350952148

> <r_mmod_Stretch_Energy-OPLS-2005>
44.354923248291

> <r_mmod_Bend_Energy-OPLS-2005>
101.766258239746

> <r_mmod_Torsional_Energy-OPLS-2005>
236.395782470703

> <r_mmod_Improper_Torsional_Energy-OPLS-2005>
2.85536670684814

> <r_mmod_Van_der_Waal_Energy-OPLS-2005>
161.266082763672

> <r_mmod_Electrostatic_Energy-OPLS-2005>
-206.181167602539

> <r_mmod_Solvation_Energy-OPLS-2005>
-180.183959960938

> <b_mmod_Minimization_Converged-OPLS-2005>
0

> <r_mmod_RMS_Derivative-OPLS-2005>
0.670830190181732

$$$$
90
                    3D
 Structure written by MMmdl.
171180  0  0  1  0            999 V2000
  -30.5997  -14.7412   20.4404 C   0  0  0  0  0  0
  -30.4562  -12.4633   19.4160 C   0  0  0  0  0  0
  -29.5014  -12.4937   18.1988 C   0  0  0  0  0  0
  -28.0288  -12.3183   18.6250 C   0  0  0  0  0  0
  -27.6537  -13.1860   19.8550 C   0  0  2  0  0  0
  -28.7265  -13.0428   20.9635 C   0  0  0  0  0  0
  -25.2529  -13.7921   20.5488 C   0  0  0  0  0  0
  -24.1803  -13.0298   20.9123 C   0  0  0  0  0  0
  -24.6366  -11.6777   20.8739 C   0  0  0  0  0  0
  -23.8994  -10.4209   21.0416 C   0  0  0  0  0  0
  -24.3551   -9.4145   21.9206 C   0  0  0  0  0  0
  -23.6223   -8.2181   22.0794 C   0  0  0  0  0  0
  -22.4216   -8.0222   21.3573 C   0  0  0  0  0  0
  -21.9827   -9.0182   20.4678 C   0  0  0  0  0  0
  -22.7148  -10.2067   20.3091 C   0  0  0  0  0  0
  -21.6828   -6.0693   22.5274 C   0  0  0  0  0  0
  -21.4007   -6.5617   23.8208 C   0  0  0  0  0  0
  -21.3641   -5.6794   24.9171 C   0  0  0  0  0  0
  -21.6032   -4.3045   24.7262 C   0  0  0  0  0  0
  -21.8813   -3.8116   23.4391 C   0  0  0  0  0  0
  -21.9173   -4.6905   22.3441 C   0  0  0  0  0  0
  -22.7844  -13.5158   21.1813 C   0  0  0  0  0  0
  -22.1657   -4.2089   21.1024 F   0  0  0  0  0  0
  -21.5647   -3.4541   25.7784 F   0  0  0  0  0  0
  -30.0028  -13.4912   20.3872 N   0  0  0  0  0  0
  -26.3023  -12.9123   20.3335 N   0  0  0  0  0  0
  -25.9316  -11.6320   20.5826 N   0  0  0  0  0  0
  -22.0514  -12.8201   22.0440 N   0  0  0  0  0  0
  -25.4133  -15.1561   20.3553 N   0  0  0  0  0  0
  -31.7981  -14.8270   20.1507 O   0  0  0  0  0  0
  -21.6608   -6.8799   21.4251 O   0  0  0  0  0  0
  -22.3533  -14.5475   20.6629 O   0  0  0  0  0  0
  -24.6268  -31.8552   23.2015 C   0  0  0  0  0  0
  -25.9099  -32.4768   23.8361 C   0  0  1  0  0  0
  -27.2317  -27.3024   20.1154 C   0  0  0  0  0  0
  -25.5898  -33.8589   24.2277 N   0  0  0  0  0  0
  -23.4228  -30.4751   21.5442 C   0  0  2  0  0  0
  -24.8700  -28.9273   20.1056 C   0  0  0  0  0  0
  -22.7497  -29.4581   22.4966 C   0  0  0  0  0  0
  -18.0298  -28.1356   22.8445 C   0  0  0  0  0  0
  -24.1480  -36.7337   23.2637 C   0  0  0  0  0  0
  -25.9633  -30.7773   21.3770 C   0  0  0  0  0  0
  -26.0350  -29.4023   20.7207 C   0  0  0  0  0  0
  -27.2135  -28.5993   20.7203 C   0  0  0  0  0  0
  -26.0522  -26.8937   19.4510 C   0  0  0  0  0  0
  -24.8829  -27.6818   19.4561 C   0  0  0  0  0  0
  -23.6369  -29.8084   20.1573 C   0  0  0  0  0  0
  -25.4112  -36.3123   24.0322 C   0  0  1  0  0  0
  -20.5884  -28.3675   23.1273 C   0  0  2  0  0  0
  -20.6792  -26.9404   22.5397 C   0  0  0  0  0  0
  -19.5780  -26.6364   21.5185 C   0  0  0  0  0  0
  -18.1950  -26.7876   22.1596 C   0  0  0  0  0  0
  -19.1536  -28.8841   23.2833 C   0  0  0  0  0  0
  -18.9473  -30.1428   23.8878 C   0  0  0  0  0  0
  -17.6478  -30.6559   24.0553 C   0  0  0  0  0  0
  -25.9040  -34.9471   23.5106 C   0  0  0  0  0  0
  -16.5373  -29.9059   23.6312 C   0  0  0  0  0  0
  -16.7281  -28.6471   23.0330 C   0  0  0  0  0  0
  -26.4458  -31.6592   25.0758 C   0  0  0  0  0  0
  -25.3679  -31.3726   26.1482 C   0  0  0  0  0  0
  -27.0292  -30.3026   24.6185 C   0  0  0  0  0  0
  -27.6035  -32.4306   25.7522 C   0  0  0  0  0  0
  -27.5587  -37.1822   24.8448 C   0  0  0  0  0  0
  -21.4213  -29.3019   22.3693 N   0  0  0  0  0  0
  -26.4304  -37.3812   23.9396 N   0  0  0  0  0  0
  -24.6899  -31.0533   22.0982 N   0  0  0  0  0  0
  -23.4203  -28.8140   23.3076 O   0  0  0  0  0  0
  -28.3603  -26.4642   20.1927 O   0  0  0  0  0  0
  -26.5622  -34.8925   22.4679 O   0  0  0  0  0  0
  -23.5428  -32.1373   23.7324 O   0  0  0  0  0  0
  -28.4704  -16.1695   21.0126 C   0  0  0  0  0  0
  -27.6658  -17.3005   20.8128 C   0  0  0  0  0  0
  -30.3316  -17.3915   20.1271 C   0  0  0  0  0  0
  -29.7977  -16.0960   20.5266 C   0  0  0  0  0  0
  -29.5462  -18.6177   20.0340 C   0  0  0  0  0  0
  -28.1442  -18.4650   20.1951 C   0  0  0  0  0  0
  -29.6112  -21.3691   20.3823 C   0  0  0  0  0  0
  -29.6779  -22.6357   19.8392 C   0  0  0  0  0  0
  -30.3402  -22.8305   18.4812 C   0  0  0  0  0  0
  -31.2114  -21.6305   18.0599 C   0  0  0  0  0  0
  -30.5008  -20.2773   18.2629 C   0  0  0  0  0  0
  -30.1869  -20.0403   19.7474 C   0  0  2  0  0  0
  -26.5562  -17.7391   17.7595 C   0  0  0  0  0  0
  -25.2337  -19.8735   17.9969 C   0  0  0  0  0  0
  -27.0886  -19.4546   19.6932 C   0  0  0  0  0  0
  -29.2582  -23.9875   20.5376 C   0  0  0  0  0  0
  -28.2974  -25.0322   19.7948 C   0  0  0  0  0  0
  -26.6003  -19.2096   18.2315 C   0  0  0  0  0  0
  -31.4829  -12.6314   19.0860 H   0  0  0  0  0  0
  -30.4503  -11.4698   19.8671 H   0  0  0  0  0  0
  -29.7749  -11.7115   17.4859 H   0  0  0  0  0  0
  -29.6037  -13.4355   17.6598 H   0  0  0  0  0  0
  -27.8640  -11.2612   18.8420 H   0  0  0  0  0  0
  -27.3741  -12.5619   17.7885 H   0  0  0  0  0  0
  -27.6599  -14.2086   19.4806 H   0  0  0  0  0  0
  -28.7980  -12.0019   21.2772 H   0  0  0  0  0  0
  -28.4982  -13.5401   21.9020 H   0  0  0  0  0  0
  -25.2721   -9.5634   22.4739 H   0  0  0  0  0  0
  -23.9929   -7.4555   22.7481 H   0  0  0  0  0  0
  -21.0767   -8.8661   19.8968 H   0  0  0  0  0  0
  -22.3572  -10.9590   19.6192 H   0  0  0  0  0  0
  -21.2056   -7.6136   23.9677 H   0  0  0  0  0  0
  -21.1459   -6.0558   25.9058 H   0  0  0  0  0  0
  -22.0612   -2.7571   23.2933 H   0  0  0  0  0  0
  -22.4135  -11.9869   22.4855 H   0  0  0  0  0  0
  -21.1149  -13.1229   22.2731 H   0  0  0  0  0  0
  -24.6297  -15.7968   20.3674 H   0  0  0  0  0  0
  -26.2651  -15.5825   20.0162 H   0  0  0  0  0  0
  -26.7184  -32.5406   23.1123 H   0  0  0  0  0  0
  -25.0031  -33.9722   25.0411 H   0  0  0  0  0  0
  -22.7162  -31.2945   21.3999 H   0  0  0  0  0  0
  -23.3745  -35.9662   23.3288 H   0  0  0  0  0  0
  -24.3591  -36.8980   22.2054 H   0  0  0  0  0  0
  -23.7198  -37.6526   23.6661 H   0  0  0  0  0  0
  -26.0959  -31.5397   20.6073 H   0  0  0  0  0  0
  -26.8460  -30.8280   22.0057 H   0  0  0  0  0  0
  -28.1072  -28.9593   21.2105 H   0  0  0  0  0  0
  -26.0099  -25.9603   18.9104 H   0  0  0  0  0  0
  -24.0023  -27.3196   18.9428 H   0  0  0  0  0  0
  -23.7567  -30.5840   19.3999 H   0  0  0  0  0  0
  -22.7565  -29.2352   19.8580 H   0  0  0  0  0  0
  -25.1280  -36.2008   25.0819 H   0  0  0  0  0  0
  -20.9941  -28.3236   24.1404 H   0  0  0  0  0  0
  -20.5683  -26.2298   23.3590 H   0  0  0  0  0  0
  -21.6669  -26.7412   22.1215 H   0  0  0  0  0  0
  -19.6960  -25.6258   21.1241 H   0  0  0  0  0  0
  -19.6722  -27.3160   20.6695 H   0  0  0  0  0  0
  -17.4214  -26.6588   21.3996 H   0  0  0  0  0  0
  -18.0377  -26.0017   22.9007 H   0  0  0  0  0  0
  -19.7966  -30.7220   24.2255 H   0  0  0  0  0  0
  -17.5047  -31.6232   24.5154 H   0  0  0  0  0  0
  -15.5366  -30.2980   23.7623 H   0  0  0  0  0  0
  -15.8671  -28.0792   22.7066 H   0  0  0  0  0  0
  -24.5863  -30.7055   25.7822 H   0  0  0  0  0  0
  -24.8842  -32.2875   26.4904 H   0  0  0  0  0  0
  -25.8001  -30.8919   27.0262 H   0  0  0  0  0  0
  -26.2854  -29.6815   24.1186 H   0  0  0  0  0  0
  -27.3984  -29.7253   25.4668 H   0  0  0  0  0  0
  -27.8732  -30.4372   23.9427 H   0  0  0  0  0  0
  -27.2677  -33.3613   26.2114 H   0  0  0  0  0  0
  -28.3843  -32.6838   25.0338 H   0  0  0  0  0  0
  -28.0694  -31.8399   26.5417 H   0  0  0  0  0  0
  -28.2580  -38.0148   24.7551 H   0  0  0  0  0  0
  -28.1109  -36.2677   24.6214 H   0  0  0  0  0  0
  -27.2315  -37.1419   25.8856 H   0  0  0  0  0  0
  -20.9422  -29.8806   21.6942 H   0  0  0  0  0  0
  -26.0195  -38.2888   24.1416 H   0  0  0  0  0  0
  -27.9591  -15.3532   21.4693 H   0  0  0  0  0  0
  -26.6239  -17.2484   21.0869 H   0  0  0  0  0  0
  -31.3753  -17.4413   19.8508 H   0  0  0  0  0  0
  -29.1922  -21.2533   21.3704 H   0  0  0  0  0  0
  -30.9630  -23.7269   18.5077 H   0  0  0  0  0  0
  -29.5614  -23.0206   17.7430 H   0  0  0  0  0  0
  -32.1237  -21.6360   18.6578 H   0  0  0  0  0  0
  -31.5293  -21.7514   17.0236 H   0  0  0  0  0  0
  -31.1391  -19.4766   17.8952 H   0  0  0  0  0  0
  -29.5908  -20.2391   17.6658 H   0  0  0  0  0  0
  -31.1495  -19.9618   20.2549 H   0  0  0  0  0  0
  -26.1516  -17.6600   16.7495 H   0  0  0  0  0  0
  -25.9165  -17.1281   18.3969 H   0  0  0  0  0  0
  -27.5489  -17.2863   17.7295 H   0  0  0  0  0  0
  -24.9074  -19.7540   16.9625 H   0  0  0  0  0  0
  -25.2621  -20.9447   18.2022 H   0  0  0  0  0  0
  -24.4678  -19.4276   18.6337 H   0  0  0  0  0  0
  -27.3989  -20.4888   19.7866 H   0  0  0  0  0  0
  -26.2362  -19.3844   20.3713 H   0  0  0  0  0  0
  -30.1912  -24.5066   20.7580 H   0  0  0  0  0  0
  -28.8371  -23.7499   21.5148 H   0  0  0  0  0  0
  -27.2919  -24.6321   19.9235 H   0  0  0  0  0  0
  -28.5004  -25.0124   18.7241 H   0  0  0  0  0  0
  -27.3131  -19.6938   17.5633 H   0  0  0  0  0  0
  1 25  1  0  0  0
  1 30  2  0  0  0
  1 74  1  0  0  0
  2  3  1  0  0  0
  2 25  1  0  0  0
  2 89  1  0  0  0
  2 90  1  0  0  0
  3  4  1  0  0  0
  3 91  1  0  0  0
  3 92  1  0  0  0
  4  5  1  0  0  0
  4 93  1  0  0  0
  4 94  1  0  0  0
  5  6  1  0  0  0
  5 26  1  0  0  0
  5 95  1  0  0  0
  6 25  1  0  0  0
  6 96  1  0  0  0
  6 97  1  0  0  0
  7  8  2  0  0  0
  7 26  1  0  0  0
  7 29  1  0  0  0
  8  9  1  0  0  0
  8 22  1  0  0  0
  9 10  1  0  0  0
  9 27  2  0  0  0
 10 11  2  0  0  0
 10 15  1  0  0  0
 11 12  1  0  0  0
 11 98  1  0  0  0
 12 13  2  0  0  0
 12 99  1  0  0  0
 13 14  1  0  0  0
 13 31  1  0  0  0
 14 15  2  0  0  0
 14100  1  0  0  0
 15101  1  0  0  0
 16 17  2  0  0  0
 16 21  1  0  0  0
 16 31  1  0  0  0
 17 18  1  0  0  0
 17102  1  0  0  0
 18 19  2  0  0  0
 18103  1  0  0  0
 19 20  1  0  0  0
 19 24  1  0  0  0
 20 21  2  0  0  0
 20104  1  0  0  0
 21 23  1  0  0  0
 22 28  1  0  0  0
 22 32  2  0  0  0
 26 27  1  0  0  0
 28105  1  0  0  0
 28106  1  0  0  0
 29107  1  0  0  0
 29108  1  0  0  0
 33 34  1  0  0  0
 33 66  1  0  0  0
 33 70  2  0  0  0
 34 36  1  0  0  0
 34 59  1  0  0  0
 34109  1  0  0  0
 35 44  2  0  0  0
 35 45  1  0  0  0
 35 68  1  0  0  0
 36 56  1  0  0  0
 36110  1  0  0  0
 37 39  1  0  0  0
 37 47  1  0  0  0
 37 66  1  0  0  0
 37111  1  0  0  0
 38 43  2  0  0  0
 38 46  1  0  0  0
 38 47  1  0  0  0
 39 64  1  0  0  0
 39 67  2  0  0  0
 40 52  1  0  0  0
 40 53  2  0  0  0
 40 58  1  0  0  0
 41112  1  0  0  0
 41113  1  0  0  0
 41114  1  0  0  0
 41 48  1  0  0  0
 42 43  1  0  0  0
 42 66  1  0  0  0
 42115  1  0  0  0
 42116  1  0  0  0
 43 44  1  0  0  0
 44117  1  0  0  0
 45 46  2  0  0  0
 45118  1  0  0  0
 46119  1  0  0  0
 47120  1  0  0  0
 47121  1  0  0  0
 48 56  1  0  0  0
 48 65  1  0  0  0
 48122  1  0  0  0
 49 50  1  0  0  0
 49 53  1  0  0  0
 49 64  1  0  0  0
 49123  1  0  0  0
 50 51  1  0  0  0
 50124  1  0  0  0
 50125  1  0  0  0
 51 52  1  0  0  0
 51126  1  0  0  0
 51127  1  0  0  0
 52128  1  0  0  0
 52129  1  0  0  0
 53 54  1  0  0  0
 54 55  2  0  0  0
 54130  1  0  0  0
 55 57  1  0  0  0
 55131  1  0  0  0
 56 69  2  0  0  0
 57 58  2  0  0  0
 57132  1  0  0  0
 58133  1  0  0  0
 59 60  1  0  0  0
 59 61  1  0  0  0
 59 62  1  0  0  0
 60134  1  0  0  0
 60135  1  0  0  0
 60136  1  0  0  0
 61137  1  0  0  0
 61138  1  0  0  0
 61139  1  0  0  0
 62140  1  0  0  0
 62141  1  0  0  0
 62142  1  0  0  0
 63 65  1  0  0  0
 63143  1  0  0  0
 63144  1  0  0  0
 63145  1  0  0  0
 64146  1  0  0  0
 65147  1  0  0  0
 68 87  1  0  0  0
 71 72  2  0  0  0
 71 74  1  0  0  0
 71148  1  0  0  0
 72 76  1  0  0  0
 72149  1  0  0  0
 73 74  2  0  0  0
 73 75  1  0  0  0
 73150  1  0  0  0
 75 76  2  0  0  0
 75 82  1  0  0  0
 76 85  1  0  0  0
 77 78  2  0  0  0
 77 82  1  0  0  0
 77151  1  0  0  0
 78 79  1  0  0  0
 78 86  1  0  0  0
 79 80  1  0  0  0
 79152  1  0  0  0
 79153  1  0  0  0
 80 81  1  0  0  0
 80154  1  0  0  0
 80155  1  0  0  0
 81 82  1  0  0  0
 81156  1  0  0  0
 81157  1  0  0  0
 82158  1  0  0  0
 83159  1  0  0  0
 83160  1  0  0  0
 83161  1  0  0  0
 83 88  1  0  0  0
 84 88  1  0  0  0
 84162  1  0  0  0
 84163  1  0  0  0
 84164  1  0  0  0
 85 88  1  0  0  0
 85165  1  0  0  0
 85166  1  0  0  0
 86 87  1  0  0  0
 86167  1  0  0  0
 86168  1  0  0  0
 87169  1  0  0  0
 87170  1  0  0  0
 88171  1  0  0  0
M  ISO  4   1 100  68 101  74 100  87 101
M  END
> <chiral flag>
0

> <version>
0

> <s_m_source_file>
/data/baiqing/PycharmProjects/Reinvent-master-3.2/result/LINK_invent/BTK/process_docking_weight1_custom_product_contain_oxygen_bond_distance_aromatic_linkinvent_7_9_3/rearranged_h_0133.sdf

> <i_m_source_file_index>
91

> <r_mmod_Potential_Energy-OPLS-2005>
294.328308105469

> <r_mmod_Stretch_Energy-OPLS-2005>
110.85115814209

> <r_mmod_Bend_Energy-OPLS-2005>
174.124618530273

> <r_mmod_Torsional_Energy-OPLS-2005>
237.682464599609

> <r_mmod_Improper_Torsional_Energy-OPLS-2005>
7.76888847351074

> <r_mmod_Van_der_Waal_Energy-OPLS-2005>
158.690933227539

> <r_mmod_Electrostatic_Energy-OPLS-2005>
-295.807037353516

> <r_mmod_Solvation_Energy-OPLS-2005>
-169.684478759766

> <b_mmod_Minimization_Converged-OPLS-2005>
0

> <r_mmod_RMS_Derivative-OPLS-2005>
4.86281967163086

$$$$
91
                    3D
 Structure written by MMmdl.
163171  0  0  1  0            999 V2000
  -30.6780  -14.5675   20.5860 C   0  0  0  0  0  0
  -30.4419  -12.3736   19.4308 C   0  0  0  0  0  0
  -29.5008  -12.5188   18.2133 C   0  0  0  0  0  0
  -28.0246  -12.3427   18.6257 C   0  0  0  0  0  0
  -27.6619  -13.1832   19.8755 C   0  0  2  0  0  0
  -28.7124  -12.9669   20.9897 C   0  0  0  0  0  0
  -25.2661  -13.8080   20.5730 C   0  0  0  0  0  0
  -24.1863  -13.0382   20.9145 C   0  0  0  0  0  0
  -24.6396  -11.6849   20.8716 C   0  0  0  0  0  0
  -23.9041  -10.4252   21.0401 C   0  0  0  0  0  0
  -24.3600   -9.4175   21.9194 C   0  0  0  0  0  0
  -23.6276   -8.2218   22.0753 C   0  0  0  0  0  0
  -22.4262   -8.0263   21.3541 C   0  0  0  0  0  0
  -21.9900   -9.0225   20.4631 C   0  0  0  0  0  0
  -22.7219  -10.2104   20.3041 C   0  0  0  0  0  0
  -21.6849   -6.0727   22.5281 C   0  0  0  0  0  0
  -21.3997   -6.5626   23.8211 C   0  0  0  0  0  0
  -21.3658   -5.6783   24.9177 C   0  0  0  0  0  0
  -21.6054   -4.3054   24.7231 C   0  0  0  0  0  0
  -21.8817   -3.8145   23.4360 C   0  0  0  0  0  0
  -21.9178   -4.6958   22.3408 C   0  0  0  0  0  0
  -22.7889  -13.5204   21.1832 C   0  0  0  0  0  0
  -22.1658   -4.2143   21.0986 F   0  0  0  0  0  0
  -21.5635   -3.4545   25.7744 F   0  0  0  0  0  0
  -30.0211  -13.3647   20.4428 N   0  0  0  0  0  0
  -26.3044  -12.9204   20.3394 N   0  0  0  0  0  0
  -25.9327  -11.6379   20.5772 N   0  0  0  0  0  0
  -22.0520  -12.8175   22.0372 N   0  0  0  0  0  0
  -25.4522  -15.1798   20.4299 N   0  0  0  0  0  0
  -31.8284  -14.7192   20.1631 O   0  0  0  0  0  0
  -21.6620   -6.8865   21.4253 O   0  0  0  0  0  0
  -22.3569  -14.5519   20.6708 O   0  0  0  0  0  0
  -24.6164  -31.8641   23.2053 C   0  0  0  0  0  0
  -25.9086  -32.4789   23.8353 C   0  0  1  0  0  0
  -27.2458  -27.4087   20.1063 C   0  0  0  0  0  0
  -25.5961  -33.8579   24.2316 N   0  0  0  0  0  0
  -23.4060  -30.4836   21.5452 C   0  0  2  0  0  0
  -24.8574  -28.9374   20.1214 C   0  0  0  0  0  0
  -22.7423  -29.4627   22.4983 C   0  0  0  0  0  0
  -18.0281  -28.1351   22.8477 C   0  0  0  0  0  0
  -24.1493  -36.7261   23.2640 C   0  0  0  0  0  0
  -25.9353  -30.8223   21.3607 C   0  0  0  0  0  0
  -26.0163  -29.4493   20.7186 C   0  0  0  0  0  0
  -27.2131  -28.6918   20.7081 C   0  0  0  0  0  0
  -26.0705  -26.9115   19.5075 C   0  0  0  0  0  0
  -24.8783  -27.6670   19.5175 C   0  0  0  0  0  0
  -23.6180  -29.8067   20.1644 C   0  0  0  0  0  0
  -25.4122  -36.3068   24.0341 C   0  0  1  0  0  0
  -20.5869  -28.3639   23.1316 C   0  0  2  0  0  0
  -20.6775  -26.9379   22.5405 C   0  0  0  0  0  0
  -19.5759  -26.6368   21.5187 C   0  0  0  0  0  0
  -18.1929  -26.7896   22.1601 C   0  0  0  0  0  0
  -19.1532  -28.8815   23.2881 C   0  0  0  0  0  0
  -18.9465  -30.1408   23.8905 C   0  0  0  0  0  0
  -17.6478  -30.6561   24.0541 C   0  0  0  0  0  0
  -25.9068  -34.9445   23.5122 C   0  0  0  0  0  0
  -16.5363  -29.9062   23.6327 C   0  0  0  0  0  0
  -16.7274  -28.6473   23.0359 C   0  0  0  0  0  0
  -26.4500  -31.6563   25.0667 C   0  0  0  0  0  0
  -25.3790  -31.3640   26.1421 C   0  0  0  0  0  0
  -27.0338  -30.3041   24.5973 C   0  0  0  0  0  0
  -27.6040  -32.4296   25.7488 C   0  0  0  0  0  0
  -27.5577  -37.1782   24.8472 C   0  0  0  0  0  0
  -21.4159  -29.3002   22.3731 N   0  0  0  0  0  0
  -26.4288  -37.3771   23.9425 N   0  0  0  0  0  0
  -24.6705  -31.0721   22.0954 N   0  0  0  0  0  0
  -23.4177  -28.8204   23.3064 O   0  0  0  0  0  0
  -28.4170  -26.6803   20.0169 O   0  0  0  0  0  0
  -26.5572  -34.8905   22.4650 O   0  0  0  0  0  0
  -23.5360  -32.1410   23.7452 O   0  0  0  0  0  0
  -31.6925  -18.2655   23.3733 C   0  0  0  0  0  0
  -31.2043  -17.0754   22.8053 C   0  0  0  0  0  0
  -31.5962  -19.4767   22.6674 C   0  0  0  0  0  0
  -30.6274  -17.0637   21.5162 C   0  0  0  0  0  0
  -31.0465  -19.5237   21.3675 C   0  0  0  0  0  0
  -30.5845  -18.2992   20.7753 C   0  0  0  0  0  0
  -29.8833  -15.8118   21.1204 C   0  0  0  0  0  0
  -31.1703  -18.0137   18.3239 C   0  0  0  0  0  0
  -31.0468  -20.9059   20.6619 C   0  0  0  0  0  0
  -30.0584  -18.3160   19.3386 C   0  0  0  0  0  0
  -29.7156  -21.7272   20.6647 C   0  0  0  0  0  0
  -29.8829  -23.2752   20.8522 C   0  0  0  0  0  0
  -28.7086  -24.1765   20.3387 C   0  0  0  0  0  0
  -28.6239  -25.6106   20.9617 C   0  0  0  0  0  0
  -28.6248  -15.8829   21.2480 N   0  0  0  0  0  0
  -31.4804  -12.5043   19.1235 H   0  0  0  0  0  0
  -30.3831  -11.3640   19.8382 H   0  0  0  0  0  0
  -29.7618  -11.7930   17.4426 H   0  0  0  0  0  0
  -29.6365  -13.5048   17.7659 H   0  0  0  0  0  0
  -27.8629  -11.2863   18.8338 H   0  0  0  0  0  0
  -27.3658  -12.5935   17.7943 H   0  0  0  0  0  0
  -27.6928  -14.2195   19.5498 H   0  0  0  0  0  0
  -28.7328  -11.9146   21.2759 H   0  0  0  0  0  0
  -28.4653  -13.4928   21.9102 H   0  0  0  0  0  0
  -25.2745   -9.5646   22.4773 H   0  0  0  0  0  0
  -23.9977   -7.4600   22.7474 H   0  0  0  0  0  0
  -21.0836   -8.8742   19.8916 H   0  0  0  0  0  0
  -22.3705  -10.9649   19.6138 H   0  0  0  0  0  0
  -21.1982   -7.6132   23.9725 H   0  0  0  0  0  0
  -21.1492   -6.0513   25.9082 H   0  0  0  0  0  0
  -22.0599   -2.7608   23.2866 H   0  0  0  0  0  0
  -22.4127  -11.9810   22.4721 H   0  0  0  0  0  0
  -21.1138  -13.1205   22.2566 H   0  0  0  0  0  0
  -24.7340  -15.8561   20.6584 H   0  0  0  0  0  0
  -26.3872  -15.5775   20.4001 H   0  0  0  0  0  0
  -26.7131  -32.5517   23.1096 H   0  0  0  0  0  0
  -25.0207  -33.9734   25.0529 H   0  0  0  0  0  0
  -22.6948  -31.2993   21.3980 H   0  0  0  0  0  0
  -23.3779  -35.9558   23.3268 H   0  0  0  0  0  0
  -24.3600  -36.8909   22.2051 H   0  0  0  0  0  0
  -23.7205  -37.6443   23.6679 H   0  0  0  0  0  0
  -26.0416  -31.5849   20.5855 H   0  0  0  0  0  0
  -26.8226  -30.8834   21.9771 H   0  0  0  0  0  0
  -28.1155  -29.0872   21.1530 H   0  0  0  0  0  0
  -26.0784  -25.9440   19.0236 H   0  0  0  0  0  0
  -23.9866  -27.2656   19.0568 H   0  0  0  0  0  0
  -23.7242  -30.5736   19.3967 H   0  0  0  0  0  0
  -22.7444  -29.2210   19.8729 H   0  0  0  0  0  0
  -25.1287  -36.1913   25.0830 H   0  0  0  0  0  0
  -20.9930  -28.3187   24.1449 H   0  0  0  0  0  0
  -20.5694  -26.2231   23.3580 H   0  0  0  0  0  0
  -21.6649  -26.7433   22.1190 H   0  0  0  0  0  0
  -19.6946  -25.6287   21.1189 H   0  0  0  0  0  0
  -19.6723  -27.3196   20.6724 H   0  0  0  0  0  0
  -17.4211  -26.6655   21.3983 H   0  0  0  0  0  0
  -18.0329  -26.0000   22.8962 H   0  0  0  0  0  0
  -19.7950  -30.7184   24.2303 H   0  0  0  0  0  0
  -17.5041  -31.6253   24.5107 H   0  0  0  0  0  0
  -15.5369  -30.2963   23.7638 H   0  0  0  0  0  0
  -15.8668  -28.0773   22.7116 H   0  0  0  0  0  0
  -24.5979  -30.6971   25.7769 H   0  0  0  0  0  0
  -24.8966  -32.2769   26.4903 H   0  0  0  0  0  0
  -25.8154  -30.8797   27.0161 H   0  0  0  0  0  0
  -26.2830  -29.6807   24.1090 H   0  0  0  0  0  0
  -27.4246  -29.7261   25.4352 H   0  0  0  0  0  0
  -27.8609  -30.4417   23.9011 H   0  0  0  0  0  0
  -27.2614  -33.3608   26.2013 H   0  0  0  0  0  0
  -28.3899  -32.6823   25.0368 H   0  0  0  0  0  0
  -28.0618  -31.8441   26.5459 H   0  0  0  0  0  0
  -28.2538  -38.0126   24.7562 H   0  0  0  0  0  0
  -28.1105  -36.2642   24.6239 H   0  0  0  0  0  0
  -27.2277  -37.1385   25.8867 H   0  0  0  0  0  0
  -20.9340  -29.8697   21.6921 H   0  0  0  0  0  0
  -26.0158  -38.2833   24.1461 H   0  0  0  0  0  0
  -32.1176  -18.2557   24.3692 H   0  0  0  0  0  0
  -31.2248  -16.1715   23.3964 H   0  0  0  0  0  0
  -31.9632  -20.3790   23.1408 H   0  0  0  0  0  0
  -30.7867  -18.0382   17.3031 H   0  0  0  0  0  0
  -31.6081  -17.0273   18.4857 H   0  0  0  0  0  0
  -31.9763  -18.7447   18.3909 H   0  0  0  0  0  0
  -31.4111  -20.8007   19.6374 H   0  0  0  0  0  0
  -31.8157  -21.5103   21.1476 H   0  0  0  0  0  0
  -29.6123  -19.2829   19.1134 H   0  0  0  0  0  0
  -29.2402  -17.6074   19.2081 H   0  0  0  0  0  0
  -29.0645  -21.3595   21.4576 H   0  0  0  0  0  0
  -29.1853  -21.5224   19.7349 H   0  0  0  0  0  0
  -30.7954  -23.6030   20.3530 H   0  0  0  0  0  0
  -30.0527  -23.4710   21.9126 H   0  0  0  0  0  0
  -27.7548  -23.6744   20.5162 H   0  0  0  0  0  0
  -28.7947  -24.2611   19.2550 H   0  0  0  0  0  0
  -29.5691  -25.8386   21.4566 H   0  0  0  0  0  0
  -27.8689  -25.6241   21.7498 H   0  0  0  0  0  0
  -28.3707  -16.7888   21.6232 H   0  0  0  0  0  0
  1 25  1  0  0  0
  1 30  2  0  0  0
  1 77  1  0  0  0
  2  3  1  0  0  0
  2 25  1  0  0  0
  2 86  1  0  0  0
  2 87  1  0  0  0
  3  4  1  0  0  0
  3 88  1  0  0  0
  3 89  1  0  0  0
  4  5  1  0  0  0
  4 90  1  0  0  0
  4 91  1  0  0  0
  5  6  1  0  0  0
  5 26  1  0  0  0
  5 92  1  0  0  0
  6 25  1  0  0  0
  6 93  1  0  0  0
  6 94  1  0  0  0
  7  8  2  0  0  0
  7 26  1  0  0  0
  7 29  1  0  0  0
  8  9  1  0  0  0
  8 22  1  0  0  0
  9 10  1  0  0  0
  9 27  2  0  0  0
 10 11  2  0  0  0
 10 15  1  0  0  0
 11 12  1  0  0  0
 11 95  1  0  0  0
 12 13  2  0  0  0
 12 96  1  0  0  0
 13 14  1  0  0  0
 13 31  1  0  0  0
 14 15  2  0  0  0
 14 97  1  0  0  0
 15 98  1  0  0  0
 16 17  2  0  0  0
 16 21  1  0  0  0
 16 31  1  0  0  0
 17 18  1  0  0  0
 17 99  1  0  0  0
 18 19  2  0  0  0
 18100  1  0  0  0
 19 20  1  0  0  0
 19 24  1  0  0  0
 20 21  2  0  0  0
 20101  1  0  0  0
 21 23  1  0  0  0
 22 28  1  0  0  0
 22 32  2  0  0  0
 26 27  1  0  0  0
 28102  1  0  0  0
 28103  1  0  0  0
 29104  1  0  0  0
 29105  1  0  0  0
 33 34  1  0  0  0
 33 66  1  0  0  0
 33 70  2  0  0  0
 34 36  1  0  0  0
 34 59  1  0  0  0
 34106  1  0  0  0
 35 44  2  0  0  0
 35 45  1  0  0  0
 35 68  1  0  0  0
 36 56  1  0  0  0
 36107  1  0  0  0
 37 39  1  0  0  0
 37 47  1  0  0  0
 37 66  1  0  0  0
 37108  1  0  0  0
 38 43  2  0  0  0
 38 46  1  0  0  0
 38 47  1  0  0  0
 39 64  1  0  0  0
 39 67  2  0  0  0
 40 52  1  0  0  0
 40 53  2  0  0  0
 40 58  1  0  0  0
 41109  1  0  0  0
 41110  1  0  0  0
 41111  1  0  0  0
 41 48  1  0  0  0
 42 43  1  0  0  0
 42 66  1  0  0  0
 42112  1  0  0  0
 42113  1  0  0  0
 43 44  1  0  0  0
 44114  1  0  0  0
 45 46  2  0  0  0
 45115  1  0  0  0
 46116  1  0  0  0
 47117  1  0  0  0
 47118  1  0  0  0
 48 56  1  0  0  0
 48 65  1  0  0  0
 48119  1  0  0  0
 49 50  1  0  0  0
 49 53  1  0  0  0
 49 64  1  0  0  0
 49120  1  0  0  0
 50 51  1  0  0  0
 50121  1  0  0  0
 50122  1  0  0  0
 51 52  1  0  0  0
 51123  1  0  0  0
 51124  1  0  0  0
 52125  1  0  0  0
 52126  1  0  0  0
 53 54  1  0  0  0
 54 55  2  0  0  0
 54127  1  0  0  0
 55 57  1  0  0  0
 55128  1  0  0  0
 56 69  2  0  0  0
 57 58  2  0  0  0
 57129  1  0  0  0
 58130  1  0  0  0
 59 60  1  0  0  0
 59 61  1  0  0  0
 59 62  1  0  0  0
 60131  1  0  0  0
 60132  1  0  0  0
 60133  1  0  0  0
 61134  1  0  0  0
 61135  1  0  0  0
 61136  1  0  0  0
 62137  1  0  0  0
 62138  1  0  0  0
 62139  1  0  0  0
 63 65  1  0  0  0
 63140  1  0  0  0
 63141  1  0  0  0
 63142  1  0  0  0
 64143  1  0  0  0
 65144  1  0  0  0
 68 84  1  0  0  0
 71 72  2  0  0  0
 71 73  1  0  0  0
 71145  1  0  0  0
 72 74  1  0  0  0
 72146  1  0  0  0
 73 75  2  0  0  0
 73147  1  0  0  0
 74 76  2  0  0  0
 74 77  1  0  0  0
 75 76  1  0  0  0
 75 79  1  0  0  0
 76 80  1  0  0  0
 77 85  2  0  0  0
 78 80  1  0  0  0
 78148  1  0  0  0
 78149  1  0  0  0
 78150  1  0  0  0
 79 81  1  0  0  0
 79151  1  0  0  0
 79152  1  0  0  0
 80153  1  0  0  0
 80154  1  0  0  0
 81 82  1  0  0  0
 81155  1  0  0  0
 81156  1  0  0  0
 82 83  1  0  0  0
 82157  1  0  0  0
 82158  1  0  0  0
 83 84  1  0  0  0
 83159  1  0  0  0
 83160  1  0  0  0
 84161  1  0  0  0
 84162  1  0  0  0
 85163  1  0  0  0
M  ISO  4   1 100  68 101  77 100  84 101
M  END
> <chiral flag>
0

> <version>
0

> <s_m_source_file>
/data/baiqing/PycharmProjects/Reinvent-master-3.2/result/LINK_invent/BTK/process_docking_weight1_custom_product_contain_oxygen_bond_distance_aromatic_linkinvent_7_9_3/rearranged_h_0133.sdf

> <i_m_source_file_index>
92

> <r_mmod_Potential_Energy-OPLS-2005>
219.318099975586

> <r_mmod_Stretch_Energy-OPLS-2005>
61.0445785522461

> <r_mmod_Bend_Energy-OPLS-2005>
124.126052856445

> <r_mmod_Torsional_Energy-OPLS-2005>
255.580841064453

> <r_mmod_Improper_Torsional_Energy-OPLS-2005>
5.87990808486938

> <r_mmod_Van_der_Waal_Energy-OPLS-2005>
149.517837524414

> <r_mmod_Electrostatic_Energy-OPLS-2005>
-220.636291503906

> <r_mmod_Solvation_Energy-OPLS-2005>
-177.138412475586

> <b_mmod_Minimization_Converged-OPLS-2005>
0

> <r_mmod_RMS_Derivative-OPLS-2005>
3.72039151191711

$$$$
92
                    3D
 Structure written by MMmdl.
152160  0  0  1  0            999 V2000
  -30.6702  -14.5850   20.5304 C   0  0  0  0  0  0
  -30.4137  -12.3763   19.4486 C   0  0  0  0  0  0
  -29.4892  -12.5345   18.2225 C   0  0  0  0  0  0
  -28.0191  -12.3485   18.6385 C   0  0  0  0  0  0
  -27.6462  -13.2189   19.8671 C   0  0  2  0  0  0
  -28.6873  -13.0647   20.9990 C   0  0  0  0  0  0
  -25.2527  -13.8207   20.5718 C   0  0  0  0  0  0
  -24.1787  -13.0451   20.9208 C   0  0  0  0  0  0
  -24.6370  -11.6939   20.8717 C   0  0  0  0  0  0
  -23.9061  -10.4322   21.0373 C   0  0  0  0  0  0
  -24.3612   -9.4264   21.9174 C   0  0  0  0  0  0
  -23.6319   -8.2286   22.0768 C   0  0  0  0  0  0
  -22.4320   -8.0289   21.3548 C   0  0  0  0  0  0
  -21.9934   -9.0230   20.4632 C   0  0  0  0  0  0
  -22.7231  -10.2136   20.3034 C   0  0  0  0  0  0
  -21.6893   -6.0762   22.5305 C   0  0  0  0  0  0
  -21.4022   -6.5653   23.8228 C   0  0  0  0  0  0
  -21.3645   -5.6817   24.9191 C   0  0  0  0  0  0
  -21.6043   -4.3087   24.7253 C   0  0  0  0  0  0
  -21.8824   -3.8184   23.4376 C   0  0  0  0  0  0
  -21.9213   -4.6994   22.3440 C   0  0  0  0  0  0
  -22.7816  -13.5235   21.1877 C   0  0  0  0  0  0
  -22.1681   -4.2172   21.1008 F   0  0  0  0  0  0
  -21.5623   -3.4563   25.7765 F   0  0  0  0  0  0
  -30.0115  -13.3877   20.4462 N   0  0  0  0  0  0
  -26.2929  -12.9377   20.3342 N   0  0  0  0  0  0
  -25.9285  -11.6534   20.5770 N   0  0  0  0  0  0
  -22.0446  -12.8144   22.0368 N   0  0  0  0  0  0
  -25.4312  -15.1918   20.4220 N   0  0  0  0  0  0
  -31.7982  -14.7215   20.0419 O   0  0  0  0  0  0
  -21.6694   -6.8876   21.4250 O   0  0  0  0  0  0
  -22.3467  -14.5542   20.6765 O   0  0  0  0  0  0
  -24.6145  -31.8700   23.2075 C   0  0  0  0  0  0
  -25.9028  -32.4844   23.8395 C   0  0  1  0  0  0
  -27.2477  -27.4176   20.1506 C   0  0  0  0  0  0
  -25.5882  -33.8647   24.2330 N   0  0  0  0  0  0
  -23.4020  -30.4853   21.5501 C   0  0  2  0  0  0
  -24.8595  -28.9494   20.1156 C   0  0  0  0  0  0
  -22.7385  -29.4694   22.5072 C   0  0  0  0  0  0
  -18.0264  -28.1388   22.8532 C   0  0  0  0  0  0
  -24.1505  -36.7320   23.2627 C   0  0  0  0  0  0
  -25.9271  -30.8368   21.3589 C   0  0  0  0  0  0
  -26.0144  -29.4661   20.7173 C   0  0  0  0  0  0
  -27.2103  -28.7096   20.7285 C   0  0  0  0  0  0
  -26.0828  -26.9304   19.5146 C   0  0  0  0  0  0
  -24.8921  -27.6856   19.5000 C   0  0  0  0  0  0
  -23.6047  -29.7963   20.1706 C   0  0  0  0  0  0
  -25.4136  -36.3141   24.0321 C   0  0  1  0  0  0
  -20.5851  -28.3688   23.1353 C   0  0  2  0  0  0
  -20.6762  -26.9433   22.5437 C   0  0  0  0  0  0
  -19.5742  -26.6409   21.5232 C   0  0  0  0  0  0
  -18.1904  -26.7937   22.1613 C   0  0  0  0  0  0
  -19.1501  -28.8851   23.2933 C   0  0  0  0  0  0
  -18.9417  -30.1460   23.8940 C   0  0  0  0  0  0
  -17.6417  -30.6589   24.0582 C   0  0  0  0  0  0
  -25.9056  -34.9495   23.5139 C   0  0  0  0  0  0
  -16.5322  -29.9081   23.6351 C   0  0  0  0  0  0
  -16.7247  -28.6487   23.0403 C   0  0  0  0  0  0
  -26.4429  -31.6603   25.0727 C   0  0  0  0  0  0
  -25.3644  -31.3632   26.1421 C   0  0  0  0  0  0
  -27.0280  -30.3068   24.6077 C   0  0  0  0  0  0
  -27.6063  -32.4252   25.7473 C   0  0  0  0  0  0
  -27.5614  -37.1807   24.8446 C   0  0  0  0  0  0
  -21.4122  -29.3048   22.3762 N   0  0  0  0  0  0
  -26.4330  -37.3815   23.9398 N   0  0  0  0  0  0
  -24.6652  -31.0779   22.0988 N   0  0  0  0  0  0
  -23.4159  -28.8276   23.3142 O   0  0  0  0  0  0
  -28.3850  -26.6338   20.2490 O   0  0  0  0  0  0
  -26.5614  -34.8926   22.4701 O   0  0  0  0  0  0
  -23.5335  -32.1444   23.7474 O   0  0  0  0  0  0
  -28.6215  -18.5424   22.1047 C   0  0  0  0  0  0
  -28.4971  -19.9619   22.1572 C   0  0  0  0  0  0
  -29.4993  -18.2425   21.0962 C   0  0  0  0  0  0
  -29.3251  -20.4788   21.2004 C   0  0  0  0  0  0
  -30.0654  -16.9964   20.6158 C   0  0  0  0  0  0
  -29.9527  -15.7346   21.1202 C   0  0  0  0  0  0
  -29.6817  -21.9017   20.7838 C   0  0  0  0  0  0
  -29.1371  -23.0452   21.7046 C   0  0  0  0  0  0
  -29.4169  -24.5245   21.2534 C   0  0  0  0  0  0
  -28.1517  -25.3079   20.7900 C   0  0  0  0  0  0
  -29.9299  -19.4293   20.5333 O   0  0  0  0  0  0
  -31.4564  -12.4736   19.1480 H   0  0  0  0  0  0
  -30.3212  -11.3787   19.8730 H   0  0  0  0  0  0
  -29.7539  -11.8153   17.4457 H   0  0  0  0  0  0
  -29.6231  -13.5248   17.7798 H   0  0  0  0  0  0
  -27.8705  -11.2939   18.8722 H   0  0  0  0  0  0
  -27.3588  -12.5705   17.7997 H   0  0  0  0  0  0
  -27.6683  -14.2567   19.5311 H   0  0  0  0  0  0
  -28.6820  -12.0446   21.3805 H   0  0  0  0  0  0
  -28.4168  -13.6893   21.8501 H   0  0  0  0  0  0
  -25.2752   -9.5798   22.4760 H   0  0  0  0  0  0
  -24.0091   -7.4704   22.7485 H   0  0  0  0  0  0
  -21.0907   -8.8684   19.8891 H   0  0  0  0  0  0
  -22.3669  -10.9647   19.6134 H   0  0  0  0  0  0
  -21.1984   -7.6169   23.9723 H   0  0  0  0  0  0
  -21.1446   -6.0565   25.9081 H   0  0  0  0  0  0
  -22.0605   -2.7646   23.2911 H   0  0  0  0  0  0
  -22.4140  -11.9844   22.4758 H   0  0  0  0  0  0
  -21.1009  -13.1034   22.2481 H   0  0  0  0  0  0
  -24.6777  -15.8611   20.5471 H   0  0  0  0  0  0
  -26.3042  -15.6266   20.1438 H   0  0  0  0  0  0
  -26.7119  -32.5570   23.1191 H   0  0  0  0  0  0
  -25.0034  -33.9807   25.0475 H   0  0  0  0  0  0
  -22.6911  -31.3024   21.4022 H   0  0  0  0  0  0
  -23.3798  -35.9618   23.3243 H   0  0  0  0  0  0
  -24.3607  -36.9007   22.2058 H   0  0  0  0  0  0
  -23.7195  -37.6476   23.6676 H   0  0  0  0  0  0
  -26.0220  -31.5940   20.5797 H   0  0  0  0  0  0
  -26.8216  -30.9102   21.9661 H   0  0  0  0  0  0
  -28.0942  -29.0994   21.2183 H   0  0  0  0  0  0
  -26.0813  -25.9566   19.0481 H   0  0  0  0  0  0
  -24.0110  -27.2845   19.0210 H   0  0  0  0  0  0
  -23.6686  -30.5501   19.3857 H   0  0  0  0  0  0
  -22.7413  -29.1788   19.9117 H   0  0  0  0  0  0
  -25.1317  -36.2037   25.0813 H   0  0  0  0  0  0
  -20.9907  -28.3233   24.1491 H   0  0  0  0  0  0
  -20.5719  -26.2275   23.3607 H   0  0  0  0  0  0
  -21.6631  -26.7532   22.1204 H   0  0  0  0  0  0
  -19.6915  -25.6325   21.1239 H   0  0  0  0  0  0
  -19.6674  -27.3251   20.6787 H   0  0  0  0  0  0
  -17.4198  -26.6777   21.3975 H   0  0  0  0  0  0
  -18.0256  -26.0048   22.8960 H   0  0  0  0  0  0
  -19.7887  -30.7300   24.2313 H   0  0  0  0  0  0
  -17.4954  -31.6267   24.5177 H   0  0  0  0  0  0
  -15.5317  -30.2988   23.7654 H   0  0  0  0  0  0
  -15.8643  -28.0795   22.7161 H   0  0  0  0  0  0
  -24.5904  -30.6934   25.7632 H   0  0  0  0  0  0
  -24.8722  -32.2754   26.4815 H   0  0  0  0  0  0
  -25.7963  -30.8777   27.0193 H   0  0  0  0  0  0
  -26.2850  -29.6820   24.1119 H   0  0  0  0  0  0
  -27.4057  -29.7303   25.4528 H   0  0  0  0  0  0
  -27.8658  -30.4414   23.9238 H   0  0  0  0  0  0
  -27.2814  -33.3586   26.2063 H   0  0  0  0  0  0
  -28.3876  -32.6728   25.0273 H   0  0  0  0  0  0
  -28.0709  -31.8319   26.5355 H   0  0  0  0  0  0
  -28.2591  -38.0147   24.7604 H   0  0  0  0  0  0
  -28.1174  -36.2692   24.6183 H   0  0  0  0  0  0
  -27.2322  -37.1344   25.8838 H   0  0  0  0  0  0
  -20.9300  -29.8714   21.6929 H   0  0  0  0  0  0
  -26.0236  -38.2907   24.1392 H   0  0  0  0  0  0
  -28.1290  -17.8284   22.7498 H   0  0  0  0  0  0
  -27.8856  -20.5374   22.8387 H   0  0  0  0  0  0
  -30.6548  -17.1107   19.7156 H   0  0  0  0  0  0
  -29.3517  -15.5996   22.0059 H   0  0  0  0  0  0
  -29.3427  -22.0695   19.7623 H   0  0  0  0  0  0
  -30.7675  -21.9887   20.7412 H   0  0  0  0  0  0
  -29.5676  -22.9200   22.7000 H   0  0  0  0  0  0
  -28.0642  -22.9164   21.8520 H   0  0  0  0  0  0
  -30.1842  -24.5438   20.4799 H   0  0  0  0  0  0
  -29.8507  -25.0619   22.1021 H   0  0  0  0  0  0
  -27.4873  -25.3972   21.6544 H   0  0  0  0  0  0
  -27.6311  -24.6981   20.0531 H   0  0  0  0  0  0
  1 25  1  0  0  0
  1 30  2  0  0  0
  1 76  1  0  0  0
  2  3  1  0  0  0
  2 25  1  0  0  0
  2 82  1  0  0  0
  2 83  1  0  0  0
  3  4  1  0  0  0
  3 84  1  0  0  0
  3 85  1  0  0  0
  4  5  1  0  0  0
  4 86  1  0  0  0
  4 87  1  0  0  0
  5  6  1  0  0  0
  5 26  1  0  0  0
  5 88  1  0  0  0
  6 25  1  0  0  0
  6 89  1  0  0  0
  6 90  1  0  0  0
  7  8  2  0  0  0
  7 26  1  0  0  0
  7 29  1  0  0  0
  8  9  1  0  0  0
  8 22  1  0  0  0
  9 10  1  0  0  0
  9 27  2  0  0  0
 10 11  2  0  0  0
 10 15  1  0  0  0
 11 12  1  0  0  0
 11 91  1  0  0  0
 12 13  2  0  0  0
 12 92  1  0  0  0
 13 14  1  0  0  0
 13 31  1  0  0  0
 14 15  2  0  0  0
 14 93  1  0  0  0
 15 94  1  0  0  0
 16 17  2  0  0  0
 16 21  1  0  0  0
 16 31  1  0  0  0
 17 18  1  0  0  0
 17 95  1  0  0  0
 18 19  2  0  0  0
 18 96  1  0  0  0
 19 20  1  0  0  0
 19 24  1  0  0  0
 20 21  2  0  0  0
 20 97  1  0  0  0
 21 23  1  0  0  0
 22 28  1  0  0  0
 22 32  2  0  0  0
 26 27  1  0  0  0
 28 98  1  0  0  0
 28 99  1  0  0  0
 29100  1  0  0  0
 29101  1  0  0  0
 33 34  1  0  0  0
 33 66  1  0  0  0
 33 70  2  0  0  0
 34 36  1  0  0  0
 34 59  1  0  0  0
 34102  1  0  0  0
 35 44  2  0  0  0
 35 45  1  0  0  0
 35 68  1  0  0  0
 36 56  1  0  0  0
 36103  1  0  0  0
 37 39  1  0  0  0
 37 47  1  0  0  0
 37 66  1  0  0  0
 37104  1  0  0  0
 38 43  2  0  0  0
 38 46  1  0  0  0
 38 47  1  0  0  0
 39 64  1  0  0  0
 39 67  2  0  0  0
 40 52  1  0  0  0
 40 53  2  0  0  0
 40 58  1  0  0  0
 41105  1  0  0  0
 41106  1  0  0  0
 41107  1  0  0  0
 41 48  1  0  0  0
 42 43  1  0  0  0
 42 66  1  0  0  0
 42108  1  0  0  0
 42109  1  0  0  0
 43 44  1  0  0  0
 44110  1  0  0  0
 45 46  2  0  0  0
 45111  1  0  0  0
 46112  1  0  0  0
 47113  1  0  0  0
 47114  1  0  0  0
 48 56  1  0  0  0
 48 65  1  0  0  0
 48115  1  0  0  0
 49 50  1  0  0  0
 49 53  1  0  0  0
 49 64  1  0  0  0
 49116  1  0  0  0
 50 51  1  0  0  0
 50117  1  0  0  0
 50118  1  0  0  0
 51 52  1  0  0  0
 51119  1  0  0  0
 51120  1  0  0  0
 52121  1  0  0  0
 52122  1  0  0  0
 53 54  1  0  0  0
 54 55  2  0  0  0
 54123  1  0  0  0
 55 57  1  0  0  0
 55124  1  0  0  0
 56 69  2  0  0  0
 57 58  2  0  0  0
 57125  1  0  0  0
 58126  1  0  0  0
 59 60  1  0  0  0
 59 61  1  0  0  0
 59 62  1  0  0  0
 60127  1  0  0  0
 60128  1  0  0  0
 60129  1  0  0  0
 61130  1  0  0  0
 61131  1  0  0  0
 61132  1  0  0  0
 62133  1  0  0  0
 62134  1  0  0  0
 62135  1  0  0  0
 63 65  1  0  0  0
 63136  1  0  0  0
 63137  1  0  0  0
 63138  1  0  0  0
 64139  1  0  0  0
 65140  1  0  0  0
 68 80  1  0  0  0
 71 72  1  0  0  0
 71 73  2  0  0  0
 71141  1  0  0  0
 72 74  2  0  0  0
 72142  1  0  0  0
 73 75  1  0  0  0
 73 81  1  0  0  0
 74 77  1  0  0  0
 74 81  1  0  0  0
 75 76  2  0  0  0
 75143  1  0  0  0
 76144  1  0  0  0
 77 78  1  0  0  0
 77145  1  0  0  0
 77146  1  0  0  0
 78 79  1  0  0  0
 78147  1  0  0  0
 78148  1  0  0  0
 79 80  1  0  0  0
 79149  1  0  0  0
 79150  1  0  0  0
 80151  1  0  0  0
 80152  1  0  0  0
M  ISO  4   1 100  68 101  76 100  80 101
M  END
> <chiral flag>
0

> <version>
0

> <s_m_source_file>
/data/baiqing/PycharmProjects/Reinvent-master-3.2/result/LINK_invent/BTK/process_docking_weight1_custom_product_contain_oxygen_bond_distance_aromatic_linkinvent_7_9_3/rearranged_h_0133.sdf

> <i_m_source_file_index>
93

> <r_mmod_Potential_Energy-OPLS-2005>
-27.1684646606445

> <r_mmod_Stretch_Energy-OPLS-2005>
45.7731399536133

> <r_mmod_Bend_Energy-OPLS-2005>
98.9339294433594

> <r_mmod_Torsional_Energy-OPLS-2005>
207.354904174805

> <r_mmod_Improper_Torsional_Energy-OPLS-2005>
3.00817012786865

> <r_mmod_Van_der_Waal_Energy-OPLS-2005>
126.972671508789

> <r_mmod_Electrostatic_Energy-OPLS-2005>
-344.900115966797

> <r_mmod_Solvation_Energy-OPLS-2005>
-193.133544921875

> <b_mmod_Minimization_Converged-OPLS-2005>
0

> <r_mmod_RMS_Derivative-OPLS-2005>
5.68859577178955

$$$$
93
                    3D
 Structure written by MMmdl.
173181  0  0  1  0            999 V2000
  -30.6399  -14.5484   20.5344 C   0  0  0  0  0  0
  -30.4447  -12.3426   19.4306 C   0  0  0  0  0  0
  -29.5076  -12.5111   18.2129 C   0  0  0  0  0  0
  -28.0218  -12.3767   18.6164 C   0  0  0  0  0  0
  -27.6624  -13.2037   19.8815 C   0  0  2  0  0  0
  -28.7097  -12.9600   20.9919 C   0  0  0  0  0  0
  -25.2563  -13.8126   20.5649 C   0  0  0  0  0  0
  -24.1826  -13.0413   20.9199 C   0  0  0  0  0  0
  -24.6382  -11.6882   20.8756 C   0  0  0  0  0  0
  -23.9044  -10.4275   21.0393 C   0  0  0  0  0  0
  -24.3602   -9.4202   21.9175 C   0  0  0  0  0  0
  -23.6277   -8.2242   22.0747 C   0  0  0  0  0  0
  -22.4260   -8.0274   21.3537 C   0  0  0  0  0  0
  -21.9893   -9.0239   20.4638 C   0  0  0  0  0  0
  -22.7212  -10.2117   20.3042 C   0  0  0  0  0  0
  -21.6843   -6.0742   22.5271 C   0  0  0  0  0  0
  -21.4019   -6.5644   23.8215 C   0  0  0  0  0  0
  -21.3659   -5.6787   24.9168 C   0  0  0  0  0  0
  -21.6042   -4.3050   24.7214 C   0  0  0  0  0  0
  -21.8827   -3.8153   23.4326 C   0  0  0  0  0  0
  -21.9188   -4.6975   22.3390 C   0  0  0  0  0  0
  -22.7854  -13.5216   21.1844 C   0  0  0  0  0  0
  -22.1653   -4.2172   21.0962 F   0  0  0  0  0  0
  -21.5614   -3.4528   25.7722 F   0  0  0  0  0  0
  -30.0291  -13.3248   20.4493 N   0  0  0  0  0  0
  -26.3026  -12.9296   20.3416 N   0  0  0  0  0  0
  -25.9323  -11.6462   20.5852 N   0  0  0  0  0  0
  -22.0488  -12.8217   22.0406 N   0  0  0  0  0  0
  -25.4183  -15.1828   20.3920 N   0  0  0  0  0  0
  -31.7932  -14.7095   20.1230 O   0  0  0  0  0  0
  -21.6618   -6.8881   21.4237 O   0  0  0  0  0  0
  -22.3522  -14.5497   20.6651 O   0  0  0  0  0  0
  -24.6184  -31.8658   23.2088 C   0  0  0  0  0  0
  -25.9060  -32.4815   23.8391 C   0  0  1  0  0  0
  -27.2450  -27.4080   20.0720 C   0  0  0  0  0  0
  -25.5895  -33.8615   24.2322 N   0  0  0  0  0  0
  -23.4083  -30.4899   21.5499 C   0  0  2  0  0  0
  -24.8544  -28.9543   20.1137 C   0  0  0  0  0  0
  -22.7439  -29.4644   22.4974 C   0  0  0  0  0  0
  -18.0278  -28.1382   22.8483 C   0  0  0  0  0  0
  -24.1478  -36.7298   23.2639 C   0  0  0  0  0  0
  -25.9426  -30.8190   21.3701 C   0  0  0  0  0  0
  -26.0181  -29.4527   20.7111 C   0  0  0  0  0  0
  -27.2100  -28.6840   20.6944 C   0  0  0  0  0  0
  -26.0474  -26.9288   19.4870 C   0  0  0  0  0  0
  -24.8649  -27.6908   19.5030 C   0  0  0  0  0  0
  -23.6183  -29.8242   20.1643 C   0  0  0  0  0  0
  -25.4104  -36.3108   24.0335 C   0  0  1  0  0  0
  -20.5874  -28.3665   23.1302 C   0  0  2  0  0  0
  -20.6764  -26.9399   22.5401 C   0  0  0  0  0  0
  -19.5743  -26.6394   21.5194 C   0  0  0  0  0  0
  -18.1922  -26.7934   22.1604 C   0  0  0  0  0  0
  -19.1529  -28.8838   23.2896 C   0  0  0  0  0  0
  -18.9454  -30.1439   23.8919 C   0  0  0  0  0  0
  -17.6458  -30.6580   24.0575 C   0  0  0  0  0  0
  -25.9035  -34.9473   23.5130 C   0  0  0  0  0  0
  -16.5350  -29.9087   23.6332 C   0  0  0  0  0  0
  -16.7269  -28.6509   23.0346 C   0  0  0  0  0  0
  -26.4472  -31.6606   25.0738 C   0  0  0  0  0  0
  -25.3719  -31.3696   26.1468 C   0  0  0  0  0  0
  -27.0316  -30.3049   24.6143 C   0  0  0  0  0  0
  -27.6047  -32.4325   25.7504 C   0  0  0  0  0  0
  -27.5582  -37.1806   24.8461 C   0  0  0  0  0  0
  -21.4161  -29.3031   22.3714 N   0  0  0  0  0  0
  -26.4287  -37.3799   23.9414 N   0  0  0  0  0  0
  -24.6746  -31.0725   22.1005 N   0  0  0  0  0  0
  -23.4202  -28.8185   23.3023 O   0  0  0  0  0  0
  -28.4132  -26.6530   20.1031 O   0  0  0  0  0  0
  -26.5610  -34.8924   22.4702 O   0  0  0  0  0  0
  -23.5359  -32.1422   23.7452 O   0  0  0  0  0  0
  -29.7852  -19.4828   20.6076 C   0  0  0  0  0  0
  -27.5473  -19.5115   22.2188 C   0  0  0  0  0  0
  -29.3667  -18.2424   21.1833 C   0  0  0  0  0  0
  -29.1275  -20.7394   20.8100 C   0  0  0  0  0  0
  -28.2216  -18.2920   22.0285 C   0  0  0  0  0  0
  -27.9591  -20.7231   21.6303 C   0  0  0  0  0  0
  -30.1323  -16.9895   20.8248 C   0  0  0  0  0  0
  -29.7802  -15.6764   20.9572 C   0  0  0  0  0  0
  -27.6579  -17.1010   22.7865 C   0  0  0  0  0  0
  -25.8697  -21.9467   20.9108 C   0  0  0  0  0  0
  -31.6741  -23.4995   17.8186 C   0  0  0  0  0  0
  -30.9430  -25.2273   20.0915 C   0  0  0  0  0  0
  -29.7502  -21.9783   20.0855 C   0  0  0  0  0  0
  -27.0298  -21.8967   21.9132 C   0  0  0  0  0  0
  -30.2576  -24.1035   17.9043 C   0  0  0  0  0  0
  -29.1192  -23.4201   20.1317 C   0  0  0  0  0  0
  -28.7033  -25.7346   19.0235 C   0  0  0  0  0  0
  -29.7688  -24.6002   19.3041 C   0  0  1  0  0  0
  -31.4852  -12.4706   19.1250 H   0  0  0  0  0  0
  -30.3837  -11.3280   19.8272 H   0  0  0  0  0  0
  -29.7536  -11.7749   17.4463 H   0  0  0  0  0  0
  -29.6804  -13.4890   17.7600 H   0  0  0  0  0  0
  -27.8195  -11.3198   18.7947 H   0  0  0  0  0  0
  -27.3810  -12.6690   17.7843 H   0  0  0  0  0  0
  -27.7038  -14.2557   19.5991 H   0  0  0  0  0  0
  -28.7096  -11.9052   21.2695 H   0  0  0  0  0  0
  -28.4705  -13.4837   21.9176 H   0  0  0  0  0  0
  -25.2748   -9.5687   22.4739 H   0  0  0  0  0  0
  -23.9988   -7.4633   22.7452 H   0  0  0  0  0  0
  -21.0829   -8.8738   19.8943 H   0  0  0  0  0  0
  -22.3647  -10.9644   19.6150 H   0  0  0  0  0  0
  -21.2021   -7.6153   23.9722 H   0  0  0  0  0  0
  -21.1471   -6.0513   25.9069 H   0  0  0  0  0  0
  -22.0606   -2.7623   23.2808 H   0  0  0  0  0  0
  -22.4107  -11.9898   22.4834 H   0  0  0  0  0  0
  -21.1122  -13.1281   22.2616 H   0  0  0  0  0  0
  -24.6499  -15.8372   20.4941 H   0  0  0  0  0  0
  -26.2661  -15.6178   20.0514 H   0  0  0  0  0  0
  -26.7137  -32.5518   23.1152 H   0  0  0  0  0  0
  -25.0032  -33.9775   25.0459 H   0  0  0  0  0  0
  -22.6985  -31.3082   21.4101 H   0  0  0  0  0  0
  -23.3751  -35.9619   23.3298 H   0  0  0  0  0  0
  -24.3582  -36.8925   22.2057 H   0  0  0  0  0  0
  -23.7204  -37.6489   23.6658 H   0  0  0  0  0  0
  -26.0657  -31.5873   20.6060 H   0  0  0  0  0  0
  -26.8264  -30.8654   21.9953 H   0  0  0  0  0  0
  -28.1090  -29.0667   21.1580 H   0  0  0  0  0  0
  -25.9774  -25.9534   19.0350 H   0  0  0  0  0  0
  -23.9668  -27.2934   19.0503 H   0  0  0  0  0  0
  -23.7309  -30.6010   19.4065 H   0  0  0  0  0  0
  -22.7409  -29.2475   19.8648 H   0  0  0  0  0  0
  -25.1279  -36.1978   25.0826 H   0  0  0  0  0  0
  -20.9965  -28.3223   24.1423 H   0  0  0  0  0  0
  -20.5661  -26.2269   23.3582 H   0  0  0  0  0  0
  -21.6637  -26.7437   22.1198 H   0  0  0  0  0  0
  -19.6902  -25.6311   21.1210 H   0  0  0  0  0  0
  -19.6680  -27.3225   20.6739 H   0  0  0  0  0  0
  -17.4191  -26.6703   21.4002 H   0  0  0  0  0  0
  -18.0319  -26.0065   22.8987 H   0  0  0  0  0  0
  -19.7925  -30.7247   24.2310 H   0  0  0  0  0  0
  -17.5004  -31.6260   24.5174 H   0  0  0  0  0  0
  -15.5350  -30.2993   23.7630 H   0  0  0  0  0  0
  -15.8667  -28.0836   22.7050 H   0  0  0  0  0  0
  -24.5912  -30.7032   25.7780 H   0  0  0  0  0  0
  -24.8878  -32.2834   26.4924 H   0  0  0  0  0  0
  -25.8054  -30.8854   27.0228 H   0  0  0  0  0  0
  -26.2879  -29.6817   24.1163 H   0  0  0  0  0  0
  -27.4040  -29.7289   25.4626 H   0  0  0  0  0  0
  -27.8732  -30.4374   23.9341 H   0  0  0  0  0  0
  -27.2685  -33.3635   26.2081 H   0  0  0  0  0  0
  -28.3858  -32.6869   25.0327 H   0  0  0  0  0  0
  -28.0709  -31.8443   26.5421 H   0  0  0  0  0  0
  -28.2579  -38.0128   24.7560 H   0  0  0  0  0  0
  -28.1103  -36.2663   24.6226 H   0  0  0  0  0  0
  -27.2310  -37.1383   25.8866 H   0  0  0  0  0  0
  -20.9314  -29.8777   21.6960 H   0  0  0  0  0  0
  -26.0172  -38.2871   24.1442 H   0  0  0  0  0  0
  -30.6516  -19.4676   19.9610 H   0  0  0  0  0  0
  -26.6613  -19.5180   22.8388 H   0  0  0  0  0  0
  -31.1069  -17.1824   20.3974 H   0  0  0  0  0  0
  -28.8171  -15.4537   21.3625 H   0  0  0  0  0  0
  -26.9724  -17.4200   23.5722 H   0  0  0  0  0  0
  -28.4412  -16.5214   23.2748 H   0  0  0  0  0  0
  -27.0809  -16.4627   22.1202 H   0  0  0  0  0  0
  -25.2085  -22.7880   21.1173 H   0  0  0  0  0  0
  -25.2756  -21.0332   20.9706 H   0  0  0  0  0  0
  -26.2214  -22.0366   19.8833 H   0  0  0  0  0  0
  -31.8586  -23.1081   16.8184 H   0  0  0  0  0  0
  -31.8387  -22.6842   18.5191 H   0  0  0  0  0  0
  -32.4404  -24.2530   18.0051 H   0  0  0  0  0  0
  -31.6939  -24.4870   20.3644 H   0  0  0  0  0  0
  -30.6052  -25.6865   21.0208 H   0  0  0  0  0  0
  -31.4408  -26.0050   19.5121 H   0  0  0  0  0  0
  -29.8037  -21.6742   19.0412 H   0  0  0  0  0  0
  -30.7813  -22.0572   20.4312 H   0  0  0  0  0  0
  -27.5317  -22.8473   22.0112 H   0  0  0  0  0  0
  -26.6010  -21.7591   22.9066 H   0  0  0  0  0  0
  -29.5312  -23.3993   17.4974 H   0  0  0  0  0  0
  -30.2608  -24.9305   17.1949 H   0  0  0  0  0  0
  -29.1131  -23.7654   21.1624 H   0  0  0  0  0  0
  -28.0861  -23.3291   19.8059 H   0  0  0  0  0  0
  -27.8250  -25.2487   18.6104 H   0  0  0  0  0  0
  -29.0615  -26.3846   18.2247 H   0  0  0  0  0  0
  1 25  1  0  0  0
  1 30  2  0  0  0
  1 78  1  0  0  0
  2  3  1  0  0  0
  2 25  1  0  0  0
  2 89  1  0  0  0
  2 90  1  0  0  0
  3  4  1  0  0  0
  3 91  1  0  0  0
  3 92  1  0  0  0
  4  5  1  0  0  0
  4 93  1  0  0  0
  4 94  1  0  0  0
  5  6  1  0  0  0
  5 26  1  0  0  0
  5 95  1  0  0  0
  6 25  1  0  0  0
  6 96  1  0  0  0
  6 97  1  0  0  0
  7  8  2  0  0  0
  7 26  1  0  0  0
  7 29  1  0  0  0
  8  9  1  0  0  0
  8 22  1  0  0  0
  9 10  1  0  0  0
  9 27  2  0  0  0
 10 11  2  0  0  0
 10 15  1  0  0  0
 11 12  1  0  0  0
 11 98  1  0  0  0
 12 13  2  0  0  0
 12 99  1  0  0  0
 13 14  1  0  0  0
 13 31  1  0  0  0
 14 15  2  0  0  0
 14100  1  0  0  0
 15101  1  0  0  0
 16 17  2  0  0  0
 16 21  1  0  0  0
 16 31  1  0  0  0
 17 18  1  0  0  0
 17102  1  0  0  0
 18 19  2  0  0  0
 18103  1  0  0  0
 19 20  1  0  0  0
 19 24  1  0  0  0
 20 21  2  0  0  0
 20104  1  0  0  0
 21 23  1  0  0  0
 22 28  1  0  0  0
 22 32  2  0  0  0
 26 27  1  0  0  0
 28105  1  0  0  0
 28106  1  0  0  0
 29107  1  0  0  0
 29108  1  0  0  0
 33 34  1  0  0  0
 33 66  1  0  0  0
 33 70  2  0  0  0
 34 36  1  0  0  0
 34 59  1  0  0  0
 34109  1  0  0  0
 35 44  2  0  0  0
 35 45  1  0  0  0
 35 68  1  0  0  0
 36 56  1  0  0  0
 36110  1  0  0  0
 37 39  1  0  0  0
 37 47  1  0  0  0
 37 66  1  0  0  0
 37111  1  0  0  0
 38 43  2  0  0  0
 38 46  1  0  0  0
 38 47  1  0  0  0
 39 64  1  0  0  0
 39 67  2  0  0  0
 40 52  1  0  0  0
 40 53  2  0  0  0
 40 58  1  0  0  0
 41112  1  0  0  0
 41113  1  0  0  0
 41114  1  0  0  0
 41 48  1  0  0  0
 42 43  1  0  0  0
 42 66  1  0  0  0
 42115  1  0  0  0
 42116  1  0  0  0
 43 44  1  0  0  0
 44117  1  0  0  0
 45 46  2  0  0  0
 45118  1  0  0  0
 46119  1  0  0  0
 47120  1  0  0  0
 47121  1  0  0  0
 48 56  1  0  0  0
 48 65  1  0  0  0
 48122  1  0  0  0
 49 50  1  0  0  0
 49 53  1  0  0  0
 49 64  1  0  0  0
 49123  1  0  0  0
 50 51  1  0  0  0
 50124  1  0  0  0
 50125  1  0  0  0
 51 52  1  0  0  0
 51126  1  0  0  0
 51127  1  0  0  0
 52128  1  0  0  0
 52129  1  0  0  0
 53 54  1  0  0  0
 54 55  2  0  0  0
 54130  1  0  0  0
 55 57  1  0  0  0
 55131  1  0  0  0
 56 69  2  0  0  0
 57 58  2  0  0  0
 57132  1  0  0  0
 58133  1  0  0  0
 59 60  1  0  0  0
 59 61  1  0  0  0
 59 62  1  0  0  0
 60134  1  0  0  0
 60135  1  0  0  0
 60136  1  0  0  0
 61137  1  0  0  0
 61138  1  0  0  0
 61139  1  0  0  0
 62140  1  0  0  0
 62141  1  0  0  0
 62142  1  0  0  0
 63 65  1  0  0  0
 63143  1  0  0  0
 63144  1  0  0  0
 63145  1  0  0  0
 64146  1  0  0  0
 65147  1  0  0  0
 68 87  1  0  0  0
 71 73  2  0  0  0
 71 74  1  0  0  0
 71148  1  0  0  0
 72 75  2  0  0  0
 72 76  1  0  0  0
 72149  1  0  0  0
 73 75  1  0  0  0
 73 77  1  0  0  0
 74 76  2  0  0  0
 74 83  1  0  0  0
 75 79  1  0  0  0
 76 84  1  0  0  0
 77 78  2  0  0  0
 77150  1  0  0  0
 78151  1  0  0  0
 79152  1  0  0  0
 79153  1  0  0  0
 79154  1  0  0  0
 80 84  1  0  0  0
 80155  1  0  0  0
 80156  1  0  0  0
 80157  1  0  0  0
 81 85  1  0  0  0
 81158  1  0  0  0
 81159  1  0  0  0
 81160  1  0  0  0
 82161  1  0  0  0
 82162  1  0  0  0
 82163  1  0  0  0
 82 88  1  0  0  0
 83 86  1  0  0  0
 83164  1  0  0  0
 83165  1  0  0  0
 84166  1  0  0  0
 84167  1  0  0  0
 85 88  1  0  0  0
 85168  1  0  0  0
 85169  1  0  0  0
 86 88  1  0  0  0
 86170  1  0  0  0
 86171  1  0  0  0
 87 88  1  0  0  0
 87172  1  0  0  0
 87173  1  0  0  0
M  ISO  4   1 100  68 101  78 100  87 101
M  END
> <chiral flag>
0

> <version>
0

> <s_m_source_file>
/data/baiqing/PycharmProjects/Reinvent-master-3.2/result/LINK_invent/BTK/process_docking_weight1_custom_product_contain_oxygen_bond_distance_aromatic_linkinvent_7_9_3/rearranged_h_0133.sdf

> <i_m_source_file_index>
94

> <r_mmod_Potential_Energy-OPLS-2005>
93.5241851806641

> <r_mmod_Stretch_Energy-OPLS-2005>
64.3889083862305

> <r_mmod_Bend_Energy-OPLS-2005>
163.107757568359

> <r_mmod_Torsional_Energy-OPLS-2005>
208.285919189453

> <r_mmod_Improper_Torsional_Energy-OPLS-2005>
4.49667024612427

> <r_mmod_Van_der_Waal_Energy-OPLS-2005>
175.984741210938

> <r_mmod_Electrostatic_Energy-OPLS-2005>
-365.195465087891

> <r_mmod_Solvation_Energy-OPLS-2005>
-178.200103759766

> <b_mmod_Minimization_Converged-OPLS-2005>
0

> <r_mmod_RMS_Derivative-OPLS-2005>
2.48746275901794

$$$$
94
                    3D
 Structure written by MMmdl.
166174  0  0  1  0            999 V2000
  -30.6553  -15.2373   21.5112 C   0  0  0  0  0  0
  -29.9988  -14.7351   17.5845 C   0  0  0  0  0  0
  -28.9673  -13.1777   17.0878 C   0  0  0  0  0  0
  -27.9692  -12.2101   18.3049 C   0  0  0  0  0  0
  -27.7006  -12.5799   20.0768 C   0  0  2  0  0  0
  -28.7756  -13.6093   21.1604 C   0  0  0  0  0  0
  -25.3322  -13.6420   20.7362 C   0  0  0  0  0  0
  -24.1850  -12.9586   20.9906 C   0  0  0  0  0  0
  -24.5702  -11.5929   20.9523 C   0  0  0  0  0  0
  -23.8230  -10.3764   21.0817 C   0  0  0  0  0  0
  -24.2982   -9.3735   21.9492 C   0  0  0  0  0  0
  -23.5840   -8.1757   22.0826 C   0  0  0  0  0  0
  -22.3890   -7.9918   21.3497 C   0  0  0  0  0  0
  -21.9441   -8.9863   20.4628 C   0  0  0  0  0  0
  -22.6632  -10.1801   20.3185 C   0  0  0  0  0  0
  -21.6646   -6.0546   22.5286 C   0  0  0  0  0  0
  -21.3829   -6.5527   23.8183 C   0  0  0  0  0  0
  -21.3582   -5.6740   24.9181 C   0  0  0  0  0  0
  -21.6037   -4.3003   24.7280 C   0  0  0  0  0  0
  -21.8853   -3.8062   23.4421 C   0  0  0  0  0  0
  -21.9147   -4.6824   22.3447 C   0  0  0  0  0  0
  -22.8008  -13.5075   21.1922 C   0  0  0  0  0  0
  -22.1672   -4.2038   21.1027 F   0  0  0  0  0  0
  -21.5656   -3.4513   25.7797 F   0  0  0  0  0  0
  -29.8569  -14.8937   20.5262 N   0  0  0  0  0  0
  -26.3439  -12.6418   20.6020 N   0  0  0  0  0  0
  -25.8487  -11.4275   20.7388 N   0  0  0  0  0  0
  -22.0165  -12.8442   22.0337 N   0  0  0  0  0  0
  -25.5391  -15.0021   20.5910 N   0  0  0  0  0  0
  -31.8650  -14.9687   21.5042 O   0  0  0  0  0  0
  -21.6307   -6.8580   21.4193 O   0  0  0  0  0  0
  -22.4185  -14.5466   20.6528 O   0  0  0  0  0  0
  -24.6901  -31.7953   23.1477 C   0  0  0  0  0  0
  -25.9461  -32.4454   23.8014 C   0  0  1  0  0  0
  -27.2618  -26.7566   20.0749 C   0  0  0  0  0  0
  -25.6019  -33.8271   24.1905 N   0  0  0  0  0  0
  -23.5153  -30.3997   21.5044 C   0  0  2  0  0  0
  -24.9659  -28.7433   20.1135 C   0  0  0  0  0  0
  -22.7798  -29.4322   22.4725 C   0  0  0  0  0  0
  -18.0368  -28.1468   22.8454 C   0  0  0  0  0  0
  -24.1500  -36.7155   23.2643 C   0  0  0  0  0  0
  -26.0993  -30.5364   21.4042 C   0  0  0  0  0  0
  -26.1683  -29.1093   20.7304 C   0  0  0  0  0  0
  -27.3035  -28.1417   20.6752 C   0  0  0  0  0  0
  -26.0028  -26.5767   19.4529 C   0  0  0  0  0  0
  -24.9175  -27.4966   19.4655 C   0  0  0  0  0  0
  -23.7631  -29.6923   20.1446 C   0  0  0  0  0  0
  -25.4152  -36.2887   24.0265 C   0  0  1  0  0  0
  -20.5996  -28.3815   23.1143 C   0  0  2  0  0  0
  -20.6838  -26.9473   22.5402 C   0  0  0  0  0  0
  -19.5805  -26.6399   21.5228 C   0  0  0  0  0  0
  -18.1995  -26.7997   22.1633 C   0  0  0  0  0  0
  -19.1631  -28.8966   23.2786 C   0  0  0  0  0  0
  -18.9529  -30.1558   23.8816 C   0  0  0  0  0  0
  -17.6514  -30.6628   24.0567 C   0  0  0  0  0  0
  -25.9133  -34.9273   23.4923 C   0  0  0  0  0  0
  -16.5407  -29.9105   23.6369 C   0  0  0  0  0  0
  -16.7349  -28.6552   23.0343 C   0  0  0  0  0  0
  -26.4615  -31.6512   25.0660 C   0  0  0  0  0  0
  -25.3633  -31.3841   26.1240 C   0  0  0  0  0  0
  -27.0564  -30.2848   24.6599 C   0  0  0  0  0  0
  -27.6071  -32.4379   25.7495 C   0  0  0  0  0  0
  -27.5573  -37.1721   24.8452 C   0  0  0  0  0  0
  -21.4447  -29.3051   22.3454 N   0  0  0  0  0  0
  -26.4269  -37.3660   23.9411 N   0  0  0  0  0  0
  -24.7933  -30.9401   22.0726 N   0  0  0  0  0  0
  -23.4232  -28.7910   23.3070 O   0  0  0  0  0  0
  -28.2801  -25.5928   19.9822 O   0  0  0  0  0  0
  -26.5778  -34.8880   22.4548 O   0  0  0  0  0  0
  -23.5915  -32.1021   23.6437 O   0  0  0  0  0  0
  -31.4540  -15.9708   19.0019 C   0  0  0  0  0  0
  -31.6015  -14.2146   19.1196 C   0  0  0  0  0  0
  -28.3395  -14.6074   18.9690 C   0  0  0  0  0  0
  -30.0787  -16.9854   18.9898 C   0  0  0  0  0  0
  -30.1320  -13.2285   19.1602 C   0  0  0  0  0  0
  -28.6451  -16.2512   18.9924 C   0  0  0  0  0  0
  -30.0430  -18.8334   18.9175 C   0  0  0  0  0  0
  -30.4515  -11.7250   19.3534 C   0  0  0  0  0  0
  -27.5541  -17.1339   19.5396 C   0  0  0  0  0  0
  -29.0539  -20.3604   19.4851 C   0  0  0  0  0  0
  -30.0528  -16.4328   22.2949 C   0  0  0  0  0  0
  -27.7466  -17.5326   21.0706 C   0  0  0  0  0  0
  -29.1302  -22.2742   19.3683 C   0  0  0  0  0  0
  -28.4853  -16.7050   22.2011 C   0  0  0  0  0  0
  -28.1505  -23.8516   19.8859 C   0  0  0  0  0  0
  -30.9739  -19.2724   18.1807 N   0  0  0  0  0  0
  -29.5820  -15.5473   16.9817 H   0  0  0  0  0  0
  -30.9284  -14.6451   16.9986 H   0  0  0  0  0  0
  -29.6084  -12.4887   16.5395 H   0  0  0  0  0  0
  -28.2584  -13.5242   16.3371 H   0  0  0  0  0  0
  -28.2865  -11.1679   18.2496 H   0  0  0  0  0  0
  -27.0088  -12.0836   17.7912 H   0  0  0  0  0  0
  -26.9646  -12.9695   19.4305 H   0  0  0  0  0  0
  -29.4246  -12.9015   21.6793 H   0  0  0  0  0  0
  -28.1568  -13.9388   21.9843 H   0  0  0  0  0  0
  -25.2058   -9.5252   22.5174 H   0  0  0  0  0  0
  -23.9579   -7.4093   22.7451 H   0  0  0  0  0  0
  -21.0439   -8.8313   19.8856 H   0  0  0  0  0  0
  -22.3157  -10.9423   19.6361 H   0  0  0  0  0  0
  -21.1719   -7.6029   23.9640 H   0  0  0  0  0  0
  -21.1390   -6.0491   25.9081 H   0  0  0  0  0  0
  -22.0733   -2.7539   23.2949 H   0  0  0  0  0  0
  -22.3374  -12.0067   22.4971 H   0  0  0  0  0  0
  -21.0814  -13.1815   22.2151 H   0  0  0  0  0  0
  -24.7770  -15.6675   20.6466 H   0  0  0  0  0  0
  -26.4515  -15.4269   20.4706 H   0  0  0  0  0  0
  -26.7533  -32.4924   23.0717 H   0  0  0  0  0  0
  -25.0041  -33.9282   24.9968 H   0  0  0  0  0  0
  -22.8440  -31.2391   21.3102 H   0  0  0  0  0  0
  -23.3795  -35.9449   23.3238 H   0  0  0  0  0  0
  -24.3552  -36.8903   22.2070 H   0  0  0  0  0  0
  -23.7226  -37.6294   23.6779 H   0  0  0  0  0  0
  -26.3110  -31.2770   20.6320 H   0  0  0  0  0  0
  -26.9437  -30.5827   22.0801 H   0  0  0  0  0  0
  -28.2295  -28.4393   21.1524 H   0  0  0  0  0  0
  -25.8377  -25.6437   18.9317 H   0  0  0  0  0  0
  -24.0040  -27.2112   18.9608 H   0  0  0  0  0  0
  -23.9384  -30.4443   19.3766 H   0  0  0  0  0  0
  -22.8690  -29.1571   19.8255 H   0  0  0  0  0  0
  -25.1360  -36.1613   25.0745 H   0  0  0  0  0  0
  -21.0091  -28.3457   24.1266 H   0  0  0  0  0  0
  -20.5752  -26.2433   23.3663 H   0  0  0  0  0  0
  -21.6692  -26.7441   22.1187 H   0  0  0  0  0  0
  -19.6947  -25.6284   21.1322 H   0  0  0  0  0  0
  -19.6762  -27.3152   20.6713 H   0  0  0  0  0  0
  -17.4264  -26.6755   21.4044 H   0  0  0  0  0  0
  -18.0388  -26.0172   22.9059 H   0  0  0  0  0  0
  -19.7987  -30.7431   24.2133 H   0  0  0  0  0  0
  -17.5043  -31.6288   24.5202 H   0  0  0  0  0  0
  -15.5399  -30.2961   23.7744 H   0  0  0  0  0  0
  -15.8772  -28.0850   22.7052 H   0  0  0  0  0  0
  -24.5835  -30.7218   25.7463 H   0  0  0  0  0  0
  -24.8815  -32.3079   26.4461 H   0  0  0  0  0  0
  -25.7740  -30.9067   27.0142 H   0  0  0  0  0  0
  -26.3276  -29.6458   24.1612 H   0  0  0  0  0  0
  -27.4010  -29.7327   25.5356 H   0  0  0  0  0  0
  -27.9257  -30.4010   24.0129 H   0  0  0  0  0  0
  -27.2612  -33.3747   26.1892 H   0  0  0  0  0  0
  -28.3977  -32.6841   25.0385 H   0  0  0  0  0  0
  -28.0643  -31.8612   26.5556 H   0  0  0  0  0  0
  -28.2512  -38.0094   24.7566 H   0  0  0  0  0  0
  -28.1153  -36.2617   24.6197 H   0  0  0  0  0  0
  -27.2297  -37.1248   25.8854 H   0  0  0  0  0  0
  -20.9788  -29.8668   21.6455 H   0  0  0  0  0  0
  -26.0095  -38.2700   24.1455 H   0  0  0  0  0  0
  -32.4040  -16.4861   18.9909 H   0  0  0  0  0  0
  -32.5746  -13.7481   19.1733 H   0  0  0  0  0  0
  -27.2949  -14.5651   18.7241 H   0  0  0  0  0  0
  -30.4637  -11.1738   18.4129 H   0  0  0  0  0  0
  -29.8216  -11.2028   20.0707 H   0  0  0  0  0  0
  -31.4620  -11.6469   19.7522 H   0  0  0  0  0  0
  -26.5937  -16.6888   19.3326 H   0  0  0  0  0  0
  -27.4758  -18.0202   18.9166 H   0  0  0  0  0  0
  -29.0222  -20.2611   20.5627 H   0  0  0  0  0  0
  -28.0397  -20.1439   19.1472 H   0  0  0  0  0  0
  -30.3066  -16.2442   23.3384 H   0  0  0  0  0  0
  -30.6002  -17.3360   22.0161 H   0  0  0  0  0  0
  -26.7448  -17.7501   21.4446 H   0  0  0  0  0  0
  -28.2236  -18.4924   21.1289 H   0  0  0  0  0  0
  -29.2543  -22.4068   18.2946 H   0  0  0  0  0  0
  -30.1201  -22.4728   19.7791 H   0  0  0  0  0  0
  -28.3083  -17.2938   23.1027 H   0  0  0  0  0  0
  -27.8918  -15.8326   22.4207 H   0  0  0  0  0  0
  -27.9526  -23.6423   20.9392 H   0  0  0  0  0  0
  -27.1677  -23.7131   19.4383 H   0  0  0  0  0  0
  -31.5111  -18.5232   17.7602 H   0  0  0  0  0  0
  1 25  1  0  0  0
  1 30  2  0  0  0
  1 81  1  0  0  0
  2  3  1  0  0  0
  2 25  1  0  0  0
  2 87  1  0  0  0
  2 88  1  0  0  0
  3  4  1  0  0  0
  3 89  1  0  0  0
  3 90  1  0  0  0
  4  5  1  0  0  0
  4 91  1  0  0  0
  4 92  1  0  0  0
  5  6  1  0  0  0
  5 26  1  0  0  0
  5 93  1  0  0  0
  6 25  1  0  0  0
  6 94  1  0  0  0
  6 95  1  0  0  0
  7  8  2  0  0  0
  7 26  1  0  0  0
  7 29  1  0  0  0
  8  9  1  0  0  0
  8 22  1  0  0  0
  9 10  1  0  0  0
  9 27  2  0  0  0
 10 11  2  0  0  0
 10 15  1  0  0  0
 11 12  1  0  0  0
 11 96  1  0  0  0
 12 13  2  0  0  0
 12 97  1  0  0  0
 13 14  1  0  0  0
 13 31  1  0  0  0
 14 15  2  0  0  0
 14 98  1  0  0  0
 15 99  1  0  0  0
 16 17  2  0  0  0
 16 21  1  0  0  0
 16 31  1  0  0  0
 17 18  1  0  0  0
 17100  1  0  0  0
 18 19  2  0  0  0
 18101  1  0  0  0
 19 20  1  0  0  0
 19 24  1  0  0  0
 20 21  2  0  0  0
 20102  1  0  0  0
 21 23  1  0  0  0
 22 28  1  0  0  0
 22 32  2  0  0  0
 26 27  1  0  0  0
 28103  1  0  0  0
 28104  1  0  0  0
 29105  1  0  0  0
 29106  1  0  0  0
 33 34  1  0  0  0
 33 66  1  0  0  0
 33 70  2  0  0  0
 34 36  1  0  0  0
 34 59  1  0  0  0
 34107  1  0  0  0
 35 44  2  0  0  0
 35 45  1  0  0  0
 35 68  1  0  0  0
 36 56  1  0  0  0
 36108  1  0  0  0
 37 39  1  0  0  0
 37 47  1  0  0  0
 37 66  1  0  0  0
 37109  1  0  0  0
 38 43  2  0  0  0
 38 46  1  0  0  0
 38 47  1  0  0  0
 39 64  1  0  0  0
 39 67  2  0  0  0
 40 52  1  0  0  0
 40 53  2  0  0  0
 40 58  1  0  0  0
 41110  1  0  0  0
 41111  1  0  0  0
 41112  1  0  0  0
 41 48  1  0  0  0
 42 43  1  0  0  0
 42 66  1  0  0  0
 42113  1  0  0  0
 42114  1  0  0  0
 43 44  1  0  0  0
 44115  1  0  0  0
 45 46  2  0  0  0
 45116  1  0  0  0
 46117  1  0  0  0
 47118  1  0  0  0
 47119  1  0  0  0
 48 56  1  0  0  0
 48 65  1  0  0  0
 48120  1  0  0  0
 49 50  1  0  0  0
 49 53  1  0  0  0
 49 64  1  0  0  0
 49121  1  0  0  0
 50 51  1  0  0  0
 50122  1  0  0  0
 50123  1  0  0  0
 51 52  1  0  0  0
 51124  1  0  0  0
 51125  1  0  0  0
 52126  1  0  0  0
 52127  1  0  0  0
 53 54  1  0  0  0
 54 55  2  0  0  0
 54128  1  0  0  0
 55 57  1  0  0  0
 55129  1  0  0  0
 56 69  2  0  0  0
 57 58  2  0  0  0
 57130  1  0  0  0
 58131  1  0  0  0
 59 60  1  0  0  0
 59 61  1  0  0  0
 59 62  1  0  0  0
 60132  1  0  0  0
 60133  1  0  0  0
 60134  1  0  0  0
 61135  1  0  0  0
 61136  1  0  0  0
 61137  1  0  0  0
 62138  1  0  0  0
 62139  1  0  0  0
 62140  1  0  0  0
 63 65  1  0  0  0
 63141  1  0  0  0
 63142  1  0  0  0
 63143  1  0  0  0
 64144  1  0  0  0
 65145  1  0  0  0
 68 85  1  0  0  0
 71 72  2  0  0  0
 71 74  1  0  0  0
 71146  1  0  0  0
 72 75  1  0  0  0
 72147  1  0  0  0
 73 75  2  0  0  0
 73 76  1  0  0  0
 73148  1  0  0  0
 74 76  2  0  0  0
 74 77  1  0  0  0
 75 78  1  0  0  0
 76 79  1  0  0  0
 77 80  1  0  0  0
 77 86  2  0  0  0
 78149  1  0  0  0
 78150  1  0  0  0
 78151  1  0  0  0
 79 82  1  0  0  0
 79152  1  0  0  0
 79153  1  0  0  0
 80 83  1  0  0  0
 80154  1  0  0  0
 80155  1  0  0  0
 81 84  1  0  0  0
 81156  1  0  0  0
 81157  1  0  0  0
 82 84  1  0  0  0
 82158  1  0  0  0
 82159  1  0  0  0
 83 85  1  0  0  0
 83160  1  0  0  0
 83161  1  0  0  0
 84162  1  0  0  0
 84163  1  0  0  0
 85164  1  0  0  0
 85165  1  0  0  0
 86166  1  0  0  0
M  ISO  4   1 100  68 101  81 100  85 101
M  END
> <chiral flag>
0

> <version>
0

> <s_m_source_file>
/data/baiqing/PycharmProjects/Reinvent-master-3.2/result/LINK_invent/BTK/process_docking_weight1_custom_product_contain_oxygen_bond_distance_aromatic_linkinvent_7_9_3/rearranged_h_0133.sdf

> <i_m_source_file_index>
95

> <r_mmod_Potential_Energy-OPLS-2005>
13668.5478515625

> <r_mmod_Stretch_Energy-OPLS-2005>
7327.9384765625

> <r_mmod_Bend_Energy-OPLS-2005>
1072.09887695312

> <r_mmod_Torsional_Energy-OPLS-2005>
332.385375976562

> <r_mmod_Improper_Torsional_Energy-OPLS-2005>
22.9234008789062

> <r_mmod_Van_der_Waal_Energy-OPLS-2005>
3151.41357421875

> <r_mmod_Electrostatic_Energy-OPLS-2005>
-320.865661621094

> <r_mmod_Solvation_Energy-OPLS-2005>
-185.732482910156

> <b_mmod_Minimization_Converged-OPLS-2005>
0

> <r_mmod_RMS_Derivative-OPLS-2005>
11.7740526199341

$$$$
