0
                    3D
 Structure written by MMmdl.
154162  0  0  1  0            999 V2000
  -30.6885  -14.5313   20.4802 C   0  0  0  0  0  0
  -30.4193  -12.3241   19.4238 C   0  0  0  0  0  0
  -29.4815  -12.4930   18.2029 C   0  0  0  0  0  0
  -28.0068  -12.3662   18.6212 C   0  0  0  0  0  0
  -27.6459  -13.2296   19.8540 C   0  0  2  0  0  0
  -28.6999  -13.0784   20.9757 C   0  0  0  0  0  0
  -25.2512  -13.8194   20.5595 C   0  0  0  0  0  0
  -24.1794  -13.0496   20.9102 C   0  0  0  0  0  0
  -24.6398  -11.6955   20.8662 C   0  0  0  0  0  0
  -23.9136  -10.4299   21.0364 C   0  0  0  0  0  0
  -24.3705   -9.4209   21.9123 C   0  0  0  0  0  0
  -23.6356   -8.2220   22.0664 C   0  0  0  0  0  0
  -22.4323   -8.0282   21.3430 C   0  0  0  0  0  0
  -21.9962   -9.0327   20.4551 C   0  0  0  0  0  0
  -22.7333  -10.2223   20.2989 C   0  0  0  0  0  0
  -21.6858   -6.0774   22.5214 C   0  0  0  0  0  0
  -21.4096   -6.5634   23.8161 C   0  0  0  0  0  0
  -21.3700   -5.6771   24.9100 C   0  0  0  0  0  0
  -21.6121   -4.3024   24.7151 C   0  0  0  0  0  0
  -21.8865   -3.8133   23.4254 C   0  0  0  0  0  0
  -21.9201   -4.6984   22.3307 C   0  0  0  0  0  0
  -22.7834  -13.5214   21.1886 C   0  0  0  0  0  0
  -22.1672   -4.2230   21.0877 F   0  0  0  0  0  0
  -21.5631   -3.4474   25.7634 F   0  0  0  0  0  0
  -30.0224  -13.3475   20.3958 N   0  0  0  0  0  0
  -26.3004  -12.9456   20.3351 N   0  0  0  0  0  0
  -25.9319  -11.6607   20.5701 N   0  0  0  0  0  0
  -22.0622  -12.8149   22.0465 N   0  0  0  0  0  0
  -25.4144  -15.1925   20.3944 N   0  0  0  0  0  0
  -31.8628  -14.6675   20.1373 O   0  0  0  0  0  0
  -21.6566   -6.8938   21.4181 O   0  0  0  0  0  0
  -22.3389  -14.5469   20.6761 O   0  0  0  0  0  0
  -24.6251  -31.8643   23.2016 C   0  0  0  0  0  0
  -25.9110  -32.4793   23.8341 C   0  0  1  0  0  0
  -27.2403  -27.3687   20.1227 C   0  0  0  0  0  0
  -25.5925  -33.8575   24.2275 N   0  0  0  0  0  0
  -23.4179  -30.4785   21.5387 C   0  0  2  0  0  0
  -24.8707  -28.9362   20.1177 C   0  0  0  0  0  0
  -22.7453  -29.4643   22.4930 C   0  0  0  0  0  0
  -18.0279  -28.1400   22.8466 C   0  0  0  0  0  0
  -24.1493  -36.7315   23.2638 C   0  0  0  0  0  0
  -25.9534  -30.8051   21.3685 C   0  0  0  0  0  0
  -26.0350  -29.4354   20.7190 C   0  0  0  0  0  0
  -27.2253  -28.6601   20.7137 C   0  0  0  0  0  0
  -26.0594  -26.9014   19.5076 C   0  0  0  0  0  0
  -24.8857  -27.6731   19.4996 C   0  0  0  0  0  0
  -23.6356  -29.8107   20.1552 C   0  0  0  0  0  0
  -25.4114  -36.3103   24.0339 C   0  0  1  0  0  0
  -20.5873  -28.3720   23.1285 C   0  0  2  0  0  0
  -20.6761  -26.9437   22.5414 C   0  0  0  0  0  0
  -19.5753  -26.6388   21.5198 C   0  0  0  0  0  0
  -18.1936  -26.7932   22.1596 C   0  0  0  0  0  0
  -19.1528  -28.8873   23.2870 C   0  0  0  0  0  0
  -18.9449  -30.1463   23.8900 C   0  0  0  0  0  0
  -17.6453  -30.6599   24.0566 C   0  0  0  0  0  0
  -25.9052  -34.9471   23.5121 C   0  0  0  0  0  0
  -16.5347  -29.9106   23.6326 C   0  0  0  0  0  0
  -16.7259  -28.6526   23.0339 C   0  0  0  0  0  0
  -26.4500  -31.6580   25.0692 C   0  0  0  0  0  0
  -25.3684  -31.3748   26.1364 C   0  0  0  0  0  0
  -27.0380  -30.3003   24.6186 C   0  0  0  0  0  0
  -27.6082  -32.4295   25.7467 C   0  0  0  0  0  0
  -27.5578  -37.1819   24.8455 C   0  0  0  0  0  0
  -21.4176  -29.3063   22.3650 N   0  0  0  0  0  0
  -26.4286  -37.3786   23.9407 N   0  0  0  0  0  0
  -24.6831  -31.0653   22.0958 N   0  0  0  0  0  0
  -23.4184  -28.8167   23.2987 O   0  0  0  0  0  0
  -28.3710  -26.5596   20.1383 O   0  0  0  0  0  0
  -26.5613  -34.8942   22.4678 O   0  0  0  0  0  0
  -23.5410  -32.1421   23.7330 O   0  0  0  0  0  0
  -27.7392  -20.3004   21.7319 C   0  0  0  0  0  0
  -27.2864  -19.1375   22.3844 C   0  0  0  0  0  0
  -29.6812  -19.0541   20.9329 C   0  0  0  0  0  0
  -28.9340  -20.2754   20.9751 C   0  0  0  0  0  0
  -29.2393  -17.8736   21.6135 C   0  0  0  0  0  0
  -28.0113  -17.9283   22.3207 C   0  0  0  0  0  0
  -28.8855  -24.0500   20.0529 C   0  0  0  0  0  0
  -29.3877  -21.5420   20.1980 C   0  0  0  0  0  0
  -30.1196  -16.6036   21.6624 C   0  0  0  0  0  0
  -28.1909  -25.2551   20.7714 C   0  0  0  0  0  0
  -28.8546  -22.8428   20.6766 N   0  0  0  0  0  0
  -29.9102  -15.6227   20.5892 N   0  0  0  0  0  0
  -29.4168  -24.1991   18.9530 O   0  0  0  0  0  0
  -27.3581  -16.5373   23.1161 Cl  0  0  0  0  0  0
  -31.4725  -12.4006   19.1444 H   0  0  0  0  0  0
  -30.2948  -11.3468   19.8781 H   0  0  0  0  0  0
  -29.7087  -11.7523   17.4347 H   0  0  0  0  0  0
  -29.6559  -13.4651   17.7411 H   0  0  0  0  0  0
  -27.8087  -11.3149   18.8381 H   0  0  0  0  0  0
  -27.3624  -12.6388   17.7874 H   0  0  0  0  0  0
  -27.6499  -14.2636   19.5111 H   0  0  0  0  0  0
  -28.6794  -12.0766   21.4000 H   0  0  0  0  0  0
  -28.4798  -13.7667   21.7978 H   0  0  0  0  0  0
  -25.2861   -9.5821   22.4703 H   0  0  0  0  0  0
  -24.0073   -7.4532   22.7308 H   0  0  0  0  0  0
  -21.0965   -8.8885   19.8753 H   0  0  0  0  0  0
  -22.3845  -10.9899   19.6174 H   0  0  0  0  0  0
  -21.2132   -7.6131   23.9752 H   0  0  0  0  0  0
  -21.1453   -6.0404   25.9025 H   0  0  0  0  0  0
  -22.0596   -2.7575   23.2688 H   0  0  0  0  0  0
  -22.4410  -11.9955   22.4978 H   0  0  0  0  0  0
  -21.1146  -13.1016   22.2579 H   0  0  0  0  0  0
  -24.6590  -15.8700   20.4675 H   0  0  0  0  0  0
  -26.2996  -15.6116   20.1544 H   0  0  0  0  0  0
  -26.7174  -32.5493   23.1079 H   0  0  0  0  0  0
  -25.0058  -33.9716   25.0405 H   0  0  0  0  0  0
  -22.7153  -31.3007   21.3934 H   0  0  0  0  0  0
  -23.3752  -35.9647   23.3318 H   0  0  0  0  0  0
  -24.3565  -36.8909   22.2048 H   0  0  0  0  0  0
  -23.7266  -37.6534   23.6634 H   0  0  0  0  0  0
  -26.0786  -31.5611   20.5947 H   0  0  0  0  0  0
  -26.8344  -30.8577   21.9935 H   0  0  0  0  0  0
  -28.1164  -29.0384   21.1928 H   0  0  0  0  0  0
  -26.0474  -25.9257   19.0429 H   0  0  0  0  0  0
  -23.9972  -27.2872   19.0210 H   0  0  0  0  0  0
  -23.7587  -30.5865   19.3985 H   0  0  0  0  0  0
  -22.7590  -29.2358   19.8527 H   0  0  0  0  0  0
  -25.1299  -36.1962   25.0830 H   0  0  0  0  0  0
  -20.9950  -28.3296   24.1406 H   0  0  0  0  0  0
  -20.5675  -26.2330   23.3612 H   0  0  0  0  0  0
  -21.6647  -26.7472   22.1218 H   0  0  0  0  0  0
  -19.6940  -25.6302   21.1253 H   0  0  0  0  0  0
  -19.6706  -27.3179   20.6728 H   0  0  0  0  0  0
  -17.4205  -26.6660   21.4006 H   0  0  0  0  0  0
  -18.0342  -26.0083   22.9016 H   0  0  0  0  0  0
  -19.7940  -30.7258   24.2269 H   0  0  0  0  0  0
  -17.5034  -31.6273   24.5191 H   0  0  0  0  0  0
  -15.5367  -30.3024   23.7657 H   0  0  0  0  0  0
  -15.8645  -28.0859   22.7052 H   0  0  0  0  0  0
  -24.5874  -30.7101   25.7635 H   0  0  0  0  0  0
  -24.8838  -32.2934   26.4697 H   0  0  0  0  0  0
  -25.7917  -30.8950   27.0188 H   0  0  0  0  0  0
  -26.2993  -29.6703   24.1208 H   0  0  0  0  0  0
  -27.4075  -29.7313   25.4736 H   0  0  0  0  0  0
  -27.8853  -30.4294   23.9440 H   0  0  0  0  0  0
  -27.2732  -33.3610   26.2030 H   0  0  0  0  0  0
  -28.3898  -32.6796   25.0285 H   0  0  0  0  0  0
  -28.0720  -31.8394   26.5374 H   0  0  0  0  0  0
  -28.2609  -38.0109   24.7500 H   0  0  0  0  0  0
  -28.1080  -36.2647   24.6295 H   0  0  0  0  0  0
  -27.2292  -37.1477   25.8855 H   0  0  0  0  0  0
  -20.9339  -29.8808   21.6875 H   0  0  0  0  0  0
  -26.0200  -38.2874   24.1361 H   0  0  0  0  0  0
  -27.1528  -21.2066   21.8231 H   0  0  0  0  0  0
  -26.3633  -19.1592   22.9464 H   0  0  0  0  0  0
  -30.6281  -19.0359   20.3967 H   0  0  0  0  0  0
  -29.1219  -21.3986   19.1497 H   0  0  0  0  0  0
  -30.4742  -21.5846   20.2213 H   0  0  0  0  0  0
  -29.9776  -16.1022   22.6188 H   0  0  0  0  0  0
  -31.1627  -16.9264   21.6613 H   0  0  0  0  0  0
  -28.5897  -25.3195   21.7863 H   0  0  0  0  0  0
  -27.1399  -24.9917   20.8978 H   0  0  0  0  0  0
  -28.4449  -22.8516   21.5982 H   0  0  0  0  0  0
  -29.8908  -16.0975   19.6962 H   0  0  0  0  0  0
  1 25  1  0  0  0
  1 30  2  0  0  0
  1 82  1  0  0  0
  2  3  1  0  0  0
  2 25  1  0  0  0
  2 85  1  0  0  0
  2 86  1  0  0  0
  3  4  1  0  0  0
  3 87  1  0  0  0
  3 88  1  0  0  0
  4  5  1  0  0  0
  4 89  1  0  0  0
  4 90  1  0  0  0
  5  6  1  0  0  0
  5 26  1  0  0  0
  5 91  1  0  0  0
  6 25  1  0  0  0
  6 92  1  0  0  0
  6 93  1  0  0  0
  7  8  2  0  0  0
  7 26  1  0  0  0
  7 29  1  0  0  0
  8  9  1  0  0  0
  8 22  1  0  0  0
  9 10  1  0  0  0
  9 27  2  0  0  0
 10 11  2  0  0  0
 10 15  1  0  0  0
 11 12  1  0  0  0
 11 94  1  0  0  0
 12 13  2  0  0  0
 12 95  1  0  0  0
 13 14  1  0  0  0
 13 31  1  0  0  0
 14 15  2  0  0  0
 14 96  1  0  0  0
 15 97  1  0  0  0
 16 17  2  0  0  0
 16 21  1  0  0  0
 16 31  1  0  0  0
 17 18  1  0  0  0
 17 98  1  0  0  0
 18 19  2  0  0  0
 18 99  1  0  0  0
 19 20  1  0  0  0
 19 24  1  0  0  0
 20 21  2  0  0  0
 20100  1  0  0  0
 21 23  1  0  0  0
 22 28  1  0  0  0
 22 32  2  0  0  0
 26 27  1  0  0  0
 28101  1  0  0  0
 28102  1  0  0  0
 29103  1  0  0  0
 29104  1  0  0  0
 33 34  1  0  0  0
 33 66  1  0  0  0
 33 70  2  0  0  0
 34 36  1  0  0  0
 34 59  1  0  0  0
 34105  1  0  0  0
 35 44  2  0  0  0
 35 45  1  0  0  0
 35 68  1  0  0  0
 36 56  1  0  0  0
 36106  1  0  0  0
 37 39  1  0  0  0
 37 47  1  0  0  0
 37 66  1  0  0  0
 37107  1  0  0  0
 38 43  2  0  0  0
 38 46  1  0  0  0
 38 47  1  0  0  0
 39 64  1  0  0  0
 39 67  2  0  0  0
 40 52  1  0  0  0
 40 53  2  0  0  0
 40 58  1  0  0  0
 41108  1  0  0  0
 41109  1  0  0  0
 41110  1  0  0  0
 41 48  1  0  0  0
 42 43  1  0  0  0
 42 66  1  0  0  0
 42111  1  0  0  0
 42112  1  0  0  0
 43 44  1  0  0  0
 44113  1  0  0  0
 45 46  2  0  0  0
 45114  1  0  0  0
 46115  1  0  0  0
 47116  1  0  0  0
 47117  1  0  0  0
 48 56  1  0  0  0
 48 65  1  0  0  0
 48118  1  0  0  0
 49 50  1  0  0  0
 49 53  1  0  0  0
 49 64  1  0  0  0
 49119  1  0  0  0
 50 51  1  0  0  0
 50120  1  0  0  0
 50121  1  0  0  0
 51 52  1  0  0  0
 51122  1  0  0  0
 51123  1  0  0  0
 52124  1  0  0  0
 52125  1  0  0  0
 53 54  1  0  0  0
 54 55  2  0  0  0
 54126  1  0  0  0
 55 57  1  0  0  0
 55127  1  0  0  0
 56 69  2  0  0  0
 57 58  2  0  0  0
 57128  1  0  0  0
 58129  1  0  0  0
 59 60  1  0  0  0
 59 61  1  0  0  0
 59 62  1  0  0  0
 60130  1  0  0  0
 60131  1  0  0  0
 60132  1  0  0  0
 61133  1  0  0  0
 61134  1  0  0  0
 61135  1  0  0  0
 62136  1  0  0  0
 62137  1  0  0  0
 62138  1  0  0  0
 63 65  1  0  0  0
 63139  1  0  0  0
 63140  1  0  0  0
 63141  1  0  0  0
 64142  1  0  0  0
 65143  1  0  0  0
 68 80  1  0  0  0
 71 72  2  0  0  0
 71 74  1  0  0  0
 71144  1  0  0  0
 72 76  1  0  0  0
 72145  1  0  0  0
 73 74  2  0  0  0
 73 75  1  0  0  0
 73146  1  0  0  0
 74 78  1  0  0  0
 75 76  2  0  0  0
 75 79  1  0  0  0
 76 84  1  0  0  0
 77 80  1  0  0  0
 77 81  1  0  0  0
 77 83  2  0  0  0
 78 81  1  0  0  0
 78147  1  0  0  0
 78148  1  0  0  0
 79 82  1  0  0  0
 79149  1  0  0  0
 79150  1  0  0  0
 80151  1  0  0  0
 80152  1  0  0  0
 81153  1  0  0  0
 82154  1  0  0  0
M  ISO  4   1 100  68 101  80 101  82 100
M  END
> <chiral flag>
0

> <version>
0

> <s_m_source_file>
/data/baiqing/PycharmProjects/Reinvent-master-3.2/result/LINK_invent/BTK/process_docking_weight1_custom_product_contain_oxygen_bond_distance_aromatic_linkinvent_7_9_3/rearranged_h_0052.sdf

> <i_m_source_file_index>
1

> <r_mmod_Potential_Energy-OPLS-2005>
-42.1426162719727

> <r_mmod_Stretch_Energy-OPLS-2005>
52.3514289855957

> <r_mmod_Bend_Energy-OPLS-2005>
106.488388061523

> <r_mmod_Torsional_Energy-OPLS-2005>
291.782867431641

> <r_mmod_Improper_Torsional_Energy-OPLS-2005>
15.2074031829834

> <r_mmod_Van_der_Waal_Energy-OPLS-2005>
137.412612915039

> <r_mmod_Electrostatic_Energy-OPLS-2005>
-438.147186279297

> <r_mmod_Solvation_Energy-OPLS-2005>
-237.012496948242

> <b_mmod_Minimization_Converged-OPLS-2005>
0

> <r_mmod_RMS_Derivative-OPLS-2005>
11.544056892395

$$$$
1
                    3D
 Structure written by MMmdl.
165173  0  0  1  0            999 V2000
  -30.7359  -14.6627   20.5623 C   0  0  0  0  0  0
  -30.4218  -12.4299   19.4829 C   0  0  0  0  0  0
  -29.5125  -12.5250   18.2416 C   0  0  0  0  0  0
  -28.0367  -12.3596   18.6479 C   0  0  0  0  0  0
  -27.6516  -13.2448   19.8651 C   0  0  2  0  0  0
  -28.6996  -13.1783   21.0056 C   0  0  0  0  0  0
  -25.2541  -13.8215   20.5719 C   0  0  0  0  0  0
  -24.1850  -13.0441   20.9215 C   0  0  0  0  0  0
  -24.6469  -11.6933   20.8766 C   0  0  0  0  0  0
  -23.9138  -10.4299   21.0427 C   0  0  0  0  0  0
  -24.3674   -9.4188   21.9200 C   0  0  0  0  0  0
  -23.6321   -8.2221   22.0757 C   0  0  0  0  0  0
  -22.4290   -8.0279   21.3545 C   0  0  0  0  0  0
  -21.9952   -9.0274   20.4654 C   0  0  0  0  0  0
  -22.7309  -10.2148   20.3071 C   0  0  0  0  0  0
  -21.6839   -6.0770   22.5305 C   0  0  0  0  0  0
  -21.4007   -6.5660   23.8253 C   0  0  0  0  0  0
  -21.3655   -5.6788   24.9207 C   0  0  0  0  0  0
  -21.6052   -4.3052   24.7227 C   0  0  0  0  0  0
  -21.8804   -3.8164   23.4331 C   0  0  0  0  0  0
  -21.9168   -4.7001   22.3406 C   0  0  0  0  0  0
  -22.7854  -13.5218   21.1818 C   0  0  0  0  0  0
  -22.1631   -4.2187   21.0987 F   0  0  0  0  0  0
  -21.5624   -3.4539   25.7739 F   0  0  0  0  0  0
  -30.0156  -13.4942   20.4323 N   0  0  0  0  0  0
  -26.3006  -12.9464   20.3368 N   0  0  0  0  0  0
  -25.9423  -11.6588   20.5821 N   0  0  0  0  0  0
  -22.0433  -12.8277   22.0375 N   0  0  0  0  0  0
  -25.4158  -15.1944   20.4133 N   0  0  0  0  0  0
  -31.8552  -14.7399   20.0502 O   0  0  0  0  0  0
  -21.6607   -6.8910   21.4264 O   0  0  0  0  0  0
  -22.3554  -14.5505   20.6617 O   0  0  0  0  0  0
  -24.6323  -31.8562   23.1969 C   0  0  0  0  0  0
  -25.9157  -32.4765   23.8319 C   0  0  1  0  0  0
  -27.2205  -27.2911   20.1288 C   0  0  0  0  0  0
  -25.5952  -33.8558   24.2246 N   0  0  0  0  0  0
  -23.4254  -30.4844   21.5340 C   0  0  2  0  0  0
  -24.8695  -28.9254   20.1144 C   0  0  0  0  0  0
  -22.7465  -29.4661   22.4840 C   0  0  0  0  0  0
  -18.0301  -28.1394   22.8499 C   0  0  0  0  0  0
  -24.1475  -36.7286   23.2635 C   0  0  0  0  0  0
  -25.9660  -30.7906   21.3560 C   0  0  0  0  0  0
  -26.0428  -29.4095   20.7097 C   0  0  0  0  0  0
  -27.2245  -28.6051   20.6978 C   0  0  0  0  0  0
  -26.0259  -26.8636   19.5182 C   0  0  0  0  0  0
  -24.8633  -27.6595   19.5103 C   0  0  0  0  0  0
  -23.6422  -29.8135   20.1528 C   0  0  0  0  0  0
  -25.4088  -36.3032   24.0315 C   0  0  1  0  0  0
  -20.5900  -28.3716   23.1276 C   0  0  2  0  0  0
  -20.6762  -26.9428   22.5396 C   0  0  0  0  0  0
  -19.5725  -26.6403   21.5205 C   0  0  0  0  0  0
  -18.1926  -26.7944   22.1640 C   0  0  0  0  0  0
  -19.1555  -28.8860   23.2916 C   0  0  0  0  0  0
  -18.9464  -30.1440   23.8962 C   0  0  0  0  0  0
  -17.6467  -30.6605   24.0566 C   0  0  0  0  0  0
  -25.9005  -34.9433   23.5064 C   0  0  0  0  0  0
  -16.5360  -29.9105   23.6316 C   0  0  0  0  0  0
  -16.7293  -28.6511   23.0382 C   0  0  0  0  0  0
  -26.4520  -31.6596   25.0714 C   0  0  0  0  0  0
  -25.3779  -31.3813   26.1469 C   0  0  0  0  0  0
  -27.0328  -30.3002   24.6166 C   0  0  0  0  0  0
  -27.6033  -32.4357   25.7554 C   0  0  0  0  0  0
  -27.5543  -37.1789   24.8457 C   0  0  0  0  0  0
  -21.4158  -29.3119   22.3641 N   0  0  0  0  0  0
  -26.4252  -37.3742   23.9427 N   0  0  0  0  0  0
  -24.6955  -31.0588   22.0897 N   0  0  0  0  0  0
  -23.4184  -28.8191   23.2920 O   0  0  0  0  0  0
  -28.3446  -26.4478   20.1145 O   0  0  0  0  0  0
  -26.5574  -34.8915   22.4610 O   0  0  0  0  0  0
  -23.5493  -32.1357   23.7307 O   0  0  0  0  0  0
  -32.6603  -19.1191   22.5176 C   0  0  0  0  0  0
  -32.9791  -17.7910   22.8022 C   0  0  0  0  0  0
  -31.4419  -19.3966   21.8961 C   0  0  0  0  0  0
  -32.1146  -16.7419   22.4285 C   0  0  0  0  0  0
  -30.5581  -18.3815   21.4510 C   0  0  0  0  0  0
  -30.9271  -16.9708   21.6449 C   0  0  0  0  0  0
  -29.2990  -21.3786   19.4719 C   0  0  0  0  0  0
  -32.5158  -15.3817   22.9824 C   0  0  0  0  0  0
  -29.7393  -21.7255   18.0712 C   0  0  0  0  0  0
  -26.9250  -23.5155   18.9989 C   0  0  0  0  0  0
  -29.2672  -19.0163   20.8499 C   0  0  0  0  0  0
  -28.2702  -25.0476   20.6366 C   0  0  0  0  0  0
  -28.2883  -23.7570   19.6757 C   0  0  1  0  0  0
  -30.1876  -15.7808   21.1660 N   0  0  0  0  0  0
  -28.7467  -22.4004   20.2317 N   0  0  0  0  0  0
  -29.5023  -20.0388   19.7626 N   0  3  0  0  0  0
  -31.4663  -12.5063   19.1820 H   0  0  0  0  0  0
  -30.3223  -11.4513   19.9546 H   0  0  0  0  0  0
  -29.7924  -11.7666   17.5089 H   0  0  0  0  0  0
  -29.6583  -13.4874   17.7515 H   0  0  0  0  0  0
  -27.8772  -11.3091   18.8874 H   0  0  0  0  0  0
  -27.3872  -12.5746   17.7968 H   0  0  0  0  0  0
  -27.6493  -14.2714   19.4953 H   0  0  0  0  0  0
  -28.7216  -12.1902   21.4667 H   0  0  0  0  0  0
  -28.4427  -13.8826   21.7976 H   0  0  0  0  0  0
  -25.2816   -9.5629   22.4788 H   0  0  0  0  0  0
  -23.9998   -7.4605   22.7489 H   0  0  0  0  0  0
  -21.0856   -8.8843   19.8977 H   0  0  0  0  0  0
  -22.3779  -10.9710   19.6182 H   0  0  0  0  0  0
  -21.2011   -7.6175   23.9782 H   0  0  0  0  0  0
  -21.1490   -6.0522   25.9128 H   0  0  0  0  0  0
  -22.0579   -2.7626   23.2834 H   0  0  0  0  0  0
  -22.3989  -12.0001   22.4924 H   0  0  0  0  0  0
  -21.1050  -13.1385   22.2468 H   0  0  0  0  0  0
  -24.6344  -15.8333   20.5100 H   0  0  0  0  0  0
  -26.2572  -15.6414   20.0745 H   0  0  0  0  0  0
  -26.7253  -32.5415   23.1095 H   0  0  0  0  0  0
  -25.0144  -33.9704   25.0424 H   0  0  0  0  0  0
  -22.7254  -31.3085   21.3809 H   0  0  0  0  0  0
  -23.3700  -35.9648   23.3290 H   0  0  0  0  0  0
  -24.3578  -36.8917   22.2047 H   0  0  0  0  0  0
  -23.7284  -37.6511   23.6666 H   0  0  0  0  0  0
  -26.0688  -31.5511   20.5793 H   0  0  0  0  0  0
  -26.8588  -30.8655   21.9650 H   0  0  0  0  0  0
  -28.1323  -28.9738   21.1536 H   0  0  0  0  0  0
  -25.9738  -25.9074   19.0306 H   0  0  0  0  0  0
  -23.9638  -27.2856   19.0426 H   0  0  0  0  0  0
  -23.7661  -30.5842   19.3920 H   0  0  0  0  0  0
  -22.7636  -29.2434   19.8492 H   0  0  0  0  0  0
  -25.1264  -36.1826   25.0808 H   0  0  0  0  0  0
  -21.0051  -28.3289   24.1378 H   0  0  0  0  0  0
  -20.5612  -26.2328   23.3606 H   0  0  0  0  0  0
  -21.6632  -26.7400   22.1212 H   0  0  0  0  0  0
  -19.6853  -25.6311   21.1246 H   0  0  0  0  0  0
  -19.6662  -27.3209   20.6737 H   0  0  0  0  0  0
  -17.4169  -26.6742   21.4073 H   0  0  0  0  0  0
  -18.0313  -26.0084   22.9031 H   0  0  0  0  0  0
  -19.7942  -30.7237   24.2389 H   0  0  0  0  0  0
  -17.5028  -31.6293   24.5150 H   0  0  0  0  0  0
  -15.5364  -30.3042   23.7577 H   0  0  0  0  0  0
  -15.8695  -28.0827   22.7100 H   0  0  0  0  0  0
  -24.5902  -30.7180   25.7895 H   0  0  0  0  0  0
  -24.9048  -32.3022   26.4880 H   0  0  0  0  0  0
  -25.8147  -30.9050   27.0246 H   0  0  0  0  0  0
  -26.2900  -29.6826   24.1096 H   0  0  0  0  0  0
  -27.3900  -29.7205   25.4688 H   0  0  0  0  0  0
  -27.8819  -30.4289   23.9452 H   0  0  0  0  0  0
  -27.2547  -33.3612   26.2163 H   0  0  0  0  0  0
  -28.3875  -32.7007   25.0452 H   0  0  0  0  0  0
  -28.0648  -31.8465   26.5488 H   0  0  0  0  0  0
  -28.2516  -38.0109   24.7432 H   0  0  0  0  0  0
  -28.1052  -36.2621   24.6302 H   0  0  0  0  0  0
  -27.2268  -37.1472   25.8863 H   0  0  0  0  0  0
  -20.9254  -29.8937   21.6978 H   0  0  0  0  0  0
  -26.0081  -38.2783   24.1480 H   0  0  0  0  0  0
  -33.3213  -19.9239   22.8215 H   0  0  0  0  0  0
  -33.8953  -17.5868   23.3412 H   0  0  0  0  0  0
  -31.1806  -20.4393   21.7622 H   0  0  0  0  0  0
  -32.9942  -15.4971   23.9555 H   0  0  0  0  0  0
  -33.2370  -14.8906   22.3261 H   0  0  0  0  0  0
  -31.6558  -14.7353   23.1442 H   0  0  0  0  0  0
  -30.1586  -20.8601   17.5532 H   0  0  0  0  0  0
  -30.5146  -22.4914   18.0944 H   0  0  0  0  0  0
  -28.9080  -22.0900   17.4702 H   0  0  0  0  0  0
  -26.8105  -24.1262   18.1041 H   0  0  0  0  0  0
  -26.0998  -23.7288   19.6783 H   0  0  0  0  0  0
  -26.8034  -22.4755   18.6916 H   0  0  0  0  0  0
  -28.7172  -19.5041   21.6578 H   0  0  0  0  0  0
  -28.6240  -18.2236   20.4689 H   0  0  0  0  0  0
  -29.1441  -24.9554   21.2838 H   0  0  0  0  0  0
  -27.4223  -24.9665   21.3168 H   0  0  0  0  0  0
  -28.9996  -24.0147   18.8900 H   0  0  0  0  0  0
  -29.2014  -15.7443   21.3763 H   0  0  0  0  0  0
  -28.4615  -22.1991   21.1828 H   0  0  0  0  0  0
  -29.8925  -19.5420   18.9703 H   0  0  0  0  0  0
  1 25  1  0  0  0
  1 30  2  0  0  0
  1 84  1  0  0  0
  2  3  1  0  0  0
  2 25  1  0  0  0
  2 87  1  0  0  0
  2 88  1  0  0  0
  3  4  1  0  0  0
  3 89  1  0  0  0
  3 90  1  0  0  0
  4  5  1  0  0  0
  4 91  1  0  0  0
  4 92  1  0  0  0
  5  6  1  0  0  0
  5 26  1  0  0  0
  5 93  1  0  0  0
  6 25  1  0  0  0
  6 94  1  0  0  0
  6 95  1  0  0  0
  7  8  2  0  0  0
  7 26  1  0  0  0
  7 29  1  0  0  0
  8  9  1  0  0  0
  8 22  1  0  0  0
  9 10  1  0  0  0
  9 27  2  0  0  0
 10 11  2  0  0  0
 10 15  1  0  0  0
 11 12  1  0  0  0
 11 96  1  0  0  0
 12 13  2  0  0  0
 12 97  1  0  0  0
 13 14  1  0  0  0
 13 31  1  0  0  0
 14 15  2  0  0  0
 14 98  1  0  0  0
 15 99  1  0  0  0
 16 17  2  0  0  0
 16 21  1  0  0  0
 16 31  1  0  0  0
 17 18  1  0  0  0
 17100  1  0  0  0
 18 19  2  0  0  0
 18101  1  0  0  0
 19 20  1  0  0  0
 19 24  1  0  0  0
 20 21  2  0  0  0
 20102  1  0  0  0
 21 23  1  0  0  0
 22 28  1  0  0  0
 22 32  2  0  0  0
 26 27  1  0  0  0
 28103  1  0  0  0
 28104  1  0  0  0
 29105  1  0  0  0
 29106  1  0  0  0
 33 34  1  0  0  0
 33 66  1  0  0  0
 33 70  2  0  0  0
 34 36  1  0  0  0
 34 59  1  0  0  0
 34107  1  0  0  0
 35 44  2  0  0  0
 35 45  1  0  0  0
 35 68  1  0  0  0
 36 56  1  0  0  0
 36108  1  0  0  0
 37 39  1  0  0  0
 37 47  1  0  0  0
 37 66  1  0  0  0
 37109  1  0  0  0
 38 43  2  0  0  0
 38 46  1  0  0  0
 38 47  1  0  0  0
 39 64  1  0  0  0
 39 67  2  0  0  0
 40 52  1  0  0  0
 40 53  2  0  0  0
 40 58  1  0  0  0
 41110  1  0  0  0
 41111  1  0  0  0
 41112  1  0  0  0
 41 48  1  0  0  0
 42 43  1  0  0  0
 42 66  1  0  0  0
 42113  1  0  0  0
 42114  1  0  0  0
 43 44  1  0  0  0
 44115  1  0  0  0
 45 46  2  0  0  0
 45116  1  0  0  0
 46117  1  0  0  0
 47118  1  0  0  0
 47119  1  0  0  0
 48 56  1  0  0  0
 48 65  1  0  0  0
 48120  1  0  0  0
 49 50  1  0  0  0
 49 53  1  0  0  0
 49 64  1  0  0  0
 49121  1  0  0  0
 50 51  1  0  0  0
 50122  1  0  0  0
 50123  1  0  0  0
 51 52  1  0  0  0
 51124  1  0  0  0
 51125  1  0  0  0
 52126  1  0  0  0
 52127  1  0  0  0
 53 54  1  0  0  0
 54 55  2  0  0  0
 54128  1  0  0  0
 55 57  1  0  0  0
 55129  1  0  0  0
 56 69  2  0  0  0
 57 58  2  0  0  0
 57130  1  0  0  0
 58131  1  0  0  0
 59 60  1  0  0  0
 59 61  1  0  0  0
 59 62  1  0  0  0
 60132  1  0  0  0
 60133  1  0  0  0
 60134  1  0  0  0
 61135  1  0  0  0
 61136  1  0  0  0
 61137  1  0  0  0
 62138  1  0  0  0
 62139  1  0  0  0
 62140  1  0  0  0
 63 65  1  0  0  0
 63141  1  0  0  0
 63142  1  0  0  0
 63143  1  0  0  0
 64144  1  0  0  0
 65145  1  0  0  0
 68 82  1  0  0  0
 71 72  2  0  0  0
 71 73  1  0  0  0
 71146  1  0  0  0
 72 74  1  0  0  0
 72147  1  0  0  0
 73 75  2  0  0  0
 73148  1  0  0  0
 74 76  2  0  0  0
 74 78  1  0  0  0
 75 76  1  0  0  0
 75 81  1  0  0  0
 76 84  1  0  0  0
 77 79  1  0  0  0
 77 85  1  0  0  0
 77 86  2  0  0  0
 78149  1  0  0  0
 78150  1  0  0  0
 78151  1  0  0  0
 79152  1  0  0  0
 79153  1  0  0  0
 79154  1  0  0  0
 80155  1  0  0  0
 80156  1  0  0  0
 80157  1  0  0  0
 80 83  1  0  0  0
 81 86  1  0  0  0
 81158  1  0  0  0
 81159  1  0  0  0
 82 83  1  0  0  0
 82160  1  0  0  0
 82161  1  0  0  0
 83 85  1  0  0  0
 83162  1  0  0  0
 84163  1  0  0  0
 85164  1  0  0  0
 86165  1  0  0  0
M  CHG  1  86   1
M  ISO  4   1 100  68 101  82 101  84 100
M  END
> <chiral flag>
0

> <version>
0

> <s_m_source_file>
/data/baiqing/PycharmProjects/Reinvent-master-3.2/result/LINK_invent/BTK/process_docking_weight1_custom_product_contain_oxygen_bond_distance_aromatic_linkinvent_7_9_3/rearranged_h_0052.sdf

> <i_m_source_file_index>
2

> <r_mmod_Potential_Energy-OPLS-2005>
163.257034301758

> <r_mmod_Stretch_Energy-OPLS-2005>
110.172302246094

> <r_mmod_Bend_Energy-OPLS-2005>
214.184127807617

> <r_mmod_Torsional_Energy-OPLS-2005>
252.418472290039

> <r_mmod_Improper_Torsional_Energy-OPLS-2005>
3.02353143692017

> <r_mmod_Van_der_Waal_Energy-OPLS-2005>
152.793991088867

> <r_mmod_Electrostatic_Energy-OPLS-2005>
-200.781387329102

> <r_mmod_Solvation_Energy-OPLS-2005>
-426.328338623047

> <b_mmod_Minimization_Converged-OPLS-2005>
0

> <r_mmod_RMS_Derivative-OPLS-2005>
5.34270811080933

$$$$
2
                    3D
 Structure written by MMmdl.
160168  0  0  1  0            999 V2000
  -30.6074  -14.6450   20.5305 C   0  0  0  0  0  0
  -30.4358  -12.4022   19.4550 C   0  0  0  0  0  0
  -29.5017  -12.5033   18.2284 C   0  0  0  0  0  0
  -28.0264  -12.3354   18.6427 C   0  0  0  0  0  0
  -27.6468  -13.2129   19.8639 C   0  0  2  0  0  0
  -28.6877  -13.0648   20.9963 C   0  0  0  0  0  0
  -25.2536  -13.8179   20.5698 C   0  0  0  0  0  0
  -24.1809  -13.0456   20.9210 C   0  0  0  0  0  0
  -24.6358  -11.6913   20.8755 C   0  0  0  0  0  0
  -23.9038  -10.4300   21.0422 C   0  0  0  0  0  0
  -24.3586   -9.4214   21.9199 C   0  0  0  0  0  0
  -23.6264   -8.2247   22.0760 C   0  0  0  0  0  0
  -22.4250   -8.0279   21.3549 C   0  0  0  0  0  0
  -21.9888   -9.0254   20.4653 C   0  0  0  0  0  0
  -22.7210  -10.2143   20.3071 C   0  0  0  0  0  0
  -21.6841   -6.0734   22.5276 C   0  0  0  0  0  0
  -21.4012   -6.5636   23.8211 C   0  0  0  0  0  0
  -21.3661   -5.6790   24.9177 C   0  0  0  0  0  0
  -21.6045   -4.3049   24.7222 C   0  0  0  0  0  0
  -21.8817   -3.8142   23.4344 C   0  0  0  0  0  0
  -21.9190   -4.6964   22.3402 C   0  0  0  0  0  0
  -22.7832  -13.5249   21.1873 C   0  0  0  0  0  0
  -22.1660   -4.2146   21.0976 F   0  0  0  0  0  0
  -21.5628   -3.4535   25.7741 F   0  0  0  0  0  0
  -30.0021  -13.4176   20.4375 N   0  0  0  0  0  0
  -26.2930  -12.9339   20.3303 N   0  0  0  0  0  0
  -25.9270  -11.6503   20.5766 N   0  0  0  0  0  0
  -22.0463  -12.8253   22.0428 N   0  0  0  0  0  0
  -25.4276  -15.1909   20.4128 N   0  0  0  0  0  0
  -31.7678  -14.8110   20.1432 O   0  0  0  0  0  0
  -21.6631   -6.8870   21.4232 O   0  0  0  0  0  0
  -22.3531  -14.5554   20.6713 O   0  0  0  0  0  0
  -24.6233  -31.8594   23.2021 C   0  0  0  0  0  0
  -25.9086  -32.4776   23.8341 C   0  0  1  0  0  0
  -27.2351  -27.3242   20.1216 C   0  0  0  0  0  0
  -25.5893  -33.8581   24.2257 N   0  0  0  0  0  0
  -23.4199  -30.4818   21.5444 C   0  0  2  0  0  0
  -24.8692  -28.9392   20.1126 C   0  0  0  0  0  0
  -22.7458  -29.4619   22.4908 C   0  0  0  0  0  0
  -18.0277  -28.1362   22.8471 C   0  0  0  0  0  0
  -24.1493  -36.7314   23.2635 C   0  0  0  0  0  0
  -25.9598  -30.7928   21.3759 C   0  0  0  0  0  0
  -26.0370  -29.4213   20.7168 C   0  0  0  0  0  0
  -27.2223  -28.6269   20.7103 C   0  0  0  0  0  0
  -26.0423  -26.8991   19.4862 C   0  0  0  0  0  0
  -24.8724  -27.6813   19.4918 C   0  0  0  0  0  0
  -23.6361  -29.8163   20.1604 C   0  0  0  0  0  0
  -25.4117  -36.3081   24.0321 C   0  0  1  0  0  0
  -20.5879  -28.3685   23.1252 C   0  0  2  0  0  0
  -20.6770  -26.9397   22.5401 C   0  0  0  0  0  0
  -19.5766  -26.6358   21.5181 C   0  0  0  0  0  0
  -18.1936  -26.7910   22.1595 C   0  0  0  0  0  0
  -19.1528  -28.8832   23.2870 C   0  0  0  0  0  0
  -18.9467  -30.1422   23.8900 C   0  0  0  0  0  0
  -17.6475  -30.6584   24.0530 C   0  0  0  0  0  0
  -25.9052  -34.9454   23.5102 C   0  0  0  0  0  0
  -16.5361  -29.9085   23.6305 C   0  0  0  0  0  0
  -16.7273  -28.6485   23.0356 C   0  0  0  0  0  0
  -26.4483  -31.6603   25.0719 C   0  0  0  0  0  0
  -25.3700  -31.3758   26.1429 C   0  0  0  0  0  0
  -27.0334  -30.3010   24.6226 C   0  0  0  0  0  0
  -27.5999  -32.4384   25.7505 C   0  0  0  0  0  0
  -27.5615  -37.1781   24.8444 C   0  0  0  0  0  0
  -21.4164  -29.3036   22.3643 N   0  0  0  0  0  0
  -26.4292  -37.3783   23.9434 N   0  0  0  0  0  0
  -24.6858  -31.0608   22.0975 N   0  0  0  0  0  0
  -23.4167  -28.8151   23.3005 O   0  0  0  0  0  0
  -28.3553  -26.4780   20.1985 O   0  0  0  0  0  0
  -26.5641  -34.8915   22.4685 O   0  0  0  0  0  0
  -23.5396  -32.1410   23.7343 O   0  0  0  0  0  0
  -28.8401  -19.3910   20.9683 C   0  0  0  0  0  0
  -28.7703  -17.9659   20.9880 C   0  0  0  0  0  0
  -31.1525  -17.8312   20.7869 C   0  0  0  0  0  0
  -30.0695  -20.0938   20.8463 C   0  0  0  0  0  0
  -31.2456  -19.2607   20.8196 C   0  0  0  0  0  0
  -29.9221  -17.1400   20.8720 C   0  0  0  0  0  0
  -29.2281  -24.0259   20.5233 C   0  0  0  0  0  0
  -33.1905  -20.1233   19.4355 C   0  0  0  0  0  0
  -28.1767  -22.1191   19.3453 C   0  0  0  0  0  0
  -30.1660  -21.6831   20.8649 C   0  0  0  0  0  0
  -28.1694  -25.0325   19.9091 C   0  0  0  0  0  0
  -32.6678  -19.8375   20.8443 C   0  0  0  0  0  0
  -29.7876  -15.6805   20.9113 N   0  0  0  0  0  0
  -29.1489  -22.6548   20.3008 N   0  0  0  0  0  0
  -30.1321  -24.4999   21.2225 O   0  0  0  0  0  0
  -33.5068  -18.9589   21.3976 F   0  0  0  0  0  0
  -32.7508  -20.9380   21.5931 F   0  0  0  0  0  0
  -31.4728  -12.5413   19.1474 H   0  0  0  0  0  0
  -30.3851  -11.4074   19.8984 H   0  0  0  0  0  0
  -29.7661  -11.7463   17.4885 H   0  0  0  0  0  0
  -29.6356  -13.4696   17.7397 H   0  0  0  0  0  0
  -27.8684  -11.2830   18.8829 H   0  0  0  0  0  0
  -27.3672  -12.5535   17.8017 H   0  0  0  0  0  0
  -27.6654  -14.2472   19.5190 H   0  0  0  0  0  0
  -28.7025  -12.0405   21.3713 H   0  0  0  0  0  0
  -28.4251  -13.6890   21.8536 H   0  0  0  0  0  0
  -25.2728   -9.5698   22.4788 H   0  0  0  0  0  0
  -23.9973   -7.4642   22.7480 H   0  0  0  0  0  0
  -21.0821   -8.8772   19.8956 H   0  0  0  0  0  0
  -22.3647  -10.9690   19.6185 H   0  0  0  0  0  0
  -21.2009   -7.6141   23.9707 H   0  0  0  0  0  0
  -21.1486   -6.0528   25.9082 H   0  0  0  0  0  0
  -22.0597   -2.7607   23.2848 H   0  0  0  0  0  0
  -22.4043  -11.9885   22.4803 H   0  0  0  0  0  0
  -21.1104  -13.1333   22.2670 H   0  0  0  0  0  0
  -24.6643  -15.8487   20.5286 H   0  0  0  0  0  0
  -26.2685  -15.6192   20.0505 H   0  0  0  0  0  0
  -26.7151  -32.5462   23.1090 H   0  0  0  0  0  0
  -24.9932  -33.9679   25.0331 H   0  0  0  0  0  0
  -22.7122  -31.3019   21.4022 H   0  0  0  0  0  0
  -23.3766  -35.9630   23.3213 H   0  0  0  0  0  0
  -24.3599  -36.9054   22.2074 H   0  0  0  0  0  0
  -23.7202  -37.6466   23.6733 H   0  0  0  0  0  0
  -26.0949  -31.5581   20.6096 H   0  0  0  0  0  0
  -26.8357  -30.8372   22.0107 H   0  0  0  0  0  0
  -28.1180  -28.9977   21.1915 H   0  0  0  0  0  0
  -25.9812  -25.9427   18.9890 H   0  0  0  0  0  0
  -23.9754  -27.3044   19.0181 H   0  0  0  0  0  0
  -23.7539  -30.5923   19.4031 H   0  0  0  0  0  0
  -22.7574  -29.2430   19.8615 H   0  0  0  0  0  0
  -25.1289  -36.1936   25.0804 H   0  0  0  0  0  0
  -20.9963  -28.3287   24.1376 H   0  0  0  0  0  0
  -20.5648  -26.2291   23.3606 H   0  0  0  0  0  0
  -21.6651  -26.7415   22.1232 H   0  0  0  0  0  0
  -19.6919  -25.6261   21.1240 H   0  0  0  0  0  0
  -19.6719  -27.3117   20.6680 H   0  0  0  0  0  0
  -17.4208  -26.6612   21.3996 H   0  0  0  0  0  0
  -18.0371  -26.0054   22.9000 H   0  0  0  0  0  0
  -19.7951  -30.7195   24.2307 H   0  0  0  0  0  0
  -17.5055  -31.6259   24.5146 H   0  0  0  0  0  0
  -15.5364  -30.2998   23.7633 H   0  0  0  0  0  0
  -15.8658  -28.0785   22.7122 H   0  0  0  0  0  0
  -24.5835  -30.7161   25.7748 H   0  0  0  0  0  0
  -24.8919  -32.2940   26.4865 H   0  0  0  0  0  0
  -25.7994  -30.8905   27.0203 H   0  0  0  0  0  0
  -26.2923  -29.6744   24.1251 H   0  0  0  0  0  0
  -27.3990  -29.7303   25.4776 H   0  0  0  0  0  0
  -27.8818  -30.4262   23.9493 H   0  0  0  0  0  0
  -27.2561  -33.3694   26.2039 H   0  0  0  0  0  0
  -28.3817  -32.6961   25.0348 H   0  0  0  0  0  0
  -28.0663  -31.8565   26.5465 H   0  0  0  0  0  0
  -28.2522  -38.0193   24.7646 H   0  0  0  0  0  0
  -28.1225  -36.2722   24.6087 H   0  0  0  0  0  0
  -27.2346  -37.1223   25.8842 H   0  0  0  0  0  0
  -20.9326  -29.8792   21.6884 H   0  0  0  0  0  0
  -26.0176  -38.2836   24.1541 H   0  0  0  0  0  0
  -27.9196  -19.9481   21.0726 H   0  0  0  0  0  0
  -27.7970  -17.5113   21.0974 H   0  0  0  0  0  0
  -32.0615  -17.2522   20.7234 H   0  0  0  0  0  0
  -33.2127  -19.2107   18.8394 H   0  0  0  0  0  0
  -34.2027  -20.5255   19.4705 H   0  0  0  0  0  0
  -32.5620  -20.8419   18.9115 H   0  0  0  0  0  0
  -27.1845  -22.0724   19.7967 H   0  0  0  0  0  0
  -28.4416  -21.1228   18.9963 H   0  0  0  0  0  0
  -28.1162  -22.7295   18.4443 H   0  0  0  0  0  0
  -31.0787  -21.9605   20.3409 H   0  0  0  0  0  0
  -30.3302  -21.9555   21.9089 H   0  0  0  0  0  0
  -27.2058  -24.6899   20.2897 H   0  0  0  0  0  0
  -28.1599  -24.9228   18.8245 H   0  0  0  0  0  0
  -28.8696  -15.3552   21.1706 H   0  0  0  0  0  0
  1 25  1  0  0  0
  1 30  2  0  0  0
  1 83  1  0  0  0
  2  3  1  0  0  0
  2 25  1  0  0  0
  2 88  1  0  0  0
  2 89  1  0  0  0
  3  4  1  0  0  0
  3 90  1  0  0  0
  3 91  1  0  0  0
  4  5  1  0  0  0
  4 92  1  0  0  0
  4 93  1  0  0  0
  5  6  1  0  0  0
  5 26  1  0  0  0
  5 94  1  0  0  0
  6 25  1  0  0  0
  6 95  1  0  0  0
  6 96  1  0  0  0
  7  8  2  0  0  0
  7 26  1  0  0  0
  7 29  1  0  0  0
  8  9  1  0  0  0
  8 22  1  0  0  0
  9 10  1  0  0  0
  9 27  2  0  0  0
 10 11  2  0  0  0
 10 15  1  0  0  0
 11 12  1  0  0  0
 11 97  1  0  0  0
 12 13  2  0  0  0
 12 98  1  0  0  0
 13 14  1  0  0  0
 13 31  1  0  0  0
 14 15  2  0  0  0
 14 99  1  0  0  0
 15100  1  0  0  0
 16 17  2  0  0  0
 16 21  1  0  0  0
 16 31  1  0  0  0
 17 18  1  0  0  0
 17101  1  0  0  0
 18 19  2  0  0  0
 18102  1  0  0  0
 19 20  1  0  0  0
 19 24  1  0  0  0
 20 21  2  0  0  0
 20103  1  0  0  0
 21 23  1  0  0  0
 22 28  1  0  0  0
 22 32  2  0  0  0
 26 27  1  0  0  0
 28104  1  0  0  0
 28105  1  0  0  0
 29106  1  0  0  0
 29107  1  0  0  0
 33 34  1  0  0  0
 33 66  1  0  0  0
 33 70  2  0  0  0
 34 36  1  0  0  0
 34 59  1  0  0  0
 34108  1  0  0  0
 35 44  2  0  0  0
 35 45  1  0  0  0
 35 68  1  0  0  0
 36 56  1  0  0  0
 36109  1  0  0  0
 37 39  1  0  0  0
 37 47  1  0  0  0
 37 66  1  0  0  0
 37110  1  0  0  0
 38 43  2  0  0  0
 38 46  1  0  0  0
 38 47  1  0  0  0
 39 64  1  0  0  0
 39 67  2  0  0  0
 40 52  1  0  0  0
 40 53  2  0  0  0
 40 58  1  0  0  0
 41111  1  0  0  0
 41112  1  0  0  0
 41113  1  0  0  0
 41 48  1  0  0  0
 42 43  1  0  0  0
 42 66  1  0  0  0
 42114  1  0  0  0
 42115  1  0  0  0
 43 44  1  0  0  0
 44116  1  0  0  0
 45 46  2  0  0  0
 45117  1  0  0  0
 46118  1  0  0  0
 47119  1  0  0  0
 47120  1  0  0  0
 48 56  1  0  0  0
 48 65  1  0  0  0
 48121  1  0  0  0
 49 50  1  0  0  0
 49 53  1  0  0  0
 49 64  1  0  0  0
 49122  1  0  0  0
 50 51  1  0  0  0
 50123  1  0  0  0
 50124  1  0  0  0
 51 52  1  0  0  0
 51125  1  0  0  0
 51126  1  0  0  0
 52127  1  0  0  0
 52128  1  0  0  0
 53 54  1  0  0  0
 54 55  2  0  0  0
 54129  1  0  0  0
 55 57  1  0  0  0
 55130  1  0  0  0
 56 69  2  0  0  0
 57 58  2  0  0  0
 57131  1  0  0  0
 58132  1  0  0  0
 59 60  1  0  0  0
 59 61  1  0  0  0
 59 62  1  0  0  0
 60133  1  0  0  0
 60134  1  0  0  0
 60135  1  0  0  0
 61136  1  0  0  0
 61137  1  0  0  0
 61138  1  0  0  0
 62139  1  0  0  0
 62140  1  0  0  0
 62141  1  0  0  0
 63 65  1  0  0  0
 63142  1  0  0  0
 63143  1  0  0  0
 63144  1  0  0  0
 64145  1  0  0  0
 65146  1  0  0  0
 68 81  1  0  0  0
 71 72  2  0  0  0
 71 74  1  0  0  0
 71147  1  0  0  0
 72 76  1  0  0  0
 72148  1  0  0  0
 73 75  1  0  0  0
 73 76  2  0  0  0
 73149  1  0  0  0
 74 75  2  0  0  0
 74 80  1  0  0  0
 75 82  1  0  0  0
 76 83  1  0  0  0
 77 81  1  0  0  0
 77 84  1  0  0  0
 77 85  2  0  0  0
 78150  1  0  0  0
 78151  1  0  0  0
 78152  1  0  0  0
 78 82  1  0  0  0
 79 84  1  0  0  0
 79153  1  0  0  0
 79154  1  0  0  0
 79155  1  0  0  0
 80 84  1  0  0  0
 80156  1  0  0  0
 80157  1  0  0  0
 81158  1  0  0  0
 81159  1  0  0  0
 82 86  1  0  0  0
 82 87  1  0  0  0
 83160  1  0  0  0
M  ISO  4   1 100  68 101  81 101  83 100
M  END
> <chiral flag>
0

> <version>
0

> <s_m_source_file>
/data/baiqing/PycharmProjects/Reinvent-master-3.2/result/LINK_invent/BTK/process_docking_weight1_custom_product_contain_oxygen_bond_distance_aromatic_linkinvent_7_9_3/rearranged_h_0052.sdf

> <i_m_source_file_index>
3

> <r_mmod_Potential_Energy-OPLS-2005>
70.9065933227539

> <r_mmod_Stretch_Energy-OPLS-2005>
91.795783996582

> <r_mmod_Bend_Energy-OPLS-2005>
151.868057250977

> <r_mmod_Torsional_Energy-OPLS-2005>
220.421844482422

> <r_mmod_Improper_Torsional_Energy-OPLS-2005>
4.68225193023682

> <r_mmod_Van_der_Waal_Energy-OPLS-2005>
162.111206054688

> <r_mmod_Electrostatic_Energy-OPLS-2005>
-369.612609863281

> <r_mmod_Solvation_Energy-OPLS-2005>
-239.97395324707

> <b_mmod_Minimization_Converged-OPLS-2005>
0

> <r_mmod_RMS_Derivative-OPLS-2005>
2.7088098526001

$$$$
3
                    3D
 Structure written by MMmdl.
157165  0  0  1  0            999 V2000
  -31.5145  -14.8816   20.9937 C   0  0  0  0  0  0
  -31.1781  -13.1192   19.0422 C   0  0  0  0  0  0
  -29.7355  -12.5984   17.2768 C   0  0  0  0  0  0
  -27.4458  -13.1144   17.7511 C   0  0  0  0  0  0
  -26.8682  -14.0620   19.7547 C   0  0  2  0  0  0
  -28.6382  -14.5207   21.5997 C   0  0  0  0  0  0
  -24.8501  -13.9753   20.7956 C   0  0  0  0  0  0
  -23.9312  -13.0422   21.0429 C   0  0  0  0  0  0
  -24.5262  -11.7503   20.8762 C   0  0  0  0  0  0
  -23.8880  -10.4302   21.0102 C   0  0  0  0  0  0
  -24.3570   -9.4326   21.8964 C   0  0  0  0  0  0
  -23.6346   -8.2276   22.0645 C   0  0  0  0  0  0
  -22.4325   -8.0141   21.3477 C   0  0  0  0  0  0
  -21.9875   -8.9961   20.4490 C   0  0  0  0  0  0
  -22.7077  -10.1882   20.2800 C   0  0  0  0  0  0
  -21.6886   -6.0627   22.5280 C   0  0  0  0  0  0
  -21.4059   -6.5574   23.8191 C   0  0  0  0  0  0
  -21.3739   -5.6760   24.9172 C   0  0  0  0  0  0
  -21.6075   -4.3011   24.7250 C   0  0  0  0  0  0
  -21.8798   -3.8058   23.4375 C   0  0  0  0  0  0
  -21.9188   -4.6852   22.3416 C   0  0  0  0  0  0
  -22.5314  -13.4283   21.2757 C   0  0  0  0  0  0
  -22.1648   -4.2027   21.0998 F   0  0  0  0  0  0
  -21.5664   -3.4525   25.7775 F   0  0  0  0  0  0
  -30.5966  -14.0033   20.8568 N   0  0  0  0  0  0
  -25.8643  -13.2775   20.3233 N   0  0  0  0  0  0
  -25.7782  -11.9052   20.4420 N   0  0  0  0  0  0
  -21.8390  -12.7009   22.1307 N   0  0  0  0  0  0
  -24.8715  -15.3742   20.8365 N   0  0  0  0  0  0
  -32.6235  -14.7005   20.5357 O   0  0  0  0  0  0
  -21.6734   -6.8721   21.4212 O   0  0  0  0  0  0
  -22.0823  -14.4394   20.7322 O   0  0  0  0  0  0
  -24.7010  -31.7804   23.1397 C   0  0  0  0  0  0
  -25.9519  -32.4356   23.7966 C   0  0  1  0  0  0
  -27.0807  -26.5010   20.1627 C   0  0  0  0  0  0
  -25.6033  -33.8197   24.1828 N   0  0  0  0  0  0
  -23.5218  -30.3888   21.5063 C   0  0  2  0  0  0
  -24.9401  -28.7017   20.0999 C   0  0  0  0  0  0
  -22.7799  -29.4219   22.4703 C   0  0  0  0  0  0
  -18.0341  -28.1415   22.8469 C   0  0  0  0  0  0
  -24.1517  -36.7145   23.2649 C   0  0  0  0  0  0
  -26.1085  -30.4333   21.4257 C   0  0  0  0  0  0
  -26.1355  -28.9838   20.7699 C   0  0  0  0  0  0
  -27.1921  -27.9062   20.7729 C   0  0  0  0  0  0
  -25.8748  -26.4819   19.4287 C   0  0  0  0  0  0
  -24.8598  -27.4829   19.4066 C   0  0  0  0  0  0
  -23.7650  -29.6941   20.1365 C   0  0  0  0  0  0
  -25.4164  -36.2833   24.0255 C   0  0  1  0  0  0
  -20.5986  -28.3774   23.1148 C   0  0  2  0  0  0
  -20.6803  -26.9423   22.5415 C   0  0  0  0  0  0
  -19.5770  -26.6358   21.5234 C   0  0  0  0  0  0
  -18.1959  -26.7945   22.1636 C   0  0  0  0  0  0
  -19.1615  -28.8920   23.2792 C   0  0  0  0  0  0
  -18.9502  -30.1510   23.8834 C   0  0  0  0  0  0
  -17.6488  -30.6596   24.0549 C   0  0  0  0  0  0
  -25.9157  -34.9233   23.4879 C   0  0  0  0  0  0
  -16.5379  -29.9076   23.6342 C   0  0  0  0  0  0
  -16.7322  -28.6495   23.0368 C   0  0  0  0  0  0
  -26.4618  -31.6474   25.0663 C   0  0  0  0  0  0
  -25.3648  -31.3854   26.1262 C   0  0  0  0  0  0
  -27.0492  -30.2780   24.6627 C   0  0  0  0  0  0
  -27.6042  -32.4363   25.7487 C   0  0  0  0  0  0
  -27.5567  -37.1727   24.8450 C   0  0  0  0  0  0
  -21.4438  -29.3011   22.3471 N   0  0  0  0  0  0
  -26.4273  -37.3613   23.9399 N   0  0  0  0  0  0
  -24.8066  -30.9062   22.0754 N   0  0  0  0  0  0
  -23.4194  -28.7808   23.3077 O   0  0  0  0  0  0
  -27.9410  -25.1673   20.1648 O   0  0  0  0  0  0
  -26.5818  -34.8846   22.4513 O   0  0  0  0  0  0
  -23.6001  -32.0991   23.6242 O   0  0  0  0  0  0
  -29.4348  -11.7818   20.3207 C   0  0  0  0  0  0
  -28.9520  -12.6570   19.3807 C   0  0  0  0  0  0
  -28.7323  -12.9225   20.1073 C   0  0  0  0  0  0
  -29.2276  -14.4279   18.5782 C   0  0  0  0  0  0
  -28.9476  -15.0371   19.4175 C   0  0  0  0  0  0
  -29.9493  -15.5726   18.6483 C   0  0  0  0  0  0
  -28.1433  -22.0468   20.0258 C   0  0  0  0  0  0
  -27.7196  -20.0997   19.8024 C   0  0  0  0  0  0
  -29.5970  -22.1556   20.4215 C   0  0  0  0  0  0
  -28.1211  -16.8190   19.7532 C   0  0  0  0  0  0
  -30.9011  -16.4566   19.4987 C   0  0  0  0  0  0
  -27.4733  -23.4247   19.9614 N   0  0  0  0  0  0
  -28.4277  -18.6560   19.8338 N   0  0  0  0  0  0
  -30.9928  -16.0830   20.9040 N   0  0  0  0  0  0
  -26.5152  -19.9654   19.5719 O   0  0  0  0  0  0
  -31.9308  -13.7405   18.5574 H   0  0  0  0  0  0
  -31.7571  -12.2286   19.2862 H   0  0  0  0  0  0
  -29.8428  -11.5531   16.9853 H   0  0  0  0  0  0
  -30.0505  -13.1336   16.3774 H   0  0  0  0  0  0
  -26.8350  -12.2229   17.5972 H   0  0  0  0  0  0
  -27.0626  -13.7750   16.9725 H   0  0  0  0  0  0
  -26.4666  -14.9622   19.2961 H   0  0  0  0  0  0
  -28.4359  -13.9550   22.5118 H   0  0  0  0  0  0
  -28.6327  -15.5448   21.9727 H   0  0  0  0  0  0
  -25.2559   -9.6030   22.4700 H   0  0  0  0  0  0
  -24.0063   -7.4762   22.7468 H   0  0  0  0  0  0
  -21.0795   -8.8292   19.8840 H   0  0  0  0  0  0
  -22.3276  -10.9362   19.5987 H   0  0  0  0  0  0
  -21.2073   -7.6091   23.9668 H   0  0  0  0  0  0
  -21.1640   -6.0504   25.9085 H   0  0  0  0  0  0
  -22.0518   -2.7510   23.2907 H   0  0  0  0  0  0
  -22.2372  -11.8898   22.5822 H   0  0  0  0  0  0
  -20.8839  -12.9518   22.3429 H   0  0  0  0  0  0
  -24.0192  -15.8940   21.0255 H   0  0  0  0  0  0
  -25.6322  -15.9652   20.5403 H   0  0  0  0  0  0
  -26.7598  -32.4724   23.0664 H   0  0  0  0  0  0
  -25.0074  -33.9196   24.9905 H   0  0  0  0  0  0
  -22.8582  -31.2360   21.3206 H   0  0  0  0  0  0
  -23.3774  -35.9472   23.3196 H   0  0  0  0  0  0
  -24.3605  -36.8937   22.2089 H   0  0  0  0  0  0
  -23.7283  -37.6288   23.6817 H   0  0  0  0  0  0
  -26.3282  -31.1308   20.6163 H   0  0  0  0  0  0
  -26.9637  -30.4973   22.0869 H   0  0  0  0  0  0
  -28.0954  -28.1086   21.3316 H   0  0  0  0  0  0
  -25.6583  -25.5675   18.8949 H   0  0  0  0  0  0
  -23.9620  -27.2657   18.8447 H   0  0  0  0  0  0
  -23.9649  -30.4559   19.3827 H   0  0  0  0  0  0
  -22.8530  -29.1947   19.8059 H   0  0  0  0  0  0
  -25.1380  -36.1566   25.0742 H   0  0  0  0  0  0
  -21.0073  -28.3387   24.1275 H   0  0  0  0  0  0
  -20.5667  -26.2388   23.3683 H   0  0  0  0  0  0
  -21.6663  -26.7350   22.1232 H   0  0  0  0  0  0
  -19.6914  -25.6248   21.1317 H   0  0  0  0  0  0
  -19.6722  -27.3131   20.6738 H   0  0  0  0  0  0
  -17.4234  -26.6713   21.4033 H   0  0  0  0  0  0
  -18.0317  -26.0107   22.9044 H   0  0  0  0  0  0
  -19.7971  -30.7357   24.2178 H   0  0  0  0  0  0
  -17.5017  -31.6274   24.5157 H   0  0  0  0  0  0
  -15.5371  -30.2941   23.7690 H   0  0  0  0  0  0
  -15.8731  -28.0782   22.7111 H   0  0  0  0  0  0
  -24.5866  -30.7152   25.7595 H   0  0  0  0  0  0
  -24.8797  -32.3083   26.4445 H   0  0  0  0  0  0
  -25.7814  -30.9201   27.0203 H   0  0  0  0  0  0
  -26.3155  -29.6426   24.1652 H   0  0  0  0  0  0
  -27.3869  -29.7232   25.5388 H   0  0  0  0  0  0
  -27.9192  -30.3848   24.0147 H   0  0  0  0  0  0
  -27.2577  -33.3790   26.1744 H   0  0  0  0  0  0
  -28.4022  -32.6723   25.0434 H   0  0  0  0  0  0
  -28.0505  -31.8694   26.5667 H   0  0  0  0  0  0
  -28.2502  -38.0094   24.7497 H   0  0  0  0  0  0
  -28.1138  -36.2602   24.6261 H   0  0  0  0  0  0
  -27.2281  -37.1344   25.8851 H   0  0  0  0  0  0
  -20.9742  -29.8732   21.6594 H   0  0  0  0  0  0
  -26.0069  -38.2645   24.1411 H   0  0  0  0  0  0
  -28.9622  -10.8523   20.6199 H   0  0  0  0  0  0
  -28.6062  -11.6241   18.7576 H   0  0  0  0  0  0
  -27.9927  -12.5905   21.0217 H   0  0  0  0  0  0
  -29.0096  -14.6314   17.4630 H   0  0  0  0  0  0
  -30.1128  -21.2092   20.2667 H   0  0  0  0  0  0
  -29.6746  -22.4271   21.4752 H   0  0  0  0  0  0
  -30.0977  -22.9258   19.8345 H   0  0  0  0  0  0
  -27.4615  -16.6877   20.6084 H   0  0  0  0  0  0
  -27.4206  -16.8495   18.9184 H   0  0  0  0  0  0
  -31.8777  -16.4543   19.0068 H   0  0  0  0  0  0
  -30.6098  -17.5007   19.4309 H   0  0  0  0  0  0
  -29.4063  -18.8122   20.0238 H   0  0  0  0  0  0
  -30.1354  -16.1943   21.4216 H   0  0  0  0  0  0
  1 25  1  0  0  0
  1 30  2  0  0  0
  1 84  1  0  0  0
  2  3  1  0  0  0
  2 25  1  0  0  0
  2 86  1  0  0  0
  2 87  1  0  0  0
  3  4  1  0  0  0
  3 88  1  0  0  0
  3 89  1  0  0  0
  4  5  1  0  0  0
  4 90  1  0  0  0
  4 91  1  0  0  0
  5  6  1  0  0  0
  5 26  1  0  0  0
  5 92  1  0  0  0
  6 25  1  0  0  0
  6 93  1  0  0  0
  6 94  1  0  0  0
  7  8  2  0  0  0
  7 26  1  0  0  0
  7 29  1  0  0  0
  8  9  1  0  0  0
  8 22  1  0  0  0
  9 10  1  0  0  0
  9 27  2  0  0  0
 10 11  2  0  0  0
 10 15  1  0  0  0
 11 12  1  0  0  0
 11 95  1  0  0  0
 12 13  2  0  0  0
 12 96  1  0  0  0
 13 14  1  0  0  0
 13 31  1  0  0  0
 14 15  2  0  0  0
 14 97  1  0  0  0
 15 98  1  0  0  0
 16 17  2  0  0  0
 16 21  1  0  0  0
 16 31  1  0  0  0
 17 18  1  0  0  0
 17 99  1  0  0  0
 18 19  2  0  0  0
 18100  1  0  0  0
 19 20  1  0  0  0
 19 24  1  0  0  0
 20 21  2  0  0  0
 20101  1  0  0  0
 21 23  1  0  0  0
 22 28  1  0  0  0
 22 32  2  0  0  0
 26 27  1  0  0  0
 28102  1  0  0  0
 28103  1  0  0  0
 29104  1  0  0  0
 29105  1  0  0  0
 33 34  1  0  0  0
 33 66  1  0  0  0
 33 70  2  0  0  0
 34 36  1  0  0  0
 34 59  1  0  0  0
 34106  1  0  0  0
 35 44  2  0  0  0
 35 45  1  0  0  0
 35 68  1  0  0  0
 36 56  1  0  0  0
 36107  1  0  0  0
 37 39  1  0  0  0
 37 47  1  0  0  0
 37 66  1  0  0  0
 37108  1  0  0  0
 38 43  2  0  0  0
 38 46  1  0  0  0
 38 47  1  0  0  0
 39 64  1  0  0  0
 39 67  2  0  0  0
 40 52  1  0  0  0
 40 53  2  0  0  0
 40 58  1  0  0  0
 41109  1  0  0  0
 41110  1  0  0  0
 41111  1  0  0  0
 41 48  1  0  0  0
 42 43  1  0  0  0
 42 66  1  0  0  0
 42112  1  0  0  0
 42113  1  0  0  0
 43 44  1  0  0  0
 44114  1  0  0  0
 45 46  2  0  0  0
 45115  1  0  0  0
 46116  1  0  0  0
 47117  1  0  0  0
 47118  1  0  0  0
 48 56  1  0  0  0
 48 65  1  0  0  0
 48119  1  0  0  0
 49 50  1  0  0  0
 49 53  1  0  0  0
 49 64  1  0  0  0
 49120  1  0  0  0
 50 51  1  0  0  0
 50121  1  0  0  0
 50122  1  0  0  0
 51 52  1  0  0  0
 51123  1  0  0  0
 51124  1  0  0  0
 52125  1  0  0  0
 52126  1  0  0  0
 53 54  1  0  0  0
 54 55  2  0  0  0
 54127  1  0  0  0
 55 57  1  0  0  0
 55128  1  0  0  0
 56 69  2  0  0  0
 57 58  2  0  0  0
 57129  1  0  0  0
 58130  1  0  0  0
 59 60  1  0  0  0
 59 61  1  0  0  0
 59 62  1  0  0  0
 60131  1  0  0  0
 60132  1  0  0  0
 60133  1  0  0  0
 61134  1  0  0  0
 61135  1  0  0  0
 61136  1  0  0  0
 62137  1  0  0  0
 62138  1  0  0  0
 62139  1  0  0  0
 63 65  1  0  0  0
 63140  1  0  0  0
 63141  1  0  0  0
 63142  1  0  0  0
 64143  1  0  0  0
 65144  1  0  0  0
 68 82  1  0  0  0
 71 72  2  0  0  0
 71 73  1  0  0  0
 71145  1  0  0  0
 72 74  1  0  0  0
 72146  1  0  0  0
 73 75  2  0  0  0
 73147  1  0  0  0
 74 76  2  0  0  0
 74148  1  0  0  0
 75 76  1  0  0  0
 75 80  1  0  0  0
 76 81  1  0  0  0
 77 78  1  0  0  0
 77 79  1  0  0  0
 77 82  2  0  0  0
 78 83  1  0  0  0
 78 85  2  0  0  0
 79149  1  0  0  0
 79150  1  0  0  0
 79151  1  0  0  0
 80 83  1  0  0  0
 80152  1  0  0  0
 80153  1  0  0  0
 81 84  1  0  0  0
 81154  1  0  0  0
 81155  1  0  0  0
 83156  1  0  0  0
 84157  1  0  0  0
M  ISO  4   1 100  68 101  82 101  84 100
M  END
> <chiral flag>
0

> <version>
0

> <s_m_source_file>
/data/baiqing/PycharmProjects/Reinvent-master-3.2/result/LINK_invent/BTK/process_docking_weight1_custom_product_contain_oxygen_bond_distance_aromatic_linkinvent_7_9_3/rearranged_h_0052.sdf

> <i_m_source_file_index>
4

> <r_mmod_Potential_Energy-OPLS-2005>
16007.7587890625

> <r_mmod_Stretch_Energy-OPLS-2005>
8530.466796875

> <r_mmod_Bend_Energy-OPLS-2005>
2274.841796875

> <r_mmod_Torsional_Energy-OPLS-2005>
579.702331542969

> <r_mmod_Improper_Torsional_Energy-OPLS-2005>
62.9954833984375

> <r_mmod_Van_der_Waal_Energy-OPLS-2005>
3426.23974609375

> <r_mmod_Electrostatic_Energy-OPLS-2005>
-422.249237060547

> <r_mmod_Solvation_Energy-OPLS-2005>
-267.741546630859

> <b_mmod_Minimization_Converged-OPLS-2005>
0

> <r_mmod_RMS_Derivative-OPLS-2005>
6.04279041290283

$$$$
4
                    3D
 Structure written by MMmdl.
166175  0  0  1  0            999 V2000
  -30.7310  -14.4718   20.5851 C   0  0  0  0  0  0
  -30.4166  -12.3108   19.4328 C   0  0  0  0  0  0
  -29.4936  -12.5051   18.2131 C   0  0  0  0  0  0
  -28.0165  -12.3620   18.6251 C   0  0  0  0  0  0
  -27.6603  -13.2110   19.8746 C   0  0  2  0  0  0
  -28.7020  -13.0169   21.0008 C   0  0  0  0  0  0
  -25.2569  -13.8159   20.5670 C   0  0  0  0  0  0
  -24.1834  -13.0433   20.9182 C   0  0  0  0  0  0
  -24.6403  -11.6906   20.8749 C   0  0  0  0  0  0
  -23.9075  -10.4287   21.0413 C   0  0  0  0  0  0
  -24.3623   -9.4201   21.9190 C   0  0  0  0  0  0
  -23.6294   -8.2240   22.0761 C   0  0  0  0  0  0
  -22.4278   -8.0283   21.3546 C   0  0  0  0  0  0
  -21.9916   -9.0259   20.4651 C   0  0  0  0  0  0
  -22.7250  -10.2133   20.3059 C   0  0  0  0  0  0
  -21.6852   -6.0735   22.5278 C   0  0  0  0  0  0
  -21.4014   -6.5639   23.8212 C   0  0  0  0  0  0
  -21.3656   -5.6792   24.9175 C   0  0  0  0  0  0
  -21.6045   -4.3057   24.7226 C   0  0  0  0  0  0
  -21.8819   -3.8149   23.4347 C   0  0  0  0  0  0
  -21.9192   -4.6964   22.3402 C   0  0  0  0  0  0
  -22.7857  -13.5231   21.1838 C   0  0  0  0  0  0
  -22.1662   -4.2150   21.0981 F   0  0  0  0  0  0
  -21.5629   -3.4541   25.7738 F   0  0  0  0  0  0
  -30.0349  -13.3088   20.4470 N   0  0  0  0  0  0
  -26.3019  -12.9347   20.3371 N   0  0  0  0  0  0
  -25.9334  -11.6501   20.5791 N   0  0  0  0  0  0
  -22.0501  -12.8223   22.0395 N   0  0  0  0  0  0
  -25.4239  -15.1872   20.4019 N   0  0  0  0  0  0
  -31.8477  -14.6250   20.0823 O   0  0  0  0  0  0
  -21.6638   -6.8882   21.4244 O   0  0  0  0  0  0
  -22.3541  -14.5537   20.6690 O   0  0  0  0  0  0
  -24.6159  -31.8678   23.2111 C   0  0  0  0  0  0
  -25.9048  -32.4820   23.8405 C   0  0  1  0  0  0
  -27.2255  -27.4126   20.0934 C   0  0  0  0  0  0
  -25.5898  -33.8619   24.2328 N   0  0  0  0  0  0
  -23.4031  -30.4951   21.5518 C   0  0  2  0  0  0
  -24.8472  -28.9646   20.1117 C   0  0  0  0  0  0
  -22.7418  -29.4667   22.4978 C   0  0  0  0  0  0
  -18.0276  -28.1378   22.8488 C   0  0  0  0  0  0
  -24.1484  -36.7314   23.2634 C   0  0  0  0  0  0
  -25.9364  -30.8241   21.3721 C   0  0  0  0  0  0
  -26.0089  -29.4593   20.7160 C   0  0  0  0  0  0
  -27.1967  -28.6887   20.7088 C   0  0  0  0  0  0
  -26.0466  -26.9576   19.4527 C   0  0  0  0  0  0
  -24.8626  -27.7137   19.4774 C   0  0  0  0  0  0
  -23.6114  -29.8335   20.1644 C   0  0  0  0  0  0
  -25.4105  -36.3109   24.0336 C   0  0  1  0  0  0
  -20.5867  -28.3662   23.1310 C   0  0  2  0  0  0
  -20.6761  -26.9396   22.5411 C   0  0  0  0  0  0
  -19.5740  -26.6378   21.5208 C   0  0  0  0  0  0
  -18.1918  -26.7921   22.1619 C   0  0  0  0  0  0
  -19.1527  -28.8836   23.2894 C   0  0  0  0  0  0
  -18.9455  -30.1442   23.8906 C   0  0  0  0  0  0
  -17.6458  -30.6578   24.0569 C   0  0  0  0  0  0
  -25.9039  -34.9476   23.5130 C   0  0  0  0  0  0
  -16.5348  -29.9081   23.6330 C   0  0  0  0  0  0
  -16.7267  -28.6504   23.0340 C   0  0  0  0  0  0
  -26.4468  -31.6605   25.0741 C   0  0  0  0  0  0
  -25.3722  -31.3714   26.1481 C   0  0  0  0  0  0
  -27.0302  -30.3046   24.6124 C   0  0  0  0  0  0
  -27.6047  -32.4328   25.7493 C   0  0  0  0  0  0
  -27.5588  -37.1799   24.8456 C   0  0  0  0  0  0
  -21.4145  -29.3036   22.3722 N   0  0  0  0  0  0
  -26.4289  -37.3799   23.9420 N   0  0  0  0  0  0
  -24.6699  -31.0768   22.1028 N   0  0  0  0  0  0
  -23.4192  -28.8195   23.3009 O   0  0  0  0  0  0
  -28.3912  -26.6614   20.1439 O   0  0  0  0  0  0
  -26.5602  -34.8925   22.4690 O   0  0  0  0  0  0
  -23.5348  -32.1446   23.7495 O   0  0  0  0  0  0
  -32.2773  -18.5113   21.5595 C   0  0  0  0  0  0
  -31.8326  -17.1831   21.5742 C   0  0  0  0  0  0
  -31.4068  -19.5694   21.2353 C   0  0  0  0  0  0
  -30.0256  -19.3071   20.9863 C   0  0  0  0  0  0
  -29.5912  -17.9364   20.9705 C   0  0  0  0  0  0
  -30.5009  -16.8682   21.2371 C   0  0  0  0  0  0
  -29.0892  -22.0138   22.5276 C   0  0  0  0  0  0
  -29.2543  -22.8728   20.2997 C   0  0  0  0  0  0
  -29.3446  -23.4064   23.1131 C   0  0  0  0  0  0
  -28.7245  -24.4853   22.2277 C   0  0  0  0  0  0
  -29.2055  -24.3618   20.7728 C   0  0  2  0  0  0
  -32.0387  -20.9481   21.1294 C   0  0  0  0  0  0
  -28.1404  -17.5979   20.6309 C   0  0  0  0  0  0
  -28.9927  -20.4307   20.6623 C   0  0  0  0  0  0
  -28.3309  -25.2477   19.8383 C   0  0  0  0  0  0
  -29.1637  -21.8243   21.1814 N   0  0  0  0  0  0
  -30.0848  -15.4921   21.1939 N   0  0  0  0  0  0
  -28.8440  -21.0988   23.3211 O   0  0  0  0  0  0
  -29.3755  -22.6804   19.0846 O   0  0  0  0  0  0
  -31.4624  -12.3917   19.1311 H   0  0  0  0  0  0
  -30.3067  -11.3049   19.8420 H   0  0  0  0  0  0
  -29.7368  -11.7790   17.4362 H   0  0  0  0  0  0
  -29.6591  -13.4908   17.7758 H   0  0  0  0  0  0
  -27.8308  -11.3067   18.8286 H   0  0  0  0  0  0
  -27.3651  -12.6284   17.7917 H   0  0  0  0  0  0
  -27.6983  -14.2544   19.5630 H   0  0  0  0  0  0
  -28.6784  -11.9899   21.3679 H   0  0  0  0  0  0
  -28.4620  -13.6399   21.8634 H   0  0  0  0  0  0
  -25.2771   -9.5671   22.4764 H   0  0  0  0  0  0
  -24.0002   -7.4628   22.7478 H   0  0  0  0  0  0
  -21.0848   -8.8781   19.8953 H   0  0  0  0  0  0
  -22.3720  -10.9674   19.6164 H   0  0  0  0  0  0
  -21.2006   -7.6149   23.9716 H   0  0  0  0  0  0
  -21.1480   -6.0524   25.9075 H   0  0  0  0  0  0
  -22.0602   -2.7611   23.2848 H   0  0  0  0  0  0
  -22.4123  -11.9878   22.4766 H   0  0  0  0  0  0
  -21.1125  -13.1249   22.2619 H   0  0  0  0  0  0
  -24.6481  -15.8346   20.4922 H   0  0  0  0  0  0
  -26.2580  -15.6183   20.0286 H   0  0  0  0  0  0
  -26.7116  -32.5529   23.1166 H   0  0  0  0  0  0
  -25.0057  -33.9787   25.0477 H   0  0  0  0  0  0
  -22.6924  -31.3127   21.4152 H   0  0  0  0  0  0
  -23.3756  -35.9636   23.3285 H   0  0  0  0  0  0
  -24.3596  -36.8943   22.2053 H   0  0  0  0  0  0
  -23.7220  -37.6505   23.6665 H   0  0  0  0  0  0
  -26.0547  -31.5917   20.6055 H   0  0  0  0  0  0
  -26.8227  -30.8733   21.9932 H   0  0  0  0  0  0
  -28.0894  -29.0619   21.1909 H   0  0  0  0  0  0
  -26.0067  -26.0252   18.9106 H   0  0  0  0  0  0
  -23.9742  -27.3355   18.9906 H   0  0  0  0  0  0
  -23.7200  -30.6112   19.4077 H   0  0  0  0  0  0
  -22.7341  -29.2558   19.8662 H   0  0  0  0  0  0
  -25.1275  -36.1974   25.0829 H   0  0  0  0  0  0
  -20.9959  -28.3223   24.1429 H   0  0  0  0  0  0
  -20.5654  -26.2269   23.3599 H   0  0  0  0  0  0
  -21.6633  -26.7426   22.1209 H   0  0  0  0  0  0
  -19.6898  -25.6290   21.1228 H   0  0  0  0  0  0
  -19.6679  -27.3198   20.6744 H   0  0  0  0  0  0
  -17.4185  -26.6676   21.4022 H   0  0  0  0  0  0
  -18.0316  -26.0055   22.9007 H   0  0  0  0  0  0
  -19.7935  -30.7252   24.2273 H   0  0  0  0  0  0
  -17.5014  -31.6261   24.5159 H   0  0  0  0  0  0
  -15.5349  -30.2981   23.7647 H   0  0  0  0  0  0
  -15.8670  -28.0831   22.7035 H   0  0  0  0  0  0
  -24.5901  -30.7056   25.7816 H   0  0  0  0  0  0
  -24.8905  -32.2868   26.4932 H   0  0  0  0  0  0
  -25.8058  -30.8883   27.0244 H   0  0  0  0  0  0
  -26.2852  -29.6812   24.1162 H   0  0  0  0  0  0
  -27.4053  -29.7280   25.4589 H   0  0  0  0  0  0
  -27.8698  -30.4376   23.9296 H   0  0  0  0  0  0
  -27.2681  -33.3628   26.2090 H   0  0  0  0  0  0
  -28.3839  -32.6885   25.0301 H   0  0  0  0  0  0
  -28.0733  -31.8439   26.5389 H   0  0  0  0  0  0
  -28.2569  -38.0131   24.7563 H   0  0  0  0  0  0
  -28.1120  -36.2668   24.6204 H   0  0  0  0  0  0
  -27.2324  -37.1354   25.8860 H   0  0  0  0  0  0
  -20.9293  -29.8794   21.6985 H   0  0  0  0  0  0
  -26.0178  -38.2870   24.1453 H   0  0  0  0  0  0
  -33.3177  -18.7089   21.7779 H   0  0  0  0  0  0
  -32.5409  -16.4034   21.8165 H   0  0  0  0  0  0
  -30.4217  -23.5537   23.2007 H   0  0  0  0  0  0
  -28.9341  -23.4662   24.1219 H   0  0  0  0  0  0
  -28.9727  -25.4727   22.6185 H   0  0  0  0  0  0
  -27.6363  -24.4063   22.2738 H   0  0  0  0  0  0
  -30.2339  -24.7213   20.7187 H   0  0  0  0  0  0
  -33.1252  -20.8784   21.0669 H   0  0  0  0  0  0
  -31.8110  -21.5582   22.0018 H   0  0  0  0  0  0
  -31.7149  -21.4584   20.2243 H   0  0  0  0  0  0
  -27.5050  -17.7505   21.5032 H   0  0  0  0  0  0
  -28.0102  -16.5701   20.3011 H   0  0  0  0  0  0
  -27.7639  -18.2139   19.8146 H   0  0  0  0  0  0
  -28.0180  -20.1210   21.0408 H   0  0  0  0  0  0
  -28.8636  -20.4084   19.5798 H   0  0  0  0  0  0
  -27.3268  -24.8365   19.9271 H   0  0  0  0  0  0
  -28.6273  -25.1294   18.7951 H   0  0  0  0  0  0
  -29.1378  -15.2934   21.4764 H   0  0  0  0  0  0
  1 25  1  0  0  0
  1 30  2  0  0  0
  1 87  1  0  0  0
  2  3  1  0  0  0
  2 25  1  0  0  0
  2 90  1  0  0  0
  2 91  1  0  0  0
  3  4  1  0  0  0
  3 92  1  0  0  0
  3 93  1  0  0  0
  4  5  1  0  0  0
  4 94  1  0  0  0
  4 95  1  0  0  0
  5  6  1  0  0  0
  5 26  1  0  0  0
  5 96  1  0  0  0
  6 25  1  0  0  0
  6 97  1  0  0  0
  6 98  1  0  0  0
  7  8  2  0  0  0
  7 26  1  0  0  0
  7 29  1  0  0  0
  8  9  1  0  0  0
  8 22  1  0  0  0
  9 10  1  0  0  0
  9 27  2  0  0  0
 10 11  2  0  0  0
 10 15  1  0  0  0
 11 12  1  0  0  0
 11 99  1  0  0  0
 12 13  2  0  0  0
 12100  1  0  0  0
 13 14  1  0  0  0
 13 31  1  0  0  0
 14 15  2  0  0  0
 14101  1  0  0  0
 15102  1  0  0  0
 16 17  2  0  0  0
 16 21  1  0  0  0
 16 31  1  0  0  0
 17 18  1  0  0  0
 17103  1  0  0  0
 18 19  2  0  0  0
 18104  1  0  0  0
 19 20  1  0  0  0
 19 24  1  0  0  0
 20 21  2  0  0  0
 20105  1  0  0  0
 21 23  1  0  0  0
 22 28  1  0  0  0
 22 32  2  0  0  0
 26 27  1  0  0  0
 28106  1  0  0  0
 28107  1  0  0  0
 29108  1  0  0  0
 29109  1  0  0  0
 33 34  1  0  0  0
 33 66  1  0  0  0
 33 70  2  0  0  0
 34 36  1  0  0  0
 34 59  1  0  0  0
 34110  1  0  0  0
 35 44  2  0  0  0
 35 45  1  0  0  0
 35 68  1  0  0  0
 36 56  1  0  0  0
 36111  1  0  0  0
 37 39  1  0  0  0
 37 47  1  0  0  0
 37 66  1  0  0  0
 37112  1  0  0  0
 38 43  2  0  0  0
 38 46  1  0  0  0
 38 47  1  0  0  0
 39 64  1  0  0  0
 39 67  2  0  0  0
 40 52  1  0  0  0
 40 53  2  0  0  0
 40 58  1  0  0  0
 41113  1  0  0  0
 41114  1  0  0  0
 41115  1  0  0  0
 41 48  1  0  0  0
 42 43  1  0  0  0
 42 66  1  0  0  0
 42116  1  0  0  0
 42117  1  0  0  0
 43 44  1  0  0  0
 44118  1  0  0  0
 45 46  2  0  0  0
 45119  1  0  0  0
 46120  1  0  0  0
 47121  1  0  0  0
 47122  1  0  0  0
 48 56  1  0  0  0
 48 65  1  0  0  0
 48123  1  0  0  0
 49 50  1  0  0  0
 49 53  1  0  0  0
 49 64  1  0  0  0
 49124  1  0  0  0
 50 51  1  0  0  0
 50125  1  0  0  0
 50126  1  0  0  0
 51 52  1  0  0  0
 51127  1  0  0  0
 51128  1  0  0  0
 52129  1  0  0  0
 52130  1  0  0  0
 53 54  1  0  0  0
 54 55  2  0  0  0
 54131  1  0  0  0
 55 57  1  0  0  0
 55132  1  0  0  0
 56 69  2  0  0  0
 57 58  2  0  0  0
 57133  1  0  0  0
 58134  1  0  0  0
 59 60  1  0  0  0
 59 61  1  0  0  0
 59 62  1  0  0  0
 60135  1  0  0  0
 60136  1  0  0  0
 60137  1  0  0  0
 61138  1  0  0  0
 61139  1  0  0  0
 61140  1  0  0  0
 62141  1  0  0  0
 62142  1  0  0  0
 62143  1  0  0  0
 63 65  1  0  0  0
 63144  1  0  0  0
 63145  1  0  0  0
 63146  1  0  0  0
 64147  1  0  0  0
 65148  1  0  0  0
 68 85  1  0  0  0
 71 72  2  0  0  0
 71 73  1  0  0  0
 71149  1  0  0  0
 72 76  1  0  0  0
 72150  1  0  0  0
 73 74  2  0  0  0
 73 82  1  0  0  0
 74 75  1  0  0  0
 74 84  1  0  0  0
 75 76  2  0  0  0
 75 83  1  0  0  0
 76 87  1  0  0  0
 77 79  1  0  0  0
 77 86  1  0  0  0
 77 88  2  0  0  0
 78 81  1  0  0  0
 78 86  1  0  0  0
 78 89  2  0  0  0
 79 80  1  0  0  0
 79151  1  0  0  0
 79152  1  0  0  0
 80 81  1  0  0  0
 80153  1  0  0  0
 80154  1  0  0  0
 81 85  1  0  0  0
 81155  1  0  0  0
 82156  1  0  0  0
 82157  1  0  0  0
 82158  1  0  0  0
 83159  1  0  0  0
 83160  1  0  0  0
 83161  1  0  0  0
 84 86  1  0  0  0
 84162  1  0  0  0
 84163  1  0  0  0
 85164  1  0  0  0
 85165  1  0  0  0
 87166  1  0  0  0
M  ISO  4   1 100  68 101  85 101  87 100
M  END
> <chiral flag>
0

> <version>
0

> <s_m_source_file>
/data/baiqing/PycharmProjects/Reinvent-master-3.2/result/LINK_invent/BTK/process_docking_weight1_custom_product_contain_oxygen_bond_distance_aromatic_linkinvent_7_9_3/rearranged_h_0052.sdf

> <i_m_source_file_index>
5

> <r_mmod_Potential_Energy-OPLS-2005>
-84.4909820556641

> <r_mmod_Stretch_Energy-OPLS-2005>
56.4311218261719

> <r_mmod_Bend_Energy-OPLS-2005>
120.267906188965

> <r_mmod_Torsional_Energy-OPLS-2005>
216.790100097656

> <r_mmod_Improper_Torsional_Energy-OPLS-2005>
3.73128890991211

> <r_mmod_Van_der_Waal_Energy-OPLS-2005>
191.629318237305

> <r_mmod_Electrostatic_Energy-OPLS-2005>
-457.967346191406

> <r_mmod_Solvation_Energy-OPLS-2005>
-231.280990600586

> <b_mmod_Minimization_Converged-OPLS-2005>
0

> <r_mmod_RMS_Derivative-OPLS-2005>
1.01531302928925

$$$$
5
                    3D
 Structure written by MMmdl.
158166  0  0  1  0            999 V2000
  -30.7953  -14.3248   20.7109 C   0  0  0  0  0  0
  -30.4111  -12.2850   19.3832 C   0  0  0  0  0  0
  -29.4774  -12.5345   18.1865 C   0  0  0  0  0  0
  -28.0044  -12.3839   18.6071 C   0  0  0  0  0  0
  -27.6656  -13.2026   19.8798 C   0  0  2  0  0  0
  -28.7033  -12.9424   20.9935 C   0  0  0  0  0  0
  -25.2596  -13.8155   20.5673 C   0  0  0  0  0  0
  -24.1837  -13.0439   20.9160 C   0  0  0  0  0  0
  -24.6385  -11.6903   20.8721 C   0  0  0  0  0  0
  -23.9051  -10.4291   21.0395 C   0  0  0  0  0  0
  -24.3607   -9.4214   21.9177 C   0  0  0  0  0  0
  -23.6286   -8.2248   22.0750 C   0  0  0  0  0  0
  -22.4268   -8.0281   21.3546 C   0  0  0  0  0  0
  -21.9901   -9.0252   20.4644 C   0  0  0  0  0  0
  -22.7226  -10.2131   20.3045 C   0  0  0  0  0  0
  -21.6855   -6.0731   22.5276 C   0  0  0  0  0  0
  -21.4014   -6.5638   23.8213 C   0  0  0  0  0  0
  -21.3657   -5.6791   24.9174 C   0  0  0  0  0  0
  -21.6042   -4.3052   24.7223 C   0  0  0  0  0  0
  -21.8820   -3.8145   23.4348 C   0  0  0  0  0  0
  -21.9195   -4.6961   22.3401 C   0  0  0  0  0  0
  -22.7864  -13.5249   21.1838 C   0  0  0  0  0  0
  -22.1664   -4.2146   21.0978 F   0  0  0  0  0  0
  -21.5627   -3.4535   25.7735 F   0  0  0  0  0  0
  -30.0504  -13.2197   20.4577 N   0  0  0  0  0  0
  -26.3040  -12.9324   20.3383 N   0  0  0  0  0  0
  -25.9313  -11.6480   20.5756 N   0  0  0  0  0  0
  -22.0503  -12.8231   22.0388 N   0  0  0  0  0  0
  -25.4339  -15.1869   20.4090 N   0  0  0  0  0  0
  -31.7890  -14.6413   20.0494 O   0  0  0  0  0  0
  -21.6641   -6.8873   21.4239 O   0  0  0  0  0  0
  -22.3553  -14.5569   20.6715 O   0  0  0  0  0  0
  -24.6111  -31.8708   23.2121 C   0  0  0  0  0  0
  -25.9030  -32.4826   23.8405 C   0  0  1  0  0  0
  -27.2373  -27.4816   20.0873 C   0  0  0  0  0  0
  -25.5904  -33.8624   24.2346 N   0  0  0  0  0  0
  -23.3960  -30.4933   21.5514 C   0  0  2  0  0  0
  -24.8428  -28.9596   20.1196 C   0  0  0  0  0  0
  -22.7379  -29.4678   22.5013 C   0  0  0  0  0  0
  -18.0267  -28.1358   22.8496 C   0  0  0  0  0  0
  -24.1486  -36.7320   23.2635 C   0  0  0  0  0  0
  -25.9185  -30.8503   21.3564 C   0  0  0  0  0  0
  -25.9991  -29.4856   20.7097 C   0  0  0  0  0  0
  -27.2031  -28.7526   20.6921 C   0  0  0  0  0  0
  -26.0695  -26.9521   19.5021 C   0  0  0  0  0  0
  -24.8691  -27.6883   19.5165 C   0  0  0  0  0  0
  -23.6016  -29.8206   20.1674 C   0  0  0  0  0  0
  -25.4102  -36.3113   24.0343 C   0  0  1  0  0  0
  -20.5855  -28.3648   23.1326 C   0  0  2  0  0  0
  -20.6758  -26.9393   22.5412 C   0  0  0  0  0  0
  -19.5737  -26.6379   21.5204 C   0  0  0  0  0  0
  -18.1918  -26.7911   22.1621 C   0  0  0  0  0  0
  -19.1517  -28.8821   23.2906 C   0  0  0  0  0  0
  -18.9443  -30.1429   23.8906 C   0  0  0  0  0  0
  -17.6447  -30.6569   24.0559 C   0  0  0  0  0  0
  -25.9032  -34.9479   23.5135 C   0  0  0  0  0  0
  -16.5336  -29.9068   23.6319 C   0  0  0  0  0  0
  -16.7262  -28.6482   23.0350 C   0  0  0  0  0  0
  -26.4480  -31.6576   25.0701 C   0  0  0  0  0  0
  -25.3778  -31.3658   26.1470 C   0  0  0  0  0  0
  -27.0286  -30.3024   24.6024 C   0  0  0  0  0  0
  -27.6065  -32.4277   25.7471 C   0  0  0  0  0  0
  -27.5580  -37.1813   24.8459 C   0  0  0  0  0  0
  -21.4116  -29.3021   22.3739 N   0  0  0  0  0  0
  -26.4290  -37.3792   23.9408 N   0  0  0  0  0  0
  -24.6598  -31.0848   22.0995 N   0  0  0  0  0  0
  -23.4167  -28.8239   23.3059 O   0  0  0  0  0  0
  -28.4075  -26.7764   20.0324 O   0  0  0  0  0  0
  -26.5576  -34.8926   22.4685 O   0  0  0  0  0  0
  -23.5318  -32.1443   23.7543 O   0  0  0  0  0  0
  -29.7501  -17.9445   21.3069 C   0  0  0  0  0  0
  -32.1701  -18.0570   21.0712 C   0  0  0  0  0  0
  -29.6206  -19.1379   20.5693 C   0  0  0  0  0  0
  -32.0420  -19.2460   20.3306 C   0  0  0  0  0  0
  -31.0255  -17.4048   21.5695 C   0  0  0  0  0  0
  -30.7714  -19.8061   20.0812 C   0  0  0  0  0  0
  -29.7309  -21.8657   19.0937 C   0  0  0  0  0  0
  -29.4698  -24.6708   20.4897 C   0  0  0  0  0  0
  -31.1717  -16.1240   22.3756 C   0  0  0  0  0  0
  -30.1224  -23.2474   18.5536 C   0  0  0  0  0  0
  -28.4911  -25.7312   20.9941 C   0  0  0  0  0  0
  -30.7511  -21.0389   19.3721 N   0  0  0  0  0  0
  -29.3603  -24.3124   19.2037 N   0  0  0  0  0  0
  -30.4374  -15.0027   21.8054 N   0  0  0  0  0  0
  -28.5360  -21.5831   19.2219 O   0  0  0  0  0  0
  -30.3023  -24.1723   21.2509 O   0  0  0  0  0  0
  -31.4535  -12.3837   19.0743 H   0  0  0  0  0  0
  -30.3061  -11.2599   19.7413 H   0  0  0  0  0  0
  -29.7078  -11.8409   17.3768 H   0  0  0  0  0  0
  -29.6462  -13.5372   17.7898 H   0  0  0  0  0  0
  -27.8145  -11.3249   18.7848 H   0  0  0  0  0  0
  -27.3472  -12.6757   17.7871 H   0  0  0  0  0  0
  -27.7253  -14.2577   19.6115 H   0  0  0  0  0  0
  -28.6576  -11.9016   21.3165 H   0  0  0  0  0  0
  -28.4489  -13.5292   21.8760 H   0  0  0  0  0  0
  -25.2754   -9.5694   22.4748 H   0  0  0  0  0  0
  -24.0002   -7.4639   22.7467 H   0  0  0  0  0  0
  -21.0835   -8.8763   19.8949 H   0  0  0  0  0  0
  -22.3688  -10.9662   19.6144 H   0  0  0  0  0  0
  -21.2007   -7.6148   23.9713 H   0  0  0  0  0  0
  -21.1475   -6.0520   25.9075 H   0  0  0  0  0  0
  -22.0601   -2.7606   23.2847 H   0  0  0  0  0  0
  -22.4124  -11.9880   22.4754 H   0  0  0  0  0  0
  -21.1121  -13.1246   22.2603 H   0  0  0  0  0  0
  -24.6724  -15.8473   20.5179 H   0  0  0  0  0  0
  -26.2979  -15.6228   20.1108 H   0  0  0  0  0  0
  -26.7103  -32.5562   23.1177 H   0  0  0  0  0  0
  -25.0089  -33.9788   25.0515 H   0  0  0  0  0  0
  -22.6828  -31.3085   21.4125 H   0  0  0  0  0  0
  -23.3737  -35.9665   23.3305 H   0  0  0  0  0  0
  -24.3594  -36.8922   22.2050 H   0  0  0  0  0  0
  -23.7247  -37.6533   23.6642 H   0  0  0  0  0  0
  -26.0186  -31.6171   20.5871 H   0  0  0  0  0  0
  -26.8102  -30.9092   21.9683 H   0  0  0  0  0  0
  -28.1014  -29.1600   21.1337 H   0  0  0  0  0  0
  -26.0916  -25.9800   19.0295 H   0  0  0  0  0  0
  -23.9790  -27.2762   19.0604 H   0  0  0  0  0  0
  -23.7031  -30.5908   19.4020 H   0  0  0  0  0  0
  -22.7275  -29.2344   19.8778 H   0  0  0  0  0  0
  -25.1270  -36.1988   25.0836 H   0  0  0  0  0  0
  -20.9941  -28.3207   24.1449 H   0  0  0  0  0  0
  -20.5655  -26.2257   23.3596 H   0  0  0  0  0  0
  -21.6631  -26.7442   22.1204 H   0  0  0  0  0  0
  -19.6897  -25.6294   21.1225 H   0  0  0  0  0  0
  -19.6670  -27.3199   20.6745 H   0  0  0  0  0  0
  -17.4186  -26.6670   21.4022 H   0  0  0  0  0  0
  -18.0310  -26.0039   22.9004 H   0  0  0  0  0  0
  -19.7921  -30.7241   24.2274 H   0  0  0  0  0  0
  -17.5001  -31.6258   24.5148 H   0  0  0  0  0  0
  -15.5332  -30.2972   23.7630 H   0  0  0  0  0  0
  -15.8666  -28.0802   22.7058 H   0  0  0  0  0  0
  -24.5926  -30.7032   25.7810 H   0  0  0  0  0  0
  -24.9007  -32.2804   26.4997 H   0  0  0  0  0  0
  -25.8162  -30.8767   27.0177 H   0  0  0  0  0  0
  -26.2790  -29.6790   24.1127 H   0  0  0  0  0  0
  -27.4116  -29.7250   25.4447 H   0  0  0  0  0  0
  -27.8612  -30.4333   23.9106 H   0  0  0  0  0  0
  -27.2688  -33.3566   26.2081 H   0  0  0  0  0  0
  -28.3877  -32.6843   25.0303 H   0  0  0  0  0  0
  -28.0725  -31.8370   26.5366 H   0  0  0  0  0  0
  -28.2581  -38.0125   24.7518 H   0  0  0  0  0  0
  -28.1092  -36.2655   24.6267 H   0  0  0  0  0  0
  -27.2304  -37.1429   25.8864 H   0  0  0  0  0  0
  -20.9264  -29.8743   21.6969 H   0  0  0  0  0  0
  -26.0183  -38.2871   24.1413 H   0  0  0  0  0  0
  -28.8633  -17.4498   21.6794 H   0  0  0  0  0  0
  -33.1547  -17.6485   21.2529 H   0  0  0  0  0  0
  -28.6246  -19.5197   20.4057 H   0  0  0  0  0  0
  -32.9362  -19.7322   19.9659 H   0  0  0  0  0  0
  -30.8040  -16.3018   23.3870 H   0  0  0  0  0  0
  -32.2256  -15.8565   22.4779 H   0  0  0  0  0  0
  -29.9268  -23.2723   17.4817 H   0  0  0  0  0  0
  -31.1905  -23.4290   18.6844 H   0  0  0  0  0  0
  -28.8375  -26.1382   21.9448 H   0  0  0  0  0  0
  -27.5254  -25.2536   21.1723 H   0  0  0  0  0  0
  -31.6599  -21.4106   19.1319 H   0  0  0  0  0  0
  -28.6514  -24.7794   18.6547 H   0  0  0  0  0  0
  -29.6400  -14.6591   22.3186 H   0  0  0  0  0  0
  1 25  1  0  0  0
  1 30  2  0  0  0
  1 84  1  0  0  0
  2  3  1  0  0  0
  2 25  1  0  0  0
  2 87  1  0  0  0
  2 88  1  0  0  0
  3  4  1  0  0  0
  3 89  1  0  0  0
  3 90  1  0  0  0
  4  5  1  0  0  0
  4 91  1  0  0  0
  4 92  1  0  0  0
  5  6  1  0  0  0
  5 26  1  0  0  0
  5 93  1  0  0  0
  6 25  1  0  0  0
  6 94  1  0  0  0
  6 95  1  0  0  0
  7  8  2  0  0  0
  7 26  1  0  0  0
  7 29  1  0  0  0
  8  9  1  0  0  0
  8 22  1  0  0  0
  9 10  1  0  0  0
  9 27  2  0  0  0
 10 11  2  0  0  0
 10 15  1  0  0  0
 11 12  1  0  0  0
 11 96  1  0  0  0
 12 13  2  0  0  0
 12 97  1  0  0  0
 13 14  1  0  0  0
 13 31  1  0  0  0
 14 15  2  0  0  0
 14 98  1  0  0  0
 15 99  1  0  0  0
 16 17  2  0  0  0
 16 21  1  0  0  0
 16 31  1  0  0  0
 17 18  1  0  0  0
 17100  1  0  0  0
 18 19  2  0  0  0
 18101  1  0  0  0
 19 20  1  0  0  0
 19 24  1  0  0  0
 20 21  2  0  0  0
 20102  1  0  0  0
 21 23  1  0  0  0
 22 28  1  0  0  0
 22 32  2  0  0  0
 26 27  1  0  0  0
 28103  1  0  0  0
 28104  1  0  0  0
 29105  1  0  0  0
 29106  1  0  0  0
 33 34  1  0  0  0
 33 66  1  0  0  0
 33 70  2  0  0  0
 34 36  1  0  0  0
 34 59  1  0  0  0
 34107  1  0  0  0
 35 44  2  0  0  0
 35 45  1  0  0  0
 35 68  1  0  0  0
 36 56  1  0  0  0
 36108  1  0  0  0
 37 39  1  0  0  0
 37 47  1  0  0  0
 37 66  1  0  0  0
 37109  1  0  0  0
 38 43  2  0  0  0
 38 46  1  0  0  0
 38 47  1  0  0  0
 39 64  1  0  0  0
 39 67  2  0  0  0
 40 52  1  0  0  0
 40 53  2  0  0  0
 40 58  1  0  0  0
 41110  1  0  0  0
 41111  1  0  0  0
 41112  1  0  0  0
 41 48  1  0  0  0
 42 43  1  0  0  0
 42 66  1  0  0  0
 42113  1  0  0  0
 42114  1  0  0  0
 43 44  1  0  0  0
 44115  1  0  0  0
 45 46  2  0  0  0
 45116  1  0  0  0
 46117  1  0  0  0
 47118  1  0  0  0
 47119  1  0  0  0
 48 56  1  0  0  0
 48 65  1  0  0  0
 48120  1  0  0  0
 49 50  1  0  0  0
 49 53  1  0  0  0
 49 64  1  0  0  0
 49121  1  0  0  0
 50 51  1  0  0  0
 50122  1  0  0  0
 50123  1  0  0  0
 51 52  1  0  0  0
 51124  1  0  0  0
 51125  1  0  0  0
 52126  1  0  0  0
 52127  1  0  0  0
 53 54  1  0  0  0
 54 55  2  0  0  0
 54128  1  0  0  0
 55 57  1  0  0  0
 55129  1  0  0  0
 56 69  2  0  0  0
 57 58  2  0  0  0
 57130  1  0  0  0
 58131  1  0  0  0
 59 60  1  0  0  0
 59 61  1  0  0  0
 59 62  1  0  0  0
 60132  1  0  0  0
 60133  1  0  0  0
 60134  1  0  0  0
 61135  1  0  0  0
 61136  1  0  0  0
 61137  1  0  0  0
 62138  1  0  0  0
 62139  1  0  0  0
 62140  1  0  0  0
 63 65  1  0  0  0
 63141  1  0  0  0
 63142  1  0  0  0
 63143  1  0  0  0
 64144  1  0  0  0
 65145  1  0  0  0
 68 81  1  0  0  0
 71 73  2  0  0  0
 71 75  1  0  0  0
 71146  1  0  0  0
 72 74  1  0  0  0
 72 75  2  0  0  0
 72147  1  0  0  0
 73 76  1  0  0  0
 73148  1  0  0  0
 74 76  2  0  0  0
 74149  1  0  0  0
 75 79  1  0  0  0
 76 82  1  0  0  0
 77 80  1  0  0  0
 77 82  1  0  0  0
 77 85  2  0  0  0
 78 81  1  0  0  0
 78 83  1  0  0  0
 78 86  2  0  0  0
 79 84  1  0  0  0
 79150  1  0  0  0
 79151  1  0  0  0
 80 83  1  0  0  0
 80152  1  0  0  0
 80153  1  0  0  0
 81154  1  0  0  0
 81155  1  0  0  0
 82156  1  0  0  0
 83157  1  0  0  0
 84158  1  0  0  0
M  ISO  4   1 100  68 101  81 101  84 100
M  END
> <chiral flag>
0

> <version>
0

> <s_m_source_file>
/data/baiqing/PycharmProjects/Reinvent-master-3.2/result/LINK_invent/BTK/process_docking_weight1_custom_product_contain_oxygen_bond_distance_aromatic_linkinvent_7_9_3/rearranged_h_0052.sdf

> <i_m_source_file_index>
6

> <r_mmod_Potential_Energy-OPLS-2005>
-279.595001220703

> <r_mmod_Stretch_Energy-OPLS-2005>
30.8556442260742

> <r_mmod_Bend_Energy-OPLS-2005>
91.3921051025391

> <r_mmod_Torsional_Energy-OPLS-2005>
219.004867553711

> <r_mmod_Improper_Torsional_Energy-OPLS-2005>
2.58150243759155

> <r_mmod_Van_der_Waal_Energy-OPLS-2005>
159.159133911133

> <r_mmod_Electrostatic_Energy-OPLS-2005>
-528.673034667969

> <r_mmod_Solvation_Energy-OPLS-2005>
-260.353485107422

> <b_mmod_Minimization_Converged-OPLS-2005>
0

> <r_mmod_RMS_Derivative-OPLS-2005>
1.05017590522766

$$$$
6
                    3D
 Structure written by MMmdl.
154162  0  0  1  0            999 V2000
  -30.6462  -14.6635   20.5022 C   0  0  0  0  0  0
  -30.4410  -12.4122   19.4594 C   0  0  0  0  0  0
  -29.5100  -12.5065   18.2307 C   0  0  0  0  0  0
  -28.0347  -12.3385   18.6462 C   0  0  0  0  0  0
  -27.6518  -13.2237   19.8600 C   0  0  2  0  0  0
  -28.6977  -13.1084   20.9934 C   0  0  0  0  0  0
  -25.2552  -13.8175   20.5727 C   0  0  0  0  0  0
  -24.1822  -13.0433   20.9208 C   0  0  0  0  0  0
  -24.6396  -11.6901   20.8725 C   0  0  0  0  0  0
  -23.9050  -10.4294   21.0385 C   0  0  0  0  0  0
  -24.3604   -9.4210   21.9166 C   0  0  0  0  0  0
  -23.6298   -8.2234   22.0735 C   0  0  0  0  0  0
  -22.4272   -8.0272   21.3530 C   0  0  0  0  0  0
  -21.9900   -9.0242   20.4642 C   0  0  0  0  0  0
  -22.7217  -10.2128   20.3052 C   0  0  0  0  0  0
  -21.6859   -6.0731   22.5277 C   0  0  0  0  0  0
  -21.4016   -6.5628   23.8211 C   0  0  0  0  0  0
  -21.3662   -5.6784   24.9178 C   0  0  0  0  0  0
  -21.6046   -4.3049   24.7224 C   0  0  0  0  0  0
  -21.8821   -3.8148   23.4346 C   0  0  0  0  0  0
  -21.9191   -4.6962   22.3401 C   0  0  0  0  0  0
  -22.7849  -13.5219   21.1884 C   0  0  0  0  0  0
  -22.1666   -4.2147   21.0977 F   0  0  0  0  0  0
  -21.5628   -3.4530   25.7736 F   0  0  0  0  0  0
  -30.0132  -13.4465   20.4261 N   0  0  0  0  0  0
  -26.2981  -12.9377   20.3319 N   0  0  0  0  0  0
  -25.9321  -11.6527   20.5740 N   0  0  0  0  0  0
  -22.0498  -12.8185   22.0426 N   0  0  0  0  0  0
  -25.4273  -15.1918   20.4217 N   0  0  0  0  0  0
  -31.8133  -14.7846   20.1198 O   0  0  0  0  0  0
  -21.6638   -6.8870   21.4238 O   0  0  0  0  0  0
  -22.3542  -14.5520   20.6730 O   0  0  0  0  0  0
  -24.6263  -31.8592   23.2024 C   0  0  0  0  0  0
  -25.9116  -32.4770   23.8345 C   0  0  1  0  0  0
  -27.2281  -27.3076   20.1279 C   0  0  0  0  0  0
  -25.5950  -33.8568   24.2275 N   0  0  0  0  0  0
  -23.4209  -30.4834   21.5455 C   0  0  2  0  0  0
  -24.8679  -28.9344   20.1153 C   0  0  0  0  0  0
  -22.7478  -29.4615   22.4945 C   0  0  0  0  0  0
  -18.0299  -28.1408   22.8483 C   0  0  0  0  0  0
  -24.1494  -36.7274   23.2615 C   0  0  0  0  0  0
  -25.9626  -30.7869   21.3763 C   0  0  0  0  0  0
  -26.0364  -29.4117   20.7208 C   0  0  0  0  0  0
  -27.2179  -28.6114   20.7161 C   0  0  0  0  0  0
  -26.0386  -26.8883   19.4904 C   0  0  0  0  0  0
  -24.8714  -27.6784   19.4890 C   0  0  0  0  0  0
  -23.6360  -29.8171   20.1612 C   0  0  0  0  0  0
  -25.4098  -36.3065   24.0336 C   0  0  1  0  0  0
  -20.5893  -28.3687   23.1320 C   0  0  2  0  0  0
  -20.6782  -26.9417   22.5444 C   0  0  0  0  0  0
  -19.5760  -26.6415   21.5227 C   0  0  0  0  0  0
  -18.1930  -26.7965   22.1622 C   0  0  0  0  0  0
  -19.1550  -28.8874   23.2896 C   0  0  0  0  0  0
  -18.9463  -30.1477   23.8904 C   0  0  0  0  0  0
  -17.6457  -30.6597   24.0578 C   0  0  0  0  0  0
  -25.9058  -34.9440   23.5102 C   0  0  0  0  0  0
  -16.5348  -29.9095   23.6351 C   0  0  0  0  0  0
  -16.7281  -28.6530   23.0345 C   0  0  0  0  0  0
  -26.4500  -31.6587   25.0715 C   0  0  0  0  0  0
  -25.3748  -31.3810   26.1479 C   0  0  0  0  0  0
  -27.0287  -30.2980   24.6190 C   0  0  0  0  0  0
  -27.6102  -32.4303   25.7435 C   0  0  0  0  0  0
  -27.5635  -37.1713   24.8391 C   0  0  0  0  0  0
  -21.4196  -29.3032   22.3692 N   0  0  0  0  0  0
  -26.4244  -37.3799   23.9487 N   0  0  0  0  0  0
  -24.6883  -31.0602   22.0972 N   0  0  0  0  0  0
  -23.4204  -28.8157   23.3029 O   0  0  0  0  0  0
  -28.3531  -26.4628   20.1513 O   0  0  0  0  0  0
  -26.5619  -34.8916   22.4664 O   0  0  0  0  0  0
  -23.5434  -32.1390   23.7358 O   0  0  0  0  0  0
  -31.2700  -17.8386   20.3228 C   0  0  0  0  0  0
  -28.9934  -18.0939   21.0193 C   0  0  0  0  0  0
  -31.3797  -19.2593   20.1779 C   0  0  0  0  0  0
  -30.2810  -20.1464   20.4390 C   0  0  0  0  0  0
  -30.0672  -17.2037   20.7280 C   0  0  0  0  0  0
  -29.0900  -19.5156   20.8886 C   0  0  0  0  0  0
  -29.3848  -24.0613   20.2015 C   0  0  0  0  0  0
  -32.7353  -19.8014   19.7445 C   0  0  0  0  0  0
  -30.4372  -21.7139   20.2439 C   0  0  0  0  0  0
  -28.1434  -25.0147   20.4494 C   0  0  0  0  0  0
  -29.8762  -15.7456   20.8583 N   0  0  0  0  0  0
  -29.3091  -22.7011   20.4123 N   0  0  0  0  0  0
  -30.4418  -24.5675   19.8124 O   0  0  0  0  0  0
  -28.0156  -20.2788   21.2075 F   0  0  0  0  0  0
  -31.4802  -12.5394   19.1507 H   0  0  0  0  0  0
  -30.3848  -11.4244   19.9174 H   0  0  0  0  0  0
  -29.7807  -11.7482   17.4943 H   0  0  0  0  0  0
  -29.6478  -13.4729   17.7435 H   0  0  0  0  0  0
  -27.8852  -11.2864   18.8946 H   0  0  0  0  0  0
  -27.3771  -12.5495   17.8013 H   0  0  0  0  0  0
  -27.6603  -14.2536   19.5016 H   0  0  0  0  0  0
  -28.7144  -12.0954   21.3991 H   0  0  0  0  0  0
  -28.4358  -13.7608   21.8270 H   0  0  0  0  0  0
  -25.2755   -9.5691   22.4724 H   0  0  0  0  0  0
  -24.0020   -7.4626   22.7431 H   0  0  0  0  0  0
  -21.0840   -8.8768   19.8951 H   0  0  0  0  0  0
  -22.3677  -10.9660   19.6162 H   0  0  0  0  0  0
  -21.2012   -7.6137   23.9711 H   0  0  0  0  0  0
  -21.1487   -6.0518   25.9078 H   0  0  0  0  0  0
  -22.0595   -2.7611   23.2845 H   0  0  0  0  0  0
  -22.4113  -11.9838   22.4798 H   0  0  0  0  0  0
  -21.1110  -13.1204   22.2627 H   0  0  0  0  0  0
  -24.6649  -15.8479   20.5489 H   0  0  0  0  0  0
  -26.2779  -15.6310   20.0947 H   0  0  0  0  0  0
  -26.7166  -32.5422   23.1072 H   0  0  0  0  0  0
  -25.0134  -33.9699   25.0454 H   0  0  0  0  0  0
  -22.7142  -31.3039   21.4060 H   0  0  0  0  0  0
  -23.3820  -35.9533   23.3099 H   0  0  0  0  0  0
  -24.3652  -36.9076   22.2069 H   0  0  0  0  0  0
  -23.7139  -37.6378   23.6739 H   0  0  0  0  0  0
  -26.1006  -31.5511   20.6112 H   0  0  0  0  0  0
  -26.8385  -30.8329   22.0112 H   0  0  0  0  0  0
  -28.1121  -28.9758   21.2012 H   0  0  0  0  0  0
  -25.9874  -25.9403   18.9777 H   0  0  0  0  0  0
  -23.9790  -27.3118   19.0008 H   0  0  0  0  0  0
  -23.7589  -30.5924   19.4030 H   0  0  0  0  0  0
  -22.7544  -29.2489   19.8588 H   0  0  0  0  0  0
  -25.1264  -36.1869   25.0824 H   0  0  0  0  0  0
  -21.0005  -28.3256   24.1430 H   0  0  0  0  0  0
  -20.5703  -26.2281   23.3631 H   0  0  0  0  0  0
  -21.6653  -26.7469   22.1235 H   0  0  0  0  0  0
  -19.6915  -25.6328   21.1256 H   0  0  0  0  0  0
  -19.6727  -27.3237   20.6762 H   0  0  0  0  0  0
  -17.4232  -26.6762   21.3974 H   0  0  0  0  0  0
  -18.0284  -26.0108   22.9020 H   0  0  0  0  0  0
  -19.7923  -30.7314   24.2269 H   0  0  0  0  0  0
  -17.5000  -31.6271   24.5198 H   0  0  0  0  0  0
  -15.5340  -30.2982   23.7679 H   0  0  0  0  0  0
  -15.8688  -28.0852   22.7034 H   0  0  0  0  0  0
  -24.5834  -30.7239   25.7851 H   0  0  0  0  0  0
  -24.9033  -32.3020   26.4914 H   0  0  0  0  0  0
  -25.8067  -30.8963   27.0242 H   0  0  0  0  0  0
  -26.2819  -29.6744   24.1248 H   0  0  0  0  0  0
  -27.3980  -29.7244   25.4701 H   0  0  0  0  0  0
  -27.8729  -30.4220   23.9401 H   0  0  0  0  0  0
  -27.2788  -33.3656   26.1965 H   0  0  0  0  0  0
  -28.3914  -32.6771   25.0228 H   0  0  0  0  0  0
  -28.0764  -31.8439   26.5369 H   0  0  0  0  0  0
  -28.2431  -38.0223   24.7805 H   0  0  0  0  0  0
  -28.1358  -36.2805   24.5735 H   0  0  0  0  0  0
  -27.2463  -37.0797   25.8794 H   0  0  0  0  0  0
  -20.9363  -29.8704   21.6862 H   0  0  0  0  0  0
  -26.0113  -38.2823   24.1702 H   0  0  0  0  0  0
  -32.1409  -17.2326   20.1157 H   0  0  0  0  0  0
  -28.0511  -17.6879   21.3547 H   0  0  0  0  0  0
  -33.4124  -18.9887   19.4745 H   0  0  0  0  0  0
  -33.2057  -20.3565   20.5568 H   0  0  0  0  0  0
  -32.6531  -20.4529   18.8741 H   0  0  0  0  0  0
  -30.8237  -21.8637   19.2351 H   0  0  0  0  0  0
  -31.2441  -22.0358   20.9055 H   0  0  0  0  0  0
  -27.8779  -24.9368   21.5051 H   0  0  0  0  0  0
  -27.3078  -24.5908   19.8979 H   0  0  0  0  0  0
  -28.9549  -15.4733   21.1658 H   0  0  0  0  0  0
  -28.4242  -22.3127   20.7166 H   0  0  0  0  0  0
  1 25  1  0  0  0
  1 30  2  0  0  0
  1 81  1  0  0  0
  2  3  1  0  0  0
  2 25  1  0  0  0
  2 85  1  0  0  0
  2 86  1  0  0  0
  3  4  1  0  0  0
  3 87  1  0  0  0
  3 88  1  0  0  0
  4  5  1  0  0  0
  4 89  1  0  0  0
  4 90  1  0  0  0
  5  6  1  0  0  0
  5 26  1  0  0  0
  5 91  1  0  0  0
  6 25  1  0  0  0
  6 92  1  0  0  0
  6 93  1  0  0  0
  7  8  2  0  0  0
  7 26  1  0  0  0
  7 29  1  0  0  0
  8  9  1  0  0  0
  8 22  1  0  0  0
  9 10  1  0  0  0
  9 27  2  0  0  0
 10 11  2  0  0  0
 10 15  1  0  0  0
 11 12  1  0  0  0
 11 94  1  0  0  0
 12 13  2  0  0  0
 12 95  1  0  0  0
 13 14  1  0  0  0
 13 31  1  0  0  0
 14 15  2  0  0  0
 14 96  1  0  0  0
 15 97  1  0  0  0
 16 17  2  0  0  0
 16 21  1  0  0  0
 16 31  1  0  0  0
 17 18  1  0  0  0
 17 98  1  0  0  0
 18 19  2  0  0  0
 18 99  1  0  0  0
 19 20  1  0  0  0
 19 24  1  0  0  0
 20 21  2  0  0  0
 20100  1  0  0  0
 21 23  1  0  0  0
 22 28  1  0  0  0
 22 32  2  0  0  0
 26 27  1  0  0  0
 28101  1  0  0  0
 28102  1  0  0  0
 29103  1  0  0  0
 29104  1  0  0  0
 33 34  1  0  0  0
 33 66  1  0  0  0
 33 70  2  0  0  0
 34 36  1  0  0  0
 34 59  1  0  0  0
 34105  1  0  0  0
 35 44  2  0  0  0
 35 45  1  0  0  0
 35 68  1  0  0  0
 36 56  1  0  0  0
 36106  1  0  0  0
 37 39  1  0  0  0
 37 47  1  0  0  0
 37 66  1  0  0  0
 37107  1  0  0  0
 38 43  2  0  0  0
 38 46  1  0  0  0
 38 47  1  0  0  0
 39 64  1  0  0  0
 39 67  2  0  0  0
 40 52  1  0  0  0
 40 53  2  0  0  0
 40 58  1  0  0  0
 41108  1  0  0  0
 41109  1  0  0  0
 41110  1  0  0  0
 41 48  1  0  0  0
 42 43  1  0  0  0
 42 66  1  0  0  0
 42111  1  0  0  0
 42112  1  0  0  0
 43 44  1  0  0  0
 44113  1  0  0  0
 45 46  2  0  0  0
 45114  1  0  0  0
 46115  1  0  0  0
 47116  1  0  0  0
 47117  1  0  0  0
 48 56  1  0  0  0
 48 65  1  0  0  0
 48118  1  0  0  0
 49 50  1  0  0  0
 49 53  1  0  0  0
 49 64  1  0  0  0
 49119  1  0  0  0
 50 51  1  0  0  0
 50120  1  0  0  0
 50121  1  0  0  0
 51 52  1  0  0  0
 51122  1  0  0  0
 51123  1  0  0  0
 52124  1  0  0  0
 52125  1  0  0  0
 53 54  1  0  0  0
 54 55  2  0  0  0
 54126  1  0  0  0
 55 57  1  0  0  0
 55127  1  0  0  0
 56 69  2  0  0  0
 57 58  2  0  0  0
 57128  1  0  0  0
 58129  1  0  0  0
 59 60  1  0  0  0
 59 61  1  0  0  0
 59 62  1  0  0  0
 60130  1  0  0  0
 60131  1  0  0  0
 60132  1  0  0  0
 61133  1  0  0  0
 61134  1  0  0  0
 61135  1  0  0  0
 62136  1  0  0  0
 62137  1  0  0  0
 62138  1  0  0  0
 63 65  1  0  0  0
 63139  1  0  0  0
 63140  1  0  0  0
 63141  1  0  0  0
 64142  1  0  0  0
 65143  1  0  0  0
 68 80  1  0  0  0
 71 73  2  0  0  0
 71 75  1  0  0  0
 71144  1  0  0  0
 72 75  2  0  0  0
 72 76  1  0  0  0
 72145  1  0  0  0
 73 74  1  0  0  0
 73 78  1  0  0  0
 74 76  2  0  0  0
 74 79  1  0  0  0
 75 81  1  0  0  0
 76 84  1  0  0  0
 77 80  1  0  0  0
 77 82  1  0  0  0
 77 83  2  0  0  0
 78146  1  0  0  0
 78147  1  0  0  0
 78148  1  0  0  0
 79 82  1  0  0  0
 79149  1  0  0  0
 79150  1  0  0  0
 80151  1  0  0  0
 80152  1  0  0  0
 81153  1  0  0  0
 82154  1  0  0  0
M  ISO  4   1 100  68 101  80 101  81 100
M  END
> <chiral flag>
0

> <version>
0

> <s_m_source_file>
/data/baiqing/PycharmProjects/Reinvent-master-3.2/result/LINK_invent/BTK/process_docking_weight1_custom_product_contain_oxygen_bond_distance_aromatic_linkinvent_7_9_3/rearranged_h_0052.sdf

> <i_m_source_file_index>
7

> <r_mmod_Potential_Energy-OPLS-2005>
45.3062362670898

> <r_mmod_Stretch_Energy-OPLS-2005>
90.8445587158203

> <r_mmod_Bend_Energy-OPLS-2005>
142.159408569336

> <r_mmod_Torsional_Energy-OPLS-2005>
213.427352905273

> <r_mmod_Improper_Torsional_Energy-OPLS-2005>
3.66847109794617

> <r_mmod_Van_der_Waal_Energy-OPLS-2005>
145.047409057617

> <r_mmod_Electrostatic_Energy-OPLS-2005>
-369.868865966797

> <r_mmod_Solvation_Energy-OPLS-2005>
-233.679229736328

> <b_mmod_Minimization_Converged-OPLS-2005>
0

> <r_mmod_RMS_Derivative-OPLS-2005>
3.25357174873352

$$$$
7
                    3D
 Structure written by MMmdl.
157165  0  0  1  0            999 V2000
  -30.6847  -14.4946   20.5106 C   0  0  0  0  0  0
  -30.4248  -12.3008   19.4400 C   0  0  0  0  0  0
  -29.5027  -12.4980   18.2173 C   0  0  0  0  0  0
  -28.0216  -12.3622   18.6240 C   0  0  0  0  0  0
  -27.6618  -13.2073   19.8757 C   0  0  2  0  0  0
  -28.7048  -13.0106   21.0027 C   0  0  0  0  0  0
  -25.2585  -13.8152   20.5680 C   0  0  0  0  0  0
  -24.1835  -13.0432   20.9175 C   0  0  0  0  0  0
  -24.6397  -11.6902   20.8729 C   0  0  0  0  0  0
  -23.9063  -10.4292   21.0401 C   0  0  0  0  0  0
  -24.3608   -9.4207   21.9175 C   0  0  0  0  0  0
  -23.6280   -8.2244   22.0751 C   0  0  0  0  0  0
  -22.4260   -8.0282   21.3549 C   0  0  0  0  0  0
  -21.9899   -9.0258   20.4644 C   0  0  0  0  0  0
  -22.7237  -10.2133   20.3047 C   0  0  0  0  0  0
  -21.6851   -6.0730   22.5276 C   0  0  0  0  0  0
  -21.4019   -6.5631   23.8211 C   0  0  0  0  0  0
  -21.3662   -5.6784   24.9170 C   0  0  0  0  0  0
  -21.6039   -4.3045   24.7222 C   0  0  0  0  0  0
  -21.8821   -3.8140   23.4343 C   0  0  0  0  0  0
  -21.9195   -4.6957   22.3396 C   0  0  0  0  0  0
  -22.7857  -13.5236   21.1835 C   0  0  0  0  0  0
  -22.1659   -4.2146   21.0975 F   0  0  0  0  0  0
  -21.5631   -3.4528   25.7734 F   0  0  0  0  0  0
  -30.0375  -13.2992   20.4490 N   0  0  0  0  0  0
  -26.3028  -12.9329   20.3368 N   0  0  0  0  0  0
  -25.9325  -11.6490   20.5757 N   0  0  0  0  0  0
  -22.0495  -12.8233   22.0397 N   0  0  0  0  0  0
  -25.4293  -15.1872   20.4086 N   0  0  0  0  0  0
  -31.8378  -14.6532   20.1029 O   0  0  0  0  0  0
  -21.6629   -6.8870   21.4239 O   0  0  0  0  0  0
  -22.3542  -14.5547   20.6694 O   0  0  0  0  0  0
  -24.6151  -31.8665   23.2080 C   0  0  0  0  0  0
  -25.9045  -32.4812   23.8381 C   0  0  1  0  0  0
  -27.2334  -27.4267   20.1059 C   0  0  0  0  0  0
  -25.5900  -33.8604   24.2314 N   0  0  0  0  0  0
  -23.4039  -30.4898   21.5474 C   0  0  2  0  0  0
  -24.8522  -28.9551   20.1140 C   0  0  0  0  0  0
  -22.7415  -29.4649   22.4967 C   0  0  0  0  0  0
  -18.0275  -28.1367   22.8484 C   0  0  0  0  0  0
  -24.1486  -36.7307   23.2635 C   0  0  0  0  0  0
  -25.9336  -30.8325   21.3623 C   0  0  0  0  0  0
  -26.0129  -29.4668   20.7086 C   0  0  0  0  0  0
  -27.2096  -28.7119   20.6967 C   0  0  0  0  0  0
  -26.0595  -26.9348   19.4964 C   0  0  0  0  0  0
  -24.8712  -27.6894   19.5024 C   0  0  0  0  0  0
  -23.6139  -29.8215   20.1621 C   0  0  0  0  0  0
  -25.4103  -36.3097   24.0332 C   0  0  1  0  0  0
  -20.5868  -28.3654   23.1304 C   0  0  2  0  0  0
  -20.6765  -26.9386   22.5409 C   0  0  0  0  0  0
  -19.5747  -26.6378   21.5197 C   0  0  0  0  0  0
  -18.1925  -26.7912   22.1614 C   0  0  0  0  0  0
  -19.1526  -28.8825   23.2895 C   0  0  0  0  0  0
  -18.9458  -30.1431   23.8910 C   0  0  0  0  0  0
  -17.6461  -30.6571   24.0564 C   0  0  0  0  0  0
  -25.9032  -34.9465   23.5119 C   0  0  0  0  0  0
  -16.5351  -29.9075   23.6322 C   0  0  0  0  0  0
  -16.7266  -28.6494   23.0343 C   0  0  0  0  0  0
  -26.4475  -31.6587   25.0709 C   0  0  0  0  0  0
  -25.3749  -31.3705   26.1461 C   0  0  0  0  0  0
  -27.0293  -30.3026   24.6080 C   0  0  0  0  0  0
  -27.6050  -32.4303   25.7479 C   0  0  0  0  0  0
  -27.5578  -37.1799   24.8456 C   0  0  0  0  0  0
  -21.4142  -29.3026   22.3710 N   0  0  0  0  0  0
  -26.4287  -37.3788   23.9411 N   0  0  0  0  0  0
  -24.6688  -31.0773   22.0976 N   0  0  0  0  0  0
  -23.4188  -28.8188   23.3004 O   0  0  0  0  0  0
  -28.3851  -26.6676   20.1100 O   0  0  0  0  0  0
  -26.5594  -34.8924   22.4681 O   0  0  0  0  0  0
  -23.5346  -32.1413   23.7477 O   0  0  0  0  0  0
  -30.3224  -18.1749   22.1877 C   0  0  0  0  0  0
  -30.4328  -19.4135   22.8510 C   0  0  0  0  0  0
  -29.8428  -19.3662   20.1237 C   0  0  0  0  0  0
  -30.0356  -18.1401   20.8094 C   0  0  0  0  0  0
  -30.2691  -20.6362   22.1589 C   0  0  0  0  0  0
  -29.9527  -20.6241   20.7729 C   0  0  0  0  0  0
  -29.0616  -24.2817   19.9674 C   0  0  0  0  0  0
  -30.4878  -21.9296   22.9282 C   0  0  0  0  0  0
  -29.9857  -16.8275   20.0184 C   0  0  0  0  0  0
  -29.8323  -21.9034   19.9154 C   0  0  0  0  0  0
  -28.2657  -25.3656   20.7296 C   0  0  0  0  0  0
  -29.0838  -23.0356   20.4832 N   0  0  0  0  0  0
  -29.8912  -15.5548   20.7603 N   0  0  0  0  0  0
  -29.6541  -24.5639   18.9213 O   0  0  0  0  0  0
  -31.4726  -12.3862   19.1457 H   0  0  0  0  0  0
  -30.3136  -11.2938   19.8456 H   0  0  0  0  0  0
  -29.7462  -11.7731   17.4407 H   0  0  0  0  0  0
  -29.6760  -13.4822   17.7769 H   0  0  0  0  0  0
  -27.8285  -11.3066   18.8214 H   0  0  0  0  0  0
  -27.3767  -12.6379   17.7891 H   0  0  0  0  0  0
  -27.6983  -14.2510   19.5637 H   0  0  0  0  0  0
  -28.6759  -11.9852   21.3734 H   0  0  0  0  0  0
  -28.4788  -13.6429   21.8632 H   0  0  0  0  0  0
  -25.2759   -9.5676   22.4751 H   0  0  0  0  0  0
  -23.9997   -7.4623   22.7461 H   0  0  0  0  0  0
  -21.0838   -8.8773   19.8938 H   0  0  0  0  0  0
  -22.3704  -10.9665   19.6142 H   0  0  0  0  0  0
  -21.2013   -7.6139   23.9715 H   0  0  0  0  0  0
  -21.1483   -6.0509   25.9074 H   0  0  0  0  0  0
  -22.0601   -2.7605   23.2840 H   0  0  0  0  0  0
  -22.4100  -11.9890   22.4794 H   0  0  0  0  0  0
  -21.1118  -13.1261   22.2602 H   0  0  0  0  0  0
  -24.6613  -15.8400   20.5188 H   0  0  0  0  0  0
  -26.2787  -15.6315   20.0863 H   0  0  0  0  0  0
  -26.7113  -32.5528   23.1144 H   0  0  0  0  0  0
  -25.0068  -33.9769   25.0474 H   0  0  0  0  0  0
  -22.6925  -31.3055   21.4062 H   0  0  0  0  0  0
  -23.3747  -35.9641   23.3295 H   0  0  0  0  0  0
  -24.3585  -36.8927   22.2050 H   0  0  0  0  0  0
  -23.7244  -37.6511   23.6659 H   0  0  0  0  0  0
  -26.0489  -31.6007   20.5961 H   0  0  0  0  0  0
  -26.8200  -30.8839   21.9828 H   0  0  0  0  0  0
  -28.1069  -29.1030   21.1562 H   0  0  0  0  0  0
  -26.0614  -25.9659   19.0163 H   0  0  0  0  0  0
  -23.9806  -27.2921   19.0355 H   0  0  0  0  0  0
  -23.7239  -30.5948   19.4006 H   0  0  0  0  0  0
  -22.7394  -29.2400   19.8655 H   0  0  0  0  0  0
  -25.1284  -36.1953   25.0826 H   0  0  0  0  0  0
  -20.9969  -28.3221   24.1420 H   0  0  0  0  0  0
  -20.5648  -26.2260   23.3596 H   0  0  0  0  0  0
  -21.6640  -26.7413   22.1216 H   0  0  0  0  0  0
  -19.6907  -25.6290   21.1220 H   0  0  0  0  0  0
  -19.6686  -27.3191   20.6728 H   0  0  0  0  0  0
  -17.4192  -26.6653   21.4018 H   0  0  0  0  0  0
  -18.0335  -26.0049   22.9007 H   0  0  0  0  0  0
  -19.7937  -30.7235   24.2295 H   0  0  0  0  0  0
  -17.5018  -31.6252   24.5161 H   0  0  0  0  0  0
  -15.5352  -30.2982   23.7633 H   0  0  0  0  0  0
  -15.8668  -28.0812   22.7055 H   0  0  0  0  0  0
  -24.5894  -30.7079   25.7807 H   0  0  0  0  0  0
  -24.8976  -32.2869   26.4939 H   0  0  0  0  0  0
  -25.8106  -30.8847   27.0201 H   0  0  0  0  0  0
  -26.2821  -29.6788   24.1157 H   0  0  0  0  0  0
  -27.4086  -29.7261   25.4528 H   0  0  0  0  0  0
  -27.8653  -30.4335   23.9204 H   0  0  0  0  0  0
  -27.2662  -33.3592   26.2083 H   0  0  0  0  0  0
  -28.3855  -32.6874   25.0305 H   0  0  0  0  0  0
  -28.0716  -31.8402   26.5381 H   0  0  0  0  0  0
  -28.2583  -38.0111   24.7528 H   0  0  0  0  0  0
  -28.1091  -36.2644   24.6249 H   0  0  0  0  0  0
  -27.2306  -37.1411   25.8862 H   0  0  0  0  0  0
  -20.9297  -29.8754   21.6940 H   0  0  0  0  0  0
  -26.0169  -38.2862   24.1430 H   0  0  0  0  0  0
  -30.4878  -17.2584   22.7374 H   0  0  0  0  0  0
  -30.6780  -19.4169   23.9045 H   0  0  0  0  0  0
  -29.6370  -19.3376   19.0618 H   0  0  0  0  0  0
  -31.0046  -21.7496   23.8714 H   0  0  0  0  0  0
  -29.5356  -22.4044   23.1620 H   0  0  0  0  0  0
  -31.0973  -22.6288   22.3553 H   0  0  0  0  0  0
  -30.8454  -16.8251   19.3456 H   0  0  0  0  0  0
  -29.1125  -16.8701   19.3652 H   0  0  0  0  0  0
  -29.3787  -21.6516   18.9550 H   0  0  0  0  0  0
  -30.8485  -22.2304   19.6878 H   0  0  0  0  0  0
  -28.6641  -25.4379   21.7425 H   0  0  0  0  0  0
  -27.2336  -25.0280   20.8316 H   0  0  0  0  0  0
  -28.5603  -22.8619   21.3299 H   0  0  0  0  0  0
  -28.9807  -15.3311   21.1298 H   0  0  0  0  0  0
  1 25  1  0  0  0
  1 30  2  0  0  0
  1 83  1  0  0  0
  2  3  1  0  0  0
  2 25  1  0  0  0
  2 85  1  0  0  0
  2 86  1  0  0  0
  3  4  1  0  0  0
  3 87  1  0  0  0
  3 88  1  0  0  0
  4  5  1  0  0  0
  4 89  1  0  0  0
  4 90  1  0  0  0
  5  6  1  0  0  0
  5 26  1  0  0  0
  5 91  1  0  0  0
  6 25  1  0  0  0
  6 92  1  0  0  0
  6 93  1  0  0  0
  7  8  2  0  0  0
  7 26  1  0  0  0
  7 29  1  0  0  0
  8  9  1  0  0  0
  8 22  1  0  0  0
  9 10  1  0  0  0
  9 27  2  0  0  0
 10 11  2  0  0  0
 10 15  1  0  0  0
 11 12  1  0  0  0
 11 94  1  0  0  0
 12 13  2  0  0  0
 12 95  1  0  0  0
 13 14  1  0  0  0
 13 31  1  0  0  0
 14 15  2  0  0  0
 14 96  1  0  0  0
 15 97  1  0  0  0
 16 17  2  0  0  0
 16 21  1  0  0  0
 16 31  1  0  0  0
 17 18  1  0  0  0
 17 98  1  0  0  0
 18 19  2  0  0  0
 18 99  1  0  0  0
 19 20  1  0  0  0
 19 24  1  0  0  0
 20 21  2  0  0  0
 20100  1  0  0  0
 21 23  1  0  0  0
 22 28  1  0  0  0
 22 32  2  0  0  0
 26 27  1  0  0  0
 28101  1  0  0  0
 28102  1  0  0  0
 29103  1  0  0  0
 29104  1  0  0  0
 33 34  1  0  0  0
 33 66  1  0  0  0
 33 70  2  0  0  0
 34 36  1  0  0  0
 34 59  1  0  0  0
 34105  1  0  0  0
 35 44  2  0  0  0
 35 45  1  0  0  0
 35 68  1  0  0  0
 36 56  1  0  0  0
 36106  1  0  0  0
 37 39  1  0  0  0
 37 47  1  0  0  0
 37 66  1  0  0  0
 37107  1  0  0  0
 38 43  2  0  0  0
 38 46  1  0  0  0
 38 47  1  0  0  0
 39 64  1  0  0  0
 39 67  2  0  0  0
 40 52  1  0  0  0
 40 53  2  0  0  0
 40 58  1  0  0  0
 41108  1  0  0  0
 41109  1  0  0  0
 41110  1  0  0  0
 41 48  1  0  0  0
 42 43  1  0  0  0
 42 66  1  0  0  0
 42111  1  0  0  0
 42112  1  0  0  0
 43 44  1  0  0  0
 44113  1  0  0  0
 45 46  2  0  0  0
 45114  1  0  0  0
 46115  1  0  0  0
 47116  1  0  0  0
 47117  1  0  0  0
 48 56  1  0  0  0
 48 65  1  0  0  0
 48118  1  0  0  0
 49 50  1  0  0  0
 49 53  1  0  0  0
 49 64  1  0  0  0
 49119  1  0  0  0
 50 51  1  0  0  0
 50120  1  0  0  0
 50121  1  0  0  0
 51 52  1  0  0  0
 51122  1  0  0  0
 51123  1  0  0  0
 52124  1  0  0  0
 52125  1  0  0  0
 53 54  1  0  0  0
 54 55  2  0  0  0
 54126  1  0  0  0
 55 57  1  0  0  0
 55127  1  0  0  0
 56 69  2  0  0  0
 57 58  2  0  0  0
 57128  1  0  0  0
 58129  1  0  0  0
 59 60  1  0  0  0
 59 61  1  0  0  0
 59 62  1  0  0  0
 60130  1  0  0  0
 60131  1  0  0  0
 60132  1  0  0  0
 61133  1  0  0  0
 61134  1  0  0  0
 61135  1  0  0  0
 62136  1  0  0  0
 62137  1  0  0  0
 62138  1  0  0  0
 63 65  1  0  0  0
 63139  1  0  0  0
 63140  1  0  0  0
 63141  1  0  0  0
 64142  1  0  0  0
 65143  1  0  0  0
 68 81  1  0  0  0
 71 72  2  0  0  0
 71 74  1  0  0  0
 71144  1  0  0  0
 72 75  1  0  0  0
 72145  1  0  0  0
 73 74  2  0  0  0
 73 76  1  0  0  0
 73146  1  0  0  0
 74 79  1  0  0  0
 75 76  2  0  0  0
 75 78  1  0  0  0
 76 80  1  0  0  0
 77 81  1  0  0  0
 77 82  1  0  0  0
 77 84  2  0  0  0
 78147  1  0  0  0
 78148  1  0  0  0
 78149  1  0  0  0
 79 83  1  0  0  0
 79150  1  0  0  0
 79151  1  0  0  0
 80 82  1  0  0  0
 80152  1  0  0  0
 80153  1  0  0  0
 81154  1  0  0  0
 81155  1  0  0  0
 82156  1  0  0  0
 83157  1  0  0  0
M  ISO  4   1 100  68 101  81 101  83 100
M  END
> <chiral flag>
0

> <version>
0

> <s_m_source_file>
/data/baiqing/PycharmProjects/Reinvent-master-3.2/result/LINK_invent/BTK/process_docking_weight1_custom_product_contain_oxygen_bond_distance_aromatic_linkinvent_7_9_3/rearranged_h_0052.sdf

> <i_m_source_file_index>
8

> <r_mmod_Potential_Energy-OPLS-2005>
-146.974548339844

> <r_mmod_Stretch_Energy-OPLS-2005>
40.5545043945312

> <r_mmod_Bend_Energy-OPLS-2005>
95.8265075683594

> <r_mmod_Torsional_Energy-OPLS-2005>
230.155899047852

> <r_mmod_Improper_Torsional_Energy-OPLS-2005>
9.74567699432373

> <r_mmod_Van_der_Waal_Energy-OPLS-2005>
153.133743286133

> <r_mmod_Electrostatic_Energy-OPLS-2005>
-448.161193847656

> <r_mmod_Solvation_Energy-OPLS-2005>
-244.354339599609

> <b_mmod_Minimization_Converged-OPLS-2005>
0

> <r_mmod_RMS_Derivative-OPLS-2005>
1.45697891712189

$$$$
8
                    3D
 Structure written by MMmdl.
157165  0  0  1  0            999 V2000
  -30.6134  -14.7594   20.4596 C   0  0  0  0  0  0
  -30.4310  -12.4663   19.4774 C   0  0  0  0  0  0
  -29.5075  -12.5105   18.2400 C   0  0  0  0  0  0
  -28.0345  -12.3327   18.6548 C   0  0  0  0  0  0
  -27.6378  -13.2365   19.8520 C   0  0  2  0  0  0
  -28.6838  -13.1826   20.9877 C   0  0  0  0  0  0
  -25.2458  -13.8196   20.5697 C   0  0  0  0  0  0
  -24.1769  -13.0430   20.9231 C   0  0  0  0  0  0
  -24.6373  -11.6904   20.8764 C   0  0  0  0  0  0
  -23.9048  -10.4278   21.0414 C   0  0  0  0  0  0
  -24.3602   -9.4199   21.9190 C   0  0  0  0  0  0
  -23.6280   -8.2235   22.0753 C   0  0  0  0  0  0
  -22.4263   -8.0271   21.3541 C   0  0  0  0  0  0
  -21.9901   -9.0237   20.4645 C   0  0  0  0  0  0
  -22.7224  -10.2119   20.3057 C   0  0  0  0  0  0
  -21.6856   -6.0714   22.5262 C   0  0  0  0  0  0
  -21.4015   -6.5626   23.8190 C   0  0  0  0  0  0
  -21.3662   -5.6788   24.9158 C   0  0  0  0  0  0
  -21.6053   -4.3049   24.7222 C   0  0  0  0  0  0
  -21.8818   -3.8130   23.4348 C   0  0  0  0  0  0
  -21.9191   -4.6944   22.3397 C   0  0  0  0  0  0
  -22.7789  -13.5209   21.1886 C   0  0  0  0  0  0
  -22.1659   -4.2122   21.0980 F   0  0  0  0  0  0
  -21.5636   -3.4536   25.7745 F   0  0  0  0  0  0
  -29.9829  -13.5351   20.4013 N   0  0  0  0  0  0
  -26.2904  -12.9414   20.3296 N   0  0  0  0  0  0
  -25.9310  -11.6548   20.5777 N   0  0  0  0  0  0
  -22.0437  -12.8187   22.0438 N   0  0  0  0  0  0
  -25.4100  -15.1902   20.4026 N   0  0  0  0  0  0
  -31.8066  -14.8264   20.1533 O   0  0  0  0  0  0
  -21.6637   -6.8857   21.4226 O   0  0  0  0  0  0
  -22.3466  -14.5513   20.6735 O   0  0  0  0  0  0
  -24.6291  -31.8542   23.1961 C   0  0  0  0  0  0
  -25.9117  -32.4753   23.8326 C   0  0  1  0  0  0
  -27.2313  -27.2697   20.1282 C   0  0  0  0  0  0
  -25.5911  -33.8551   24.2230 N   0  0  0  0  0  0
  -23.4276  -30.4741   21.5368 C   0  0  2  0  0  0
  -24.8777  -28.9206   20.1067 C   0  0  0  0  0  0
  -22.7508  -29.4584   22.4896 C   0  0  0  0  0  0
  -18.0291  -28.1376   22.8480 C   0  0  0  0  0  0
  -24.1493  -36.7284   23.2643 C   0  0  0  0  0  0
  -25.9724  -30.7719   21.3736 C   0  0  0  0  0  0
  -26.0451  -29.3946   20.7154 C   0  0  0  0  0  0
  -27.2191  -28.5796   20.7166 C   0  0  0  0  0  0
  -26.0352  -26.8498   19.5053 C   0  0  0  0  0  0
  -24.8786  -27.6573   19.4923 C   0  0  0  0  0  0
  -23.6460  -29.8030   20.1540 C   0  0  0  0  0  0
  -25.4118  -36.3059   24.0323 C   0  0  1  0  0  0
  -20.5894  -28.3679   23.1275 C   0  0  2  0  0  0
  -20.6775  -26.9387   22.5426 C   0  0  0  0  0  0
  -19.5752  -26.6363   21.5227 C   0  0  0  0  0  0
  -18.1919  -26.7921   22.1616 C   0  0  0  0  0  0
  -19.1549  -28.8845   23.2873 C   0  0  0  0  0  0
  -18.9478  -30.1438   23.8900 C   0  0  0  0  0  0
  -17.6474  -30.6583   24.0554 C   0  0  0  0  0  0
  -25.9061  -34.9437   23.5085 C   0  0  0  0  0  0
  -16.5366  -29.9081   23.6335 C   0  0  0  0  0  0
  -16.7279  -28.6498   23.0354 C   0  0  0  0  0  0
  -26.4497  -31.6586   25.0718 C   0  0  0  0  0  0
  -25.3701  -31.3756   26.1429 C   0  0  0  0  0  0
  -27.0351  -30.3001   24.6204 C   0  0  0  0  0  0
  -27.6040  -32.4355   25.7489 C   0  0  0  0  0  0
  -27.5584  -37.1773   24.8451 C   0  0  0  0  0  0
  -21.4215  -29.3020   22.3660 N   0  0  0  0  0  0
  -26.4291  -37.3757   23.9414 N   0  0  0  0  0  0
  -24.6949  -31.0509   22.0933 N   0  0  0  0  0  0
  -23.4210  -28.8128   23.3002 O   0  0  0  0  0  0
  -28.3560  -26.4223   20.2250 O   0  0  0  0  0  0
  -26.5643  -34.8916   22.4663 O   0  0  0  0  0  0
  -23.5440  -32.1376   23.7241 O   0  0  0  0  0  0
  -31.8613  -19.1578   20.6867 C   0  0  0  0  0  0
  -30.8956  -20.1792   20.5978 C   0  0  0  0  0  0
  -31.5028  -17.7948   20.6975 C   0  0  0  0  0  0
  -29.5230  -19.8766   20.5143 C   0  0  0  0  0  0
  -29.1689  -18.4522   20.5171 C   0  0  0  0  0  0
  -30.1544  -17.3687   20.6044 C   0  0  0  0  0  0
  -28.3914  -23.7366   20.4222 C   0  0  0  0  0  0
  -27.6949  -18.1003   20.4226 C   0  0  0  0  0  0
  -29.3575  -22.4115   18.5742 C   0  0  0  0  0  0
  -28.4922  -21.1062   20.5292 C   0  0  0  0  0  0
  -28.4882  -25.0876   19.5491 C   0  0  0  0  0  0
  -29.8338  -15.9040   20.6425 N   0  0  0  0  0  0
  -28.7894  -22.4891   19.9226 N   0  0  0  0  0  0
  -27.9068  -23.8293   21.5545 O   0  0  0  0  0  0
  -31.4706  -12.5904   19.1699 H   0  0  0  0  0  0
  -30.3790  -11.4926   19.9669 H   0  0  0  0  0  0
  -29.7894  -11.7321   17.5300 H   0  0  0  0  0  0
  -29.6316  -13.4627   17.7206 H   0  0  0  0  0  0
  -27.8938  -11.2854   18.9235 H   0  0  0  0  0  0
  -27.3765  -12.5212   17.8060 H   0  0  0  0  0  0
  -27.6268  -14.2562   19.4665 H   0  0  0  0  0  0
  -28.7204  -12.1896   21.4383 H   0  0  0  0  0  0
  -28.4174  -13.8737   21.7899 H   0  0  0  0  0  0
  -25.2737   -9.5682   22.4774 H   0  0  0  0  0  0
  -23.9977   -7.4634   22.7481 H   0  0  0  0  0  0
  -21.0833   -8.8765   19.8958 H   0  0  0  0  0  0
  -22.3679  -10.9663   19.6175 H   0  0  0  0  0  0
  -21.2004   -7.6133   23.9688 H   0  0  0  0  0  0
  -21.1495   -6.0522   25.9064 H   0  0  0  0  0  0
  -22.0600   -2.7590   23.2859 H   0  0  0  0  0  0
  -22.4052  -11.9842   22.4818 H   0  0  0  0  0  0
  -21.1061  -13.1206   22.2669 H   0  0  0  0  0  0
  -24.6320  -15.8351   20.4874 H   0  0  0  0  0  0
  -26.2280  -15.6122   19.9879 H   0  0  0  0  0  0
  -26.7172  -32.5392   23.1057 H   0  0  0  0  0  0
  -25.0019  -33.9706   25.0347 H   0  0  0  0  0  0
  -22.7232  -31.2940   21.3814 H   0  0  0  0  0  0
  -23.3764  -35.9600   23.3280 H   0  0  0  0  0  0
  -24.3586  -36.8959   22.2065 H   0  0  0  0  0  0
  -23.7248  -37.6473   23.6704 H   0  0  0  0  0  0
  -26.1073  -31.5305   20.6017 H   0  0  0  0  0  0
  -26.8538  -30.8233   22.0026 H   0  0  0  0  0  0
  -28.1138  -28.9379   21.2068 H   0  0  0  0  0  0
  -25.9568  -25.8730   19.0545 H   0  0  0  0  0  0
  -23.9797  -27.2877   19.0186 H   0  0  0  0  0  0
  -23.7622  -30.5768   19.3946 H   0  0  0  0  0  0
  -22.7687  -29.2274   19.8527 H   0  0  0  0  0  0
  -25.1286  -36.1909   25.0813 H   0  0  0  0  0  0
  -20.9983  -28.3267   24.1402 H   0  0  0  0  0  0
  -20.5679  -26.2274   23.3630 H   0  0  0  0  0  0
  -21.6634  -26.7399   22.1198 H   0  0  0  0  0  0
  -19.6932  -25.6281   21.1252 H   0  0  0  0  0  0
  -19.6726  -27.3170   20.6760 H   0  0  0  0  0  0
  -17.4197  -26.6697   21.4012 H   0  0  0  0  0  0
  -18.0291  -26.0056   22.9007 H   0  0  0  0  0  0
  -19.7962  -30.7235   24.2276 H   0  0  0  0  0  0
  -17.5037  -31.6265   24.5138 H   0  0  0  0  0  0
  -15.5365  -30.2972   23.7657 H   0  0  0  0  0  0
  -15.8687  -28.0812   22.7079 H   0  0  0  0  0  0
  -24.5895  -30.7088   25.7751 H   0  0  0  0  0  0
  -24.8865  -32.2930   26.4803 H   0  0  0  0  0  0
  -25.8000  -30.8978   27.0239 H   0  0  0  0  0  0
  -26.2933  -29.6741   24.1233 H   0  0  0  0  0  0
  -27.4042  -29.7286   25.4731 H   0  0  0  0  0  0
  -27.8801  -30.4280   23.9428 H   0  0  0  0  0  0
  -27.2658  -33.3692   26.1991 H   0  0  0  0  0  0
  -28.3888  -32.6881   25.0347 H   0  0  0  0  0  0
  -28.0649  -31.8533   26.5471 H   0  0  0  0  0  0
  -28.2535  -38.0121   24.7517 H   0  0  0  0  0  0
  -28.1145  -36.2650   24.6242 H   0  0  0  0  0  0
  -27.2293  -37.1355   25.8846 H   0  0  0  0  0  0
  -20.9389  -29.8752   21.6877 H   0  0  0  0  0  0
  -26.0176  -38.2831   24.1456 H   0  0  0  0  0  0
  -32.9062  -19.4248   20.7645 H   0  0  0  0  0  0
  -31.2180  -21.2113   20.6199 H   0  0  0  0  0  0
  -32.3078  -17.0834   20.7936 H   0  0  0  0  0  0
  -27.1571  -18.4575   21.3008 H   0  0  0  0  0  0
  -27.5250  -17.0304   20.3385 H   0  0  0  0  0  0
  -27.2549  -18.5637   19.5391 H   0  0  0  0  0  0
  -28.7703  -22.9789   17.8520 H   0  0  0  0  0  0
  -29.3881  -21.3881   18.2026 H   0  0  0  0  0  0
  -30.3778  -22.7939   18.5676 H   0  0  0  0  0  0
  -28.2176  -21.2498   21.5752 H   0  0  0  0  0  0
  -27.5719  -20.7774   20.0474 H   0  0  0  0  0  0
  -27.8397  -25.0113   18.6786 H   0  0  0  0  0  0
  -29.4945  -25.1007   19.1294 H   0  0  0  0  0  0
  -28.8591  -15.6920   20.7827 H   0  0  0  0  0  0
  1 25  1  0  0  0
  1 30  2  0  0  0
  1 82  1  0  0  0
  2  3  1  0  0  0
  2 25  1  0  0  0
  2 85  1  0  0  0
  2 86  1  0  0  0
  3  4  1  0  0  0
  3 87  1  0  0  0
  3 88  1  0  0  0
  4  5  1  0  0  0
  4 89  1  0  0  0
  4 90  1  0  0  0
  5  6  1  0  0  0
  5 26  1  0  0  0
  5 91  1  0  0  0
  6 25  1  0  0  0
  6 92  1  0  0  0
  6 93  1  0  0  0
  7  8  2  0  0  0
  7 26  1  0  0  0
  7 29  1  0  0  0
  8  9  1  0  0  0
  8 22  1  0  0  0
  9 10  1  0  0  0
  9 27  2  0  0  0
 10 11  2  0  0  0
 10 15  1  0  0  0
 11 12  1  0  0  0
 11 94  1  0  0  0
 12 13  2  0  0  0
 12 95  1  0  0  0
 13 14  1  0  0  0
 13 31  1  0  0  0
 14 15  2  0  0  0
 14 96  1  0  0  0
 15 97  1  0  0  0
 16 17  2  0  0  0
 16 21  1  0  0  0
 16 31  1  0  0  0
 17 18  1  0  0  0
 17 98  1  0  0  0
 18 19  2  0  0  0
 18 99  1  0  0  0
 19 20  1  0  0  0
 19 24  1  0  0  0
 20 21  2  0  0  0
 20100  1  0  0  0
 21 23  1  0  0  0
 22 28  1  0  0  0
 22 32  2  0  0  0
 26 27  1  0  0  0
 28101  1  0  0  0
 28102  1  0  0  0
 29103  1  0  0  0
 29104  1  0  0  0
 33 34  1  0  0  0
 33 66  1  0  0  0
 33 70  2  0  0  0
 34 36  1  0  0  0
 34 59  1  0  0  0
 34105  1  0  0  0
 35 44  2  0  0  0
 35 45  1  0  0  0
 35 68  1  0  0  0
 36 56  1  0  0  0
 36106  1  0  0  0
 37 39  1  0  0  0
 37 47  1  0  0  0
 37 66  1  0  0  0
 37107  1  0  0  0
 38 43  2  0  0  0
 38 46  1  0  0  0
 38 47  1  0  0  0
 39 64  1  0  0  0
 39 67  2  0  0  0
 40 52  1  0  0  0
 40 53  2  0  0  0
 40 58  1  0  0  0
 41108  1  0  0  0
 41109  1  0  0  0
 41110  1  0  0  0
 41 48  1  0  0  0
 42 43  1  0  0  0
 42 66  1  0  0  0
 42111  1  0  0  0
 42112  1  0  0  0
 43 44  1  0  0  0
 44113  1  0  0  0
 45 46  2  0  0  0
 45114  1  0  0  0
 46115  1  0  0  0
 47116  1  0  0  0
 47117  1  0  0  0
 48 56  1  0  0  0
 48 65  1  0  0  0
 48118  1  0  0  0
 49 50  1  0  0  0
 49 53  1  0  0  0
 49 64  1  0  0  0
 49119  1  0  0  0
 50 51  1  0  0  0
 50120  1  0  0  0
 50121  1  0  0  0
 51 52  1  0  0  0
 51122  1  0  0  0
 51123  1  0  0  0
 52124  1  0  0  0
 52125  1  0  0  0
 53 54  1  0  0  0
 54 55  2  0  0  0
 54126  1  0  0  0
 55 57  1  0  0  0
 55127  1  0  0  0
 56 69  2  0  0  0
 57 58  2  0  0  0
 57128  1  0  0  0
 58129  1  0  0  0
 59 60  1  0  0  0
 59 61  1  0  0  0
 59 62  1  0  0  0
 60130  1  0  0  0
 60131  1  0  0  0
 60132  1  0  0  0
 61133  1  0  0  0
 61134  1  0  0  0
 61135  1  0  0  0
 62136  1  0  0  0
 62137  1  0  0  0
 62138  1  0  0  0
 63 65  1  0  0  0
 63139  1  0  0  0
 63140  1  0  0  0
 63141  1  0  0  0
 64142  1  0  0  0
 65143  1  0  0  0
 68 81  1  0  0  0
 71 72  2  0  0  0
 71 73  1  0  0  0
 71144  1  0  0  0
 72 74  1  0  0  0
 72145  1  0  0  0
 73 76  2  0  0  0
 73146  1  0  0  0
 74 75  2  0  0  0
 74 80  1  0  0  0
 75 76  1  0  0  0
 75 78  1  0  0  0
 76 82  1  0  0  0
 77 81  1  0  0  0
 77 83  1  0  0  0
 77 84  2  0  0  0
 78147  1  0  0  0
 78148  1  0  0  0
 78149  1  0  0  0
 79 83  1  0  0  0
 79150  1  0  0  0
 79151  1  0  0  0
 79152  1  0  0  0
 80 83  1  0  0  0
 80153  1  0  0  0
 80154  1  0  0  0
 81155  1  0  0  0
 81156  1  0  0  0
 82157  1  0  0  0
M  ISO  4   1 100  68 101  81 101  82 100
M  END
> <chiral flag>
0

> <version>
0

> <s_m_source_file>
/data/baiqing/PycharmProjects/Reinvent-master-3.2/result/LINK_invent/BTK/process_docking_weight1_custom_product_contain_oxygen_bond_distance_aromatic_linkinvent_7_9_3/rearranged_h_0052.sdf

> <i_m_source_file_index>
9

> <r_mmod_Potential_Energy-OPLS-2005>
166.229125976562

> <r_mmod_Stretch_Energy-OPLS-2005>
137.783172607422

> <r_mmod_Bend_Energy-OPLS-2005>
173.685760498047

> <r_mmod_Torsional_Energy-OPLS-2005>
218.779922485352

> <r_mmod_Improper_Torsional_Energy-OPLS-2005>
6.16112995147705

> <r_mmod_Van_der_Waal_Energy-OPLS-2005>
143.210311889648

> <r_mmod_Electrostatic_Energy-OPLS-2005>
-358.742309570312

> <r_mmod_Solvation_Energy-OPLS-2005>
-240.029907226562

> <b_mmod_Minimization_Converged-OPLS-2005>
0

> <r_mmod_RMS_Derivative-OPLS-2005>
2.69757056236267

$$$$
9
                    3D
 Structure written by MMmdl.
153161  0  0  1  0            999 V2000
  -30.5892  -14.7423   20.4956 C   0  0  0  0  0  0
  -30.4418  -12.4532   19.4867 C   0  0  0  0  0  0
  -29.5234  -12.5330   18.2459 C   0  0  0  0  0  0
  -28.0457  -12.3525   18.6489 C   0  0  0  0  0  0
  -27.6513  -13.2304   19.8662 C   0  0  2  0  0  0
  -28.6928  -13.1256   21.0031 C   0  0  0  0  0  0
  -25.2561  -13.8191   20.5722 C   0  0  0  0  0  0
  -24.1825  -13.0447   20.9195 C   0  0  0  0  0  0
  -24.6398  -11.6923   20.8746 C   0  0  0  0  0  0
  -23.9076  -10.4296   21.0398 C   0  0  0  0  0  0
  -24.3625   -9.4214   21.9176 C   0  0  0  0  0  0
  -23.6303   -8.2249   22.0754 C   0  0  0  0  0  0
  -22.4284   -8.0285   21.3549 C   0  0  0  0  0  0
  -21.9914   -9.0250   20.4641 C   0  0  0  0  0  0
  -22.7249  -10.2130   20.3040 C   0  0  0  0  0  0
  -21.6849   -6.0743   22.5285 C   0  0  0  0  0  0
  -21.4006   -6.5641   23.8224 C   0  0  0  0  0  0
  -21.3661   -5.6793   24.9183 C   0  0  0  0  0  0
  -21.6058   -4.3058   24.7220 C   0  0  0  0  0  0
  -21.8818   -3.8152   23.4338 C   0  0  0  0  0  0
  -21.9187   -4.6974   22.3398 C   0  0  0  0  0  0
  -22.7845  -13.5246   21.1845 C   0  0  0  0  0  0
  -22.1662   -4.2167   21.0977 F   0  0  0  0  0  0
  -21.5628   -3.4530   25.7722 F   0  0  0  0  0  0
  -30.0024  -13.4952   20.4447 N   0  0  0  0  0  0
  -26.2991  -12.9398   20.3327 N   0  0  0  0  0  0
  -25.9342  -11.6550   20.5765 N   0  0  0  0  0  0
  -22.0456  -12.8251   22.0399 N   0  0  0  0  0  0
  -25.4256  -15.1913   20.4162 N   0  0  0  0  0  0
  -31.7466  -14.8920   20.0942 O   0  0  0  0  0  0
  -21.6647   -6.8884   21.4250 O   0  0  0  0  0  0
  -22.3548  -14.5549   20.6667 O   0  0  0  0  0  0
  -24.6340  -31.8526   23.1982 C   0  0  0  0  0  0
  -25.9163  -32.4746   23.8324 C   0  0  1  0  0  0
  -27.2217  -27.2405   20.1351 C   0  0  0  0  0  0
  -25.5956  -33.8543   24.2248 N   0  0  0  0  0  0
  -23.4333  -30.4775   21.5409 C   0  0  2  0  0  0
  -24.8807  -28.9244   20.1088 C   0  0  0  0  0  0
  -22.7521  -29.4603   22.4899 C   0  0  0  0  0  0
  -18.0300  -28.1383   22.8499 C   0  0  0  0  0  0
  -24.1494  -36.7273   23.2639 C   0  0  0  0  0  0
  -25.9818  -30.7608   21.3822 C   0  0  0  0  0  0
  -26.0546  -29.3829   20.7207 C   0  0  0  0  0  0
  -27.2262  -28.5552   20.7205 C   0  0  0  0  0  0
  -26.0197  -26.8593   19.4924 C   0  0  0  0  0  0
  -24.8705  -27.6712   19.4817 C   0  0  0  0  0  0
  -23.6535  -29.8133   20.1561 C   0  0  0  0  0  0
  -25.4121  -36.3052   24.0323 C   0  0  1  0  0  0
  -20.5907  -28.3701   23.1266 C   0  0  2  0  0  0
  -20.6791  -26.9414   22.5404 C   0  0  0  0  0  0
  -19.5765  -26.6376   21.5220 C   0  0  0  0  0  0
  -18.1939  -26.7930   22.1621 C   0  0  0  0  0  0
  -19.1556  -28.8866   23.2874 C   0  0  0  0  0  0
  -18.9464  -30.1465   23.8891 C   0  0  0  0  0  0
  -17.6461  -30.6589   24.0561 C   0  0  0  0  0  0
  -25.9062  -34.9430   23.5083 C   0  0  0  0  0  0
  -16.5354  -29.9081   23.6345 C   0  0  0  0  0  0
  -16.7282  -28.6491   23.0373 C   0  0  0  0  0  0
  -26.4515  -31.6581   25.0730 C   0  0  0  0  0  0
  -25.3729  -31.3757   26.1449 C   0  0  0  0  0  0
  -27.0362  -30.2990   24.6248 C   0  0  0  0  0  0
  -27.6055  -32.4338   25.7522 C   0  0  0  0  0  0
  -27.5581  -37.1795   24.8458 C   0  0  0  0  0  0
  -21.4219  -29.3043   22.3645 N   0  0  0  0  0  0
  -26.4288  -37.3762   23.9405 N   0  0  0  0  0  0
  -24.7030  -31.0490   22.0969 N   0  0  0  0  0  0
  -23.4208  -28.8138   23.3007 O   0  0  0  0  0  0
  -28.3059  -26.3224   20.2083 O   0  0  0  0  0  0
  -26.5610  -34.8908   22.4635 O   0  0  0  0  0  0
  -23.5485  -32.1351   23.7266 O   0  0  0  0  0  0
  -29.1893  -18.0932   21.7446 C   0  0  0  0  0  0
  -28.8872  -19.4892   21.5931 C   0  0  0  0  0  0
  -29.7794  -19.4185   19.3779 C   0  0  0  0  0  0
  -30.0956  -18.0135   19.5226 C   0  0  0  0  0  0
  -29.7695  -17.2846   20.7175 C   0  0  0  0  0  0
  -29.1280  -20.1949   20.3833 C   0  0  0  0  0  0
  -30.7090  -17.3058   18.3243 C   0  0  0  0  0  0
  -28.0250  -24.8457   20.0137 C   0  0  0  0  0  0
  -28.9977  -23.5889   20.3826 C   0  0  0  0  0  0
  -29.7959  -15.8031   20.9102 N   0  0  0  0  0  0
  -28.0542  -21.8384   18.5207 O   0  0  0  0  0  0
  -26.9837  -21.7981   20.7740 O   0  0  0  0  0  0
  -28.2288  -21.8426   19.9858 S   0  0  0  0  0  0
  -31.4863  -12.5782   19.1957 H   0  0  0  0  0  0
  -30.3804  -11.4652   19.9436 H   0  0  0  0  0  0
  -29.8126  -11.7802   17.5119 H   0  0  0  0  0  0
  -29.6522  -13.5010   17.7589 H   0  0  0  0  0  0
  -27.8991  -11.2995   18.8915 H   0  0  0  0  0  0
  -27.3899  -12.5643   17.8027 H   0  0  0  0  0  0
  -27.6580  -14.2621   19.5159 H   0  0  0  0  0  0
  -28.7220  -12.1129   21.4065 H   0  0  0  0  0  0
  -28.4205  -13.7695   21.8397 H   0  0  0  0  0  0
  -25.2762   -9.5706   22.4773 H   0  0  0  0  0  0
  -24.0017   -7.4643   22.7475 H   0  0  0  0  0  0
  -21.0844   -8.8765   19.8951 H   0  0  0  0  0  0
  -22.3703  -10.9666   19.6159 H   0  0  0  0  0  0
  -21.2009   -7.6145   23.9742 H   0  0  0  0  0  0
  -21.1486   -6.0509   25.9096 H   0  0  0  0  0  0
  -22.0599   -2.7611   23.2818 H   0  0  0  0  0  0
  -22.4022  -11.9901   22.4811 H   0  0  0  0  0  0
  -21.1074  -13.1312   22.2561 H   0  0  0  0  0  0
  -24.6588  -15.8436   20.5362 H   0  0  0  0  0  0
  -26.2768  -15.6364   20.0978 H   0  0  0  0  0  0
  -26.7243  -32.5389   23.1071 H   0  0  0  0  0  0
  -25.0157  -33.9668   25.0433 H   0  0  0  0  0  0
  -22.7312  -31.3005   21.3945 H   0  0  0  0  0  0
  -23.3762  -35.9600   23.3291 H   0  0  0  0  0  0
  -24.3599  -36.8900   22.2055 H   0  0  0  0  0  0
  -23.7237  -37.6470   23.6671 H   0  0  0  0  0  0
  -26.1230  -31.5248   20.6164 H   0  0  0  0  0  0
  -26.8578  -30.8076   22.0175 H   0  0  0  0  0  0
  -28.1223  -28.8978   21.2190 H   0  0  0  0  0  0
  -25.9241  -25.8997   19.0074 H   0  0  0  0  0  0
  -23.9729  -27.3116   18.9961 H   0  0  0  0  0  0
  -23.7756  -30.5894   19.3994 H   0  0  0  0  0  0
  -22.7716  -29.2446   19.8537 H   0  0  0  0  0  0
  -25.1315  -36.1901   25.0823 H   0  0  0  0  0  0
  -20.9999  -28.3272   24.1381 H   0  0  0  0  0  0
  -20.5711  -26.2298   23.3607 H   0  0  0  0  0  0
  -21.6657  -26.7452   22.1173 H   0  0  0  0  0  0
  -19.6918  -25.6278   21.1260 H   0  0  0  0  0  0
  -19.6713  -27.3176   20.6740 H   0  0  0  0  0  0
  -17.4222  -26.6701   21.4011 H   0  0  0  0  0  0
  -18.0318  -26.0064   22.9001 H   0  0  0  0  0  0
  -19.7936  -30.7287   24.2239 H   0  0  0  0  0  0
  -17.5012  -31.6275   24.5140 H   0  0  0  0  0  0
  -15.5349  -30.2970   23.7674 H   0  0  0  0  0  0
  -15.8678  -28.0799   22.7100 H   0  0  0  0  0  0
  -24.5872  -30.7151   25.7779 H   0  0  0  0  0  0
  -24.8965  -32.2933   26.4897 H   0  0  0  0  0  0
  -25.8019  -30.8903   27.0215 H   0  0  0  0  0  0
  -26.2947  -29.6736   24.1255 H   0  0  0  0  0  0
  -27.4004  -29.7278   25.4795 H   0  0  0  0  0  0
  -27.8853  -30.4263   23.9528 H   0  0  0  0  0  0
  -27.2639  -33.3631   26.2097 H   0  0  0  0  0  0
  -28.3870  -32.6903   25.0359 H   0  0  0  0  0  0
  -28.0714  -31.8463   26.5441 H   0  0  0  0  0  0
  -28.2580  -38.0109   24.7524 H   0  0  0  0  0  0
  -28.1094  -36.2638   24.6268 H   0  0  0  0  0  0
  -27.2302  -37.1421   25.8860 H   0  0  0  0  0  0
  -20.9395  -29.8775   21.6862 H   0  0  0  0  0  0
  -26.0164  -38.2835   24.1421 H   0  0  0  0  0  0
  -28.8959  -17.6228   22.6740 H   0  0  0  0  0  0
  -28.3586  -19.9999   22.3858 H   0  0  0  0  0  0
  -29.9448  -19.8980   18.4239 H   0  0  0  0  0  0
  -30.5442  -17.8659   17.4025 H   0  0  0  0  0  0
  -30.2804  -16.3155   18.1742 H   0  0  0  0  0  0
  -31.7855  -17.1989   18.4611 H   0  0  0  0  0  0
  -27.0963  -24.6375   20.5469 H   0  0  0  0  0  0
  -27.7855  -24.7243   18.9570 H   0  0  0  0  0  0
  -29.2494  -23.5905   21.4410 H   0  0  0  0  0  0
  -29.9359  -23.6542   19.8362 H   0  0  0  0  0  0
  -28.9829  -15.4611   21.4029 H   0  0  0  0  0  0
  1 25  1  0  0  0
  1 30  2  0  0  0
  1 80  1  0  0  0
  2  3  1  0  0  0
  2 25  1  0  0  0
  2 84  1  0  0  0
  2 85  1  0  0  0
  3  4  1  0  0  0
  3 86  1  0  0  0
  3 87  1  0  0  0
  4  5  1  0  0  0
  4 88  1  0  0  0
  4 89  1  0  0  0
  5  6  1  0  0  0
  5 26  1  0  0  0
  5 90  1  0  0  0
  6 25  1  0  0  0
  6 91  1  0  0  0
  6 92  1  0  0  0
  7  8  2  0  0  0
  7 26  1  0  0  0
  7 29  1  0  0  0
  8  9  1  0  0  0
  8 22  1  0  0  0
  9 10  1  0  0  0
  9 27  2  0  0  0
 10 11  2  0  0  0
 10 15  1  0  0  0
 11 12  1  0  0  0
 11 93  1  0  0  0
 12 13  2  0  0  0
 12 94  1  0  0  0
 13 14  1  0  0  0
 13 31  1  0  0  0
 14 15  2  0  0  0
 14 95  1  0  0  0
 15 96  1  0  0  0
 16 17  2  0  0  0
 16 21  1  0  0  0
 16 31  1  0  0  0
 17 18  1  0  0  0
 17 97  1  0  0  0
 18 19  2  0  0  0
 18 98  1  0  0  0
 19 20  1  0  0  0
 19 24  1  0  0  0
 20 21  2  0  0  0
 20 99  1  0  0  0
 21 23  1  0  0  0
 22 28  1  0  0  0
 22 32  2  0  0  0
 26 27  1  0  0  0
 28100  1  0  0  0
 28101  1  0  0  0
 29102  1  0  0  0
 29103  1  0  0  0
 33 34  1  0  0  0
 33 66  1  0  0  0
 33 70  2  0  0  0
 34 36  1  0  0  0
 34 59  1  0  0  0
 34104  1  0  0  0
 35 44  2  0  0  0
 35 45  1  0  0  0
 35 68  1  0  0  0
 36 56  1  0  0  0
 36105  1  0  0  0
 37 39  1  0  0  0
 37 47  1  0  0  0
 37 66  1  0  0  0
 37106  1  0  0  0
 38 43  2  0  0  0
 38 46  1  0  0  0
 38 47  1  0  0  0
 39 64  1  0  0  0
 39 67  2  0  0  0
 40 52  1  0  0  0
 40 53  2  0  0  0
 40 58  1  0  0  0
 41107  1  0  0  0
 41108  1  0  0  0
 41109  1  0  0  0
 41 48  1  0  0  0
 42 43  1  0  0  0
 42 66  1  0  0  0
 42110  1  0  0  0
 42111  1  0  0  0
 43 44  1  0  0  0
 44112  1  0  0  0
 45 46  2  0  0  0
 45113  1  0  0  0
 46114  1  0  0  0
 47115  1  0  0  0
 47116  1  0  0  0
 48 56  1  0  0  0
 48 65  1  0  0  0
 48117  1  0  0  0
 49 50  1  0  0  0
 49 53  1  0  0  0
 49 64  1  0  0  0
 49118  1  0  0  0
 50 51  1  0  0  0
 50119  1  0  0  0
 50120  1  0  0  0
 51 52  1  0  0  0
 51121  1  0  0  0
 51122  1  0  0  0
 52123  1  0  0  0
 52124  1  0  0  0
 53 54  1  0  0  0
 54 55  2  0  0  0
 54125  1  0  0  0
 55 57  1  0  0  0
 55126  1  0  0  0
 56 69  2  0  0  0
 57 58  2  0  0  0
 57127  1  0  0  0
 58128  1  0  0  0
 59 60  1  0  0  0
 59 61  1  0  0  0
 59 62  1  0  0  0
 60129  1  0  0  0
 60130  1  0  0  0
 60131  1  0  0  0
 61132  1  0  0  0
 61133  1  0  0  0
 61134  1  0  0  0
 62135  1  0  0  0
 62136  1  0  0  0
 62137  1  0  0  0
 63 65  1  0  0  0
 63138  1  0  0  0
 63139  1  0  0  0
 63140  1  0  0  0
 64141  1  0  0  0
 65142  1  0  0  0
 68 78  1  0  0  0
 71 72  2  0  0  0
 71 75  1  0  0  0
 71143  1  0  0  0
 72 76  1  0  0  0
 72144  1  0  0  0
 73 74  1  0  0  0
 73 76  2  0  0  0
 73145  1  0  0  0
 74 75  2  0  0  0
 74 77  1  0  0  0
 75 80  1  0  0  0
 76 83  1  0  0  0
 77146  1  0  0  0
 77147  1  0  0  0
 77148  1  0  0  0
 78 79  1  0  0  0
 78149  1  0  0  0
 78150  1  0  0  0
 79151  1  0  0  0
 79152  1  0  0  0
 79 83  1  0  0  0
 80153  1  0  0  0
 81 83  2  0  0  0
 82 83  2  0  0  0
M  ISO  4   1 100  68 101  78 101  80 100
M  END
> <chiral flag>
0

> <version>
0

> <s_m_source_file>
/data/baiqing/PycharmProjects/Reinvent-master-3.2/result/LINK_invent/BTK/process_docking_weight1_custom_product_contain_oxygen_bond_distance_aromatic_linkinvent_7_9_3/rearranged_h_0052.sdf

> <i_m_source_file_index>
10

> <r_mmod_Potential_Energy-OPLS-2005>
107.175880432129

> <r_mmod_Stretch_Energy-OPLS-2005>
133.608169555664

> <r_mmod_Bend_Energy-OPLS-2005>
210.602432250977

> <r_mmod_Torsional_Energy-OPLS-2005>
236.366546630859

> <r_mmod_Improper_Torsional_Energy-OPLS-2005>
7.12144708633423

> <r_mmod_Van_der_Waal_Energy-OPLS-2005>
134.313781738281

> <r_mmod_Electrostatic_Energy-OPLS-2005>
-444.811401367188

> <r_mmod_Solvation_Energy-OPLS-2005>
-260.191680908203

> <b_mmod_Minimization_Converged-OPLS-2005>
0

> <r_mmod_RMS_Derivative-OPLS-2005>
2.86266851425171

$$$$
10
                    3D
 Structure written by MMmdl.
158167  0  0  1  0            999 V2000
  -30.6548  -14.5535   20.5349 C   0  0  0  0  0  0
  -30.4339  -12.3455   19.4452 C   0  0  0  0  0  0
  -29.5068  -12.5141   18.2218 C   0  0  0  0  0  0
  -28.0274  -12.3668   18.6289 C   0  0  0  0  0  0
  -27.6637  -13.2135   19.8770 C   0  0  2  0  0  0
  -28.7036  -13.0193   21.0036 C   0  0  0  0  0  0
  -25.2605  -13.8177   20.5684 C   0  0  0  0  0  0
  -24.1860  -13.0446   20.9173 C   0  0  0  0  0  0
  -24.6423  -11.6917   20.8732 C   0  0  0  0  0  0
  -23.9089  -10.4298   21.0400 C   0  0  0  0  0  0
  -24.3639   -9.4209   21.9179 C   0  0  0  0  0  0
  -23.6310   -8.2246   22.0748 C   0  0  0  0  0  0
  -22.4291   -8.0288   21.3540 C   0  0  0  0  0  0
  -21.9927   -9.0266   20.4642 C   0  0  0  0  0  0
  -22.7261  -10.2141   20.3048 C   0  0  0  0  0  0
  -21.6856   -6.0746   22.5280 C   0  0  0  0  0  0
  -21.4019   -6.5645   23.8218 C   0  0  0  0  0  0
  -21.3662   -5.6787   24.9175 C   0  0  0  0  0  0
  -21.6041   -4.3051   24.7216 C   0  0  0  0  0  0
  -21.8825   -3.8152   23.4337 C   0  0  0  0  0  0
  -21.9200   -4.6974   22.3399 C   0  0  0  0  0  0
  -22.7881  -13.5233   21.1840 C   0  0  0  0  0  0
  -22.1664   -4.2165   21.0974 F   0  0  0  0  0  0
  -21.5630   -3.4532   25.7726 F   0  0  0  0  0  0
  -30.0318  -13.3407   20.4560 N   0  0  0  0  0  0
  -26.3049  -12.9355   20.3374 N   0  0  0  0  0  0
  -25.9354  -11.6511   20.5772 N   0  0  0  0  0  0
  -22.0529  -12.8222   22.0398 N   0  0  0  0  0  0
  -25.4333  -15.1896   20.4115 N   0  0  0  0  0  0
  -31.7834  -14.7465   20.0724 O   0  0  0  0  0  0
  -21.6643   -6.8891   21.4245 O   0  0  0  0  0  0
  -22.3565  -14.5545   20.6693 O   0  0  0  0  0  0
  -24.6203  -31.8634   23.2063 C   0  0  0  0  0  0
  -25.9076  -32.4793   23.8373 C   0  0  1  0  0  0
  -27.2297  -27.3770   20.1069 C   0  0  0  0  0  0
  -25.5927  -33.8595   24.2308 N   0  0  0  0  0  0
  -23.4107  -30.4885   21.5457 C   0  0  2  0  0  0
  -24.8556  -28.9479   20.1091 C   0  0  0  0  0  0
  -22.7436  -29.4657   22.4948 C   0  0  0  0  0  0
  -18.0282  -28.1385   22.8491 C   0  0  0  0  0  0
  -24.1488  -36.7302   23.2645 C   0  0  0  0  0  0
  -25.9453  -30.8120   21.3675 C   0  0  0  0  0  0
  -26.0178  -29.4433   20.7113 C   0  0  0  0  0  0
  -27.2054  -28.6669   20.7039 C   0  0  0  0  0  0
  -26.0463  -26.9160   19.4852 C   0  0  0  0  0  0
  -24.8681  -27.6864   19.4906 C   0  0  0  0  0  0
  -23.6200  -29.8209   20.1600 C   0  0  0  0  0  0
  -25.4113  -36.3095   24.0338 C   0  0  1  0  0  0
  -20.5875  -28.3688   23.1291 C   0  0  2  0  0  0
  -20.6772  -26.9412   22.5414 C   0  0  0  0  0  0
  -19.5747  -26.6388   21.5212 C   0  0  0  0  0  0
  -18.1928  -26.7934   22.1619 C   0  0  0  0  0  0
  -19.1534  -28.8849   23.2889 C   0  0  0  0  0  0
  -18.9460  -30.1453   23.8903 C   0  0  0  0  0  0
  -17.6461  -30.6589   24.0568 C   0  0  0  0  0  0
  -25.9041  -34.9461   23.5112 C   0  0  0  0  0  0
  -16.5350  -29.9091   23.6327 C   0  0  0  0  0  0
  -16.7269  -28.6504   23.0355 C   0  0  0  0  0  0
  -26.4490  -31.6592   25.0722 C   0  0  0  0  0  0
  -25.3757  -31.3708   26.1469 C   0  0  0  0  0  0
  -27.0342  -30.3032   24.6138 C   0  0  0  0  0  0
  -27.6053  -32.4338   25.7485 C   0  0  0  0  0  0
  -27.5576  -37.1800   24.8468 C   0  0  0  0  0  0
  -21.4156  -29.3046   22.3688 N   0  0  0  0  0  0
  -26.4289  -37.3784   23.9415 N   0  0  0  0  0  0
  -24.6774  -31.0713   22.0969 N   0  0  0  0  0  0
  -23.4189  -28.8201   23.3011 O   0  0  0  0  0  0
  -28.3920  -26.6111   20.1624 O   0  0  0  0  0  0
  -26.5598  -34.8917   22.4672 O   0  0  0  0  0  0
  -23.5385  -32.1396   23.7437 O   0  0  0  0  0  0
  -29.3900  -19.3275   21.0933 C   0  0  0  0  0  0
  -29.6773  -18.0007   21.5291 C   0  0  0  0  0  0
  -29.3664  -18.5332   18.8105 C   0  0  0  0  0  0
  -29.2080  -19.6111   19.7179 C   0  0  0  0  0  0
  -29.8065  -16.9206   20.6137 C   0  0  0  0  0  0
  -29.6505  -17.2154   19.2375 C   0  0  0  0  0  0
  -29.9146  -23.0866   19.6305 C   0  0  0  0  0  0
  -29.8114  -24.6138   19.8898 C   0  0  0  0  0  0
  -27.5674  -24.3066   20.8230 C   0  0  0  0  0  0
  -27.5663  -22.8124   20.3882 C   0  0  0  0  0  0
  -28.3745  -25.1856   19.8450 C   0  0  1  0  0  0
  -28.7304  -20.9689   19.1334 C   0  0  0  0  0  0
  -28.8425  -22.2776   19.8513 N   0  0  0  0  0  0
  -29.9314  -15.5603   21.0860 N   0  0  0  0  0  0
  -30.9792  -22.6500   19.1825 O   0  0  0  0  0  0
  -29.6928  -16.2254   18.3137 F   0  0  0  0  0  0
  -31.4768  -12.4569   19.1443 H   0  0  0  0  0  0
  -30.3499  -11.3379   19.8560 H   0  0  0  0  0  0
  -29.7582  -11.7802   17.4547 H   0  0  0  0  0  0
  -29.6689  -13.4940   17.7710 H   0  0  0  0  0  0
  -27.8451  -11.3116   18.8336 H   0  0  0  0  0  0
  -27.3778  -12.6303   17.7934 H   0  0  0  0  0  0
  -27.6999  -14.2590   19.5699 H   0  0  0  0  0  0
  -28.6935  -11.9886   21.3607 H   0  0  0  0  0  0
  -28.4534  -13.6317   21.8713 H   0  0  0  0  0  0
  -25.2788   -9.5679   22.4756 H   0  0  0  0  0  0
  -24.0024   -7.4631   22.7459 H   0  0  0  0  0  0
  -21.0859   -8.8789   19.8947 H   0  0  0  0  0  0
  -22.3726  -10.9687   19.6157 H   0  0  0  0  0  0
  -21.2009   -7.6151   23.9728 H   0  0  0  0  0  0
  -21.1479   -6.0511   25.9079 H   0  0  0  0  0  0
  -22.0606   -2.7619   23.2825 H   0  0  0  0  0  0
  -22.4138  -11.9875   22.4773 H   0  0  0  0  0  0
  -21.1151  -13.1252   22.2615 H   0  0  0  0  0  0
  -24.6689  -15.8471   20.5182 H   0  0  0  0  0  0
  -26.2906  -15.6290   20.1007 H   0  0  0  0  0  0
  -26.7155  -32.5477   23.1134 H   0  0  0  0  0  0
  -25.0110  -33.9756   25.0477 H   0  0  0  0  0  0
  -22.7013  -31.3069   21.4043 H   0  0  0  0  0  0
  -23.3745  -35.9636   23.3315 H   0  0  0  0  0  0
  -24.3588  -36.8911   22.2061 H   0  0  0  0  0  0
  -23.7238  -37.6507   23.6654 H   0  0  0  0  0  0
  -26.0692  -31.5774   20.6002 H   0  0  0  0  0  0
  -26.8300  -30.8587   21.9915 H   0  0  0  0  0  0
  -28.0989  -29.0442   21.1802 H   0  0  0  0  0  0
  -26.0030  -25.9523   19.0003 H   0  0  0  0  0  0
  -23.9758  -27.2987   19.0189 H   0  0  0  0  0  0
  -23.7316  -30.5959   19.4007 H   0  0  0  0  0  0
  -22.7424  -29.2433   19.8639 H   0  0  0  0  0  0
  -25.1290  -36.1956   25.0830 H   0  0  0  0  0  0
  -20.9961  -28.3261   24.1416 H   0  0  0  0  0  0
  -20.5673  -26.2296   23.3612 H   0  0  0  0  0  0
  -21.6642  -26.7454   22.1206 H   0  0  0  0  0  0
  -19.6907  -25.6302   21.1241 H   0  0  0  0  0  0
  -19.6688  -27.3201   20.6741 H   0  0  0  0  0  0
  -17.4199  -26.6689   21.4021 H   0  0  0  0  0  0
  -18.0321  -26.0075   22.9011 H   0  0  0  0  0  0
  -19.7942  -30.7269   24.2270 H   0  0  0  0  0  0
  -17.5021  -31.6268   24.5179 H   0  0  0  0  0  0
  -15.5354  -30.2998   23.7650 H   0  0  0  0  0  0
  -15.8668  -28.0828   22.7067 H   0  0  0  0  0  0
  -24.5925  -30.7060   25.7807 H   0  0  0  0  0  0
  -24.8953  -32.2857   26.4935 H   0  0  0  0  0  0
  -25.8108  -30.8863   27.0217 H   0  0  0  0  0  0
  -26.2891  -29.6773   24.1207 H   0  0  0  0  0  0
  -27.4118  -29.7302   25.4616 H   0  0  0  0  0  0
  -27.8724  -30.4359   23.9296 H   0  0  0  0  0  0
  -27.2661  -33.3639   26.2059 H   0  0  0  0  0  0
  -28.3846  -32.6904   25.0296 H   0  0  0  0  0  0
  -28.0735  -31.8471   26.5396 H   0  0  0  0  0  0
  -28.2593  -38.0096   24.7505 H   0  0  0  0  0  0
  -28.1063  -36.2623   24.6294 H   0  0  0  0  0  0
  -27.2293  -37.1451   25.8871 H   0  0  0  0  0  0
  -20.9316  -29.8761   21.6908 H   0  0  0  0  0  0
  -26.0176  -38.2862   24.1402 H   0  0  0  0  0  0
  -29.2673  -20.1137   21.8252 H   0  0  0  0  0  0
  -29.7685  -17.8117   22.5895 H   0  0  0  0  0  0
  -29.2146  -18.7018   17.7539 H   0  0  0  0  0  0
  -30.4323  -25.1355   19.1611 H   0  0  0  0  0  0
  -30.2561  -24.8139   20.8658 H   0  0  0  0  0  0
  -27.9937  -24.3965   21.8232 H   0  0  0  0  0  0
  -26.5370  -24.6508   20.9133 H   0  0  0  0  0  0
  -26.8030  -22.7065   19.6151 H   0  0  0  0  0  0
  -27.2430  -22.1858   21.2205 H   0  0  0  0  0  0
  -27.9974  -25.0581   18.8290 H   0  0  0  0  0  0
  -27.6823  -20.8109   18.8776 H   0  0  0  0  0  0
  -29.2102  -21.0808   18.1586 H   0  0  0  0  0  0
  -29.1634  -15.2468   21.6590 H   0  0  0  0  0  0
  1 25  1  0  0  0
  1 30  2  0  0  0
  1 84  1  0  0  0
  2  3  1  0  0  0
  2 25  1  0  0  0
  2 87  1  0  0  0
  2 88  1  0  0  0
  3  4  1  0  0  0
  3 89  1  0  0  0
  3 90  1  0  0  0
  4  5  1  0  0  0
  4 91  1  0  0  0
  4 92  1  0  0  0
  5  6  1  0  0  0
  5 26  1  0  0  0
  5 93  1  0  0  0
  6 25  1  0  0  0
  6 94  1  0  0  0
  6 95  1  0  0  0
  7  8  2  0  0  0
  7 26  1  0  0  0
  7 29  1  0  0  0
  8  9  1  0  0  0
  8 22  1  0  0  0
  9 10  1  0  0  0
  9 27  2  0  0  0
 10 11  2  0  0  0
 10 15  1  0  0  0
 11 12  1  0  0  0
 11 96  1  0  0  0
 12 13  2  0  0  0
 12 97  1  0  0  0
 13 14  1  0  0  0
 13 31  1  0  0  0
 14 15  2  0  0  0
 14 98  1  0  0  0
 15 99  1  0  0  0
 16 17  2  0  0  0
 16 21  1  0  0  0
 16 31  1  0  0  0
 17 18  1  0  0  0
 17100  1  0  0  0
 18 19  2  0  0  0
 18101  1  0  0  0
 19 20  1  0  0  0
 19 24  1  0  0  0
 20 21  2  0  0  0
 20102  1  0  0  0
 21 23  1  0  0  0
 22 28  1  0  0  0
 22 32  2  0  0  0
 26 27  1  0  0  0
 28103  1  0  0  0
 28104  1  0  0  0
 29105  1  0  0  0
 29106  1  0  0  0
 33 34  1  0  0  0
 33 66  1  0  0  0
 33 70  2  0  0  0
 34 36  1  0  0  0
 34 59  1  0  0  0
 34107  1  0  0  0
 35 44  2  0  0  0
 35 45  1  0  0  0
 35 68  1  0  0  0
 36 56  1  0  0  0
 36108  1  0  0  0
 37 39  1  0  0  0
 37 47  1  0  0  0
 37 66  1  0  0  0
 37109  1  0  0  0
 38 43  2  0  0  0
 38 46  1  0  0  0
 38 47  1  0  0  0
 39 64  1  0  0  0
 39 67  2  0  0  0
 40 52  1  0  0  0
 40 53  2  0  0  0
 40 58  1  0  0  0
 41110  1  0  0  0
 41111  1  0  0  0
 41112  1  0  0  0
 41 48  1  0  0  0
 42 43  1  0  0  0
 42 66  1  0  0  0
 42113  1  0  0  0
 42114  1  0  0  0
 43 44  1  0  0  0
 44115  1  0  0  0
 45 46  2  0  0  0
 45116  1  0  0  0
 46117  1  0  0  0
 47118  1  0  0  0
 47119  1  0  0  0
 48 56  1  0  0  0
 48 65  1  0  0  0
 48120  1  0  0  0
 49 50  1  0  0  0
 49 53  1  0  0  0
 49 64  1  0  0  0
 49121  1  0  0  0
 50 51  1  0  0  0
 50122  1  0  0  0
 50123  1  0  0  0
 51 52  1  0  0  0
 51124  1  0  0  0
 51125  1  0  0  0
 52126  1  0  0  0
 52127  1  0  0  0
 53 54  1  0  0  0
 54 55  2  0  0  0
 54128  1  0  0  0
 55 57  1  0  0  0
 55129  1  0  0  0
 56 69  2  0  0  0
 57 58  2  0  0  0
 57130  1  0  0  0
 58131  1  0  0  0
 59 60  1  0  0  0
 59 61  1  0  0  0
 59 62  1  0  0  0
 60132  1  0  0  0
 60133  1  0  0  0
 60134  1  0  0  0
 61135  1  0  0  0
 61136  1  0  0  0
 61137  1  0  0  0
 62138  1  0  0  0
 62139  1  0  0  0
 62140  1  0  0  0
 63 65  1  0  0  0
 63141  1  0  0  0
 63142  1  0  0  0
 63143  1  0  0  0
 64144  1  0  0  0
 65145  1  0  0  0
 68 81  1  0  0  0
 71 72  2  0  0  0
 71 74  1  0  0  0
 71146  1  0  0  0
 72 75  1  0  0  0
 72147  1  0  0  0
 73 74  2  0  0  0
 73 76  1  0  0  0
 73148  1  0  0  0
 74 82  1  0  0  0
 75 76  2  0  0  0
 75 84  1  0  0  0
 76 86  1  0  0  0
 77 78  1  0  0  0
 77 83  1  0  0  0
 77 85  2  0  0  0
 78 81  1  0  0  0
 78149  1  0  0  0
 78150  1  0  0  0
 79 80  1  0  0  0
 79 81  1  0  0  0
 79151  1  0  0  0
 79152  1  0  0  0
 80 83  1  0  0  0
 80153  1  0  0  0
 80154  1  0  0  0
 81155  1  0  0  0
 82 83  1  0  0  0
 82156  1  0  0  0
 82157  1  0  0  0
 84158  1  0  0  0
M  ISO  4   1 100  68 101  81 101  84 100
M  END
> <chiral flag>
0

> <version>
0

> <s_m_source_file>
/data/baiqing/PycharmProjects/Reinvent-master-3.2/result/LINK_invent/BTK/process_docking_weight1_custom_product_contain_oxygen_bond_distance_aromatic_linkinvent_7_9_3/rearranged_h_0052.sdf

> <i_m_source_file_index>
11

> <r_mmod_Potential_Energy-OPLS-2005>
-20.5112686157227

> <r_mmod_Stretch_Energy-OPLS-2005>
55.9496002197266

> <r_mmod_Bend_Energy-OPLS-2005>
132.241027832031

> <r_mmod_Torsional_Energy-OPLS-2005>
251.249588012695

> <r_mmod_Improper_Torsional_Energy-OPLS-2005>
6.23833894729614

> <r_mmod_Van_der_Waal_Energy-OPLS-2005>
156.424865722656

> <r_mmod_Electrostatic_Energy-OPLS-2005>
-412.844116210938

> <r_mmod_Solvation_Energy-OPLS-2005>
-234.841491699219

> <b_mmod_Minimization_Converged-OPLS-2005>
0

> <r_mmod_RMS_Derivative-OPLS-2005>
1.39009916782379

$$$$
11
                    3D
 Structure written by MMmdl.
163172  0  0  1  0            999 V2000
  -30.6367  -14.7288   20.4593 C   0  0  0  0  0  0
  -30.4289  -12.4463   19.4640 C   0  0  0  0  0  0
  -29.5110  -12.5087   18.2254 C   0  0  0  0  0  0
  -28.0341  -12.3472   18.6349 C   0  0  0  0  0  0
  -27.6449  -13.2373   19.8467 C   0  0  2  0  0  0
  -28.6934  -13.1748   20.9800 C   0  0  0  0  0  0
  -25.2560  -13.8222   20.5703 C   0  0  0  0  0  0
  -24.1861  -13.0463   20.9226 C   0  0  0  0  0  0
  -24.6462  -11.6937   20.8765 C   0  0  0  0  0  0
  -23.9137  -10.4312   21.0433 C   0  0  0  0  0  0
  -24.3672   -9.4215   21.9204 C   0  0  0  0  0  0
  -23.6331   -8.2259   22.0771 C   0  0  0  0  0  0
  -22.4304   -8.0319   21.3568 C   0  0  0  0  0  0
  -21.9968   -9.0296   20.4653 C   0  0  0  0  0  0
  -22.7320  -10.2161   20.3064 C   0  0  0  0  0  0
  -21.6859   -6.0764   22.5306 C   0  0  0  0  0  0
  -21.4014   -6.5659   23.8239 C   0  0  0  0  0  0
  -21.3652   -5.6804   24.9195 C   0  0  0  0  0  0
  -21.6035   -4.3069   24.7238 C   0  0  0  0  0  0
  -21.8818   -3.8171   23.4358 C   0  0  0  0  0  0
  -21.9198   -4.6994   22.3416 C   0  0  0  0  0  0
  -22.7872  -13.5251   21.1851 C   0  0  0  0  0  0
  -22.1671   -4.2181   21.0998 F   0  0  0  0  0  0
  -21.5617   -3.4549   25.7746 F   0  0  0  0  0  0
  -29.9920  -13.5152   20.3898 N   0  0  0  0  0  0
  -26.2983  -12.9429   20.3271 N   0  0  0  0  0  0
  -25.9385  -11.6571   20.5757 N   0  0  0  0  0  0
  -22.0492  -12.8223   22.0377 N   0  0  0  0  0  0
  -25.4215  -15.1949   20.4100 N   0  0  0  0  0  0
  -31.8288  -14.7900   20.1437 O   0  0  0  0  0  0
  -21.6662   -6.8921   21.4269 O   0  0  0  0  0  0
  -22.3561  -14.5564   20.6708 O   0  0  0  0  0  0
  -24.6322  -31.8566   23.1949 C   0  0  0  0  0  0
  -25.9133  -32.4758   23.8318 C   0  0  1  0  0  0
  -27.2239  -27.2626   20.1272 C   0  0  0  0  0  0
  -25.5925  -33.8548   24.2268 N   0  0  0  0  0  0
  -23.4292  -30.4740   21.5390 C   0  0  2  0  0  0
  -24.8731  -28.9165   20.1076 C   0  0  0  0  0  0
  -22.7535  -29.4589   22.4905 C   0  0  0  0  0  0
  -18.0311  -28.1365   22.8469 C   0  0  0  0  0  0
  -24.1506  -36.7291   23.2643 C   0  0  0  0  0  0
  -25.9725  -30.7672   21.3713 C   0  0  0  0  0  0
  -26.0417  -29.3870   20.7177 C   0  0  0  0  0  0
  -27.2138  -28.5705   20.7175 C   0  0  0  0  0  0
  -26.0314  -26.8498   19.4948 C   0  0  0  0  0  0
  -24.8705  -27.6553   19.4878 C   0  0  0  0  0  0
  -23.6455  -29.8062   20.1553 C   0  0  0  0  0  0
  -25.4118  -36.3065   24.0335 C   0  0  1  0  0  0
  -20.5917  -28.3673   23.1272 C   0  0  2  0  0  0
  -20.6808  -26.9386   22.5406 C   0  0  0  0  0  0
  -19.5776  -26.6368   21.5210 C   0  0  0  0  0  0
  -18.1946  -26.7909   22.1609 C   0  0  0  0  0  0
  -19.1563  -28.8830   23.2856 C   0  0  0  0  0  0
  -18.9475  -30.1435   23.8857 C   0  0  0  0  0  0
  -17.6466  -30.6538   24.0561 C   0  0  0  0  0  0
  -25.9064  -34.9432   23.5118 C   0  0  0  0  0  0
  -16.5360  -29.9034   23.6336 C   0  0  0  0  0  0
  -16.7295  -28.6472   23.0330 C   0  0  0  0  0  0
  -26.4494  -31.6584   25.0709 C   0  0  0  0  0  0
  -25.3688  -31.3714   26.1424 C   0  0  0  0  0  0
  -27.0366  -30.3024   24.6160 C   0  0  0  0  0  0
  -27.6086  -32.4324   25.7438 C   0  0  0  0  0  0
  -27.5584  -37.1806   24.8470 C   0  0  0  0  0  0
  -21.4246  -29.3018   22.3657 N   0  0  0  0  0  0
  -26.4309  -37.3749   23.9404 N   0  0  0  0  0  0
  -24.6971  -31.0519   22.0919 N   0  0  0  0  0  0
  -23.4250  -28.8147   23.3009 O   0  0  0  0  0  0
  -28.3535  -26.4208   20.2160 O   0  0  0  0  0  0
  -26.5635  -34.8920   22.4687 O   0  0  0  0  0  0
  -23.5473  -32.1398   23.7237 O   0  0  0  0  0  0
  -29.3755  -18.4542   20.6447 C   0  0  0  0  0  0
  -31.6121  -17.6383   21.0920 C   0  0  0  0  0  0
  -31.1202  -20.0485   21.2661 C   0  0  0  0  0  0
  -29.7583  -19.8507   20.8769 C   0  0  0  0  0  0
  -30.2770  -17.3149   20.7677 C   0  0  0  0  0  0
  -32.0235  -18.9615   21.3231 C   0  0  0  0  0  0
  -27.7056  -20.9518   21.6811 C   0  0  0  0  0  0
  -31.6671  -21.3527   21.7220 C   0  0  0  0  0  0
  -26.8164  -22.1898   21.9278 C   0  0  0  0  0  0
  -26.9202  -23.3449   20.9186 C   0  0  0  0  0  0
  -29.0157  -22.3083   20.0732 C   0  0  0  0  0  0
  -28.3712  -23.6932   20.6059 C   0  0  1  0  0  0
  -31.4340  -21.6860   23.1907 C   0  0  0  0  0  0
  -28.4488  -25.0226   19.6787 C   0  0  0  0  0  0
  -28.8013  -21.0136   20.8713 N   0  0  0  0  0  0
  -29.8798  -15.8833   20.6402 N   0  0  0  0  0  0
  -27.3947  -19.9295   22.3009 O   0  0  0  0  0  0
  -32.3131  -22.1243   21.0072 O   0  0  0  0  0  0
  -33.3206  -19.1663   21.6634 F   0  0  0  0  0  0
  -31.4713  -12.5600   19.1564 H   0  0  0  0  0  0
  -30.3622  -11.4693   19.9461 H   0  0  0  0  0  0
  -29.7909  -11.7347   17.5090 H   0  0  0  0  0  0
  -29.6492  -13.4613   17.7110 H   0  0  0  0  0  0
  -27.8700  -11.2968   18.8783 H   0  0  0  0  0  0
  -27.3854  -12.5650   17.7854 H   0  0  0  0  0  0
  -27.6364  -14.2602   19.4694 H   0  0  0  0  0  0
  -28.7244  -12.1853   21.4351 H   0  0  0  0  0  0
  -28.4352  -13.8712   21.7789 H   0  0  0  0  0  0
  -25.2805   -9.5685   22.4786 H   0  0  0  0  0  0
  -24.0033   -7.4657   22.7490 H   0  0  0  0  0  0
  -21.0901   -8.8832   19.8956 H   0  0  0  0  0  0
  -22.3806  -10.9707   19.6169 H   0  0  0  0  0  0
  -21.2000   -7.6165   23.9757 H   0  0  0  0  0  0
  -21.1464   -6.0529   25.9100 H   0  0  0  0  0  0
  -22.0593   -2.7635   23.2857 H   0  0  0  0  0  0
  -22.4068  -11.9870   22.4763 H   0  0  0  0  0  0
  -21.1099  -13.1247   22.2521 H   0  0  0  0  0  0
  -24.6470  -15.8404   20.5210 H   0  0  0  0  0  0
  -26.2522  -15.6383   20.0411 H   0  0  0  0  0  0
  -26.7212  -32.5405   23.1071 H   0  0  0  0  0  0
  -25.0061  -33.9679   25.0406 H   0  0  0  0  0  0
  -22.7241  -31.2916   21.3878 H   0  0  0  0  0  0
  -23.3764  -35.9627   23.3300 H   0  0  0  0  0  0
  -24.3604  -36.8938   22.2061 H   0  0  0  0  0  0
  -23.7311  -37.6495   23.6685 H   0  0  0  0  0  0
  -26.1086  -31.5217   20.5949 H   0  0  0  0  0  0
  -26.8544  -30.8219   21.9974 H   0  0  0  0  0  0
  -28.1098  -28.9245   21.2056 H   0  0  0  0  0  0
  -25.9611  -25.8823   19.0239 H   0  0  0  0  0  0
  -23.9750  -27.2889   19.0050 H   0  0  0  0  0  0
  -23.7732  -30.5875   19.4059 H   0  0  0  0  0  0
  -22.7629  -29.2429   19.8471 H   0  0  0  0  0  0
  -25.1297  -36.1909   25.0834 H   0  0  0  0  0  0
  -20.9989  -28.3265   24.1406 H   0  0  0  0  0  0
  -20.5775  -26.2249   23.3602 H   0  0  0  0  0  0
  -21.6654  -26.7446   22.1122 H   0  0  0  0  0  0
  -19.6954  -25.6296   21.1207 H   0  0  0  0  0  0
  -19.6731  -27.3193   20.6751 H   0  0  0  0  0  0
  -17.4243  -26.6693   21.3981 H   0  0  0  0  0  0
  -18.0298  -26.0047   22.8996 H   0  0  0  0  0  0
  -19.7953  -30.7268   24.2198 H   0  0  0  0  0  0
  -17.5014  -31.6223   24.5159 H   0  0  0  0  0  0
  -15.5344  -30.2904   23.7669 H   0  0  0  0  0  0
  -15.8717  -28.0782   22.7018 H   0  0  0  0  0  0
  -24.5927  -30.6995   25.7754 H   0  0  0  0  0  0
  -24.8754  -32.2841   26.4766 H   0  0  0  0  0  0
  -25.7992  -30.8995   27.0276 H   0  0  0  0  0  0
  -26.2952  -29.6753   24.1198 H   0  0  0  0  0  0
  -27.4120  -29.7291   25.4645 H   0  0  0  0  0  0
  -27.8777  -30.4339   23.9346 H   0  0  0  0  0  0
  -27.2757  -33.3680   26.1945 H   0  0  0  0  0  0
  -28.3889  -32.6798   25.0234 H   0  0  0  0  0  0
  -28.0757  -31.8496   26.5390 H   0  0  0  0  0  0
  -28.2580  -38.0115   24.7498 H   0  0  0  0  0  0
  -28.1107  -36.2643   24.6305 H   0  0  0  0  0  0
  -27.2295  -37.1443   25.8875 H   0  0  0  0  0  0
  -20.9449  -29.8741   21.6855 H   0  0  0  0  0  0
  -26.0189  -38.2842   24.1373 H   0  0  0  0  0  0
  -28.3410  -18.2535   20.4016 H   0  0  0  0  0  0
  -32.3625  -16.8736   21.2174 H   0  0  0  0  0  0
  -27.0782  -22.5693   22.9162 H   0  0  0  0  0  0
  -25.7761  -21.8674   21.9919 H   0  0  0  0  0  0
  -26.4030  -24.2201   21.3111 H   0  0  0  0  0  0
  -26.3950  -23.0768   20.0002 H   0  0  0  0  0  0
  -30.0674  -22.4656   19.8555 H   0  0  0  0  0  0
  -28.5762  -22.1094   19.0961 H   0  0  0  0  0  0
  -28.8745  -23.9398   21.5426 H   0  0  0  0  0  0
  -30.6216  -21.0821   23.5949 H   0  0  0  0  0  0
  -31.1786  -22.7374   23.3105 H   0  0  0  0  0  0
  -32.3357  -21.4778   23.7680 H   0  0  0  0  0  0
  -27.8165  -24.8906   18.8015 H   0  0  0  0  0  0
  -29.4545  -25.0065   19.2582 H   0  0  0  0  0  0
  -28.8872  -15.7113   20.6928 H   0  0  0  0  0  0
  1 25  1  0  0  0
  1 30  2  0  0  0
  1 86  1  0  0  0
  2  3  1  0  0  0
  2 25  1  0  0  0
  2 90  1  0  0  0
  2 91  1  0  0  0
  3  4  1  0  0  0
  3 92  1  0  0  0
  3 93  1  0  0  0
  4  5  1  0  0  0
  4 94  1  0  0  0
  4 95  1  0  0  0
  5  6  1  0  0  0
  5 26  1  0  0  0
  5 96  1  0  0  0
  6 25  1  0  0  0
  6 97  1  0  0  0
  6 98  1  0  0  0
  7  8  2  0  0  0
  7 26  1  0  0  0
  7 29  1  0  0  0
  8  9  1  0  0  0
  8 22  1  0  0  0
  9 10  1  0  0  0
  9 27  2  0  0  0
 10 11  2  0  0  0
 10 15  1  0  0  0
 11 12  1  0  0  0
 11 99  1  0  0  0
 12 13  2  0  0  0
 12100  1  0  0  0
 13 14  1  0  0  0
 13 31  1  0  0  0
 14 15  2  0  0  0
 14101  1  0  0  0
 15102  1  0  0  0
 16 17  2  0  0  0
 16 21  1  0  0  0
 16 31  1  0  0  0
 17 18  1  0  0  0
 17103  1  0  0  0
 18 19  2  0  0  0
 18104  1  0  0  0
 19 20  1  0  0  0
 19 24  1  0  0  0
 20 21  2  0  0  0
 20105  1  0  0  0
 21 23  1  0  0  0
 22 28  1  0  0  0
 22 32  2  0  0  0
 26 27  1  0  0  0
 28106  1  0  0  0
 28107  1  0  0  0
 29108  1  0  0  0
 29109  1  0  0  0
 33 34  1  0  0  0
 33 66  1  0  0  0
 33 70  2  0  0  0
 34 36  1  0  0  0
 34 59  1  0  0  0
 34110  1  0  0  0
 35 44  2  0  0  0
 35 45  1  0  0  0
 35 68  1  0  0  0
 36 56  1  0  0  0
 36111  1  0  0  0
 37 39  1  0  0  0
 37 47  1  0  0  0
 37 66  1  0  0  0
 37112  1  0  0  0
 38 43  2  0  0  0
 38 46  1  0  0  0
 38 47  1  0  0  0
 39 64  1  0  0  0
 39 67  2  0  0  0
 40 52  1  0  0  0
 40 53  2  0  0  0
 40 58  1  0  0  0
 41113  1  0  0  0
 41114  1  0  0  0
 41115  1  0  0  0
 41 48  1  0  0  0
 42 43  1  0  0  0
 42 66  1  0  0  0
 42116  1  0  0  0
 42117  1  0  0  0
 43 44  1  0  0  0
 44118  1  0  0  0
 45 46  2  0  0  0
 45119  1  0  0  0
 46120  1  0  0  0
 47121  1  0  0  0
 47122  1  0  0  0
 48 56  1  0  0  0
 48 65  1  0  0  0
 48123  1  0  0  0
 49 50  1  0  0  0
 49 53  1  0  0  0
 49 64  1  0  0  0
 49124  1  0  0  0
 50 51  1  0  0  0
 50125  1  0  0  0
 50126  1  0  0  0
 51 52  1  0  0  0
 51127  1  0  0  0
 51128  1  0  0  0
 52129  1  0  0  0
 52130  1  0  0  0
 53 54  1  0  0  0
 54 55  2  0  0  0
 54131  1  0  0  0
 55 57  1  0  0  0
 55132  1  0  0  0
 56 69  2  0  0  0
 57 58  2  0  0  0
 57133  1  0  0  0
 58134  1  0  0  0
 59 60  1  0  0  0
 59 61  1  0  0  0
 59 62  1  0  0  0
 60135  1  0  0  0
 60136  1  0  0  0
 60137  1  0  0  0
 61138  1  0  0  0
 61139  1  0  0  0
 61140  1  0  0  0
 62141  1  0  0  0
 62142  1  0  0  0
 62143  1  0  0  0
 63 65  1  0  0  0
 63144  1  0  0  0
 63145  1  0  0  0
 63146  1  0  0  0
 64147  1  0  0  0
 65148  1  0  0  0
 68 84  1  0  0  0
 71 74  2  0  0  0
 71 75  1  0  0  0
 71149  1  0  0  0
 72 75  2  0  0  0
 72 76  1  0  0  0
 72150  1  0  0  0
 73 74  1  0  0  0
 73 76  2  0  0  0
 73 78  1  0  0  0
 74 85  1  0  0  0
 75 86  1  0  0  0
 76 89  1  0  0  0
 77 79  1  0  0  0
 77 85  1  0  0  0
 77 87  2  0  0  0
 78 83  1  0  0  0
 78 88  2  0  0  0
 79 80  1  0  0  0
 79151  1  0  0  0
 79152  1  0  0  0
 80 82  1  0  0  0
 80153  1  0  0  0
 80154  1  0  0  0
 81 82  1  0  0  0
 81 85  1  0  0  0
 81155  1  0  0  0
 81156  1  0  0  0
 82 84  1  0  0  0
 82157  1  0  0  0
 83158  1  0  0  0
 83159  1  0  0  0
 83160  1  0  0  0
 84161  1  0  0  0
 84162  1  0  0  0
 86163  1  0  0  0
M  ISO  4   1 100  68 101  84 101  86 100
M  END
> <chiral flag>
0

> <version>
0

> <s_m_source_file>
/data/baiqing/PycharmProjects/Reinvent-master-3.2/result/LINK_invent/BTK/process_docking_weight1_custom_product_contain_oxygen_bond_distance_aromatic_linkinvent_7_9_3/rearranged_h_0052.sdf

> <i_m_source_file_index>
12

> <r_mmod_Potential_Energy-OPLS-2005>
331.879943847656

> <r_mmod_Stretch_Energy-OPLS-2005>
136.50505065918

> <r_mmod_Bend_Energy-OPLS-2005>
185.833831787109

> <r_mmod_Torsional_Energy-OPLS-2005>
326.937072753906

> <r_mmod_Improper_Torsional_Energy-OPLS-2005>
6.91317319869995

> <r_mmod_Van_der_Waal_Energy-OPLS-2005>
148.395950317383

> <r_mmod_Electrostatic_Energy-OPLS-2005>
-324.990356445312

> <r_mmod_Solvation_Energy-OPLS-2005>
-226.769378662109

> <b_mmod_Minimization_Converged-OPLS-2005>
0

> <r_mmod_RMS_Derivative-OPLS-2005>
3.12981295585632

$$$$
12
                    3D
 Structure written by MMmdl.
159167  0  0  1  0            999 V2000
  -30.7356  -14.4702   20.5345 C   0  0  0  0  0  0
  -30.4097  -12.2714   19.4416 C   0  0  0  0  0  0
  -29.5026  -12.5008   18.2173 C   0  0  0  0  0  0
  -28.0169  -12.3818   18.6106 C   0  0  0  0  0  0
  -27.6574  -13.2198   19.8692 C   0  0  2  0  0  0
  -28.6894  -13.0294   21.0016 C   0  0  0  0  0  0
  -25.2557  -13.8197   20.5643 C   0  0  0  0  0  0
  -24.1829  -13.0463   20.9144 C   0  0  0  0  0  0
  -24.6389  -11.6926   20.8703 C   0  0  0  0  0  0
  -23.9060  -10.4318   21.0385 C   0  0  0  0  0  0
  -24.3625   -9.4243   21.9171 C   0  0  0  0  0  0
  -23.6312   -8.2266   22.0757 C   0  0  0  0  0  0
  -22.4289   -8.0297   21.3542 C   0  0  0  0  0  0
  -21.9908   -9.0267   20.4641 C   0  0  0  0  0  0
  -22.7228  -10.2153   20.3045 C   0  0  0  0  0  0
  -21.6865   -6.0740   22.5268 C   0  0  0  0  0  0
  -21.4018   -6.5641   23.8199 C   0  0  0  0  0  0
  -21.3674   -5.6795   24.9164 C   0  0  0  0  0  0
  -21.6055   -4.3058   24.7212 C   0  0  0  0  0  0
  -21.8829   -3.8149   23.4330 C   0  0  0  0  0  0
  -21.9203   -4.6966   22.3391 C   0  0  0  0  0  0
  -22.7848  -13.5252   21.1825 C   0  0  0  0  0  0
  -22.1661   -4.2156   21.0965 F   0  0  0  0  0  0
  -21.5641   -3.4536   25.7717 F   0  0  0  0  0  0
  -30.0287  -13.2626   20.4531 N   0  0  0  0  0  0
  -26.2999  -12.9386   20.3302 N   0  0  0  0  0  0
  -25.9323  -11.6537   20.5727 N   0  0  0  0  0  0
  -22.0504  -12.8250   22.0396 N   0  0  0  0  0  0
  -25.4295  -15.1922   20.4079 N   0  0  0  0  0  0
  -31.8717  -14.6393   20.1020 O   0  0  0  0  0  0
  -21.6660   -6.8892   21.4231 O   0  0  0  0  0  0
  -22.3526  -14.5550   20.6664 O   0  0  0  0  0  0
  -24.6105  -31.8691   23.2126 C   0  0  0  0  0  0
  -25.9018  -32.4821   23.8396 C   0  0  1  0  0  0
  -27.2373  -27.4613   20.0788 C   0  0  0  0  0  0
  -25.5886  -33.8623   24.2327 N   0  0  0  0  0  0
  -23.3954  -30.4944   21.5505 C   0  0  2  0  0  0
  -24.8422  -28.9612   20.1144 C   0  0  0  0  0  0
  -22.7382  -29.4663   22.4983 C   0  0  0  0  0  0
  -18.0262  -28.1371   22.8487 C   0  0  0  0  0  0
  -24.1487  -36.7326   23.2639 C   0  0  0  0  0  0
  -25.9227  -30.8402   21.3635 C   0  0  0  0  0  0
  -25.9991  -29.4762   20.7114 C   0  0  0  0  0  0
  -27.1944  -28.7274   20.7031 C   0  0  0  0  0  0
  -26.0576  -26.9452   19.4960 C   0  0  0  0  0  0
  -24.8633  -27.6920   19.5100 C   0  0  0  0  0  0
  -23.6041  -29.8268   20.1643 C   0  0  0  0  0  0
  -25.4107  -36.3110   24.0334 C   0  0  1  0  0  0
  -20.5849  -28.3651   23.1323 C   0  0  2  0  0  0
  -20.6754  -26.9385   22.5420 C   0  0  0  0  0  0
  -19.5743  -26.6377   21.5210 C   0  0  0  0  0  0
  -18.1917  -26.7921   22.1612 C   0  0  0  0  0  0
  -19.1512  -28.8828   23.2907 C   0  0  0  0  0  0
  -18.9443  -30.1435   23.8917 C   0  0  0  0  0  0
  -17.6446  -30.6578   24.0560 C   0  0  0  0  0  0
  -25.9028  -34.9477   23.5127 C   0  0  0  0  0  0
  -16.5336  -29.9085   23.6321 C   0  0  0  0  0  0
  -16.7248  -28.6499   23.0343 C   0  0  0  0  0  0
  -26.4470  -31.6595   25.0716 C   0  0  0  0  0  0
  -25.3764  -31.3695   26.1488 C   0  0  0  0  0  0
  -27.0292  -30.3031   24.6088 C   0  0  0  0  0  0
  -27.6032  -32.4328   25.7493 C   0  0  0  0  0  0
  -27.5579  -37.1821   24.8459 C   0  0  0  0  0  0
  -21.4114  -29.3030   22.3736 N   0  0  0  0  0  0
  -26.4293  -37.3790   23.9400 N   0  0  0  0  0  0
  -24.6605  -31.0824   22.1007 N   0  0  0  0  0  0
  -23.4174  -28.8206   23.3009 O   0  0  0  0  0  0
  -28.4137  -26.7493   20.1167 O   0  0  0  0  0  0
  -26.5590  -34.8921   22.4690 O   0  0  0  0  0  0
  -23.5312  -32.1432   23.7543 O   0  0  0  0  0  0
  -30.9591  -20.6256   20.1519 C   0  0  0  0  0  0
  -31.8245  -19.6328   19.6714 C   0  0  0  0  0  0
  -29.2647  -18.9275   20.5656 C   0  0  0  0  0  0
  -29.6555  -20.2913   20.5738 C   0  0  0  0  0  0
  -31.4096  -18.2886   19.5920 C   0  0  0  0  0  0
  -30.1252  -17.9095   20.0763 C   0  0  0  0  0  0
  -28.7846  -23.4908   19.6472 C   0  0  0  0  0  0
  -32.3683  -17.3197   18.9270 C   0  0  0  0  0  0
  -28.6751  -21.3864   21.0179 C   0  0  0  0  0  0
  -29.5705  -16.4794   19.9404 C   0  0  0  0  0  0
  -29.6156  -24.7584   19.3869 C   0  0  0  0  0  0
  -28.8149  -26.0084   18.9636 C   0  0  0  0  0  0
  -29.1239  -22.7521   20.7150 N   0  0  0  0  0  0
  -27.8970  -23.1524   18.8605 O   0  0  0  0  0  0
  -29.9597  -15.5098   20.9289 O   0  0  0  0  0  0
  -31.4608  -12.3469   19.1577 H   0  0  0  0  0  0
  -30.2753  -11.2642   19.8381 H   0  0  0  0  0  0
  -29.7418  -11.7848   17.4288 H   0  0  0  0  0  0
  -29.6958  -13.4911   17.8003 H   0  0  0  0  0  0
  -27.8013  -11.3278   18.7874 H   0  0  0  0  0  0
  -27.3875  -12.6810   17.7718 H   0  0  0  0  0  0
  -27.6924  -14.2651   19.5647 H   0  0  0  0  0  0
  -28.6391  -12.0134   21.3953 H   0  0  0  0  0  0
  -28.4742  -13.6934   21.8389 H   0  0  0  0  0  0
  -25.2779   -9.5716   22.4729 H   0  0  0  0  0  0
  -24.0031   -7.4669   22.7473 H   0  0  0  0  0  0
  -21.0842   -8.8770   19.8956 H   0  0  0  0  0  0
  -22.3683  -10.9681   19.6141 H   0  0  0  0  0  0
  -21.1989   -7.6148   23.9697 H   0  0  0  0  0  0
  -21.1491   -6.0523   25.9071 H   0  0  0  0  0  0
  -22.0596   -2.7610   23.2819 H   0  0  0  0  0  0
  -22.4123  -11.9900   22.4770 H   0  0  0  0  0  0
  -21.1127  -13.1263   22.2605 H   0  0  0  0  0  0
  -24.6661  -15.8507   20.5196 H   0  0  0  0  0  0
  -26.2925  -15.6313   20.1169 H   0  0  0  0  0  0
  -26.7082  -32.5544   23.1148 H   0  0  0  0  0  0
  -25.0035  -33.9783   25.0471 H   0  0  0  0  0  0
  -22.6821  -31.3102   21.4128 H   0  0  0  0  0  0
  -23.3729  -35.9679   23.3317 H   0  0  0  0  0  0
  -24.3571  -36.8926   22.2047 H   0  0  0  0  0  0
  -23.7263  -37.6549   23.6642 H   0  0  0  0  0  0
  -26.0353  -31.6068   20.5955 H   0  0  0  0  0  0
  -26.8093  -30.8907   21.9825 H   0  0  0  0  0  0
  -28.0868  -29.1218   21.1698 H   0  0  0  0  0  0
  -26.0363  -25.9598   19.0527 H   0  0  0  0  0  0
  -23.9691  -27.2808   19.0616 H   0  0  0  0  0  0
  -23.7100  -30.6012   19.4036 H   0  0  0  0  0  0
  -22.7289  -29.2449   19.8705 H   0  0  0  0  0  0
  -25.1288  -36.1970   25.0827 H   0  0  0  0  0  0
  -20.9935  -28.3207   24.1444 H   0  0  0  0  0  0
  -20.5643  -26.2257   23.3601 H   0  0  0  0  0  0
  -21.6631  -26.7432   22.1219 H   0  0  0  0  0  0
  -19.6903  -25.6291   21.1234 H   0  0  0  0  0  0
  -19.6696  -27.3193   20.6747 H   0  0  0  0  0  0
  -17.4194  -26.6672   21.4004 H   0  0  0  0  0  0
  -18.0304  -26.0048   22.8991 H   0  0  0  0  0  0
  -19.7923  -30.7242   24.2295 H   0  0  0  0  0  0
  -17.5005  -31.6266   24.5148 H   0  0  0  0  0  0
  -15.5336  -30.2997   23.7635 H   0  0  0  0  0  0
  -15.8643  -28.0826   22.7050 H   0  0  0  0  0  0
  -24.5901  -30.7080   25.7838 H   0  0  0  0  0  0
  -24.9014  -32.2860   26.4999 H   0  0  0  0  0  0
  -25.8144  -30.8818   27.0201 H   0  0  0  0  0  0
  -26.2828  -29.6805   24.1140 H   0  0  0  0  0  0
  -27.4048  -29.7253   25.4541 H   0  0  0  0  0  0
  -27.8669  -30.4337   23.9233 H   0  0  0  0  0  0
  -27.2606  -33.3584   26.2130 H   0  0  0  0  0  0
  -28.3817  -32.6967   25.0324 H   0  0  0  0  0  0
  -28.0728  -31.8432   26.5373 H   0  0  0  0  0  0
  -28.2602  -38.0115   24.7483 H   0  0  0  0  0  0
  -28.1069  -36.2640   24.6304 H   0  0  0  0  0  0
  -27.2292  -37.1496   25.8863 H   0  0  0  0  0  0
  -20.9254  -29.8771   21.6991 H   0  0  0  0  0  0
  -26.0180  -38.2869   24.1393 H   0  0  0  0  0  0
  -31.3114  -21.6467   20.1650 H   0  0  0  0  0  0
  -32.8074  -19.9229   19.3233 H   0  0  0  0  0  0
  -28.2692  -18.6605   20.8932 H   0  0  0  0  0  0
  -33.0212  -17.8461   18.2306 H   0  0  0  0  0  0
  -31.8517  -16.5563   18.3474 H   0  0  0  0  0  0
  -33.0076  -16.8493   19.6742 H   0  0  0  0  0  0
  -28.5377  -21.3073   22.0967 H   0  0  0  0  0  0
  -27.6970  -21.1941   20.5703 H   0  0  0  0  0  0
  -29.7822  -16.1138   18.9344 H   0  0  0  0  0  0
  -28.4848  -16.5471   19.9856 H   0  0  0  0  0  0
  -30.3092  -24.5075   18.5842 H   0  0  0  0  0  0
  -30.2369  -24.9933   20.2519 H   0  0  0  0  0  0
  -28.0111  -25.7443   18.2784 H   0  0  0  0  0  0
  -29.4697  -26.6678   18.3929 H   0  0  0  0  0  0
  -29.8394  -23.1278   21.3224 H   0  0  0  0  0  0
  1 25  1  0  0  0
  1 30  2  0  0  0
  1 85  1  0  0  0
  2  3  1  0  0  0
  2 25  1  0  0  0
  2 86  1  0  0  0
  2 87  1  0  0  0
  3  4  1  0  0  0
  3 88  1  0  0  0
  3 89  1  0  0  0
  4  5  1  0  0  0
  4 90  1  0  0  0
  4 91  1  0  0  0
  5  6  1  0  0  0
  5 26  1  0  0  0
  5 92  1  0  0  0
  6 25  1  0  0  0
  6 93  1  0  0  0
  6 94  1  0  0  0
  7  8  2  0  0  0
  7 26  1  0  0  0
  7 29  1  0  0  0
  8  9  1  0  0  0
  8 22  1  0  0  0
  9 10  1  0  0  0
  9 27  2  0  0  0
 10 11  2  0  0  0
 10 15  1  0  0  0
 11 12  1  0  0  0
 11 95  1  0  0  0
 12 13  2  0  0  0
 12 96  1  0  0  0
 13 14  1  0  0  0
 13 31  1  0  0  0
 14 15  2  0  0  0
 14 97  1  0  0  0
 15 98  1  0  0  0
 16 17  2  0  0  0
 16 21  1  0  0  0
 16 31  1  0  0  0
 17 18  1  0  0  0
 17 99  1  0  0  0
 18 19  2  0  0  0
 18100  1  0  0  0
 19 20  1  0  0  0
 19 24  1  0  0  0
 20 21  2  0  0  0
 20101  1  0  0  0
 21 23  1  0  0  0
 22 28  1  0  0  0
 22 32  2  0  0  0
 26 27  1  0  0  0
 28102  1  0  0  0
 28103  1  0  0  0
 29104  1  0  0  0
 29105  1  0  0  0
 33 34  1  0  0  0
 33 66  1  0  0  0
 33 70  2  0  0  0
 34 36  1  0  0  0
 34 59  1  0  0  0
 34106  1  0  0  0
 35 44  2  0  0  0
 35 45  1  0  0  0
 35 68  1  0  0  0
 36 56  1  0  0  0
 36107  1  0  0  0
 37 39  1  0  0  0
 37 47  1  0  0  0
 37 66  1  0  0  0
 37108  1  0  0  0
 38 43  2  0  0  0
 38 46  1  0  0  0
 38 47  1  0  0  0
 39 64  1  0  0  0
 39 67  2  0  0  0
 40 52  1  0  0  0
 40 53  2  0  0  0
 40 58  1  0  0  0
 41109  1  0  0  0
 41110  1  0  0  0
 41111  1  0  0  0
 41 48  1  0  0  0
 42 43  1  0  0  0
 42 66  1  0  0  0
 42112  1  0  0  0
 42113  1  0  0  0
 43 44  1  0  0  0
 44114  1  0  0  0
 45 46  2  0  0  0
 45115  1  0  0  0
 46116  1  0  0  0
 47117  1  0  0  0
 47118  1  0  0  0
 48 56  1  0  0  0
 48 65  1  0  0  0
 48119  1  0  0  0
 49 50  1  0  0  0
 49 53  1  0  0  0
 49 64  1  0  0  0
 49120  1  0  0  0
 50 51  1  0  0  0
 50121  1  0  0  0
 50122  1  0  0  0
 51 52  1  0  0  0
 51123  1  0  0  0
 51124  1  0  0  0
 52125  1  0  0  0
 52126  1  0  0  0
 53 54  1  0  0  0
 54 55  2  0  0  0
 54127  1  0  0  0
 55 57  1  0  0  0
 55128  1  0  0  0
 56 69  2  0  0  0
 57 58  2  0  0  0
 57129  1  0  0  0
 58130  1  0  0  0
 59 60  1  0  0  0
 59 61  1  0  0  0
 59 62  1  0  0  0
 60131  1  0  0  0
 60132  1  0  0  0
 60133  1  0  0  0
 61134  1  0  0  0
 61135  1  0  0  0
 61136  1  0  0  0
 62137  1  0  0  0
 62138  1  0  0  0
 62139  1  0  0  0
 63 65  1  0  0  0
 63140  1  0  0  0
 63141  1  0  0  0
 63142  1  0  0  0
 64143  1  0  0  0
 65144  1  0  0  0
 68 82  1  0  0  0
 71 72  2  0  0  0
 71 74  1  0  0  0
 71145  1  0  0  0
 72 75  1  0  0  0
 72146  1  0  0  0
 73 74  2  0  0  0
 73 76  1  0  0  0
 73147  1  0  0  0
 74 79  1  0  0  0
 75 76  2  0  0  0
 75 78  1  0  0  0
 76 80  1  0  0  0
 77 81  1  0  0  0
 77 83  1  0  0  0
 77 84  2  0  0  0
 78148  1  0  0  0
 78149  1  0  0  0
 78150  1  0  0  0
 79 83  1  0  0  0
 79151  1  0  0  0
 79152  1  0  0  0
 80 85  1  0  0  0
 80153  1  0  0  0
 80154  1  0  0  0
 81 82  1  0  0  0
 81155  1  0  0  0
 81156  1  0  0  0
 82157  1  0  0  0
 82158  1  0  0  0
 83159  1  0  0  0
M  ISO  4   1 100  68 101  82 101  85 100
M  END
> <chiral flag>
0

> <version>
0

> <s_m_source_file>
/data/baiqing/PycharmProjects/Reinvent-master-3.2/result/LINK_invent/BTK/process_docking_weight1_custom_product_contain_oxygen_bond_distance_aromatic_linkinvent_7_9_3/rearranged_h_0052.sdf

> <i_m_source_file_index>
13

> <r_mmod_Potential_Energy-OPLS-2005>
-108.845825195312

> <r_mmod_Stretch_Energy-OPLS-2005>
36.7191009521484

> <r_mmod_Bend_Energy-OPLS-2005>
101.79411315918

> <r_mmod_Torsional_Energy-OPLS-2005>
205.121215820312

> <r_mmod_Improper_Torsional_Energy-OPLS-2005>
6.26494598388672

> <r_mmod_Van_der_Waal_Energy-OPLS-2005>
150.744125366211

> <r_mmod_Electrostatic_Energy-OPLS-2005>
-403.266021728516

> <r_mmod_Solvation_Energy-OPLS-2005>
-219.118377685547

> <b_mmod_Minimization_Converged-OPLS-2005>
0

> <r_mmod_RMS_Derivative-OPLS-2005>
2.61473441123962

$$$$
13
                    3D
 Structure written by MMmdl.
157165  0  0  1  0            999 V2000
  -30.7066  -14.4714   20.5451 C   0  0  0  0  0  0
  -30.4222  -12.2927   19.4406 C   0  0  0  0  0  0
  -29.5023  -12.4920   18.2160 C   0  0  0  0  0  0
  -28.0185  -12.3815   18.6158 C   0  0  0  0  0  0
  -27.6657  -13.2143   19.8779 C   0  0  2  0  0  0
  -28.7054  -13.0030   21.0046 C   0  0  0  0  0  0
  -25.2594  -13.8182   20.5664 C   0  0  0  0  0  0
  -24.1838  -13.0470   20.9175 C   0  0  0  0  0  0
  -24.6395  -11.6932   20.8734 C   0  0  0  0  0  0
  -23.9053  -10.4318   21.0400 C   0  0  0  0  0  0
  -24.3617   -9.4237   21.9167 C   0  0  0  0  0  0
  -23.6311   -8.2259   22.0726 C   0  0  0  0  0  0
  -22.4302   -8.0272   21.3513 C   0  0  0  0  0  0
  -21.9935   -9.0253   20.4627 C   0  0  0  0  0  0
  -22.7238  -10.2152   20.3039 C   0  0  0  0  0  0
  -21.6867   -6.0734   22.5252 C   0  0  0  0  0  0
  -21.4027   -6.5631   23.8190 C   0  0  0  0  0  0
  -21.3663   -5.6783   24.9153 C   0  0  0  0  0  0
  -21.6050   -4.3044   24.7213 C   0  0  0  0  0  0
  -21.8815   -3.8144   23.4325 C   0  0  0  0  0  0
  -21.9201   -4.6962   22.3389 C   0  0  0  0  0  0
  -22.7849  -13.5249   21.1828 C   0  0  0  0  0  0
  -22.1655   -4.2140   21.0971 F   0  0  0  0  0  0
  -21.5643   -3.4522   25.7729 F   0  0  0  0  0  0
  -30.0418  -13.2880   20.4552 N   0  0  0  0  0  0
  -26.3034  -12.9362   20.3359 N   0  0  0  0  0  0
  -25.9326  -11.6519   20.5762 N   0  0  0  0  0  0
  -22.0490  -12.8230   22.0379 N   0  0  0  0  0  0
  -25.4360  -15.1880   20.4037 N   0  0  0  0  0  0
  -31.8410  -14.6388   20.0880 O   0  0  0  0  0  0
  -21.6640   -6.8879   21.4221 O   0  0  0  0  0  0
  -22.3510  -14.5561   20.6695 O   0  0  0  0  0  0
  -24.6142  -31.8686   23.2112 C   0  0  0  0  0  0
  -25.9042  -32.4821   23.8394 C   0  0  1  0  0  0
  -27.2086  -27.4075   20.1007 C   0  0  0  0  0  0
  -25.5910  -33.8621   24.2319 N   0  0  0  0  0  0
  -23.4008  -30.5010   21.5520 C   0  0  2  0  0  0
  -24.8437  -28.9743   20.1096 C   0  0  0  0  0  0
  -22.7385  -29.4689   22.4943 C   0  0  0  0  0  0
  -18.0278  -28.1339   22.8503 C   0  0  0  0  0  0
  -24.1492  -36.7313   23.2638 C   0  0  0  0  0  0
  -25.9358  -30.8292   21.3705 C   0  0  0  0  0  0
  -26.0101  -29.4670   20.7082 C   0  0  0  0  0  0
  -27.1987  -28.6926   20.6996 C   0  0  0  0  0  0
  -26.0223  -26.9541   19.4736 C   0  0  0  0  0  0
  -24.8465  -27.7186   19.4880 C   0  0  0  0  0  0
  -23.6086  -29.8437   20.1627 C   0  0  0  0  0  0
  -25.4110  -36.3100   24.0336 C   0  0  1  0  0  0
  -20.5869  -28.3640   23.1284 C   0  0  2  0  0  0
  -20.6753  -26.9368   22.5393 C   0  0  0  0  0  0
  -19.5737  -26.6352   21.5184 C   0  0  0  0  0  0
  -18.1920  -26.7894   22.1619 C   0  0  0  0  0  0
  -19.1525  -28.8804   23.2909 C   0  0  0  0  0  0
  -18.9463  -30.1411   23.8916 C   0  0  0  0  0  0
  -17.6470  -30.6565   24.0547 C   0  0  0  0  0  0
  -25.9036  -34.9470   23.5115 C   0  0  0  0  0  0
  -16.5356  -29.9060   23.6317 C   0  0  0  0  0  0
  -16.7274  -28.6460   23.0371 C   0  0  0  0  0  0
  -26.4469  -31.6605   25.0727 C   0  0  0  0  0  0
  -25.3750  -31.3747   26.1496 C   0  0  0  0  0  0
  -27.0299  -30.3035   24.6131 C   0  0  0  0  0  0
  -27.6020  -32.4348   25.7514 C   0  0  0  0  0  0
  -27.5579  -37.1808   24.8462 C   0  0  0  0  0  0
  -21.4110  -29.3042   22.3689 N   0  0  0  0  0  0
  -26.4286  -37.3783   23.9404 N   0  0  0  0  0  0
  -24.6689  -31.0785   22.1021 N   0  0  0  0  0  0
  -23.4162  -28.8195   23.2951 O   0  0  0  0  0  0
  -28.3293  -26.5918   20.1674 O   0  0  0  0  0  0
  -26.5595  -34.8921   22.4673 O   0  0  0  0  0  0
  -23.5337  -32.1452   23.7513 O   0  0  0  0  0  0
  -30.1419  -18.3718   18.5893 C   0  0  0  0  0  0
  -29.7785  -19.4535   19.4119 C   0  0  0  0  0  0
  -30.2441  -17.0765   19.1246 C   0  0  0  0  0  0
  -29.6190  -17.9358   21.3153 C   0  0  0  0  0  0
  -29.5323  -19.2487   20.7868 C   0  0  0  0  0  0
  -29.9841  -16.8369   20.4963 C   0  0  0  0  0  0
  -28.6714  -22.8027   21.1228 C   0  0  0  0  0  0
  -30.9970  -21.9543   21.0713 C   0  0  0  0  0  0
  -29.1412  -20.4182   21.7024 C   0  0  0  0  0  0
  -29.1708  -24.2263   20.7406 C   0  0  0  0  0  0
  -28.0092  -25.1966   20.4042 C   0  0  0  0  0  0
  -29.9991  -15.5102   21.0353 N   0  0  0  0  0  0
  -29.5537  -21.7769   21.2659 N   0  0  0  0  0  0
  -27.4603  -22.6312   21.3047 O   0  0  0  0  0  0
  -31.4674  -12.3799   19.1423 H   0  0  0  0  0  0
  -30.3101  -11.2852   19.8456 H   0  0  0  0  0  0
  -29.7452  -11.7566   17.4487 H   0  0  0  0  0  0
  -29.6884  -13.4696   17.7681 H   0  0  0  0  0  0
  -27.7971  -11.3281   18.7853 H   0  0  0  0  0  0
  -27.3888  -12.6855   17.7800 H   0  0  0  0  0  0
  -27.7144  -14.2627   19.5859 H   0  0  0  0  0  0
  -28.6703  -11.9752   21.3657 H   0  0  0  0  0  0
  -28.4693  -13.6249   21.8698 H   0  0  0  0  0  0
  -25.2766   -9.5726   22.4730 H   0  0  0  0  0  0
  -24.0022   -7.4667   22.7453 H   0  0  0  0  0  0
  -21.0849   -8.8754   19.8972 H   0  0  0  0  0  0
  -22.3652  -10.9669   19.6141 H   0  0  0  0  0  0
  -21.1998   -7.6148   23.9689 H   0  0  0  0  0  0
  -21.1495   -6.0517   25.9055 H   0  0  0  0  0  0
  -22.0605   -2.7606   23.2823 H   0  0  0  0  0  0
  -22.4134  -11.9933   22.4823 H   0  0  0  0  0  0
  -21.1099  -13.1252   22.2556 H   0  0  0  0  0  0
  -24.6823  -15.8551   20.5162 H   0  0  0  0  0  0
  -26.2980  -15.6192   20.0912 H   0  0  0  0  0  0
  -26.7104  -32.5524   23.1147 H   0  0  0  0  0  0
  -25.0057  -33.9788   25.0464 H   0  0  0  0  0  0
  -22.6908  -31.3204   21.4187 H   0  0  0  0  0  0
  -23.3738  -35.9659   23.3307 H   0  0  0  0  0  0
  -24.3589  -36.8915   22.2047 H   0  0  0  0  0  0
  -23.7251  -37.6528   23.6651 H   0  0  0  0  0  0
  -26.0598  -31.6030   20.6118 H   0  0  0  0  0  0
  -26.8178  -30.8706   21.9964 H   0  0  0  0  0  0
  -28.0929  -29.0585   21.1855 H   0  0  0  0  0  0
  -25.9654  -26.0030   18.9688 H   0  0  0  0  0  0
  -23.9500  -27.3345   19.0209 H   0  0  0  0  0  0
  -23.7150  -30.6235   19.4080 H   0  0  0  0  0  0
  -22.7294  -29.2705   19.8670 H   0  0  0  0  0  0
  -25.1284  -36.1953   25.0824 H   0  0  0  0  0  0
  -21.0019  -28.3204   24.1387 H   0  0  0  0  0  0
  -20.5590  -26.2262   23.3587 H   0  0  0  0  0  0
  -21.6625  -26.7360   22.1225 H   0  0  0  0  0  0
  -19.6885  -25.6254   21.1217 H   0  0  0  0  0  0
  -19.6666  -27.3144   20.6695 H   0  0  0  0  0  0
  -17.4181  -26.6644   21.4028 H   0  0  0  0  0  0
  -18.0346  -26.0009   22.8991 H   0  0  0  0  0  0
  -19.7949  -30.7201   24.2290 H   0  0  0  0  0  0
  -17.5040  -31.6266   24.5116 H   0  0  0  0  0  0
  -15.5352  -30.2974   23.7623 H   0  0  0  0  0  0
  -15.8680  -28.0766   22.7106 H   0  0  0  0  0  0
  -24.5863  -30.7162   25.7844 H   0  0  0  0  0  0
  -24.9035  -32.2944   26.4980 H   0  0  0  0  0  0
  -25.8112  -30.8875   27.0229 H   0  0  0  0  0  0
  -26.2854  -29.6811   24.1160 H   0  0  0  0  0  0
  -27.4019  -29.7254   25.4600 H   0  0  0  0  0  0
  -27.8716  -30.4321   23.9320 H   0  0  0  0  0  0
  -27.2578  -33.3604   26.2148 H   0  0  0  0  0  0
  -28.3817  -32.6995   25.0360 H   0  0  0  0  0  0
  -28.0719  -31.8462   26.5405 H   0  0  0  0  0  0
  -28.2590  -38.0111   24.7500 H   0  0  0  0  0  0
  -28.1080  -36.2636   24.6293 H   0  0  0  0  0  0
  -27.2313  -37.1468   25.8872 H   0  0  0  0  0  0
  -20.9208  -29.8848   21.7023 H   0  0  0  0  0  0
  -26.0176  -38.2860   24.1405 H   0  0  0  0  0  0
  -30.3315  -18.5367   17.5387 H   0  0  0  0  0  0
  -29.6917  -20.4362   18.9712 H   0  0  0  0  0  0
  -30.5080  -16.2691   18.4567 H   0  0  0  0  0  0
  -29.4106  -17.7724   22.3637 H   0  0  0  0  0  0
  -31.3588  -22.8620   21.5526 H   0  0  0  0  0  0
  -31.2341  -22.0049   20.0066 H   0  0  0  0  0  0
  -31.5658  -21.1267   21.4966 H   0  0  0  0  0  0
  -29.5716  -20.2456   22.6903 H   0  0  0  0  0  0
  -28.0622  -20.3474   21.8501 H   0  0  0  0  0  0
  -29.8316  -24.1513   19.8776 H   0  0  0  0  0  0
  -29.7560  -24.6241   21.5700 H   0  0  0  0  0  0
  -27.2861  -25.1572   21.2233 H   0  0  0  0  0  0
  -27.5191  -24.7753   19.5266 H   0  0  0  0  0  0
  -29.2126  -15.2637   21.6166 H   0  0  0  0  0  0
  1 25  1  0  0  0
  1 30  2  0  0  0
  1 82  1  0  0  0
  2  3  1  0  0  0
  2 25  1  0  0  0
  2 85  1  0  0  0
  2 86  1  0  0  0
  3  4  1  0  0  0
  3 87  1  0  0  0
  3 88  1  0  0  0
  4  5  1  0  0  0
  4 89  1  0  0  0
  4 90  1  0  0  0
  5  6  1  0  0  0
  5 26  1  0  0  0
  5 91  1  0  0  0
  6 25  1  0  0  0
  6 92  1  0  0  0
  6 93  1  0  0  0
  7  8  2  0  0  0
  7 26  1  0  0  0
  7 29  1  0  0  0
  8  9  1  0  0  0
  8 22  1  0  0  0
  9 10  1  0  0  0
  9 27  2  0  0  0
 10 11  2  0  0  0
 10 15  1  0  0  0
 11 12  1  0  0  0
 11 94  1  0  0  0
 12 13  2  0  0  0
 12 95  1  0  0  0
 13 14  1  0  0  0
 13 31  1  0  0  0
 14 15  2  0  0  0
 14 96  1  0  0  0
 15 97  1  0  0  0
 16 17  2  0  0  0
 16 21  1  0  0  0
 16 31  1  0  0  0
 17 18  1  0  0  0
 17 98  1  0  0  0
 18 19  2  0  0  0
 18 99  1  0  0  0
 19 20  1  0  0  0
 19 24  1  0  0  0
 20 21  2  0  0  0
 20100  1  0  0  0
 21 23  1  0  0  0
 22 28  1  0  0  0
 22 32  2  0  0  0
 26 27  1  0  0  0
 28101  1  0  0  0
 28102  1  0  0  0
 29103  1  0  0  0
 29104  1  0  0  0
 33 34  1  0  0  0
 33 66  1  0  0  0
 33 70  2  0  0  0
 34 36  1  0  0  0
 34 59  1  0  0  0
 34105  1  0  0  0
 35 44  2  0  0  0
 35 45  1  0  0  0
 35 68  1  0  0  0
 36 56  1  0  0  0
 36106  1  0  0  0
 37 39  1  0  0  0
 37 47  1  0  0  0
 37 66  1  0  0  0
 37107  1  0  0  0
 38 43  2  0  0  0
 38 46  1  0  0  0
 38 47  1  0  0  0
 39 64  1  0  0  0
 39 67  2  0  0  0
 40 52  1  0  0  0
 40 53  2  0  0  0
 40 58  1  0  0  0
 41108  1  0  0  0
 41109  1  0  0  0
 41110  1  0  0  0
 41 48  1  0  0  0
 42 43  1  0  0  0
 42 66  1  0  0  0
 42111  1  0  0  0
 42112  1  0  0  0
 43 44  1  0  0  0
 44113  1  0  0  0
 45 46  2  0  0  0
 45114  1  0  0  0
 46115  1  0  0  0
 47116  1  0  0  0
 47117  1  0  0  0
 48 56  1  0  0  0
 48 65  1  0  0  0
 48118  1  0  0  0
 49 50  1  0  0  0
 49 53  1  0  0  0
 49 64  1  0  0  0
 49119  1  0  0  0
 50 51  1  0  0  0
 50120  1  0  0  0
 50121  1  0  0  0
 51 52  1  0  0  0
 51122  1  0  0  0
 51123  1  0  0  0
 52124  1  0  0  0
 52125  1  0  0  0
 53 54  1  0  0  0
 54 55  2  0  0  0
 54126  1  0  0  0
 55 57  1  0  0  0
 55127  1  0  0  0
 56 69  2  0  0  0
 57 58  2  0  0  0
 57128  1  0  0  0
 58129  1  0  0  0
 59 60  1  0  0  0
 59 61  1  0  0  0
 59 62  1  0  0  0
 60130  1  0  0  0
 60131  1  0  0  0
 60132  1  0  0  0
 61133  1  0  0  0
 61134  1  0  0  0
 61135  1  0  0  0
 62136  1  0  0  0
 62137  1  0  0  0
 62138  1  0  0  0
 63 65  1  0  0  0
 63139  1  0  0  0
 63140  1  0  0  0
 63141  1  0  0  0
 64142  1  0  0  0
 65143  1  0  0  0
 68 81  1  0  0  0
 71 72  2  0  0  0
 71 73  1  0  0  0
 71144  1  0  0  0
 72 75  1  0  0  0
 72145  1  0  0  0
 73 76  2  0  0  0
 73146  1  0  0  0
 74 75  2  0  0  0
 74 76  1  0  0  0
 74147  1  0  0  0
 75 79  1  0  0  0
 76 82  1  0  0  0
 77 80  1  0  0  0
 77 83  1  0  0  0
 77 84  2  0  0  0
 78 83  1  0  0  0
 78148  1  0  0  0
 78149  1  0  0  0
 78150  1  0  0  0
 79 83  1  0  0  0
 79151  1  0  0  0
 79152  1  0  0  0
 80 81  1  0  0  0
 80153  1  0  0  0
 80154  1  0  0  0
 81155  1  0  0  0
 81156  1  0  0  0
 82157  1  0  0  0
M  ISO  4   1 100  68 101  81 101  82 100
M  END
> <chiral flag>
0

> <version>
0

> <s_m_source_file>
/data/baiqing/PycharmProjects/Reinvent-master-3.2/result/LINK_invent/BTK/process_docking_weight1_custom_product_contain_oxygen_bond_distance_aromatic_linkinvent_7_9_3/rearranged_h_0052.sdf

> <i_m_source_file_index>
14

> <r_mmod_Potential_Energy-OPLS-2005>
-38.1307678222656

> <r_mmod_Stretch_Energy-OPLS-2005>
43.8576850891113

> <r_mmod_Bend_Energy-OPLS-2005>
95.3992691040039

> <r_mmod_Torsional_Energy-OPLS-2005>
245.196868896484

> <r_mmod_Improper_Torsional_Energy-OPLS-2005>
4.75518465042114

> <r_mmod_Van_der_Waal_Energy-OPLS-2005>
173.766723632812

> <r_mmod_Electrostatic_Energy-OPLS-2005>
-392.342407226562

> <r_mmod_Solvation_Energy-OPLS-2005>
-227.919067382812

> <b_mmod_Minimization_Converged-OPLS-2005>
0

> <r_mmod_RMS_Derivative-OPLS-2005>
3.65159678459167

$$$$
14
                    3D
 Structure written by MMmdl.
158166  0  0  1  0            999 V2000
  -30.7025  -14.4399   20.5989 C   0  0  0  0  0  0
  -30.4228  -12.2949   19.4192 C   0  0  0  0  0  0
  -29.4914  -12.5168   18.2097 C   0  0  0  0  0  0
  -28.0148  -12.3651   18.6220 C   0  0  0  0  0  0
  -27.6628  -13.2002   19.8814 C   0  0  2  0  0  0
  -28.7018  -12.9601   21.0006 C   0  0  0  0  0  0
  -25.2576  -13.8158   20.5654 C   0  0  0  0  0  0
  -24.1813  -13.0450   20.9158 C   0  0  0  0  0  0
  -24.6368  -11.6917   20.8744 C   0  0  0  0  0  0
  -23.9044  -10.4303   21.0405 C   0  0  0  0  0  0
  -24.3601   -9.4218   21.9181 C   0  0  0  0  0  0
  -23.6276   -8.2252   22.0757 C   0  0  0  0  0  0
  -22.4260   -8.0289   21.3545 C   0  0  0  0  0  0
  -21.9887   -9.0268   20.4651 C   0  0  0  0  0  0
  -22.7217  -10.2145   20.3058 C   0  0  0  0  0  0
  -21.6862   -6.0735   22.5282 C   0  0  0  0  0  0
  -21.4028   -6.5630   23.8222 C   0  0  0  0  0  0
  -21.3654   -5.6781   24.9176 C   0  0  0  0  0  0
  -21.6036   -4.3041   24.7220 C   0  0  0  0  0  0
  -21.8818   -3.8145   23.4343 C   0  0  0  0  0  0
  -21.9189   -4.6969   22.3401 C   0  0  0  0  0  0
  -22.7838  -13.5265   21.1801 C   0  0  0  0  0  0
  -22.1645   -4.2153   21.0979 F   0  0  0  0  0  0
  -21.5627   -3.4519   25.7727 F   0  0  0  0  0  0
  -30.0393  -13.2618   20.4582 N   0  0  0  0  0  0
  -26.3016  -12.9316   20.3393 N   0  0  0  0  0  0
  -25.9295  -11.6483   20.5801 N   0  0  0  0  0  0
  -22.0445  -12.8325   22.0379 N   0  0  0  0  0  0
  -25.4301  -15.1869   20.4038 N   0  0  0  0  0  0
  -31.8065  -14.6590   20.0913 O   0  0  0  0  0  0
  -21.6632   -6.8879   21.4243 O   0  0  0  0  0  0
  -22.3547  -14.5556   20.6615 O   0  0  0  0  0  0
  -24.6142  -31.8682   23.2122 C   0  0  0  0  0  0
  -25.9033  -32.4833   23.8408 C   0  0  1  0  0  0
  -27.2400  -27.4424   20.1051 C   0  0  0  0  0  0
  -25.5900  -33.8636   24.2340 N   0  0  0  0  0  0
  -23.4060  -30.4890   21.5487 C   0  0  2  0  0  0
  -24.8560  -28.9525   20.1173 C   0  0  0  0  0  0
  -22.7416  -29.4640   22.4973 C   0  0  0  0  0  0
  -18.0269  -28.1394   22.8507 C   0  0  0  0  0  0
  -24.1484  -36.7321   23.2641 C   0  0  0  0  0  0
  -25.9312  -30.8314   21.3669 C   0  0  0  0  0  0
  -26.0112  -29.4638   20.7242 C   0  0  0  0  0  0
  -27.2067  -28.7116   20.7246 C   0  0  0  0  0  0
  -26.0756  -26.9424   19.4882 C   0  0  0  0  0  0
  -24.8809  -27.6890   19.4990 C   0  0  0  0  0  0
  -23.6199  -29.8216   20.1626 C   0  0  0  0  0  0
  -25.4101  -36.3114   24.0338 C   0  0  1  0  0  0
  -20.5857  -28.3677   23.1316 C   0  0  2  0  0  0
  -20.6753  -26.9412   22.5418 C   0  0  0  0  0  0
  -19.5722  -26.6383   21.5230 C   0  0  0  0  0  0
  -18.1902  -26.7944   22.1634 C   0  0  0  0  0  0
  -19.1521  -28.8851   23.2911 C   0  0  0  0  0  0
  -18.9454  -30.1451   23.8928 C   0  0  0  0  0  0
  -17.6467  -30.6603   24.0591 C   0  0  0  0  0  0
  -25.9024  -34.9479   23.5135 C   0  0  0  0  0  0
  -16.5350  -29.9122   23.6330 C   0  0  0  0  0  0
  -16.7257  -28.6540   23.0357 C   0  0  0  0  0  0
  -26.4470  -31.6627   25.0745 C   0  0  0  0  0  0
  -25.3756  -31.3732   26.1514 C   0  0  0  0  0  0
  -27.0304  -30.3079   24.6102 C   0  0  0  0  0  0
  -27.6045  -32.4360   25.7503 C   0  0  0  0  0  0
  -27.5569  -37.1807   24.8463 C   0  0  0  0  0  0
  -21.4140  -29.3058   22.3730 N   0  0  0  0  0  0
  -26.4286  -37.3791   23.9417 N   0  0  0  0  0  0
  -24.6685  -31.0768   22.1022 N   0  0  0  0  0  0
  -23.4185  -28.8156   23.2993 O   0  0  0  0  0  0
  -28.3856  -26.6857   20.0710 O   0  0  0  0  0  0
  -26.5587  -34.8935   22.4689 O   0  0  0  0  0  0
  -23.5338  -32.1418   23.7516 O   0  0  0  0  0  0
  -30.7202  -19.5482   23.8961 C   0  0  0  0  0  0
  -30.7480  -18.7578   25.0596 C   0  0  0  0  0  0
  -30.4222  -16.7655   23.7067 C   0  0  0  0  0  0
  -30.5391  -18.9631   22.6208 C   0  0  0  0  0  0
  -30.4128  -17.5437   22.5216 C   0  0  0  0  0  0
  -30.5826  -17.3674   24.9668 C   0  0  0  0  0  0
  -29.1190  -23.3646   21.2296 C   0  0  0  0  0  0
  -29.4282  -24.6425   20.9110 C   0  0  0  0  0  0
  -30.0160  -22.2699   20.8730 C   0  0  0  0  0  0
  -30.5292  -19.8837   21.3901 C   0  0  0  0  0  0
  -30.2821  -16.8496   21.1612 C   0  0  0  0  0  0
  -28.5716  -25.8621   21.2244 C   0  0  0  0  0  0
  -29.8009  -21.1477   21.5803 N   0  0  0  0  0  0
  -30.0006  -15.4102   21.2029 N   0  0  0  0  0  0
  -30.8876  -22.3335   20.0045 O   0  0  0  0  0  0
  -30.5777  -16.3985   26.3946 Cl  0  0  0  0  0  0
  -31.4643  -12.4021   19.1158 H   0  0  0  0  0  0
  -30.3299  -11.2754   19.7971 H   0  0  0  0  0  0
  -29.7307  -11.8151   17.4098 H   0  0  0  0  0  0
  -29.6544  -13.5157   17.8031 H   0  0  0  0  0  0
  -27.8282  -11.3084   18.8137 H   0  0  0  0  0  0
  -27.3625  -12.6372   17.7923 H   0  0  0  0  0  0
  -27.7134  -14.2505   19.5950 H   0  0  0  0  0  0
  -28.6689  -11.9201   21.3255 H   0  0  0  0  0  0
  -28.4608  -13.5445   21.8893 H   0  0  0  0  0  0
  -25.2744   -9.5687   22.4765 H   0  0  0  0  0  0
  -23.9974   -7.4641   22.7482 H   0  0  0  0  0  0
  -21.0813   -8.8810   19.8964 H   0  0  0  0  0  0
  -22.3681  -10.9693   19.6177 H   0  0  0  0  0  0
  -21.2041   -7.6144   23.9731 H   0  0  0  0  0  0
  -21.1461   -6.0504   25.9079 H   0  0  0  0  0  0
  -22.0601   -2.7608   23.2844 H   0  0  0  0  0  0
  -22.4022  -12.0002   22.4836 H   0  0  0  0  0  0
  -21.1072  -13.1420   22.2537 H   0  0  0  0  0  0
  -24.6639  -15.8436   20.5066 H   0  0  0  0  0  0
  -26.2889  -15.6274   20.1008 H   0  0  0  0  0  0
  -26.7106  -32.5547   23.1176 H   0  0  0  0  0  0
  -25.0100  -33.9817   25.0513 H   0  0  0  0  0  0
  -22.6963  -31.3043   21.4042 H   0  0  0  0  0  0
  -23.3747  -35.9656   23.3329 H   0  0  0  0  0  0
  -24.3583  -36.8916   22.2053 H   0  0  0  0  0  0
  -23.7228  -37.6528   23.6647 H   0  0  0  0  0  0
  -26.0362  -31.5880   20.5894 H   0  0  0  0  0  0
  -26.8242  -30.8915   21.9784 H   0  0  0  0  0  0
  -28.0992  -29.0982   21.1973 H   0  0  0  0  0  0
  -26.0944  -25.9755   19.0047 H   0  0  0  0  0  0
  -23.9938  -27.2917   19.0268 H   0  0  0  0  0  0
  -23.7397  -30.5977   19.4038 H   0  0  0  0  0  0
  -22.7442  -29.2455   19.8573 H   0  0  0  0  0  0
  -25.1264  -36.1978   25.0828 H   0  0  0  0  0  0
  -20.9937  -28.3241   24.1437 H   0  0  0  0  0  0
  -20.5642  -26.2295   23.3607 H   0  0  0  0  0  0
  -21.6624  -26.7447   22.1204 H   0  0  0  0  0  0
  -19.6882  -25.6293   21.1256 H   0  0  0  0  0  0
  -19.6666  -27.3213   20.6778 H   0  0  0  0  0  0
  -17.4167  -26.6714   21.4036 H   0  0  0  0  0  0
  -18.0290  -26.0083   22.9020 H   0  0  0  0  0  0
  -19.7939  -30.7262   24.2298 H   0  0  0  0  0  0
  -17.5037  -31.6286   24.5196 H   0  0  0  0  0  0
  -15.5359  -30.3066   23.7628 H   0  0  0  0  0  0
  -15.8648  -28.0890   22.7042 H   0  0  0  0  0  0
  -24.5914  -30.7082   25.7882 H   0  0  0  0  0  0
  -24.8965  -32.2888   26.4994 H   0  0  0  0  0  0
  -25.8122  -30.8900   27.0254 H   0  0  0  0  0  0
  -26.2830  -29.6845   24.1182 H   0  0  0  0  0  0
  -27.4113  -29.7312   25.4534 H   0  0  0  0  0  0
  -27.8659  -30.4437   23.9232 H   0  0  0  0  0  0
  -27.2657  -33.3644   26.2110 H   0  0  0  0  0  0
  -28.3836  -32.6949   25.0326 H   0  0  0  0  0  0
  -28.0741  -31.8478   26.5395 H   0  0  0  0  0  0
  -28.2581  -38.0113   24.7520 H   0  0  0  0  0  0
  -28.1049  -36.2632   24.6258 H   0  0  0  0  0  0
  -27.2292  -37.1447   25.8869 H   0  0  0  0  0  0
  -20.9276  -29.8876   21.7060 H   0  0  0  0  0  0
  -26.0173  -38.2853   24.1463 H   0  0  0  0  0  0
  -30.8473  -20.6173   23.9931 H   0  0  0  0  0  0
  -30.8931  -19.2171   26.0278 H   0  0  0  0  0  0
  -30.3158  -15.6909   23.6739 H   0  0  0  0  0  0
  -28.1903  -23.1599   21.7457 H   0  0  0  0  0  0
  -30.3592  -24.8570   20.4048 H   0  0  0  0  0  0
  -30.0959  -19.3938   20.5208 H   0  0  0  0  0  0
  -31.5721  -20.0873   21.1374 H   0  0  0  0  0  0
  -31.1800  -17.0627   20.5769 H   0  0  0  0  0  0
  -29.4458  -17.2972   20.6237 H   0  0  0  0  0  0
  -29.0769  -26.4513   21.9911 H   0  0  0  0  0  0
  -27.6155  -25.5413   21.6446 H   0  0  0  0  0  0
  -29.0735  -21.1559   22.2805 H   0  0  0  0  0  0
  -29.1044  -15.1446   21.5814 H   0  0  0  0  0  0
  1 25  1  0  0  0
  1 30  2  0  0  0
  1 84  1  0  0  0
  2  3  1  0  0  0
  2 25  1  0  0  0
  2 87  1  0  0  0
  2 88  1  0  0  0
  3  4  1  0  0  0
  3 89  1  0  0  0
  3 90  1  0  0  0
  4  5  1  0  0  0
  4 91  1  0  0  0
  4 92  1  0  0  0
  5  6  1  0  0  0
  5 26  1  0  0  0
  5 93  1  0  0  0
  6 25  1  0  0  0
  6 94  1  0  0  0
  6 95  1  0  0  0
  7  8  2  0  0  0
  7 26  1  0  0  0
  7 29  1  0  0  0
  8  9  1  0  0  0
  8 22  1  0  0  0
  9 10  1  0  0  0
  9 27  2  0  0  0
 10 11  2  0  0  0
 10 15  1  0  0  0
 11 12  1  0  0  0
 11 96  1  0  0  0
 12 13  2  0  0  0
 12 97  1  0  0  0
 13 14  1  0  0  0
 13 31  1  0  0  0
 14 15  2  0  0  0
 14 98  1  0  0  0
 15 99  1  0  0  0
 16 17  2  0  0  0
 16 21  1  0  0  0
 16 31  1  0  0  0
 17 18  1  0  0  0
 17100  1  0  0  0
 18 19  2  0  0  0
 18101  1  0  0  0
 19 20  1  0  0  0
 19 24  1  0  0  0
 20 21  2  0  0  0
 20102  1  0  0  0
 21 23  1  0  0  0
 22 28  1  0  0  0
 22 32  2  0  0  0
 26 27  1  0  0  0
 28103  1  0  0  0
 28104  1  0  0  0
 29105  1  0  0  0
 29106  1  0  0  0
 33 34  1  0  0  0
 33 66  1  0  0  0
 33 70  2  0  0  0
 34 36  1  0  0  0
 34 59  1  0  0  0
 34107  1  0  0  0
 35 44  2  0  0  0
 35 45  1  0  0  0
 35 68  1  0  0  0
 36 56  1  0  0  0
 36108  1  0  0  0
 37 39  1  0  0  0
 37 47  1  0  0  0
 37 66  1  0  0  0
 37109  1  0  0  0
 38 43  2  0  0  0
 38 46  1  0  0  0
 38 47  1  0  0  0
 39 64  1  0  0  0
 39 67  2  0  0  0
 40 52  1  0  0  0
 40 53  2  0  0  0
 40 58  1  0  0  0
 41110  1  0  0  0
 41111  1  0  0  0
 41112  1  0  0  0
 41 48  1  0  0  0
 42 43  1  0  0  0
 42 66  1  0  0  0
 42113  1  0  0  0
 42114  1  0  0  0
 43 44  1  0  0  0
 44115  1  0  0  0
 45 46  2  0  0  0
 45116  1  0  0  0
 46117  1  0  0  0
 47118  1  0  0  0
 47119  1  0  0  0
 48 56  1  0  0  0
 48 65  1  0  0  0
 48120  1  0  0  0
 49 50  1  0  0  0
 49 53  1  0  0  0
 49 64  1  0  0  0
 49121  1  0  0  0
 50 51  1  0  0  0
 50122  1  0  0  0
 50123  1  0  0  0
 51 52  1  0  0  0
 51124  1  0  0  0
 51125  1  0  0  0
 52126  1  0  0  0
 52127  1  0  0  0
 53 54  1  0  0  0
 54 55  2  0  0  0
 54128  1  0  0  0
 55 57  1  0  0  0
 55129  1  0  0  0
 56 69  2  0  0  0
 57 58  2  0  0  0
 57130  1  0  0  0
 58131  1  0  0  0
 59 60  1  0  0  0
 59 61  1  0  0  0
 59 62  1  0  0  0
 60132  1  0  0  0
 60133  1  0  0  0
 60134  1  0  0  0
 61135  1  0  0  0
 61136  1  0  0  0
 61137  1  0  0  0
 62138  1  0  0  0
 62139  1  0  0  0
 62140  1  0  0  0
 63 65  1  0  0  0
 63141  1  0  0  0
 63142  1  0  0  0
 63143  1  0  0  0
 64144  1  0  0  0
 65145  1  0  0  0
 68 82  1  0  0  0
 71 72  2  0  0  0
 71 74  1  0  0  0
 71146  1  0  0  0
 72 76  1  0  0  0
 72147  1  0  0  0
 73 75  1  0  0  0
 73 76  2  0  0  0
 73148  1  0  0  0
 74 75  2  0  0  0
 74 80  1  0  0  0
 75 81  1  0  0  0
 76 86  1  0  0  0
 77 78  2  0  0  0
 77 79  1  0  0  0
 77149  1  0  0  0
 78 82  1  0  0  0
 78150  1  0  0  0
 79 83  1  0  0  0
 79 85  2  0  0  0
 80 83  1  0  0  0
 80151  1  0  0  0
 80152  1  0  0  0
 81 84  1  0  0  0
 81153  1  0  0  0
 81154  1  0  0  0
 82155  1  0  0  0
 82156  1  0  0  0
 83157  1  0  0  0
 84158  1  0  0  0
M  ISO  4   1 100  68 101  82 101  84 100
M  END
> <chiral flag>
0

> <version>
0

> <s_m_source_file>
/data/baiqing/PycharmProjects/Reinvent-master-3.2/result/LINK_invent/BTK/process_docking_weight1_custom_product_contain_oxygen_bond_distance_aromatic_linkinvent_7_9_3/rearranged_h_0052.sdf

> <i_m_source_file_index>
15

> <r_mmod_Potential_Energy-OPLS-2005>
-243.68278503418

> <r_mmod_Stretch_Energy-OPLS-2005>
36.2288703918457

> <r_mmod_Bend_Energy-OPLS-2005>
87.0477142333984

> <r_mmod_Torsional_Energy-OPLS-2005>
216.455627441406

> <r_mmod_Improper_Torsional_Energy-OPLS-2005>
3.84253096580505

> <r_mmod_Van_der_Waal_Energy-OPLS-2005>
157.200103759766

> <r_mmod_Electrostatic_Energy-OPLS-2005>
-515.440307617188

> <r_mmod_Solvation_Energy-OPLS-2005>
-238.777328491211

> <b_mmod_Minimization_Converged-OPLS-2005>
0

> <r_mmod_RMS_Derivative-OPLS-2005>
2.93951368331909

$$$$
15
                    3D
 Structure written by MMmdl.
160168  0  0  1  0            999 V2000
  -30.6988  -14.5129   20.5451 C   0  0  0  0  0  0
  -30.4247  -12.3263   19.4250 C   0  0  0  0  0  0
  -29.4884  -12.4850   18.2102 C   0  0  0  0  0  0
  -28.0169  -12.3307   18.6375 C   0  0  0  0  0  0
  -27.6568  -13.2039   19.8679 C   0  0  2  0  0  0
  -28.7029  -13.0224   20.9899 C   0  0  0  0  0  0
  -25.2585  -13.8143   20.5700 C   0  0  0  0  0  0
  -24.1830  -13.0419   20.9196 C   0  0  0  0  0  0
  -24.6373  -11.6883   20.8735 C   0  0  0  0  0  0
  -23.9041  -10.4271   21.0391 C   0  0  0  0  0  0
  -24.3598   -9.4184   21.9164 C   0  0  0  0  0  0
  -23.6271   -8.2230   22.0745 C   0  0  0  0  0  0
  -22.4260   -8.0265   21.3534 C   0  0  0  0  0  0
  -21.9899   -9.0238   20.4626 C   0  0  0  0  0  0
  -22.7221  -10.2113   20.3026 C   0  0  0  0  0  0
  -21.6863   -6.0707   22.5263 C   0  0  0  0  0  0
  -21.4018   -6.5618   23.8187 C   0  0  0  0  0  0
  -21.3659   -5.6774   24.9158 C   0  0  0  0  0  0
  -21.6065   -4.3039   24.7217 C   0  0  0  0  0  0
  -21.8821   -3.8120   23.4336 C   0  0  0  0  0  0
  -21.9194   -4.6938   22.3385 C   0  0  0  0  0  0
  -22.7856  -13.5209   21.1876 C   0  0  0  0  0  0
  -22.1662   -4.2130   21.0960 F   0  0  0  0  0  0
  -21.5649   -3.4525   25.7729 F   0  0  0  0  0  0
  -30.0270  -13.3336   20.4208 N   0  0  0  0  0  0
  -26.3009  -12.9297   20.3369 N   0  0  0  0  0  0
  -25.9302  -11.6459   20.5788 N   0  0  0  0  0  0
  -22.0512  -12.8163   22.0399 N   0  0  0  0  0  0
  -25.4319  -15.1854   20.4139 N   0  0  0  0  0  0
  -31.8525  -14.6652   20.1417 O   0  0  0  0  0  0
  -21.6638   -6.8855   21.4220 O   0  0  0  0  0  0
  -22.3523  -14.5529   20.6754 O   0  0  0  0  0  0
  -24.6184  -31.8630   23.2107 C   0  0  0  0  0  0
  -25.9081  -32.4794   23.8358 C   0  0  1  0  0  0
  -27.2204  -27.3851   20.0888 C   0  0  0  0  0  0
  -25.5948  -33.8598   24.2263 N   0  0  0  0  0  0
  -23.4074  -30.4870   21.5567 C   0  0  2  0  0  0
  -24.8511  -28.9586   20.1092 C   0  0  0  0  0  0
  -22.7431  -29.4619   22.5038 C   0  0  0  0  0  0
  -18.0265  -28.1380   22.8463 C   0  0  0  0  0  0
  -24.1511  -36.7297   23.2643 C   0  0  0  0  0  0
  -25.9439  -30.8116   21.3769 C   0  0  0  0  0  0
  -26.0152  -29.4473   20.7103 C   0  0  0  0  0  0
  -27.2025  -28.6695   20.6969 C   0  0  0  0  0  0
  -26.0357  -26.9374   19.4575 C   0  0  0  0  0  0
  -24.8588  -27.7039   19.4801 C   0  0  0  0  0  0
  -23.6140  -29.8263   20.1716 C   0  0  0  0  0  0
  -25.4137  -36.3095   24.0332 C   0  0  1  0  0  0
  -20.5857  -28.3633   23.1338 C   0  0  2  0  0  0
  -20.6764  -26.9372   22.5434 C   0  0  0  0  0  0
  -19.5752  -26.6389   21.5226 C   0  0  0  0  0  0
  -18.1913  -26.7908   22.1620 C   0  0  0  0  0  0
  -19.1512  -28.8823   23.2872 C   0  0  0  0  0  0
  -18.9452  -30.1429   23.8871 C   0  0  0  0  0  0
  -17.6458  -30.6560   24.0547 C   0  0  0  0  0  0
  -25.9088  -34.9466   23.5089 C   0  0  0  0  0  0
  -16.5341  -29.9048   23.6374 C   0  0  0  0  0  0
  -16.7261  -28.6503   23.0329 C   0  0  0  0  0  0
  -26.4481  -31.6595   25.0714 C   0  0  0  0  0  0
  -25.3747  -31.3744   26.1463 C   0  0  0  0  0  0
  -27.0335  -30.3033   24.6178 C   0  0  0  0  0  0
  -27.6025  -32.4350   25.7505 C   0  0  0  0  0  0
  -27.5584  -37.1782   24.8462 C   0  0  0  0  0  0
  -21.4168  -29.2989   22.3742 N   0  0  0  0  0  0
  -26.4291  -37.3797   23.9424 N   0  0  0  0  0  0
  -24.6755  -31.0674   22.1050 N   0  0  0  0  0  0
  -23.4183  -28.8153   23.3075 O   0  0  0  0  0  0
  -28.3666  -26.5936   20.1367 O   0  0  0  0  0  0
  -26.5642  -34.8910   22.4652 O   0  0  0  0  0  0
  -23.5378  -32.1393   23.7497 O   0  0  0  0  0  0
  -30.1884  -19.0024   18.2312 C   0  0  0  0  0  0
  -30.1410  -20.3150   18.7329 C   0  0  0  0  0  0
  -30.2699  -17.9093   19.1108 C   0  0  0  0  0  0
  -30.1310  -20.5705   20.1235 C   0  0  0  0  0  0
  -30.2566  -18.1040   20.5108 C   0  0  0  0  0  0
  -30.1377  -19.4447   21.0217 C   0  0  0  0  0  0
  -30.2437  -22.0267   20.5748 C   0  0  0  0  0  0
  -30.0209  -19.6601   22.5346 C   0  0  0  0  0  0
  -27.3518  -24.5616   21.1338 C   0  0  0  0  0  0
  -30.4911  -16.8774   21.4367 C   0  0  0  0  0  0
  -29.6319  -24.4287   20.0384 C   0  0  0  0  0  0
  -28.2449  -25.1430   20.0124 C   0  0  2  0  0  0
  -29.5552  -22.9544   19.8754 N   0  0  0  0  0  0
  -29.9818  -15.5523   21.0181 N   0  0  0  0  0  0
  -30.9697  -22.3352   21.5229 O   0  0  0  0  0  0
  -31.4672  -12.4303   19.1170 H   0  0  0  0  0  0
  -30.3371  -11.3249   19.8527 H   0  0  0  0  0  0
  -29.7336  -11.7431   17.4484 H   0  0  0  0  0  0
  -29.6389  -13.4616   17.7487 H   0  0  0  0  0  0
  -27.8584  -11.2797   18.8790 H   0  0  0  0  0  0
  -27.3499  -12.5508   17.8029 H   0  0  0  0  0  0
  -27.6898  -14.2434   19.5414 H   0  0  0  0  0  0
  -28.6907  -11.9956   21.3569 H   0  0  0  0  0  0
  -28.4656  -13.6460   21.8547 H   0  0  0  0  0  0
  -25.2735   -9.5684   22.4740 H   0  0  0  0  0  0
  -23.9990   -7.4622   22.7467 H   0  0  0  0  0  0
  -21.0846   -8.8730   19.8916 H   0  0  0  0  0  0
  -22.3665  -10.9651   19.6140 H   0  0  0  0  0  0
  -21.1993   -7.6126   23.9692 H   0  0  0  0  0  0
  -21.1506   -6.0501   25.9064 H   0  0  0  0  0  0
  -22.0606   -2.7591   23.2836 H   0  0  0  0  0  0
  -22.4160  -11.9794   22.4708 H   0  0  0  0  0  0
  -21.1130  -13.1151   22.2660 H   0  0  0  0  0  0
  -24.6735  -15.8461   20.5418 H   0  0  0  0  0  0
  -26.2817  -15.6201   20.0740 H   0  0  0  0  0  0
  -26.7120  -32.5443   23.1073 H   0  0  0  0  0  0
  -25.0068  -33.9741   25.0389 H   0  0  0  0  0  0
  -22.7004  -31.3076   21.4192 H   0  0  0  0  0  0
  -23.3777  -35.9628   23.3321 H   0  0  0  0  0  0
  -24.3596  -36.8946   22.2062 H   0  0  0  0  0  0
  -23.7244  -37.6494   23.6649 H   0  0  0  0  0  0
  -26.0800  -31.5847   20.6192 H   0  0  0  0  0  0
  -26.8220  -30.8466   22.0076 H   0  0  0  0  0  0
  -28.0952  -29.0380   21.1839 H   0  0  0  0  0  0
  -25.9852  -25.9847   18.9535 H   0  0  0  0  0  0
  -23.9651  -27.3217   19.0081 H   0  0  0  0  0  0
  -23.7166  -30.6036   19.4163 H   0  0  0  0  0  0
  -22.7317  -29.2561   19.8756 H   0  0  0  0  0  0
  -25.1295  -36.1966   25.0815 H   0  0  0  0  0  0
  -20.9901  -28.3193   24.1485 H   0  0  0  0  0  0
  -20.5768  -26.2206   23.3605 H   0  0  0  0  0  0
  -21.6600  -26.7473   22.1136 H   0  0  0  0  0  0
  -19.6958  -25.6329   21.1193 H   0  0  0  0  0  0
  -19.6705  -27.3250   20.6802 H   0  0  0  0  0  0
  -17.4192  -26.6686   21.4008 H   0  0  0  0  0  0
  -18.0252  -26.0051   22.9009 H   0  0  0  0  0  0
  -19.7940  -30.7237   24.2207 H   0  0  0  0  0  0
  -17.5026  -31.6243   24.5130 H   0  0  0  0  0  0
  -15.5332  -30.2911   23.7758 H   0  0  0  0  0  0
  -15.8674  -28.0836   22.7005 H   0  0  0  0  0  0
  -24.5861  -30.7171   25.7802 H   0  0  0  0  0  0
  -24.8966  -32.2898   26.4922 H   0  0  0  0  0  0
  -25.8045  -30.8864   27.0211 H   0  0  0  0  0  0
  -26.2892  -29.6781   24.1216 H   0  0  0  0  0  0
  -27.4078  -29.7303   25.4672 H   0  0  0  0  0  0
  -27.8740  -30.4351   23.9373 H   0  0  0  0  0  0
  -27.2588  -33.3627   26.2064 H   0  0  0  0  0  0
  -28.3793  -32.6960   25.0326 H   0  0  0  0  0  0
  -28.0696  -31.8508   26.5427 H   0  0  0  0  0  0
  -28.2545  -38.0116   24.7494 H   0  0  0  0  0  0
  -28.1096  -36.2625   24.6254 H   0  0  0  0  0  0
  -27.2267  -37.1407   25.8849 H   0  0  0  0  0  0
  -20.9374  -29.8682   21.6915 H   0  0  0  0  0  0
  -26.0201  -38.2890   24.1412 H   0  0  0  0  0  0
  -30.2100  -18.8427   17.1597 H   0  0  0  0  0  0
  -30.1556  -21.1345   18.0278 H   0  0  0  0  0  0
  -30.3747  -16.9166   18.6915 H   0  0  0  0  0  0
  -29.6049  -20.6319   22.7952 H   0  0  0  0  0  0
  -30.9963  -19.5643   23.0184 H   0  0  0  0  0  0
  -29.3272  -18.9510   22.9882 H   0  0  0  0  0  0
  -27.3165  -23.4744   21.0895 H   0  0  0  0  0  0
  -26.3197  -24.8958   21.0710 H   0  0  0  0  0  0
  -27.7309  -24.8297   22.1184 H   0  0  0  0  0  0
  -30.0485  -17.0417   22.4143 H   0  0  0  0  0  0
  -31.5661  -16.8122   21.6217 H   0  0  0  0  0  0
  -30.1494  -24.6882   20.9629 H   0  0  0  0  0  0
  -30.2499  -24.8199   19.2315 H   0  0  0  0  0  0
  -27.8049  -24.9091   19.0450 H   0  0  0  0  0  0
  -28.9744  -22.6105   19.1242 H   0  0  0  0  0  0
  -29.0213  -15.3526   21.2485 H   0  0  0  0  0  0
  1 25  1  0  0  0
  1 30  2  0  0  0
  1 84  1  0  0  0
  2  3  1  0  0  0
  2 25  1  0  0  0
  2 86  1  0  0  0
  2 87  1  0  0  0
  3  4  1  0  0  0
  3 88  1  0  0  0
  3 89  1  0  0  0
  4  5  1  0  0  0
  4 90  1  0  0  0
  4 91  1  0  0  0
  5  6  1  0  0  0
  5 26  1  0  0  0
  5 92  1  0  0  0
  6 25  1  0  0  0
  6 93  1  0  0  0
  6 94  1  0  0  0
  7  8  2  0  0  0
  7 26  1  0  0  0
  7 29  1  0  0  0
  8  9  1  0  0  0
  8 22  1  0  0  0
  9 10  1  0  0  0
  9 27  2  0  0  0
 10 11  2  0  0  0
 10 15  1  0  0  0
 11 12  1  0  0  0
 11 95  1  0  0  0
 12 13  2  0  0  0
 12 96  1  0  0  0
 13 14  1  0  0  0
 13 31  1  0  0  0
 14 15  2  0  0  0
 14 97  1  0  0  0
 15 98  1  0  0  0
 16 17  2  0  0  0
 16 21  1  0  0  0
 16 31  1  0  0  0
 17 18  1  0  0  0
 17 99  1  0  0  0
 18 19  2  0  0  0
 18100  1  0  0  0
 19 20  1  0  0  0
 19 24  1  0  0  0
 20 21  2  0  0  0
 20101  1  0  0  0
 21 23  1  0  0  0
 22 28  1  0  0  0
 22 32  2  0  0  0
 26 27  1  0  0  0
 28102  1  0  0  0
 28103  1  0  0  0
 29104  1  0  0  0
 29105  1  0  0  0
 33 34  1  0  0  0
 33 66  1  0  0  0
 33 70  2  0  0  0
 34 36  1  0  0  0
 34 59  1  0  0  0
 34106  1  0  0  0
 35 44  2  0  0  0
 35 45  1  0  0  0
 35 68  1  0  0  0
 36 56  1  0  0  0
 36107  1  0  0  0
 37 39  1  0  0  0
 37 47  1  0  0  0
 37 66  1  0  0  0
 37108  1  0  0  0
 38 43  2  0  0  0
 38 46  1  0  0  0
 38 47  1  0  0  0
 39 64  1  0  0  0
 39 67  2  0  0  0
 40 52  1  0  0  0
 40 53  2  0  0  0
 40 58  1  0  0  0
 41109  1  0  0  0
 41110  1  0  0  0
 41111  1  0  0  0
 41 48  1  0  0  0
 42 43  1  0  0  0
 42 66  1  0  0  0
 42112  1  0  0  0
 42113  1  0  0  0
 43 44  1  0  0  0
 44114  1  0  0  0
 45 46  2  0  0  0
 45115  1  0  0  0
 46116  1  0  0  0
 47117  1  0  0  0
 47118  1  0  0  0
 48 56  1  0  0  0
 48 65  1  0  0  0
 48119  1  0  0  0
 49 50  1  0  0  0
 49 53  1  0  0  0
 49 64  1  0  0  0
 49120  1  0  0  0
 50 51  1  0  0  0
 50121  1  0  0  0
 50122  1  0  0  0
 51 52  1  0  0  0
 51123  1  0  0  0
 51124  1  0  0  0
 52125  1  0  0  0
 52126  1  0  0  0
 53 54  1  0  0  0
 54 55  2  0  0  0
 54127  1  0  0  0
 55 57  1  0  0  0
 55128  1  0  0  0
 56 69  2  0  0  0
 57 58  2  0  0  0
 57129  1  0  0  0
 58130  1  0  0  0
 59 60  1  0  0  0
 59 61  1  0  0  0
 59 62  1  0  0  0
 60131  1  0  0  0
 60132  1  0  0  0
 60133  1  0  0  0
 61134  1  0  0  0
 61135  1  0  0  0
 61136  1  0  0  0
 62137  1  0  0  0
 62138  1  0  0  0
 62139  1  0  0  0
 63 65  1  0  0  0
 63140  1  0  0  0
 63141  1  0  0  0
 63142  1  0  0  0
 64143  1  0  0  0
 65144  1  0  0  0
 68 82  1  0  0  0
 71 72  2  0  0  0
 71 73  1  0  0  0
 71145  1  0  0  0
 72 74  1  0  0  0
 72146  1  0  0  0
 73 75  2  0  0  0
 73147  1  0  0  0
 74 76  2  0  0  0
 74 77  1  0  0  0
 75 76  1  0  0  0
 75 80  1  0  0  0
 76 78  1  0  0  0
 77 83  1  0  0  0
 77 85  2  0  0  0
 78148  1  0  0  0
 78149  1  0  0  0
 78150  1  0  0  0
 79151  1  0  0  0
 79152  1  0  0  0
 79153  1  0  0  0
 79 82  1  0  0  0
 80 84  1  0  0  0
 80154  1  0  0  0
 80155  1  0  0  0
 81 82  1  0  0  0
 81 83  1  0  0  0
 81156  1  0  0  0
 81157  1  0  0  0
 82158  1  0  0  0
 83159  1  0  0  0
 84160  1  0  0  0
M  ISO  4   1 100  68 101  82 101  84 100
M  END
> <chiral flag>
0

> <version>
0

> <s_m_source_file>
/data/baiqing/PycharmProjects/Reinvent-master-3.2/result/LINK_invent/BTK/process_docking_weight1_custom_product_contain_oxygen_bond_distance_aromatic_linkinvent_7_9_3/rearranged_h_0052.sdf

> <i_m_source_file_index>
16

> <r_mmod_Potential_Energy-OPLS-2005>
-136.518356323242

> <r_mmod_Stretch_Energy-OPLS-2005>
53.7254867553711

> <r_mmod_Bend_Energy-OPLS-2005>
107.626777648926

> <r_mmod_Torsional_Energy-OPLS-2005>
212.46435546875

> <r_mmod_Improper_Torsional_Energy-OPLS-2005>
3.90947461128235

> <r_mmod_Van_der_Waal_Energy-OPLS-2005>
166.259979248047

> <r_mmod_Electrostatic_Energy-OPLS-2005>
-472.553039550781

> <r_mmod_Solvation_Energy-OPLS-2005>
-231.286239624023

> <b_mmod_Minimization_Converged-OPLS-2005>
0

> <r_mmod_RMS_Derivative-OPLS-2005>
4.78338241577148

$$$$
16
                    3D
 Structure written by MMmdl.
154162  0  0  1  0            999 V2000
  -30.7312  -14.4656   20.5808 C   0  0  0  0  0  0
  -30.4074  -12.3075   19.4306 C   0  0  0  0  0  0
  -29.4853  -12.4970   18.2101 C   0  0  0  0  0  0
  -28.0083  -12.3601   18.6252 C   0  0  0  0  0  0
  -27.6541  -13.2124   19.8740 C   0  0  2  0  0  0
  -28.6961  -13.0248   20.9992 C   0  0  0  0  0  0
  -25.2526  -13.8175   20.5720 C   0  0  0  0  0  0
  -24.1789  -13.0432   20.9208 C   0  0  0  0  0  0
  -24.6361  -11.6904   20.8771 C   0  0  0  0  0  0
  -23.9049  -10.4278   21.0436 C   0  0  0  0  0  0
  -24.3606   -9.4190   21.9198 C   0  0  0  0  0  0
  -23.6295   -8.2217   22.0757 C   0  0  0  0  0  0
  -22.4265   -8.0268   21.3557 C   0  0  0  0  0  0
  -21.9907   -9.0238   20.4661 C   0  0  0  0  0  0
  -22.7234  -10.2117   20.3075 C   0  0  0  0  0  0
  -21.6846   -6.0745   22.5293 C   0  0  0  0  0  0
  -21.4008   -6.5643   23.8227 C   0  0  0  0  0  0
  -21.3648   -5.6795   24.9188 C   0  0  0  0  0  0
  -21.6036   -4.3056   24.7231 C   0  0  0  0  0  0
  -21.8812   -3.8159   23.4349 C   0  0  0  0  0  0
  -21.9190   -4.6979   22.3411 C   0  0  0  0  0  0
  -22.7815  -13.5219   21.1881 C   0  0  0  0  0  0
  -22.1662   -4.2171   21.0985 F   0  0  0  0  0  0
  -21.5622   -3.4534   25.7742 F   0  0  0  0  0  0
  -30.0257  -13.3113   20.4387 N   0  0  0  0  0  0
  -26.2975  -12.9360   20.3397 N   0  0  0  0  0  0
  -25.9284  -11.6516   20.5786 N   0  0  0  0  0  0
  -22.0455  -12.8172   22.0411 N   0  0  0  0  0  0
  -25.4239  -15.1901   20.4159 N   0  0  0  0  0  0
  -31.8564  -14.6111   20.0958 O   0  0  0  0  0  0
  -21.6616   -6.8879   21.4256 O   0  0  0  0  0  0
  -22.3500  -14.5539   20.6751 O   0  0  0  0  0  0
  -24.6165  -31.8677   23.2066 C   0  0  0  0  0  0
  -25.9076  -32.4814   23.8345 C   0  0  1  0  0  0
  -27.2320  -27.4188   20.0937 C   0  0  0  0  0  0
  -25.5958  -33.8604   24.2315 N   0  0  0  0  0  0
  -23.4023  -30.4927   21.5481 C   0  0  2  0  0  0
  -24.8442  -28.9539   20.1130 C   0  0  0  0  0  0
  -22.7401  -29.4683   22.4975 C   0  0  0  0  0  0
  -18.0282  -28.1380   22.8511 C   0  0  0  0  0  0
  -24.1498  -36.7290   23.2628 C   0  0  0  0  0  0
  -25.9299  -30.8318   21.3538 C   0  0  0  0  0  0
  -26.0058  -29.4627   20.7055 C   0  0  0  0  0  0
  -27.1994  -28.7031   20.6900 C   0  0  0  0  0  0
  -26.0451  -26.9265   19.5010 C   0  0  0  0  0  0
  -24.8596  -27.6863   19.5069 C   0  0  0  0  0  0
  -23.6083  -29.8246   20.1621 C   0  0  0  0  0  0
  -25.4123  -36.3106   24.0337 C   0  0  1  0  0  0
  -20.5874  -28.3683   23.1316 C   0  0  2  0  0  0
  -20.6778  -26.9420   22.5398 C   0  0  0  0  0  0
  -19.5757  -26.6406   21.5201 C   0  0  0  0  0  0
  -18.1939  -26.7932   22.1622 C   0  0  0  0  0  0
  -19.1528  -28.8849   23.2914 C   0  0  0  0  0  0
  -18.9449  -30.1463   23.8921 C   0  0  0  0  0  0
  -17.6450  -30.6582   24.0580 C   0  0  0  0  0  0
  -25.9054  -34.9479   23.5114 C   0  0  0  0  0  0
  -16.5345  -29.9088   23.6330 C   0  0  0  0  0  0
  -16.7274  -28.6503   23.0352 C   0  0  0  0  0  0
  -26.4504  -31.6563   25.0645 C   0  0  0  0  0  0
  -25.3767  -31.3634   26.1375 C   0  0  0  0  0  0
  -27.0301  -30.3023   24.5937 C   0  0  0  0  0  0
  -27.6099  -32.4227   25.7436 C   0  0  0  0  0  0
  -27.5585  -37.1797   24.8470 C   0  0  0  0  0  0
  -21.4125  -29.3054   22.3710 N   0  0  0  0  0  0
  -26.4293  -37.3805   23.9425 N   0  0  0  0  0  0
  -24.6683  -31.0770   22.0962 N   0  0  0  0  0  0
  -23.4174  -28.8241   23.3022 O   0  0  0  0  0  0
  -28.4213  -26.7074   20.1201 O   0  0  0  0  0  0
  -26.5569  -34.8943   22.4649 O   0  0  0  0  0  0
  -23.5363  -32.1432   23.7477 O   0  0  0  0  0  0
  -29.3399  -20.1904   20.4172 C   0  0  0  0  0  0
  -28.7035  -19.7584   22.7202 C   0  0  0  0  0  0
  -29.9308  -18.9061   20.3489 C   0  0  0  0  0  0
  -29.2893  -18.4753   22.6513 C   0  0  0  0  0  0
  -28.7460  -20.6450   21.6190 C   0  0  0  0  0  0
  -29.9430  -18.0515   21.4759 C   0  0  0  0  0  0
  -28.0348  -24.3381   20.8177 C   0  0  0  0  0  0
  -28.1408  -22.0497   21.7838 C   0  0  0  0  0  0
  -30.7892  -16.7739   21.4785 C   0  0  0  0  0  0
  -28.4851  -25.3215   19.7069 C   0  0  0  0  0  0
  -28.5053  -23.0735   20.7918 N   0  0  0  0  0  0
  -30.1152  -15.4948   21.1978 N   0  0  0  0  0  0
  -27.2618  -24.7150   21.7017 O   0  0  0  0  0  0
  -31.4539  -12.3838   19.1308 H   0  0  0  0  0  0
  -30.2905  -11.3046   19.8434 H   0  0  0  0  0  0
  -29.7236  -11.7625   17.4387 H   0  0  0  0  0  0
  -29.6557  -13.4771   17.7622 H   0  0  0  0  0  0
  -27.8255  -11.3056   18.8346 H   0  0  0  0  0  0
  -27.3537  -12.6213   17.7929 H   0  0  0  0  0  0
  -27.6887  -14.2549   19.5582 H   0  0  0  0  0  0
  -28.6728  -12.0021   21.3782 H   0  0  0  0  0  0
  -28.4548  -13.6596   21.8532 H   0  0  0  0  0  0
  -25.2736   -9.5671   22.4784 H   0  0  0  0  0  0
  -24.0025   -7.4593   22.7441 H   0  0  0  0  0  0
  -21.0851   -8.8731   19.8959 H   0  0  0  0  0  0
  -22.3682  -10.9652   19.6184 H   0  0  0  0  0  0
  -21.1993   -7.6145   23.9736 H   0  0  0  0  0  0
  -21.1476   -6.0524   25.9094 H   0  0  0  0  0  0
  -22.0595   -2.7626   23.2839 H   0  0  0  0  0  0
  -22.4071  -11.9813   22.4747 H   0  0  0  0  0  0
  -21.1052  -13.1138   22.2595 H   0  0  0  0  0  0
  -24.6639  -15.8505   20.5395 H   0  0  0  0  0  0
  -26.2916  -15.6342   20.1422 H   0  0  0  0  0  0
  -26.7144  -32.5536   23.1108 H   0  0  0  0  0  0
  -25.0229  -33.9769   25.0544 H   0  0  0  0  0  0
  -22.6914  -31.3098   21.4108 H   0  0  0  0  0  0
  -23.3768  -35.9611   23.3295 H   0  0  0  0  0  0
  -24.3582  -36.8876   22.2033 H   0  0  0  0  0  0
  -23.7238  -37.6503   23.6618 H   0  0  0  0  0  0
  -26.0298  -31.5936   20.5793 H   0  0  0  0  0  0
  -26.8233  -30.8940   21.9627 H   0  0  0  0  0  0
  -28.0965  -29.0985   21.1460 H   0  0  0  0  0  0
  -26.0022  -25.9545   19.0345 H   0  0  0  0  0  0
  -23.9658  -27.2892   19.0452 H   0  0  0  0  0  0
  -23.7205  -30.5997   19.4026 H   0  0  0  0  0  0
  -22.7307  -29.2481   19.8646 H   0  0  0  0  0  0
  -25.1302  -36.1950   25.0824 H   0  0  0  0  0  0
  -20.9997  -28.3241   24.1422 H   0  0  0  0  0  0
  -20.5702  -26.2277   23.3572 H   0  0  0  0  0  0
  -21.6648  -26.7464   22.1185 H   0  0  0  0  0  0
  -19.6908  -25.6323   21.1214 H   0  0  0  0  0  0
  -19.6697  -27.3226   20.6739 H   0  0  0  0  0  0
  -17.4207  -26.6716   21.4013 H   0  0  0  0  0  0
  -18.0341  -26.0036   22.8979 H   0  0  0  0  0  0
  -19.7921  -30.7293   24.2270 H   0  0  0  0  0  0
  -17.4996  -31.6268   24.5180 H   0  0  0  0  0  0
  -15.5350  -30.2998   23.7635 H   0  0  0  0  0  0
  -15.8674  -28.0839   22.7038 H   0  0  0  0  0  0
  -24.6019  -30.6896   25.7697 H   0  0  0  0  0  0
  -24.8864  -32.2758   26.4767 H   0  0  0  0  0  0
  -25.8129  -30.8858   27.0151 H   0  0  0  0  0  0
  -26.2793  -29.6817   24.1023 H   0  0  0  0  0  0
  -27.4159  -29.7217   25.4320 H   0  0  0  0  0  0
  -27.8603  -30.4378   23.8998 H   0  0  0  0  0  0
  -27.2772  -33.3543   26.2023 H   0  0  0  0  0  0
  -28.3947  -32.6712   25.0278 H   0  0  0  0  0  0
  -28.0718  -31.8292   26.5342 H   0  0  0  0  0  0
  -28.2609  -38.0092   24.7548 H   0  0  0  0  0  0
  -28.1078  -36.2625   24.6280 H   0  0  0  0  0  0
  -27.2284  -37.1422   25.8865 H   0  0  0  0  0  0
  -20.9258  -29.8749   21.6933 H   0  0  0  0  0  0
  -26.0175  -38.2875   24.1446 H   0  0  0  0  0  0
  -29.3728  -20.8312   19.5474 H   0  0  0  0  0  0
  -28.2441  -20.0741   23.6478 H   0  0  0  0  0  0
  -30.4273  -18.6007   19.4375 H   0  0  0  0  0  0
  -29.2841  -17.8386   23.5262 H   0  0  0  0  0  0
  -28.4287  -22.4201   22.7706 H   0  0  0  0  0  0
  -27.0549  -21.9473   21.8084 H   0  0  0  0  0  0
  -31.2722  -16.6852   22.4530 H   0  0  0  0  0  0
  -31.6051  -16.9398   20.7730 H   0  0  0  0  0  0
  -27.9477  -25.1308   18.7790 H   0  0  0  0  0  0
  -29.5306  -25.1099   19.4789 H   0  0  0  0  0  0
  -29.1658  -22.8180   20.0715 H   0  0  0  0  0  0
  -29.1780  -15.3578   21.5453 H   0  0  0  0  0  0
  1 25  1  0  0  0
  1 30  2  0  0  0
  1 82  1  0  0  0
  2  3  1  0  0  0
  2 25  1  0  0  0
  2 84  1  0  0  0
  2 85  1  0  0  0
  3  4  1  0  0  0
  3 86  1  0  0  0
  3 87  1  0  0  0
  4  5  1  0  0  0
  4 88  1  0  0  0
  4 89  1  0  0  0
  5  6  1  0  0  0
  5 26  1  0  0  0
  5 90  1  0  0  0
  6 25  1  0  0  0
  6 91  1  0  0  0
  6 92  1  0  0  0
  7  8  2  0  0  0
  7 26  1  0  0  0
  7 29  1  0  0  0
  8  9  1  0  0  0
  8 22  1  0  0  0
  9 10  1  0  0  0
  9 27  2  0  0  0
 10 11  2  0  0  0
 10 15  1  0  0  0
 11 12  1  0  0  0
 11 93  1  0  0  0
 12 13  2  0  0  0
 12 94  1  0  0  0
 13 14  1  0  0  0
 13 31  1  0  0  0
 14 15  2  0  0  0
 14 95  1  0  0  0
 15 96  1  0  0  0
 16 17  2  0  0  0
 16 21  1  0  0  0
 16 31  1  0  0  0
 17 18  1  0  0  0
 17 97  1  0  0  0
 18 19  2  0  0  0
 18 98  1  0  0  0
 19 20  1  0  0  0
 19 24  1  0  0  0
 20 21  2  0  0  0
 20 99  1  0  0  0
 21 23  1  0  0  0
 22 28  1  0  0  0
 22 32  2  0  0  0
 26 27  1  0  0  0
 28100  1  0  0  0
 28101  1  0  0  0
 29102  1  0  0  0
 29103  1  0  0  0
 33 34  1  0  0  0
 33 66  1  0  0  0
 33 70  2  0  0  0
 34 36  1  0  0  0
 34 59  1  0  0  0
 34104  1  0  0  0
 35 44  2  0  0  0
 35 45  1  0  0  0
 35 68  1  0  0  0
 36 56  1  0  0  0
 36105  1  0  0  0
 37 39  1  0  0  0
 37 47  1  0  0  0
 37 66  1  0  0  0
 37106  1  0  0  0
 38 43  2  0  0  0
 38 46  1  0  0  0
 38 47  1  0  0  0
 39 64  1  0  0  0
 39 67  2  0  0  0
 40 52  1  0  0  0
 40 53  2  0  0  0
 40 58  1  0  0  0
 41107  1  0  0  0
 41108  1  0  0  0
 41109  1  0  0  0
 41 48  1  0  0  0
 42 43  1  0  0  0
 42 66  1  0  0  0
 42110  1  0  0  0
 42111  1  0  0  0
 43 44  1  0  0  0
 44112  1  0  0  0
 45 46  2  0  0  0
 45113  1  0  0  0
 46114  1  0  0  0
 47115  1  0  0  0
 47116  1  0  0  0
 48 56  1  0  0  0
 48 65  1  0  0  0
 48117  1  0  0  0
 49 50  1  0  0  0
 49 53  1  0  0  0
 49 64  1  0  0  0
 49118  1  0  0  0
 50 51  1  0  0  0
 50119  1  0  0  0
 50120  1  0  0  0
 51 52  1  0  0  0
 51121  1  0  0  0
 51122  1  0  0  0
 52123  1  0  0  0
 52124  1  0  0  0
 53 54  1  0  0  0
 54 55  2  0  0  0
 54125  1  0  0  0
 55 57  1  0  0  0
 55126  1  0  0  0
 56 69  2  0  0  0
 57 58  2  0  0  0
 57127  1  0  0  0
 58128  1  0  0  0
 59 60  1  0  0  0
 59 61  1  0  0  0
 59 62  1  0  0  0
 60129  1  0  0  0
 60130  1  0  0  0
 60131  1  0  0  0
 61132  1  0  0  0
 61133  1  0  0  0
 61134  1  0  0  0
 62135  1  0  0  0
 62136  1  0  0  0
 62137  1  0  0  0
 63 65  1  0  0  0
 63138  1  0  0  0
 63139  1  0  0  0
 63140  1  0  0  0
 64141  1  0  0  0
 65142  1  0  0  0
 68 80  1  0  0  0
 71 73  2  0  0  0
 71 75  1  0  0  0
 71143  1  0  0  0
 72 74  1  0  0  0
 72 75  2  0  0  0
 72144  1  0  0  0
 73 76  1  0  0  0
 73145  1  0  0  0
 74 76  2  0  0  0
 74146  1  0  0  0
 75 78  1  0  0  0
 76 79  1  0  0  0
 77 80  1  0  0  0
 77 81  1  0  0  0
 77 83  2  0  0  0
 78 81  1  0  0  0
 78147  1  0  0  0
 78148  1  0  0  0
 79 82  1  0  0  0
 79149  1  0  0  0
 79150  1  0  0  0
 80151  1  0  0  0
 80152  1  0  0  0
 81153  1  0  0  0
 82154  1  0  0  0
M  ISO  4   1 100  68 101  80 101  82 100
M  END
> <chiral flag>
0

> <version>
0

> <s_m_source_file>
/data/baiqing/PycharmProjects/Reinvent-master-3.2/result/LINK_invent/BTK/process_docking_weight1_custom_product_contain_oxygen_bond_distance_aromatic_linkinvent_7_9_3/rearranged_h_0052.sdf

> <i_m_source_file_index>
17

> <r_mmod_Potential_Energy-OPLS-2005>
-176.3359375

> <r_mmod_Stretch_Energy-OPLS-2005>
39.6369781494141

> <r_mmod_Bend_Energy-OPLS-2005>
106.049369812012

> <r_mmod_Torsional_Energy-OPLS-2005>
190.782562255859

> <r_mmod_Improper_Torsional_Energy-OPLS-2005>
2.82046151161194

> <r_mmod_Van_der_Waal_Energy-OPLS-2005>
155.716339111328

> <r_mmod_Electrostatic_Energy-OPLS-2005>
-444.220275878906

> <r_mmod_Solvation_Energy-OPLS-2005>
-241.624176025391

> <b_mmod_Minimization_Converged-OPLS-2005>
0

> <r_mmod_RMS_Derivative-OPLS-2005>
2.25404620170593

$$$$
17
                    3D
 Structure written by MMmdl.
164173  0  0  1  0            999 V2000
  -30.6365  -14.5648   20.5674 C   0  0  0  0  0  0
  -30.4444  -12.3577   19.4469 C   0  0  0  0  0  0
  -29.5146  -12.5071   18.2205 C   0  0  0  0  0  0
  -28.0331  -12.3507   18.6302 C   0  0  0  0  0  0
  -27.6608  -13.2071   19.8697 C   0  0  2  0  0  0
  -28.6988  -13.0027   20.9962 C   0  0  0  0  0  0
  -25.2570  -13.8149   20.5701 C   0  0  0  0  0  0
  -24.1809  -13.0437   20.9167 C   0  0  0  0  0  0
  -24.6372  -11.6909   20.8711 C   0  0  0  0  0  0
  -23.9048  -10.4282   21.0382 C   0  0  0  0  0  0
  -24.3597   -9.4211   21.9171 C   0  0  0  0  0  0
  -23.6272   -8.2244   22.0756 C   0  0  0  0  0  0
  -22.4249   -8.0265   21.3554 C   0  0  0  0  0  0
  -21.9875   -9.0243   20.4663 C   0  0  0  0  0  0
  -22.7202  -10.2123   20.3052 C   0  0  0  0  0  0
  -21.6841   -6.0712   22.5268 C   0  0  0  0  0  0
  -21.4015   -6.5623   23.8205 C   0  0  0  0  0  0
  -21.3670   -5.6779   24.9160 C   0  0  0  0  0  0
  -21.6038   -4.3040   24.7223 C   0  0  0  0  0  0
  -21.8817   -3.8136   23.4344 C   0  0  0  0  0  0
  -21.9191   -4.6946   22.3400 C   0  0  0  0  0  0
  -22.7826  -13.5237   21.1833 C   0  0  0  0  0  0
  -22.1652   -4.2126   21.0978 F   0  0  0  0  0  0
  -21.5648   -3.4538   25.7752 F   0  0  0  0  0  0
  -30.0260  -13.3467   20.4548 N   0  0  0  0  0  0
  -26.2997  -12.9326   20.3292 N   0  0  0  0  0  0
  -25.9285  -11.6484   20.5676 N   0  0  0  0  0  0
  -22.0458  -12.8258   22.0409 N   0  0  0  0  0  0
  -25.4324  -15.1863   20.4218 N   0  0  0  0  0  0
  -31.7571  -14.7829   20.0990 O   0  0  0  0  0  0
  -21.6630   -6.8857   21.4232 O   0  0  0  0  0  0
  -22.3500  -14.5544   20.6680 O   0  0  0  0  0  0
  -24.6202  -31.8631   23.2071 C   0  0  0  0  0  0
  -25.9083  -32.4796   23.8373 C   0  0  1  0  0  0
  -27.2211  -27.3651   20.1199 C   0  0  0  0  0  0
  -25.5926  -33.8590   24.2312 N   0  0  0  0  0  0
  -23.4104  -30.4882   21.5472 C   0  0  2  0  0  0
  -24.8542  -28.9398   20.1236 C   0  0  0  0  0  0
  -22.7442  -29.4647   22.4953 C   0  0  0  0  0  0
  -18.0287  -28.1382   22.8489 C   0  0  0  0  0  0
  -24.1498  -36.7304   23.2639 C   0  0  0  0  0  0
  -25.9454  -30.8088   21.3688 C   0  0  0  0  0  0
  -26.0184  -29.4342   20.7251 C   0  0  0  0  0  0
  -27.2056  -28.6547   20.7189 C   0  0  0  0  0  0
  -26.0405  -26.9072   19.4996 C   0  0  0  0  0  0
  -24.8624  -27.6777   19.5074 C   0  0  0  0  0  0
  -23.6229  -29.8194   20.1637 C   0  0  0  0  0  0
  -25.4111  -36.3089   24.0340 C   0  0  1  0  0  0
  -20.5880  -28.3680   23.1302 C   0  0  2  0  0  0
  -20.6773  -26.9404   22.5424 C   0  0  0  0  0  0
  -19.5753  -26.6394   21.5212 C   0  0  0  0  0  0
  -18.1927  -26.7939   22.1609 C   0  0  0  0  0  0
  -19.1537  -28.8844   23.2898 C   0  0  0  0  0  0
  -18.9453  -30.1446   23.8921 C   0  0  0  0  0  0
  -17.6451  -30.6582   24.0572 C   0  0  0  0  0  0
  -25.9045  -34.9460   23.5127 C   0  0  0  0  0  0
  -16.5346  -29.9085   23.6318 C   0  0  0  0  0  0
  -16.7274  -28.6503   23.0341 C   0  0  0  0  0  0
  -26.4512  -31.6578   25.0704 C   0  0  0  0  0  0
  -25.3795  -31.3689   26.1469 C   0  0  0  0  0  0
  -27.0333  -30.3013   24.6097 C   0  0  0  0  0  0
  -27.6107  -32.4297   25.7441 C   0  0  0  0  0  0
  -27.5588  -37.1789   24.8460 C   0  0  0  0  0  0
  -21.4162  -29.3049   22.3705 N   0  0  0  0  0  0
  -26.4291  -37.3777   23.9428 N   0  0  0  0  0  0
  -24.6772  -31.0686   22.0994 N   0  0  0  0  0  0
  -23.4191  -28.8188   23.3013 O   0  0  0  0  0  0
  -28.3904  -26.6239   20.0288 O   0  0  0  0  0  0
  -26.5590  -34.8919   22.4680 O   0  0  0  0  0  0
  -23.5383  -32.1408   23.7437 O   0  0  0  0  0  0
  -28.8588  -19.0604   21.9912 C   0  0  0  0  0  0
  -30.7619  -17.7740   20.3899 C   0  0  0  0  0  0
  -29.7764  -19.8652   21.2811 C   0  0  0  0  0  0
  -28.8952  -17.6434   21.9257 C   0  0  0  0  0  0
  -30.7168  -19.1982   20.4502 C   0  0  0  0  0  0
  -29.8729  -16.9677   21.1457 C   0  0  0  0  0  0
  -27.9431  -22.7609   20.7289 C   0  0  0  0  0  0
  -27.5423  -24.1391   20.1312 C   0  0  0  0  0  0
  -29.9752  -24.8241   20.3578 C   0  0  0  0  0  0
  -30.1659  -23.3212   19.9784 C   0  0  0  0  0  0
  -28.5046  -25.2783   20.5921 C   0  0  1  0  0  0
  -27.8867  -16.8597   22.7486 C   0  0  0  0  0  0
  -31.7254  -19.9953   19.6443 C   0  0  0  0  0  0
  -29.8515  -21.3861   21.5978 C   0  0  0  0  0  0
  -29.2532  -22.4124   20.6957 N   0  0  0  0  0  0
  -29.8690  -15.5194   21.1589 N   0  0  0  0  0  0
  -27.0796  -22.0553   21.2595 O   0  0  0  0  0  0
  -31.4893  -12.4834   19.1574 H   0  0  0  0  0  0
  -30.3732  -11.3523   19.8633 H   0  0  0  0  0  0
  -29.7723  -11.7601   17.4676 H   0  0  0  0  0  0
  -29.6684  -13.4789   17.7485 H   0  0  0  0  0  0
  -27.8619  -11.2970   18.8498 H   0  0  0  0  0  0
  -27.3818  -12.5970   17.7913 H   0  0  0  0  0  0
  -27.7005  -14.2500   19.5547 H   0  0  0  0  0  0
  -28.6933  -11.9652   21.3319 H   0  0  0  0  0  0
  -28.4350  -13.5851   21.8786 H   0  0  0  0  0  0
  -25.2736   -9.5709   22.4728 H   0  0  0  0  0  0
  -23.9996   -7.4646   22.7468 H   0  0  0  0  0  0
  -21.0805   -8.8764   19.8975 H   0  0  0  0  0  0
  -22.3652  -10.9661   19.6163 H   0  0  0  0  0  0
  -21.2001   -7.6129   23.9700 H   0  0  0  0  0  0
  -21.1493   -6.0507   25.9066 H   0  0  0  0  0  0
  -22.0593   -2.7597   23.2844 H   0  0  0  0  0  0
  -22.4053  -11.9959   22.4864 H   0  0  0  0  0  0
  -21.1087  -13.1325   22.2610 H   0  0  0  0  0  0
  -24.6837  -15.8503   20.5842 H   0  0  0  0  0  0
  -26.2934  -15.6328   20.1355 H   0  0  0  0  0  0
  -26.7150  -32.5486   23.1116 H   0  0  0  0  0  0
  -25.0111  -33.9742   25.0487 H   0  0  0  0  0  0
  -22.7018  -31.3066   21.4047 H   0  0  0  0  0  0
  -23.3755  -35.9639   23.3279 H   0  0  0  0  0  0
  -24.3614  -36.8937   22.2059 H   0  0  0  0  0  0
  -23.7244  -37.6504   23.6668 H   0  0  0  0  0  0
  -26.0627  -31.5646   20.5912 H   0  0  0  0  0  0
  -26.8332  -30.8687   21.9868 H   0  0  0  0  0  0
  -28.1084  -29.0375   21.1741 H   0  0  0  0  0  0
  -26.0257  -25.9632   18.9781 H   0  0  0  0  0  0
  -23.9714  -27.2972   19.0263 H   0  0  0  0  0  0
  -23.7462  -30.5924   19.4041 H   0  0  0  0  0  0
  -22.7439  -29.2470   19.8610 H   0  0  0  0  0  0
  -25.1279  -36.1948   25.0828 H   0  0  0  0  0  0
  -20.9977  -28.3258   24.1417 H   0  0  0  0  0  0
  -20.5684  -26.2279   23.3617 H   0  0  0  0  0  0
  -21.6648  -26.7449   22.1212 H   0  0  0  0  0  0
  -19.6918  -25.6310   21.1233 H   0  0  0  0  0  0
  -19.6701  -27.3216   20.6750 H   0  0  0  0  0  0
  -17.4210  -26.6710   21.3995 H   0  0  0  0  0  0
  -18.0300  -26.0073   22.8990 H   0  0  0  0  0  0
  -19.7926  -30.7256   24.2311 H   0  0  0  0  0  0
  -17.5004  -31.6264   24.5172 H   0  0  0  0  0  0
  -15.5347  -30.2988   23.7636 H   0  0  0  0  0  0
  -15.8677  -28.0835   22.7032 H   0  0  0  0  0  0
  -24.5956  -30.7045   25.7812 H   0  0  0  0  0  0
  -24.8998  -32.2841   26.4944 H   0  0  0  0  0  0
  -25.8166  -30.8839   27.0206 H   0  0  0  0  0  0
  -26.2844  -29.6733   24.1254 H   0  0  0  0  0  0
  -27.4203  -29.7298   25.4540 H   0  0  0  0  0  0
  -27.8651  -30.4311   23.9171 H   0  0  0  0  0  0
  -27.2751  -33.3589   26.2058 H   0  0  0  0  0  0
  -28.3875  -32.6868   25.0226 H   0  0  0  0  0  0
  -28.0834  -31.8398   26.5303 H   0  0  0  0  0  0
  -28.2593  -38.0097   24.7522 H   0  0  0  0  0  0
  -28.1091  -36.2628   24.6250 H   0  0  0  0  0  0
  -27.2327  -37.1411   25.8868 H   0  0  0  0  0  0
  -20.9326  -29.8759   21.6915 H   0  0  0  0  0  0
  -26.0172  -38.2856   24.1435 H   0  0  0  0  0  0
  -28.1383  -19.5373   22.6441 H   0  0  0  0  0  0
  -31.5088  -17.3045   19.7677 H   0  0  0  0  0  0
  -26.5245  -24.3520   20.4560 H   0  0  0  0  0  0
  -27.5278  -24.0612   19.0431 H   0  0  0  0  0  0
  -30.4258  -25.4256   19.5642 H   0  0  0  0  0  0
  -30.5551  -25.0496   21.2549 H   0  0  0  0  0  0
  -31.2115  -23.0361   20.1033 H   0  0  0  0  0  0
  -29.9630  -23.1982   18.9119 H   0  0  0  0  0  0
  -28.3568  -25.3821   21.6685 H   0  0  0  0  0  0
  -27.0680  -17.4933   23.0867 H   0  0  0  0  0  0
  -28.3653  -16.4333   23.6296 H   0  0  0  0  0  0
  -27.4512  -16.0464   22.1711 H   0  0  0  0  0  0
  -32.2439  -19.3676   18.9197 H   0  0  0  0  0  0
  -32.4677  -20.4466   20.3037 H   0  0  0  0  0  0
  -31.2227  -20.7861   19.0872 H   0  0  0  0  0  0
  -30.9013  -21.6274   21.7625 H   0  0  0  0  0  0
  -29.4123  -21.5284   22.5871 H   0  0  0  0  0  0
  -29.0503  -15.1240   21.5922 H   0  0  0  0  0  0
  1 25  1  0  0  0
  1 30  2  0  0  0
  1 86  1  0  0  0
  2  3  1  0  0  0
  2 25  1  0  0  0
  2 88  1  0  0  0
  2 89  1  0  0  0
  3  4  1  0  0  0
  3 90  1  0  0  0
  3 91  1  0  0  0
  4  5  1  0  0  0
  4 92  1  0  0  0
  4 93  1  0  0  0
  5  6  1  0  0  0
  5 26  1  0  0  0
  5 94  1  0  0  0
  6 25  1  0  0  0
  6 95  1  0  0  0
  6 96  1  0  0  0
  7  8  2  0  0  0
  7 26  1  0  0  0
  7 29  1  0  0  0
  8  9  1  0  0  0
  8 22  1  0  0  0
  9 10  1  0  0  0
  9 27  2  0  0  0
 10 11  2  0  0  0
 10 15  1  0  0  0
 11 12  1  0  0  0
 11 97  1  0  0  0
 12 13  2  0  0  0
 12 98  1  0  0  0
 13 14  1  0  0  0
 13 31  1  0  0  0
 14 15  2  0  0  0
 14 99  1  0  0  0
 15100  1  0  0  0
 16 17  2  0  0  0
 16 21  1  0  0  0
 16 31  1  0  0  0
 17 18  1  0  0  0
 17101  1  0  0  0
 18 19  2  0  0  0
 18102  1  0  0  0
 19 20  1  0  0  0
 19 24  1  0  0  0
 20 21  2  0  0  0
 20103  1  0  0  0
 21 23  1  0  0  0
 22 28  1  0  0  0
 22 32  2  0  0  0
 26 27  1  0  0  0
 28104  1  0  0  0
 28105  1  0  0  0
 29106  1  0  0  0
 29107  1  0  0  0
 33 34  1  0  0  0
 33 66  1  0  0  0
 33 70  2  0  0  0
 34 36  1  0  0  0
 34 59  1  0  0  0
 34108  1  0  0  0
 35 44  2  0  0  0
 35 45  1  0  0  0
 35 68  1  0  0  0
 36 56  1  0  0  0
 36109  1  0  0  0
 37 39  1  0  0  0
 37 47  1  0  0  0
 37 66  1  0  0  0
 37110  1  0  0  0
 38 43  2  0  0  0
 38 46  1  0  0  0
 38 47  1  0  0  0
 39 64  1  0  0  0
 39 67  2  0  0  0
 40 52  1  0  0  0
 40 53  2  0  0  0
 40 58  1  0  0  0
 41111  1  0  0  0
 41112  1  0  0  0
 41113  1  0  0  0
 41 48  1  0  0  0
 42 43  1  0  0  0
 42 66  1  0  0  0
 42114  1  0  0  0
 42115  1  0  0  0
 43 44  1  0  0  0
 44116  1  0  0  0
 45 46  2  0  0  0
 45117  1  0  0  0
 46118  1  0  0  0
 47119  1  0  0  0
 47120  1  0  0  0
 48 56  1  0  0  0
 48 65  1  0  0  0
 48121  1  0  0  0
 49 50  1  0  0  0
 49 53  1  0  0  0
 49 64  1  0  0  0
 49122  1  0  0  0
 50 51  1  0  0  0
 50123  1  0  0  0
 50124  1  0  0  0
 51 52  1  0  0  0
 51125  1  0  0  0
 51126  1  0  0  0
 52127  1  0  0  0
 52128  1  0  0  0
 53 54  1  0  0  0
 54 55  2  0  0  0
 54129  1  0  0  0
 55 57  1  0  0  0
 55130  1  0  0  0
 56 69  2  0  0  0
 57 58  2  0  0  0
 57131  1  0  0  0
 58132  1  0  0  0
 59 60  1  0  0  0
 59 61  1  0  0  0
 59 62  1  0  0  0
 60133  1  0  0  0
 60134  1  0  0  0
 60135  1  0  0  0
 61136  1  0  0  0
 61137  1  0  0  0
 61138  1  0  0  0
 62139  1  0  0  0
 62140  1  0  0  0
 62141  1  0  0  0
 63 65  1  0  0  0
 63142  1  0  0  0
 63143  1  0  0  0
 63144  1  0  0  0
 64145  1  0  0  0
 65146  1  0  0  0
 68 81  1  0  0  0
 71 73  2  0  0  0
 71 74  1  0  0  0
 71147  1  0  0  0
 72 75  2  0  0  0
 72 76  1  0  0  0
 72148  1  0  0  0
 73 75  1  0  0  0
 73 84  1  0  0  0
 74 76  2  0  0  0
 74 82  1  0  0  0
 75 83  1  0  0  0
 76 86  1  0  0  0
 77 78  1  0  0  0
 77 85  1  0  0  0
 77 87  2  0  0  0
 78 81  1  0  0  0
 78149  1  0  0  0
 78150  1  0  0  0
 79 80  1  0  0  0
 79 81  1  0  0  0
 79151  1  0  0  0
 79152  1  0  0  0
 80 85  1  0  0  0
 80153  1  0  0  0
 80154  1  0  0  0
 81155  1  0  0  0
 82156  1  0  0  0
 82157  1  0  0  0
 82158  1  0  0  0
 83159  1  0  0  0
 83160  1  0  0  0
 83161  1  0  0  0
 84 85  1  0  0  0
 84162  1  0  0  0
 84163  1  0  0  0
 86164  1  0  0  0
M  ISO  4   1 100  68 101  81 101  86 100
M  END
> <chiral flag>
0

> <version>
0

> <s_m_source_file>
/data/baiqing/PycharmProjects/Reinvent-master-3.2/result/LINK_invent/BTK/process_docking_weight1_custom_product_contain_oxygen_bond_distance_aromatic_linkinvent_7_9_3/rearranged_h_0052.sdf

> <i_m_source_file_index>
18

> <r_mmod_Potential_Energy-OPLS-2005>
10.8635625839233

> <r_mmod_Stretch_Energy-OPLS-2005>
57.7141876220703

> <r_mmod_Bend_Energy-OPLS-2005>
141.197906494141

> <r_mmod_Torsional_Energy-OPLS-2005>
266.28955078125

> <r_mmod_Improper_Torsional_Energy-OPLS-2005>
4.85664176940918

> <r_mmod_Van_der_Waal_Energy-OPLS-2005>
155.49951171875

> <r_mmod_Electrostatic_Energy-OPLS-2005>
-415.136260986328

> <r_mmod_Solvation_Energy-OPLS-2005>
-224.658096313477

> <b_mmod_Minimization_Converged-OPLS-2005>
0

> <r_mmod_RMS_Derivative-OPLS-2005>
3.22372698783875

$$$$
18
                    3D
 Structure written by MMmdl.
161169  0  0  1  0            999 V2000
  -30.6880  -14.5370   20.4653 C   0  0  0  0  0  0
  -30.4083  -12.3203   19.4397 C   0  0  0  0  0  0
  -29.4923  -12.4727   18.2086 C   0  0  0  0  0  0
  -28.0136  -12.3404   18.6249 C   0  0  0  0  0  0
  -27.6476  -13.2144   19.8557 C   0  0  2  0  0  0
  -28.6948  -13.0797   20.9845 C   0  0  0  0  0  0
  -25.2561  -13.8171   20.5698 C   0  0  0  0  0  0
  -24.1821  -13.0441   20.9213 C   0  0  0  0  0  0
  -24.6382  -11.6909   20.8739 C   0  0  0  0  0  0
  -23.9044  -10.4301   21.0409 C   0  0  0  0  0  0
  -24.3604   -9.4212   21.9179 C   0  0  0  0  0  0
  -23.6290   -8.2245   22.0744 C   0  0  0  0  0  0
  -22.4273   -8.0282   21.3539 C   0  0  0  0  0  0
  -21.9903   -9.0250   20.4635 C   0  0  0  0  0  0
  -22.7216  -10.2141   20.3049 C   0  0  0  0  0  0
  -21.6853   -6.0727   22.5280 C   0  0  0  0  0  0
  -21.4012   -6.5633   23.8214 C   0  0  0  0  0  0
  -21.3661   -5.6789   24.9178 C   0  0  0  0  0  0
  -21.6053   -4.3054   24.7233 C   0  0  0  0  0  0
  -21.8811   -3.8138   23.4354 C   0  0  0  0  0  0
  -21.9194   -4.6954   22.3408 C   0  0  0  0  0  0
  -22.7845  -13.5241   21.1885 C   0  0  0  0  0  0
  -22.1662   -4.2134   21.0990 F   0  0  0  0  0  0
  -21.5636   -3.4539   25.7752 F   0  0  0  0  0  0
  -30.0088  -13.3604   20.3993 N   0  0  0  0  0  0
  -26.2970  -12.9341   20.3290 N   0  0  0  0  0  0
  -25.9310  -11.6500   20.5740 N   0  0  0  0  0  0
  -22.0479  -12.8235   22.0434 N   0  0  0  0  0  0
  -25.4298  -15.1884   20.4130 N   0  0  0  0  0  0
  -31.8882  -14.6118   20.2053 O   0  0  0  0  0  0
  -21.6640   -6.8868   21.4241 O   0  0  0  0  0  0
  -22.3542  -14.5547   20.6726 O   0  0  0  0  0  0
  -24.6144  -31.8690   23.2117 C   0  0  0  0  0  0
  -25.9053  -32.4819   23.8397 C   0  0  1  0  0  0
  -27.2182  -27.4154   20.1090 C   0  0  0  0  0  0
  -25.5916  -33.8618   24.2333 N   0  0  0  0  0  0
  -23.3997  -30.4964   21.5522 C   0  0  2  0  0  0
  -24.8435  -28.9573   20.1164 C   0  0  0  0  0  0
  -22.7376  -29.4711   22.5008 C   0  0  0  0  0  0
  -18.0283  -28.1361   22.8479 C   0  0  0  0  0  0
  -24.1487  -36.7296   23.2641 C   0  0  0  0  0  0
  -25.9322  -30.8277   21.3664 C   0  0  0  0  0  0
  -26.0081  -29.4626   20.7116 C   0  0  0  0  0  0
  -27.2017  -28.7026   20.7010 C   0  0  0  0  0  0
  -26.0421  -26.9325   19.4987 C   0  0  0  0  0  0
  -24.8562  -27.6907   19.5068 C   0  0  0  0  0  0
  -23.6069  -29.8276   20.1664 C   0  0  0  0  0  0
  -25.4105  -36.3106   24.0341 C   0  0  1  0  0  0
  -20.5842  -28.3694   23.1321 C   0  0  2  0  0  0
  -20.6776  -26.9429   22.5448 C   0  0  0  0  0  0
  -19.5785  -26.6425   21.5204 C   0  0  0  0  0  0
  -18.1949  -26.7923   22.1600 C   0  0  0  0  0  0
  -19.1516  -28.8859   23.2908 C   0  0  0  0  0  0
  -18.9431  -30.1448   23.8936 C   0  0  0  0  0  0
  -17.6426  -30.6549   24.0600 C   0  0  0  0  0  0
  -25.9039  -34.9477   23.5128 C   0  0  0  0  0  0
  -16.5333  -29.9033   23.6360 C   0  0  0  0  0  0
  -16.7265  -28.6462   23.0382 C   0  0  0  0  0  0
  -26.4473  -31.6598   25.0728 C   0  0  0  0  0  0
  -25.3755  -31.3698   26.1484 C   0  0  0  0  0  0
  -27.0310  -30.3042   24.6115 C   0  0  0  0  0  0
  -27.6035  -32.4328   25.7493 C   0  0  0  0  0  0
  -27.5573  -37.1802   24.8471 C   0  0  0  0  0  0
  -21.4103  -29.3070   22.3734 N   0  0  0  0  0  0
  -26.4290  -37.3785   23.9414 N   0  0  0  0  0  0
  -24.6670  -31.0793   22.1018 N   0  0  0  0  0  0
  -23.4157  -28.8261   23.3061 O   0  0  0  0  0  0
  -28.3504  -26.6246   20.1271 O   0  0  0  0  0  0
  -26.5592  -34.8924   22.4690 O   0  0  0  0  0  0
  -23.5340  -32.1482   23.7505 O   0  0  0  0  0  0
  -30.6963  -20.1363   21.8681 C   0  0  0  0  0  0
  -31.8590  -19.7557   22.5549 C   0  0  0  0  0  0
  -31.2652  -17.4263   22.2242 C   0  0  0  0  0  0
  -29.7888  -19.1810   21.3488 C   0  0  0  0  0  0
  -30.0893  -17.7779   21.5181 C   0  0  0  0  0  0
  -32.1453  -18.3960   22.7330 C   0  0  0  0  0  0
  -28.6170  -22.8144   20.1949 C   0  0  0  0  0  0
  -28.7426  -24.1564   19.9750 C   0  0  0  0  0  0
  -27.8587  -22.2106   21.2991 C   0  0  0  0  0  0
  -27.1089  -20.2726   22.5579 C   0  0  0  0  0  0
  -28.5533  -19.7791   20.6415 C   0  0  0  0  0  0
  -29.2359  -16.5810   21.0353 C   0  0  0  0  0  0
  -28.1867  -25.3424   20.7780 C   0  0  0  0  0  0
  -29.9699  -15.6385   20.1660 N   0  0  0  0  0  0
  -27.8645  -20.8417   21.4295 N   0  0  0  0  0  0
  -27.2223  -22.8997   22.1024 O   0  0  0  0  0  0
  -33.5730  -17.9192   23.5720 Cl  0  0  0  0  0  0
  -31.4558  -12.3965   19.1454 H   0  0  0  0  0  0
  -30.2911  -11.3304   19.8845 H   0  0  0  0  0  0
  -29.7416  -11.7183   17.4611 H   0  0  0  0  0  0
  -29.6625  -13.4401   17.7337 H   0  0  0  0  0  0
  -27.8366  -11.2886   18.8501 H   0  0  0  0  0  0
  -27.3630  -12.5821   17.7825 H   0  0  0  0  0  0
  -27.6641  -14.2489   19.5145 H   0  0  0  0  0  0
  -28.6816  -12.0732   21.4053 H   0  0  0  0  0  0
  -28.4714  -13.7598   21.8084 H   0  0  0  0  0  0
  -25.2744   -9.5705   22.4757 H   0  0  0  0  0  0
  -24.0002   -7.4633   22.7468 H   0  0  0  0  0  0
  -21.0821   -8.8758   19.8941 H   0  0  0  0  0  0
  -22.3649  -10.9683   19.6166 H   0  0  0  0  0  0
  -21.1987   -7.6138   23.9715 H   0  0  0  0  0  0
  -21.1500   -6.0520   25.9084 H   0  0  0  0  0  0
  -22.0585   -2.7598   23.2864 H   0  0  0  0  0  0
  -22.4093  -11.9901   22.4825 H   0  0  0  0  0  0
  -21.1085  -13.1252   22.2618 H   0  0  0  0  0  0
  -24.6663  -15.8450   20.5263 H   0  0  0  0  0  0
  -26.2820  -15.6201   20.0798 H   0  0  0  0  0  0
  -26.7107  -32.5516   23.1134 H   0  0  0  0  0  0
  -25.0072  -33.9776   25.0482 H   0  0  0  0  0  0
  -22.6912  -31.3160   21.4134 H   0  0  0  0  0  0
  -23.3750  -35.9630   23.3321 H   0  0  0  0  0  0
  -24.3586  -36.8892   22.2055 H   0  0  0  0  0  0
  -23.7240  -37.6507   23.6638 H   0  0  0  0  0  0
  -26.0530  -31.5974   20.6029 H   0  0  0  0  0  0
  -26.8172  -30.8757   21.9887 H   0  0  0  0  0  0
  -28.0960  -29.0845   21.1730 H   0  0  0  0  0  0
  -26.0386  -25.9568   19.0324 H   0  0  0  0  0  0
  -23.9602  -27.2940   19.0481 H   0  0  0  0  0  0
  -23.7127  -30.6040   19.4071 H   0  0  0  0  0  0
  -22.7288  -29.2499   19.8705 H   0  0  0  0  0  0
  -25.1284  -36.1956   25.0831 H   0  0  0  0  0  0
  -20.9906  -28.3287   24.1454 H   0  0  0  0  0  0
  -20.5630  -26.2312   23.3636 H   0  0  0  0  0  0
  -21.6657  -26.7465   22.1270 H   0  0  0  0  0  0
  -19.6971  -25.6360   21.1211 H   0  0  0  0  0  0
  -19.6728  -27.3269   20.6783 H   0  0  0  0  0  0
  -17.4254  -26.6677   21.3965 H   0  0  0  0  0  0
  -18.0336  -25.9996   22.8939 H   0  0  0  0  0  0
  -19.7907  -30.7268   24.2330 H   0  0  0  0  0  0
  -17.4941  -31.6210   24.5241 H   0  0  0  0  0  0
  -15.5329  -30.2898   23.7737 H   0  0  0  0  0  0
  -15.8660  -28.0740   22.7154 H   0  0  0  0  0  0
  -24.5920  -30.7034   25.7847 H   0  0  0  0  0  0
  -24.8951  -32.2862   26.4937 H   0  0  0  0  0  0
  -25.8135  -30.8884   27.0240 H   0  0  0  0  0  0
  -26.2869  -29.6799   24.1146 H   0  0  0  0  0  0
  -27.4066  -29.7255   25.4566 H   0  0  0  0  0  0
  -27.8708  -30.4358   23.9283 H   0  0  0  0  0  0
  -27.2631  -33.3609   26.2085 H   0  0  0  0  0  0
  -28.3835  -32.6919   25.0325 H   0  0  0  0  0  0
  -28.0709  -31.8453   26.5405 H   0  0  0  0  0  0
  -28.2603  -38.0085   24.7502 H   0  0  0  0  0  0
  -28.1052  -36.2619   24.6310 H   0  0  0  0  0  0
  -27.2295  -37.1470   25.8875 H   0  0  0  0  0  0
  -20.9272  -29.8770   21.6940 H   0  0  0  0  0  0
  -26.0175  -38.2863   24.1409 H   0  0  0  0  0  0
  -30.5081  -21.1926   21.7431 H   0  0  0  0  0  0
  -32.5295  -20.5077   22.9448 H   0  0  0  0  0  0
  -31.5107  -16.3878   22.3884 H   0  0  0  0  0  0
  -29.1269  -22.1814   19.4901 H   0  0  0  0  0  0
  -29.3354  -24.4590   19.1229 H   0  0  0  0  0  0
  -27.1711  -19.1855   22.6090 H   0  0  0  0  0  0
  -26.0522  -20.5395   22.4925 H   0  0  0  0  0  0
  -27.4957  -20.6543   23.5042 H   0  0  0  0  0  0
  -28.8548  -20.1304   19.6560 H   0  0  0  0  0  0
  -27.8192  -19.0028   20.4256 H   0  0  0  0  0  0
  -28.8520  -16.0541   21.9088 H   0  0  0  0  0  0
  -28.3616  -16.9141   20.4822 H   0  0  0  0  0  0
  -28.7312  -25.3893   21.7222 H   0  0  0  0  0  0
  -27.1483  -25.1477   21.0414 H   0  0  0  0  0  0
  -30.4979  -16.1777   19.4950 H   0  0  0  0  0  0
  1 25  1  0  0  0
  1 30  2  0  0  0
  1 84  1  0  0  0
  2  3  1  0  0  0
  2 25  1  0  0  0
  2 88  1  0  0  0
  2 89  1  0  0  0
  3  4  1  0  0  0
  3 90  1  0  0  0
  3 91  1  0  0  0
  4  5  1  0  0  0
  4 92  1  0  0  0
  4 93  1  0  0  0
  5  6  1  0  0  0
  5 26  1  0  0  0
  5 94  1  0  0  0
  6 25  1  0  0  0
  6 95  1  0  0  0
  6 96  1  0  0  0
  7  8  2  0  0  0
  7 26  1  0  0  0
  7 29  1  0  0  0
  8  9  1  0  0  0
  8 22  1  0  0  0
  9 10  1  0  0  0
  9 27  2  0  0  0
 10 11  2  0  0  0
 10 15  1  0  0  0
 11 12  1  0  0  0
 11 97  1  0  0  0
 12 13  2  0  0  0
 12 98  1  0  0  0
 13 14  1  0  0  0
 13 31  1  0  0  0
 14 15  2  0  0  0
 14 99  1  0  0  0
 15100  1  0  0  0
 16 17  2  0  0  0
 16 21  1  0  0  0
 16 31  1  0  0  0
 17 18  1  0  0  0
 17101  1  0  0  0
 18 19  2  0  0  0
 18102  1  0  0  0
 19 20  1  0  0  0
 19 24  1  0  0  0
 20 21  2  0  0  0
 20103  1  0  0  0
 21 23  1  0  0  0
 22 28  1  0  0  0
 22 32  2  0  0  0
 26 27  1  0  0  0
 28104  1  0  0  0
 28105  1  0  0  0
 29106  1  0  0  0
 29107  1  0  0  0
 33 34  1  0  0  0
 33 66  1  0  0  0
 33 70  2  0  0  0
 34 36  1  0  0  0
 34 59  1  0  0  0
 34108  1  0  0  0
 35 44  2  0  0  0
 35 45  1  0  0  0
 35 68  1  0  0  0
 36 56  1  0  0  0
 36109  1  0  0  0
 37 39  1  0  0  0
 37 47  1  0  0  0
 37 66  1  0  0  0
 37110  1  0  0  0
 38 43  2  0  0  0
 38 46  1  0  0  0
 38 47  1  0  0  0
 39 64  1  0  0  0
 39 67  2  0  0  0
 40 52  1  0  0  0
 40 53  2  0  0  0
 40 58  1  0  0  0
 41111  1  0  0  0
 41112  1  0  0  0
 41113  1  0  0  0
 41 48  1  0  0  0
 42 43  1  0  0  0
 42 66  1  0  0  0
 42114  1  0  0  0
 42115  1  0  0  0
 43 44  1  0  0  0
 44116  1  0  0  0
 45 46  2  0  0  0
 45117  1  0  0  0
 46118  1  0  0  0
 47119  1  0  0  0
 47120  1  0  0  0
 48 56  1  0  0  0
 48 65  1  0  0  0
 48121  1  0  0  0
 49 50  1  0  0  0
 49 53  1  0  0  0
 49 64  1  0  0  0
 49122  1  0  0  0
 50 51  1  0  0  0
 50123  1  0  0  0
 50124  1  0  0  0
 51 52  1  0  0  0
 51125  1  0  0  0
 51126  1  0  0  0
 52127  1  0  0  0
 52128  1  0  0  0
 53 54  1  0  0  0
 54 55  2  0  0  0
 54129  1  0  0  0
 55 57  1  0  0  0
 55130  1  0  0  0
 56 69  2  0  0  0
 57 58  2  0  0  0
 57131  1  0  0  0
 58132  1  0  0  0
 59 60  1  0  0  0
 59 61  1  0  0  0
 59 62  1  0  0  0
 60133  1  0  0  0
 60134  1  0  0  0
 60135  1  0  0  0
 61136  1  0  0  0
 61137  1  0  0  0
 61138  1  0  0  0
 62139  1  0  0  0
 62140  1  0  0  0
 62141  1  0  0  0
 63 65  1  0  0  0
 63142  1  0  0  0
 63143  1  0  0  0
 63144  1  0  0  0
 64145  1  0  0  0
 65146  1  0  0  0
 68 83  1  0  0  0
 71 72  2  0  0  0
 71 74  1  0  0  0
 71147  1  0  0  0
 72 76  1  0  0  0
 72148  1  0  0  0
 73 75  1  0  0  0
 73 76  2  0  0  0
 73149  1  0  0  0
 74 75  2  0  0  0
 74 81  1  0  0  0
 75 82  1  0  0  0
 76 87  1  0  0  0
 77 78  2  0  0  0
 77 79  1  0  0  0
 77150  1  0  0  0
 78 83  1  0  0  0
 78151  1  0  0  0
 79 85  1  0  0  0
 79 86  2  0  0  0
 80 85  1  0  0  0
 80152  1  0  0  0
 80153  1  0  0  0
 80154  1  0  0  0
 81 85  1  0  0  0
 81155  1  0  0  0
 81156  1  0  0  0
 82 84  1  0  0  0
 82157  1  0  0  0
 82158  1  0  0  0
 83159  1  0  0  0
 83160  1  0  0  0
 84161  1  0  0  0
M  ISO  4   1 100  68 101  83 101  84 100
M  END
> <chiral flag>
0

> <version>
0

> <s_m_source_file>
/data/baiqing/PycharmProjects/Reinvent-master-3.2/result/LINK_invent/BTK/process_docking_weight1_custom_product_contain_oxygen_bond_distance_aromatic_linkinvent_7_9_3/rearranged_h_0052.sdf

> <i_m_source_file_index>
19

> <r_mmod_Potential_Energy-OPLS-2005>
25.0069789886475

> <r_mmod_Stretch_Energy-OPLS-2005>
51.4255332946777

> <r_mmod_Bend_Energy-OPLS-2005>
146.240356445312

> <r_mmod_Torsional_Energy-OPLS-2005>
295.406066894531

> <r_mmod_Improper_Torsional_Energy-OPLS-2005>
27.4995918273926

> <r_mmod_Van_der_Waal_Energy-OPLS-2005>
157.026992797852

> <r_mmod_Electrostatic_Energy-OPLS-2005>
-449.687530517578

> <r_mmod_Solvation_Energy-OPLS-2005>
-231.146331787109

> <b_mmod_Minimization_Converged-OPLS-2005>
0

> <r_mmod_RMS_Derivative-OPLS-2005>
3.87308955192566

$$$$
19
                    3D
 Structure written by MMmdl.
158166  0  0  1  0            999 V2000
  -30.5363  -15.0582   20.3499 C   0  0  0  0  0  0
  -30.4149  -12.6521   19.5104 C   0  0  0  0  0  0
  -29.5104  -12.5268   18.2644 C   0  0  0  0  0  0
  -28.0512  -12.2927   18.6855 C   0  0  0  0  0  0
  -27.6068  -13.2594   19.8135 C   0  0  2  0  0  0
  -28.6459  -13.3802   20.9477 C   0  0  0  0  0  0
  -25.2386  -13.8223   20.5746 C   0  0  0  0  0  0
  -24.1723  -13.0433   20.9275 C   0  0  0  0  0  0
  -24.6357  -11.6926   20.8795 C   0  0  0  0  0  0
  -23.9063  -10.4293   21.0430 C   0  0  0  0  0  0
  -24.3620   -9.4206   21.9201 C   0  0  0  0  0  0
  -23.6292   -8.2239   22.0747 C   0  0  0  0  0  0
  -22.4279   -8.0282   21.3527 C   0  0  0  0  0  0
  -21.9922   -9.0267   20.4642 C   0  0  0  0  0  0
  -22.7245  -10.2146   20.3072 C   0  0  0  0  0  0
  -21.6828   -6.0773   22.5300 C   0  0  0  0  0  0
  -21.4011   -6.5659   23.8254 C   0  0  0  0  0  0
  -21.3665   -5.6796   24.9205 C   0  0  0  0  0  0
  -21.6041   -4.3068   24.7240 C   0  0  0  0  0  0
  -21.8793   -3.8172   23.4356 C   0  0  0  0  0  0
  -21.9181   -4.7001   22.3418 C   0  0  0  0  0  0
  -22.7756  -13.5221   21.1924 C   0  0  0  0  0  0
  -22.1641   -4.2185   21.0996 F   0  0  0  0  0  0
  -21.5627   -3.4542   25.7755 F   0  0  0  0  0  0
  -29.9052  -13.8026   20.3264 N   0  0  0  0  0  0
  -26.2780  -12.9462   20.3191 N   0  0  0  0  0  0
  -25.9278  -11.6581   20.5707 N   0  0  0  0  0  0
  -22.0390  -12.8240   22.0495 N   0  0  0  0  0  0
  -25.4046  -15.1958   20.4158 N   0  0  0  0  0  0
  -31.7640  -14.9944   20.2130 O   0  0  0  0  0  0
  -21.6606   -6.8914   21.4252 O   0  0  0  0  0  0
  -22.3460  -14.5532   20.6739 O   0  0  0  0  0  0
  -24.6497  -31.8381   23.1845 C   0  0  0  0  0  0
  -25.9256  -32.4674   23.8239 C   0  0  1  0  0  0
  -27.1984  -27.0628   20.1898 C   0  0  0  0  0  0
  -25.5993  -33.8483   24.2161 N   0  0  0  0  0  0
  -23.4560  -30.4564   21.5316 C   0  0  2  0  0  0
  -24.9034  -28.8662   20.1176 C   0  0  0  0  0  0
  -22.7582  -29.4528   22.4836 C   0  0  0  0  0  0
  -18.0318  -28.1417   22.8467 C   0  0  0  0  0  0
  -24.1484  -36.7224   23.2640 C   0  0  0  0  0  0
  -26.0165  -30.6885   21.3961 C   0  0  0  0  0  0
  -26.0821  -29.2912   20.7461 C   0  0  0  0  0  0
  -27.2364  -28.4074   20.7591 C   0  0  0  0  0  0
  -25.9959  -26.7464   19.5314 C   0  0  0  0  0  0
  -24.8744  -27.6089   19.4934 C   0  0  0  0  0  0
  -23.6856  -29.7794   20.1536 C   0  0  0  0  0  0
  -25.4132  -36.3022   24.0308 C   0  0  1  0  0  0
  -20.5919  -28.3745   23.1207 C   0  0  2  0  0  0
  -20.6796  -26.9443   22.5393 C   0  0  0  0  0  0
  -19.5777  -26.6387   21.5209 C   0  0  0  0  0  0
  -18.1955  -26.7950   22.1608 C   0  0  0  0  0  0
  -19.1564  -28.8891   23.2823 C   0  0  0  0  0  0
  -18.9486  -30.1474   23.8873 C   0  0  0  0  0  0
  -17.6478  -30.6603   24.0557 C   0  0  0  0  0  0
  -25.9093  -34.9405   23.5050 C   0  0  0  0  0  0
  -16.5366  -29.9095   23.6355 C   0  0  0  0  0  0
  -16.7291  -28.6509   23.0380 C   0  0  0  0  0  0
  -26.4566  -31.6584   25.0711 C   0  0  0  0  0  0
  -25.3714  -31.3803   26.1380 C   0  0  0  0  0  0
  -27.0466  -30.2964   24.6369 C   0  0  0  0  0  0
  -27.6086  -32.4363   25.7517 C   0  0  0  0  0  0
  -27.5576  -37.1772   24.8475 C   0  0  0  0  0  0
  -21.4266  -29.3069   22.3568 N   0  0  0  0  0  0
  -26.4283  -37.3746   23.9414 N   0  0  0  0  0  0
  -24.7272  -31.0159   22.0935 N   0  0  0  0  0  0
  -23.4184  -28.8101   23.3028 O   0  0  0  0  0  0
  -28.2376  -26.0485   20.1430 O   0  0  0  0  0  0
  -26.5642  -34.8910   22.4611 O   0  0  0  0  0  0
  -23.5602  -32.1306   23.7016 O   0  0  0  0  0  0
  -30.7527  -20.1041   18.9104 C   0  0  0  0  0  0
  -31.7306  -19.6782   18.0143 C   0  0  0  0  0  0
  -31.2437  -17.4100   18.6457 C   0  0  0  0  0  0
  -29.9653  -19.2578   19.7384 C   0  0  0  0  0  0
  -30.2909  -17.7266   19.6665 C   0  0  0  0  0  0
  -31.9513  -18.3218   17.8571 C   0  0  0  0  0  0
  -30.3370  -23.5854   23.5439 C   0  0  0  0  0  0
  -29.9408  -22.5005   22.8572 C   0  0  0  0  0  0
  -28.2458  -23.0802   20.1336 C   0  0  0  0  0  0
  -28.8789  -20.3103   20.4557 C   0  0  0  0  0  0
  -30.2097  -22.2881   21.3782 C   0  0  0  0  0  0
  -28.1440  -24.6287   20.8351 C   0  0  0  0  0  0
  -29.8555  -16.3528   20.3117 N   0  0  0  0  0  0
  -29.0163  -21.9381   20.5969 N   0  0  0  0  0  0
  -27.4612  -22.8865   19.2006 O   0  0  0  0  0  0
  -32.8494  -17.8856   16.9393 F   0  0  0  0  0  0
  -31.4502  -12.7833   19.1923 H   0  0  0  0  0  0
  -30.4069  -11.7279   20.0914 H   0  0  0  0  0  0
  -29.8538  -11.7120   17.6242 H   0  0  0  0  0  0
  -29.5823  -13.4397   17.6728 H   0  0  0  0  0  0
  -27.9725  -11.2601   19.0282 H   0  0  0  0  0  0
  -27.3904  -12.3799   17.8237 H   0  0  0  0  0  0
  -27.5345  -14.2370   19.3335 H   0  0  0  0  0  0
  -28.7582  -12.4333   21.4785 H   0  0  0  0  0  0
  -28.3187  -14.1215   21.6786 H   0  0  0  0  0  0
  -25.2766   -9.5671   22.4785 H   0  0  0  0  0  0
  -23.9998   -7.4614   22.7444 H   0  0  0  0  0  0
  -21.0873   -8.8806   19.8927 H   0  0  0  0  0  0
  -22.3722  -10.9705   19.6189 H   0  0  0  0  0  0
  -21.1985   -7.6171   23.9787 H   0  0  0  0  0  0
  -21.1513   -6.0524   25.9127 H   0  0  0  0  0  0
  -22.0558   -2.7632   23.2853 H   0  0  0  0  0  0
  -22.3950  -11.9919   22.4939 H   0  0  0  0  0  0
  -21.0981  -13.1253   22.2594 H   0  0  0  0  0  0
  -24.6312  -15.8445   20.5244 H   0  0  0  0  0  0
  -26.2482  -15.6464   20.0853 H   0  0  0  0  0  0
  -26.7320  -32.5261   23.0960 H   0  0  0  0  0  0
  -25.0231  -33.9611   25.0359 H   0  0  0  0  0  0
  -22.7634  -31.2866   21.3713 H   0  0  0  0  0  0
  -23.3775  -35.9527   23.3317 H   0  0  0  0  0  0
  -24.3553  -36.8834   22.2052 H   0  0  0  0  0  0
  -23.7210  -37.6405   23.6665 H   0  0  0  0  0  0
  -26.1796  -31.4356   20.6178 H   0  0  0  0  0  0
  -26.8855  -30.7408   22.0403 H   0  0  0  0  0  0
  -28.1386  -28.7329   21.2531 H   0  0  0  0  0  0
  -25.9125  -25.7824   19.0482 H   0  0  0  0  0  0
  -23.9770  -27.2774   18.9889 H   0  0  0  0  0  0
  -23.8260  -30.5511   19.3959 H   0  0  0  0  0  0
  -22.7981  -29.2240   19.8441 H   0  0  0  0  0  0
  -25.1321  -36.1848   25.0790 H   0  0  0  0  0  0
  -21.0005  -28.3368   24.1318 H   0  0  0  0  0  0
  -20.5709  -26.2366   23.3623 H   0  0  0  0  0  0
  -21.6671  -26.7462   22.1177 H   0  0  0  0  0  0
  -19.6949  -25.6290   21.1275 H   0  0  0  0  0  0
  -19.6737  -27.3170   20.6716 H   0  0  0  0  0  0
  -17.4222  -26.6678   21.4013 H   0  0  0  0  0  0
  -18.0353  -26.0112   22.9019 H   0  0  0  0  0  0
  -19.7958  -30.7292   24.2247 H   0  0  0  0  0  0
  -17.5042  -31.6305   24.5145 H   0  0  0  0  0  0
  -15.5368  -30.2996   23.7713 H   0  0  0  0  0  0
  -15.8680  -28.0823   22.7134 H   0  0  0  0  0  0
  -24.5891  -30.7172   25.7674 H   0  0  0  0  0  0
  -24.8920  -32.3012   26.4705 H   0  0  0  0  0  0
  -25.7949  -30.9018   27.0220 H   0  0  0  0  0  0
  -26.3127  -29.6650   24.1348 H   0  0  0  0  0  0
  -27.4027  -29.7302   25.4990 H   0  0  0  0  0  0
  -27.9057  -30.4189   23.9766 H   0  0  0  0  0  0
  -27.2673  -33.3682   26.2031 H   0  0  0  0  0  0
  -28.3945  -32.6888   25.0388 H   0  0  0  0  0  0
  -28.0715  -31.8532   26.5483 H   0  0  0  0  0  0
  -28.2594  -38.0065   24.7524 H   0  0  0  0  0  0
  -28.1065  -36.2598   24.6313 H   0  0  0  0  0  0
  -27.2288  -37.1442   25.8871 H   0  0  0  0  0  0
  -20.9486  -29.8742   21.6717 H   0  0  0  0  0  0
  -26.0156  -38.2797   24.1439 H   0  0  0  0  0  0
  -30.6011  -21.1720   18.9016 H   0  0  0  0  0  0
  -32.2702  -20.3929   17.4102 H   0  0  0  0  0  0
  -31.4733  -16.3951   18.3752 H   0  0  0  0  0  0
  -30.1262  -23.6816   24.5990 H   0  0  0  0  0  0
  -30.8756  -24.3962   23.0677 H   0  0  0  0  0  0
  -29.4130  -21.7105   23.3764 H   0  0  0  0  0  0
  -28.7421  -19.9286   21.4661 H   0  0  0  0  0  0
  -27.9220  -20.1308   19.9653 H   0  0  0  0  0  0
  -30.9627  -21.5064   21.2823 H   0  0  0  0  0  0
  -30.6751  -23.1776   20.9497 H   0  0  0  0  0  0
  -28.8785  -24.6741   21.6306 H   0  0  0  0  0  0
  -27.1961  -24.6303   21.3733 H   0  0  0  0  0  0
  -28.8858  -16.3003   20.5896 H   0  0  0  0  0  0
  1 25  1  0  0  0
  1 30  2  0  0  0
  1 83  1  0  0  0
  2  3  1  0  0  0
  2 25  1  0  0  0
  2 87  1  0  0  0
  2 88  1  0  0  0
  3  4  1  0  0  0
  3 89  1  0  0  0
  3 90  1  0  0  0
  4  5  1  0  0  0
  4 91  1  0  0  0
  4 92  1  0  0  0
  5  6  1  0  0  0
  5 26  1  0  0  0
  5 93  1  0  0  0
  6 25  1  0  0  0
  6 94  1  0  0  0
  6 95  1  0  0  0
  7  8  2  0  0  0
  7 26  1  0  0  0
  7 29  1  0  0  0
  8  9  1  0  0  0
  8 22  1  0  0  0
  9 10  1  0  0  0
  9 27  2  0  0  0
 10 11  2  0  0  0
 10 15  1  0  0  0
 11 12  1  0  0  0
 11 96  1  0  0  0
 12 13  2  0  0  0
 12 97  1  0  0  0
 13 14  1  0  0  0
 13 31  1  0  0  0
 14 15  2  0  0  0
 14 98  1  0  0  0
 15 99  1  0  0  0
 16 17  2  0  0  0
 16 21  1  0  0  0
 16 31  1  0  0  0
 17 18  1  0  0  0
 17100  1  0  0  0
 18 19  2  0  0  0
 18101  1  0  0  0
 19 20  1  0  0  0
 19 24  1  0  0  0
 20 21  2  0  0  0
 20102  1  0  0  0
 21 23  1  0  0  0
 22 28  1  0  0  0
 22 32  2  0  0  0
 26 27  1  0  0  0
 28103  1  0  0  0
 28104  1  0  0  0
 29105  1  0  0  0
 29106  1  0  0  0
 33 34  1  0  0  0
 33 66  1  0  0  0
 33 70  2  0  0  0
 34 36  1  0  0  0
 34 59  1  0  0  0
 34107  1  0  0  0
 35 44  2  0  0  0
 35 45  1  0  0  0
 35 68  1  0  0  0
 36 56  1  0  0  0
 36108  1  0  0  0
 37 39  1  0  0  0
 37 47  1  0  0  0
 37 66  1  0  0  0
 37109  1  0  0  0
 38 43  2  0  0  0
 38 46  1  0  0  0
 38 47  1  0  0  0
 39 64  1  0  0  0
 39 67  2  0  0  0
 40 52  1  0  0  0
 40 53  2  0  0  0
 40 58  1  0  0  0
 41110  1  0  0  0
 41111  1  0  0  0
 41112  1  0  0  0
 41 48  1  0  0  0
 42 43  1  0  0  0
 42 66  1  0  0  0
 42113  1  0  0  0
 42114  1  0  0  0
 43 44  1  0  0  0
 44115  1  0  0  0
 45 46  2  0  0  0
 45116  1  0  0  0
 46117  1  0  0  0
 47118  1  0  0  0
 47119  1  0  0  0
 48 56  1  0  0  0
 48 65  1  0  0  0
 48120  1  0  0  0
 49 50  1  0  0  0
 49 53  1  0  0  0
 49 64  1  0  0  0
 49121  1  0  0  0
 50 51  1  0  0  0
 50122  1  0  0  0
 50123  1  0  0  0
 51 52  1  0  0  0
 51124  1  0  0  0
 51125  1  0  0  0
 52126  1  0  0  0
 52127  1  0  0  0
 53 54  1  0  0  0
 54 55  2  0  0  0
 54128  1  0  0  0
 55 57  1  0  0  0
 55129  1  0  0  0
 56 69  2  0  0  0
 57 58  2  0  0  0
 57130  1  0  0  0
 58131  1  0  0  0
 59 60  1  0  0  0
 59 61  1  0  0  0
 59 62  1  0  0  0
 60132  1  0  0  0
 60133  1  0  0  0
 60134  1  0  0  0
 61135  1  0  0  0
 61136  1  0  0  0
 61137  1  0  0  0
 62138  1  0  0  0
 62139  1  0  0  0
 62140  1  0  0  0
 63 65  1  0  0  0
 63141  1  0  0  0
 63142  1  0  0  0
 63143  1  0  0  0
 64144  1  0  0  0
 65145  1  0  0  0
 68 82  1  0  0  0
 71 72  2  0  0  0
 71 74  1  0  0  0
 71146  1  0  0  0
 72 76  1  0  0  0
 72147  1  0  0  0
 73 75  1  0  0  0
 73 76  2  0  0  0
 73148  1  0  0  0
 74 75  2  0  0  0
 74 80  1  0  0  0
 75 83  1  0  0  0
 76 86  1  0  0  0
 77 78  2  0  0  0
 77149  1  0  0  0
 77150  1  0  0  0
 78 81  1  0  0  0
 78151  1  0  0  0
 79 82  1  0  0  0
 79 84  1  0  0  0
 79 85  2  0  0  0
 80 84  1  0  0  0
 80152  1  0  0  0
 80153  1  0  0  0
 81 84  1  0  0  0
 81154  1  0  0  0
 81155  1  0  0  0
 82156  1  0  0  0
 82157  1  0  0  0
 83158  1  0  0  0
M  ISO  4   1 100  68 101  82 101  83 100
M  END
> <chiral flag>
0

> <version>
0

> <s_m_source_file>
/data/baiqing/PycharmProjects/Reinvent-master-3.2/result/LINK_invent/BTK/process_docking_weight1_custom_product_contain_oxygen_bond_distance_aromatic_linkinvent_7_9_3/rearranged_h_0052.sdf

> <i_m_source_file_index>
20

> <r_mmod_Potential_Energy-OPLS-2005>
961.626831054688

> <r_mmod_Stretch_Energy-OPLS-2005>
410.566040039062

> <r_mmod_Bend_Energy-OPLS-2005>
408.673889160156

> <r_mmod_Torsional_Energy-OPLS-2005>
274.357879638672

> <r_mmod_Improper_Torsional_Energy-OPLS-2005>
7.00299119949341

> <r_mmod_Van_der_Waal_Energy-OPLS-2005>
148.353256225586

> <r_mmod_Electrostatic_Energy-OPLS-2005>
-328.658874511719

> <r_mmod_Solvation_Energy-OPLS-2005>
-228.451293945312

> <b_mmod_Minimization_Converged-OPLS-2005>
0

> <r_mmod_RMS_Derivative-OPLS-2005>
4.38228368759155

$$$$
20
                    3D
 Structure written by MMmdl.
175184  0  0  1  0            999 V2000
  -30.7560  -14.4430   20.6432 C   0  0  0  0  0  0
  -30.4040  -12.3366   19.4008 C   0  0  0  0  0  0
  -29.4702  -12.5200   18.1934 C   0  0  0  0  0  0
  -27.9945  -12.3828   18.6121 C   0  0  0  0  0  0
  -27.6447  -13.2203   19.8697 C   0  0  2  0  0  0
  -28.6897  -13.0248   20.9889 C   0  0  0  0  0  0
  -25.2446  -13.8201   20.5589 C   0  0  0  0  0  0
  -24.1759  -13.0453   20.9238 C   0  0  0  0  0  0
  -24.6353  -11.6941   20.8786 C   0  0  0  0  0  0
  -23.9051  -10.4312   21.0439 C   0  0  0  0  0  0
  -24.3605   -9.4209   21.9192 C   0  0  0  0  0  0
  -23.6289   -8.2235   22.0737 C   0  0  0  0  0  0
  -22.4269   -8.0286   21.3533 C   0  0  0  0  0  0
  -21.9909   -9.0262   20.4630 C   0  0  0  0  0  0
  -22.7234  -10.2152   20.3068 C   0  0  0  0  0  0
  -21.6867   -6.0734   22.5270 C   0  0  0  0  0  0
  -21.4018   -6.5639   23.8210 C   0  0  0  0  0  0
  -21.3648   -5.6783   24.9169 C   0  0  0  0  0  0
  -21.6046   -4.3048   24.7220 C   0  0  0  0  0  0
  -21.8826   -3.8147   23.4346 C   0  0  0  0  0  0
  -21.9198   -4.6960   22.3402 C   0  0  0  0  0  0
  -22.7776  -13.5228   21.1909 C   0  0  0  0  0  0
  -22.1661   -4.2143   21.0978 F   0  0  0  0  0  0
  -21.5635   -3.4536   25.7741 F   0  0  0  0  0  0
  -30.0108  -13.3277   20.4157 N   0  0  0  0  0  0
  -26.2898  -12.9391   20.3335 N   0  0  0  0  0  0
  -25.9272  -11.6546   20.5801 N   0  0  0  0  0  0
  -22.0429  -12.8184   22.0461 N   0  0  0  0  0  0
  -25.4114  -15.1878   20.3725 N   0  0  0  0  0  0
  -31.8901  -14.5724   20.1686 O   0  0  0  0  0  0
  -21.6645   -6.8871   21.4235 O   0  0  0  0  0  0
  -22.3434  -14.5521   20.6771 O   0  0  0  0  0  0
  -24.6160  -31.8699   23.2127 C   0  0  0  0  0  0
  -25.9050  -32.4842   23.8416 C   0  0  1  0  0  0
  -27.2085  -27.4049   20.0848 C   0  0  0  0  0  0
  -25.5893  -33.8640   24.2326 N   0  0  0  0  0  0
  -23.4025  -30.4989   21.5564 C   0  0  2  0  0  0
  -24.8436  -28.9744   20.1095 C   0  0  0  0  0  0
  -22.7423  -29.4672   22.4995 C   0  0  0  0  0  0
  -18.0301  -28.1360   22.8546 C   0  0  0  0  0  0
  -24.1485  -36.7330   23.2638 C   0  0  0  0  0  0
  -25.9362  -30.8262   21.3714 C   0  0  0  0  0  0
  -26.0102  -29.4622   20.7107 C   0  0  0  0  0  0
  -27.1971  -28.6861   20.6943 C   0  0  0  0  0  0
  -26.0211  -26.9604   19.4525 C   0  0  0  0  0  0
  -24.8453  -27.7248   19.4774 C   0  0  0  0  0  0
  -23.6097  -29.8437   20.1689 C   0  0  0  0  0  0
  -25.4110  -36.3126   24.0331 C   0  0  1  0  0  0
  -20.5893  -28.3651   23.1344 C   0  0  2  0  0  0
  -20.6784  -26.9369   22.5462 C   0  0  0  0  0  0
  -19.5743  -26.6321   21.5296 C   0  0  0  0  0  0
  -18.1941  -26.7893   22.1717 C   0  0  0  0  0  0
  -19.1553  -28.8828   23.2933 C   0  0  0  0  0  0
  -18.9492  -30.1457   23.8886 C   0  0  0  0  0  0
  -17.6500  -30.6608   24.0544 C   0  0  0  0  0  0
  -25.9029  -34.9490   23.5128 C   0  0  0  0  0  0
  -16.5385  -29.9101   23.6337 C   0  0  0  0  0  0
  -16.7291  -28.6491   23.0398 C   0  0  0  0  0  0
  -26.4461  -31.6617   25.0749 C   0  0  0  0  0  0
  -25.3705  -31.3716   26.1478 C   0  0  0  0  0  0
  -27.0283  -30.3057   24.6128 C   0  0  0  0  0  0
  -27.6018  -32.4338   25.7515 C   0  0  0  0  0  0
  -27.5581  -37.1827   24.8457 C   0  0  0  0  0  0
  -21.4138  -29.3072   22.3767 N   0  0  0  0  0  0
  -26.4298  -37.3808   23.9393 N   0  0  0  0  0  0
  -24.6714  -31.0780   22.1050 N   0  0  0  0  0  0
  -23.4205  -28.8178   23.3003 O   0  0  0  0  0  0
  -28.3466  -26.6095   20.1338 O   0  0  0  0  0  0
  -26.5598  -34.8932   22.4693 O   0  0  0  0  0  0
  -23.5350  -32.1472   23.7522 O   0  0  0  0  0  0
  -31.8187  -18.6049   22.1161 C   0  0  0  0  0  0
  -30.6711  -20.6961   21.7732 C   0  0  0  0  0  0
  -30.6427  -17.8577   21.8724 C   0  0  0  0  0  0
  -31.8438  -20.0009   22.0769 C   0  0  0  0  0  0
  -29.4672  -20.0153   21.4758 C   0  0  0  0  0  0
  -29.4356  -18.5741   21.5478 C   0  0  0  0  0  0
  -29.2551  -22.8796   19.8465 C   0  0  0  0  0  0
  -29.7005  -22.1138   18.8320 C   0  0  0  0  0  0
  -30.8119  -16.3497   22.0515 C   0  0  0  0  0  0
  -29.4855  -24.3962   19.9665 C   0  0  0  0  0  0
  -27.3743  -24.6165   21.2711 C   0  0  0  0  0  0
  -27.1524  -23.0931   21.1537 C   0  0  0  0  0  0
  -28.1567  -25.1702   20.0578 C   0  0  1  0  0  0
  -33.1341  -20.7409   22.3606 C   0  0  0  0  0  0
  -26.9848  -18.3767   23.5506 C   0  0  0  0  0  0
  -28.1157  -17.8263   21.3010 C   0  0  0  0  0  0
  -28.2253  -20.8634   21.1012 C   0  0  0  0  0  0
  -27.4533  -17.2807   22.5838 C   0  0  0  0  0  0
  -30.1496  -15.4682   21.2789 N   0  0  0  0  0  0
  -28.4315  -22.3501   21.0087 N   0  3  1  0  0  0
  -31.6580  -15.9523   22.8635 O   0  0  0  0  0  0
  -31.4401  -12.4456   19.0770 H   0  0  0  0  0  0
  -30.3248  -11.3272   19.8085 H   0  0  0  0  0  0
  -29.7085  -11.7919   17.4185 H   0  0  0  0  0  0
  -29.6329  -13.5023   17.7491 H   0  0  0  0  0  0
  -27.7938  -11.3279   18.8003 H   0  0  0  0  0  0
  -27.3478  -12.6740   17.7821 H   0  0  0  0  0  0
  -27.6819  -14.2676   19.5711 H   0  0  0  0  0  0
  -28.6686  -11.9983   21.3589 H   0  0  0  0  0  0
  -28.4477  -13.6528   21.8486 H   0  0  0  0  0  0
  -25.2761   -9.5695   22.4741 H   0  0  0  0  0  0
  -24.0023   -7.4633   22.7436 H   0  0  0  0  0  0
  -21.0848   -8.8795   19.8921 H   0  0  0  0  0  0
  -22.3706  -10.9692   19.6170 H   0  0  0  0  0  0
  -21.2008   -7.6144   23.9718 H   0  0  0  0  0  0
  -21.1453   -6.0506   25.9071 H   0  0  0  0  0  0
  -22.0614   -2.7608   23.2855 H   0  0  0  0  0  0
  -22.4062  -11.9842   22.4837 H   0  0  0  0  0  0
  -21.1038  -13.1164   22.2702 H   0  0  0  0  0  0
  -24.6356  -15.8381   20.4419 H   0  0  0  0  0  0
  -26.2160  -15.5863   19.9083 H   0  0  0  0  0  0
  -26.7106  -32.5537   23.1157 H   0  0  0  0  0  0
  -25.0000  -33.9804   25.0440 H   0  0  0  0  0  0
  -22.6882  -31.3152   21.4218 H   0  0  0  0  0  0
  -23.3749  -35.9662   23.3313 H   0  0  0  0  0  0
  -24.3563  -36.8947   22.2047 H   0  0  0  0  0  0
  -23.7244  -37.6541   23.6646 H   0  0  0  0  0  0
  -26.0493  -31.5943   20.6044 H   0  0  0  0  0  0
  -26.8230  -30.8775   21.9887 H   0  0  0  0  0  0
  -28.0931  -29.0535   21.1773 H   0  0  0  0  0  0
  -25.9470  -26.0179   18.9383 H   0  0  0  0  0  0
  -23.9496  -27.3503   18.9998 H   0  0  0  0  0  0
  -23.7192  -30.6227   19.4140 H   0  0  0  0  0  0
  -22.7310  -29.2703   19.8709 H   0  0  0  0  0  0
  -25.1297  -36.1998   25.0829 H   0  0  0  0  0  0
  -21.0007  -28.3210   24.1458 H   0  0  0  0  0  0
  -20.5704  -26.2273   23.3684 H   0  0  0  0  0  0
  -21.6654  -26.7404   22.1266 H   0  0  0  0  0  0
  -19.6929  -25.6213   21.1360 H   0  0  0  0  0  0
  -19.6659  -27.3107   20.6801 H   0  0  0  0  0  0
  -17.4183  -26.6620   21.4156 H   0  0  0  0  0  0
  -18.0330  -26.0073   22.9157 H   0  0  0  0  0  0
  -19.7968  -30.7292   24.2218 H   0  0  0  0  0  0
  -17.5062  -31.6319   24.5077 H   0  0  0  0  0  0
  -15.5391  -30.3012   23.7650 H   0  0  0  0  0  0
  -15.8685  -28.0805   22.7154 H   0  0  0  0  0  0
  -24.5862  -30.7091   25.7796 H   0  0  0  0  0  0
  -24.8908  -32.2879   26.4930 H   0  0  0  0  0  0
  -25.8041  -30.8866   27.0233 H   0  0  0  0  0  0
  -26.2828  -29.6824   24.1180 H   0  0  0  0  0  0
  -27.4046  -29.7299   25.4593 H   0  0  0  0  0  0
  -27.8665  -30.4374   23.9282 H   0  0  0  0  0  0
  -27.2609  -33.3604   26.2138 H   0  0  0  0  0  0
  -28.3799  -32.6969   25.0336 H   0  0  0  0  0  0
  -28.0711  -31.8451   26.5398 H   0  0  0  0  0  0
  -28.2616  -38.0113   24.7510 H   0  0  0  0  0  0
  -28.1071  -36.2650   24.6288 H   0  0  0  0  0  0
  -27.2291  -37.1488   25.8860 H   0  0  0  0  0  0
  -20.9254  -29.8905   21.7114 H   0  0  0  0  0  0
  -26.0201  -38.2893   24.1394 H   0  0  0  0  0  0
  -32.7424  -18.0949   22.3513 H   0  0  0  0  0  0
  -30.7395  -21.7723   21.7583 H   0  0  0  0  0  0
  -30.2758  -22.5492   18.0280 H   0  0  0  0  0  0
  -29.5241  -21.0488   18.7714 H   0  0  0  0  0  0
  -30.0513  -24.7407   19.1003 H   0  0  0  0  0  0
  -30.1105  -24.6022   20.8366 H   0  0  0  0  0  0
  -27.9149  -24.8436   22.1909 H   0  0  0  0  0  0
  -26.4033  -25.0998   21.3748 H   0  0  0  0  0  0
  -26.5133  -22.8717   20.2963 H   0  0  0  0  0  0
  -26.6169  -22.7510   22.0402 H   0  0  0  0  0  0
  -27.6388  -24.9156   19.1331 H   0  0  0  0  0  0
  -33.6551  -20.2822   23.2001 H   0  0  0  0  0  0
  -32.9609  -21.7884   22.6093 H   0  0  0  0  0  0
  -33.7842  -20.7042   21.4864 H   0  0  0  0  0  0
  -26.4905  -17.9381   24.4168 H   0  0  0  0  0  0
  -26.2701  -19.0443   23.0688 H   0  0  0  0  0  0
  -27.8215  -18.9725   23.9178 H   0  0  0  0  0  0
  -28.2828  -17.0134   20.5981 H   0  0  0  0  0  0
  -27.3899  -18.4453   20.7768 H   0  0  0  0  0  0
  -27.4707  -20.6610   21.8622 H   0  0  0  0  0  0
  -27.8036  -20.5183   20.1581 H   0  0  0  0  0  0
  -26.5935  -16.6686   22.3082 H   0  0  0  0  0  0
  -28.1269  -16.6065   23.1074 H   0  0  0  0  0  0
  -29.1560  -15.5770   21.1790 H   0  0  0  0  0  0
  -28.9337  -22.5555   21.8605 H   0  0  0  0  0  0
  1 25  1  0  0  0
  1 30  2  0  0  0
  1 89  1  0  0  0
  2  3  1  0  0  0
  2 25  1  0  0  0
  2 92  1  0  0  0
  2 93  1  0  0  0
  3  4  1  0  0  0
  3 94  1  0  0  0
  3 95  1  0  0  0
  4  5  1  0  0  0
  4 96  1  0  0  0
  4 97  1  0  0  0
  5  6  1  0  0  0
  5 26  1  0  0  0
  5 98  1  0  0  0
  6 25  1  0  0  0
  6 99  1  0  0  0
  6100  1  0  0  0
  7  8  2  0  0  0
  7 26  1  0  0  0
  7 29  1  0  0  0
  8  9  1  0  0  0
  8 22  1  0  0  0
  9 10  1  0  0  0
  9 27  2  0  0  0
 10 11  2  0  0  0
 10 15  1  0  0  0
 11 12  1  0  0  0
 11101  1  0  0  0
 12 13  2  0  0  0
 12102  1  0  0  0
 13 14  1  0  0  0
 13 31  1  0  0  0
 14 15  2  0  0  0
 14103  1  0  0  0
 15104  1  0  0  0
 16 17  2  0  0  0
 16 21  1  0  0  0
 16 31  1  0  0  0
 17 18  1  0  0  0
 17105  1  0  0  0
 18 19  2  0  0  0
 18106  1  0  0  0
 19 20  1  0  0  0
 19 24  1  0  0  0
 20 21  2  0  0  0
 20107  1  0  0  0
 21 23  1  0  0  0
 22 28  1  0  0  0
 22 32  2  0  0  0
 26 27  1  0  0  0
 28108  1  0  0  0
 28109  1  0  0  0
 29110  1  0  0  0
 29111  1  0  0  0
 33 34  1  0  0  0
 33 66  1  0  0  0
 33 70  2  0  0  0
 34 36  1  0  0  0
 34 59  1  0  0  0
 34112  1  0  0  0
 35 44  2  0  0  0
 35 45  1  0  0  0
 35 68  1  0  0  0
 36 56  1  0  0  0
 36113  1  0  0  0
 37 39  1  0  0  0
 37 47  1  0  0  0
 37 66  1  0  0  0
 37114  1  0  0  0
 38 43  2  0  0  0
 38 46  1  0  0  0
 38 47  1  0  0  0
 39 64  1  0  0  0
 39 67  2  0  0  0
 40 52  1  0  0  0
 40 53  2  0  0  0
 40 58  1  0  0  0
 41115  1  0  0  0
 41116  1  0  0  0
 41117  1  0  0  0
 41 48  1  0  0  0
 42 43  1  0  0  0
 42 66  1  0  0  0
 42118  1  0  0  0
 42119  1  0  0  0
 43 44  1  0  0  0
 44120  1  0  0  0
 45 46  2  0  0  0
 45121  1  0  0  0
 46122  1  0  0  0
 47123  1  0  0  0
 47124  1  0  0  0
 48 56  1  0  0  0
 48 65  1  0  0  0
 48125  1  0  0  0
 49 50  1  0  0  0
 49 53  1  0  0  0
 49 64  1  0  0  0
 49126  1  0  0  0
 50 51  1  0  0  0
 50127  1  0  0  0
 50128  1  0  0  0
 51 52  1  0  0  0
 51129  1  0  0  0
 51130  1  0  0  0
 52131  1  0  0  0
 52132  1  0  0  0
 53 54  1  0  0  0
 54 55  2  0  0  0
 54133  1  0  0  0
 55 57  1  0  0  0
 55134  1  0  0  0
 56 69  2  0  0  0
 57 58  2  0  0  0
 57135  1  0  0  0
 58136  1  0  0  0
 59 60  1  0  0  0
 59 61  1  0  0  0
 59 62  1  0  0  0
 60137  1  0  0  0
 60138  1  0  0  0
 60139  1  0  0  0
 61140  1  0  0  0
 61141  1  0  0  0
 61142  1  0  0  0
 62143  1  0  0  0
 62144  1  0  0  0
 62145  1  0  0  0
 63 65  1  0  0  0
 63146  1  0  0  0
 63147  1  0  0  0
 63148  1  0  0  0
 64149  1  0  0  0
 65150  1  0  0  0
 68 83  1  0  0  0
 71 73  2  0  0  0
 71 74  1  0  0  0
 71151  1  0  0  0
 72 74  2  0  0  0
 72 75  1  0  0  0
 72152  1  0  0  0
 73 76  1  0  0  0
 73 79  1  0  0  0
 74 84  1  0  0  0
 75 76  2  0  0  0
 75 87  1  0  0  0
 76 86  1  0  0  0
 77 78  2  0  0  0
 77 80  1  0  0  0
 77 90  1  0  0  0
 78153  1  0  0  0
 78154  1  0  0  0
 79 89  1  0  0  0
 79 91  2  0  0  0
 80 83  1  0  0  0
 80155  1  0  0  0
 80156  1  0  0  0
 81 82  1  0  0  0
 81 83  1  0  0  0
 81157  1  0  0  0
 81158  1  0  0  0
 82 90  1  0  0  0
 82159  1  0  0  0
 82160  1  0  0  0
 83161  1  0  0  0
 84162  1  0  0  0
 84163  1  0  0  0
 84164  1  0  0  0
 85 88  1  0  0  0
 85165  1  0  0  0
 85166  1  0  0  0
 85167  1  0  0  0
 86 88  1  0  0  0
 86168  1  0  0  0
 86169  1  0  0  0
 87170  1  0  0  0
 87171  1  0  0  0
 87 90  1  0  0  0
 88172  1  0  0  0
 88173  1  0  0  0
 89174  1  0  0  0
 90175  1  0  0  0
M  CHG  1  90   1
M  ISO  4   1 100  68 101  83 101  89 100
M  END
> <chiral flag>
0

> <version>
0

> <s_m_source_file>
/data/baiqing/PycharmProjects/Reinvent-master-3.2/result/LINK_invent/BTK/process_docking_weight1_custom_product_contain_oxygen_bond_distance_aromatic_linkinvent_7_9_3/rearranged_h_0052.sdf

> <i_m_source_file_index>
21

> <r_mmod_Potential_Energy-OPLS-2005>
-88.3158416748047

> <r_mmod_Stretch_Energy-OPLS-2005>
54.0746192932129

> <r_mmod_Bend_Energy-OPLS-2005>
127.262245178223

> <r_mmod_Torsional_Energy-OPLS-2005>
290.191192626953

> <r_mmod_Improper_Torsional_Energy-OPLS-2005>
4.55346632003784

> <r_mmod_Van_der_Waal_Energy-OPLS-2005>
178.520095825195

> <r_mmod_Electrostatic_Energy-OPLS-2005>
-319.016693115234

> <r_mmod_Solvation_Energy-OPLS-2005>
-444.465728759766

> <b_mmod_Minimization_Converged-OPLS-2005>
0

> <r_mmod_RMS_Derivative-OPLS-2005>
3.83360147476196

$$$$
21
                    3D
 Structure written by MMmdl.
166174  0  0  1  0            999 V2000
  -30.1815  -15.0853   20.4666 C   0  0  0  0  0  0
  -30.4234  -12.7014   19.5188 C   0  0  0  0  0  0
  -29.5178  -12.5557   18.2683 C   0  0  0  0  0  0
  -28.0485  -12.2961   18.6667 C   0  0  0  0  0  0
  -27.5905  -13.2185   19.8244 C   0  0  2  0  0  0
  -28.5939  -13.2106   20.9833 C   0  0  0  0  0  0
  -25.2292  -13.8136   20.5627 C   0  0  0  0  0  0
  -24.1644  -13.0395   20.9256 C   0  0  0  0  0  0
  -24.6230  -11.6868   20.8766 C   0  0  0  0  0  0
  -23.8958  -10.4258   21.0440 C   0  0  0  0  0  0
  -24.3558   -9.4184   21.9199 C   0  0  0  0  0  0
  -23.6262   -8.2205   22.0749 C   0  0  0  0  0  0
  -22.4243   -8.0242   21.3539 C   0  0  0  0  0  0
  -21.9857   -9.0206   20.4643 C   0  0  0  0  0  0
  -22.7155  -10.2097   20.3068 C   0  0  0  0  0  0
  -21.6841   -6.0714   22.5282 C   0  0  0  0  0  0
  -21.4007   -6.5626   23.8214 C   0  0  0  0  0  0
  -21.3654   -5.6782   24.9178 C   0  0  0  0  0  0
  -21.6046   -4.3046   24.7232 C   0  0  0  0  0  0
  -21.8821   -3.8132   23.4354 C   0  0  0  0  0  0
  -21.9190   -4.6946   22.3409 C   0  0  0  0  0  0
  -22.7697  -13.5198   21.1946 C   0  0  0  0  0  0
  -22.1658   -4.2132   21.0986 F   0  0  0  0  0  0
  -21.5630   -3.4532   25.7747 F   0  0  0  0  0  0
  -29.8178  -13.7407   20.4085 N   0  0  0  0  0  0
  -26.2569  -12.9263   20.3001 N   0  0  0  0  0  0
  -25.9094  -11.6438   20.5614 N   0  0  0  0  0  0
  -22.0365  -12.8184   22.0510 N   0  0  0  0  0  0
  -25.3993  -15.1870   20.4038 N   0  0  0  0  0  0
  -31.3892  -15.3014   20.2489 O   0  0  0  0  0  0
  -21.6617   -6.8840   21.4235 O   0  0  0  0  0  0
  -22.3398  -14.5513   20.6794 O   0  0  0  0  0  0
  -24.6776  -31.9176   23.2116 C   0  0  0  0  0  0
  -25.9584  -32.4996   23.8545 C   0  0  1  0  0  0
  -26.2315  -27.1108   20.4486 C   0  0  0  0  0  0
  -25.6360  -33.8747   24.2495 N   0  0  0  0  0  0
  -23.5033  -30.5884   21.5532 C   0  0  2  0  0  0
  -24.8172  -29.2007   19.8860 C   0  0  0  0  0  0
  -23.0792  -29.4787   22.5308 C   0  0  0  0  0  0
  -18.5149  -28.1228   22.1687 C   0  0  0  0  0  0
  -24.1518  -36.7320   23.2606 C   0  0  0  0  0  0
  -26.0187  -30.7863   21.4090 C   0  0  0  0  0  0
  -25.9381  -29.4463   20.6870 C   0  0  0  0  0  0
  -26.8081  -28.3548   20.8777 C   0  0  0  0  0  0
  -25.7837  -27.0970   19.1554 C   0  0  0  0  0  0
  -24.7953  -28.0822   19.0179 C   0  0  0  0  0  0
  -23.6697  -30.1339   20.0720 C   0  0  0  0  0  0
  -25.4143  -36.3154   24.0321 C   0  0  1  0  0  0
  -21.1822  -28.3399   23.4661 C   0  0  2  0  0  0
  -21.7454  -26.3091   23.3920 C   0  0  0  0  0  0
  -20.2860  -25.2548   22.1457 C   0  0  0  0  0  0
  -18.8112  -26.4477   21.5287 C   0  0  0  0  0  0
  -19.5789  -28.9323   22.9563 C   0  0  0  0  0  0
  -19.1303  -30.0692   23.7113 C   0  0  0  0  0  0
  -17.7793  -30.4465   23.8681 C   0  0  0  0  0  0
  -25.9157  -34.9559   23.5126 C   0  0  0  0  0  0
  -16.7828  -29.6434   23.2980 C   0  0  0  0  0  0
  -17.1485  -28.5178   22.4987 C   0  0  0  0  0  0
  -26.4644  -31.6637   25.0908 C   0  0  0  0  0  0
  -25.3723  -31.3805   26.1490 C   0  0  0  0  0  0
  -27.0433  -30.3020   24.6418 C   0  0  0  0  0  0
  -27.6181  -32.4265   25.7798 C   0  0  0  0  0  0
  -27.5595  -37.1866   24.8464 C   0  0  0  0  0  0
  -21.8145  -29.3883   22.7383 N   0  0  0  0  0  0
  -26.4299  -37.3858   23.9420 N   0  0  0  0  0  0
  -24.7539  -31.1591   22.0856 N   0  0  0  0  0  0
  -23.8448  -28.7821   23.1865 O   0  0  0  0  0  0
  -25.0871  -26.6910   21.2315 O   0  0  0  0  0  0
  -26.5550  -34.8981   22.4588 O   0  0  0  0  0  0
  -23.5896  -32.1850   23.7475 O   0  0  0  0  0  0
  -26.3581  -19.6606   18.5839 C   0  0  0  0  0  0
  -25.8654  -20.8075   19.2610 C   0  0  0  0  0  0
  -27.2448  -18.7138   19.1586 C   0  0  0  0  0  0
  -26.2138  -21.1198   20.5933 C   0  0  0  0  0  0
  -27.7444  -18.8349   20.4706 C   0  0  0  0  0  0
  -27.1879  -20.0817   21.1626 C   0  0  0  0  0  0
  -25.4203  -22.3871   21.3122 C   0  0  0  0  0  0
  -27.6658  -20.3186   22.5840 C   0  0  0  0  0  0
  -20.8893  -28.2426   20.2891 C   0  0  0  0  0  0
  -19.5760  -26.6721   23.7533 C   0  0  0  0  0  0
  -28.9333  -17.6875   20.9376 C   0  0  0  0  0  0
  -23.6510  -24.6143   21.2686 C   0  0  0  0  0  0
  -21.2836  -27.1622   21.3822 C   0  0  0  0  0  0
  -23.3246  -26.3457   21.0280 C   0  0  1  0  0  0
  -24.8045  -23.5740   20.7318 N   0  0  0  0  0  0
  -29.1325  -16.0996   20.6160 N   0  0  0  0  0  0
  -25.2922  -22.2794   22.5318 O   0  0  0  0  0  0
  -31.4346  -12.9808   19.2190 H   0  0  0  0  0  0
  -30.5148  -11.7507   20.0460 H   0  0  0  0  0  0
  -29.8823  -11.7549   17.6232 H   0  0  0  0  0  0
  -29.5719  -13.4712   17.6776 H   0  0  0  0  0  0
  -27.9644  -11.2538   18.9755 H   0  0  0  0  0  0
  -27.3927  -12.4120   17.8030 H   0  0  0  0  0  0
  -27.5518  -14.2195   19.3952 H   0  0  0  0  0  0
  -28.7335  -12.2074   21.3881 H   0  0  0  0  0  0
  -28.2473  -13.8321   21.8112 H   0  0  0  0  0  0
  -25.2708   -9.5678   22.4761 H   0  0  0  0  0  0
  -23.9989   -7.4590   22.7455 H   0  0  0  0  0  0
  -21.0792   -8.8710   19.8944 H   0  0  0  0  0  0
  -22.3611  -10.9637   19.6178 H   0  0  0  0  0  0
  -21.1996   -7.6134   23.9713 H   0  0  0  0  0  0
  -21.1477   -6.0514   25.9081 H   0  0  0  0  0  0
  -22.0608   -2.7594   23.2861 H   0  0  0  0  0  0
  -22.3993  -11.9838   22.4874 H   0  0  0  0  0  0
  -21.0988  -13.1201   22.2753 H   0  0  0  0  0  0
  -24.6133  -15.8195   20.5095 H   0  0  0  0  0  0
  -26.1785  -15.6186   19.9271 H   0  0  0  0  0  0
  -26.7703  -32.5488   23.1310 H   0  0  0  0  0  0
  -25.0661  -33.9886   25.0747 H   0  0  0  0  0  0
  -22.7345  -31.3647   21.5459 H   0  0  0  0  0  0
  -23.3803  -35.9628   23.3259 H   0  0  0  0  0  0
  -24.3630  -36.8942   22.2024 H   0  0  0  0  0  0
  -23.7239  -37.6510   23.6618 H   0  0  0  0  0  0
  -26.2616  -31.5599   20.6795 H   0  0  0  0  0  0
  -26.8723  -30.7242   22.0727 H   0  0  0  0  0  0
  -27.5506  -28.3973   21.6626 H   0  0  0  0  0  0
  -25.6204  -26.1697   18.6247 H   0  0  0  0  0  0
  -23.9976  -27.9544   18.2989 H   0  0  0  0  0  0
  -23.8946  -31.0192   19.4750 H   0  0  0  0  0  0
  -22.7695  -29.7582   19.6195 H   0  0  0  0  0  0
  -25.1301  -36.2009   25.0806 H   0  0  0  0  0  0
  -21.3274  -28.6398   24.5070 H   0  0  0  0  0  0
  -21.7511  -25.8919   24.4042 H   0  0  0  0  0  0
  -22.8075  -26.1752   23.2585 H   0  0  0  0  0  0
  -19.8565  -24.4201   22.7069 H   0  0  0  0  0  0
  -20.7147  -24.6790   21.3256 H   0  0  0  0  0  0
  -18.7849  -26.4639   20.4404 H   0  0  0  0  0  0
  -17.8875  -25.8988   21.7214 H   0  0  0  0  0  0
  -19.8631  -30.6256   24.2810 H   0  0  0  0  0  0
  -17.5137  -31.2962   24.4820 H   0  0  0  0  0  0
  -15.7398  -29.8736   23.4658 H   0  0  0  0  0  0
  -16.3464  -27.9011   22.1173 H   0  0  0  0  0  0
  -24.5917  -30.7200   25.7700 H   0  0  0  0  0  0
  -24.8917  -32.2986   26.4876 H   0  0  0  0  0  0
  -25.7913  -30.8939   27.0308 H   0  0  0  0  0  0
  -26.3057  -29.6866   24.1265 H   0  0  0  0  0  0
  -27.3860  -29.7199   25.4982 H   0  0  0  0  0  0
  -27.9074  -30.4237   23.9886 H   0  0  0  0  0  0
  -27.2816  -33.3571   26.2379 H   0  0  0  0  0  0
  -28.4082  -32.6793   25.0715 H   0  0  0  0  0  0
  -28.0728  -31.8332   26.5741 H   0  0  0  0  0  0
  -28.2585  -38.0190   24.7550 H   0  0  0  0  0  0
  -28.1126  -36.2728   24.6246 H   0  0  0  0  0  0
  -27.2321  -37.1454   25.8866 H   0  0  0  0  0  0
  -21.1940  -30.0163   22.2482 H   0  0  0  0  0  0
  -26.0173  -38.2921   24.1451 H   0  0  0  0  0  0
  -26.0357  -19.4965   17.5645 H   0  0  0  0  0  0
  -25.1692  -21.4491   18.7388 H   0  0  0  0  0  0
  -27.5782  -17.8834   18.5509 H   0  0  0  0  0  0
  -26.9148  -19.9728   23.2949 H   0  0  0  0  0  0
  -27.8474  -21.3785   22.7648 H   0  0  0  0  0  0
  -28.5992  -19.7990   22.7937 H   0  0  0  0  0  0
  -20.9116  -29.2889   20.5672 H   0  0  0  0  0  0
  -19.8865  -28.1362   19.8834 H   0  0  0  0  0  0
  -21.5216  -28.1230   19.4080 H   0  0  0  0  0  0
  -18.4950  -26.4705   23.7603 H   0  0  0  0  0  0
  -19.6064  -27.2822   24.6681 H   0  0  0  0  0  0
  -19.7188  -25.7447   24.3323 H   0  0  0  0  0  0
  -28.9416  -17.7198   22.0264 H   0  0  0  0  0  0
  -29.8806  -18.1458   20.6504 H   0  0  0  0  0  0
  -22.7430  -24.1095   20.9508 H   0  0  0  0  0  0
  -23.6740  -24.4544   22.3448 H   0  0  0  0  0  0
  -21.0096  -26.5291   20.5303 H   0  0  0  0  0  0
  -23.2475  -26.3583   19.9447 H   0  0  0  0  0  0
  -25.0034  -23.6766   19.7460 H   0  0  0  0  0  0
  -28.2417  -15.6318   20.6701 H   0  0  0  0  0  0
  1 25  1  0  0  0
  1 30  2  0  0  0
  1 86  1  0  0  0
  2  3  1  0  0  0
  2 25  1  0  0  0
  2 88  1  0  0  0
  2 89  1  0  0  0
  3  4  1  0  0  0
  3 90  1  0  0  0
  3 91  1  0  0  0
  4  5  1  0  0  0
  4 92  1  0  0  0
  4 93  1  0  0  0
  5  6  1  0  0  0
  5 26  1  0  0  0
  5 94  1  0  0  0
  6 25  1  0  0  0
  6 95  1  0  0  0
  6 96  1  0  0  0
  7  8  2  0  0  0
  7 26  1  0  0  0
  7 29  1  0  0  0
  8  9  1  0  0  0
  8 22  1  0  0  0
  9 10  1  0  0  0
  9 27  2  0  0  0
 10 11  2  0  0  0
 10 15  1  0  0  0
 11 12  1  0  0  0
 11 97  1  0  0  0
 12 13  2  0  0  0
 12 98  1  0  0  0
 13 14  1  0  0  0
 13 31  1  0  0  0
 14 15  2  0  0  0
 14 99  1  0  0  0
 15100  1  0  0  0
 16 17  2  0  0  0
 16 21  1  0  0  0
 16 31  1  0  0  0
 17 18  1  0  0  0
 17101  1  0  0  0
 18 19  2  0  0  0
 18102  1  0  0  0
 19 20  1  0  0  0
 19 24  1  0  0  0
 20 21  2  0  0  0
 20103  1  0  0  0
 21 23  1  0  0  0
 22 28  1  0  0  0
 22 32  2  0  0  0
 26 27  1  0  0  0
 28104  1  0  0  0
 28105  1  0  0  0
 29106  1  0  0  0
 29107  1  0  0  0
 33 34  1  0  0  0
 33 66  1  0  0  0
 33 70  2  0  0  0
 34 36  1  0  0  0
 34 59  1  0  0  0
 34108  1  0  0  0
 35 44  2  0  0  0
 35 45  1  0  0  0
 35 68  1  0  0  0
 36 56  1  0  0  0
 36109  1  0  0  0
 37 39  1  0  0  0
 37 47  1  0  0  0
 37 66  1  0  0  0
 37110  1  0  0  0
 38 43  2  0  0  0
 38 46  1  0  0  0
 38 47  1  0  0  0
 39 64  1  0  0  0
 39 67  2  0  0  0
 40 52  1  0  0  0
 40 53  2  0  0  0
 40 58  1  0  0  0
 41111  1  0  0  0
 41112  1  0  0  0
 41113  1  0  0  0
 41 48  1  0  0  0
 42 43  1  0  0  0
 42 66  1  0  0  0
 42114  1  0  0  0
 42115  1  0  0  0
 43 44  1  0  0  0
 44116  1  0  0  0
 45 46  2  0  0  0
 45117  1  0  0  0
 46118  1  0  0  0
 47119  1  0  0  0
 47120  1  0  0  0
 48 56  1  0  0  0
 48 65  1  0  0  0
 48121  1  0  0  0
 49 50  1  0  0  0
 49 53  1  0  0  0
 49 64  1  0  0  0
 49122  1  0  0  0
 50 51  1  0  0  0
 50123  1  0  0  0
 50124  1  0  0  0
 51 52  1  0  0  0
 51125  1  0  0  0
 51126  1  0  0  0
 52127  1  0  0  0
 52128  1  0  0  0
 53 54  1  0  0  0
 54 55  2  0  0  0
 54129  1  0  0  0
 55 57  1  0  0  0
 55130  1  0  0  0
 56 69  2  0  0  0
 57 58  2  0  0  0
 57131  1  0  0  0
 58132  1  0  0  0
 59 60  1  0  0  0
 59 61  1  0  0  0
 59 62  1  0  0  0
 60133  1  0  0  0
 60134  1  0  0  0
 60135  1  0  0  0
 61136  1  0  0  0
 61137  1  0  0  0
 61138  1  0  0  0
 62139  1  0  0  0
 62140  1  0  0  0
 62141  1  0  0  0
 63 65  1  0  0  0
 63142  1  0  0  0
 63143  1  0  0  0
 63144  1  0  0  0
 64145  1  0  0  0
 65146  1  0  0  0
 68 84  1  0  0  0
 71 72  2  0  0  0
 71 73  1  0  0  0
 71147  1  0  0  0
 72 74  1  0  0  0
 72148  1  0  0  0
 73 75  2  0  0  0
 73149  1  0  0  0
 74 76  2  0  0  0
 74 77  1  0  0  0
 75 76  1  0  0  0
 75 81  1  0  0  0
 76 78  1  0  0  0
 77 85  1  0  0  0
 77 87  2  0  0  0
 78150  1  0  0  0
 78151  1  0  0  0
 78152  1  0  0  0
 79153  1  0  0  0
 79154  1  0  0  0
 79155  1  0  0  0
 79 83  1  0  0  0
 80 83  1  0  0  0
 80156  1  0  0  0
 80157  1  0  0  0
 80158  1  0  0  0
 81 86  1  0  0  0
 81159  1  0  0  0
 81160  1  0  0  0
 82 85  1  0  0  0
 82161  1  0  0  0
 82162  1  0  0  0
 82 84  1  0  0  0
 83 84  1  0  0  0
 83163  1  0  0  0
 84164  1  0  0  0
 85165  1  0  0  0
 86166  1  0  0  0
M  ISO  4   1 100  68 101  84 101  86 100
M  END
> <chiral flag>
0

> <version>
0

> <s_m_source_file>
/data/baiqing/PycharmProjects/Reinvent-master-3.2/result/LINK_invent/BTK/process_docking_weight1_custom_product_contain_oxygen_bond_distance_aromatic_linkinvent_7_9_3/rearranged_h_0052.sdf

> <i_m_source_file_index>
22

> <r_mmod_Potential_Energy-OPLS-2005>
10134.013671875

> <r_mmod_Stretch_Energy-OPLS-2005>
4922.83447265625

> <r_mmod_Bend_Energy-OPLS-2005>
892.098754882812

> <r_mmod_Torsional_Energy-OPLS-2005>
506.833282470703

> <r_mmod_Improper_Torsional_Energy-OPLS-2005>
46.3252601623535

> <r_mmod_Van_der_Waal_Energy-OPLS-2005>
1795.80639648438

> <r_mmod_Electrostatic_Energy-OPLS-2005>
-441.770141601562

> <r_mmod_Solvation_Energy-OPLS-2005>
-231.293884277344

> <b_mmod_Minimization_Converged-OPLS-2005>
0

> <r_mmod_RMS_Derivative-OPLS-2005>
1.63217496871948

$$$$
22
                    3D
 Structure written by MMmdl.
156164  0  0  1  0            999 V2000
  -28.2402  -16.4991   20.9490 C   0  0  0  0  0  0
  -29.8389  -14.1012   19.8885 C   0  0  0  0  0  0
  -29.4589  -13.1130   18.6631 C   0  0  0  0  0  0
  -28.1734  -12.3309   18.9342 C   0  0  0  0  0  0
  -27.3757  -13.2596   19.8402 C   0  0  2  0  0  0
  -28.0565  -13.7165   21.1314 C   0  0  0  0  0  0
  -25.0997  -13.7805   20.5199 C   0  0  0  0  0  0
  -24.0735  -13.0044   20.9265 C   0  0  0  0  0  0
  -24.5556  -11.6590   20.8810 C   0  0  0  0  0  0
  -23.8544  -10.4034   21.0549 C   0  0  0  0  0  0
  -24.3327   -9.4042   21.9268 C   0  0  0  0  0  0
  -23.6129   -8.2030   22.0769 C   0  0  0  0  0  0
  -22.4120   -8.0059   21.3542 C   0  0  0  0  0  0
  -21.9639   -8.9964   20.4644 C   0  0  0  0  0  0
  -22.6827  -10.1880   20.3103 C   0  0  0  0  0  0
  -21.6775   -6.0612   22.5300 C   0  0  0  0  0  0
  -21.3957   -6.5568   23.8217 C   0  0  0  0  0  0
  -21.3642   -5.6749   24.9197 C   0  0  0  0  0  0
  -21.6046   -4.3012   24.7264 C   0  0  0  0  0  0
  -21.8829   -3.8075   23.4397 C   0  0  0  0  0  0
  -21.9173   -4.6863   22.3439 C   0  0  0  0  0  0
  -22.6961  -13.4951   21.2120 C   0  0  0  0  0  0
  -22.1655   -4.2058   21.1014 F   0  0  0  0  0  0
  -21.5641   -3.4515   25.7789 F   0  0  0  0  0  0
  -28.6578  -14.9577   20.6906 N   0  0  0  0  0  0
  -26.0989  -12.8846   20.2324 N   0  0  0  0  0  0
  -25.8274  -11.6088   20.5347 N   0  0  0  0  0  0
  -21.9757  -12.8007   22.0798 N   0  0  0  0  0  0
  -25.2611  -15.1536   20.3475 N   0  0  0  0  0  0
  -29.5073  -16.7090   20.6630 O   0  0  0  0  0  0
  -21.6527   -6.8670   21.4231 O   0  0  0  0  0  0
  -22.2771  -14.5332   20.7006 O   0  0  0  0  0  0
  -24.6344  -31.9399   23.2582 C   0  0  0  0  0  0
  -25.9318  -32.5122   23.8866 C   0  0  1  0  0  0
  -27.0295  -27.5504   19.8913 C   0  0  0  0  0  0
  -25.6253  -33.8902   24.2739 N   0  0  0  0  0  0
  -23.4334  -30.6394   21.5666 C   0  0  2  0  0  0
  -24.9501  -29.3574   19.8930 C   0  0  0  0  0  0
  -22.8882  -29.5587   22.5263 C   0  0  0  0  0  0
  -18.7868  -26.5681   23.2051 C   0  0  0  0  0  0
  -24.1513  -36.7391   23.2596 C   0  0  0  0  0  0
  -25.9898  -30.8516   21.5126 C   0  0  0  0  0  0
  -26.0146  -29.5593   20.7571 C   0  0  0  0  0  0
  -27.0764  -28.6264   20.8085 C   0  0  0  0  0  0
  -26.3023  -27.6952   18.7324 C   0  0  0  0  0  0
  -25.2100  -28.5779   18.7614 C   0  0  0  0  0  0
  -23.6798  -30.1679   20.1013 C   0  0  0  0  0  0
  -25.4121  -36.3258   24.0351 C   0  0  1  0  0  0
  -21.2592  -27.9024   23.1432 C   0  0  2  0  0  0
  -22.2832  -26.6774   22.2577 C   0  0  0  0  0  0
  -21.8253  -25.1857   21.0155 C   0  0  0  0  0  0
  -20.1647  -24.6109   20.9179 C   0  0  0  0  0  0
  -19.6354  -27.8724   23.5419 C   0  0  0  0  0  0
  -19.1875  -29.2430   23.9163 C   0  0  0  0  0  0
  -17.8642  -29.7128   23.9183 C   0  0  0  0  0  0
  -25.9090  -34.9623   23.5247 C   0  0  0  0  0  0
  -16.9711  -28.7123   23.5181 C   0  0  0  0  0  0
  -17.4124  -27.3267   23.1946 C   0  0  0  0  0  0
  -26.4542  -31.6713   25.1130 C   0  0  0  0  0  0
  -25.3687  -31.3860   26.1747 C   0  0  0  0  0  0
  -27.0330  -30.3061   24.6695 C   0  0  0  0  0  0
  -27.6142  -32.4339   25.7914 C   0  0  0  0  0  0
  -27.5600  -37.1905   24.8470 C   0  0  0  0  0  0
  -21.6108  -29.1731   22.4804 N   0  0  0  0  0  0
  -26.4325  -37.3909   23.9399 N   0  0  0  0  0  0
  -24.6942  -31.1822   22.1396 N   0  0  0  0  0  0
  -23.6589  -29.0130   23.3221 O   0  0  0  0  0  0
  -26.6407  -26.3238   20.2788 O   0  0  0  0  0  0
  -26.5463  -34.8958   22.4695 O   0  0  0  0  0  0
  -23.5514  -32.2172   23.7924 O   0  0  0  0  0  0
  -18.1380  -24.4864   22.0237 C   0  0  0  0  0  0
  -18.3669  -25.9422   21.0482 C   0  0  0  0  0  0
  -19.2894  -23.4373   22.8001 C   0  0  0  0  0  0
  -20.6281  -25.1825   23.0012 C   0  0  0  0  0  0
  -19.9772  -26.6727   21.3753 C   0  0  0  0  0  0
  -20.9842  -23.3956   22.8655 C   0  0  0  0  0  0
  -26.5723  -17.7682   21.5057 C   0  0  0  0  0  0
  -25.5137  -19.3043   21.6822 C   0  0  0  0  0  0
  -23.7467  -26.4774   19.5795 C   0  0  0  0  0  0
  -20.9397  -27.3736   20.0558 C   0  0  0  0  0  0
  -25.0949  -26.2794   20.6214 C   0  0  0  0  0  0
  -22.6010  -27.3723   19.8019 N   0  0  0  0  0  0
  -23.7290  -25.7465   18.5842 O   0  0  0  0  0  0
  -23.9535  -21.7461   23.7566 O   0  0  0  0  0  0
  -22.2502  -20.0558   23.0588 O   0  0  0  0  0  0
  -23.1395  -21.1682   22.6700 S   0  0  0  0  0  0
  -30.5377  -14.8268   19.4714 H   0  0  0  0  0  0
  -30.4646  -13.5663   20.6068 H   0  0  0  0  0  0
  -30.2861  -12.4443   18.4227 H   0  0  0  0  0  0
  -29.3015  -13.7282   17.7762 H   0  0  0  0  0  0
  -28.3945  -11.3966   19.4515 H   0  0  0  0  0  0
  -27.6413  -12.0876   18.0138 H   0  0  0  0  0  0
  -27.1880  -14.1014   19.1667 H   0  0  0  0  0  0
  -28.6964  -12.9585   21.5890 H   0  0  0  0  0  0
  -27.3567  -13.9924   21.9232 H   0  0  0  0  0  0
  -25.2464   -9.5624   22.4825 H   0  0  0  0  0  0
  -23.9889   -7.4414   22.7453 H   0  0  0  0  0  0
  -21.0585   -8.8394   19.8950 H   0  0  0  0  0  0
  -22.3246  -10.9419   19.6232 H   0  0  0  0  0  0
  -21.1926   -7.6076   23.9688 H   0  0  0  0  0  0
  -21.1467   -6.0495   25.9095 H   0  0  0  0  0  0
  -22.0635   -2.7537   23.2923 H   0  0  0  0  0  0
  -22.3401  -11.9637   22.5104 H   0  0  0  0  0  0
  -21.0450  -13.1104   22.3206 H   0  0  0  0  0  0
  -24.4441  -15.7523   20.4039 H   0  0  0  0  0  0
  -25.9691  -15.5218   19.7278 H   0  0  0  0  0  0
  -26.7455  -32.5778   23.1682 H   0  0  0  0  0  0
  -25.0590  -34.0163   25.0999 H   0  0  0  0  0  0
  -22.6864  -31.4348   21.5242 H   0  0  0  0  0  0
  -23.3773  -35.9731   23.3320 H   0  0  0  0  0  0
  -24.3624  -36.8911   22.1999 H   0  0  0  0  0  0
  -23.7261  -37.6632   23.6519 H   0  0  0  0  0  0
  -26.2428  -31.6546   20.8184 H   0  0  0  0  0  0
  -26.8263  -30.7789   22.1911 H   0  0  0  0  0  0
  -27.7922  -28.6463   21.6184 H   0  0  0  0  0  0
  -26.3236  -26.9380   17.9592 H   0  0  0  0  0  0
  -24.4997  -28.5624   17.9446 H   0  0  0  0  0  0
  -23.8317  -31.0707   19.5077 H   0  0  0  0  0  0
  -22.7857  -29.7496   19.6523 H   0  0  0  0  0  0
  -25.1263  -36.2199   25.0845 H   0  0  0  0  0  0
  -21.6801  -27.9318   24.1513 H   0  0  0  0  0  0
  -22.8259  -26.1691   23.0595 H   0  0  0  0  0  0
  -23.1947  -27.1454   22.0079 H   0  0  0  0  0  0
  -22.5294  -24.3844   21.2441 H   0  0  0  0  0  0
  -21.9009  -25.1272   19.9425 H   0  0  0  0  0  0
  -19.9232  -24.8062   19.8545 H   0  0  0  0  0  0
  -20.0677  -23.5364   20.6944 H   0  0  0  0  0  0
  -19.9388  -29.9856   24.1459 H   0  0  0  0  0  0
  -17.5771  -30.7276   24.1580 H   0  0  0  0  0  0
  -15.9231  -28.9605   23.4237 H   0  0  0  0  0  0
  -16.5961  -26.7293   22.8130 H   0  0  0  0  0  0
  -24.5894  -30.7213   25.7997 H   0  0  0  0  0  0
  -24.8851  -32.3028   26.5129 H   0  0  0  0  0  0
  -25.7924  -30.9036   27.0564 H   0  0  0  0  0  0
  -26.2959  -29.6897   24.1540 H   0  0  0  0  0  0
  -27.3672  -29.7262   25.5309 H   0  0  0  0  0  0
  -27.9061  -30.4210   24.0267 H   0  0  0  0  0  0
  -27.2821  -33.3650   26.2519 H   0  0  0  0  0  0
  -28.3984  -32.6862   25.0763 H   0  0  0  0  0  0
  -28.0755  -31.8414   26.5827 H   0  0  0  0  0  0
  -28.2648  -38.0175   24.7505 H   0  0  0  0  0  0
  -28.1075  -36.2714   24.6325 H   0  0  0  0  0  0
  -27.2310  -37.1591   25.8872 H   0  0  0  0  0  0
  -20.9310  -29.6379   21.8948 H   0  0  0  0  0  0
  -26.0240  -38.3006   24.1369 H   0  0  0  0  0  0
  -17.1396  -24.0756   21.9772 H   0  0  0  0  0  0
  -17.6486  -26.3281   20.3386 H   0  0  0  0  0  0
  -18.8507  -22.4771   23.0306 H   0  0  0  0  0  0
  -21.1445  -25.5240   23.8881 H   0  0  0  0  0  0
  -25.9972  -17.0666   22.0919 H   0  0  0  0  0  0
  -26.0414  -20.0450   21.0994 H   0  0  0  0  0  0
  -20.6448  -28.4218   20.0220 H   0  0  0  0  0  0
  -20.5146  -26.9709   19.1359 H   0  0  0  0  0  0
  -24.9407  -25.3113   21.0975 H   0  0  0  0  0  0
  -25.0463  -26.9908   21.4372 H   0  0  0  0  0  0
  -22.9677  -28.1265   20.3614 H   0  0  0  0  0  0
  1 25  1  0  0  0
  1 30  2  0  0  0
  1 77  1  0  0  0
  2  3  1  0  0  0
  2 25  1  0  0  0
  2 87  1  0  0  0
  2 88  1  0  0  0
  3  4  1  0  0  0
  3 89  1  0  0  0
  3 90  1  0  0  0
  4  5  1  0  0  0
  4 91  1  0  0  0
  4 92  1  0  0  0
  5  6  1  0  0  0
  5 26  1  0  0  0
  5 93  1  0  0  0
  6 25  1  0  0  0
  6 94  1  0  0  0
  6 95  1  0  0  0
  7  8  2  0  0  0
  7 26  1  0  0  0
  7 29  1  0  0  0
  8  9  1  0  0  0
  8 22  1  0  0  0
  9 10  1  0  0  0
  9 27  2  0  0  0
 10 11  2  0  0  0
 10 15  1  0  0  0
 11 12  1  0  0  0
 11 96  1  0  0  0
 12 13  2  0  0  0
 12 97  1  0  0  0
 13 14  1  0  0  0
 13 31  1  0  0  0
 14 15  2  0  0  0
 14 98  1  0  0  0
 15 99  1  0  0  0
 16 17  2  0  0  0
 16 21  1  0  0  0
 16 31  1  0  0  0
 17 18  1  0  0  0
 17100  1  0  0  0
 18 19  2  0  0  0
 18101  1  0  0  0
 19 20  1  0  0  0
 19 24  1  0  0  0
 20 21  2  0  0  0
 20102  1  0  0  0
 21 23  1  0  0  0
 22 28  1  0  0  0
 22 32  2  0  0  0
 26 27  1  0  0  0
 28103  1  0  0  0
 28104  1  0  0  0
 29105  1  0  0  0
 29106  1  0  0  0
 33 34  1  0  0  0
 33 66  1  0  0  0
 33 70  2  0  0  0
 34 36  1  0  0  0
 34 59  1  0  0  0
 34107  1  0  0  0
 35 44  2  0  0  0
 35 45  1  0  0  0
 35 68  1  0  0  0
 36 56  1  0  0  0
 36108  1  0  0  0
 37 39  1  0  0  0
 37 47  1  0  0  0
 37 66  1  0  0  0
 37109  1  0  0  0
 38 43  2  0  0  0
 38 46  1  0  0  0
 38 47  1  0  0  0
 39 64  1  0  0  0
 39 67  2  0  0  0
 40 52  1  0  0  0
 40 53  2  0  0  0
 40 58  1  0  0  0
 41110  1  0  0  0
 41111  1  0  0  0
 41112  1  0  0  0
 41 48  1  0  0  0
 42 43  1  0  0  0
 42 66  1  0  0  0
 42113  1  0  0  0
 42114  1  0  0  0
 43 44  1  0  0  0
 44115  1  0  0  0
 45 46  2  0  0  0
 45116  1  0  0  0
 46117  1  0  0  0
 47118  1  0  0  0
 47119  1  0  0  0
 48 56  1  0  0  0
 48 65  1  0  0  0
 48120  1  0  0  0
 49 50  1  0  0  0
 49 53  1  0  0  0
 49 64  1  0  0  0
 49121  1  0  0  0
 50 51  1  0  0  0
 50122  1  0  0  0
 50123  1  0  0  0
 51 52  1  0  0  0
 51124  1  0  0  0
 51125  1  0  0  0
 52126  1  0  0  0
 52127  1  0  0  0
 53 54  1  0  0  0
 54 55  2  0  0  0
 54128  1  0  0  0
 55 57  1  0  0  0
 55129  1  0  0  0
 56 69  2  0  0  0
 57 58  2  0  0  0
 57130  1  0  0  0
 58131  1  0  0  0
 59 60  1  0  0  0
 59 61  1  0  0  0
 59 62  1  0  0  0
 60132  1  0  0  0
 60133  1  0  0  0
 60134  1  0  0  0
 61135  1  0  0  0
 61136  1  0  0  0
 61137  1  0  0  0
 62138  1  0  0  0
 62139  1  0  0  0
 62140  1  0  0  0
 63 65  1  0  0  0
 63141  1  0  0  0
 63142  1  0  0  0
 63143  1  0  0  0
 64144  1  0  0  0
 65145  1  0  0  0
 68 81  1  0  0  0
 71 72  2  0  0  0
 71 73  1  0  0  0
 71146  1  0  0  0
 72 75  1  0  0  0
 72147  1  0  0  0
 73 76  2  0  0  0
 73148  1  0  0  0
 74 75  2  0  0  0
 74 76  1  0  0  0
 74149  1  0  0  0
 75 80  1  0  0  0
 76 86  1  0  0  0
 77 78  2  0  0  0
 77150  1  0  0  0
 78151  1  0  0  0
 78 86  1  0  0  0
 79 81  1  0  0  0
 79 82  1  0  0  0
 79 83  2  0  0  0
 80 82  1  0  0  0
 80152  1  0  0  0
 80153  1  0  0  0
 81154  1  0  0  0
 81155  1  0  0  0
 82156  1  0  0  0
 84 86  2  0  0  0
 85 86  2  0  0  0
M  ISO  4   1 100  68 101  77 100  81 101
M  END
> <chiral flag>
0

> <version>
0

> <s_m_source_file>
/data/baiqing/PycharmProjects/Reinvent-master-3.2/result/LINK_invent/BTK/process_docking_weight1_custom_product_contain_oxygen_bond_distance_aromatic_linkinvent_7_9_3/rearranged_h_0052.sdf

> <i_m_source_file_index>
23

> <r_mmod_Potential_Energy-OPLS-2005>
26118.044921875

> <r_mmod_Stretch_Energy-OPLS-2005>
13311.8779296875

> <r_mmod_Bend_Energy-OPLS-2005>
2163.787109375

> <r_mmod_Torsional_Energy-OPLS-2005>
731.248962402344

> <r_mmod_Improper_Torsional_Energy-OPLS-2005>
74.3323669433594

> <r_mmod_Van_der_Waal_Energy-OPLS-2005>
3512.8642578125

> <r_mmod_Electrostatic_Energy-OPLS-2005>
-407.654846191406

> <r_mmod_Solvation_Energy-OPLS-2005>
-261.621459960938

> <b_mmod_Minimization_Converged-OPLS-2005>
0

> <r_mmod_RMS_Derivative-OPLS-2005>
1.60879063606262

$$$$
23
                    3D
 Structure written by MMmdl.
167176  0  0  1  0            999 V2000
  -30.6610  -14.5231   20.5426 C   0  0  0  0  0  0
  -30.4245  -12.3301   19.4348 C   0  0  0  0  0  0
  -29.4956  -12.4965   18.2147 C   0  0  0  0  0  0
  -28.0161  -12.3461   18.6255 C   0  0  0  0  0  0
  -27.6534  -13.2046   19.8666 C   0  0  2  0  0  0
  -28.6939  -13.0158   20.9934 C   0  0  0  0  0  0
  -25.2574  -13.8163   20.5677 C   0  0  0  0  0  0
  -24.1817  -13.0459   20.9148 C   0  0  0  0  0  0
  -24.6338  -11.6927   20.8747 C   0  0  0  0  0  0
  -23.9021  -10.4309   21.0421 C   0  0  0  0  0  0
  -24.3572   -9.4256   21.9228 C   0  0  0  0  0  0
  -23.6260   -8.2275   22.0789 C   0  0  0  0  0  0
  -22.4259   -8.0294   21.3561 C   0  0  0  0  0  0
  -21.9886   -9.0260   20.4653 C   0  0  0  0  0  0
  -22.7200  -10.2131   20.3052 C   0  0  0  0  0  0
  -21.6852   -6.0742   22.5281 C   0  0  0  0  0  0
  -21.4015   -6.5637   23.8208 C   0  0  0  0  0  0
  -21.3669   -5.6786   24.9167 C   0  0  0  0  0  0
  -21.6032   -4.3052   24.7224 C   0  0  0  0  0  0
  -21.8815   -3.8154   23.4339 C   0  0  0  0  0  0
  -21.9180   -4.6966   22.3400 C   0  0  0  0  0  0
  -22.7855  -13.5288   21.1811 C   0  0  0  0  0  0
  -22.1658   -4.2167   21.0972 F   0  0  0  0  0  0
  -21.5625   -3.4521   25.7730 F   0  0  0  0  0  0
  -30.0191  -13.3287   20.4349 N   0  0  0  0  0  0
  -26.2968  -12.9307   20.3338 N   0  0  0  0  0  0
  -25.9255  -11.6485   20.5765 N   0  0  0  0  0  0
  -22.0499  -12.8339   22.0393 N   0  0  0  0  0  0
  -25.4336  -15.1863   20.4107 N   0  0  0  0  0  0
  -31.8155  -14.7010   20.1382 O   0  0  0  0  0  0
  -21.6618   -6.8896   21.4254 O   0  0  0  0  0  0
  -22.3553  -14.5597   20.6677 O   0  0  0  0  0  0
  -24.6204  -31.8629   23.2066 C   0  0  0  0  0  0
  -25.9052  -32.4806   23.8399 C   0  0  1  0  0  0
  -27.1971  -27.3622   20.0856 C   0  0  0  0  0  0
  -25.5847  -33.8602   24.2295 N   0  0  0  0  0  0
  -23.4121  -30.4923   21.5497 C   0  0  2  0  0  0
  -24.8503  -28.9611   20.1082 C   0  0  0  0  0  0
  -22.7458  -29.4656   22.4977 C   0  0  0  0  0  0
  -18.0291  -28.1362   22.8496 C   0  0  0  0  0  0
  -24.1466  -36.7365   23.2643 C   0  0  0  0  0  0
  -25.9522  -30.8019   21.3778 C   0  0  0  0  0  0
  -26.0185  -29.4358   20.7187 C   0  0  0  0  0  0
  -27.1960  -28.6400   20.7101 C   0  0  0  0  0  0
  -26.0147  -26.9550   19.4205 C   0  0  0  0  0  0
  -24.8455  -27.7240   19.4554 C   0  0  0  0  0  0
  -23.6198  -29.8335   20.1640 C   0  0  0  0  0  0
  -25.4073  -36.3113   24.0343 C   0  0  1  0  0  0
  -20.5890  -28.3663   23.1300 C   0  0  2  0  0  0
  -20.6769  -26.9394   22.5407 C   0  0  0  0  0  0
  -19.5735  -26.6389   21.5209 C   0  0  0  0  0  0
  -18.1917  -26.7912   22.1639 C   0  0  0  0  0  0
  -19.1537  -28.8831   23.2898 C   0  0  0  0  0  0
  -18.9456  -30.1436   23.8917 C   0  0  0  0  0  0
  -17.6451  -30.6572   24.0553 C   0  0  0  0  0  0
  -25.9007  -34.9467   23.5134 C   0  0  0  0  0  0
  -16.5342  -29.9072   23.6325 C   0  0  0  0  0  0
  -16.7279  -28.6484   23.0361 C   0  0  0  0  0  0
  -26.4463  -31.6611   25.0763 C   0  0  0  0  0  0
  -25.3711  -31.3735   26.1510 C   0  0  0  0  0  0
  -27.0332  -30.3057   24.6202 C   0  0  0  0  0  0
  -27.6030  -32.4383   25.7447 C   0  0  0  0  0  0
  -27.5567  -37.1844   24.8460 C   0  0  0  0  0  0
  -21.4174  -29.3046   22.3716 N   0  0  0  0  0  0
  -26.4268  -37.3802   23.9413 N   0  0  0  0  0  0
  -24.6808  -31.0692   22.1001 N   0  0  0  0  0  0
  -23.4217  -28.8178   23.3017 O   0  0  0  0  0  0
  -28.3040  -26.5181   20.1493 O   0  0  0  0  0  0
  -26.5626  -34.8922   22.4736 O   0  0  0  0  0  0
  -23.5364  -32.1407   23.7400 O   0  0  0  0  0  0
  -28.1007  -17.5134   22.1800 C   0  0  0  0  0  0
  -27.2295  -18.4272   22.7957 C   0  0  0  0  0  0
  -29.4392  -19.3819   21.3741 C   0  0  0  0  0  0
  -29.2305  -17.9776   21.4746 C   0  0  0  0  0  0
  -27.4584  -19.8179   22.7388 C   0  0  0  0  0  0
  -28.5726  -20.3241   22.0008 C   0  0  0  0  0  0
  -27.6116  -22.3607   19.7987 C   0  0  0  0  0  0
  -26.4628  -21.7089   20.0570 C   0  0  0  0  0  0
  -27.9346  -23.0443   18.4732 C   0  0  0  0  0  0
  -28.3409  -24.5357   18.6316 C   0  0  0  0  0  0
  -28.8029  -24.1793   21.0820 C   0  0  0  0  0  0
  -28.0519  -25.0747   20.0503 C   0  0  2  0  0  0
  -26.4648  -20.6901   23.5050 C   0  0  0  0  0  0
  -30.2415  -16.9875   20.8606 C   0  0  0  0  0  0
  -28.9398  -21.8341   22.0063 C   0  0  0  0  0  0
  -29.8876  -15.5564   20.9342 N   0  0  0  0  0  0
  -28.6917  -22.6969   20.7957 N   0  3  1  0  0  0
  -31.4705  -12.4361   19.1413 H   0  0  0  0  0  0
  -30.3311  -11.3293   19.8572 H   0  0  0  0  0  0
  -29.7429  -11.7588   17.4507 H   0  0  0  0  0  0
  -29.6525  -13.4746   17.7568 H   0  0  0  0  0  0
  -27.8362  -11.2903   18.8382 H   0  0  0  0  0  0
  -27.3646  -12.5985   17.7885 H   0  0  0  0  0  0
  -27.6851  -14.2460   19.5433 H   0  0  0  0  0  0
  -28.6854  -11.9864   21.3556 H   0  0  0  0  0  0
  -28.4538  -13.6346   21.8595 H   0  0  0  0  0  0
  -25.2684   -9.5754   22.4864 H   0  0  0  0  0  0
  -23.9983   -7.4679   22.7519 H   0  0  0  0  0  0
  -21.0823   -8.8736   19.8958 H   0  0  0  0  0  0
  -22.3645  -10.9670   19.6164 H   0  0  0  0  0  0
  -21.2023   -7.6140   23.9708 H   0  0  0  0  0  0
  -21.1485   -6.0529   25.9062 H   0  0  0  0  0  0
  -22.0573   -2.7608   23.2827 H   0  0  0  0  0  0
  -22.4083  -12.0005   22.4828 H   0  0  0  0  0  0
  -21.1182  -13.1509   22.2671 H   0  0  0  0  0  0
  -24.6687  -15.8429   20.5222 H   0  0  0  0  0  0
  -26.2882  -15.6232   20.0917 H   0  0  0  0  0  0
  -26.7125  -32.5491   23.1154 H   0  0  0  0  0  0
  -24.9824  -33.9759   25.0320 H   0  0  0  0  0  0
  -22.7045  -31.3107   21.4092 H   0  0  0  0  0  0
  -23.3688  -35.9744   23.3299 H   0  0  0  0  0  0
  -24.3544  -36.8995   22.2055 H   0  0  0  0  0  0
  -23.7277  -37.6595   23.6671 H   0  0  0  0  0  0
  -26.0807  -31.5655   20.6095 H   0  0  0  0  0  0
  -26.8348  -30.8450   22.0059 H   0  0  0  0  0  0
  -28.0878  -28.9837   21.2150 H   0  0  0  0  0  0
  -25.9536  -26.0322   18.8636 H   0  0  0  0  0  0
  -23.9513  -27.3683   18.9610 H   0  0  0  0  0  0
  -23.7300  -30.6061   19.4029 H   0  0  0  0  0  0
  -22.7416  -29.2571   19.8706 H   0  0  0  0  0  0
  -25.1240  -36.1962   25.0841 H   0  0  0  0  0  0
  -20.9976  -28.3214   24.1421 H   0  0  0  0  0  0
  -20.5629  -26.2279   23.3599 H   0  0  0  0  0  0
  -21.6638  -26.7412   22.1209 H   0  0  0  0  0  0
  -19.6891  -25.6307   21.1211 H   0  0  0  0  0  0
  -19.6654  -27.3231   20.6753 H   0  0  0  0  0  0
  -17.4180  -26.6667   21.4047 H   0  0  0  0  0  0
  -18.0324  -26.0052   22.9035 H   0  0  0  0  0  0
  -19.7922  -30.7246   24.2312 H   0  0  0  0  0  0
  -17.4997  -31.6254   24.5131 H   0  0  0  0  0  0
  -15.5325  -30.2958   23.7641 H   0  0  0  0  0  0
  -15.8690  -28.0783   22.7089 H   0  0  0  0  0  0
  -24.5818  -30.7174   25.7835 H   0  0  0  0  0  0
  -24.8988  -32.2901   26.5045 H   0  0  0  0  0  0
  -25.8025  -30.8812   27.0236 H   0  0  0  0  0  0
  -26.2972  -29.6837   24.1117 H   0  0  0  0  0  0
  -27.3938  -29.7269   25.4713 H   0  0  0  0  0  0
  -27.8850  -30.4386   23.9534 H   0  0  0  0  0  0
  -27.2637  -33.3646   26.2095 H   0  0  0  0  0  0
  -28.3722  -32.7031   25.0179 H   0  0  0  0  0  0
  -28.0869  -31.8522   26.5273 H   0  0  0  0  0  0
  -28.2583  -38.0132   24.7427 H   0  0  0  0  0  0
  -28.1059  -36.2661   24.6332 H   0  0  0  0  0  0
  -27.2303  -37.1548   25.8872 H   0  0  0  0  0  0
  -20.9327  -29.8830   21.6988 H   0  0  0  0  0  0
  -26.0146  -38.2884   24.1406 H   0  0  0  0  0  0
  -27.8926  -16.4578   22.2841 H   0  0  0  0  0  0
  -26.3805  -18.0432   23.3461 H   0  0  0  0  0  0
  -30.3071  -19.7392   20.8391 H   0  0  0  0  0  0
  -25.7199  -21.5733   19.2824 H   0  0  0  0  0  0
  -26.2121  -21.3097   21.0192 H   0  0  0  0  0  0
  -27.0595  -22.9793   17.8250 H   0  0  0  0  0  0
  -28.7245  -22.4843   17.9706 H   0  0  0  0  0  0
  -27.8346  -25.1303   17.8716 H   0  0  0  0  0  0
  -29.4047  -24.6526   18.4234 H   0  0  0  0  0  0
  -28.3986  -24.3946   22.0702 H   0  0  0  0  0  0
  -29.8570  -24.4497   21.1066 H   0  0  0  0  0  0
  -27.0065  -24.8752   20.2896 H   0  0  0  0  0  0
  -26.5666  -21.7634   23.3525 H   0  0  0  0  0  0
  -26.5392  -20.4994   24.5764 H   0  0  0  0  0  0
  -25.4484  -20.4277   23.2061 H   0  0  0  0  0  0
  -30.3935  -17.2598   19.8137 H   0  0  0  0  0  0
  -31.2004  -17.1291   21.3607 H   0  0  0  0  0  0
  -30.0127  -21.8807   22.1914 H   0  0  0  0  0  0
  -28.5233  -22.3092   22.8884 H   0  0  0  0  0  0
  -28.9371  -15.3331   21.1814 H   0  0  0  0  0  0
  -29.5440  -22.5150   20.2844 H   0  0  0  0  0  0
  1 25  1  0  0  0
  1 30  2  0  0  0
  1 86  1  0  0  0
  2  3  1  0  0  0
  2 25  1  0  0  0
  2 88  1  0  0  0
  2 89  1  0  0  0
  3  4  1  0  0  0
  3 90  1  0  0  0
  3 91  1  0  0  0
  4  5  1  0  0  0
  4 92  1  0  0  0
  4 93  1  0  0  0
  5  6  1  0  0  0
  5 26  1  0  0  0
  5 94  1  0  0  0
  6 25  1  0  0  0
  6 95  1  0  0  0
  6 96  1  0  0  0
  7  8  2  0  0  0
  7 26  1  0  0  0
  7 29  1  0  0  0
  8  9  1  0  0  0
  8 22  1  0  0  0
  9 10  1  0  0  0
  9 27  2  0  0  0
 10 11  2  0  0  0
 10 15  1  0  0  0
 11 12  1  0  0  0
 11 97  1  0  0  0
 12 13  2  0  0  0
 12 98  1  0  0  0
 13 14  1  0  0  0
 13 31  1  0  0  0
 14 15  2  0  0  0
 14 99  1  0  0  0
 15100  1  0  0  0
 16 17  2  0  0  0
 16 21  1  0  0  0
 16 31  1  0  0  0
 17 18  1  0  0  0
 17101  1  0  0  0
 18 19  2  0  0  0
 18102  1  0  0  0
 19 20  1  0  0  0
 19 24  1  0  0  0
 20 21  2  0  0  0
 20103  1  0  0  0
 21 23  1  0  0  0
 22 28  1  0  0  0
 22 32  2  0  0  0
 26 27  1  0  0  0
 28104  1  0  0  0
 28105  1  0  0  0
 29106  1  0  0  0
 29107  1  0  0  0
 33 34  1  0  0  0
 33 66  1  0  0  0
 33 70  2  0  0  0
 34 36  1  0  0  0
 34 59  1  0  0  0
 34108  1  0  0  0
 35 44  2  0  0  0
 35 45  1  0  0  0
 35 68  1  0  0  0
 36 56  1  0  0  0
 36109  1  0  0  0
 37 39  1  0  0  0
 37 47  1  0  0  0
 37 66  1  0  0  0
 37110  1  0  0  0
 38 43  2  0  0  0
 38 46  1  0  0  0
 38 47  1  0  0  0
 39 64  1  0  0  0
 39 67  2  0  0  0
 40 52  1  0  0  0
 40 53  2  0  0  0
 40 58  1  0  0  0
 41111  1  0  0  0
 41112  1  0  0  0
 41113  1  0  0  0
 41 48  1  0  0  0
 42 43  1  0  0  0
 42 66  1  0  0  0
 42114  1  0  0  0
 42115  1  0  0  0
 43 44  1  0  0  0
 44116  1  0  0  0
 45 46  2  0  0  0
 45117  1  0  0  0
 46118  1  0  0  0
 47119  1  0  0  0
 47120  1  0  0  0
 48 56  1  0  0  0
 48 65  1  0  0  0
 48121  1  0  0  0
 49 50  1  0  0  0
 49 53  1  0  0  0
 49 64  1  0  0  0
 49122  1  0  0  0
 50 51  1  0  0  0
 50123  1  0  0  0
 50124  1  0  0  0
 51 52  1  0  0  0
 51125  1  0  0  0
 51126  1  0  0  0
 52127  1  0  0  0
 52128  1  0  0  0
 53 54  1  0  0  0
 54 55  2  0  0  0
 54129  1  0  0  0
 55 57  1  0  0  0
 55130  1  0  0  0
 56 69  2  0  0  0
 57 58  2  0  0  0
 57131  1  0  0  0
 58132  1  0  0  0
 59 60  1  0  0  0
 59 61  1  0  0  0
 59 62  1  0  0  0
 60133  1  0  0  0
 60134  1  0  0  0
 60135  1  0  0  0
 61136  1  0  0  0
 61137  1  0  0  0
 61138  1  0  0  0
 62139  1  0  0  0
 62140  1  0  0  0
 62141  1  0  0  0
 63 65  1  0  0  0
 63142  1  0  0  0
 63143  1  0  0  0
 63144  1  0  0  0
 64145  1  0  0  0
 65146  1  0  0  0
 68 82  1  0  0  0
 71 72  2  0  0  0
 71 74  1  0  0  0
 71147  1  0  0  0
 72 75  1  0  0  0
 72148  1  0  0  0
 73 74  2  0  0  0
 73 76  1  0  0  0
 73149  1  0  0  0
 74 84  1  0  0  0
 75 76  2  0  0  0
 75 83  1  0  0  0
 76 85  1  0  0  0
 77 78  2  0  0  0
 77 79  1  0  0  0
 77 87  1  0  0  0
 78150  1  0  0  0
 78151  1  0  0  0
 79 80  1  0  0  0
 79152  1  0  0  0
 79153  1  0  0  0
 80 82  1  0  0  0
 80154  1  0  0  0
 80155  1  0  0  0
 81 82  1  0  0  0
 81 87  1  0  0  0
 81156  1  0  0  0
 81157  1  0  0  0
 82158  1  0  0  0
 83159  1  0  0  0
 83160  1  0  0  0
 83161  1  0  0  0
 84 86  1  0  0  0
 84162  1  0  0  0
 84163  1  0  0  0
 85164  1  0  0  0
 85165  1  0  0  0
 85 87  1  0  0  0
 86166  1  0  0  0
 87167  1  0  0  0
M  CHG  1  87   1
M  ISO  4   1 100  68 101  82 101  86 100
M  END
> <chiral flag>
0

> <version>
0

> <s_m_source_file>
/data/baiqing/PycharmProjects/Reinvent-master-3.2/result/LINK_invent/BTK/process_docking_weight1_custom_product_contain_oxygen_bond_distance_aromatic_linkinvent_7_9_3/rearranged_h_0052.sdf

> <i_m_source_file_index>
24

> <r_mmod_Potential_Energy-OPLS-2005>
-108.16268157959

> <r_mmod_Stretch_Energy-OPLS-2005>
55.8061065673828

> <r_mmod_Bend_Energy-OPLS-2005>
134.543518066406

> <r_mmod_Torsional_Energy-OPLS-2005>
231.551345825195

> <r_mmod_Improper_Torsional_Energy-OPLS-2005>
5.35144233703613

> <r_mmod_Van_der_Waal_Energy-OPLS-2005>
171.575897216797

> <r_mmod_Electrostatic_Energy-OPLS-2005>
-318.82763671875

> <r_mmod_Solvation_Energy-OPLS-2005>
-418.700927734375

> <b_mmod_Minimization_Converged-OPLS-2005>
0

> <r_mmod_RMS_Derivative-OPLS-2005>
3.9646053314209

$$$$
24
                    3D
 Structure written by MMmdl.
161170  0  0  1  0            999 V2000
  -30.6494  -14.6810   20.4372 C   0  0  0  0  0  0
  -30.4427  -12.4188   19.4530 C   0  0  0  0  0  0
  -29.4997  -12.4298   18.2277 C   0  0  0  0  0  0
  -28.0240  -12.3054   18.6500 C   0  0  0  0  0  0
  -27.6438  -13.2224   19.8428 C   0  0  2  0  0  0
  -28.6933  -13.1451   20.9720 C   0  0  0  0  0  0
  -25.2541  -13.8205   20.5707 C   0  0  0  0  0  0
  -24.1820  -13.0457   20.9216 C   0  0  0  0  0  0
  -24.6368  -11.6922   20.8742 C   0  0  0  0  0  0
  -23.9030  -10.4303   21.0400 C   0  0  0  0  0  0
  -24.3588   -9.4207   21.9161 C   0  0  0  0  0  0
  -23.6271   -8.2237   22.0730 C   0  0  0  0  0  0
  -22.4244   -8.0282   21.3530 C   0  0  0  0  0  0
  -21.9872   -9.0246   20.4628 C   0  0  0  0  0  0
  -22.7194  -10.2133   20.3046 C   0  0  0  0  0  0
  -21.6842   -6.0724   22.5262 C   0  0  0  0  0  0
  -21.4007   -6.5632   23.8189 C   0  0  0  0  0  0
  -21.3658   -5.6788   24.9158 C   0  0  0  0  0  0
  -21.6048   -4.3048   24.7210 C   0  0  0  0  0  0
  -21.8826   -3.8128   23.4338 C   0  0  0  0  0  0
  -21.9183   -4.6949   22.3388 C   0  0  0  0  0  0
  -22.7823  -13.5223   21.1857 C   0  0  0  0  0  0
  -22.1660   -4.2129   21.0964 F   0  0  0  0  0  0
  -21.5620   -3.4533   25.7727 F   0  0  0  0  0  0
  -29.9976  -13.4761   20.3852 N   0  0  0  0  0  0
  -26.2947  -12.9386   20.3274 N   0  0  0  0  0  0
  -25.9298  -11.6525   20.5757 N   0  0  0  0  0  0
  -22.0464  -12.8235   22.0421 N   0  0  0  0  0  0
  -25.4279  -15.1934   20.4108 N   0  0  0  0  0  0
  -31.8632  -14.7370   20.2413 O   0  0  0  0  0  0
  -21.6628   -6.8866   21.4221 O   0  0  0  0  0  0
  -22.3497  -14.5495   20.6655 O   0  0  0  0  0  0
  -24.6234  -31.8607   23.2028 C   0  0  0  0  0  0
  -25.9091  -32.4796   23.8357 C   0  0  1  0  0  0
  -27.2281  -27.3393   20.1350 C   0  0  0  0  0  0
  -25.5903  -33.8593   24.2295 N   0  0  0  0  0  0
  -23.4185  -30.4829   21.5430 C   0  0  2  0  0  0
  -24.8712  -28.9393   20.1090 C   0  0  0  0  0  0
  -22.7461  -29.4627   22.4910 C   0  0  0  0  0  0
  -18.0286  -28.1391   22.8478 C   0  0  0  0  0  0
  -24.1489  -36.7313   23.2637 C   0  0  0  0  0  0
  -25.9555  -30.8009   21.3705 C   0  0  0  0  0  0
  -26.0361  -29.4272   20.7181 C   0  0  0  0  0  0
  -27.2218  -28.6368   20.7256 C   0  0  0  0  0  0
  -26.0509  -26.8953   19.5024 C   0  0  0  0  0  0
  -24.8790  -27.6768   19.4918 C   0  0  0  0  0  0
  -23.6373  -29.8164   20.1569 C   0  0  0  0  0  0
  -25.4109  -36.3097   24.0334 C   0  0  1  0  0  0
  -20.5880  -28.3703   23.1277 C   0  0  2  0  0  0
  -20.6778  -26.9429   22.5403 C   0  0  0  0  0  0
  -19.5749  -26.6402   21.5201 C   0  0  0  0  0  0
  -18.1931  -26.7934   22.1616 C   0  0  0  0  0  0
  -19.1537  -28.8860   23.2872 C   0  0  0  0  0  0
  -18.9462  -30.1456   23.8899 C   0  0  0  0  0  0
  -17.6464  -30.6592   24.0576 C   0  0  0  0  0  0
  -25.9037  -34.9464   23.5118 C   0  0  0  0  0  0
  -16.5356  -29.9097   23.6333 C   0  0  0  0  0  0
  -16.7275  -28.6513   23.0351 C   0  0  0  0  0  0
  -26.4490  -31.6594   25.0717 C   0  0  0  0  0  0
  -25.3745  -31.3736   26.1462 C   0  0  0  0  0  0
  -27.0316  -30.3014   24.6151 C   0  0  0  0  0  0
  -27.6042  -32.4325   25.7489 C   0  0  0  0  0  0
  -27.5581  -37.1809   24.8465 C   0  0  0  0  0  0
  -21.4170  -29.3052   22.3662 N   0  0  0  0  0  0
  -26.4296  -37.3786   23.9404 N   0  0  0  0  0  0
  -24.6843  -31.0633   22.0970 N   0  0  0  0  0  0
  -23.4177  -28.8184   23.3008 O   0  0  0  0  0  0
  -28.3049  -26.4518   20.1873 O   0  0  0  0  0  0
  -26.5605  -34.8931   22.4685 O   0  0  0  0  0  0
  -23.5400  -32.1394   23.7374 O   0  0  0  0  0  0
  -30.9748  -18.5460   17.9960 C   0  0  0  0  0  0
  -29.5812  -18.3794   20.4031 C   0  0  0  0  0  0
  -30.7817  -17.2777   18.5786 C   0  0  0  0  0  0
  -29.7502  -19.6779   19.7817 C   0  0  0  0  0  0
  -30.1116  -17.1489   19.8378 C   0  0  0  0  0  0
  -30.4727  -19.7215   18.5673 C   0  0  0  0  0  0
  -28.0499  -21.4654   19.8500 C   0  0  0  0  0  0
  -27.7108  -22.9932   19.9390 C   0  0  0  0  0  0
  -29.9879  -23.4091   20.8612 C   0  0  0  0  0  0
  -30.1885  -21.8583   21.0155 C   0  0  0  0  0  0
  -28.5088  -23.8222   20.9742 C   0  0  2  0  0  0
  -31.2848  -16.1127   17.7353 C   0  0  0  0  0  0
  -28.1381  -25.3705   21.1718 C   0  0  0  0  0  0
  -29.2480  -20.9662   20.2830 N   0  0  0  0  0  0
  -29.8811  -15.8289   20.4692 N   0  0  0  0  0  0
  -27.1932  -20.7291   19.3481 O   0  0  0  0  0  0
  -30.7453  -21.2078   17.7186 Cl  0  0  0  0  0  0
  -31.4736  -12.5655   19.1233 H   0  0  0  0  0  0
  -30.4261  -11.4503   19.9526 H   0  0  0  0  0  0
  -29.7544  -11.6003   17.5664 H   0  0  0  0  0  0
  -29.6364  -13.3303   17.6328 H   0  0  0  0  0  0
  -27.8549  -11.2626   18.9197 H   0  0  0  0  0  0
  -27.3690  -12.5028   17.8005 H   0  0  0  0  0  0
  -27.6418  -14.2403   19.4532 H   0  0  0  0  0  0
  -28.7208  -12.1438   21.4023 H   0  0  0  0  0  0
  -28.4417  -13.8251   21.7880 H   0  0  0  0  0  0
  -25.2738   -9.5672   22.4725 H   0  0  0  0  0  0
  -23.9964   -7.4626   22.7450 H   0  0  0  0  0  0
  -21.0789   -8.8769   19.8943 H   0  0  0  0  0  0
  -22.3641  -10.9672   19.6157 H   0  0  0  0  0  0
  -21.2009   -7.6133   23.9683 H   0  0  0  0  0  0
  -21.1471   -6.0522   25.9064 H   0  0  0  0  0  0
  -22.0600   -2.7589   23.2840 H   0  0  0  0  0  0
  -22.4066  -11.9941   22.4908 H   0  0  0  0  0  0
  -21.1042  -13.1231   22.2523 H   0  0  0  0  0  0
  -24.6633  -15.8491   20.5291 H   0  0  0  0  0  0
  -26.2698  -15.6271   20.0516 H   0  0  0  0  0  0
  -26.7163  -32.5499   23.1109 H   0  0  0  0  0  0
  -25.0066  -33.9738   25.0449 H   0  0  0  0  0  0
  -22.7115  -31.3019   21.3959 H   0  0  0  0  0  0
  -23.3744  -35.9656   23.3310 H   0  0  0  0  0  0
  -24.3585  -36.8920   22.2049 H   0  0  0  0  0  0
  -23.7250  -37.6528   23.6645 H   0  0  0  0  0  0
  -26.0763  -31.5625   20.5982 H   0  0  0  0  0  0
  -26.8388  -30.8582   21.9947 H   0  0  0  0  0  0
  -28.1137  -28.9974   21.2202 H   0  0  0  0  0  0
  -26.0387  -25.9180   19.0397 H   0  0  0  0  0  0
  -23.9865  -27.2914   19.0194 H   0  0  0  0  0  0
  -23.7583  -30.5929   19.3999 H   0  0  0  0  0  0
  -22.7606  -29.2428   19.8530 H   0  0  0  0  0  0
  -25.1285  -36.1958   25.0827 H   0  0  0  0  0  0
  -20.9977  -28.3293   24.1391 H   0  0  0  0  0  0
  -20.5689  -26.2310   23.3601 H   0  0  0  0  0  0
  -21.6651  -26.7471   22.1189 H   0  0  0  0  0  0
  -19.6926  -25.6312   21.1221 H   0  0  0  0  0  0
  -19.6696  -27.3222   20.6737 H   0  0  0  0  0  0
  -17.4204  -26.6674   21.4022 H   0  0  0  0  0  0
  -18.0347  -26.0072   22.9005 H   0  0  0  0  0  0
  -19.7944  -30.7266   24.2274 H   0  0  0  0  0  0
  -17.5031  -31.6273   24.5179 H   0  0  0  0  0  0
  -15.5361  -30.3015   23.7657 H   0  0  0  0  0  0
  -15.8662  -28.0850   22.7067 H   0  0  0  0  0  0
  -24.5918  -30.7075   25.7813 H   0  0  0  0  0  0
  -24.8953  -32.2918   26.4872 H   0  0  0  0  0  0
  -25.8104  -30.8939   27.0236 H   0  0  0  0  0  0
  -26.2882  -29.6769   24.1190 H   0  0  0  0  0  0
  -27.4021  -29.7255   25.4638 H   0  0  0  0  0  0
  -27.8743  -30.4275   23.9357 H   0  0  0  0  0  0
  -27.2633  -33.3608   26.2081 H   0  0  0  0  0  0
  -28.3855  -32.6914   25.0333 H   0  0  0  0  0  0
  -28.0710  -31.8451   26.5405 H   0  0  0  0  0  0
  -28.2607  -38.0098   24.7500 H   0  0  0  0  0  0
  -28.1065  -36.2627   24.6299 H   0  0  0  0  0  0
  -27.2303  -37.1480   25.8871 H   0  0  0  0  0  0
  -20.9340  -29.8758   21.6858 H   0  0  0  0  0  0
  -26.0185  -38.2868   24.1393 H   0  0  0  0  0  0
  -31.5044  -18.6303   17.0576 H   0  0  0  0  0  0
  -29.0271  -18.3301   21.3309 H   0  0  0  0  0  0
  -26.6427  -23.0953   20.1395 H   0  0  0  0  0  0
  -27.8771  -23.4166   18.9472 H   0  0  0  0  0  0
  -30.3864  -23.7499   19.9051 H   0  0  0  0  0  0
  -30.5754  -23.9168   21.6292 H   0  0  0  0  0  0
  -30.1136  -21.5918   22.0714 H   0  0  0  0  0  0
  -31.2143  -21.6191   20.7273 H   0  0  0  0  0  0
  -28.2034  -23.4005   21.9343 H   0  0  0  0  0  0
  -30.6151  -15.2603   17.7781 H   0  0  0  0  0  0
  -32.2830  -15.8065   18.0483 H   0  0  0  0  0  0
  -31.3574  -16.3951   16.6845 H   0  0  0  0  0  0
  -28.6969  -25.7117   22.0433 H   0  0  0  0  0  0
  -27.1011  -25.3717   21.5157 H   0  0  0  0  0  0
  -28.9642  -15.7034   20.8703 H   0  0  0  0  0  0
  1 25  1  0  0  0
  1 30  2  0  0  0
  1 85  1  0  0  0
  2  3  1  0  0  0
  2 25  1  0  0  0
  2 88  1  0  0  0
  2 89  1  0  0  0
  3  4  1  0  0  0
  3 90  1  0  0  0
  3 91  1  0  0  0
  4  5  1  0  0  0
  4 92  1  0  0  0
  4 93  1  0  0  0
  5  6  1  0  0  0
  5 26  1  0  0  0
  5 94  1  0  0  0
  6 25  1  0  0  0
  6 95  1  0  0  0
  6 96  1  0  0  0
  7  8  2  0  0  0
  7 26  1  0  0  0
  7 29  1  0  0  0
  8  9  1  0  0  0
  8 22  1  0  0  0
  9 10  1  0  0  0
  9 27  2  0  0  0
 10 11  2  0  0  0
 10 15  1  0  0  0
 11 12  1  0  0  0
 11 97  1  0  0  0
 12 13  2  0  0  0
 12 98  1  0  0  0
 13 14  1  0  0  0
 13 31  1  0  0  0
 14 15  2  0  0  0
 14 99  1  0  0  0
 15100  1  0  0  0
 16 17  2  0  0  0
 16 21  1  0  0  0
 16 31  1  0  0  0
 17 18  1  0  0  0
 17101  1  0  0  0
 18 19  2  0  0  0
 18102  1  0  0  0
 19 20  1  0  0  0
 19 24  1  0  0  0
 20 21  2  0  0  0
 20103  1  0  0  0
 21 23  1  0  0  0
 22 28  1  0  0  0
 22 32  2  0  0  0
 26 27  1  0  0  0
 28104  1  0  0  0
 28105  1  0  0  0
 29106  1  0  0  0
 29107  1  0  0  0
 33 34  1  0  0  0
 33 66  1  0  0  0
 33 70  2  0  0  0
 34 36  1  0  0  0
 34 59  1  0  0  0
 34108  1  0  0  0
 35 44  2  0  0  0
 35 45  1  0  0  0
 35 68  1  0  0  0
 36 56  1  0  0  0
 36109  1  0  0  0
 37 39  1  0  0  0
 37 47  1  0  0  0
 37 66  1  0  0  0
 37110  1  0  0  0
 38 43  2  0  0  0
 38 46  1  0  0  0
 38 47  1  0  0  0
 39 64  1  0  0  0
 39 67  2  0  0  0
 40 52  1  0  0  0
 40 53  2  0  0  0
 40 58  1  0  0  0
 41111  1  0  0  0
 41112  1  0  0  0
 41113  1  0  0  0
 41 48  1  0  0  0
 42 43  1  0  0  0
 42 66  1  0  0  0
 42114  1  0  0  0
 42115  1  0  0  0
 43 44  1  0  0  0
 44116  1  0  0  0
 45 46  2  0  0  0
 45117  1  0  0  0
 46118  1  0  0  0
 47119  1  0  0  0
 47120  1  0  0  0
 48 56  1  0  0  0
 48 65  1  0  0  0
 48121  1  0  0  0
 49 50  1  0  0  0
 49 53  1  0  0  0
 49 64  1  0  0  0
 49122  1  0  0  0
 50 51  1  0  0  0
 50123  1  0  0  0
 50124  1  0  0  0
 51 52  1  0  0  0
 51125  1  0  0  0
 51126  1  0  0  0
 52127  1  0  0  0
 52128  1  0  0  0
 53 54  1  0  0  0
 54 55  2  0  0  0
 54129  1  0  0  0
 55 57  1  0  0  0
 55130  1  0  0  0
 56 69  2  0  0  0
 57 58  2  0  0  0
 57131  1  0  0  0
 58132  1  0  0  0
 59 60  1  0  0  0
 59 61  1  0  0  0
 59 62  1  0  0  0
 60133  1  0  0  0
 60134  1  0  0  0
 60135  1  0  0  0
 61136  1  0  0  0
 61137  1  0  0  0
 61138  1  0  0  0
 62139  1  0  0  0
 62140  1  0  0  0
 62141  1  0  0  0
 63 65  1  0  0  0
 63142  1  0  0  0
 63143  1  0  0  0
 63144  1  0  0  0
 64145  1  0  0  0
 65146  1  0  0  0
 68 83  1  0  0  0
 71 73  2  0  0  0
 71 76  1  0  0  0
 71147  1  0  0  0
 72 74  1  0  0  0
 72 75  2  0  0  0
 72148  1  0  0  0
 73 75  1  0  0  0
 73 82  1  0  0  0
 74 76  2  0  0  0
 74 84  1  0  0  0
 75 85  1  0  0  0
 76 87  1  0  0  0
 77 78  1  0  0  0
 77 84  1  0  0  0
 77 86  2  0  0  0
 78 81  1  0  0  0
 78149  1  0  0  0
 78150  1  0  0  0
 79 80  1  0  0  0
 79 81  1  0  0  0
 79151  1  0  0  0
 79152  1  0  0  0
 80 84  1  0  0  0
 80153  1  0  0  0
 80154  1  0  0  0
 81 83  1  0  0  0
 81155  1  0  0  0
 82156  1  0  0  0
 82157  1  0  0  0
 82158  1  0  0  0
 83159  1  0  0  0
 83160  1  0  0  0
 85161  1  0  0  0
M  ISO  4   1 100  68 101  83 101  85 100
M  END
> <chiral flag>
0

> <version>
0

> <s_m_source_file>
/data/baiqing/PycharmProjects/Reinvent-master-3.2/result/LINK_invent/BTK/process_docking_weight1_custom_product_contain_oxygen_bond_distance_aromatic_linkinvent_7_9_3/rearranged_h_0052.sdf

> <i_m_source_file_index>
25

> <r_mmod_Potential_Energy-OPLS-2005>
213.471908569336

> <r_mmod_Stretch_Energy-OPLS-2005>
90.698600769043

> <r_mmod_Bend_Energy-OPLS-2005>
163.846496582031

> <r_mmod_Torsional_Energy-OPLS-2005>
351.289276123047

> <r_mmod_Improper_Torsional_Energy-OPLS-2005>
6.53290843963623

> <r_mmod_Van_der_Waal_Energy-OPLS-2005>
151.000427246094

> <r_mmod_Electrostatic_Energy-OPLS-2005>
-398.009063720703

> <r_mmod_Solvation_Energy-OPLS-2005>
-216.028549194336

> <b_mmod_Minimization_Converged-OPLS-2005>
0

> <r_mmod_RMS_Derivative-OPLS-2005>
3.31891417503357

$$$$
25
                    3D
 Structure written by MMmdl.
171180  0  0  1  0            999 V2000
  -30.7128  -14.5138   21.0178 C   0  0  0  0  0  0
  -31.3192  -13.6824   19.0389 C   0  0  0  0  0  0
  -28.6816  -13.9390   17.2145 C   0  0  0  0  0  0
  -27.3144  -13.2951   18.2564 C   0  0  0  0  0  0
  -27.5078  -13.1028   20.0338 C   0  0  2  0  0  0
  -29.0085  -12.7159   21.0383 C   0  0  0  0  0  0
  -25.1862  -13.7612   20.6483 C   0  0  0  0  0  0
  -24.1145  -12.9976   20.9591 C   0  0  0  0  0  0
  -24.5752  -11.6463   20.9185 C   0  0  0  0  0  0
  -23.8572  -10.3966   21.0630 C   0  0  0  0  0  0
  -24.3293   -9.3931   21.9339 C   0  0  0  0  0  0
  -23.6075   -8.1947   22.0790 C   0  0  0  0  0  0
  -22.4078   -8.0035   21.3520 C   0  0  0  0  0  0
  -21.9644   -8.9989   20.4630 C   0  0  0  0  0  0
  -22.6879  -10.1897   20.3137 C   0  0  0  0  0  0
  -21.6733   -6.0614   22.5277 C   0  0  0  0  0  0
  -21.3908   -6.5563   23.8203 C   0  0  0  0  0  0
  -21.3629   -5.6758   24.9176 C   0  0  0  0  0  0
  -21.6056   -4.3034   24.7260 C   0  0  0  0  0  0
  -21.8834   -3.8078   23.4401 C   0  0  0  0  0  0
  -21.9166   -4.6857   22.3421 C   0  0  0  0  0  0
  -22.7256  -13.4973   21.1908 C   0  0  0  0  0  0
  -22.1659   -4.2064   21.1014 F   0  0  0  0  0  0
  -21.5669   -3.4522   25.7792 F   0  0  0  0  0  0
  -30.6277  -13.2700   20.6354 N   0  0  0  0  0  0
  -26.2248  -12.8436   20.5180 N   0  0  0  0  0  0
  -25.8675  -11.5697   20.6640 N   0  0  0  0  0  0
  -21.9813  -12.8129   22.0473 N   0  0  0  0  0  0
  -25.3433  -15.1392   20.4511 N   0  0  0  0  0  0
  -31.7670  -15.1481   21.0286 O   0  0  0  0  0  0
  -21.6467   -6.8673   21.4210 O   0  0  0  0  0  0
  -22.3173  -14.5330   20.6627 O   0  0  0  0  0  0
  -24.6697  -31.8178   23.1678 C   0  0  0  0  0  0
  -25.9351  -32.4562   23.8154 C   0  0  1  0  0  0
  -27.2247  -26.9275   20.0431 C   0  0  0  0  0  0
  -25.5993  -33.8383   24.2052 N   0  0  0  0  0  0
  -23.4819  -30.4322   21.5232 C   0  0  2  0  0  0
  -24.9247  -28.8182   20.1021 C   0  0  0  0  0  0
  -22.7689  -29.4413   22.4800 C   0  0  0  0  0  0
  -18.0319  -28.1417   22.8464 C   0  0  0  0  0  0
  -24.1486  -36.7187   23.2648 C   0  0  0  0  0  0
  -26.0575  -30.6082   21.4015 C   0  0  0  0  0  0
  -26.1198  -29.2031   20.7219 C   0  0  0  0  0  0
  -27.2631  -28.2755   20.6750 C   0  0  0  0  0  0
  -25.9826  -26.6932   19.4180 C   0  0  0  0  0  0
  -24.8784  -27.5806   19.4446 C   0  0  0  0  0  0
  -23.7153  -29.7521   20.1488 C   0  0  0  0  0  0
  -25.4133  -36.2956   24.0299 C   0  0  1  0  0  0
  -20.5945  -28.3750   23.1188 C   0  0  2  0  0  0
  -20.6796  -26.9430   22.5402 C   0  0  0  0  0  0
  -19.5768  -26.6379   21.5216 C   0  0  0  0  0  0
  -18.1952  -26.7949   22.1628 C   0  0  0  0  0  0
  -19.1583  -28.8905   23.2811 C   0  0  0  0  0  0
  -18.9496  -30.1497   23.8841 C   0  0  0  0  0  0
  -17.6490  -30.6603   24.0551 C   0  0  0  0  0  0
  -25.9110  -34.9339   23.5003 C   0  0  0  0  0  0
  -16.5377  -29.9089   23.6349 C   0  0  0  0  0  0
  -16.7302  -28.6513   23.0361 C   0  0  0  0  0  0
  -26.4573  -31.6536   25.0712 C   0  0  0  0  0  0
  -25.3681  -31.3791   26.1354 C   0  0  0  0  0  0
  -27.0488  -30.2904   24.6488 C   0  0  0  0  0  0
  -27.6050  -32.4365   25.7520 C   0  0  0  0  0  0
  -27.5572  -37.1748   24.8464 C   0  0  0  0  0  0
  -21.4355  -29.3035   22.3546 N   0  0  0  0  0  0
  -26.4267  -37.3706   23.9428 N   0  0  0  0  0  0
  -24.7594  -30.9793   22.0841 N   0  0  0  0  0  0
  -23.4228  -28.7966   23.3036 O   0  0  0  0  0  0
  -28.2340  -25.8202   19.9957 O   0  0  0  0  0  0
  -26.5727  -34.8880   22.4607 O   0  0  0  0  0  0
  -23.5762  -32.1174   23.6746 O   0  0  0  0  0  0
  -31.0236  -13.7775   16.6260 C   0  0  0  0  0  0
  -30.4565  -12.3895   17.2561 C   0  0  0  0  0  0
  -30.7435  -15.2893   17.1506 C   0  0  0  0  0  0
  -29.5357  -12.5030   18.6206 C   0  0  0  0  0  0
  -29.8709  -15.7909   18.3884 C   0  0  0  0  0  0
  -29.3046  -14.5540   19.2468 C   0  0  0  0  0  0
  -28.9934  -20.2225   17.8480 C   0  0  0  0  0  0
  -28.0387  -17.9635   15.3522 C   0  0  0  0  0  0
  -28.1926  -19.9656   16.7850 C   0  0  0  0  0  0
  -27.6043  -18.7036   16.3818 C   0  0  0  0  0  0
  -29.3821  -21.8009   18.1826 C   0  0  0  0  0  0
  -28.4003  -21.3067   20.2434 C   0  0  0  0  0  0
  -29.1952  -19.8161   20.1672 C   0  0  0  0  0  0
  -28.9410  -22.6747   19.5307 C   0  0  1  0  0  0
  -30.2222  -23.1060   20.2698 C   0  0  0  0  0  0
  -29.1742  -17.4061   18.7284 C   0  0  0  0  0  0
  -28.0190  -24.2490   19.4947 C   0  0  0  0  0  0
  -29.5928  -15.0678   20.5713 N   0  0  0  0  0  0
  -29.5068  -19.0619   18.8317 N   0  3  1  0  0  0
  -32.0752  -14.4712   18.9408 H   0  0  0  0  0  0
  -32.0132  -12.8388   18.9031 H   0  0  0  0  0  0
  -28.6079  -13.4205   16.2448 H   0  0  0  0  0  0
  -28.3117  -14.9215   16.8862 H   0  0  0  0  0  0
  -27.0265  -12.3222   17.8548 H   0  0  0  0  0  0
  -26.4461  -13.9222   18.0665 H   0  0  0  0  0  0
  -27.4464  -14.1095   20.4085 H   0  0  0  0  0  0
  -29.0730  -11.6345   21.1628 H   0  0  0  0  0  0
  -28.7940  -13.0411   22.0595 H   0  0  0  0  0  0
  -25.2405   -9.5448   22.4958 H   0  0  0  0  0  0
  -23.9797   -7.4312   22.7470 H   0  0  0  0  0  0
  -21.0602   -8.8460   19.8910 H   0  0  0  0  0  0
  -22.3351  -10.9487   19.6283 H   0  0  0  0  0  0
  -21.1835   -7.6068   23.9660 H   0  0  0  0  0  0
  -21.1452   -6.0507   25.9089 H   0  0  0  0  0  0
  -22.0657   -2.7547   23.2920 H   0  0  0  0  0  0
  -22.3343  -11.9762   22.4867 H   0  0  0  0  0  0
  -21.0445  -13.1235   22.2628 H   0  0  0  0  0  0
  -24.5601  -15.7808   20.5009 H   0  0  0  0  0  0
  -26.2157  -15.5868   20.2039 H   0  0  0  0  0  0
  -26.7417  -32.5057   23.0859 H   0  0  0  0  0  0
  -25.0072  -33.9455   25.0155 H   0  0  0  0  0  0
  -22.7969  -31.2667   21.3569 H   0  0  0  0  0  0
  -23.3776  -35.9489   23.3267 H   0  0  0  0  0  0
  -24.3554  -36.8883   22.2071 H   0  0  0  0  0  0
  -23.7205  -37.6347   23.6733 H   0  0  0  0  0  0
  -26.2506  -31.3571   20.6324 H   0  0  0  0  0  0
  -26.9136  -30.6525   22.0628 H   0  0  0  0  0  0
  -28.1752  -28.5688   21.1750 H   0  0  0  0  0  0
  -25.8341  -25.7561   18.9019 H   0  0  0  0  0  0
  -23.9675  -27.2830   18.9428 H   0  0  0  0  0  0
  -23.8712  -30.5253   19.3956 H   0  0  0  0  0  0
  -22.8203  -29.2149   19.8293 H   0  0  0  0  0  0
  -25.1325  -36.1748   25.0787 H   0  0  0  0  0  0
  -21.0023  -28.3357   24.1316 H   0  0  0  0  0  0
  -20.5685  -26.2366   23.3643 H   0  0  0  0  0  0
  -21.6658  -26.7413   22.1199 H   0  0  0  0  0  0
  -19.6928  -25.6275   21.1280 H   0  0  0  0  0  0
  -19.6713  -27.3158   20.6720 H   0  0  0  0  0  0
  -17.4219  -26.6677   21.4035 H   0  0  0  0  0  0
  -18.0353  -26.0107   22.9041 H   0  0  0  0  0  0
  -19.7967  -30.7330   24.2187 H   0  0  0  0  0  0
  -17.5037  -31.6278   24.5166 H   0  0  0  0  0  0
  -15.5373  -30.2975   23.7708 H   0  0  0  0  0  0
  -15.8700  -28.0817   22.7110 H   0  0  0  0  0  0
  -24.5865  -30.7151   25.7642 H   0  0  0  0  0  0
  -24.8866  -32.2992   26.4677 H   0  0  0  0  0  0
  -25.7890  -30.9007   27.0207 H   0  0  0  0  0  0
  -26.3173  -29.6562   24.1471 H   0  0  0  0  0  0
  -27.3978  -29.7293   25.5167 H   0  0  0  0  0  0
  -27.9125  -30.4089   23.9944 H   0  0  0  0  0  0
  -27.2601  -33.3698   26.1986 H   0  0  0  0  0  0
  -28.3914  -32.6890   25.0393 H   0  0  0  0  0  0
  -28.0667  -31.8579   26.5533 H   0  0  0  0  0  0
  -28.2543  -38.0089   24.7563 H   0  0  0  0  0  0
  -28.1115  -36.2622   24.6224 H   0  0  0  0  0  0
  -27.2296  -37.1299   25.8864 H   0  0  0  0  0  0
  -20.9625  -29.8733   21.6669 H   0  0  0  0  0  0
  -26.0111  -38.2756   24.1471 H   0  0  0  0  0  0
  -31.6297  -13.6824   15.7365 H   0  0  0  0  0  0
  -30.7051  -11.4351   16.8165 H   0  0  0  0  0  0
  -31.1372  -16.0687   16.5135 H   0  0  0  0  0  0
  -29.2736  -11.5548   19.0734 H   0  0  0  0  0  0
  -27.5361  -17.0394   15.0953 H   0  0  0  0  0  0
  -28.8844  -18.2521   14.7436 H   0  0  0  0  0  0
  -27.8800  -20.8175   16.1997 H   0  0  0  0  0  0
  -26.7443  -18.3479   16.9349 H   0  0  0  0  0  0
  -29.0686  -22.3970   17.3245 H   0  0  0  0  0  0
  -30.4712  -21.8289   18.1107 H   0  0  0  0  0  0
  -28.2578  -21.5337   21.3015 H   0  0  0  0  0  0
  -27.3804  -21.1473   19.8885 H   0  0  0  0  0  0
  -28.6256  -19.1454   20.8100 H   0  0  0  0  0  0
  -30.1554  -19.9228   20.6717 H   0  0  0  0  0  0
  -30.9446  -22.2993   20.3859 H   0  0  0  0  0  0
  -29.9838  -23.4832   21.2655 H   0  0  0  0  0  0
  -30.7179  -23.9174   19.7354 H   0  0  0  0  0  0
  -28.9494  -17.2720   19.7784 H   0  0  0  0  0  0
  -28.1674  -17.3246   18.3408 H   0  0  0  0  0  0
  -27.0449  -23.9838   19.9068 H   0  0  0  0  0  0
  -27.8138  -24.3844   18.4332 H   0  0  0  0  0  0
  -29.5460  -16.0601   20.7173 H   0  0  0  0  0  0
  -30.5129  -19.0670   18.7876 H   0  0  0  0  0  0
  1 25  1  0  0  0
  1 30  2  0  0  0
  1 88  1  0  0  0
  2  3  1  0  0  0
  2 25  1  0  0  0
  2 90  1  0  0  0
  2 91  1  0  0  0
  3  4  1  0  0  0
  3 92  1  0  0  0
  3 93  1  0  0  0
  4  5  1  0  0  0
  4 94  1  0  0  0
  4 95  1  0  0  0
  5  6  1  0  0  0
  5 26  1  0  0  0
  5 96  1  0  0  0
  6 25  1  0  0  0
  6 97  1  0  0  0
  6 98  1  0  0  0
  7  8  2  0  0  0
  7 26  1  0  0  0
  7 29  1  0  0  0
  8  9  1  0  0  0
  8 22  1  0  0  0
  9 10  1  0  0  0
  9 27  2  0  0  0
 10 11  2  0  0  0
 10 15  1  0  0  0
 11 12  1  0  0  0
 11 99  1  0  0  0
 12 13  2  0  0  0
 12100  1  0  0  0
 13 14  1  0  0  0
 13 31  1  0  0  0
 14 15  2  0  0  0
 14101  1  0  0  0
 15102  1  0  0  0
 16 17  2  0  0  0
 16 21  1  0  0  0
 16 31  1  0  0  0
 17 18  1  0  0  0
 17103  1  0  0  0
 18 19  2  0  0  0
 18104  1  0  0  0
 19 20  1  0  0  0
 19 24  1  0  0  0
 20 21  2  0  0  0
 20105  1  0  0  0
 21 23  1  0  0  0
 22 28  1  0  0  0
 22 32  2  0  0  0
 26 27  1  0  0  0
 28106  1  0  0  0
 28107  1  0  0  0
 29108  1  0  0  0
 29109  1  0  0  0
 33 34  1  0  0  0
 33 66  1  0  0  0
 33 70  2  0  0  0
 34 36  1  0  0  0
 34 59  1  0  0  0
 34110  1  0  0  0
 35 44  2  0  0  0
 35 45  1  0  0  0
 35 68  1  0  0  0
 36 56  1  0  0  0
 36111  1  0  0  0
 37 39  1  0  0  0
 37 47  1  0  0  0
 37 66  1  0  0  0
 37112  1  0  0  0
 38 43  2  0  0  0
 38 46  1  0  0  0
 38 47  1  0  0  0
 39 64  1  0  0  0
 39 67  2  0  0  0
 40 52  1  0  0  0
 40 53  2  0  0  0
 40 58  1  0  0  0
 41113  1  0  0  0
 41114  1  0  0  0
 41115  1  0  0  0
 41 48  1  0  0  0
 42 43  1  0  0  0
 42 66  1  0  0  0
 42116  1  0  0  0
 42117  1  0  0  0
 43 44  1  0  0  0
 44118  1  0  0  0
 45 46  2  0  0  0
 45119  1  0  0  0
 46120  1  0  0  0
 47121  1  0  0  0
 47122  1  0  0  0
 48 56  1  0  0  0
 48 65  1  0  0  0
 48123  1  0  0  0
 49 50  1  0  0  0
 49 53  1  0  0  0
 49 64  1  0  0  0
 49124  1  0  0  0
 50 51  1  0  0  0
 50125  1  0  0  0
 50126  1  0  0  0
 51 52  1  0  0  0
 51127  1  0  0  0
 51128  1  0  0  0
 52129  1  0  0  0
 52130  1  0  0  0
 53 54  1  0  0  0
 54 55  2  0  0  0
 54131  1  0  0  0
 55 57  1  0  0  0
 55132  1  0  0  0
 56 69  2  0  0  0
 57 58  2  0  0  0
 57133  1  0  0  0
 58134  1  0  0  0
 59 60  1  0  0  0
 59 61  1  0  0  0
 59 62  1  0  0  0
 60135  1  0  0  0
 60136  1  0  0  0
 60137  1  0  0  0
 61138  1  0  0  0
 61139  1  0  0  0
 61140  1  0  0  0
 62141  1  0  0  0
 62142  1  0  0  0
 62143  1  0  0  0
 63 65  1  0  0  0
 63144  1  0  0  0
 63145  1  0  0  0
 63146  1  0  0  0
 64147  1  0  0  0
 65148  1  0  0  0
 68 87  1  0  0  0
 71 72  2  0  0  0
 71 73  1  0  0  0
 71149  1  0  0  0
 72 74  1  0  0  0
 72150  1  0  0  0
 73 75  2  0  0  0
 73151  1  0  0  0
 74 76  2  0  0  0
 74152  1  0  0  0
 75 76  1  0  0  0
 75 86  1  0  0  0
 76 88  1  0  0  0
 77 79  2  0  0  0
 77 81  1  0  0  0
 77 89  1  0  0  0
 78 80  2  0  0  0
 78153  1  0  0  0
 78154  1  0  0  0
 79 80  1  0  0  0
 79155  1  0  0  0
 80156  1  0  0  0
 81 84  1  0  0  0
 81157  1  0  0  0
 81158  1  0  0  0
 82 83  1  0  0  0
 82 84  1  0  0  0
 82159  1  0  0  0
 82160  1  0  0  0
 83 89  1  0  0  0
 83161  1  0  0  0
 83162  1  0  0  0
 84 85  1  0  0  0
 84 87  1  0  0  0
 85163  1  0  0  0
 85164  1  0  0  0
 85165  1  0  0  0
 86166  1  0  0  0
 86167  1  0  0  0
 86 89  1  0  0  0
 87168  1  0  0  0
 87169  1  0  0  0
 88170  1  0  0  0
 89171  1  0  0  0
M  CHG  1  89   1
M  ISO  4   1 100  68 101  87 101  88 100
M  END
> <chiral flag>
0

> <version>
0

> <s_m_source_file>
/data/baiqing/PycharmProjects/Reinvent-master-3.2/result/LINK_invent/BTK/process_docking_weight1_custom_product_contain_oxygen_bond_distance_aromatic_linkinvent_7_9_3/rearranged_h_0052.sdf

> <i_m_source_file_index>
26

> <r_mmod_Potential_Energy-OPLS-2005>
10656.2939453125

> <r_mmod_Stretch_Energy-OPLS-2005>
5996.0126953125

> <r_mmod_Bend_Energy-OPLS-2005>
875.9560546875

> <r_mmod_Torsional_Energy-OPLS-2005>
462.442077636719

> <r_mmod_Improper_Torsional_Energy-OPLS-2005>
57.6640167236328

> <r_mmod_Van_der_Waal_Energy-OPLS-2005>
2789.40014648438

> <r_mmod_Electrostatic_Energy-OPLS-2005>
-254.042556762695

> <r_mmod_Solvation_Energy-OPLS-2005>
-462.408721923828

> <b_mmod_Minimization_Converged-OPLS-2005>
0

> <r_mmod_RMS_Derivative-OPLS-2005>
8.18902969360352

$$$$
26
                    3D
 Structure written by MMmdl.
156164  0  0  1  0            999 V2000
  -30.6738  -14.5035   20.5622 C   0  0  0  0  0  0
  -30.4346  -12.3195   19.4329 C   0  0  0  0  0  0
  -29.5058  -12.5085   18.2128 C   0  0  0  0  0  0
  -28.0237  -12.3661   18.6180 C   0  0  0  0  0  0
  -27.6638  -13.2067   19.8726 C   0  0  2  0  0  0
  -28.7031  -12.9865   20.9966 C   0  0  0  0  0  0
  -25.2599  -13.8159   20.5650 C   0  0  0  0  0  0
  -24.1854  -13.0440   20.9160 C   0  0  0  0  0  0
  -24.6407  -11.6905   20.8721 C   0  0  0  0  0  0
  -23.9073  -10.4293   21.0397 C   0  0  0  0  0  0
  -24.3623   -9.4211   21.9178 C   0  0  0  0  0  0
  -23.6294   -8.2249   22.0754 C   0  0  0  0  0  0
  -22.4272   -8.0289   21.3552 C   0  0  0  0  0  0
  -21.9912   -9.0262   20.4651 C   0  0  0  0  0  0
  -22.7244  -10.2139   20.3049 C   0  0  0  0  0  0
  -21.6849   -6.0741   22.5286 C   0  0  0  0  0  0
  -21.4015   -6.5638   23.8219 C   0  0  0  0  0  0
  -21.3659   -5.6791   24.9182 C   0  0  0  0  0  0
  -21.6039   -4.3055   24.7232 C   0  0  0  0  0  0
  -21.8818   -3.8148   23.4349 C   0  0  0  0  0  0
  -21.9194   -4.6966   22.3411 C   0  0  0  0  0  0
  -22.7871  -13.5243   21.1821 C   0  0  0  0  0  0
  -22.1655   -4.2151   21.0986 F   0  0  0  0  0  0
  -21.5632   -3.4541   25.7743 F   0  0  0  0  0  0
  -30.0375  -13.3025   20.4553 N   0  0  0  0  0  0
  -26.3035  -12.9333   20.3322 N   0  0  0  0  0  0
  -25.9329  -11.6491   20.5737 N   0  0  0  0  0  0
  -22.0495  -12.8270   22.0384 N   0  0  0  0  0  0
  -25.4313  -15.1882   20.4041 N   0  0  0  0  0  0
  -31.7970  -14.7015   20.0893 O   0  0  0  0  0  0
  -21.6634   -6.8888   21.4248 O   0  0  0  0  0  0
  -22.3565  -14.5543   20.6646 O   0  0  0  0  0  0
  -24.6164  -31.8660   23.2063 C   0  0  0  0  0  0
  -25.9042  -32.4814   23.8393 C   0  0  1  0  0  0
  -27.2405  -27.4178   20.1053 C   0  0  0  0  0  0
  -25.5894  -33.8613   24.2314 N   0  0  0  0  0  0
  -23.4073  -30.4884   21.5448 C   0  0  2  0  0  0
  -24.8559  -28.9480   20.1167 C   0  0  0  0  0  0
  -22.7415  -29.4668   22.4955 C   0  0  0  0  0  0
  -18.0286  -28.1403   22.8498 C   0  0  0  0  0  0
  -24.1475  -36.7297   23.2642 C   0  0  0  0  0  0
  -25.9375  -30.8276   21.3608 C   0  0  0  0  0  0
  -26.0175  -29.4586   20.7121 C   0  0  0  0  0  0
  -27.2160  -28.7031   20.6986 C   0  0  0  0  0  0
  -26.0624  -26.9232   19.5066 C   0  0  0  0  0  0
  -24.8738  -27.6789   19.5110 C   0  0  0  0  0  0
  -23.6175  -29.8170   20.1611 C   0  0  0  0  0  0
  -25.4098  -36.3101   24.0337 C   0  0  1  0  0  0
  -20.5882  -28.3686   23.1296 C   0  0  2  0  0  0
  -20.6774  -26.9419   22.5409 C   0  0  0  0  0  0
  -19.5751  -26.6399   21.5217 C   0  0  0  0  0  0
  -18.1934  -26.7952   22.1627 C   0  0  0  0  0  0
  -19.1537  -28.8860   23.2906 C   0  0  0  0  0  0
  -18.9467  -30.1470   23.8910 C   0  0  0  0  0  0
  -17.6469  -30.6603   24.0583 C   0  0  0  0  0  0
  -25.9023  -34.9468   23.5116 C   0  0  0  0  0  0
  -16.5359  -29.9109   23.6343 C   0  0  0  0  0  0
  -16.7277  -28.6531   23.0350 C   0  0  0  0  0  0
  -26.4485  -31.6597   25.0719 C   0  0  0  0  0  0
  -25.3758  -31.3708   26.1470 C   0  0  0  0  0  0
  -27.0311  -30.3038   24.6094 C   0  0  0  0  0  0
  -27.6051  -32.4320   25.7481 C   0  0  0  0  0  0
  -27.5568  -37.1799   24.8478 C   0  0  0  0  0  0
  -21.4141  -29.3052   22.3685 N   0  0  0  0  0  0
  -26.4285  -37.3783   23.9407 N   0  0  0  0  0  0
  -24.6719  -31.0766   22.0955 N   0  0  0  0  0  0
  -23.4168  -28.8215   23.3015 O   0  0  0  0  0  0
  -28.3875  -26.6467   20.0899 O   0  0  0  0  0  0
  -26.5599  -34.8925   22.4683 O   0  0  0  0  0  0
  -23.5340  -32.1398   23.7440 O   0  0  0  0  0  0
  -28.3156  -18.7855   20.4689 C   0  0  0  0  0  0
  -28.5639  -17.4792   20.9451 C   0  0  0  0  0  0
  -30.8469  -17.6268   20.1540 C   0  0  0  0  0  0
  -29.3113  -19.5324   19.7938 C   0  0  0  0  0  0
  -30.6082  -18.9483   19.6875 C   0  0  0  0  0  0
  -29.8149  -16.8562   20.7454 C   0  0  0  0  0  0
  -28.9164  -20.8094   19.1099 C   0  0  0  0  0  0
  -28.8599  -23.2603   19.5592 C   0  0  0  0  0  0
  -31.7553  -19.6964   19.0225 C   0  0  0  0  0  0
  -29.3368  -24.3221   20.5746 C   0  0  0  0  0  0
  -28.3186  -25.4568   20.9076 C   0  0  0  0  0  0
  -29.9441  -15.4818   21.1436 N   0  0  0  0  0  0
  -29.1492  -21.9541   19.8319 N   0  0  0  0  0  0
  -28.2535  -23.6662   18.5618 O   0  0  0  0  0  0
  -28.2525  -20.6486   17.5714 S   0  0  0  0  0  0
  -31.4803  -12.4261   19.1362 H   0  0  0  0  0  0
  -30.3452  -11.3075   19.8314 H   0  0  0  0  0  0
  -29.7514  -11.7861   17.4332 H   0  0  0  0  0  0
  -29.6736  -13.4940   17.7749 H   0  0  0  0  0  0
  -27.8305  -11.3094   18.8099 H   0  0  0  0  0  0
  -27.3769  -12.6410   17.7843 H   0  0  0  0  0  0
  -27.7057  -14.2540   19.5719 H   0  0  0  0  0  0
  -28.6816  -11.9462   21.3223 H   0  0  0  0  0  0
  -28.4560  -13.5683   21.8862 H   0  0  0  0  0  0
  -25.2766   -9.5684   22.4760 H   0  0  0  0  0  0
  -23.9995   -7.4639   22.7479 H   0  0  0  0  0  0
  -21.0835   -8.8781   19.8969 H   0  0  0  0  0  0
  -22.3691  -10.9675   19.6162 H   0  0  0  0  0  0
  -21.2000   -7.6145   23.9728 H   0  0  0  0  0  0
  -21.1477   -6.0518   25.9088 H   0  0  0  0  0  0
  -22.0596   -2.7608   23.2850 H   0  0  0  0  0  0
  -22.4082  -11.9941   22.4817 H   0  0  0  0  0  0
  -21.1112  -13.1322   22.2559 H   0  0  0  0  0  0
  -24.6579  -15.8382   20.4980 H   0  0  0  0  0  0
  -26.2748  -15.6221   20.0516 H   0  0  0  0  0  0
  -26.7126  -32.5520   23.1176 H   0  0  0  0  0  0
  -25.0090  -33.9802   25.0493 H   0  0  0  0  0  0
  -22.6986  -31.3061   21.4014 H   0  0  0  0  0  0
  -23.3723  -35.9646   23.3339 H   0  0  0  0  0  0
  -24.3596  -36.8873   22.2056 H   0  0  0  0  0  0
  -23.7234  -37.6508   23.6638 H   0  0  0  0  0  0
  -26.0500  -31.5899   20.5890 H   0  0  0  0  0  0
  -26.8258  -30.8850   21.9783 H   0  0  0  0  0  0
  -28.1154  -29.0939   21.1553 H   0  0  0  0  0  0
  -26.0644  -25.9498   19.0358 H   0  0  0  0  0  0
  -23.9840  -27.2752   19.0480 H   0  0  0  0  0  0
  -23.7246  -30.5908   19.3994 H   0  0  0  0  0  0
  -22.7420  -29.2356   19.8645 H   0  0  0  0  0  0
  -25.1277  -36.1968   25.0831 H   0  0  0  0  0  0
  -21.0011  -28.3256   24.1398 H   0  0  0  0  0  0
  -20.5681  -26.2302   23.3601 H   0  0  0  0  0  0
  -21.6644  -26.7464   22.1198 H   0  0  0  0  0  0
  -19.6914  -25.6310   21.1242 H   0  0  0  0  0  0
  -19.6683  -27.3217   20.6752 H   0  0  0  0  0  0
  -17.4201  -26.6718   21.4026 H   0  0  0  0  0  0
  -18.0323  -26.0108   22.9029 H   0  0  0  0  0  0
  -19.7946  -30.7299   24.2255 H   0  0  0  0  0  0
  -17.5028  -31.6278   24.5192 H   0  0  0  0  0  0
  -15.5360  -30.3018   23.7659 H   0  0  0  0  0  0
  -15.8683  -28.0859   22.7039 H   0  0  0  0  0  0
  -24.5944  -30.7047   25.7813 H   0  0  0  0  0  0
  -24.8944  -32.2862   26.4899 H   0  0  0  0  0  0
  -25.8124  -30.8892   27.0230 H   0  0  0  0  0  0
  -26.2847  -29.6798   24.1160 H   0  0  0  0  0  0
  -27.4115  -29.7283   25.4547 H   0  0  0  0  0  0
  -27.8676  -30.4367   23.9228 H   0  0  0  0  0  0
  -27.2671  -33.3618   26.2068 H   0  0  0  0  0  0
  -28.3849  -32.6882   25.0297 H   0  0  0  0  0  0
  -28.0738  -31.8439   26.5383 H   0  0  0  0  0  0
  -28.2600  -38.0079   24.7489 H   0  0  0  0  0  0
  -28.1051  -36.2607   24.6345 H   0  0  0  0  0  0
  -27.2305  -37.1496   25.8891 H   0  0  0  0  0  0
  -20.9301  -29.8755   21.6890 H   0  0  0  0  0  0
  -26.0168  -38.2855   24.1415 H   0  0  0  0  0  0
  -27.3197  -19.1931   20.5792 H   0  0  0  0  0  0
  -27.7590  -16.9389   21.4220 H   0  0  0  0  0  0
  -31.8293  -17.1962   20.0239 H   0  0  0  0  0  0
  -31.5524  -19.8491   17.9615 H   0  0  0  0  0  0
  -32.6946  -19.1483   19.1051 H   0  0  0  0  0  0
  -31.9067  -20.6697   19.4891 H   0  0  0  0  0  0
  -30.2803  -24.7444   20.2302 H   0  0  0  0  0  0
  -29.5692  -23.8008   21.5042 H   0  0  0  0  0  0
  -28.5122  -25.7786   21.9321 H   0  0  0  0  0  0
  -27.3123  -25.0360   20.9273 H   0  0  0  0  0  0
  -29.1334  -15.1093   21.6140 H   0  0  0  0  0  0
  -29.6068  -21.7953   20.7157 H   0  0  0  0  0  0
  1 25  1  0  0  0
  1 30  2  0  0  0
  1 82  1  0  0  0
  2  3  1  0  0  0
  2 25  1  0  0  0
  2 86  1  0  0  0
  2 87  1  0  0  0
  3  4  1  0  0  0
  3 88  1  0  0  0
  3 89  1  0  0  0
  4  5  1  0  0  0
  4 90  1  0  0  0
  4 91  1  0  0  0
  5  6  1  0  0  0
  5 26  1  0  0  0
  5 92  1  0  0  0
  6 25  1  0  0  0
  6 93  1  0  0  0
  6 94  1  0  0  0
  7  8  2  0  0  0
  7 26  1  0  0  0
  7 29  1  0  0  0
  8  9  1  0  0  0
  8 22  1  0  0  0
  9 10  1  0  0  0
  9 27  2  0  0  0
 10 11  2  0  0  0
 10 15  1  0  0  0
 11 12  1  0  0  0
 11 95  1  0  0  0
 12 13  2  0  0  0
 12 96  1  0  0  0
 13 14  1  0  0  0
 13 31  1  0  0  0
 14 15  2  0  0  0
 14 97  1  0  0  0
 15 98  1  0  0  0
 16 17  2  0  0  0
 16 21  1  0  0  0
 16 31  1  0  0  0
 17 18  1  0  0  0
 17 99  1  0  0  0
 18 19  2  0  0  0
 18100  1  0  0  0
 19 20  1  0  0  0
 19 24  1  0  0  0
 20 21  2  0  0  0
 20101  1  0  0  0
 21 23  1  0  0  0
 22 28  1  0  0  0
 22 32  2  0  0  0
 26 27  1  0  0  0
 28102  1  0  0  0
 28103  1  0  0  0
 29104  1  0  0  0
 29105  1  0  0  0
 33 34  1  0  0  0
 33 66  1  0  0  0
 33 70  2  0  0  0
 34 36  1  0  0  0
 34 59  1  0  0  0
 34106  1  0  0  0
 35 44  2  0  0  0
 35 45  1  0  0  0
 35 68  1  0  0  0
 36 56  1  0  0  0
 36107  1  0  0  0
 37 39  1  0  0  0
 37 47  1  0  0  0
 37 66  1  0  0  0
 37108  1  0  0  0
 38 43  2  0  0  0
 38 46  1  0  0  0
 38 47  1  0  0  0
 39 64  1  0  0  0
 39 67  2  0  0  0
 40 52  1  0  0  0
 40 53  2  0  0  0
 40 58  1  0  0  0
 41109  1  0  0  0
 41110  1  0  0  0
 41111  1  0  0  0
 41 48  1  0  0  0
 42 43  1  0  0  0
 42 66  1  0  0  0
 42112  1  0  0  0
 42113  1  0  0  0
 43 44  1  0  0  0
 44114  1  0  0  0
 45 46  2  0  0  0
 45115  1  0  0  0
 46116  1  0  0  0
 47117  1  0  0  0
 47118  1  0  0  0
 48 56  1  0  0  0
 48 65  1  0  0  0
 48119  1  0  0  0
 49 50  1  0  0  0
 49 53  1  0  0  0
 49 64  1  0  0  0
 49120  1  0  0  0
 50 51  1  0  0  0
 50121  1  0  0  0
 50122  1  0  0  0
 51 52  1  0  0  0
 51123  1  0  0  0
 51124  1  0  0  0
 52125  1  0  0  0
 52126  1  0  0  0
 53 54  1  0  0  0
 54 55  2  0  0  0
 54127  1  0  0  0
 55 57  1  0  0  0
 55128  1  0  0  0
 56 69  2  0  0  0
 57 58  2  0  0  0
 57129  1  0  0  0
 58130  1  0  0  0
 59 60  1  0  0  0
 59 61  1  0  0  0
 59 62  1  0  0  0
 60131  1  0  0  0
 60132  1  0  0  0
 60133  1  0  0  0
 61134  1  0  0  0
 61135  1  0  0  0
 61136  1  0  0  0
 62137  1  0  0  0
 62138  1  0  0  0
 62139  1  0  0  0
 63 65  1  0  0  0
 63140  1  0  0  0
 63141  1  0  0  0
 63142  1  0  0  0
 64143  1  0  0  0
 65144  1  0  0  0
 68 81  1  0  0  0
 71 72  2  0  0  0
 71 74  1  0  0  0
 71145  1  0  0  0
 72 76  1  0  0  0
 72146  1  0  0  0
 73 75  1  0  0  0
 73 76  2  0  0  0
 73147  1  0  0  0
 74 75  2  0  0  0
 74 77  1  0  0  0
 75 79  1  0  0  0
 76 82  1  0  0  0
 77 83  1  0  0  0
 77 85  2  0  0  0
 78 80  1  0  0  0
 78 83  1  0  0  0
 78 84  2  0  0  0
 79148  1  0  0  0
 79149  1  0  0  0
 79150  1  0  0  0
 80 81  1  0  0  0
 80151  1  0  0  0
 80152  1  0  0  0
 81153  1  0  0  0
 81154  1  0  0  0
 82155  1  0  0  0
 83156  1  0  0  0
M  ISO  4   1 100  68 101  81 101  82 100
M  END
> <chiral flag>
0

> <version>
0

> <s_m_source_file>
/data/baiqing/PycharmProjects/Reinvent-master-3.2/result/LINK_invent/BTK/process_docking_weight1_custom_product_contain_oxygen_bond_distance_aromatic_linkinvent_7_9_3/rearranged_h_0052.sdf

> <i_m_source_file_index>
27

> <r_mmod_Potential_Energy-OPLS-2005>
-48.8361320495605

> <r_mmod_Stretch_Energy-OPLS-2005>
47.4566421508789

> <r_mmod_Bend_Energy-OPLS-2005>
115.230583190918

> <r_mmod_Torsional_Energy-OPLS-2005>
270.530181884766

> <r_mmod_Improper_Torsional_Energy-OPLS-2005>
5.29475402832031

> <r_mmod_Van_der_Waal_Energy-OPLS-2005>
155.96923828125

> <r_mmod_Electrostatic_Energy-OPLS-2005>
-391.096954345703

> <r_mmod_Solvation_Energy-OPLS-2005>
-267.553955078125

> <b_mmod_Minimization_Converged-OPLS-2005>
0

> <r_mmod_RMS_Derivative-OPLS-2005>
2.09489011764526

$$$$
27
                    3D
 Structure written by MMmdl.
159167  0  0  1  0            999 V2000
  -30.6682  -14.5114   20.5589 C   0  0  0  0  0  0
  -30.4303  -12.3295   19.4222 C   0  0  0  0  0  0
  -29.4958  -12.5028   18.2058 C   0  0  0  0  0  0
  -28.0170  -12.3531   18.6193 C   0  0  0  0  0  0
  -27.6565  -13.2015   19.8679 C   0  0  2  0  0  0
  -28.7007  -12.9983   20.9891 C   0  0  0  0  0  0
  -25.2572  -13.8140   20.5671 C   0  0  0  0  0  0
  -24.1828  -13.0424   20.9189 C   0  0  0  0  0  0
  -24.6378  -11.6890   20.8745 C   0  0  0  0  0  0
  -23.9051  -10.4281   21.0399 C   0  0  0  0  0  0
  -24.3607   -9.4200   21.9175 C   0  0  0  0  0  0
  -23.6288   -8.2235   22.0748 C   0  0  0  0  0  0
  -22.4271   -8.0270   21.3537 C   0  0  0  0  0  0
  -21.9900   -9.0244   20.4644 C   0  0  0  0  0  0
  -22.7226  -10.2127   20.3051 C   0  0  0  0  0  0
  -21.6850   -6.0730   22.5278 C   0  0  0  0  0  0
  -21.4014   -6.5632   23.8211 C   0  0  0  0  0  0
  -21.3660   -5.6791   24.9174 C   0  0  0  0  0  0
  -21.6041   -4.3053   24.7227 C   0  0  0  0  0  0
  -21.8822   -3.8142   23.4350 C   0  0  0  0  0  0
  -21.9193   -4.6958   22.3404 C   0  0  0  0  0  0
  -22.7854  -13.5228   21.1854 C   0  0  0  0  0  0
  -22.1659   -4.2143   21.0982 F   0  0  0  0  0  0
  -21.5630   -3.4533   25.7738 F   0  0  0  0  0  0
  -30.0246  -13.3182   20.4318 N   0  0  0  0  0  0
  -26.2991  -12.9294   20.3329 N   0  0  0  0  0  0
  -25.9299  -11.6464   20.5765 N   0  0  0  0  0  0
  -22.0489  -12.8230   22.0408 N   0  0  0  0  0  0
  -25.4285  -15.1859   20.4064 N   0  0  0  0  0  0
  -31.8218  -14.6955   20.1586 O   0  0  0  0  0  0
  -21.6636   -6.8870   21.4238 O   0  0  0  0  0  0
  -22.3546  -14.5532   20.6695 O   0  0  0  0  0  0
  -24.6169  -31.8653   23.2088 C   0  0  0  0  0  0
  -25.9052  -32.4812   23.8384 C   0  0  1  0  0  0
  -27.2387  -27.4091   20.0874 C   0  0  0  0  0  0
  -25.5900  -33.8614   24.2314 N   0  0  0  0  0  0
  -23.4050  -30.4893   21.5494 C   0  0  2  0  0  0
  -24.8500  -28.9492   20.1161 C   0  0  0  0  0  0
  -22.7410  -29.4654   22.4978 C   0  0  0  0  0  0
  -18.0277  -28.1370   22.8505 C   0  0  0  0  0  0
  -24.1485  -36.7312   23.2643 C   0  0  0  0  0  0
  -25.9366  -30.8217   21.3654 C   0  0  0  0  0  0
  -26.0114  -29.4539   20.7113 C   0  0  0  0  0  0
  -27.2031  -28.6901   20.6951 C   0  0  0  0  0  0
  -26.0462  -26.9152   19.5073 C   0  0  0  0  0  0
  -24.8628  -27.6793   19.5155 C   0  0  0  0  0  0
  -23.6138  -29.8198   20.1647 C   0  0  0  0  0  0
  -25.4111  -36.3112   24.0337 C   0  0  1  0  0  0
  -20.5868  -28.3667   23.1310 C   0  0  2  0  0  0
  -20.6760  -26.9399   22.5416 C   0  0  0  0  0  0
  -19.5739  -26.6380   21.5211 C   0  0  0  0  0  0
  -18.1921  -26.7922   22.1626 C   0  0  0  0  0  0
  -19.1527  -28.8833   23.2910 C   0  0  0  0  0  0
  -18.9452  -30.1438   23.8921 C   0  0  0  0  0  0
  -17.6454  -30.6581   24.0563 C   0  0  0  0  0  0
  -25.9035  -34.9474   23.5124 C   0  0  0  0  0  0
  -16.5347  -29.9081   23.6325 C   0  0  0  0  0  0
  -16.7266  -28.6490   23.0362 C   0  0  0  0  0  0
  -26.4480  -31.6610   25.0726 C   0  0  0  0  0  0
  -25.3747  -31.3718   26.1479 C   0  0  0  0  0  0
  -27.0319  -30.3054   24.6120 C   0  0  0  0  0  0
  -27.6051  -32.4344   25.7480 C   0  0  0  0  0  0
  -27.5581  -37.1814   24.8465 C   0  0  0  0  0  0
  -21.4136  -29.3038   22.3718 N   0  0  0  0  0  0
  -26.4299  -37.3792   23.9403 N   0  0  0  0  0  0
  -24.6713  -31.0732   22.0997 N   0  0  0  0  0  0
  -23.4172  -28.8187   23.3024 O   0  0  0  0  0  0
  -28.4342  -26.7048   20.1021 O   0  0  0  0  0  0
  -26.5595  -34.8926   22.4687 O   0  0  0  0  0  0
  -23.5358  -32.1407   23.7478 O   0  0  0  0  0  0
  -30.9601  -19.6170   21.5916 C   0  0  0  0  0  0
  -31.1838  -17.2509   22.1348 C   0  0  0  0  0  0
  -30.0423  -19.3226   20.5598 C   0  0  0  0  0  0
  -29.6539  -17.9537   20.3503 C   0  0  0  0  0  0
  -30.2568  -16.9133   21.1258 C   0  0  0  0  0  0
  -31.5206  -18.5947   22.3750 C   0  0  0  0  0  0
  -29.6211  -20.4641   19.7060 C   0  0  0  0  0  0
  -28.6123  -17.5612   19.3039 C   0  0  0  0  0  0
  -28.6582  -24.1903   20.2514 C   0  0  0  0  0  0
  -28.9135  -22.8968   19.4214 C   0  0  0  0  0  0
  -28.6069  -25.4727   19.3680 C   0  0  0  0  0  0
  -29.6761  -20.3258   18.3831 N   0  0  0  0  0  0
  -29.8852  -15.5368   20.9635 N   0  0  0  0  0  0
  -29.2436  -21.6674   20.2065 N   0  3  0  0  0  0
  -32.3976  -18.9071   23.3593 F   0  0  0  0  0  0
  -31.4721  -12.4479   19.1188 H   0  0  0  0  0  0
  -30.3507  -11.3206   19.8295 H   0  0  0  0  0  0
  -29.7428  -11.7726   17.4346 H   0  0  0  0  0  0
  -29.6528  -13.4853   17.7576 H   0  0  0  0  0  0
  -27.8368  -11.2974   18.8254 H   0  0  0  0  0  0
  -27.3642  -12.6139   17.7858 H   0  0  0  0  0  0
  -27.6922  -14.2446   19.5551 H   0  0  0  0  0  0
  -28.6890  -11.9636   21.3357 H   0  0  0  0  0  0
  -28.4608  -13.6028   21.8656 H   0  0  0  0  0  0
  -25.2750   -9.5678   22.4753 H   0  0  0  0  0  0
  -23.9996   -7.4623   22.7464 H   0  0  0  0  0  0
  -21.0829   -8.8765   19.8950 H   0  0  0  0  0  0
  -22.3676  -10.9668   19.6165 H   0  0  0  0  0  0
  -21.2003   -7.6140   23.9716 H   0  0  0  0  0  0
  -21.1482   -6.0516   25.9080 H   0  0  0  0  0  0
  -22.0603   -2.7604   23.2852 H   0  0  0  0  0  0
  -22.4105  -11.9897   22.4810 H   0  0  0  0  0  0
  -21.1105  -13.1260   22.2606 H   0  0  0  0  0  0
  -24.6557  -15.8355   20.5060 H   0  0  0  0  0  0
  -26.2643  -15.6226   20.0431 H   0  0  0  0  0  0
  -26.7117  -32.5509   23.1137 H   0  0  0  0  0  0
  -25.0075  -33.9782   25.0476 H   0  0  0  0  0  0
  -22.6963  -31.3082   21.4099 H   0  0  0  0  0  0
  -23.3746  -35.9644   23.3317 H   0  0  0  0  0  0
  -24.3577  -36.8914   22.2053 H   0  0  0  0  0  0
  -23.7229  -37.6520   23.6648 H   0  0  0  0  0  0
  -26.0541  -31.5878   20.5975 H   0  0  0  0  0  0
  -26.8230  -30.8739   21.9861 H   0  0  0  0  0  0
  -28.1012  -29.0818   21.1523 H   0  0  0  0  0  0
  -25.9916  -25.9368   19.0563 H   0  0  0  0  0  0
  -23.9654  -27.2795   19.0633 H   0  0  0  0  0  0
  -23.7220  -30.5928   19.4031 H   0  0  0  0  0  0
  -22.7368  -29.2402   19.8709 H   0  0  0  0  0  0
  -25.1290  -36.1981   25.0829 H   0  0  0  0  0  0
  -20.9973  -28.3229   24.1423 H   0  0  0  0  0  0
  -20.5650  -26.2272   23.3603 H   0  0  0  0  0  0
  -21.6631  -26.7434   22.1210 H   0  0  0  0  0  0
  -19.6891  -25.6291   21.1236 H   0  0  0  0  0  0
  -19.6674  -27.3190   20.6740 H   0  0  0  0  0  0
  -17.4190  -26.6687   21.4026 H   0  0  0  0  0  0
  -18.0319  -26.0052   22.9007 H   0  0  0  0  0  0
  -19.7929  -30.7244   24.2298 H   0  0  0  0  0  0
  -17.5012  -31.6265   24.5156 H   0  0  0  0  0  0
  -15.5347  -30.2988   23.7631 H   0  0  0  0  0  0
  -15.8666  -28.0802   22.7079 H   0  0  0  0  0  0
  -24.5898  -30.7095   25.7811 H   0  0  0  0  0  0
  -24.8971  -32.2880   26.4966 H   0  0  0  0  0  0
  -25.8104  -30.8848   27.0215 H   0  0  0  0  0  0
  -26.2865  -29.6804   24.1190 H   0  0  0  0  0  0
  -27.4105  -29.7310   25.4585 H   0  0  0  0  0  0
  -27.8693  -30.4376   23.9263 H   0  0  0  0  0  0
  -27.2660  -33.3626   26.2094 H   0  0  0  0  0  0
  -28.3832  -32.6942   25.0288 H   0  0  0  0  0  0
  -28.0757  -31.8455   26.5364 H   0  0  0  0  0  0
  -28.2616  -38.0098   24.7508 H   0  0  0  0  0  0
  -28.1064  -36.2632   24.6301 H   0  0  0  0  0  0
  -27.2304  -37.1474   25.8872 H   0  0  0  0  0  0
  -20.9283  -29.8766   21.6952 H   0  0  0  0  0  0
  -26.0194  -38.2875   24.1398 H   0  0  0  0  0  0
  -31.2733  -20.6353   21.7720 H   0  0  0  0  0  0
  -31.6284  -16.4819   22.7482 H   0  0  0  0  0  0
  -27.9602  -18.3866   19.0218 H   0  0  0  0  0  0
  -27.9557  -16.7784   19.6816 H   0  0  0  0  0  0
  -29.1029  -17.1828   18.4066 H   0  0  0  0  0  0
  -29.4399  -24.3085   21.0015 H   0  0  0  0  0  0
  -27.7183  -24.0950   20.7943 H   0  0  0  0  0  0
  -29.7447  -23.0885   18.7408 H   0  0  0  0  0  0
  -28.0441  -22.6974   18.7917 H   0  0  0  0  0  0
  -27.9079  -25.3530   18.5426 H   0  0  0  0  0  0
  -29.5750  -25.5655   18.8742 H   0  0  0  0  0  0
  -30.0347  -19.4650   17.9971 H   0  0  0  0  0  0
  -29.4181  -21.0601   17.7462 H   0  0  0  0  0  0
  -28.9170  -15.3074   21.1219 H   0  0  0  0  0  0
  -29.1415  -21.7239   21.2127 H   0  0  0  0  0  0
  1 25  1  0  0  0
  1 30  2  0  0  0
  1 83  1  0  0  0
  2  3  1  0  0  0
  2 25  1  0  0  0
  2 86  1  0  0  0
  2 87  1  0  0  0
  3  4  1  0  0  0
  3 88  1  0  0  0
  3 89  1  0  0  0
  4  5  1  0  0  0
  4 90  1  0  0  0
  4 91  1  0  0  0
  5  6  1  0  0  0
  5 26  1  0  0  0
  5 92  1  0  0  0
  6 25  1  0  0  0
  6 93  1  0  0  0
  6 94  1  0  0  0
  7  8  2  0  0  0
  7 26  1  0  0  0
  7 29  1  0  0  0
  8  9  1  0  0  0
  8 22  1  0  0  0
  9 10  1  0  0  0
  9 27  2  0  0  0
 10 11  2  0  0  0
 10 15  1  0  0  0
 11 12  1  0  0  0
 11 95  1  0  0  0
 12 13  2  0  0  0
 12 96  1  0  0  0
 13 14  1  0  0  0
 13 31  1  0  0  0
 14 15  2  0  0  0
 14 97  1  0  0  0
 15 98  1  0  0  0
 16 17  2  0  0  0
 16 21  1  0  0  0
 16 31  1  0  0  0
 17 18  1  0  0  0
 17 99  1  0  0  0
 18 19  2  0  0  0
 18100  1  0  0  0
 19 20  1  0  0  0
 19 24  1  0  0  0
 20 21  2  0  0  0
 20101  1  0  0  0
 21 23  1  0  0  0
 22 28  1  0  0  0
 22 32  2  0  0  0
 26 27  1  0  0  0
 28102  1  0  0  0
 28103  1  0  0  0
 29104  1  0  0  0
 29105  1  0  0  0
 33 34  1  0  0  0
 33 66  1  0  0  0
 33 70  2  0  0  0
 34 36  1  0  0  0
 34 59  1  0  0  0
 34106  1  0  0  0
 35 44  2  0  0  0
 35 45  1  0  0  0
 35 68  1  0  0  0
 36 56  1  0  0  0
 36107  1  0  0  0
 37 39  1  0  0  0
 37 47  1  0  0  0
 37 66  1  0  0  0
 37108  1  0  0  0
 38 43  2  0  0  0
 38 46  1  0  0  0
 38 47  1  0  0  0
 39 64  1  0  0  0
 39 67  2  0  0  0
 40 52  1  0  0  0
 40 53  2  0  0  0
 40 58  1  0  0  0
 41109  1  0  0  0
 41110  1  0  0  0
 41111  1  0  0  0
 41 48  1  0  0  0
 42 43  1  0  0  0
 42 66  1  0  0  0
 42112  1  0  0  0
 42113  1  0  0  0
 43 44  1  0  0  0
 44114  1  0  0  0
 45 46  2  0  0  0
 45115  1  0  0  0
 46116  1  0  0  0
 47117  1  0  0  0
 47118  1  0  0  0
 48 56  1  0  0  0
 48 65  1  0  0  0
 48119  1  0  0  0
 49 50  1  0  0  0
 49 53  1  0  0  0
 49 64  1  0  0  0
 49120  1  0  0  0
 50 51  1  0  0  0
 50121  1  0  0  0
 50122  1  0  0  0
 51 52  1  0  0  0
 51123  1  0  0  0
 51124  1  0  0  0
 52125  1  0  0  0
 52126  1  0  0  0
 53 54  1  0  0  0
 54 55  2  0  0  0
 54127  1  0  0  0
 55 57  1  0  0  0
 55128  1  0  0  0
 56 69  2  0  0  0
 57 58  2  0  0  0
 57129  1  0  0  0
 58130  1  0  0  0
 59 60  1  0  0  0
 59 61  1  0  0  0
 59 62  1  0  0  0
 60131  1  0  0  0
 60132  1  0  0  0
 60133  1  0  0  0
 61134  1  0  0  0
 61135  1  0  0  0
 61136  1  0  0  0
 62137  1  0  0  0
 62138  1  0  0  0
 62139  1  0  0  0
 63 65  1  0  0  0
 63140  1  0  0  0
 63141  1  0  0  0
 63142  1  0  0  0
 64143  1  0  0  0
 65144  1  0  0  0
 68 81  1  0  0  0
 71 73  2  0  0  0
 71 76  1  0  0  0
 71145  1  0  0  0
 72 75  1  0  0  0
 72 76  2  0  0  0
 72146  1  0  0  0
 73 74  1  0  0  0
 73 77  1  0  0  0
 74 75  2  0  0  0
 74 78  1  0  0  0
 75 83  1  0  0  0
 76 85  1  0  0  0
 77 82  1  0  0  0
 77 84  2  0  0  0
 78147  1  0  0  0
 78148  1  0  0  0
 78149  1  0  0  0
 79 80  1  0  0  0
 79 81  1  0  0  0
 79150  1  0  0  0
 79151  1  0  0  0
 80 84  1  0  0  0
 80152  1  0  0  0
 80153  1  0  0  0
 81154  1  0  0  0
 81155  1  0  0  0
 82156  1  0  0  0
 82157  1  0  0  0
 83158  1  0  0  0
 84159  1  0  0  0
M  CHG  1  84   1
M  ISO  4   1 100  68 101  81 101  83 100
M  END
> <chiral flag>
0

> <version>
0

> <s_m_source_file>
/data/baiqing/PycharmProjects/Reinvent-master-3.2/result/LINK_invent/BTK/process_docking_weight1_custom_product_contain_oxygen_bond_distance_aromatic_linkinvent_7_9_3/rearranged_h_0052.sdf

> <i_m_source_file_index>
28

> <r_mmod_Potential_Energy-OPLS-2005>
-275.026702880859

> <r_mmod_Stretch_Energy-OPLS-2005>
46.1493263244629

> <r_mmod_Bend_Energy-OPLS-2005>
110.105018615723

> <r_mmod_Torsional_Energy-OPLS-2005>
226.59944152832

> <r_mmod_Improper_Torsional_Energy-OPLS-2005>
5.26671075820923

> <r_mmod_Van_der_Waal_Energy-OPLS-2005>
155.703277587891

> <r_mmod_Electrostatic_Energy-OPLS-2005>
-410.399780273438

> <r_mmod_Solvation_Energy-OPLS-2005>
-426.219909667969

> <b_mmod_Minimization_Converged-OPLS-2005>
0

> <r_mmod_RMS_Derivative-OPLS-2005>
1.22662901878357

$$$$
28
                    3D
 Structure written by MMmdl.
170179  0  0  1  0            999 V2000
  -30.7826  -14.4542   20.6707 C   0  0  0  0  0  0
  -30.4294  -12.3671   19.3886 C   0  0  0  0  0  0
  -29.4746  -12.5258   18.1962 C   0  0  0  0  0  0
  -28.0149  -12.3340   18.6418 C   0  0  0  0  0  0
  -27.6590  -13.1700   19.8973 C   0  0  2  0  0  0
  -28.7215  -13.0013   21.0074 C   0  0  0  0  0  0
  -25.2643  -13.7843   20.5852 C   0  0  0  0  0  0
  -24.1843  -13.0239   20.9330 C   0  0  0  0  0  0
  -24.6354  -11.6738   20.8863 C   0  0  0  0  0  0
  -23.9005  -10.4159   21.0518 C   0  0  0  0  0  0
  -24.3540   -9.4071   21.9284 C   0  0  0  0  0  0
  -23.6191   -8.2132   22.0827 C   0  0  0  0  0  0
  -22.4208   -8.0211   21.3559 C   0  0  0  0  0  0
  -21.9843   -9.0224   20.4701 C   0  0  0  0  0  0
  -22.7210  -10.2089   20.3140 C   0  0  0  0  0  0
  -21.6822   -6.0705   22.5298 C   0  0  0  0  0  0
  -21.3982   -6.5620   23.8212 C   0  0  0  0  0  0
  -21.3626   -5.6791   24.9187 C   0  0  0  0  0  0
  -21.6080   -4.3051   24.7267 C   0  0  0  0  0  0
  -21.8807   -3.8133   23.4374 C   0  0  0  0  0  0
  -21.9164   -4.6938   22.3422 C   0  0  0  0  0  0
  -22.7914  -13.5221   21.1899 C   0  0  0  0  0  0
  -22.1660   -4.2123   21.0985 F   0  0  0  0  0  0
  -21.5635   -3.4538   25.7761 F   0  0  0  0  0  0
  -30.0354  -13.3288   20.4371 N   0  0  0  0  0  0
  -26.3019  -12.9004   20.3524 N   0  0  0  0  0  0
  -25.9270  -11.6236   20.5955 N   0  0  0  0  0  0
  -22.0384  -12.8297   22.0365 N   0  0  0  0  0  0
  -25.4304  -15.1510   20.4167 N   0  0  0  0  0  0
  -31.8588  -14.6506   20.1062 O   0  0  0  0  0  0
  -21.6595   -6.8838   21.4246 O   0  0  0  0  0  0
  -22.3701  -14.5569   20.6751 O   0  0  0  0  0  0
  -24.6219  -31.8675   23.2041 C   0  0  0  0  0  0
  -25.9095  -32.4827   23.8380 C   0  0  1  0  0  0
  -27.1975  -27.3765   20.1467 C   0  0  0  0  0  0
  -25.5882  -33.8623   24.2300 N   0  0  0  0  0  0
  -23.4099  -30.4957   21.5325 C   0  0  2  0  0  0
  -24.8586  -28.9666   20.0944 C   0  0  0  0  0  0
  -22.7352  -29.4767   22.4814 C   0  0  0  0  0  0
  -18.0462  -28.1145   22.8400 C   0  0  0  0  0  0
  -24.1472  -36.7309   23.2632 C   0  0  0  0  0  0
  -25.9528  -30.8233   21.3581 C   0  0  0  0  0  0
  -26.0183  -29.4579   20.7079 C   0  0  0  0  0  0
  -27.1963  -28.6701   20.7280 C   0  0  0  0  0  0
  -26.0345  -26.9231   19.4891 C   0  0  0  0  0  0
  -24.8666  -27.7063   19.4769 C   0  0  0  0  0  0
  -23.6174  -29.8303   20.1453 C   0  0  0  0  0  0
  -25.4121  -36.3126   24.0318 C   0  0  1  0  0  0
  -20.5961  -28.3645   23.1257 C   0  0  2  0  0  0
  -20.6973  -26.9417   22.5460 C   0  0  0  0  0  0
  -19.5972  -26.6117   21.5329 C   0  0  0  0  0  0
  -18.2189  -26.7606   22.1805 C   0  0  0  0  0  0
  -19.1627  -28.8730   23.2755 C   0  0  0  0  0  0
  -18.9421  -30.1392   23.8702 C   0  0  0  0  0  0
  -17.6395  -30.6562   24.0057 C   0  0  0  0  0  0
  -25.9033  -34.9484   23.5114 C   0  0  0  0  0  0
  -16.5399  -29.8926   23.5753 C   0  0  0  0  0  0
  -16.7430  -28.6190   23.0157 C   0  0  0  0  0  0
  -26.4489  -31.6631   25.0749 C   0  0  0  0  0  0
  -25.3755  -31.3721   26.1485 C   0  0  0  0  0  0
  -27.0331  -30.3085   24.6175 C   0  0  0  0  0  0
  -27.6106  -32.4357   25.7496 C   0  0  0  0  0  0
  -27.5570  -37.1824   24.8466 C   0  0  0  0  0  0
  -21.4083  -29.2977   22.3444 N   0  0  0  0  0  0
  -26.4300  -37.3818   23.9381 N   0  0  0  0  0  0
  -24.6819  -31.0789   22.0879 N   0  0  0  0  0  0
  -23.4106  -28.8501   23.3093 O   0  0  0  0  0  0
  -28.2490  -26.4872   20.2773 O   0  0  0  0  0  0
  -26.5607  -34.8976   22.4675 O   0  0  0  0  0  0
  -23.5399  -32.1420   23.7434 O   0  0  0  0  0  0
  -29.4361  -17.6869   22.0681 C   0  0  0  0  0  0
  -28.6871  -16.5422   20.0865 C   0  0  0  0  0  0
  -28.4925  -18.7486   21.8341 C   0  0  0  0  0  0
  -27.6893  -17.5118   19.8792 C   0  0  0  0  0  0
  -27.5111  -18.5668   20.8201 C   0  0  0  0  0  0
  -29.4799  -16.5291   21.2465 C   0  0  0  0  0  0
  -27.1432  -22.2421   22.5237 C   0  0  0  0  0  0
  -26.3105  -21.9575   23.5413 C   0  0  0  0  0  0
  -27.0596  -23.5689   21.7399 C   0  0  0  0  0  0
  -29.4759  -23.5030   21.2444 C   0  0  0  0  0  0
  -29.5939  -22.1186   21.9537 C   0  0  0  0  0  0
  -28.3756  -24.3603   21.8844 C   0  0  1  0  0  0
  -26.2483  -19.4336   20.7602 C   0  0  0  0  0  0
  -28.5119  -20.0134   22.7347 C   0  0  0  0  0  0
  -28.3490  -25.9197   21.6086 C   0  0  0  0  0  0
  -26.8704  -17.4154   18.5990 C   0  0  0  0  0  0
  -30.3161  -15.3850   21.5485 N   0  0  0  0  0  0
  -28.3067  -21.3531   22.0565 N   0  3  1  0  0  0
  -27.4110  -18.2764   17.7396 F   0  0  0  0  0  0
  -26.9574  -16.1903   18.0895 F   0  0  0  0  0  0
  -25.5689  -17.6701   18.7374 F   0  0  0  0  0  0
  -31.4482  -12.5209   19.0315 H   0  0  0  0  0  0
  -30.3865  -11.3526   19.7843 H   0  0  0  0  0  0
  -29.7239  -11.8027   17.4125 H   0  0  0  0  0  0
  -29.5887  -13.5118   17.7414 H   0  0  0  0  0  0
  -27.8597  -11.2722   18.8507 H   0  0  0  0  0  0
  -27.3340  -12.5921   17.8297 H   0  0  0  0  0  0
  -27.6624  -14.1980   19.5847 H   0  0  0  0  0  0
  -28.7313  -11.9785   21.3819 H   0  0  0  0  0  0
  -28.4880  -13.6278   21.8686 H   0  0  0  0  0  0
  -25.2684   -9.5565   22.4897 H   0  0  0  0  0  0
  -23.9914   -7.4518   22.7535 H   0  0  0  0  0  0
  -21.0779   -8.8802   19.8969 H   0  0  0  0  0  0
  -22.3713  -10.9697   19.6295 H   0  0  0  0  0  0
  -21.1977   -7.6125   23.9708 H   0  0  0  0  0  0
  -21.1464   -6.0525   25.9082 H   0  0  0  0  0  0
  -22.0605   -2.7588   23.2904 H   0  0  0  0  0  0
  -22.3839  -11.9987   22.4896 H   0  0  0  0  0  0
  -21.1047  -13.1565   22.2451 H   0  0  0  0  0  0
  -24.6286  -15.7720   20.4497 H   0  0  0  0  0  0
  -26.1667  -15.4813   19.8085 H   0  0  0  0  0  0
  -26.7232  -32.5549   23.1182 H   0  0  0  0  0  0
  -25.0012  -33.9765   25.0447 H   0  0  0  0  0  0
  -22.7052  -31.3193   21.3915 H   0  0  0  0  0  0
  -23.3750  -35.9607   23.3328 H   0  0  0  0  0  0
  -24.3534  -36.8912   22.2030 H   0  0  0  0  0  0
  -23.7218  -37.6528   23.6641 H   0  0  0  0  0  0
  -26.0718  -31.5939   20.5906 H   0  0  0  0  0  0
  -26.8416  -30.8759   21.9777 H   0  0  0  0  0  0
  -28.0853  -29.0163   21.2351 H   0  0  0  0  0  0
  -26.0104  -25.9356   19.0495 H   0  0  0  0  0  0
  -23.9693  -27.3314   19.0030 H   0  0  0  0  0  0
  -23.6879  -30.5953   19.3726 H   0  0  0  0  0  0
  -22.7517  -29.2245   19.8777 H   0  0  0  0  0  0
  -25.1308  -36.1980   25.0813 H   0  0  0  0  0  0
  -21.0150  -28.3389   24.1364 H   0  0  0  0  0  0
  -20.5987  -26.2307   23.3679 H   0  0  0  0  0  0
  -21.6921  -26.7507   22.1374 H   0  0  0  0  0  0
  -19.7211  -25.5926   21.1644 H   0  0  0  0  0  0
  -19.6837  -27.2722   20.6669 H   0  0  0  0  0  0
  -17.4434  -26.6058   21.4254 H   0  0  0  0  0  0
  -18.0767  -25.9876   22.9343 H   0  0  0  0  0  0
  -19.7880  -30.7143   24.2226 H   0  0  0  0  0  0
  -17.4960  -31.6401   24.4427 H   0  0  0  0  0  0
  -15.5316  -30.2759   23.6663 H   0  0  0  0  0  0
  -15.9077  -28.0157   22.7045 H   0  0  0  0  0  0
  -24.5956  -30.7033   25.7790 H   0  0  0  0  0  0
  -24.8884  -32.2854   26.4931 H   0  0  0  0  0  0
  -25.8082  -30.8906   27.0257 H   0  0  0  0  0  0
  -26.2859  -29.6860   24.1229 H   0  0  0  0  0  0
  -27.4079  -29.7351   25.4656 H   0  0  0  0  0  0
  -27.8722  -30.4418   23.9347 H   0  0  0  0  0  0
  -27.2758  -33.3679   26.2080 H   0  0  0  0  0  0
  -28.3885  -32.6875   25.0272 H   0  0  0  0  0  0
  -28.0801  -31.8469   26.5392 H   0  0  0  0  0  0
  -28.2660  -38.0072   24.7535 H   0  0  0  0  0  0
  -28.1014  -36.2616   24.6291 H   0  0  0  0  0  0
  -27.2272  -37.1492   25.8873 H   0  0  0  0  0  0
  -20.9283  -29.8022   21.6117 H   0  0  0  0  0  0
  -26.0184  -38.2890   24.1399 H   0  0  0  0  0  0
  -30.1366  -17.7952   22.8795 H   0  0  0  0  0  0
  -28.8571  -15.7953   19.3286 H   0  0  0  0  0  0
  -25.5364  -22.6639   23.8271 H   0  0  0  0  0  0
  -26.3376  -21.0553   24.1316 H   0  0  0  0  0  0
  -26.2178  -24.1556   22.1101 H   0  0  0  0  0  0
  -26.8444  -23.3587   20.6888 H   0  0  0  0  0  0
  -29.2591  -23.3661   20.1823 H   0  0  0  0  0  0
  -30.4350  -24.0141   21.3079 H   0  0  0  0  0  0
  -29.9739  -22.2713   22.9629 H   0  0  0  0  0  0
  -30.3323  -21.5009   21.4441 H   0  0  0  0  0  0
  -28.5836  -24.3314   22.9634 H   0  0  0  0  0  0
  -26.0717  -20.0274   21.6518 H   0  0  0  0  0  0
  -25.3590  -18.8096   20.7437 H   0  0  0  0  0  0
  -26.2377  -20.0672   19.8707 H   0  0  0  0  0  0
  -29.4536  -20.0279   23.2901 H   0  0  0  0  0  0
  -27.7720  -19.8063   23.4960 H   0  0  0  0  0  0
  -29.2564  -26.3483   22.0438 H   0  0  0  0  0  0
  -27.5590  -26.3212   22.2453 H   0  0  0  0  0  0
  -31.0078  -15.6002   22.2489 H   0  0  0  0  0  0
  -28.0777  -21.0700   21.1161 H   0  0  0  0  0  0
  1 25  1  0  0  0
  1 30  2  0  0  0
  1 87  1  0  0  0
  2  3  1  0  0  0
  2 25  1  0  0  0
  2 92  1  0  0  0
  2 93  1  0  0  0
  3  4  1  0  0  0
  3 94  1  0  0  0
  3 95  1  0  0  0
  4  5  1  0  0  0
  4 96  1  0  0  0
  4 97  1  0  0  0
  5  6  1  0  0  0
  5 26  1  0  0  0
  5 98  1  0  0  0
  6 25  1  0  0  0
  6 99  1  0  0  0
  6100  1  0  0  0
  7  8  2  0  0  0
  7 26  1  0  0  0
  7 29  1  0  0  0
  8  9  1  0  0  0
  8 22  1  0  0  0
  9 10  1  0  0  0
  9 27  2  0  0  0
 10 11  2  0  0  0
 10 15  1  0  0  0
 11 12  1  0  0  0
 11101  1  0  0  0
 12 13  2  0  0  0
 12102  1  0  0  0
 13 14  1  0  0  0
 13 31  1  0  0  0
 14 15  2  0  0  0
 14103  1  0  0  0
 15104  1  0  0  0
 16 17  2  0  0  0
 16 21  1  0  0  0
 16 31  1  0  0  0
 17 18  1  0  0  0
 17105  1  0  0  0
 18 19  2  0  0  0
 18106  1  0  0  0
 19 20  1  0  0  0
 19 24  1  0  0  0
 20 21  2  0  0  0
 20107  1  0  0  0
 21 23  1  0  0  0
 22 28  1  0  0  0
 22 32  2  0  0  0
 26 27  1  0  0  0
 28108  1  0  0  0
 28109  1  0  0  0
 29110  1  0  0  0
 29111  1  0  0  0
 33 34  1  0  0  0
 33 66  1  0  0  0
 33 70  2  0  0  0
 34 36  1  0  0  0
 34 59  1  0  0  0
 34112  1  0  0  0
 35 44  2  0  0  0
 35 45  1  0  0  0
 35 68  1  0  0  0
 36 56  1  0  0  0
 36113  1  0  0  0
 37 39  1  0  0  0
 37 47  1  0  0  0
 37 66  1  0  0  0
 37114  1  0  0  0
 38 43  2  0  0  0
 38 46  1  0  0  0
 38 47  1  0  0  0
 39 64  1  0  0  0
 39 67  2  0  0  0
 40 52  1  0  0  0
 40 53  2  0  0  0
 40 58  1  0  0  0
 41115  1  0  0  0
 41116  1  0  0  0
 41117  1  0  0  0
 41 48  1  0  0  0
 42 43  1  0  0  0
 42 66  1  0  0  0
 42118  1  0  0  0
 42119  1  0  0  0
 43 44  1  0  0  0
 44120  1  0  0  0
 45 46  2  0  0  0
 45121  1  0  0  0
 46122  1  0  0  0
 47123  1  0  0  0
 47124  1  0  0  0
 48 56  1  0  0  0
 48 65  1  0  0  0
 48125  1  0  0  0
 49 50  1  0  0  0
 49 53  1  0  0  0
 49 64  1  0  0  0
 49126  1  0  0  0
 50 51  1  0  0  0
 50127  1  0  0  0
 50128  1  0  0  0
 51 52  1  0  0  0
 51129  1  0  0  0
 51130  1  0  0  0
 52131  1  0  0  0
 52132  1  0  0  0
 53 54  1  0  0  0
 54 55  2  0  0  0
 54133  1  0  0  0
 55 57  1  0  0  0
 55134  1  0  0  0
 56 69  2  0  0  0
 57 58  2  0  0  0
 57135  1  0  0  0
 58136  1  0  0  0
 59 60  1  0  0  0
 59 61  1  0  0  0
 59 62  1  0  0  0
 60137  1  0  0  0
 60138  1  0  0  0
 60139  1  0  0  0
 61140  1  0  0  0
 61141  1  0  0  0
 61142  1  0  0  0
 62143  1  0  0  0
 62144  1  0  0  0
 62145  1  0  0  0
 63 65  1  0  0  0
 63146  1  0  0  0
 63147  1  0  0  0
 63148  1  0  0  0
 64149  1  0  0  0
 65150  1  0  0  0
 68 85  1  0  0  0
 71 73  2  0  0  0
 71 76  1  0  0  0
 71151  1  0  0  0
 72 74  1  0  0  0
 72 76  2  0  0  0
 72152  1  0  0  0
 73 75  1  0  0  0
 73 84  1  0  0  0
 74 75  2  0  0  0
 74 86  1  0  0  0
 75 83  1  0  0  0
 76 87  1  0  0  0
 77 78  2  0  0  0
 77 79  1  0  0  0
 77 88  1  0  0  0
 78153  1  0  0  0
 78154  1  0  0  0
 79 82  1  0  0  0
 79155  1  0  0  0
 79156  1  0  0  0
 80 81  1  0  0  0
 80 82  1  0  0  0
 80157  1  0  0  0
 80158  1  0  0  0
 81 88  1  0  0  0
 81159  1  0  0  0
 81160  1  0  0  0
 82 85  1  0  0  0
 82161  1  0  0  0
 83162  1  0  0  0
 83163  1  0  0  0
 83164  1  0  0  0
 84165  1  0  0  0
 84166  1  0  0  0
 84 88  1  0  0  0
 85167  1  0  0  0
 85168  1  0  0  0
 86 89  1  0  0  0
 86 90  1  0  0  0
 86 91  1  0  0  0
 87169  1  0  0  0
 88170  1  0  0  0
M  CHG  1  88   1
M  ISO  4   1 100  68 101  85 101  87 100
M  END
> <chiral flag>
0

> <version>
0

> <s_m_source_file>
/data/baiqing/PycharmProjects/Reinvent-master-3.2/result/LINK_invent/BTK/process_docking_weight1_custom_product_contain_oxygen_bond_distance_aromatic_linkinvent_7_9_3/rearranged_h_0052.sdf

> <i_m_source_file_index>
29

> <r_mmod_Potential_Energy-OPLS-2005>
97.9636306762695

> <r_mmod_Stretch_Energy-OPLS-2005>
65.3209075927734

> <r_mmod_Bend_Energy-OPLS-2005>
155.788375854492

> <r_mmod_Torsional_Energy-OPLS-2005>
331.261260986328

> <r_mmod_Improper_Torsional_Energy-OPLS-2005>
7.53951168060303

> <r_mmod_Van_der_Waal_Energy-OPLS-2005>
167.309341430664

> <r_mmod_Electrostatic_Energy-OPLS-2005>
-227.653366088867

> <r_mmod_Solvation_Energy-OPLS-2005>
-435.361602783203

> <b_mmod_Minimization_Converged-OPLS-2005>
0

> <r_mmod_RMS_Derivative-OPLS-2005>
13.3581504821777

$$$$
29
                    3D
 Structure written by MMmdl.
161170  0  0  1  0            999 V2000
  -30.6113  -14.6795   20.4859 C   0  0  0  0  0  0
  -30.4428  -12.4187   19.4517 C   0  0  0  0  0  0
  -29.5093  -12.5001   18.2232 C   0  0  0  0  0  0
  -28.0339  -12.3307   18.6400 C   0  0  0  0  0  0
  -27.6489  -13.2172   19.8545 C   0  0  2  0  0  0
  -28.6961  -13.1019   20.9843 C   0  0  0  0  0  0
  -25.2551  -13.8158   20.5678 C   0  0  0  0  0  0
  -24.1826  -13.0422   20.9195 C   0  0  0  0  0  0
  -24.6398  -11.6894   20.8738 C   0  0  0  0  0  0
  -23.9067  -10.4281   21.0406 C   0  0  0  0  0  0
  -24.3617   -9.4196   21.9184 C   0  0  0  0  0  0
  -23.6292   -8.2234   22.0753 C   0  0  0  0  0  0
  -22.4275   -8.0276   21.3544 C   0  0  0  0  0  0
  -21.9911   -9.0248   20.4646 C   0  0  0  0  0  0
  -22.7240  -10.2126   20.3056 C   0  0  0  0  0  0
  -21.6853   -6.0733   22.5278 C   0  0  0  0  0  0
  -21.4011   -6.5637   23.8210 C   0  0  0  0  0  0
  -21.3656   -5.6792   24.9173 C   0  0  0  0  0  0
  -21.6044   -4.3055   24.7226 C   0  0  0  0  0  0
  -21.8821   -3.8146   23.4347 C   0  0  0  0  0  0
  -21.9193   -4.6961   22.3403 C   0  0  0  0  0  0
  -22.7850  -13.5214   21.1861 C   0  0  0  0  0  0
  -22.1663   -4.2147   21.0980 F   0  0  0  0  0  0
  -21.5629   -3.4538   25.7738 F   0  0  0  0  0  0
  -30.0023  -13.4525   20.4098 N   0  0  0  0  0  0
  -26.2972  -12.9342   20.3286 N   0  0  0  0  0  0
  -25.9324  -11.6497   20.5746 N   0  0  0  0  0  0
  -22.0499  -12.8202   22.0423 N   0  0  0  0  0  0
  -25.4236  -15.1880   20.4080 N   0  0  0  0  0  0
  -31.7961  -14.8227   20.1748 O   0  0  0  0  0  0
  -21.6637   -6.8875   21.4241 O   0  0  0  0  0  0
  -22.3536  -14.5525   20.6717 O   0  0  0  0  0  0
  -24.6270  -31.8572   23.2000 C   0  0  0  0  0  0
  -25.9114  -32.4763   23.8321 C   0  0  1  0  0  0
  -27.2284  -27.2999   20.1236 C   0  0  0  0  0  0
  -25.5928  -33.8562   24.2254 N   0  0  0  0  0  0
  -23.4215  -30.4795   21.5420 C   0  0  2  0  0  0
  -24.8691  -28.9253   20.1164 C   0  0  0  0  0  0
  -22.7469  -29.4620   22.4929 C   0  0  0  0  0  0
  -18.0283  -28.1398   22.8478 C   0  0  0  0  0  0
  -24.1481  -36.7278   23.2644 C   0  0  0  0  0  0
  -25.9629  -30.7817   21.3722 C   0  0  0  0  0  0
  -26.0369  -29.4038   20.7226 C   0  0  0  0  0  0
  -27.2176  -28.6026   20.7164 C   0  0  0  0  0  0
  -26.0415  -26.8819   19.4867 C   0  0  0  0  0  0
  -24.8745  -27.6696   19.4890 C   0  0  0  0  0  0
  -23.6384  -29.8087   20.1599 C   0  0  0  0  0  0
  -25.4110  -36.3068   24.0331 C   0  0  1  0  0  0
  -20.5884  -28.3693   23.1285 C   0  0  2  0  0  0
  -20.6771  -26.9416   22.5415 C   0  0  0  0  0  0
  -19.5748  -26.6382   21.5218 C   0  0  0  0  0  0
  -18.1924  -26.7936   22.1625 C   0  0  0  0  0  0
  -19.1539  -28.8861   23.2871 C   0  0  0  0  0  0
  -18.9470  -30.1459   23.8894 C   0  0  0  0  0  0
  -17.6476  -30.6594   24.0566 C   0  0  0  0  0  0
  -25.9060  -34.9443   23.5097 C   0  0  0  0  0  0
  -16.5361  -29.9097   23.6340 C   0  0  0  0  0  0
  -16.7274  -28.6519   23.0349 C   0  0  0  0  0  0
  -26.4497  -31.6589   25.0701 C   0  0  0  0  0  0
  -25.3735  -31.3746   26.1437 C   0  0  0  0  0  0
  -27.0351  -30.3022   24.6150 C   0  0  0  0  0  0
  -27.6043  -32.4338   25.7489 C   0  0  0  0  0  0
  -27.5565  -37.1786   24.8467 C   0  0  0  0  0  0
  -21.4186  -29.3046   22.3675 N   0  0  0  0  0  0
  -26.4272  -37.3773   23.9425 N   0  0  0  0  0  0
  -24.6895  -31.0566   22.0955 N   0  0  0  0  0  0
  -23.4186  -28.8161   23.3011 O   0  0  0  0  0  0
  -28.3730  -26.4861   20.0951 O   0  0  0  0  0  0
  -26.5613  -34.8920   22.4657 O   0  0  0  0  0  0
  -23.5432  -32.1377   23.7335 O   0  0  0  0  0  0
  -30.4118  -17.9828   17.0398 C   0  0  0  0  0  0
  -30.2162  -17.3821   18.2863 C   0  0  0  0  0  0
  -30.4803  -19.3731   16.9590 C   0  0  0  0  0  0
  -30.0252  -18.1350   19.4716 C   0  0  0  0  0  0
  -29.9492  -19.6038   19.3700 C   0  0  0  0  0  0
  -30.2850  -20.1744   18.0956 C   0  0  0  0  0  0
  -28.0008  -22.4506   19.7755 C   0  0  0  0  0  0
  -27.6885  -23.9772   19.5383 C   0  0  0  0  0  0
  -29.8084  -24.5401   20.6525 C   0  0  0  0  0  0
  -29.9415  -23.0495   21.1250 C   0  0  0  0  0  0
  -28.3530  -25.0404   20.4810 C   0  0  1  0  0  0
  -29.5570  -20.5664   20.5673 C   0  0  0  0  0  0
  -30.0227  -17.2606   20.7789 C   0  0  0  0  0  0
  -29.1531  -22.0367   20.3792 N   0  0  0  0  0  0
  -29.7864  -15.7581   20.7037 N   0  0  0  0  0  0
  -27.1895  -21.6306   19.3372 O   0  0  0  0  0  0
  -30.5789  -21.8583   17.8201 Cl  0  0  0  0  0  0
  -31.4808  -12.5580   19.1453 H   0  0  0  0  0  0
  -30.3953  -11.4301   19.9109 H   0  0  0  0  0  0
  -29.7802  -11.7347   17.4947 H   0  0  0  0  0  0
  -29.6419  -13.4597   17.7218 H   0  0  0  0  0  0
  -27.8835  -11.2799   18.8906 H   0  0  0  0  0  0
  -27.3756  -12.5370   17.7956 H   0  0  0  0  0  0
  -27.6571  -14.2453   19.4931 H   0  0  0  0  0  0
  -28.7203  -12.0873   21.3853 H   0  0  0  0  0  0
  -28.4407  -13.7510   21.8230 H   0  0  0  0  0  0
  -25.2763   -9.5671   22.4755 H   0  0  0  0  0  0
  -23.9998   -7.4628   22.7471 H   0  0  0  0  0  0
  -21.0843   -8.8764   19.8953 H   0  0  0  0  0  0
  -22.3698  -10.9663   19.6162 H   0  0  0  0  0  0
  -21.2002   -7.6145   23.9713 H   0  0  0  0  0  0
  -21.1477   -6.0521   25.9074 H   0  0  0  0  0  0
  -22.0605   -2.7608   23.2847 H   0  0  0  0  0  0
  -22.4121  -11.9855   22.4787 H   0  0  0  0  0  0
  -21.1121  -13.1222   22.2640 H   0  0  0  0  0  0
  -24.6497  -15.8353   20.5108 H   0  0  0  0  0  0
  -26.2595  -15.6291   20.0467 H   0  0  0  0  0  0
  -26.7177  -32.5430   23.1058 H   0  0  0  0  0  0
  -25.0095  -33.9704   25.0414 H   0  0  0  0  0  0
  -22.7178  -31.3012   21.3939 H   0  0  0  0  0  0
  -23.3743  -35.9605   23.3301 H   0  0  0  0  0  0
  -24.3575  -36.8905   22.2059 H   0  0  0  0  0  0
  -23.7228  -37.6477   23.6670 H   0  0  0  0  0  0
  -26.0885  -31.5384   20.5972 H   0  0  0  0  0  0
  -26.8470  -30.8397   21.9955 H   0  0  0  0  0  0
  -28.1177  -28.9706   21.1893 H   0  0  0  0  0  0
  -26.0051  -25.9515   18.9488 H   0  0  0  0  0  0
  -23.9859  -27.3041   18.9924 H   0  0  0  0  0  0
  -23.7607  -30.5810   19.3995 H   0  0  0  0  0  0
  -22.7584  -29.2370   19.8582 H   0  0  0  0  0  0
  -25.1287  -36.1903   25.0817 H   0  0  0  0  0  0
  -20.9973  -28.3266   24.1410 H   0  0  0  0  0  0
  -20.5697  -26.2298   23.3615 H   0  0  0  0  0  0
  -21.6635  -26.7454   22.1201 H   0  0  0  0  0  0
  -19.6918  -25.6296   21.1250 H   0  0  0  0  0  0
  -19.6698  -27.3191   20.6752 H   0  0  0  0  0  0
  -17.4203  -26.6689   21.4017 H   0  0  0  0  0  0
  -18.0308  -26.0084   22.9031 H   0  0  0  0  0  0
  -19.7951  -30.7263   24.2256 H   0  0  0  0  0  0
  -17.5043  -31.6281   24.5155 H   0  0  0  0  0  0
  -15.5365  -30.3008   23.7669 H   0  0  0  0  0  0
  -15.8672  -28.0850   22.7062 H   0  0  0  0  0  0
  -24.5915  -30.7084   25.7780 H   0  0  0  0  0  0
  -24.8929  -32.2927   26.4826 H   0  0  0  0  0  0
  -25.8070  -30.8958   27.0229 H   0  0  0  0  0  0
  -26.2927  -29.6759   24.1193 H   0  0  0  0  0  0
  -27.4093  -29.7285   25.4638 H   0  0  0  0  0  0
  -27.8762  -30.4323   23.9340 H   0  0  0  0  0  0
  -27.2642  -33.3662   26.2004 H   0  0  0  0  0  0
  -28.3889  -32.6860   25.0345 H   0  0  0  0  0  0
  -28.0656  -31.8500   26.5462 H   0  0  0  0  0  0
  -28.2572  -38.0090   24.7520 H   0  0  0  0  0  0
  -28.1064  -36.2622   24.6275 H   0  0  0  0  0  0
  -27.2287  -37.1417   25.8870 H   0  0  0  0  0  0
  -20.9364  -29.8782   21.6901 H   0  0  0  0  0  0
  -26.0141  -38.2833   24.1464 H   0  0  0  0  0  0
  -30.5691  -17.3760   16.1585 H   0  0  0  0  0  0
  -30.2533  -16.3037   18.3057 H   0  0  0  0  0  0
  -30.7059  -19.8357   16.0083 H   0  0  0  0  0  0
  -26.6068  -24.0683   19.6011 H   0  0  0  0  0  0
  -27.9638  -24.1981   18.5073 H   0  0  0  0  0  0
  -30.3332  -24.6522   19.7026 H   0  0  0  0  0  0
  -30.3344  -25.1878   21.3546 H   0  0  0  0  0  0
  -29.6398  -22.9857   22.1713 H   0  0  0  0  0  0
  -30.9954  -22.7711   21.0973 H   0  0  0  0  0  0
  -27.8614  -24.9797   21.4531 H   0  0  0  0  0  0
  -30.3905  -20.5271   21.2691 H   0  0  0  0  0  0
  -28.7309  -20.0861   21.0919 H   0  0  0  0  0  0
  -29.2667  -17.6698   21.4496 H   0  0  0  0  0  0
  -30.9773  -17.4223   21.2815 H   0  0  0  0  0  0
  -28.8317  -15.4912   20.8879 H   0  0  0  0  0  0
  1 25  1  0  0  0
  1 30  2  0  0  0
  1 85  1  0  0  0
  2  3  1  0  0  0
  2 25  1  0  0  0
  2 88  1  0  0  0
  2 89  1  0  0  0
  3  4  1  0  0  0
  3 90  1  0  0  0
  3 91  1  0  0  0
  4  5  1  0  0  0
  4 92  1  0  0  0
  4 93  1  0  0  0
  5  6  1  0  0  0
  5 26  1  0  0  0
  5 94  1  0  0  0
  6 25  1  0  0  0
  6 95  1  0  0  0
  6 96  1  0  0  0
  7  8  2  0  0  0
  7 26  1  0  0  0
  7 29  1  0  0  0
  8  9  1  0  0  0
  8 22  1  0  0  0
  9 10  1  0  0  0
  9 27  2  0  0  0
 10 11  2  0  0  0
 10 15  1  0  0  0
 11 12  1  0  0  0
 11 97  1  0  0  0
 12 13  2  0  0  0
 12 98  1  0  0  0
 13 14  1  0  0  0
 13 31  1  0  0  0
 14 15  2  0  0  0
 14 99  1  0  0  0
 15100  1  0  0  0
 16 17  2  0  0  0
 16 21  1  0  0  0
 16 31  1  0  0  0
 17 18  1  0  0  0
 17101  1  0  0  0
 18 19  2  0  0  0
 18102  1  0  0  0
 19 20  1  0  0  0
 19 24  1  0  0  0
 20 21  2  0  0  0
 20103  1  0  0  0
 21 23  1  0  0  0
 22 28  1  0  0  0
 22 32  2  0  0  0
 26 27  1  0  0  0
 28104  1  0  0  0
 28105  1  0  0  0
 29106  1  0  0  0
 29107  1  0  0  0
 33 34  1  0  0  0
 33 66  1  0  0  0
 33 70  2  0  0  0
 34 36  1  0  0  0
 34 59  1  0  0  0
 34108  1  0  0  0
 35 44  2  0  0  0
 35 45  1  0  0  0
 35 68  1  0  0  0
 36 56  1  0  0  0
 36109  1  0  0  0
 37 39  1  0  0  0
 37 47  1  0  0  0
 37 66  1  0  0  0
 37110  1  0  0  0
 38 43  2  0  0  0
 38 46  1  0  0  0
 38 47  1  0  0  0
 39 64  1  0  0  0
 39 67  2  0  0  0
 40 52  1  0  0  0
 40 53  2  0  0  0
 40 58  1  0  0  0
 41111  1  0  0  0
 41112  1  0  0  0
 41113  1  0  0  0
 41 48  1  0  0  0
 42 43  1  0  0  0
 42 66  1  0  0  0
 42114  1  0  0  0
 42115  1  0  0  0
 43 44  1  0  0  0
 44116  1  0  0  0
 45 46  2  0  0  0
 45117  1  0  0  0
 46118  1  0  0  0
 47119  1  0  0  0
 47120  1  0  0  0
 48 56  1  0  0  0
 48 65  1  0  0  0
 48121  1  0  0  0
 49 50  1  0  0  0
 49 53  1  0  0  0
 49 64  1  0  0  0
 49122  1  0  0  0
 50 51  1  0  0  0
 50123  1  0  0  0
 50124  1  0  0  0
 51 52  1  0  0  0
 51125  1  0  0  0
 51126  1  0  0  0
 52127  1  0  0  0
 52128  1  0  0  0
 53 54  1  0  0  0
 54 55  2  0  0  0
 54129  1  0  0  0
 55 57  1  0  0  0
 55130  1  0  0  0
 56 69  2  0  0  0
 57 58  2  0  0  0
 57131  1  0  0  0
 58132  1  0  0  0
 59 60  1  0  0  0
 59 61  1  0  0  0
 59 62  1  0  0  0
 60133  1  0  0  0
 60134  1  0  0  0
 60135  1  0  0  0
 61136  1  0  0  0
 61137  1  0  0  0
 61138  1  0  0  0
 62139  1  0  0  0
 62140  1  0  0  0
 62141  1  0  0  0
 63 65  1  0  0  0
 63142  1  0  0  0
 63143  1  0  0  0
 63144  1  0  0  0
 64145  1  0  0  0
 65146  1  0  0  0
 68 81  1  0  0  0
 71 72  2  0  0  0
 71 73  1  0  0  0
 71147  1  0  0  0
 72 74  1  0  0  0
 72148  1  0  0  0
 73 76  2  0  0  0
 73149  1  0  0  0
 74 75  2  0  0  0
 74 83  1  0  0  0
 75 76  1  0  0  0
 75 82  1  0  0  0
 76 87  1  0  0  0
 77 78  1  0  0  0
 77 84  1  0  0  0
 77 86  2  0  0  0
 78 81  1  0  0  0
 78150  1  0  0  0
 78151  1  0  0  0
 79 80  1  0  0  0
 79 81  1  0  0  0
 79152  1  0  0  0
 79153  1  0  0  0
 80 84  1  0  0  0
 80154  1  0  0  0
 80155  1  0  0  0
 81156  1  0  0  0
 82 84  1  0  0  0
 82157  1  0  0  0
 82158  1  0  0  0
 83 85  1  0  0  0
 83159  1  0  0  0
 83160  1  0  0  0
 85161  1  0  0  0
M  ISO  4   1 100  68 101  81 101  85 100
M  END
> <chiral flag>
0

> <version>
0

> <s_m_source_file>
/data/baiqing/PycharmProjects/Reinvent-master-3.2/result/LINK_invent/BTK/process_docking_weight1_custom_product_contain_oxygen_bond_distance_aromatic_linkinvent_7_9_3/rearranged_h_0052.sdf

> <i_m_source_file_index>
30

> <r_mmod_Potential_Energy-OPLS-2005>
80.4904251098633

> <r_mmod_Stretch_Energy-OPLS-2005>
108.063781738281

> <r_mmod_Bend_Energy-OPLS-2005>
178.372283935547

> <r_mmod_Torsional_Energy-OPLS-2005>
232.513732910156

> <r_mmod_Improper_Torsional_Energy-OPLS-2005>
6.19040060043335

> <r_mmod_Van_der_Waal_Energy-OPLS-2005>
150.634429931641

> <r_mmod_Electrostatic_Energy-OPLS-2005>
-419.126586914062

> <r_mmod_Solvation_Energy-OPLS-2005>
-232.828491210938

> <b_mmod_Minimization_Converged-OPLS-2005>
0

> <r_mmod_RMS_Derivative-OPLS-2005>
1.44490945339203

$$$$
30
                    3D
 Structure written by MMmdl.
169177  0  0  1  0            999 V2000
  -30.6336  -14.5778   20.2817 C   0  0  0  0  0  0
  -30.4416  -12.2848   19.4764 C   0  0  0  0  0  0
  -29.5378  -12.3873   18.2354 C   0  0  0  0  0  0
  -28.0371  -12.3221   18.6241 C   0  0  0  0  0  0
  -27.6591  -13.1887   19.8614 C   0  0  2  0  0  0
  -28.7166  -13.0952   20.9832 C   0  0  0  0  0  0
  -25.2621  -13.8083   20.5657 C   0  0  0  0  0  0
  -24.1872  -13.0372   20.9175 C   0  0  0  0  0  0
  -24.6416  -11.6844   20.8767 C   0  0  0  0  0  0
  -23.9075  -10.4265   21.0456 C   0  0  0  0  0  0
  -24.3612   -9.4186   21.9217 C   0  0  0  0  0  0
  -23.6272   -8.2245   22.0780 C   0  0  0  0  0  0
  -22.4259   -8.0291   21.3583 C   0  0  0  0  0  0
  -21.9919   -9.0262   20.4692 C   0  0  0  0  0  0
  -22.7256  -10.2142   20.3093 C   0  0  0  0  0  0
  -21.6878   -6.0708   22.5261 C   0  0  0  0  0  0
  -21.4030   -6.5593   23.8188 C   0  0  0  0  0  0
  -21.3647   -5.6736   24.9138 C   0  0  0  0  0  0
  -21.6058   -4.3001   24.7201 C   0  0  0  0  0  0
  -21.8840   -3.8115   23.4314 C   0  0  0  0  0  0
  -21.9194   -4.6933   22.3373 C   0  0  0  0  0  0
  -22.7892  -13.5177   21.1769 C   0  0  0  0  0  0
  -22.1651   -4.2114   21.0944 F   0  0  0  0  0  0
  -21.5634   -3.4466   25.7707 F   0  0  0  0  0  0
  -30.0304  -13.3631   20.3842 N   0  0  0  0  0  0
  -26.3045  -12.9201   20.3358 N   0  0  0  0  0  0
  -25.9354  -11.6404   20.5900 N   0  0  0  0  0  0
  -22.0479  -12.8276   22.0335 N   0  0  0  0  0  0
  -25.4290  -15.1805   20.4037 N   0  0  0  0  0  0
  -31.8575  -14.7067   20.1894 O   0  0  0  0  0  0
  -21.6633   -6.8881   21.4253 O   0  0  0  0  0  0
  -22.3603  -14.5453   20.6556 O   0  0  0  0  0  0
  -24.6135  -31.8625   23.2077 C   0  0  0  0  0  0
  -25.9016  -32.4795   23.8368 C   0  0  1  0  0  0
  -27.2341  -27.4225   20.0821 C   0  0  0  0  0  0
  -25.5843  -33.8599   24.2291 N   0  0  0  0  0  0
  -23.4044  -30.4830   21.5505 C   0  0  2  0  0  0
  -24.8524  -28.9446   20.1183 C   0  0  0  0  0  0
  -22.7418  -29.4580   22.4987 C   0  0  0  0  0  0
  -18.0245  -28.1360   22.8491 C   0  0  0  0  0  0
  -24.1491  -36.7319   23.2635 C   0  0  0  0  0  0
  -25.9364  -30.8219   21.3652 C   0  0  0  0  0  0
  -26.0135  -29.4542   20.7125 C   0  0  0  0  0  0
  -27.2094  -28.7011   20.6881 C   0  0  0  0  0  0
  -26.0613  -26.9292   19.4745 C   0  0  0  0  0  0
  -24.8702  -27.6821   19.4982 C   0  0  0  0  0  0
  -23.6122  -29.8092   20.1677 C   0  0  0  0  0  0
  -25.4115  -36.3093   24.0321 C   0  0  1  0  0  0
  -20.5850  -28.3619   23.1337 C   0  0  2  0  0  0
  -20.6746  -26.9353   22.5425 C   0  0  0  0  0  0
  -19.5708  -26.6368   21.5232 C   0  0  0  0  0  0
  -18.1893  -26.7903   22.1641 C   0  0  0  0  0  0
  -19.1500  -28.8810   23.2911 C   0  0  0  0  0  0
  -18.9423  -30.1434   23.8901 C   0  0  0  0  0  0
  -17.6424  -30.6577   24.0546 C   0  0  0  0  0  0
  -25.9033  -34.9451   23.5109 C   0  0  0  0  0  0
  -16.5312  -29.9075   23.6335 C   0  0  0  0  0  0
  -16.7237  -28.6493   23.0355 C   0  0  0  0  0  0
  -26.4448  -31.6573   25.0697 C   0  0  0  0  0  0
  -25.3758  -31.3648   26.1467 C   0  0  0  0  0  0
  -27.0236  -30.3006   24.6056 C   0  0  0  0  0  0
  -27.6003  -32.4319   25.7479 C   0  0  0  0  0  0
  -27.5577  -37.1804   24.8443 C   0  0  0  0  0  0
  -21.4138  -29.2979   22.3751 N   0  0  0  0  0  0
  -26.4287  -37.3786   23.9393 N   0  0  0  0  0  0
  -24.6704  -31.0713   22.0980 N   0  0  0  0  0  0
  -23.4214  -28.8124   23.3020 O   0  0  0  0  0  0
  -28.4082  -26.6997   20.0413 O   0  0  0  0  0  0
  -26.5610  -34.8912   22.4692 O   0  0  0  0  0  0
  -23.5327  -32.1358   23.7479 O   0  0  0  0  0  0
  -31.1731  -17.7668   16.4793 C   0  0  0  0  0  0
  -31.5442  -18.2123   17.7546 C   0  0  0  0  0  0
  -30.1168  -16.8589   16.3681 C   0  0  0  0  0  0
  -30.9633  -17.6529   18.9203 C   0  0  0  0  0  0
  -29.5411  -16.2860   17.5234 C   0  0  0  0  0  0
  -30.1225  -16.4950   18.8121 C   0  0  0  0  0  0
  -31.0665  -18.5047   20.1148 C   0  0  0  0  0  0
  -30.1364  -22.0932   19.8554 C   0  0  0  0  0  0
  -28.1925  -15.6162   17.3259 C   0  0  0  0  0  0
  -32.6505  -22.6129   21.8018 C   0  0  0  0  0  0
  -32.3560  -21.3934   20.9141 C   0  0  0  0  0  0
  -29.0614  -24.3313   19.7006 C   0  0  0  0  0  0
  -28.3817  -25.3807   20.6182 C   0  0  0  0  0  0
  -30.8600  -21.0356   20.7218 C   0  0  2  0  0  0
  -31.4444  -18.0624   21.3144 N   0  0  0  0  0  0
  -29.8113  -15.6036   19.9151 N   0  0  0  0  0  0
  -29.6393  -23.1942   20.4381 N   0  0  0  0  0  0
  -30.7534  -19.8009   19.9258 N   0  3  0  0  0  0
  -30.0402  -21.8971   18.6394 O   0  0  0  0  0  0
  -31.4890  -12.3714   19.1824 H   0  0  0  0  0  0
  -30.3354  -11.3119   19.9575 H   0  0  0  0  0  0
  -29.7720  -11.5879   17.5310 H   0  0  0  0  0  0
  -29.7969  -13.3054   17.7151 H   0  0  0  0  0  0
  -27.8081  -11.2773   18.8287 H   0  0  0  0  0  0
  -27.4095  -12.5840   17.7758 H   0  0  0  0  0  0
  -27.6591  -14.2159   19.5281 H   0  0  0  0  0  0
  -28.7086  -12.1098   21.4536 H   0  0  0  0  0  0
  -28.5128  -13.8241   21.7685 H   0  0  0  0  0  0
  -25.2779   -9.5583   22.4775 H   0  0  0  0  0  0
  -23.9979   -7.4620   22.7451 H   0  0  0  0  0  0
  -21.0869   -8.8756   19.8994 H   0  0  0  0  0  0
  -22.3739  -10.9656   19.6157 H   0  0  0  0  0  0
  -21.2056   -7.6119   23.9649 H   0  0  0  0  0  0
  -21.1433   -6.0481   25.9019 H   0  0  0  0  0  0
  -22.0660   -2.7593   23.2775 H   0  0  0  0  0  0
  -22.3999  -11.9967   22.4866 H   0  0  0  0  0  0
  -21.1117  -13.1412   22.2461 H   0  0  0  0  0  0
  -24.6634  -15.8374   20.5191 H   0  0  0  0  0  0
  -26.2901  -15.6255   20.1213 H   0  0  0  0  0  0
  -26.7062  -32.5490   23.1098 H   0  0  0  0  0  0
  -24.9930  -33.9757   25.0387 H   0  0  0  0  0  0
  -22.6907  -31.2981   21.4083 H   0  0  0  0  0  0
  -23.3740  -35.9660   23.3288 H   0  0  0  0  0  0
  -24.3563  -36.8963   22.2048 H   0  0  0  0  0  0
  -23.7278  -37.6533   23.6675 H   0  0  0  0  0  0
  -26.0568  -31.5838   20.5938 H   0  0  0  0  0  0
  -26.8239  -30.8709   21.9858 H   0  0  0  0  0  0
  -28.1139  -29.0900   21.1368 H   0  0  0  0  0  0
  -26.0682  -25.9753   18.9650 H   0  0  0  0  0  0
  -23.9758  -27.2972   19.0275 H   0  0  0  0  0  0
  -23.7129  -30.5782   19.4002 H   0  0  0  0  0  0
  -22.7415  -29.2164   19.8854 H   0  0  0  0  0  0
  -25.1315  -36.1925   25.0813 H   0  0  0  0  0  0
  -20.9924  -28.3161   24.1465 H   0  0  0  0  0  0
  -20.5691  -26.2196   23.3597 H   0  0  0  0  0  0
  -21.6606  -26.7419   22.1172 H   0  0  0  0  0  0
  -19.6864  -25.6304   21.1212 H   0  0  0  0  0  0
  -19.6669  -27.3234   20.6818 H   0  0  0  0  0  0
  -17.4177  -26.6654   21.4041 H   0  0  0  0  0  0
  -18.0266  -26.0060   22.9047 H   0  0  0  0  0  0
  -19.7904  -30.7243   24.2285 H   0  0  0  0  0  0
  -17.4977  -31.6268   24.5120 H   0  0  0  0  0  0
  -15.5316  -30.2972   23.7661 H   0  0  0  0  0  0
  -15.8630  -28.0820   22.7072 H   0  0  0  0  0  0
  -24.5920  -30.6998   25.7816 H   0  0  0  0  0  0
  -24.8971  -32.2790   26.4991 H   0  0  0  0  0  0
  -25.8158  -30.8772   27.0176 H   0  0  0  0  0  0
  -26.2733  -29.6822   24.1107 H   0  0  0  0  0  0
  -27.3968  -29.7178   25.4483 H   0  0  0  0  0  0
  -27.8603  -30.4289   23.9190 H   0  0  0  0  0  0
  -27.2551  -33.3581   26.2092 H   0  0  0  0  0  0
  -28.3790  -32.6954   25.0311 H   0  0  0  0  0  0
  -28.0681  -31.8434   26.5376 H   0  0  0  0  0  0
  -28.2564  -38.0132   24.7517 H   0  0  0  0  0  0
  -28.1096  -36.2653   24.6238 H   0  0  0  0  0  0
  -27.2262  -37.1415   25.8835 H   0  0  0  0  0  0
  -20.9304  -29.8642   21.6906 H   0  0  0  0  0  0
  -26.0151  -38.2838   24.1468 H   0  0  0  0  0  0
  -31.6006  -18.2167   15.5921 H   0  0  0  0  0  0
  -32.2273  -19.0478   17.8262 H   0  0  0  0  0  0
  -29.7085  -16.6570   15.3859 H   0  0  0  0  0  0
  -28.2544  -14.5562   17.1351 H   0  0  0  0  0  0
  -27.6982  -16.0446   16.4530 H   0  0  0  0  0  0
  -27.5224  -15.8271   18.1550 H   0  0  0  0  0  0
  -33.7271  -22.7653   21.8962 H   0  0  0  0  0  0
  -32.2515  -22.4736   22.8050 H   0  0  0  0  0  0
  -32.2332  -23.5338   21.3919 H   0  0  0  0  0  0
  -32.8701  -20.5353   21.3456 H   0  0  0  0  0  0
  -32.8273  -21.5506   19.9414 H   0  0  0  0  0  0
  -29.8666  -24.8011   19.1289 H   0  0  0  0  0  0
  -28.3326  -23.9684   18.9722 H   0  0  0  0  0  0
  -28.9159  -25.4478   21.5672 H   0  0  0  0  0  0
  -27.3718  -25.0434   20.8636 H   0  0  0  0  0  0
  -30.3424  -20.9118   21.6749 H   0  0  0  0  0  0
  -31.7752  -17.1168   21.4198 H   0  0  0  0  0  0
  -31.3728  -18.6436   22.1320 H   0  0  0  0  0  0
  -28.8413  -15.3471   19.9986 H   0  0  0  0  0  0
  -29.7172  -23.2729   21.4446 H   0  0  0  0  0  0
  -30.3861  -20.0470   19.0052 H   0  0  0  0  0  0
  1 25  1  0  0  0
  1 30  2  0  0  0
  1 86  1  0  0  0
  2  3  1  0  0  0
  2 25  1  0  0  0
  2 90  1  0  0  0
  2 91  1  0  0  0
  3  4  1  0  0  0
  3 92  1  0  0  0
  3 93  1  0  0  0
  4  5  1  0  0  0
  4 94  1  0  0  0
  4 95  1  0  0  0
  5  6  1  0  0  0
  5 26  1  0  0  0
  5 96  1  0  0  0
  6 25  1  0  0  0
  6 97  1  0  0  0
  6 98  1  0  0  0
  7  8  2  0  0  0
  7 26  1  0  0  0
  7 29  1  0  0  0
  8  9  1  0  0  0
  8 22  1  0  0  0
  9 10  1  0  0  0
  9 27  2  0  0  0
 10 11  2  0  0  0
 10 15  1  0  0  0
 11 12  1  0  0  0
 11 99  1  0  0  0
 12 13  2  0  0  0
 12100  1  0  0  0
 13 14  1  0  0  0
 13 31  1  0  0  0
 14 15  2  0  0  0
 14101  1  0  0  0
 15102  1  0  0  0
 16 17  2  0  0  0
 16 21  1  0  0  0
 16 31  1  0  0  0
 17 18  1  0  0  0
 17103  1  0  0  0
 18 19  2  0  0  0
 18104  1  0  0  0
 19 20  1  0  0  0
 19 24  1  0  0  0
 20 21  2  0  0  0
 20105  1  0  0  0
 21 23  1  0  0  0
 22 28  1  0  0  0
 22 32  2  0  0  0
 26 27  1  0  0  0
 28106  1  0  0  0
 28107  1  0  0  0
 29108  1  0  0  0
 29109  1  0  0  0
 33 34  1  0  0  0
 33 66  1  0  0  0
 33 70  2  0  0  0
 34 36  1  0  0  0
 34 59  1  0  0  0
 34110  1  0  0  0
 35 44  2  0  0  0
 35 45  1  0  0  0
 35 68  1  0  0  0
 36 56  1  0  0  0
 36111  1  0  0  0
 37 39  1  0  0  0
 37 47  1  0  0  0
 37 66  1  0  0  0
 37112  1  0  0  0
 38 43  2  0  0  0
 38 46  1  0  0  0
 38 47  1  0  0  0
 39 64  1  0  0  0
 39 67  2  0  0  0
 40 52  1  0  0  0
 40 53  2  0  0  0
 40 58  1  0  0  0
 41113  1  0  0  0
 41114  1  0  0  0
 41115  1  0  0  0
 41 48  1  0  0  0
 42 43  1  0  0  0
 42 66  1  0  0  0
 42116  1  0  0  0
 42117  1  0  0  0
 43 44  1  0  0  0
 44118  1  0  0  0
 45 46  2  0  0  0
 45119  1  0  0  0
 46120  1  0  0  0
 47121  1  0  0  0
 47122  1  0  0  0
 48 56  1  0  0  0
 48 65  1  0  0  0
 48123  1  0  0  0
 49 50  1  0  0  0
 49 53  1  0  0  0
 49 64  1  0  0  0
 49124  1  0  0  0
 50 51  1  0  0  0
 50125  1  0  0  0
 50126  1  0  0  0
 51 52  1  0  0  0
 51127  1  0  0  0
 51128  1  0  0  0
 52129  1  0  0  0
 52130  1  0  0  0
 53 54  1  0  0  0
 54 55  2  0  0  0
 54131  1  0  0  0
 55 57  1  0  0  0
 55132  1  0  0  0
 56 69  2  0  0  0
 57 58  2  0  0  0
 57133  1  0  0  0
 58134  1  0  0  0
 59 60  1  0  0  0
 59 61  1  0  0  0
 59 62  1  0  0  0
 60135  1  0  0  0
 60136  1  0  0  0
 60137  1  0  0  0
 61138  1  0  0  0
 61139  1  0  0  0
 61140  1  0  0  0
 62141  1  0  0  0
 62142  1  0  0  0
 62143  1  0  0  0
 63 65  1  0  0  0
 63144  1  0  0  0
 63145  1  0  0  0
 63146  1  0  0  0
 64147  1  0  0  0
 65148  1  0  0  0
 68 83  1  0  0  0
 71 72  2  0  0  0
 71 73  1  0  0  0
 71149  1  0  0  0
 72 74  1  0  0  0
 72150  1  0  0  0
 73 75  2  0  0  0
 73151  1  0  0  0
 74 76  2  0  0  0
 74 77  1  0  0  0
 75 76  1  0  0  0
 75 79  1  0  0  0
 76 86  1  0  0  0
 77 85  1  0  0  0
 77 88  2  0  0  0
 78 84  1  0  0  0
 78 87  1  0  0  0
 78 89  2  0  0  0
 79152  1  0  0  0
 79153  1  0  0  0
 79154  1  0  0  0
 80 81  1  0  0  0
 80155  1  0  0  0
 80156  1  0  0  0
 80157  1  0  0  0
 81158  1  0  0  0
 81159  1  0  0  0
 81 84  1  0  0  0
 82 83  1  0  0  0
 82 87  1  0  0  0
 82160  1  0  0  0
 82161  1  0  0  0
 83162  1  0  0  0
 83163  1  0  0  0
 84 88  1  0  0  0
 84164  1  0  0  0
 85165  1  0  0  0
 85166  1  0  0  0
 86167  1  0  0  0
 87168  1  0  0  0
 88169  1  0  0  0
M  CHG  1  88   1
M  ISO  4   1 100  68 101  83 101  86 100
M  END
> <chiral flag>
0

> <version>
0

> <s_m_source_file>
/data/baiqing/PycharmProjects/Reinvent-master-3.2/result/LINK_invent/BTK/process_docking_weight1_custom_product_contain_oxygen_bond_distance_aromatic_linkinvent_7_9_3/rearranged_h_0052.sdf

> <i_m_source_file_index>
31

> <r_mmod_Potential_Energy-OPLS-2005>
-163.713562011719

> <r_mmod_Stretch_Energy-OPLS-2005>
45.6896209716797

> <r_mmod_Bend_Energy-OPLS-2005>
130.199768066406

> <r_mmod_Torsional_Energy-OPLS-2005>
352.772216796875

> <r_mmod_Improper_Torsional_Energy-OPLS-2005>
15.8557729721069

> <r_mmod_Van_der_Waal_Energy-OPLS-2005>
155.102828979492

> <r_mmod_Electrostatic_Energy-OPLS-2005>
-496.754577636719

> <r_mmod_Solvation_Energy-OPLS-2005>
-407.941284179688

> <b_mmod_Minimization_Converged-OPLS-2005>
0

> <r_mmod_RMS_Derivative-OPLS-2005>
5.5241584777832

$$$$
31
                    3D
 Structure written by MMmdl.
163171  0  0  1  0            999 V2000
  -30.6211  -14.5449   20.5750 C   0  0  0  0  0  0
  -30.4419  -12.3534   19.4261 C   0  0  0  0  0  0
  -29.5073  -12.5104   18.2052 C   0  0  0  0  0  0
  -28.0272  -12.3478   18.6161 C   0  0  0  0  0  0
  -27.6545  -13.1971   19.8612 C   0  0  2  0  0  0
  -28.6929  -12.9826   20.9831 C   0  0  0  0  0  0
  -25.2558  -13.8110   20.5645 C   0  0  0  0  0  0
  -24.1809  -13.0402   20.9163 C   0  0  0  0  0  0
  -24.6359  -11.6865   20.8702 C   0  0  0  0  0  0
  -23.9021  -10.4264   21.0371 C   0  0  0  0  0  0
  -24.3590   -9.4199   21.9159 C   0  0  0  0  0  0
  -23.6283   -8.2228   22.0744 C   0  0  0  0  0  0
  -22.4260   -8.0256   21.3543 C   0  0  0  0  0  0
  -21.9881   -9.0213   20.4635 C   0  0  0  0  0  0
  -22.7199  -10.2096   20.3026 C   0  0  0  0  0  0
  -21.6837   -6.0713   22.5276 C   0  0  0  0  0  0
  -21.4011   -6.5618   23.8212 C   0  0  0  0  0  0
  -21.3674   -5.6774   24.9176 C   0  0  0  0  0  0
  -21.6044   -4.3037   24.7221 C   0  0  0  0  0  0
  -21.8830   -3.8126   23.4345 C   0  0  0  0  0  0
  -21.9199   -4.6943   22.3405 C   0  0  0  0  0  0
  -22.7848  -13.5217   21.1860 C   0  0  0  0  0  0
  -22.1661   -4.2127   21.0977 F   0  0  0  0  0  0
  -21.5638   -3.4529   25.7741 F   0  0  0  0  0  0
  -30.0150  -13.3321   20.4376 N   0  0  0  0  0  0
  -26.2966  -12.9257   20.3249 N   0  0  0  0  0  0
  -25.9267  -11.6435   20.5664 N   0  0  0  0  0  0
  -22.0481  -12.8210   22.0413 N   0  0  0  0  0  0
  -25.4250  -15.1848   20.4091 N   0  0  0  0  0  0
  -31.7772  -14.7616   20.1974 O   0  0  0  0  0  0
  -21.6634   -6.8848   21.4236 O   0  0  0  0  0  0
  -22.3540  -14.5532   20.6722 O   0  0  0  0  0  0
  -24.6216  -31.8659   23.2050 C   0  0  0  0  0  0
  -25.9086  -32.4831   23.8371 C   0  0  1  0  0  0
  -27.2193  -27.3798   20.1144 C   0  0  0  0  0  0
  -25.5960  -33.8644   24.2310 N   0  0  0  0  0  0
  -23.4125  -30.4888   21.5470 C   0  0  2  0  0  0
  -24.8549  -28.9524   20.1102 C   0  0  0  0  0  0
  -22.7448  -29.4642   22.4959 C   0  0  0  0  0  0
  -18.0262  -28.1361   22.8468 C   0  0  0  0  0  0
  -24.1483  -36.7287   23.2636 C   0  0  0  0  0  0
  -25.9489  -30.8168   21.3679 C   0  0  0  0  0  0
  -26.0209  -29.4490   20.7097 C   0  0  0  0  0  0
  -27.2095  -28.6736   20.6985 C   0  0  0  0  0  0
  -26.0387  -26.9175   19.4984 C   0  0  0  0  0  0
  -24.8632  -27.6903   19.4935 C   0  0  0  0  0  0
  -23.6213  -29.8257   20.1602 C   0  0  0  0  0  0
  -25.4118  -36.3129   24.0327 C   0  0  1  0  0  0
  -20.5864  -28.3677   23.1290 C   0  0  2  0  0  0
  -20.6751  -26.9412   22.5409 C   0  0  0  0  0  0
  -19.5729  -26.6375   21.5206 C   0  0  0  0  0  0
  -18.1904  -26.7899   22.1607 C   0  0  0  0  0  0
  -19.1518  -28.8824   23.2868 C   0  0  0  0  0  0
  -18.9452  -30.1418   23.8896 C   0  0  0  0  0  0
  -17.6456  -30.6567   24.0554 C   0  0  0  0  0  0
  -25.9055  -34.9501   23.5102 C   0  0  0  0  0  0
  -16.5341  -29.9073   23.6315 C   0  0  0  0  0  0
  -16.7250  -28.6484   23.0341 C   0  0  0  0  0  0
  -26.4475  -31.6624   25.0715 C   0  0  0  0  0  0
  -25.3701  -31.3748   26.1419 C   0  0  0  0  0  0
  -27.0319  -30.3065   24.6127 C   0  0  0  0  0  0
  -27.6056  -32.4350   25.7466 C   0  0  0  0  0  0
  -27.5565  -37.1802   24.8467 C   0  0  0  0  0  0
  -21.4161  -29.3060   22.3725 N   0  0  0  0  0  0
  -26.4288  -37.3819   23.9415 N   0  0  0  0  0  0
  -24.6801  -31.0722   22.0979 N   0  0  0  0  0  0
  -23.4206  -28.8174   23.3007 O   0  0  0  0  0  0
  -28.3518  -26.5795   20.1380 O   0  0  0  0  0  0
  -26.5599  -34.8957   22.4652 O   0  0  0  0  0  0
  -23.5394  -32.1420   23.7402 O   0  0  0  0  0  0
  -30.4639  -18.3609   23.2768 C   0  0  0  0  0  0
  -30.3571  -17.0598   22.7499 C   0  0  0  0  0  0
  -29.7786  -18.0180   20.5902 C   0  0  0  0  0  0
  -29.9065  -19.3521   21.0976 C   0  0  0  0  0  0
  -30.2557  -19.5054   22.4738 C   0  0  0  0  0  0
  -30.0205  -16.8692   21.3969 C   0  0  0  0  0  0
  -29.8339  -20.5313   20.1259 C   0  0  0  0  0  0
  -30.4550  -20.8627   23.1394 C   0  0  0  0  0  0
  -27.1904  -23.2285   19.2061 C   0  0  0  0  0  0
  -28.9096  -24.7230   18.1920 C   0  0  0  0  0  0
  -29.6279  -23.0413   19.9297 C   0  0  0  0  0  0
  -28.1809  -25.1878   20.5620 C   0  0  0  0  0  0
  -28.4706  -24.0402   19.5057 C   0  0  0  0  0  0
  -29.7654  -15.5378   20.9291 N   0  0  0  0  0  0
  -29.2893  -21.7126   20.5204 N   0  0  0  0  0  0
  -30.3158  -20.3878   19.0016 O   0  0  0  0  0  0
  -31.4845  -12.4939   19.1339 H   0  0  0  0  0  0
  -30.3788  -11.3404   19.8284 H   0  0  0  0  0  0
  -29.7658  -11.7744   17.4429 H   0  0  0  0  0  0
  -29.6574  -13.4878   17.7455 H   0  0  0  0  0  0
  -27.8663  -11.2914   18.8305 H   0  0  0  0  0  0
  -27.3698  -12.5862   17.7792 H   0  0  0  0  0  0
  -27.6888  -14.2404   19.5505 H   0  0  0  0  0  0
  -28.6841  -11.9393   21.3020 H   0  0  0  0  0  0
  -28.4428  -13.5581   21.8753 H   0  0  0  0  0  0
  -25.2733   -9.5688   22.4738 H   0  0  0  0  0  0
  -23.9996   -7.4613   22.7459 H   0  0  0  0  0  0
  -21.0815   -8.8713   19.8945 H   0  0  0  0  0  0
  -22.3642  -10.9625   19.6132 H   0  0  0  0  0  0
  -21.1989   -7.6121   23.9716 H   0  0  0  0  0  0
  -21.1497   -6.0493   25.9078 H   0  0  0  0  0  0
  -22.0604   -2.7585   23.2847 H   0  0  0  0  0  0
  -22.4080  -11.9883   22.4829 H   0  0  0  0  0  0
  -21.1095  -13.1236   22.2587 H   0  0  0  0  0  0
  -24.6506  -15.8305   20.5179 H   0  0  0  0  0  0
  -26.2671  -15.6352   20.0740 H   0  0  0  0  0  0
  -26.7173  -32.5492   23.1148 H   0  0  0  0  0  0
  -25.0233  -33.9840   25.0535 H   0  0  0  0  0  0
  -22.7057  -31.3097   21.4089 H   0  0  0  0  0  0
  -23.3782  -35.9586   23.3336 H   0  0  0  0  0  0
  -24.3536  -36.8854   22.2036 H   0  0  0  0  0  0
  -23.7187  -37.6481   23.6618 H   0  0  0  0  0  0
  -26.0780  -31.5848   20.6049 H   0  0  0  0  0  0
  -26.8328  -30.8577   21.9932 H   0  0  0  0  0  0
  -28.1086  -29.0513   21.1637 H   0  0  0  0  0  0
  -26.0187  -25.9527   19.0181 H   0  0  0  0  0  0
  -23.9741  -27.3030   19.0162 H   0  0  0  0  0  0
  -23.7399  -30.6041   19.4061 H   0  0  0  0  0  0
  -22.7446  -29.2526   19.8556 H   0  0  0  0  0  0
  -25.1304  -36.1992   25.0819 H   0  0  0  0  0  0
  -20.9911  -28.3225   24.1427 H   0  0  0  0  0  0
  -20.5650  -26.2293   23.3601 H   0  0  0  0  0  0
  -21.6621  -26.7444   22.1221 H   0  0  0  0  0  0
  -19.6911  -25.6293   21.1218 H   0  0  0  0  0  0
  -19.6653  -27.3198   20.6746 H   0  0  0  0  0  0
  -17.4185  -26.6636   21.4003 H   0  0  0  0  0  0
  -18.0304  -26.0032   22.8993 H   0  0  0  0  0  0
  -19.7941  -30.7206   24.2287 H   0  0  0  0  0  0
  -17.5023  -31.6251   24.5162 H   0  0  0  0  0  0
  -15.5343  -30.2993   23.7627 H   0  0  0  0  0  0
  -15.8632  -28.0805   22.7074 H   0  0  0  0  0  0
  -24.5894  -30.7099   25.7698 H   0  0  0  0  0  0
  -24.8879  -32.2909   26.4843 H   0  0  0  0  0  0
  -25.7990  -30.8893   27.0188 H   0  0  0  0  0  0
  -26.2871  -29.6823   24.1164 H   0  0  0  0  0  0
  -27.4067  -29.7309   25.4600 H   0  0  0  0  0  0
  -27.8723  -30.4410   23.9311 H   0  0  0  0  0  0
  -27.2703  -33.3674   26.2029 H   0  0  0  0  0  0
  -28.3835  -32.6869   25.0243 H   0  0  0  0  0  0
  -28.0749  -31.8471   26.5364 H   0  0  0  0  0  0
  -28.2633  -38.0061   24.7524 H   0  0  0  0  0  0
  -28.1013  -36.2598   24.6309 H   0  0  0  0  0  0
  -27.2258  -37.1447   25.8862 H   0  0  0  0  0  0
  -20.9319  -29.8846   21.7002 H   0  0  0  0  0  0
  -26.0180  -38.2897   24.1436 H   0  0  0  0  0  0
  -30.7255  -18.4756   24.3201 H   0  0  0  0  0  0
  -30.5162  -16.2116   23.4011 H   0  0  0  0  0  0
  -29.4998  -17.8808   19.5555 H   0  0  0  0  0  0
  -30.9108  -20.7674   24.1259 H   0  0  0  0  0  0
  -29.4969  -21.3630   23.2802 H   0  0  0  0  0  0
  -31.1086  -21.5108   22.5541 H   0  0  0  0  0  0
  -27.3963  -22.4242   18.4974 H   0  0  0  0  0  0
  -26.4037  -23.8410   18.7689 H   0  0  0  0  0  0
  -26.7794  -22.7720   20.1062 H   0  0  0  0  0  0
  -29.0495  -24.0002   17.3873 H   0  0  0  0  0  0
  -29.8550  -25.2510   18.3229 H   0  0  0  0  0  0
  -28.1735  -25.4507   17.8480 H   0  0  0  0  0  0
  -30.2973  -23.5353   20.6338 H   0  0  0  0  0  0
  -30.2569  -22.8640   19.0556 H   0  0  0  0  0  0
  -28.8455  -25.0569   21.4153 H   0  0  0  0  0  0
  -27.1911  -25.0416   20.9984 H   0  0  0  0  0  0
  -28.8191  -15.2162   21.0592 H   0  0  0  0  0  0
  -28.8283  -21.7135   21.4172 H   0  0  0  0  0  0
  1 25  1  0  0  0
  1 30  2  0  0  0
  1 84  1  0  0  0
  2  3  1  0  0  0
  2 25  1  0  0  0
  2 87  1  0  0  0
  2 88  1  0  0  0
  3  4  1  0  0  0
  3 89  1  0  0  0
  3 90  1  0  0  0
  4  5  1  0  0  0
  4 91  1  0  0  0
  4 92  1  0  0  0
  5  6  1  0  0  0
  5 26  1  0  0  0
  5 93  1  0  0  0
  6 25  1  0  0  0
  6 94  1  0  0  0
  6 95  1  0  0  0
  7  8  2  0  0  0
  7 26  1  0  0  0
  7 29  1  0  0  0
  8  9  1  0  0  0
  8 22  1  0  0  0
  9 10  1  0  0  0
  9 27  2  0  0  0
 10 11  2  0  0  0
 10 15  1  0  0  0
 11 12  1  0  0  0
 11 96  1  0  0  0
 12 13  2  0  0  0
 12 97  1  0  0  0
 13 14  1  0  0  0
 13 31  1  0  0  0
 14 15  2  0  0  0
 14 98  1  0  0  0
 15 99  1  0  0  0
 16 17  2  0  0  0
 16 21  1  0  0  0
 16 31  1  0  0  0
 17 18  1  0  0  0
 17100  1  0  0  0
 18 19  2  0  0  0
 18101  1  0  0  0
 19 20  1  0  0  0
 19 24  1  0  0  0
 20 21  2  0  0  0
 20102  1  0  0  0
 21 23  1  0  0  0
 22 28  1  0  0  0
 22 32  2  0  0  0
 26 27  1  0  0  0
 28103  1  0  0  0
 28104  1  0  0  0
 29105  1  0  0  0
 29106  1  0  0  0
 33 34  1  0  0  0
 33 66  1  0  0  0
 33 70  2  0  0  0
 34 36  1  0  0  0
 34 59  1  0  0  0
 34107  1  0  0  0
 35 44  2  0  0  0
 35 45  1  0  0  0
 35 68  1  0  0  0
 36 56  1  0  0  0
 36108  1  0  0  0
 37 39  1  0  0  0
 37 47  1  0  0  0
 37 66  1  0  0  0
 37109  1  0  0  0
 38 43  2  0  0  0
 38 46  1  0  0  0
 38 47  1  0  0  0
 39 64  1  0  0  0
 39 67  2  0  0  0
 40 52  1  0  0  0
 40 53  2  0  0  0
 40 58  1  0  0  0
 41110  1  0  0  0
 41111  1  0  0  0
 41112  1  0  0  0
 41 48  1  0  0  0
 42 43  1  0  0  0
 42 66  1  0  0  0
 42113  1  0  0  0
 42114  1  0  0  0
 43 44  1  0  0  0
 44115  1  0  0  0
 45 46  2  0  0  0
 45116  1  0  0  0
 46117  1  0  0  0
 47118  1  0  0  0
 47119  1  0  0  0
 48 56  1  0  0  0
 48 65  1  0  0  0
 48120  1  0  0  0
 49 50  1  0  0  0
 49 53  1  0  0  0
 49 64  1  0  0  0
 49121  1  0  0  0
 50 51  1  0  0  0
 50122  1  0  0  0
 50123  1  0  0  0
 51 52  1  0  0  0
 51124  1  0  0  0
 51125  1  0  0  0
 52126  1  0  0  0
 52127  1  0  0  0
 53 54  1  0  0  0
 54 55  2  0  0  0
 54128  1  0  0  0
 55 57  1  0  0  0
 55129  1  0  0  0
 56 69  2  0  0  0
 57 58  2  0  0  0
 57130  1  0  0  0
 58131  1  0  0  0
 59 60  1  0  0  0
 59 61  1  0  0  0
 59 62  1  0  0  0
 60132  1  0  0  0
 60133  1  0  0  0
 60134  1  0  0  0
 61135  1  0  0  0
 61136  1  0  0  0
 61137  1  0  0  0
 62138  1  0  0  0
 62139  1  0  0  0
 62140  1  0  0  0
 63 65  1  0  0  0
 63141  1  0  0  0
 63142  1  0  0  0
 63143  1  0  0  0
 64144  1  0  0  0
 65145  1  0  0  0
 68 82  1  0  0  0
 71 72  2  0  0  0
 71 75  1  0  0  0
 71146  1  0  0  0
 72 76  1  0  0  0
 72147  1  0  0  0
 73 74  1  0  0  0
 73 76  2  0  0  0
 73148  1  0  0  0
 74 75  2  0  0  0
 74 77  1  0  0  0
 75 78  1  0  0  0
 76 84  1  0  0  0
 77 85  1  0  0  0
 77 86  2  0  0  0
 78149  1  0  0  0
 78150  1  0  0  0
 78151  1  0  0  0
 79152  1  0  0  0
 79153  1  0  0  0
 79154  1  0  0  0
 79 83  1  0  0  0
 80 83  1  0  0  0
 80155  1  0  0  0
 80156  1  0  0  0
 80157  1  0  0  0
 81 83  1  0  0  0
 81 85  1  0  0  0
 81158  1  0  0  0
 81159  1  0  0  0
 82 83  1  0  0  0
 82160  1  0  0  0
 82161  1  0  0  0
 84162  1  0  0  0
 85163  1  0  0  0
M  ISO  4   1 100  68 101  82 101  84 100
M  END
> <chiral flag>
0

> <version>
0

> <s_m_source_file>
/data/baiqing/PycharmProjects/Reinvent-master-3.2/result/LINK_invent/BTK/process_docking_weight1_custom_product_contain_oxygen_bond_distance_aromatic_linkinvent_7_9_3/rearranged_h_0052.sdf

> <i_m_source_file_index>
32

> <r_mmod_Potential_Energy-OPLS-2005>
24.2681560516357

> <r_mmod_Stretch_Energy-OPLS-2005>
58.2210235595703

> <r_mmod_Bend_Energy-OPLS-2005>
123.826934814453

> <r_mmod_Torsional_Energy-OPLS-2005>
310.17724609375

> <r_mmod_Improper_Torsional_Energy-OPLS-2005>
8.08870220184326

> <r_mmod_Van_der_Waal_Energy-OPLS-2005>
159.053298950195

> <r_mmod_Electrostatic_Energy-OPLS-2005>
-435.869689941406

> <r_mmod_Solvation_Energy-OPLS-2005>
-226.354827880859

> <b_mmod_Minimization_Converged-OPLS-2005>
0

> <r_mmod_RMS_Derivative-OPLS-2005>
3.25488829612732

$$$$
32
                    3D
 Structure written by MMmdl.
158166  0  0  1  0            999 V2000
  -30.5802  -14.7423   20.5535 C   0  0  0  0  0  0
  -30.4475  -12.5041   19.4571 C   0  0  0  0  0  0
  -29.5034  -12.5090   18.2345 C   0  0  0  0  0  0
  -28.0291  -12.3382   18.6527 C   0  0  0  0  0  0
  -27.6333  -13.2296   19.8559 C   0  0  2  0  0  0
  -28.6768  -13.1348   20.9914 C   0  0  0  0  0  0
  -25.2475  -13.8151   20.5777 C   0  0  0  0  0  0
  -24.1813  -13.0416   20.9244 C   0  0  0  0  0  0
  -24.6432  -11.6835   20.8832 C   0  0  0  0  0  0
  -23.9128  -10.4174   21.0442 C   0  0  0  0  0  0
  -24.3696   -9.4089   21.9250 C   0  0  0  0  0  0
  -23.6333   -8.2166   22.0848 C   0  0  0  0  0  0
  -22.4319   -8.0223   21.3630 C   0  0  0  0  0  0
  -21.9955   -9.0153   20.4730 C   0  0  0  0  0  0
  -22.7281  -10.2025   20.3119 C   0  0  0  0  0  0
  -21.6784   -6.0725   22.5246 C   0  0  0  0  0  0
  -21.3863   -6.5631   23.8156 C   0  0  0  0  0  0
  -21.3730   -5.6830   24.9166 C   0  0  0  0  0  0
  -21.6149   -4.3090   24.7209 C   0  0  0  0  0  0
  -21.8833   -3.8145   23.4292 C   0  0  0  0  0  0
  -21.9164   -4.6953   22.3354 C   0  0  0  0  0  0
  -22.7806  -13.5090   21.1806 C   0  0  0  0  0  0
  -22.1639   -4.2162   21.0931 F   0  0  0  0  0  0
  -21.5813   -3.4584   25.7722 F   0  0  0  0  0  0
  -29.9626  -13.5277   20.4083 N   0  0  0  0  0  0
  -26.2906  -12.9402   20.3388 N   0  0  0  0  0  0
  -25.9395  -11.6506   20.5893 N   0  0  0  0  0  0
  -22.0445  -12.8139   22.0355 N   0  0  0  0  0  0
  -25.4127  -15.1901   20.4181 N   0  0  0  0  0  0
  -31.7479  -14.8883   20.1807 O   0  0  0  0  0  0
  -21.6683   -6.8859   21.4224 O   0  0  0  0  0  0
  -22.3527  -14.5372   20.6503 O   0  0  0  0  0  0
  -24.6310  -31.8485   23.1938 C   0  0  0  0  0  0
  -25.9153  -32.4753   23.8261 C   0  0  1  0  0  0
  -27.2340  -27.2757   20.0829 C   0  0  0  0  0  0
  -25.5921  -33.8547   24.2185 N   0  0  0  0  0  0
  -23.4247  -30.4641   21.5446 C   0  0  2  0  0  0
  -24.8667  -28.8827   20.1245 C   0  0  0  0  0  0
  -22.7578  -29.4451   22.4971 C   0  0  0  0  0  0
  -18.0279  -28.1301   22.8373 C   0  0  0  0  0  0
  -24.1503  -36.7327   23.2627 C   0  0  0  0  0  0
  -25.9669  -30.7501   21.3674 C   0  0  0  0  0  0
  -26.0333  -29.3642   20.7272 C   0  0  0  0  0  0
  -27.2094  -28.5582   20.7147 C   0  0  0  0  0  0
  -26.0374  -26.8340   19.4848 C   0  0  0  0  0  0
  -24.8640  -27.6121   19.5170 C   0  0  0  0  0  0
  -23.6444  -29.7845   20.1629 C   0  0  0  0  0  0
  -25.4126  -36.3074   24.0318 C   0  0  1  0  0  0
  -20.5918  -28.3444   23.1163 C   0  0  2  0  0  0
  -20.6843  -26.9291   22.5122 C   0  0  0  0  0  0
  -19.5651  -26.6065   21.5155 C   0  0  0  0  0  0
  -18.1799  -26.7807   22.1496 C   0  0  0  0  0  0
  -19.1620  -28.8638   23.2804 C   0  0  0  0  0  0
  -18.9608  -30.1230   23.8918 C   0  0  0  0  0  0
  -17.6662  -30.6416   24.0696 C   0  0  0  0  0  0
  -25.9080  -34.9439   23.5070 C   0  0  0  0  0  0
  -16.5497  -29.9044   23.6442 C   0  0  0  0  0  0
  -16.7347  -28.6518   23.0305 C   0  0  0  0  0  0
  -26.4461  -31.6598   25.0683 C   0  0  0  0  0  0
  -25.3681  -31.3769   26.1412 C   0  0  0  0  0  0
  -27.0317  -30.3020   24.6153 C   0  0  0  0  0  0
  -27.5998  -32.4332   25.7488 C   0  0  0  0  0  0
  -27.5592  -37.1817   24.8465 C   0  0  0  0  0  0
  -21.4240  -29.2939   22.3796 N   0  0  0  0  0  0
  -26.4310  -37.3766   23.9403 N   0  0  0  0  0  0
  -24.6966  -31.0415   22.0912 N   0  0  0  0  0  0
  -23.4318  -28.7911   23.2996 O   0  0  0  0  0  0
  -28.3779  -26.4645   20.1314 O   0  0  0  0  0  0
  -26.5647  -34.8931   22.4625 O   0  0  0  0  0  0
  -23.5466  -32.1335   23.7215 O   0  0  0  0  0  0
  -29.5783  -17.9520   24.6033 C   0  0  0  0  0  0
  -28.9048  -18.4562   23.4785 C   0  0  0  0  0  0
  -30.4097  -16.8358   24.4535 C   0  0  0  0  0  0
  -29.2147  -18.0322   22.1596 C   0  0  0  0  0  0
  -29.8524  -16.7141   22.0414 C   0  0  0  0  0  0
  -30.4474  -16.1587   23.2255 C   0  0  0  0  0  0
  -29.0892  -22.8767   20.0624 C   0  0  0  0  0  0
  -28.3521  -23.8645   19.4487 C   0  0  0  0  0  0
  -28.6956  -21.4196   20.0413 C   0  0  0  0  0  0
  -29.6112  -21.1071   22.3256 C   0  0  0  0  0  0
  -28.7523  -19.0476   21.0237 C   0  0  0  0  0  0
  -28.6549  -25.3856   19.1589 C   0  0  0  0  0  0
  -29.7918  -15.8419   20.8643 N   0  0  0  0  0  0
  -29.1317  -20.5531   21.0436 N   0  0  0  0  0  0
  -28.0194  -20.9585   19.1090 O   0  0  0  0  0  0
  -31.0120  -14.9242   23.2356 F   0  0  0  0  0  0
  -31.4650  -12.7175   19.1209 H   0  0  0  0  0  0
  -30.4976  -11.5313   19.9391 H   0  0  0  0  0  0
  -29.7997  -11.7172   17.5542 H   0  0  0  0  0  0
  -29.6133  -13.4465   17.6872 H   0  0  0  0  0  0
  -27.8820  -11.2920   18.9127 H   0  0  0  0  0  0
  -27.3672  -12.5496   17.8107 H   0  0  0  0  0  0
  -27.6349  -14.2550   19.4846 H   0  0  0  0  0  0
  -28.7303  -12.1189   21.3896 H   0  0  0  0  0  0
  -28.3849  -13.7614   21.8419 H   0  0  0  0  0  0
  -25.2889   -9.5527   22.4824 H   0  0  0  0  0  0
  -24.0072   -7.4528   22.7510 H   0  0  0  0  0  0
  -21.0968   -8.8577   19.8971 H   0  0  0  0  0  0
  -22.3713  -10.9554   19.6192 H   0  0  0  0  0  0
  -21.1650   -7.6099   23.9648 H   0  0  0  0  0  0
  -21.1685   -6.0557   25.9110 H   0  0  0  0  0  0
  -22.0592   -2.7604   23.2724 H   0  0  0  0  0  0
  -22.4061  -11.9820   22.4781 H   0  0  0  0  0  0
  -21.1060  -13.1140   22.2641 H   0  0  0  0  0  0
  -24.6312  -15.8317   20.5195 H   0  0  0  0  0  0
  -26.2365  -15.6174   20.0195 H   0  0  0  0  0  0
  -26.7225  -32.5297   23.0970 H   0  0  0  0  0  0
  -25.0151  -33.9632   25.0386 H   0  0  0  0  0  0
  -22.7172  -31.2779   21.4017 H   0  0  0  0  0  0
  -23.3749  -35.9673   23.3294 H   0  0  0  0  0  0
  -24.3600  -36.8952   22.2032 H   0  0  0  0  0  0
  -23.7263  -37.6538   23.6661 H   0  0  0  0  0  0
  -26.0911  -31.4788   20.5672 H   0  0  0  0  0  0
  -26.8531  -30.8050   21.9891 H   0  0  0  0  0  0
  -28.1073  -28.9079   21.2056 H   0  0  0  0  0  0
  -25.9874  -25.8605   19.0238 H   0  0  0  0  0  0
  -23.9591  -27.2118   19.0801 H   0  0  0  0  0  0
  -23.7964  -30.5667   19.4176 H   0  0  0  0  0  0
  -22.7475  -29.2487   19.8448 H   0  0  0  0  0  0
  -25.1295  -36.1908   25.0811 H   0  0  0  0  0  0
  -21.0002  -28.2875   24.1304 H   0  0  0  0  0  0
  -20.6216  -26.2021   23.3216 H   0  0  0  0  0  0
  -21.6523  -26.7468   22.0466 H   0  0  0  0  0  0
  -19.6646  -27.2345   20.6331 H   0  0  0  0  0  0
  -19.6743  -25.5821   21.1598 H   0  0  0  0  0  0
  -17.4169  -26.6936   21.3793 H   0  0  0  0  0  0
  -17.9868  -25.9848   22.8772 H   0  0  0  0  0  0
  -19.8144  -30.6923   24.2389 H   0  0  0  0  0  0
  -17.5356  -31.6008   24.5489 H   0  0  0  0  0  0
  -15.5469  -30.2885   23.7858 H   0  0  0  0  0  0
  -15.8704  -28.0879   22.7072 H   0  0  0  0  0  0
  -24.5866  -30.7090   25.7758 H   0  0  0  0  0  0
  -24.8901  -32.2986   26.4760 H   0  0  0  0  0  0
  -25.8023  -30.9015   27.0223 H   0  0  0  0  0  0
  -26.2932  -29.6754   24.1199 H   0  0  0  0  0  0
  -27.4021  -29.7238   25.4621 H   0  0  0  0  0  0
  -27.8754  -30.4294   23.9386 H   0  0  0  0  0  0
  -27.2597  -33.3611   26.2066 H   0  0  0  0  0  0
  -28.3864  -32.6901   25.0405 H   0  0  0  0  0  0
  -28.0627  -31.8473   26.5428 H   0  0  0  0  0  0
  -28.2590  -38.0123   24.7491 H   0  0  0  0  0  0
  -28.1093  -36.2647   24.6325 H   0  0  0  0  0  0
  -27.2326  -37.1531   25.8869 H   0  0  0  0  0  0
  -20.9269  -29.8924   21.7328 H   0  0  0  0  0  0
  -26.0199  -38.2846   24.1377 H   0  0  0  0  0  0
  -29.4260  -18.3940   25.5817 H   0  0  0  0  0  0
  -28.2018  -19.2657   23.6252 H   0  0  0  0  0  0
  -30.8904  -16.4226   25.3199 H   0  0  0  0  0  0
  -30.0267  -23.1686   20.5235 H   0  0  0  0  0  0
  -27.4265  -23.5283   18.9962 H   0  0  0  0  0  0
  -28.7205  -21.2545   22.9382 H   0  0  0  0  0  0
  -30.1010  -22.0807   22.2946 H   0  0  0  0  0  0
  -30.3061  -20.4398   22.8555 H   0  0  0  0  0  0
  -27.6679  -19.0879   21.1282 H   0  0  0  0  0  0
  -28.9021  -18.5954   20.0423 H   0  0  0  0  0  0
  -29.7252  -25.4277   18.9327 H   0  0  0  0  0  0
  -28.1802  -25.6428   18.2136 H   0  0  0  0  0  0
  -28.9093  -15.9087   20.3792 H   0  0  0  0  0  0
  1 25  1  0  0  0
  1 30  2  0  0  0
  1 83  1  0  0  0
  2  3  1  0  0  0
  2 25  1  0  0  0
  2 87  1  0  0  0
  2 88  1  0  0  0
  3  4  1  0  0  0
  3 89  1  0  0  0
  3 90  1  0  0  0
  4  5  1  0  0  0
  4 91  1  0  0  0
  4 92  1  0  0  0
  5  6  1  0  0  0
  5 26  1  0  0  0
  5 93  1  0  0  0
  6 25  1  0  0  0
  6 94  1  0  0  0
  6 95  1  0  0  0
  7  8  2  0  0  0
  7 26  1  0  0  0
  7 29  1  0  0  0
  8  9  1  0  0  0
  8 22  1  0  0  0
  9 10  1  0  0  0
  9 27  2  0  0  0
 10 11  2  0  0  0
 10 15  1  0  0  0
 11 12  1  0  0  0
 11 96  1  0  0  0
 12 13  2  0  0  0
 12 97  1  0  0  0
 13 14  1  0  0  0
 13 31  1  0  0  0
 14 15  2  0  0  0
 14 98  1  0  0  0
 15 99  1  0  0  0
 16 17  2  0  0  0
 16 21  1  0  0  0
 16 31  1  0  0  0
 17 18  1  0  0  0
 17100  1  0  0  0
 18 19  2  0  0  0
 18101  1  0  0  0
 19 20  1  0  0  0
 19 24  1  0  0  0
 20 21  2  0  0  0
 20102  1  0  0  0
 21 23  1  0  0  0
 22 28  1  0  0  0
 22 32  2  0  0  0
 26 27  1  0  0  0
 28103  1  0  0  0
 28104  1  0  0  0
 29105  1  0  0  0
 29106  1  0  0  0
 33 34  1  0  0  0
 33 66  1  0  0  0
 33 70  2  0  0  0
 34 36  1  0  0  0
 34 59  1  0  0  0
 34107  1  0  0  0
 35 44  2  0  0  0
 35 45  1  0  0  0
 35 68  1  0  0  0
 36 56  1  0  0  0
 36108  1  0  0  0
 37 39  1  0  0  0
 37 47  1  0  0  0
 37 66  1  0  0  0
 37109  1  0  0  0
 38 43  2  0  0  0
 38 46  1  0  0  0
 38 47  1  0  0  0
 39 64  1  0  0  0
 39 67  2  0  0  0
 40 52  1  0  0  0
 40 53  2  0  0  0
 40 58  1  0  0  0
 41110  1  0  0  0
 41111  1  0  0  0
 41112  1  0  0  0
 41 48  1  0  0  0
 42 43  1  0  0  0
 42 66  1  0  0  0
 42113  1  0  0  0
 42114  1  0  0  0
 43 44  1  0  0  0
 44115  1  0  0  0
 45 46  2  0  0  0
 45116  1  0  0  0
 46117  1  0  0  0
 47118  1  0  0  0
 47119  1  0  0  0
 48 56  1  0  0  0
 48 65  1  0  0  0
 48120  1  0  0  0
 49 50  1  0  0  0
 49 53  1  0  0  0
 49 64  1  0  0  0
 49121  1  0  0  0
 50 51  1  0  0  0
 50122  1  0  0  0
 50123  1  0  0  0
 51 52  1  0  0  0
 51124  1  0  0  0
 51125  1  0  0  0
 52126  1  0  0  0
 52127  1  0  0  0
 53 54  1  0  0  0
 54 55  2  0  0  0
 54128  1  0  0  0
 55 57  1  0  0  0
 55129  1  0  0  0
 56 69  2  0  0  0
 57 58  2  0  0  0
 57130  1  0  0  0
 58131  1  0  0  0
 59 60  1  0  0  0
 59 61  1  0  0  0
 59 62  1  0  0  0
 60132  1  0  0  0
 60133  1  0  0  0
 60134  1  0  0  0
 61135  1  0  0  0
 61136  1  0  0  0
 61137  1  0  0  0
 62138  1  0  0  0
 62139  1  0  0  0
 62140  1  0  0  0
 63 65  1  0  0  0
 63141  1  0  0  0
 63142  1  0  0  0
 63143  1  0  0  0
 64144  1  0  0  0
 65145  1  0  0  0
 68 82  1  0  0  0
 71 72  2  0  0  0
 71 73  1  0  0  0
 71146  1  0  0  0
 72 74  1  0  0  0
 72147  1  0  0  0
 73 76  2  0  0  0
 73148  1  0  0  0
 74 75  2  0  0  0
 74 81  1  0  0  0
 75 76  1  0  0  0
 75 83  1  0  0  0
 76 86  1  0  0  0
 77 78  2  0  0  0
 77 79  1  0  0  0
 77149  1  0  0  0
 78 82  1  0  0  0
 78150  1  0  0  0
 79 84  1  0  0  0
 79 85  2  0  0  0
 80 84  1  0  0  0
 80151  1  0  0  0
 80152  1  0  0  0
 80153  1  0  0  0
 81 84  1  0  0  0
 81154  1  0  0  0
 81155  1  0  0  0
 82156  1  0  0  0
 82157  1  0  0  0
 83158  1  0  0  0
M  ISO  4   1 100  68 101  82 101  83 100
M  END
> <chiral flag>
0

> <version>
0

> <s_m_source_file>
/data/baiqing/PycharmProjects/Reinvent-master-3.2/result/LINK_invent/BTK/process_docking_weight1_custom_product_contain_oxygen_bond_distance_aromatic_linkinvent_7_9_3/rearranged_h_0052.sdf

> <i_m_source_file_index>
33

> <r_mmod_Potential_Energy-OPLS-2005>
212.30158996582

> <r_mmod_Stretch_Energy-OPLS-2005>
119.522918701172

> <r_mmod_Bend_Energy-OPLS-2005>
187.881271362305

> <r_mmod_Torsional_Energy-OPLS-2005>
311.861083984375

> <r_mmod_Improper_Torsional_Energy-OPLS-2005>
11.0819892883301

> <r_mmod_Van_der_Waal_Energy-OPLS-2005>
163.684982299805

> <r_mmod_Electrostatic_Energy-OPLS-2005>
-432.557556152344

> <r_mmod_Solvation_Energy-OPLS-2005>
-231.525726318359

> <b_mmod_Minimization_Converged-OPLS-2005>
0

> <r_mmod_RMS_Derivative-OPLS-2005>
14.2599077224731

$$$$
33
                    3D
 Structure written by MMmdl.
164173  0  0  1  0            999 V2000
  -30.6223  -14.5814   20.5204 C   0  0  0  0  0  0
  -30.4184  -12.3538   19.4653 C   0  0  0  0  0  0
  -29.5107  -12.5134   18.2271 C   0  0  0  0  0  0
  -28.0249  -12.3859   18.6210 C   0  0  0  0  0  0
  -27.6506  -13.2242   19.8746 C   0  0  2  0  0  0
  -28.6831  -13.0357   21.0049 C   0  0  0  0  0  0
  -25.2503  -13.8197   20.5710 C   0  0  0  0  0  0
  -24.1791  -13.0436   20.9224 C   0  0  0  0  0  0
  -24.6374  -11.6917   20.8746 C   0  0  0  0  0  0
  -23.9045  -10.4300   21.0397 C   0  0  0  0  0  0
  -24.3595   -9.4204   21.9164 C   0  0  0  0  0  0
  -23.6270   -8.2247   22.0743 C   0  0  0  0  0  0
  -22.4252   -8.0280   21.3551 C   0  0  0  0  0  0
  -21.9871   -9.0264   20.4676 C   0  0  0  0  0  0
  -22.7204  -10.2132   20.3065 C   0  0  0  0  0  0
  -21.6854   -6.0713   22.5279 C   0  0  0  0  0  0
  -21.4028   -6.5614   23.8215 C   0  0  0  0  0  0
  -21.3666   -5.6774   24.9179 C   0  0  0  0  0  0
  -21.6039   -4.3038   24.7230 C   0  0  0  0  0  0
  -21.8808   -3.8127   23.4344 C   0  0  0  0  0  0
  -21.9184   -4.6940   22.3395 C   0  0  0  0  0  0
  -22.7809  -13.5235   21.1872 C   0  0  0  0  0  0
  -22.1651   -4.2127   21.0975 F   0  0  0  0  0  0
  -21.5624   -3.4512   25.7739 F   0  0  0  0  0  0
  -29.9998  -13.3704   20.4523 N   0  0  0  0  0  0
  -26.2954  -12.9399   20.3325 N   0  0  0  0  0  0
  -25.9305  -11.6531   20.5733 N   0  0  0  0  0  0
  -22.0420  -12.8282   22.0450 N   0  0  0  0  0  0
  -25.4112  -15.1918   20.4105 N   0  0  0  0  0  0
  -31.8051  -14.6869   20.1763 O   0  0  0  0  0  0
  -21.6634   -6.8860   21.4246 O   0  0  0  0  0  0
  -22.3481  -14.5506   20.6652 O   0  0  0  0  0  0
  -24.6228  -31.8638   23.2022 C   0  0  0  0  0  0
  -25.9107  -32.4810   23.8321 C   0  0  1  0  0  0
  -27.2238  -27.3208   20.1489 C   0  0  0  0  0  0
  -25.5944  -33.8604   24.2236 N   0  0  0  0  0  0
  -23.4138  -30.4843   21.5435 C   0  0  2  0  0  0
  -24.8631  -28.9353   20.1181 C   0  0  0  0  0  0
  -22.7474  -29.4622   22.4954 C   0  0  0  0  0  0
  -18.0274  -28.1472   22.8439 C   0  0  0  0  0  0
  -24.1476  -36.7334   23.2630 C   0  0  0  0  0  0
  -25.9489  -30.8071   21.3617 C   0  0  0  0  0  0
  -26.0295  -29.4266   20.7207 C   0  0  0  0  0  0
  -27.2098  -28.6314   20.7212 C   0  0  0  0  0  0
  -26.0347  -26.8771   19.5355 C   0  0  0  0  0  0
  -24.8688  -27.6672   19.5179 C   0  0  0  0  0  0
  -23.6329  -29.8184   20.1582 C   0  0  0  0  0  0
  -25.4127  -36.3098   24.0271 C   0  0  1  0  0  0
  -20.5866  -28.3736   23.1316 C   0  0  2  0  0  0
  -20.6806  -26.9475   22.5439 C   0  0  0  0  0  0
  -19.5794  -26.6426   21.5238 C   0  0  0  0  0  0
  -18.1957  -26.8010   22.1591 C   0  0  0  0  0  0
  -19.1532  -28.8916   23.2860 C   0  0  0  0  0  0
  -18.9457  -30.1508   23.8882 C   0  0  0  0  0  0
  -17.6465  -30.6646   24.0602 C   0  0  0  0  0  0
  -25.9049  -34.9481   23.5035 C   0  0  0  0  0  0
  -16.5345  -29.9165   23.6360 C   0  0  0  0  0  0
  -16.7262  -28.6614   23.0310 C   0  0  0  0  0  0
  -26.4576  -31.6600   25.0649 C   0  0  0  0  0  0
  -25.3837  -31.3700   26.1384 C   0  0  0  0  0  0
  -27.0437  -30.3045   24.6039 C   0  0  0  0  0  0
  -27.6158  -32.4313   25.7440 C   0  0  0  0  0  0
  -27.5562  -37.1811   24.8438 C   0  0  0  0  0  0
  -21.4189  -29.3050   22.3699 N   0  0  0  0  0  0
  -26.4291  -37.3803   23.9369 N   0  0  0  0  0  0
  -24.6804  -31.0691   22.0945 N   0  0  0  0  0  0
  -23.4228  -28.8171   23.3014 O   0  0  0  0  0  0
  -28.3896  -26.5459   20.1764 O   0  0  0  0  0  0
  -26.5624  -34.8948   22.4594 O   0  0  0  0  0  0
  -23.5403  -32.1373   23.7409 O   0  0  0  0  0  0
  -31.2729  -18.8333   19.2930 C   0  0  0  0  0  0
  -30.3466  -19.8145   19.6590 C   0  0  0  0  0  0
  -31.0801  -17.4917   19.6585 C   0  0  0  0  0  0
  -29.1961  -19.4859   20.3968 C   0  0  0  0  0  0
  -29.0337  -18.1094   20.8302 C   0  0  0  0  0  0
  -29.9798  -17.0798   20.4521 C   0  0  0  0  0  0
  -28.4815  -22.8412   21.6766 C   0  0  0  0  0  0
  -27.9849  -24.1654   19.1098 C   0  0  0  0  0  0
  -28.5549  -22.7147   19.2035 C   0  0  0  0  0  0
  -28.1396  -24.3667   21.6256 C   0  0  1  0  0  0
  -28.4766  -25.0620   20.2673 C   0  0  2  0  0  0
  -27.8539  -17.7690   21.7358 C   0  0  0  0  0  0
  -26.6683  -24.5321   22.0566 C   0  0  0  0  0  0
  -28.1238  -20.6046   20.6226 C   0  0  0  0  0  0
  -28.4656  -22.0774   20.5438 N   0  0  0  0  0  0
  -29.8322  -15.6662   20.8243 N   0  0  0  0  0  0
  -28.6303  -22.3316   22.7918 O   0  0  0  0  0  0
  -31.4689  -12.4467   19.1855 H   0  0  0  0  0  0
  -30.3225  -11.3545   19.8903 H   0  0  0  0  0  0
  -29.7681  -11.7720   17.4714 H   0  0  0  0  0  0
  -29.6849  -13.4879   17.7675 H   0  0  0  0  0  0
  -27.8187  -11.3317   18.8061 H   0  0  0  0  0  0
  -27.3944  -12.6732   17.7806 H   0  0  0  0  0  0
  -27.6784  -14.2700   19.5649 H   0  0  0  0  0  0
  -28.6820  -12.0007   21.3495 H   0  0  0  0  0  0
  -28.4380  -13.6419   21.8773 H   0  0  0  0  0  0
  -25.2728   -9.5679   22.4736 H   0  0  0  0  0  0
  -23.9980   -7.4620   22.7431 H   0  0  0  0  0  0
  -21.0789   -8.8784   19.8990 H   0  0  0  0  0  0
  -22.3644  -10.9664   19.6180 H   0  0  0  0  0  0
  -21.2042   -7.6131   23.9722 H   0  0  0  0  0  0
  -21.1503   -6.0506   25.9086 H   0  0  0  0  0  0
  -22.0577   -2.7591   23.2844 H   0  0  0  0  0  0
  -22.3977  -11.9985   22.4981 H   0  0  0  0  0  0
  -21.1028  -13.1350   22.2585 H   0  0  0  0  0  0
  -24.6237  -15.8234   20.5154 H   0  0  0  0  0  0
  -26.2340  -15.6409   20.0338 H   0  0  0  0  0  0
  -26.7153  -32.5590   23.1063 H   0  0  0  0  0  0
  -25.0103  -33.9773   25.0388 H   0  0  0  0  0  0
  -22.6980  -31.2973   21.4037 H   0  0  0  0  0  0
  -23.3717  -35.9687   23.3321 H   0  0  0  0  0  0
  -24.3481  -36.8971   22.2028 H   0  0  0  0  0  0
  -23.7289  -37.6536   23.6684 H   0  0  0  0  0  0
  -26.0583  -31.5703   20.5888 H   0  0  0  0  0  0
  -26.8356  -30.8753   21.9778 H   0  0  0  0  0  0
  -28.1106  -29.0050   21.1873 H   0  0  0  0  0  0
  -25.9799  -25.9156   19.0588 H   0  0  0  0  0  0
  -23.9771  -27.2852   19.0418 H   0  0  0  0  0  0
  -23.7644  -30.5964   19.4055 H   0  0  0  0  0  0
  -22.7527  -29.2558   19.8440 H   0  0  0  0  0  0
  -25.1346  -36.1905   25.0768 H   0  0  0  0  0  0
  -20.9911  -28.3342   24.1445 H   0  0  0  0  0  0
  -20.5809  -26.2329   23.3616 H   0  0  0  0  0  0
  -21.6692  -26.7626   22.1179 H   0  0  0  0  0  0
  -19.6978  -25.6332   21.1300 H   0  0  0  0  0  0
  -19.6786  -27.3233   20.6767 H   0  0  0  0  0  0
  -17.4254  -26.6716   21.3965 H   0  0  0  0  0  0
  -18.0325  -26.0219   22.9038 H   0  0  0  0  0  0
  -19.7941  -30.7336   24.2251 H   0  0  0  0  0  0
  -17.5041  -31.6320   24.5245 H   0  0  0  0  0  0
  -15.5365  -30.3077   23.7734 H   0  0  0  0  0  0
  -15.8646  -28.0976   22.6978 H   0  0  0  0  0  0
  -24.5979  -30.7105   25.7688 H   0  0  0  0  0  0
  -24.9148  -32.2895   26.4887 H   0  0  0  0  0  0
  -25.8197  -30.8788   27.0080 H   0  0  0  0  0  0
  -26.3040  -29.6809   24.0995 H   0  0  0  0  0  0
  -27.4071  -29.7260   25.4548 H   0  0  0  0  0  0
  -27.8923  -30.4317   23.9278 H   0  0  0  0  0  0
  -27.2775  -33.3574   26.2105 H   0  0  0  0  0  0
  -28.3934  -32.6945   25.0253 H   0  0  0  0  0  0
  -28.0886  -31.8385   26.5288 H   0  0  0  0  0  0
  -28.2617  -38.0082   24.7519 H   0  0  0  0  0  0
  -28.1015  -36.2621   24.6252 H   0  0  0  0  0  0
  -27.2252  -37.1470   25.8832 H   0  0  0  0  0  0
  -20.9383  -29.8695   21.6841 H   0  0  0  0  0  0
  -26.0131  -38.2831   24.1477 H   0  0  0  0  0  0
  -32.1385  -19.1105   18.7064 H   0  0  0  0  0  0
  -30.5367  -20.8260   19.3393 H   0  0  0  0  0  0
  -31.8262  -16.8068   19.2999 H   0  0  0  0  0  0
  -26.9020  -24.0738   19.1192 H   0  0  0  0  0  0
  -28.2746  -24.6089   18.1541 H   0  0  0  0  0  0
  -29.6021  -22.7427   18.8992 H   0  0  0  0  0  0
  -28.0437  -22.0960   18.4654 H   0  0  0  0  0  0
  -28.7591  -24.8298   22.3936 H   0  0  0  0  0  0
  -29.5610  -24.9495   20.1958 H   0  0  0  0  0  0
  -28.0061  -18.2408   22.7090 H   0  0  0  0  0  0
  -27.7361  -16.7023   21.9117 H   0  0  0  0  0  0
  -26.9062  -18.1294   21.3363 H   0  0  0  0  0  0
  -26.4806  -24.0975   23.0418 H   0  0  0  0  0  0
  -25.9979  -24.0397   21.3494 H   0  0  0  0  0  0
  -26.3811  -25.5799   22.1144 H   0  0  0  0  0  0
  -27.6167  -20.4115   21.5676 H   0  0  0  0  0  0
  -27.3415  -20.4275   19.8810 H   0  0  0  0  0  0
  -28.9460  -15.4162   21.2308 H   0  0  0  0  0  0
  1 25  1  0  0  0
  1 30  2  0  0  0
  1 86  1  0  0  0
  2  3  1  0  0  0
  2 25  1  0  0  0
  2 88  1  0  0  0
  2 89  1  0  0  0
  3  4  1  0  0  0
  3 90  1  0  0  0
  3 91  1  0  0  0
  4  5  1  0  0  0
  4 92  1  0  0  0
  4 93  1  0  0  0
  5  6  1  0  0  0
  5 26  1  0  0  0
  5 94  1  0  0  0
  6 25  1  0  0  0
  6 95  1  0  0  0
  6 96  1  0  0  0
  7  8  2  0  0  0
  7 26  1  0  0  0
  7 29  1  0  0  0
  8  9  1  0  0  0
  8 22  1  0  0  0
  9 10  1  0  0  0
  9 27  2  0  0  0
 10 11  2  0  0  0
 10 15  1  0  0  0
 11 12  1  0  0  0
 11 97  1  0  0  0
 12 13  2  0  0  0
 12 98  1  0  0  0
 13 14  1  0  0  0
 13 31  1  0  0  0
 14 15  2  0  0  0
 14 99  1  0  0  0
 15100  1  0  0  0
 16 17  2  0  0  0
 16 21  1  0  0  0
 16 31  1  0  0  0
 17 18  1  0  0  0
 17101  1  0  0  0
 18 19  2  0  0  0
 18102  1  0  0  0
 19 20  1  0  0  0
 19 24  1  0  0  0
 20 21  2  0  0  0
 20103  1  0  0  0
 21 23  1  0  0  0
 22 28  1  0  0  0
 22 32  2  0  0  0
 26 27  1  0  0  0
 28104  1  0  0  0
 28105  1  0  0  0
 29106  1  0  0  0
 29107  1  0  0  0
 33 34  1  0  0  0
 33 66  1  0  0  0
 33 70  2  0  0  0
 34 36  1  0  0  0
 34 59  1  0  0  0
 34108  1  0  0  0
 35 44  2  0  0  0
 35 45  1  0  0  0
 35 68  1  0  0  0
 36 56  1  0  0  0
 36109  1  0  0  0
 37 39  1  0  0  0
 37 47  1  0  0  0
 37 66  1  0  0  0
 37110  1  0  0  0
 38 43  2  0  0  0
 38 46  1  0  0  0
 38 47  1  0  0  0
 39 64  1  0  0  0
 39 67  2  0  0  0
 40 52  1  0  0  0
 40 53  2  0  0  0
 40 58  1  0  0  0
 41111  1  0  0  0
 41112  1  0  0  0
 41113  1  0  0  0
 41 48  1  0  0  0
 42 43  1  0  0  0
 42 66  1  0  0  0
 42114  1  0  0  0
 42115  1  0  0  0
 43 44  1  0  0  0
 44116  1  0  0  0
 45 46  2  0  0  0
 45117  1  0  0  0
 46118  1  0  0  0
 47119  1  0  0  0
 47120  1  0  0  0
 48 56  1  0  0  0
 48 65  1  0  0  0
 48121  1  0  0  0
 49 50  1  0  0  0
 49 53  1  0  0  0
 49 64  1  0  0  0
 49122  1  0  0  0
 50 51  1  0  0  0
 50123  1  0  0  0
 50124  1  0  0  0
 51 52  1  0  0  0
 51125  1  0  0  0
 51126  1  0  0  0
 52127  1  0  0  0
 52128  1  0  0  0
 53 54  1  0  0  0
 54 55  2  0  0  0
 54129  1  0  0  0
 55 57  1  0  0  0
 55130  1  0  0  0
 56 69  2  0  0  0
 57 58  2  0  0  0
 57131  1  0  0  0
 58132  1  0  0  0
 59 60  1  0  0  0
 59 61  1  0  0  0
 59 62  1  0  0  0
 60133  1  0  0  0
 60134  1  0  0  0
 60135  1  0  0  0
 61136  1  0  0  0
 61137  1  0  0  0
 61138  1  0  0  0
 62139  1  0  0  0
 62140  1  0  0  0
 62141  1  0  0  0
 63 65  1  0  0  0
 63142  1  0  0  0
 63143  1  0  0  0
 63144  1  0  0  0
 64145  1  0  0  0
 65146  1  0  0  0
 68 81  1  0  0  0
 71 72  2  0  0  0
 71 73  1  0  0  0
 71147  1  0  0  0
 72 74  1  0  0  0
 72148  1  0  0  0
 73 76  2  0  0  0
 73149  1  0  0  0
 74 75  2  0  0  0
 74 84  1  0  0  0
 75 76  1  0  0  0
 75 82  1  0  0  0
 76 86  1  0  0  0
 77 80  1  0  0  0
 77 85  1  0  0  0
 77 87  2  0  0  0
 78 79  1  0  0  0
 78 81  1  0  0  0
 78150  1  0  0  0
 78151  1  0  0  0
 79 85  1  0  0  0
 79152  1  0  0  0
 79153  1  0  0  0
 80 81  1  0  0  0
 80 83  1  0  0  0
 80154  1  0  0  0
 81155  1  0  0  0
 82156  1  0  0  0
 82157  1  0  0  0
 82158  1  0  0  0
 83159  1  0  0  0
 83160  1  0  0  0
 83161  1  0  0  0
 84 85  1  0  0  0
 84162  1  0  0  0
 84163  1  0  0  0
 86164  1  0  0  0
M  ISO  4   1 100  68 101  81 101  86 100
M  END
> <chiral flag>
0

> <version>
0

> <s_m_source_file>
/data/baiqing/PycharmProjects/Reinvent-master-3.2/result/LINK_invent/BTK/process_docking_weight1_custom_product_contain_oxygen_bond_distance_aromatic_linkinvent_7_9_3/rearranged_h_0052.sdf

> <i_m_source_file_index>
34

> <r_mmod_Potential_Energy-OPLS-2005>
87.5505752563477

> <r_mmod_Stretch_Energy-OPLS-2005>
84.2353439331055

> <r_mmod_Bend_Energy-OPLS-2005>
172.092559814453

> <r_mmod_Torsional_Energy-OPLS-2005>
251.078109741211

> <r_mmod_Improper_Torsional_Energy-OPLS-2005>
6.22710418701172

> <r_mmod_Van_der_Waal_Energy-OPLS-2005>
157.57160949707

> <r_mmod_Electrostatic_Energy-OPLS-2005>
-399.175354003906

> <r_mmod_Solvation_Energy-OPLS-2005>
-221.243667602539

> <b_mmod_Minimization_Converged-OPLS-2005>
0

> <r_mmod_RMS_Derivative-OPLS-2005>
6.10616874694824

$$$$
34
                    3D
 Structure written by MMmdl.
155163  0  0  1  0            999 V2000
  -30.6161  -14.6812   20.5045 C   0  0  0  0  0  0
  -30.4231  -12.4262   19.4822 C   0  0  0  0  0  0
  -29.5085  -12.5137   18.2408 C   0  0  0  0  0  0
  -28.0308  -12.3467   18.6451 C   0  0  0  0  0  0
  -27.6367  -13.2320   19.8577 C   0  0  2  0  0  0
  -28.6695  -13.1300   20.9967 C   0  0  0  0  0  0
  -25.2468  -13.8199   20.5697 C   0  0  0  0  0  0
  -24.1770  -13.0455   20.9195 C   0  0  0  0  0  0
  -24.6366  -11.6911   20.8742 C   0  0  0  0  0  0
  -23.9052  -10.4278   21.0413 C   0  0  0  0  0  0
  -24.3616   -9.4196   21.9194 C   0  0  0  0  0  0
  -23.6293   -8.2238   22.0743 C   0  0  0  0  0  0
  -22.4275   -8.0278   21.3544 C   0  0  0  0  0  0
  -21.9907   -9.0238   20.4643 C   0  0  0  0  0  0
  -22.7220  -10.2115   20.3059 C   0  0  0  0  0  0
  -21.6851   -6.0733   22.5274 C   0  0  0  0  0  0
  -21.4011   -6.5637   23.8210 C   0  0  0  0  0  0
  -21.3666   -5.6790   24.9178 C   0  0  0  0  0  0
  -21.6047   -4.3051   24.7224 C   0  0  0  0  0  0
  -21.8823   -3.8141   23.4347 C   0  0  0  0  0  0
  -21.9192   -4.6958   22.3401 C   0  0  0  0  0  0
  -22.7777  -13.5199   21.1890 C   0  0  0  0  0  0
  -22.1666   -4.2149   21.0980 F   0  0  0  0  0  0
  -21.5631   -3.4532   25.7735 F   0  0  0  0  0  0
  -29.9833  -13.4676   20.4329 N   0  0  0  0  0  0
  -26.2898  -12.9414   20.3297 N   0  0  0  0  0  0
  -25.9296  -11.6552   20.5734 N   0  0  0  0  0  0
  -22.0465  -12.8174   22.0450 N   0  0  0  0  0  0
  -25.4218  -15.1930   20.4156 N   0  0  0  0  0  0
  -31.7791  -14.8053   20.1110 O   0  0  0  0  0  0
  -21.6646   -6.8878   21.4235 O   0  0  0  0  0  0
  -22.3456  -14.5516   20.6737 O   0  0  0  0  0  0
  -24.6250  -31.8590   23.1988 C   0  0  0  0  0  0
  -25.9106  -32.4772   23.8324 C   0  0  1  0  0  0
  -27.2145  -27.2913   20.1310 C   0  0  0  0  0  0
  -25.5928  -33.8578   24.2257 N   0  0  0  0  0  0
  -23.4188  -30.4815   21.5420 C   0  0  2  0  0  0
  -24.8642  -28.9295   20.1069 C   0  0  0  0  0  0
  -22.7470  -29.4625   22.4915 C   0  0  0  0  0  0
  -18.0282  -28.1369   22.8509 C   0  0  0  0  0  0
  -24.1492  -36.7284   23.2645 C   0  0  0  0  0  0
  -25.9618  -30.7821   21.3741 C   0  0  0  0  0  0
  -26.0309  -29.4082   20.7144 C   0  0  0  0  0  0
  -27.2055  -28.5975   20.7187 C   0  0  0  0  0  0
  -26.0226  -26.8659   19.5011 C   0  0  0  0  0  0
  -24.8646  -27.6685   19.4896 C   0  0  0  0  0  0
  -23.6340  -29.8125   20.1564 C   0  0  0  0  0  0
  -25.4121  -36.3081   24.0321 C   0  0  1  0  0  0
  -20.5896  -28.3659   23.1281 C   0  0  2  0  0  0
  -20.6744  -26.9374   22.5425 C   0  0  0  0  0  0
  -19.5724  -26.6381   21.5209 C   0  0  0  0  0  0
  -18.1913  -26.7916   22.1641 C   0  0  0  0  0  0
  -19.1547  -28.8835   23.2893 C   0  0  0  0  0  0
  -18.9484  -30.1422   23.8930 C   0  0  0  0  0  0
  -17.6497  -30.6571   24.0590 C   0  0  0  0  0  0
  -25.9057  -34.9452   23.5081 C   0  0  0  0  0  0
  -16.5377  -29.9094   23.6342 C   0  0  0  0  0  0
  -16.7283  -28.6519   23.0350 C   0  0  0  0  0  0
  -26.4492  -31.6591   25.0709 C   0  0  0  0  0  0
  -25.3701  -31.3728   26.1418 C   0  0  0  0  0  0
  -27.0346  -30.3022   24.6166 C   0  0  0  0  0  0
  -27.6048  -32.4332   25.7480 C   0  0  0  0  0  0
  -27.5585  -37.1800   24.8468 C   0  0  0  0  0  0
  -21.4197  -29.3023   22.3674 N   0  0  0  0  0  0
  -26.4301  -37.3773   23.9398 N   0  0  0  0  0  0
  -24.6874  -31.0571   22.0958 N   0  0  0  0  0  0
  -23.4194  -28.8176   23.3005 O   0  0  0  0  0  0
  -28.3309  -26.4423   20.2411 O   0  0  0  0  0  0
  -26.5642  -34.8914   22.4657 O   0  0  0  0  0  0
  -23.5413  -32.1385   23.7328 O   0  0  0  0  0  0
  -30.0204  -16.3209   24.4332 C   0  0  0  0  0  0
  -29.9706  -15.7687   23.1490 C   0  0  0  0  0  0
  -29.8645  -17.6978   24.5916 C   0  0  0  0  0  0
  -29.5435  -18.0128   22.1467 C   0  0  0  0  0  0
  -29.7823  -16.5639   21.9849 C   0  0  0  0  0  0
  -29.6446  -18.5290   23.4816 C   0  0  0  0  0  0
  -28.7033  -22.4192   20.4757 C   0  0  0  0  0  0
  -28.2800  -23.7329   20.2374 C   0  0  0  0  0  0
  -27.8334  -21.4205   21.1605 C   0  0  0  0  0  0
  -29.2336  -19.0696   21.0073 C   0  0  0  0  0  0
  -28.4690  -25.1571   19.5053 C   0  0  0  0  0  0
  -29.8577  -15.8114   20.7380 N   0  0  0  0  0  0
  -28.1440  -20.0785   21.2861 N   0  0  0  0  0  0
  -26.7545  -21.7582   21.6470 O   0  0  0  0  0  0
  -29.5647  -20.2112   23.8833 Cl  0  0  0  0  0  0
  -31.4667  -12.5491   19.1856 H   0  0  0  0  0  0
  -30.3595  -11.4398   19.9506 H   0  0  0  0  0  0
  -29.7867  -11.7514   17.5131 H   0  0  0  0  0  0
  -29.6406  -13.4764   17.7451 H   0  0  0  0  0  0
  -27.8731  -11.2951   18.8917 H   0  0  0  0  0  0
  -27.3770  -12.5614   17.7976 H   0  0  0  0  0  0
  -27.6408  -14.2614   19.5004 H   0  0  0  0  0  0
  -28.6877  -12.1281   21.4276 H   0  0  0  0  0  0
  -28.3932  -13.8013   21.8087 H   0  0  0  0  0  0
  -25.2774   -9.5677   22.4751 H   0  0  0  0  0  0
  -24.0014   -7.4630   22.7436 H   0  0  0  0  0  0
  -21.0857   -8.8766   19.8933 H   0  0  0  0  0  0
  -22.3713  -10.9666   19.6160 H   0  0  0  0  0  0
  -21.2013   -7.6148   23.9714 H   0  0  0  0  0  0
  -21.1481   -6.0522   25.9081 H   0  0  0  0  0  0
  -22.0603   -2.7605   23.2843 H   0  0  0  0  0  0
  -22.4125  -11.9836   22.4809 H   0  0  0  0  0  0
  -21.1088  -13.1163   22.2694 H   0  0  0  0  0  0
  -24.6632  -15.8562   20.5331 H   0  0  0  0  0  0
  -26.2918  -15.6279   20.1353 H   0  0  0  0  0  0
  -26.7158  -32.5386   23.1050 H   0  0  0  0  0  0
  -25.0048  -33.9711   25.0389 H   0  0  0  0  0  0
  -22.7102  -31.3001   21.4008 H   0  0  0  0  0  0
  -23.3760  -35.9614   23.3312 H   0  0  0  0  0  0
  -24.3585  -36.8904   22.2064 H   0  0  0  0  0  0
  -23.7231  -37.6481   23.6661 H   0  0  0  0  0  0
  -26.0965  -31.5449   20.6061 H   0  0  0  0  0  0
  -26.8430  -30.8290   22.0022 H   0  0  0  0  0  0
  -28.1027  -28.9558   21.2067 H   0  0  0  0  0  0
  -25.9319  -25.8883   19.0470 H   0  0  0  0  0  0
  -23.9653  -27.2962   19.0176 H   0  0  0  0  0  0
  -23.7499  -30.5907   19.4010 H   0  0  0  0  0  0
  -22.7523  -29.2441   19.8576 H   0  0  0  0  0  0
  -25.1308  -36.1939   25.0814 H   0  0  0  0  0  0
  -20.9977  -28.3223   24.1406 H   0  0  0  0  0  0
  -20.5573  -26.2241   23.3607 H   0  0  0  0  0  0
  -21.6620  -26.7354   22.1245 H   0  0  0  0  0  0
  -19.6897  -25.6327   21.1207 H   0  0  0  0  0  0
  -19.6665  -27.3222   20.6758 H   0  0  0  0  0  0
  -17.4162  -26.6665   21.4062 H   0  0  0  0  0  0
  -18.0350  -26.0065   22.9047 H   0  0  0  0  0  0
  -19.7970  -30.7205   24.2346 H   0  0  0  0  0  0
  -17.5086  -31.6236   24.5222 H   0  0  0  0  0  0
  -15.5379  -30.3019   23.7691 H   0  0  0  0  0  0
  -15.8683  -28.0843   22.7097 H   0  0  0  0  0  0
  -24.5877  -30.7099   25.7713 H   0  0  0  0  0  0
  -24.8901  -32.2901   26.4839 H   0  0  0  0  0  0
  -25.8011  -30.8888   27.0188 H   0  0  0  0  0  0
  -26.2932  -29.6768   24.1190 H   0  0  0  0  0  0
  -27.4056  -29.7292   25.4671 H   0  0  0  0  0  0
  -27.8784  -30.4336   23.9388 H   0  0  0  0  0  0
  -27.2673  -33.3628   26.2067 H   0  0  0  0  0  0
  -28.3859  -32.6898   25.0313 H   0  0  0  0  0  0
  -28.0714  -31.8449   26.5386 H   0  0  0  0  0  0
  -28.2610  -38.0093   24.7516 H   0  0  0  0  0  0
  -28.1074  -36.2623   24.6300 H   0  0  0  0  0  0
  -27.2297  -37.1456   25.8872 H   0  0  0  0  0  0
  -20.9334  -29.8711   21.6886 H   0  0  0  0  0  0
  -26.0186  -38.2850   24.1397 H   0  0  0  0  0  0
  -30.2129  -15.6877   25.2856 H   0  0  0  0  0  0
  -30.1267  -14.7019   23.0873 H   0  0  0  0  0  0
  -29.9336  -18.1409   25.5779 H   0  0  0  0  0  0
  -29.6727  -22.0279   20.1681 H   0  0  0  0  0  0
  -29.3250  -23.7833   19.9983 H   0  0  0  0  0  0
  -30.1553  -19.5899   20.7436 H   0  0  0  0  0  0
  -28.9330  -18.5235   20.1042 H   0  0  0  0  0  0
  -27.8403  -25.1534   18.6150 H   0  0  0  0  0  0
  -29.4475  -25.2911   19.0211 H   0  0  0  0  0  0
  -29.8687  -16.4200   19.9294 H   0  0  0  0  0  0
  -27.4096  -19.6226   21.8098 H   0  0  0  0  0  0
  1 25  1  0  0  0
  1 30  2  0  0  0
  1 82  1  0  0  0
  2  3  1  0  0  0
  2 25  1  0  0  0
  2 86  1  0  0  0
  2 87  1  0  0  0
  3  4  1  0  0  0
  3 88  1  0  0  0
  3 89  1  0  0  0
  4  5  1  0  0  0
  4 90  1  0  0  0
  4 91  1  0  0  0
  5  6  1  0  0  0
  5 26  1  0  0  0
  5 92  1  0  0  0
  6 25  1  0  0  0
  6 93  1  0  0  0
  6 94  1  0  0  0
  7  8  2  0  0  0
  7 26  1  0  0  0
  7 29  1  0  0  0
  8  9  1  0  0  0
  8 22  1  0  0  0
  9 10  1  0  0  0
  9 27  2  0  0  0
 10 11  2  0  0  0
 10 15  1  0  0  0
 11 12  1  0  0  0
 11 95  1  0  0  0
 12 13  2  0  0  0
 12 96  1  0  0  0
 13 14  1  0  0  0
 13 31  1  0  0  0
 14 15  2  0  0  0
 14 97  1  0  0  0
 15 98  1  0  0  0
 16 17  2  0  0  0
 16 21  1  0  0  0
 16 31  1  0  0  0
 17 18  1  0  0  0
 17 99  1  0  0  0
 18 19  2  0  0  0
 18100  1  0  0  0
 19 20  1  0  0  0
 19 24  1  0  0  0
 20 21  2  0  0  0
 20101  1  0  0  0
 21 23  1  0  0  0
 22 28  1  0  0  0
 22 32  2  0  0  0
 26 27  1  0  0  0
 28102  1  0  0  0
 28103  1  0  0  0
 29104  1  0  0  0
 29105  1  0  0  0
 33 34  1  0  0  0
 33 66  1  0  0  0
 33 70  2  0  0  0
 34 36  1  0  0  0
 34 59  1  0  0  0
 34106  1  0  0  0
 35 44  2  0  0  0
 35 45  1  0  0  0
 35 68  1  0  0  0
 36 56  1  0  0  0
 36107  1  0  0  0
 37 39  1  0  0  0
 37 47  1  0  0  0
 37 66  1  0  0  0
 37108  1  0  0  0
 38 43  2  0  0  0
 38 46  1  0  0  0
 38 47  1  0  0  0
 39 64  1  0  0  0
 39 67  2  0  0  0
 40 52  1  0  0  0
 40 53  2  0  0  0
 40 58  1  0  0  0
 41109  1  0  0  0
 41110  1  0  0  0
 41111  1  0  0  0
 41 48  1  0  0  0
 42 43  1  0  0  0
 42 66  1  0  0  0
 42112  1  0  0  0
 42113  1  0  0  0
 43 44  1  0  0  0
 44114  1  0  0  0
 45 46  2  0  0  0
 45115  1  0  0  0
 46116  1  0  0  0
 47117  1  0  0  0
 47118  1  0  0  0
 48 56  1  0  0  0
 48 65  1  0  0  0
 48119  1  0  0  0
 49 50  1  0  0  0
 49 53  1  0  0  0
 49 64  1  0  0  0
 49120  1  0  0  0
 50 51  1  0  0  0
 50121  1  0  0  0
 50122  1  0  0  0
 51 52  1  0  0  0
 51123  1  0  0  0
 51124  1  0  0  0
 52125  1  0  0  0
 52126  1  0  0  0
 53 54  1  0  0  0
 54 55  2  0  0  0
 54127  1  0  0  0
 55 57  1  0  0  0
 55128  1  0  0  0
 56 69  2  0  0  0
 57 58  2  0  0  0
 57129  1  0  0  0
 58130  1  0  0  0
 59 60  1  0  0  0
 59 61  1  0  0  0
 59 62  1  0  0  0
 60131  1  0  0  0
 60132  1  0  0  0
 60133  1  0  0  0
 61134  1  0  0  0
 61135  1  0  0  0
 61136  1  0  0  0
 62137  1  0  0  0
 62138  1  0  0  0
 62139  1  0  0  0
 63 65  1  0  0  0
 63140  1  0  0  0
 63141  1  0  0  0
 63142  1  0  0  0
 64143  1  0  0  0
 65144  1  0  0  0
 68 81  1  0  0  0
 71 72  2  0  0  0
 71 73  1  0  0  0
 71145  1  0  0  0
 72 75  1  0  0  0
 72146  1  0  0  0
 73 76  2  0  0  0
 73147  1  0  0  0
 74 75  2  0  0  0
 74 76  1  0  0  0
 74 80  1  0  0  0
 75 82  1  0  0  0
 76 85  1  0  0  0
 77 78  2  0  0  0
 77 79  1  0  0  0
 77148  1  0  0  0
 78 81  1  0  0  0
 78149  1  0  0  0
 79 83  1  0  0  0
 79 84  2  0  0  0
 80 83  1  0  0  0
 80150  1  0  0  0
 80151  1  0  0  0
 81152  1  0  0  0
 81153  1  0  0  0
 82154  1  0  0  0
 83155  1  0  0  0
M  ISO  4   1 100  68 101  81 101  82 100
M  END
> <chiral flag>
0

> <version>
0

> <s_m_source_file>
/data/baiqing/PycharmProjects/Reinvent-master-3.2/result/LINK_invent/BTK/process_docking_weight1_custom_product_contain_oxygen_bond_distance_aromatic_linkinvent_7_9_3/rearranged_h_0052.sdf

> <i_m_source_file_index>
35

> <r_mmod_Potential_Energy-OPLS-2005>
424.084533691406

> <r_mmod_Stretch_Energy-OPLS-2005>
114.73323059082

> <r_mmod_Bend_Energy-OPLS-2005>
440.249237060547

> <r_mmod_Torsional_Energy-OPLS-2005>
277.389587402344

> <r_mmod_Improper_Torsional_Energy-OPLS-2005>
15.8389520645142

> <r_mmod_Van_der_Waal_Energy-OPLS-2005>
165.041412353516

> <r_mmod_Electrostatic_Energy-OPLS-2005>
-412.796630859375

> <r_mmod_Solvation_Energy-OPLS-2005>
-241.472717285156

> <b_mmod_Minimization_Converged-OPLS-2005>
0

> <r_mmod_RMS_Derivative-OPLS-2005>
7.52516651153564

$$$$
35
                    3D
 Structure written by MMmdl.
150158  0  0  1  0            999 V2000
  -30.2267  -15.8081   20.2904 C   0  0  0  0  0  0
  -30.4056  -13.2016   19.5631 C   0  0  0  0  0  0
  -29.5484  -12.6963   18.3602 C   0  0  0  0  0  0
  -28.1406  -12.3030   18.8167 C   0  0  0  0  0  0
  -27.5882  -13.3312   19.8247 C   0  0  2  0  0  0
  -28.5912  -13.7330   20.9392 C   0  0  0  0  0  0
  -25.2261  -13.8369   20.5848 C   0  0  0  0  0  0
  -24.1662  -13.0484   20.9340 C   0  0  0  0  0  0
  -24.6412  -11.7003   20.8828 C   0  0  0  0  0  0
  -23.9126  -10.4332   21.0438 C   0  0  0  0  0  0
  -24.3654   -9.4239   21.9213 C   0  0  0  0  0  0
  -23.6311   -8.2278   22.0762 C   0  0  0  0  0  0
  -22.4290   -8.0315   21.3557 C   0  0  0  0  0  0
  -21.9964   -9.0304   20.4656 C   0  0  0  0  0  0
  -22.7311  -10.2179   20.3077 C   0  0  0  0  0  0
  -21.6862   -6.0757   22.5283 C   0  0  0  0  0  0
  -21.4030   -6.5655   23.8222 C   0  0  0  0  0  0
  -21.3644   -5.6798   24.9177 C   0  0  0  0  0  0
  -21.6051   -4.3066   24.7225 C   0  0  0  0  0  0
  -21.8807   -3.8165   23.4343 C   0  0  0  0  0  0
  -21.9195   -4.6983   22.3406 C   0  0  0  0  0  0
  -22.7661  -13.5191   21.1926 C   0  0  0  0  0  0
  -22.1655   -4.2163   21.0979 F   0  0  0  0  0  0
  -21.5615   -3.4543   25.7737 F   0  0  0  0  0  0
  -29.7467  -14.4021   20.2852 N   0  0  0  0  0  0
  -26.2738  -12.9742   20.3363 N   0  0  0  0  0  0
  -25.9379  -11.6785   20.5820 N   0  0  0  0  0  0
  -22.0292  -12.8208   22.0468 N   0  0  0  0  0  0
  -25.3834  -15.2109   20.4200 N   0  0  0  0  0  0
  -31.4514  -15.7284   20.0485 O   0  0  0  0  0  0
  -21.6648   -6.8915   21.4242 O   0  0  0  0  0  0
  -22.3356  -14.5475   20.6729 O   0  0  0  0  0  0
  -24.6956  -31.7872   23.1372 C   0  0  0  0  0  0
  -25.9484  -32.4380   23.7963 C   0  0  1  0  0  0
  -27.2292  -26.5736   20.2414 C   0  0  0  0  0  0
  -25.6025  -33.8218   24.1864 N   0  0  0  0  0  0
  -23.5272  -30.3802   21.4924 C   0  0  2  0  0  0
  -24.9853  -28.6859   20.1316 C   0  0  0  0  0  0
  -22.7801  -29.4298   22.4660 C   0  0  0  0  0  0
  -18.0336  -28.1507   22.8450 C   0  0  0  0  0  0
  -24.1511  -36.7102   23.2652 C   0  0  0  0  0  0
  -26.1115  -30.4750   21.4269 C   0  0  0  0  0  0
  -26.1737  -29.0227   20.7889 C   0  0  0  0  0  0
  -27.2737  -27.9953   20.8102 C   0  0  0  0  0  0
  -26.0103  -26.4825   19.5152 C   0  0  0  0  0  0
  -24.9462  -27.4419   19.4758 C   0  0  0  0  0  0
  -23.7880  -29.6553   20.1388 C   0  0  0  0  0  0
  -25.4162  -36.2843   24.0269 C   0  0  1  0  0  0
  -20.5969  -28.3887   23.1082 C   0  0  2  0  0  0
  -20.6779  -26.9543   22.5388 C   0  0  0  0  0  0
  -19.5746  -26.6440   21.5229 C   0  0  0  0  0  0
  -18.1938  -26.8036   22.1643 C   0  0  0  0  0  0
  -19.1597  -28.9025   23.2747 C   0  0  0  0  0  0
  -18.9497  -30.1568   23.8842 C   0  0  0  0  0  0
  -17.6475  -30.6650   24.0582 C   0  0  0  0  0  0
  -25.9149  -34.9232   23.4906 C   0  0  0  0  0  0
  -16.5353  -29.9130   23.6368 C   0  0  0  0  0  0
  -16.7290  -28.6562   23.0372 C   0  0  0  0  0  0
  -26.4650  -31.6467   25.0632 C   0  0  0  0  0  0
  -25.3669  -31.3820   26.1197 C   0  0  0  0  0  0
  -27.0625  -30.2787   24.6664 C   0  0  0  0  0  0
  -27.6061  -32.4364   25.7472 C   0  0  0  0  0  0
  -27.5563  -37.1703   24.8464 C   0  0  0  0  0  0
  -21.4430  -29.3088   22.3378 N   0  0  0  0  0  0
  -26.4275  -37.3616   23.9402 N   0  0  0  0  0  0
  -24.8019  -30.9183   22.0708 N   0  0  0  0  0  0
  -23.4175  -28.7961   23.3108 O   0  0  0  0  0  0
  -28.2167  -25.3320   20.2342 O   0  0  0  0  0  0
  -26.5800  -34.8844   22.4539 O   0  0  0  0  0  0
  -23.5955  -32.1008   23.6249 O   0  0  0  0  0  0
  -26.6873  -19.4305   19.4702 C   0  0  0  0  0  0
  -27.2865  -20.1955   20.4889 C   0  0  0  0  0  0
  -27.4977  -18.8581   18.4672 C   0  0  0  0  0  0
  -28.6741  -20.4009   20.3890 C   0  0  0  0  0  0
  -28.8884  -18.7033   18.6661 C   0  0  0  0  0  0
  -29.3746  -18.9160   19.9795 C   0  0  0  0  0  0
  -28.7882  -22.2976   20.2338 C   0  0  0  0  0  0
  -29.6833  -17.9838   17.5892 C   0  0  0  0  0  0
  -30.1966  -22.6034   19.7979 C   0  0  0  0  0  0
  -27.9518  -23.5600   20.3733 N   0  0  0  0  0  0
  -29.4778  -17.2118   20.4755 N   0  0  0  0  0  0
  -31.3897  -13.4719   19.1775 H   0  0  0  0  0  0
  -30.5979  -12.3877   20.2627 H   0  0  0  0  0  0
  -30.0352  -11.8508   17.8724 H   0  0  0  0  0  0
  -29.4746  -13.4836   17.6094 H   0  0  0  0  0  0
  -28.2080  -11.3268   19.2993 H   0  0  0  0  0  0
  -27.4657  -12.1862   17.9686 H   0  0  0  0  0  0
  -27.4329  -14.2297   19.2261 H   0  0  0  0  0  0
  -28.8844  -12.8793   21.5513 H   0  0  0  0  0  0
  -28.1278  -14.4482   21.6198 H   0  0  0  0  0  0
  -25.2783   -9.5700   22.4821 H   0  0  0  0  0  0
  -24.0001   -7.4658   22.7494 H   0  0  0  0  0  0
  -21.0903   -8.8876   19.8945 H   0  0  0  0  0  0
  -22.3802  -10.9738   19.6198 H   0  0  0  0  0  0
  -21.2035   -7.6161   23.9740 H   0  0  0  0  0  0
  -21.1465   -6.0522   25.9083 H   0  0  0  0  0  0
  -22.0594   -2.7621   23.2849 H   0  0  0  0  0  0
  -22.3893  -11.9907   22.4935 H   0  0  0  0  0  0
  -21.0886  -13.1239   22.2592 H   0  0  0  0  0  0
  -24.6099  -15.8591   20.5117 H   0  0  0  0  0  0
  -26.2258  -15.6504   20.0721 H   0  0  0  0  0  0
  -26.7557  -32.4836   23.0654 H   0  0  0  0  0  0
  -25.0086  -33.9239   24.9964 H   0  0  0  0  0  0
  -22.8616  -31.2211   21.2826 H   0  0  0  0  0  0
  -23.3804  -35.9397   23.3244 H   0  0  0  0  0  0
  -24.3568  -36.8845   22.2076 H   0  0  0  0  0  0
  -23.7235  -37.6246   23.6791 H   0  0  0  0  0  0
  -26.3310  -31.1917   20.6351 H   0  0  0  0  0  0
  -26.9541  -30.5497   22.1013 H   0  0  0  0  0  0
  -28.1764  -28.2654   21.3393 H   0  0  0  0  0  0
  -25.8385  -25.5556   18.9855 H   0  0  0  0  0  0
  -24.0500  -27.1731   18.9318 H   0  0  0  0  0  0
  -23.9707  -30.3998   19.3613 H   0  0  0  0  0  0
  -22.8929  -29.1168   19.8220 H   0  0  0  0  0  0
  -25.1384  -36.1576   25.0757 H   0  0  0  0  0  0
  -21.0055  -28.3585   24.1205 H   0  0  0  0  0  0
  -20.5695  -26.2548   23.3686 H   0  0  0  0  0  0
  -21.6625  -26.7502   22.1157 H   0  0  0  0  0  0
  -19.6880  -25.6310   21.1344 H   0  0  0  0  0  0
  -19.6682  -27.3182   20.6704 H   0  0  0  0  0  0
  -17.4218  -26.6781   21.4043 H   0  0  0  0  0  0
  -18.0315  -26.0225   22.9088 H   0  0  0  0  0  0
  -19.7949  -30.7388   24.2243 H   0  0  0  0  0  0
  -17.5004  -31.6317   24.5200 H   0  0  0  0  0  0
  -15.5347  -30.2980   23.7742 H   0  0  0  0  0  0
  -15.8698  -28.0838   22.7127 H   0  0  0  0  0  0
  -24.5890  -30.7155   25.7456 H   0  0  0  0  0  0
  -24.8837  -32.3067   26.4368 H   0  0  0  0  0  0
  -25.7792  -30.9124   27.0135 H   0  0  0  0  0  0
  -26.3406  -29.6329   24.1664 H   0  0  0  0  0  0
  -27.3993  -29.7312   25.5481 H   0  0  0  0  0  0
  -27.9397  -30.3860   24.0270 H   0  0  0  0  0  0
  -27.2578  -33.3748   26.1800 H   0  0  0  0  0  0
  -28.4011  -32.6793   25.0404 H   0  0  0  0  0  0
  -28.0588  -31.8659   26.5599 H   0  0  0  0  0  0
  -28.2544  -38.0041   24.7538 H   0  0  0  0  0  0
  -28.1112  -36.2559   24.6283 H   0  0  0  0  0  0
  -27.2270  -37.1304   25.8868 H   0  0  0  0  0  0
  -20.9792  -29.8672   21.6354 H   0  0  0  0  0  0
  -26.0092  -38.2661   24.1432 H   0  0  0  0  0  0
  -25.6138  -19.4521   19.3499 H   0  0  0  0  0  0
  -26.6468  -20.9207   20.9725 H   0  0  0  0  0  0
  -27.0330  -18.4856   17.5630 H   0  0  0  0  0  0
  -29.6527  -18.5711   16.6683 H   0  0  0  0  0  0
  -29.2660  -16.9991   17.3719 H   0  0  0  0  0  0
  -30.7281  -17.8574   17.8679 H   0  0  0  0  0  0
  -30.8650  -22.6140   20.6578 H   0  0  0  0  0  0
  -30.2443  -23.5728   19.3004 H   0  0  0  0  0  0
  -30.5326  -21.8437   19.0917 H   0  0  0  0  0  0
  -28.6283  -16.9882   20.9769 H   0  0  0  0  0  0
  1 25  1  0  0  0
  1 30  2  0  0  0
  1 81  1  0  0  0
  2  3  1  0  0  0
  2 25  1  0  0  0
  2 82  1  0  0  0
  2 83  1  0  0  0
  3  4  1  0  0  0
  3 84  1  0  0  0
  3 85  1  0  0  0
  4  5  1  0  0  0
  4 86  1  0  0  0
  4 87  1  0  0  0
  5  6  1  0  0  0
  5 26  1  0  0  0
  5 88  1  0  0  0
  6 25  1  0  0  0
  6 89  1  0  0  0
  6 90  1  0  0  0
  7  8  2  0  0  0
  7 26  1  0  0  0
  7 29  1  0  0  0
  8  9  1  0  0  0
  8 22  1  0  0  0
  9 10  1  0  0  0
  9 27  2  0  0  0
 10 11  2  0  0  0
 10 15  1  0  0  0
 11 12  1  0  0  0
 11 91  1  0  0  0
 12 13  2  0  0  0
 12 92  1  0  0  0
 13 14  1  0  0  0
 13 31  1  0  0  0
 14 15  2  0  0  0
 14 93  1  0  0  0
 15 94  1  0  0  0
 16 17  2  0  0  0
 16 21  1  0  0  0
 16 31  1  0  0  0
 17 18  1  0  0  0
 17 95  1  0  0  0
 18 19  2  0  0  0
 18 96  1  0  0  0
 19 20  1  0  0  0
 19 24  1  0  0  0
 20 21  2  0  0  0
 20 97  1  0  0  0
 21 23  1  0  0  0
 22 28  1  0  0  0
 22 32  2  0  0  0
 26 27  1  0  0  0
 28 98  1  0  0  0
 28 99  1  0  0  0
 29100  1  0  0  0
 29101  1  0  0  0
 33 34  1  0  0  0
 33 66  1  0  0  0
 33 70  2  0  0  0
 34 36  1  0  0  0
 34 59  1  0  0  0
 34102  1  0  0  0
 35 44  2  0  0  0
 35 45  1  0  0  0
 35 68  1  0  0  0
 36 56  1  0  0  0
 36103  1  0  0  0
 37 39  1  0  0  0
 37 47  1  0  0  0
 37 66  1  0  0  0
 37104  1  0  0  0
 38 43  2  0  0  0
 38 46  1  0  0  0
 38 47  1  0  0  0
 39 64  1  0  0  0
 39 67  2  0  0  0
 40 52  1  0  0  0
 40 53  2  0  0  0
 40 58  1  0  0  0
 41105  1  0  0  0
 41106  1  0  0  0
 41107  1  0  0  0
 41 48  1  0  0  0
 42 43  1  0  0  0
 42 66  1  0  0  0
 42108  1  0  0  0
 42109  1  0  0  0
 43 44  1  0  0  0
 44110  1  0  0  0
 45 46  2  0  0  0
 45111  1  0  0  0
 46112  1  0  0  0
 47113  1  0  0  0
 47114  1  0  0  0
 48 56  1  0  0  0
 48 65  1  0  0  0
 48115  1  0  0  0
 49 50  1  0  0  0
 49 53  1  0  0  0
 49 64  1  0  0  0
 49116  1  0  0  0
 50 51  1  0  0  0
 50117  1  0  0  0
 50118  1  0  0  0
 51 52  1  0  0  0
 51119  1  0  0  0
 51120  1  0  0  0
 52121  1  0  0  0
 52122  1  0  0  0
 53 54  1  0  0  0
 54 55  2  0  0  0
 54123  1  0  0  0
 55 57  1  0  0  0
 55124  1  0  0  0
 56 69  2  0  0  0
 57 58  2  0  0  0
 57125  1  0  0  0
 58126  1  0  0  0
 59 60  1  0  0  0
 59 61  1  0  0  0
 59 62  1  0  0  0
 60127  1  0  0  0
 60128  1  0  0  0
 60129  1  0  0  0
 61130  1  0  0  0
 61131  1  0  0  0
 61132  1  0  0  0
 62133  1  0  0  0
 62134  1  0  0  0
 62135  1  0  0  0
 63 65  1  0  0  0
 63136  1  0  0  0
 63137  1  0  0  0
 63138  1  0  0  0
 64139  1  0  0  0
 65140  1  0  0  0
 68 80  1  0  0  0
 71 72  2  0  0  0
 71 73  1  0  0  0
 71141  1  0  0  0
 72 74  1  0  0  0
 72142  1  0  0  0
 73 75  2  0  0  0
 73143  1  0  0  0
 74 76  2  0  0  0
 74 77  1  0  0  0
 75 76  1  0  0  0
 75 78  1  0  0  0
 76 81  1  0  0  0
 77 79  1  0  0  0
 77 80  2  0  0  0
 78144  1  0  0  0
 78145  1  0  0  0
 78146  1  0  0  0
 79147  1  0  0  0
 79148  1  0  0  0
 79149  1  0  0  0
 81150  1  0  0  0
M  ISO  4   1 100  68 101  80 101  81 100
M  END
> <chiral flag>
0

> <version>
0

> <s_m_source_file>
/data/baiqing/PycharmProjects/Reinvent-master-3.2/result/LINK_invent/BTK/process_docking_weight1_custom_product_contain_oxygen_bond_distance_aromatic_linkinvent_7_9_3/rearranged_h_0052.sdf

> <i_m_source_file_index>
36

> <r_mmod_Potential_Energy-OPLS-2005>
3342.62182617188

> <r_mmod_Stretch_Energy-OPLS-2005>
1394.21704101562

> <r_mmod_Bend_Energy-OPLS-2005>
739.605590820312

> <r_mmod_Torsional_Energy-OPLS-2005>
460.643859863281

> <r_mmod_Improper_Torsional_Energy-OPLS-2005>
40.3013343811035

> <r_mmod_Van_der_Waal_Energy-OPLS-2005>
129.029571533203

> <r_mmod_Electrostatic_Energy-OPLS-2005>
-377.740509033203

> <r_mmod_Solvation_Energy-OPLS-2005>
-217.774230957031

> <b_mmod_Minimization_Converged-OPLS-2005>
0

> <r_mmod_RMS_Derivative-OPLS-2005>
4.23717164993286

$$$$
36
                    3D
 Structure written by MMmdl.
157165  0  0  1  0            999 V2000
  -30.6641  -14.5489   20.5316 C   0  0  0  0  0  0
  -30.4302  -12.3429   19.4346 C   0  0  0  0  0  0
  -29.5006  -12.5044   18.2129 C   0  0  0  0  0  0
  -28.0221  -12.3548   18.6244 C   0  0  0  0  0  0
  -27.6573  -13.2092   19.8678 C   0  0  2  0  0  0
  -28.7016  -13.0263   20.9929 C   0  0  0  0  0  0
  -25.2576  -13.8156   20.5676 C   0  0  0  0  0  0
  -24.1835  -13.0433   20.9188 C   0  0  0  0  0  0
  -24.6389  -11.6901   20.8735 C   0  0  0  0  0  0
  -23.9052  -10.4289   21.0399 C   0  0  0  0  0  0
  -24.3607   -9.4206   21.9176 C   0  0  0  0  0  0
  -23.6285   -8.2241   22.0750 C   0  0  0  0  0  0
  -22.4266   -8.0277   21.3543 C   0  0  0  0  0  0
  -21.9896   -9.0249   20.4647 C   0  0  0  0  0  0
  -22.7224  -10.2130   20.3051 C   0  0  0  0  0  0
  -21.6854   -6.0727   22.5274 C   0  0  0  0  0  0
  -21.4019   -6.5633   23.8208 C   0  0  0  0  0  0
  -21.3660   -5.6787   24.9170 C   0  0  0  0  0  0
  -21.6042   -4.3049   24.7222 C   0  0  0  0  0  0
  -21.8820   -3.8141   23.4347 C   0  0  0  0  0  0
  -21.9196   -4.6958   22.3401 C   0  0  0  0  0  0
  -22.7858  -13.5235   21.1844 C   0  0  0  0  0  0
  -22.1663   -4.2140   21.0978 F   0  0  0  0  0  0
  -21.5626   -3.4533   25.7738 F   0  0  0  0  0  0
  -30.0254  -13.3467   20.4341 N   0  0  0  0  0  0
  -26.3004  -12.9327   20.3332 N   0  0  0  0  0  0
  -25.9315  -11.6487   20.5750 N   0  0  0  0  0  0
  -22.0496  -12.8237   22.0404 N   0  0  0  0  0  0
  -25.4292  -15.1873   20.4067 N   0  0  0  0  0  0
  -31.8192  -14.7081   20.1265 O   0  0  0  0  0  0
  -21.6636   -6.8871   21.4238 O   0  0  0  0  0  0
  -22.3546  -14.5542   20.6688 O   0  0  0  0  0  0
  -24.6202  -31.8648   23.2081 C   0  0  0  0  0  0
  -25.9081  -32.4804   23.8383 C   0  0  1  0  0  0
  -27.2249  -27.3791   20.1006 C   0  0  0  0  0  0
  -25.5920  -33.8604   24.2313 N   0  0  0  0  0  0
  -23.4100  -30.4904   21.5502 C   0  0  2  0  0  0
  -24.8541  -28.9560   20.1109 C   0  0  0  0  0  0
  -22.7440  -29.4644   22.4967 C   0  0  0  0  0  0
  -18.0279  -28.1376   22.8483 C   0  0  0  0  0  0
  -24.1491  -36.7304   23.2637 C   0  0  0  0  0  0
  -25.9461  -30.8133   21.3710 C   0  0  0  0  0  0
  -26.0204  -29.4469   20.7109 C   0  0  0  0  0  0
  -27.2089  -28.6690   20.6982 C   0  0  0  0  0  0
  -26.0348  -26.9262   19.4820 C   0  0  0  0  0  0
  -24.8598  -27.6979   19.4906 C   0  0  0  0  0  0
  -23.6200  -29.8289   20.1633 C   0  0  0  0  0  0
  -25.4110  -36.3097   24.0337 C   0  0  1  0  0  0
  -20.5872  -28.3672   23.1298 C   0  0  2  0  0  0
  -20.6770  -26.9403   22.5414 C   0  0  0  0  0  0
  -19.5751  -26.6384   21.5205 C   0  0  0  0  0  0
  -18.1928  -26.7924   22.1614 C   0  0  0  0  0  0
  -19.1530  -28.8842   23.2887 C   0  0  0  0  0  0
  -18.9457  -30.1445   23.8903 C   0  0  0  0  0  0
  -17.6459  -30.6582   24.0562 C   0  0  0  0  0  0
  -25.9042  -34.9464   23.5119 C   0  0  0  0  0  0
  -16.5350  -29.9081   23.6324 C   0  0  0  0  0  0
  -16.7266  -28.6496   23.0347 C   0  0  0  0  0  0
  -26.4484  -31.6597   25.0732 C   0  0  0  0  0  0
  -25.3743  -31.3733   26.1480 C   0  0  0  0  0  0
  -27.0307  -30.3023   24.6151 C   0  0  0  0  0  0
  -27.6057  -32.4321   25.7490 C   0  0  0  0  0  0
  -27.5583  -37.1805   24.8458 C   0  0  0  0  0  0
  -21.4161  -29.3037   22.3705 N   0  0  0  0  0  0
  -26.4293  -37.3785   23.9407 N   0  0  0  0  0  0
  -24.6772  -31.0711   22.1006 N   0  0  0  0  0  0
  -23.4190  -28.8176   23.3020 O   0  0  0  0  0  0
  -28.3666  -26.5809   20.1433 O   0  0  0  0  0  0
  -26.5598  -34.8921   22.4679 O   0  0  0  0  0  0
  -23.5384  -32.1425   23.7448 O   0  0  0  0  0  0
  -29.0062  -17.8862   20.6395 C   0  0  0  0  0  0
  -29.1722  -19.2965   20.5620 C   0  0  0  0  0  0
  -31.3835  -17.6085   20.9874 C   0  0  0  0  0  0
  -31.5607  -19.0168   20.9273 C   0  0  0  0  0  0
  -30.1084  -17.0142   20.8365 C   0  0  0  0  0  0
  -30.4492  -19.8843   20.7069 C   0  0  0  0  0  0
  -32.9679  -19.5632   21.1151 C   0  0  0  0  0  0
  -29.3738  -24.2385   20.4242 C   0  0  0  0  0  0
  -28.1763  -25.1426   19.9970 C   0  0  0  0  0  0
  -29.1295  -22.6846   20.3478 C   0  0  0  0  0  0
  -31.4904  -22.0069   19.2706 N   0  0  0  0  0  0
  -29.8818  -15.5891   20.9250 N   0  0  0  0  0  0
  -31.2772  -22.1814   21.8644 O   0  0  0  0  0  0
  -30.7035  -21.7151   20.5914 S   0  0  2  0  0  0
  -31.4733  -12.4520   19.1322 H   0  0  0  0  0  0
  -30.3446  -11.3393   19.8535 H   0  0  0  0  0  0
  -29.7519  -11.7689   17.4478 H   0  0  0  0  0  0
  -29.6578  -13.4837   17.7578 H   0  0  0  0  0  0
  -27.8440  -11.2997   18.8365 H   0  0  0  0  0  0
  -27.3705  -12.6102   17.7877 H   0  0  0  0  0  0
  -27.6884  -14.2506   19.5477 H   0  0  0  0  0  0
  -28.6943  -11.9975   21.3560 H   0  0  0  0  0  0
  -28.4594  -13.6443   21.8589 H   0  0  0  0  0  0
  -25.2754   -9.5685   22.4745 H   0  0  0  0  0  0
  -23.9999   -7.4633   22.7465 H   0  0  0  0  0  0
  -21.0826   -8.8765   19.8954 H   0  0  0  0  0  0
  -22.3677  -10.9665   19.6157 H   0  0  0  0  0  0
  -21.2015   -7.6141   23.9709 H   0  0  0  0  0  0
  -21.1478   -6.0516   25.9071 H   0  0  0  0  0  0
  -22.0602   -2.7603   23.2848 H   0  0  0  0  0  0
  -22.4106  -11.9896   22.4797 H   0  0  0  0  0  0
  -21.1116  -13.1266   22.2604 H   0  0  0  0  0  0
  -24.6582  -15.8391   20.5043 H   0  0  0  0  0  0
  -26.2686  -15.6207   20.0456 H   0  0  0  0  0  0
  -26.7145  -32.5489   23.1131 H   0  0  0  0  0  0
  -25.0083  -33.9760   25.0467 H   0  0  0  0  0  0
  -22.7004  -31.3089   21.4126 H   0  0  0  0  0  0
  -23.3751  -35.9641   23.3308 H   0  0  0  0  0  0
  -24.3587  -36.8910   22.2050 H   0  0  0  0  0  0
  -23.7252  -37.6516   23.6644 H   0  0  0  0  0  0
  -26.0723  -31.5824   20.6078 H   0  0  0  0  0  0
  -26.8285  -30.8578   21.9976 H   0  0  0  0  0  0
  -28.1056  -29.0422   21.1727 H   0  0  0  0  0  0
  -25.9833  -25.9675   18.9883 H   0  0  0  0  0  0
  -23.9650  -27.3163   19.0183 H   0  0  0  0  0  0
  -23.7331  -30.6072   19.4075 H   0  0  0  0  0  0
  -22.7411  -29.2551   19.8633 H   0  0  0  0  0  0
  -25.1289  -36.1957   25.0830 H   0  0  0  0  0  0
  -20.9964  -28.3247   24.1419 H   0  0  0  0  0  0
  -20.5658  -26.2283   23.3608 H   0  0  0  0  0  0
  -21.6643  -26.7439   22.1215 H   0  0  0  0  0  0
  -19.6914  -25.6297   21.1232 H   0  0  0  0  0  0
  -19.6692  -27.3194   20.6735 H   0  0  0  0  0  0
  -17.4201  -26.6672   21.4013 H   0  0  0  0  0  0
  -18.0328  -26.0063   22.9006 H   0  0  0  0  0  0
  -19.7937  -30.7252   24.2280 H   0  0  0  0  0  0
  -17.5017  -31.6263   24.5165 H   0  0  0  0  0  0
  -15.5350  -30.2983   23.7646 H   0  0  0  0  0  0
  -15.8668  -28.0813   22.7063 H   0  0  0  0  0  0
  -24.5905  -30.7086   25.7831 H   0  0  0  0  0  0
  -24.8949  -32.2902   26.4916 H   0  0  0  0  0  0
  -25.8092  -30.8914   27.0246 H   0  0  0  0  0  0
  -26.2858  -29.6795   24.1181 H   0  0  0  0  0  0
  -27.4020  -29.7253   25.4630 H   0  0  0  0  0  0
  -27.8723  -30.4313   23.9343 H   0  0  0  0  0  0
  -27.2674  -33.3614   26.2085 H   0  0  0  0  0  0
  -28.3850  -32.6899   25.0306 H   0  0  0  0  0  0
  -28.0743  -31.8440   26.5392 H   0  0  0  0  0  0
  -28.2601  -38.0102   24.7508 H   0  0  0  0  0  0
  -28.1078  -36.2635   24.6273 H   0  0  0  0  0  0
  -27.2306  -37.1451   25.8862 H   0  0  0  0  0  0
  -20.9328  -29.8768   21.6931 H   0  0  0  0  0  0
  -26.0181  -38.2863   24.1410 H   0  0  0  0  0  0
  -28.0108  -17.4782   20.5327 H   0  0  0  0  0  0
  -28.3126  -19.9280   20.3945 H   0  0  0  0  0  0
  -32.2461  -16.9822   21.1666 H   0  0  0  0  0  0
  -33.7014  -18.7617   21.2079 H   0  0  0  0  0  0
  -33.0274  -20.1672   22.0207 H   0  0  0  0  0  0
  -33.2679  -20.1780   20.2671 H   0  0  0  0  0  0
  -29.6670  -24.4967   21.4422 H   0  0  0  0  0  0
  -30.2299  -24.4938   19.7990 H   0  0  0  0  0  0
  -27.3105  -24.8336   20.5853 H   0  0  0  0  0  0
  -27.9478  -24.9260   18.9523 H   0  0  0  0  0  0
  -28.7041  -22.3958   19.3877 H   0  0  0  0  0  0
  -28.4243  -22.3692   21.1167 H   0  0  0  0  0  0
  -31.0831  -21.5003   18.4741 H   0  0  0  0  0  0
  -28.9402  -15.3134   21.1574 H   0  0  0  0  0  0
  1 25  1  0  0  0
  1 30  2  0  0  0
  1 82  1  0  0  0
  2  3  1  0  0  0
  2 25  1  0  0  0
  2 85  1  0  0  0
  2 86  1  0  0  0
  3  4  1  0  0  0
  3 87  1  0  0  0
  3 88  1  0  0  0
  4  5  1  0  0  0
  4 89  1  0  0  0
  4 90  1  0  0  0
  5  6  1  0  0  0
  5 26  1  0  0  0
  5 91  1  0  0  0
  6 25  1  0  0  0
  6 92  1  0  0  0
  6 93  1  0  0  0
  7  8  2  0  0  0
  7 26  1  0  0  0
  7 29  1  0  0  0
  8  9  1  0  0  0
  8 22  1  0  0  0
  9 10  1  0  0  0
  9 27  2  0  0  0
 10 11  2  0  0  0
 10 15  1  0  0  0
 11 12  1  0  0  0
 11 94  1  0  0  0
 12 13  2  0  0  0
 12 95  1  0  0  0
 13 14  1  0  0  0
 13 31  1  0  0  0
 14 15  2  0  0  0
 14 96  1  0  0  0
 15 97  1  0  0  0
 16 17  2  0  0  0
 16 21  1  0  0  0
 16 31  1  0  0  0
 17 18  1  0  0  0
 17 98  1  0  0  0
 18 19  2  0  0  0
 18 99  1  0  0  0
 19 20  1  0  0  0
 19 24  1  0  0  0
 20 21  2  0  0  0
 20100  1  0  0  0
 21 23  1  0  0  0
 22 28  1  0  0  0
 22 32  2  0  0  0
 26 27  1  0  0  0
 28101  1  0  0  0
 28102  1  0  0  0
 29103  1  0  0  0
 29104  1  0  0  0
 33 34  1  0  0  0
 33 66  1  0  0  0
 33 70  2  0  0  0
 34 36  1  0  0  0
 34 59  1  0  0  0
 34105  1  0  0  0
 35 44  2  0  0  0
 35 45  1  0  0  0
 35 68  1  0  0  0
 36 56  1  0  0  0
 36106  1  0  0  0
 37 39  1  0  0  0
 37 47  1  0  0  0
 37 66  1  0  0  0
 37107  1  0  0  0
 38 43  2  0  0  0
 38 46  1  0  0  0
 38 47  1  0  0  0
 39 64  1  0  0  0
 39 67  2  0  0  0
 40 52  1  0  0  0
 40 53  2  0  0  0
 40 58  1  0  0  0
 41108  1  0  0  0
 41109  1  0  0  0
 41110  1  0  0  0
 41 48  1  0  0  0
 42 43  1  0  0  0
 42 66  1  0  0  0
 42111  1  0  0  0
 42112  1  0  0  0
 43 44  1  0  0  0
 44113  1  0  0  0
 45 46  2  0  0  0
 45114  1  0  0  0
 46115  1  0  0  0
 47116  1  0  0  0
 47117  1  0  0  0
 48 56  1  0  0  0
 48 65  1  0  0  0
 48118  1  0  0  0
 49 50  1  0  0  0
 49 53  1  0  0  0
 49 64  1  0  0  0
 49119  1  0  0  0
 50 51  1  0  0  0
 50120  1  0  0  0
 50121  1  0  0  0
 51 52  1  0  0  0
 51122  1  0  0  0
 51123  1  0  0  0
 52124  1  0  0  0
 52125  1  0  0  0
 53 54  1  0  0  0
 54 55  2  0  0  0
 54126  1  0  0  0
 55 57  1  0  0  0
 55127  1  0  0  0
 56 69  2  0  0  0
 57 58  2  0  0  0
 57128  1  0  0  0
 58129  1  0  0  0
 59 60  1  0  0  0
 59 61  1  0  0  0
 59 62  1  0  0  0
 60130  1  0  0  0
 60131  1  0  0  0
 60132  1  0  0  0
 61133  1  0  0  0
 61134  1  0  0  0
 61135  1  0  0  0
 62136  1  0  0  0
 62137  1  0  0  0
 62138  1  0  0  0
 63 65  1  0  0  0
 63139  1  0  0  0
 63140  1  0  0  0
 63141  1  0  0  0
 64142  1  0  0  0
 65143  1  0  0  0
 68 79  1  0  0  0
 71 72  2  0  0  0
 71 75  1  0  0  0
 71144  1  0  0  0
 72 76  1  0  0  0
 72145  1  0  0  0
 73 74  1  0  0  0
 73 75  2  0  0  0
 73146  1  0  0  0
 74 76  2  0  0  0
 74 77  1  0  0  0
 75 82  1  0  0  0
 76 84  1  0  0  0
 77147  1  0  0  0
 77148  1  0  0  0
 77149  1  0  0  0
 78 79  1  0  0  0
 78 80  1  0  0  0
 78150  1  0  0  0
 78151  1  0  0  0
 79152  1  0  0  0
 79153  1  0  0  0
 80154  1  0  0  0
 80155  1  0  0  0
 80 84  1  0  0  0
 81 84  2  0  0  0
 81156  1  0  0  0
 82157  1  0  0  0
 83 84  2  0  0  0
M  ISO  4   1 100  68 101  79 101  82 100
M  END
> <chiral flag>
0

> <version>
0

> <s_m_source_file>
/data/baiqing/PycharmProjects/Reinvent-master-3.2/result/LINK_invent/BTK/process_docking_weight1_custom_product_contain_oxygen_bond_distance_aromatic_linkinvent_7_9_3/rearranged_h_0052.sdf

> <i_m_source_file_index>
37

> <r_mmod_Potential_Energy-OPLS-2005>
-164.399505615234

> <r_mmod_Stretch_Energy-OPLS-2005>
53.8178977966309

> <r_mmod_Bend_Energy-OPLS-2005>
115.510543823242

> <r_mmod_Torsional_Energy-OPLS-2005>
218.222808837891

> <r_mmod_Improper_Torsional_Energy-OPLS-2005>
4.70454263687134

> <r_mmod_Van_der_Waal_Energy-OPLS-2005>
145.905044555664

> <r_mmod_Electrostatic_Energy-OPLS-2005>
-462.121185302734

> <r_mmod_Solvation_Energy-OPLS-2005>
-266.166839599609

> <b_mmod_Minimization_Converged-OPLS-2005>
0

> <r_mmod_RMS_Derivative-OPLS-2005>
0.710267901420593

$$$$
37
                    3D
 Structure written by MMmdl.
157165  0  0  1  0            999 V2000
  -30.6988  -14.4705   20.5121 C   0  0  0  0  0  0
  -30.4231  -12.2853   19.4381 C   0  0  0  0  0  0
  -29.5038  -12.4904   18.2144 C   0  0  0  0  0  0
  -28.0222  -12.3576   18.6207 C   0  0  0  0  0  0
  -27.6630  -13.2045   19.8721 C   0  0  2  0  0  0
  -28.7052  -13.0050   21.0000 C   0  0  0  0  0  0
  -25.2577  -13.8157   20.5657 C   0  0  0  0  0  0
  -24.1822  -13.0441   20.9155 C   0  0  0  0  0  0
  -24.6390  -11.6907   20.8723 C   0  0  0  0  0  0
  -23.9064  -10.4289   21.0404 C   0  0  0  0  0  0
  -24.3621   -9.4207   21.9187 C   0  0  0  0  0  0
  -23.6279   -8.2253   22.0769 C   0  0  0  0  0  0
  -22.4254   -8.0301   21.3570 C   0  0  0  0  0  0
  -21.9897   -9.0273   20.4672 C   0  0  0  0  0  0
  -22.7237  -10.2143   20.3060 C   0  0  0  0  0  0
  -21.6845   -6.0742   22.5287 C   0  0  0  0  0  0
  -21.4021   -6.5635   23.8218 C   0  0  0  0  0  0
  -21.3656   -5.6786   24.9177 C   0  0  0  0  0  0
  -21.6039   -4.3051   24.7219 C   0  0  0  0  0  0
  -21.8814   -3.8145   23.4332 C   0  0  0  0  0  0
  -21.9182   -4.6967   22.3399 C   0  0  0  0  0  0
  -22.7846  -13.5248   21.1806 C   0  0  0  0  0  0
  -22.1652   -4.2169   21.0968 F   0  0  0  0  0  0
  -21.5623   -3.4530   25.7728 F   0  0  0  0  0  0
  -30.0429  -13.2825   20.4493 N   0  0  0  0  0  0
  -26.3029  -12.9330   20.3331 N   0  0  0  0  0  0
  -25.9313  -11.6498   20.5758 N   0  0  0  0  0  0
  -22.0476  -12.8277   22.0385 N   0  0  0  0  0  0
  -25.4273  -15.1879   20.4070 N   0  0  0  0  0  0
  -31.8511  -14.6267   20.0984 O   0  0  0  0  0  0
  -21.6637   -6.8891   21.4248 O   0  0  0  0  0  0
  -22.3536  -14.5549   20.6635 O   0  0  0  0  0  0
  -24.6149  -31.8670   23.2091 C   0  0  0  0  0  0
  -25.9051  -32.4815   23.8380 C   0  0  1  0  0  0
  -27.2317  -27.4345   20.1035 C   0  0  0  0  0  0
  -25.5904  -33.8611   24.2311 N   0  0  0  0  0  0
  -23.4022  -30.4922   21.5488 C   0  0  2  0  0  0
  -24.8495  -28.9574   20.1123 C   0  0  0  0  0  0
  -22.7412  -29.4663   22.4973 C   0  0  0  0  0  0
  -18.0282  -28.1382   22.8485 C   0  0  0  0  0  0
  -24.1485  -36.7315   23.2631 C   0  0  0  0  0  0
  -25.9307  -30.8358   21.3597 C   0  0  0  0  0  0
  -26.0100  -29.4703   20.7070 C   0  0  0  0  0  0
  -27.2078  -28.7181   20.6956 C   0  0  0  0  0  0
  -26.0588  -26.9376   19.4950 C   0  0  0  0  0  0
  -24.8689  -27.6908   19.5015 C   0  0  0  0  0  0
  -23.6110  -29.8248   20.1630 C   0  0  0  0  0  0
  -25.4101  -36.3103   24.0331 C   0  0  1  0  0  0
  -20.5869  -28.3668   23.1311 C   0  0  2  0  0  0
  -20.6771  -26.9402   22.5420 C   0  0  0  0  0  0
  -19.5752  -26.6382   21.5216 C   0  0  0  0  0  0
  -18.1928  -26.7938   22.1615 C   0  0  0  0  0  0
  -19.1535  -28.8842   23.2900 C   0  0  0  0  0  0
  -18.9467  -30.1447   23.8916 C   0  0  0  0  0  0
  -17.6467  -30.6573   24.0576 C   0  0  0  0  0  0
  -25.9037  -34.9471   23.5118 C   0  0  0  0  0  0
  -16.5359  -29.9083   23.6331 C   0  0  0  0  0  0
  -16.7268  -28.6506   23.0337 C   0  0  0  0  0  0
  -26.4478  -31.6594   25.0705 C   0  0  0  0  0  0
  -25.3747  -31.3733   26.1462 C   0  0  0  0  0  0
  -27.0284  -30.3023   24.6075 C   0  0  0  0  0  0
  -27.6056  -32.4309   25.7463 C   0  0  0  0  0  0
  -27.5591  -37.1789   24.8451 C   0  0  0  0  0  0
  -21.4142  -29.3031   22.3705 N   0  0  0  0  0  0
  -26.4278  -37.3797   23.9430 N   0  0  0  0  0  0
  -24.6673  -31.0789   22.0980 N   0  0  0  0  0  0
  -23.4187  -28.8210   23.3017 O   0  0  0  0  0  0
  -28.3765  -26.6686   20.1204 O   0  0  0  0  0  0
  -26.5599  -34.8931   22.4679 O   0  0  0  0  0  0
  -23.5348  -32.1418   23.7494 O   0  0  0  0  0  0
  -30.7005  -19.4775   22.5868 C   0  0  0  0  0  0
  -30.5921  -18.2101   21.9769 C   0  0  0  0  0  0
  -30.2701  -20.6400   21.9120 C   0  0  0  0  0  0
  -29.6220  -19.2693   20.0116 C   0  0  0  0  0  0
  -30.0534  -18.0979   20.6795 C   0  0  0  0  0  0
  -29.7078  -20.5454   20.6178 C   0  0  0  0  0  0
  -28.8608  -24.2235   20.0750 C   0  0  0  0  0  0
  -27.8289  -22.6837   21.7101 C   0  0  0  0  0  0
  -29.9701  -16.7570   19.9466 C   0  0  0  0  0  0
  -29.2364  -21.7809   19.8263 C   0  0  0  0  0  0
  -28.2552  -25.4242   20.8486 C   0  0  0  0  0  0
  -29.9108  -15.5298   20.7570 N   0  0  0  0  0  0
  -28.7053  -22.9582   20.5628 N   0  0  0  0  0  0
  -29.4788  -24.4505   19.0281 O   0  0  0  0  0  0
  -31.4721  -12.3598   19.1464 H   0  0  0  0  0  0
  -30.3003  -11.2803   19.8448 H   0  0  0  0  0  0
  -29.7435  -11.7636   17.4361 H   0  0  0  0  0  0
  -29.6811  -13.4724   17.7735 H   0  0  0  0  0  0
  -27.8278  -11.3032   18.8198 H   0  0  0  0  0  0
  -27.3769  -12.6303   17.7855 H   0  0  0  0  0  0
  -27.7005  -14.2466   19.5590 H   0  0  0  0  0  0
  -28.6687  -11.9820   21.3735 H   0  0  0  0  0  0
  -28.4789  -13.6429   21.8559 H   0  0  0  0  0  0
  -25.2782   -9.5649   22.4748 H   0  0  0  0  0  0
  -23.9991   -7.4616   22.7454 H   0  0  0  0  0  0
  -21.0846   -8.8792   19.8958 H   0  0  0  0  0  0
  -22.3723  -10.9678   19.6153 H   0  0  0  0  0  0
  -21.2045   -7.6151   23.9721 H   0  0  0  0  0  0
  -21.1477   -6.0524   25.9078 H   0  0  0  0  0  0
  -22.0596   -2.7609   23.2827 H   0  0  0  0  0  0
  -22.4080  -11.9993   22.4890 H   0  0  0  0  0  0
  -21.1084  -13.1324   22.2531 H   0  0  0  0  0  0
  -24.6562  -15.8379   20.5149 H   0  0  0  0  0  0
  -26.2779  -15.6321   20.0863 H   0  0  0  0  0  0
  -26.7123  -32.5530   23.1149 H   0  0  0  0  0  0
  -25.0074  -33.9763   25.0469 H   0  0  0  0  0  0
  -22.6909  -31.3093   21.4107 H   0  0  0  0  0  0
  -23.3745  -35.9646   23.3268 H   0  0  0  0  0  0
  -24.3602  -36.8957   22.2053 H   0  0  0  0  0  0
  -23.7229  -37.6507   23.6664 H   0  0  0  0  0  0
  -26.0410  -31.6009   20.5899 H   0  0  0  0  0  0
  -26.8194  -30.8910   21.9764 H   0  0  0  0  0  0
  -28.1044  -29.1084   21.1573 H   0  0  0  0  0  0
  -26.0636  -25.9655   19.0210 H   0  0  0  0  0  0
  -23.9780  -27.2914   19.0367 H   0  0  0  0  0  0
  -23.7219  -30.6009   19.4049 H   0  0  0  0  0  0
  -22.7332  -29.2484   19.8655 H   0  0  0  0  0  0
  -25.1267  -36.1954   25.0819 H   0  0  0  0  0  0
  -20.9970  -28.3252   24.1427 H   0  0  0  0  0  0
  -20.5676  -26.2277   23.3612 H   0  0  0  0  0  0
  -21.6643  -26.7458   22.1211 H   0  0  0  0  0  0
  -19.6916  -25.6292   21.1242 H   0  0  0  0  0  0
  -19.6691  -27.3201   20.6751 H   0  0  0  0  0  0
  -17.4195  -26.6688   21.4018 H   0  0  0  0  0  0
  -18.0336  -26.0079   22.9013 H   0  0  0  0  0  0
  -19.7930  -30.7277   24.2291 H   0  0  0  0  0  0
  -17.5012  -31.6252   24.5171 H   0  0  0  0  0  0
  -15.5366  -30.2995   23.7639 H   0  0  0  0  0  0
  -15.8664  -28.0844   22.7035 H   0  0  0  0  0  0
  -24.5897  -30.7097   25.7826 H   0  0  0  0  0  0
  -24.8969  -32.2906   26.4911 H   0  0  0  0  0  0
  -25.8098  -30.8905   27.0217 H   0  0  0  0  0  0
  -26.2806  -29.6800   24.1138 H   0  0  0  0  0  0
  -27.4059  -29.7256   25.4530 H   0  0  0  0  0  0
  -27.8653  -30.4331   23.9210 H   0  0  0  0  0  0
  -27.2665  -33.3587   26.2089 H   0  0  0  0  0  0
  -28.3839  -32.6902   25.0273 H   0  0  0  0  0  0
  -28.0753  -31.8405   26.5340 H   0  0  0  0  0  0
  -28.2562  -38.0131   24.7562 H   0  0  0  0  0  0
  -28.1128  -36.2670   24.6168 H   0  0  0  0  0  0
  -27.2336  -37.1314   25.8857 H   0  0  0  0  0  0
  -20.9304  -29.8743   21.6920 H   0  0  0  0  0  0
  -26.0162  -38.2859   24.1480 H   0  0  0  0  0  0
  -31.1264  -19.5580   23.5768 H   0  0  0  0  0  0
  -30.9410  -17.3318   22.5035 H   0  0  0  0  0  0
  -30.3702  -21.5997   22.3996 H   0  0  0  0  0  0
  -29.2239  -19.1860   19.0086 H   0  0  0  0  0  0
  -26.8088  -23.0156   21.5148 H   0  0  0  0  0  0
  -28.1941  -23.1880   22.6059 H   0  0  0  0  0  0
  -27.7563  -21.6241   21.9483 H   0  0  0  0  0  0
  -30.7937  -16.7244   19.2314 H   0  0  0  0  0  0
  -29.0650  -16.7594   19.3374 H   0  0  0  0  0  0
  -28.4621  -21.4659   19.1256 H   0  0  0  0  0  0
  -30.0869  -22.0695   19.2075 H   0  0  0  0  0  0
  -28.7947  -25.5275   21.7902 H   0  0  0  0  0  0
  -27.2194  -25.2068   21.1117 H   0  0  0  0  0  0
  -29.0084  -15.3096   21.1485 H   0  0  0  0  0  0
  1 25  1  0  0  0
  1 30  2  0  0  0
  1 82  1  0  0  0
  2  3  1  0  0  0
  2 25  1  0  0  0
  2 85  1  0  0  0
  2 86  1  0  0  0
  3  4  1  0  0  0
  3 87  1  0  0  0
  3 88  1  0  0  0
  4  5  1  0  0  0
  4 89  1  0  0  0
  4 90  1  0  0  0
  5  6  1  0  0  0
  5 26  1  0  0  0
  5 91  1  0  0  0
  6 25  1  0  0  0
  6 92  1  0  0  0
  6 93  1  0  0  0
  7  8  2  0  0  0
  7 26  1  0  0  0
  7 29  1  0  0  0
  8  9  1  0  0  0
  8 22  1  0  0  0
  9 10  1  0  0  0
  9 27  2  0  0  0
 10 11  2  0  0  0
 10 15  1  0  0  0
 11 12  1  0  0  0
 11 94  1  0  0  0
 12 13  2  0  0  0
 12 95  1  0  0  0
 13 14  1  0  0  0
 13 31  1  0  0  0
 14 15  2  0  0  0
 14 96  1  0  0  0
 15 97  1  0  0  0
 16 17  2  0  0  0
 16 21  1  0  0  0
 16 31  1  0  0  0
 17 18  1  0  0  0
 17 98  1  0  0  0
 18 19  2  0  0  0
 18 99  1  0  0  0
 19 20  1  0  0  0
 19 24  1  0  0  0
 20 21  2  0  0  0
 20100  1  0  0  0
 21 23  1  0  0  0
 22 28  1  0  0  0
 22 32  2  0  0  0
 26 27  1  0  0  0
 28101  1  0  0  0
 28102  1  0  0  0
 29103  1  0  0  0
 29104  1  0  0  0
 33 34  1  0  0  0
 33 66  1  0  0  0
 33 70  2  0  0  0
 34 36  1  0  0  0
 34 59  1  0  0  0
 34105  1  0  0  0
 35 44  2  0  0  0
 35 45  1  0  0  0
 35 68  1  0  0  0
 36 56  1  0  0  0
 36106  1  0  0  0
 37 39  1  0  0  0
 37 47  1  0  0  0
 37 66  1  0  0  0
 37107  1  0  0  0
 38 43  2  0  0  0
 38 46  1  0  0  0
 38 47  1  0  0  0
 39 64  1  0  0  0
 39 67  2  0  0  0
 40 52  1  0  0  0
 40 53  2  0  0  0
 40 58  1  0  0  0
 41108  1  0  0  0
 41109  1  0  0  0
 41110  1  0  0  0
 41 48  1  0  0  0
 42 43  1  0  0  0
 42 66  1  0  0  0
 42111  1  0  0  0
 42112  1  0  0  0
 43 44  1  0  0  0
 44113  1  0  0  0
 45 46  2  0  0  0
 45114  1  0  0  0
 46115  1  0  0  0
 47116  1  0  0  0
 47117  1  0  0  0
 48 56  1  0  0  0
 48 65  1  0  0  0
 48118  1  0  0  0
 49 50  1  0  0  0
 49 53  1  0  0  0
 49 64  1  0  0  0
 49119  1  0  0  0
 50 51  1  0  0  0
 50120  1  0  0  0
 50121  1  0  0  0
 51 52  1  0  0  0
 51122  1  0  0  0
 51123  1  0  0  0
 52124  1  0  0  0
 52125  1  0  0  0
 53 54  1  0  0  0
 54 55  2  0  0  0
 54126  1  0  0  0
 55 57  1  0  0  0
 55127  1  0  0  0
 56 69  2  0  0  0
 57 58  2  0  0  0
 57128  1  0  0  0
 58129  1  0  0  0
 59 60  1  0  0  0
 59 61  1  0  0  0
 59 62  1  0  0  0
 60130  1  0  0  0
 60131  1  0  0  0
 60132  1  0  0  0
 61133  1  0  0  0
 61134  1  0  0  0
 61135  1  0  0  0
 62136  1  0  0  0
 62137  1  0  0  0
 62138  1  0  0  0
 63 65  1  0  0  0
 63139  1  0  0  0
 63140  1  0  0  0
 63141  1  0  0  0
 64142  1  0  0  0
 65143  1  0  0  0
 68 81  1  0  0  0
 71 72  2  0  0  0
 71 73  1  0  0  0
 71144  1  0  0  0
 72 75  1  0  0  0
 72145  1  0  0  0
 73 76  2  0  0  0
 73146  1  0  0  0
 74 75  2  0  0  0
 74 76  1  0  0  0
 74147  1  0  0  0
 75 79  1  0  0  0
 76 80  1  0  0  0
 77 81  1  0  0  0
 77 83  1  0  0  0
 77 84  2  0  0  0
 78 83  1  0  0  0
 78148  1  0  0  0
 78149  1  0  0  0
 78150  1  0  0  0
 79 82  1  0  0  0
 79151  1  0  0  0
 79152  1  0  0  0
 80 83  1  0  0  0
 80153  1  0  0  0
 80154  1  0  0  0
 81155  1  0  0  0
 81156  1  0  0  0
 82157  1  0  0  0
M  ISO  4   1 100  68 101  81 101  82 100
M  END
> <chiral flag>
0

> <version>
0

> <s_m_source_file>
/data/baiqing/PycharmProjects/Reinvent-master-3.2/result/LINK_invent/BTK/process_docking_weight1_custom_product_contain_oxygen_bond_distance_aromatic_linkinvent_7_9_3/rearranged_h_0052.sdf

> <i_m_source_file_index>
38

> <r_mmod_Potential_Energy-OPLS-2005>
-50.4874992370605

> <r_mmod_Stretch_Energy-OPLS-2005>
41.7106285095215

> <r_mmod_Bend_Energy-OPLS-2005>
95.9486389160156

> <r_mmod_Torsional_Energy-OPLS-2005>
247.216125488281

> <r_mmod_Improper_Torsional_Energy-OPLS-2005>
10.4926977157593

> <r_mmod_Van_der_Waal_Energy-OPLS-2005>
163.264556884766

> <r_mmod_Electrostatic_Energy-OPLS-2005>
-382.54931640625

> <r_mmod_Solvation_Energy-OPLS-2005>
-241.812683105469

> <b_mmod_Minimization_Converged-OPLS-2005>
0

> <r_mmod_RMS_Derivative-OPLS-2005>
2.57291460037231

$$$$
38
                    3D
 Structure written by MMmdl.
154162  0  0  1  0            999 V2000
  -30.6238  -14.6427   20.5091 C   0  0  0  0  0  0
  -30.4394  -12.3944   19.4606 C   0  0  0  0  0  0
  -29.5114  -12.5084   18.2305 C   0  0  0  0  0  0
  -28.0344  -12.3428   18.6409 C   0  0  0  0  0  0
  -27.6549  -13.2156   19.8669 C   0  0  2  0  0  0
  -28.6967  -13.0724   20.9994 C   0  0  0  0  0  0
  -25.2566  -13.8169   20.5665 C   0  0  0  0  0  0
  -24.1829  -13.0442   20.9179 C   0  0  0  0  0  0
  -24.6393  -11.6907   20.8737 C   0  0  0  0  0  0
  -23.9060  -10.4289   21.0407 C   0  0  0  0  0  0
  -24.3618   -9.4210   21.9187 C   0  0  0  0  0  0
  -23.6294   -8.2246   22.0755 C   0  0  0  0  0  0
  -22.4279   -8.0282   21.3542 C   0  0  0  0  0  0
  -21.9912   -9.0252   20.4647 C   0  0  0  0  0  0
  -22.7234  -10.2133   20.3056 C   0  0  0  0  0  0
  -21.6851   -6.0743   22.5277 C   0  0  0  0  0  0
  -21.4013   -6.5645   23.8211 C   0  0  0  0  0  0
  -21.3660   -5.6796   24.9173 C   0  0  0  0  0  0
  -21.6047   -4.3056   24.7221 C   0  0  0  0  0  0
  -21.8818   -3.8151   23.4339 C   0  0  0  0  0  0
  -21.9193   -4.6973   22.3398 C   0  0  0  0  0  0
  -22.7853  -13.5239   21.1845 C   0  0  0  0  0  0
  -22.1662   -4.2159   21.0976 F   0  0  0  0  0  0
  -21.5632   -3.4537   25.7732 F   0  0  0  0  0  0
  -30.0145  -13.4155   20.4401 N   0  0  0  0  0  0
  -26.2995  -12.9347   20.3326 N   0  0  0  0  0  0
  -25.9324  -11.6501   20.5763 N   0  0  0  0  0  0
  -22.0494  -12.8224   22.0401 N   0  0  0  0  0  0
  -25.4300  -15.1885   20.4071 N   0  0  0  0  0  0
  -31.7756  -14.8047   20.0956 O   0  0  0  0  0  0
  -21.6640   -6.8884   21.4239 O   0  0  0  0  0  0
  -22.3539  -14.5553   20.6712 O   0  0  0  0  0  0
  -24.6272  -31.8590   23.2024 C   0  0  0  0  0  0
  -25.9111  -32.4783   23.8359 C   0  0  1  0  0  0
  -27.2318  -27.3239   20.1118 C   0  0  0  0  0  0
  -25.5923  -33.8578   24.2273 N   0  0  0  0  0  0
  -23.4208  -30.4849   21.5437 C   0  0  2  0  0  0
  -24.8692  -28.9430   20.1099 C   0  0  0  0  0  0
  -22.7489  -29.4627   22.4916 C   0  0  0  0  0  0
  -18.0288  -28.1394   22.8486 C   0  0  0  0  0  0
  -24.1489  -36.7296   23.2641 C   0  0  0  0  0  0
  -25.9628  -30.7960   21.3699 C   0  0  0  0  0  0
  -26.0397  -29.4236   20.7100 C   0  0  0  0  0  0
  -27.2250  -28.6281   20.6962 C   0  0  0  0  0  0
  -26.0333  -26.8978   19.4904 C   0  0  0  0  0  0
  -24.8681  -27.6859   19.4921 C   0  0  0  0  0  0
  -23.6371  -29.8213   20.1586 C   0  0  0  0  0  0
  -25.4110  -36.3075   24.0330 C   0  0  1  0  0  0
  -20.5893  -28.3688   23.1277 C   0  0  2  0  0  0
  -20.6778  -26.9410   22.5405 C   0  0  0  0  0  0
  -19.5749  -26.6376   21.5221 C   0  0  0  0  0  0
  -18.1930  -26.7936   22.1625 C   0  0  0  0  0  0
  -19.1544  -28.8851   23.2884 C   0  0  0  0  0  0
  -18.9476  -30.1457   23.8890 C   0  0  0  0  0  0
  -17.6476  -30.6592   24.0568 C   0  0  0  0  0  0
  -25.9040  -34.9455   23.5099 C   0  0  0  0  0  0
  -16.5367  -29.9096   23.6328 C   0  0  0  0  0  0
  -16.7275  -28.6521   23.0338 C   0  0  0  0  0  0
  -26.4489  -31.6595   25.0729 C   0  0  0  0  0  0
  -25.3723  -31.3763   26.1459 C   0  0  0  0  0  0
  -27.0320  -30.3015   24.6169 C   0  0  0  0  0  0
  -27.6038  -32.4329   25.7508 C   0  0  0  0  0  0
  -27.5573  -37.1803   24.8464 C   0  0  0  0  0  0
  -21.4194  -29.3056   22.3680 N   0  0  0  0  0  0
  -26.4284  -37.3773   23.9414 N   0  0  0  0  0  0
  -24.6892  -31.0624   22.0957 N   0  0  0  0  0  0
  -23.4227  -28.8149   23.2979 O   0  0  0  0  0  0
  -28.3496  -26.4708   20.1649 O   0  0  0  0  0  0
  -26.5606  -34.8919   22.4658 O   0  0  0  0  0  0
  -23.5422  -32.1374   23.7350 O   0  0  0  0  0  0
  -30.8469  -19.2425   19.8139 C   0  0  0  0  0  0
  -30.8352  -17.8198   19.9148 C   0  0  0  0  0  0
  -29.0344  -17.9858   21.4929 C   0  0  0  0  0  0
  -29.9717  -20.0892   20.5544 C   0  0  0  0  0  0
  -29.0446  -19.4185   21.4090 C   0  0  0  0  0  0
  -29.9315  -17.1444   20.7754 C   0  0  0  0  0  0
  -29.3109  -24.0425   20.3354 C   0  0  0  0  0  0
  -30.2158  -21.6523   20.5252 C   0  0  0  0  0  0
  -28.0979  -25.0113   20.0430 C   0  0  0  0  0  0
  -28.0814  -20.2219   22.2832 C   0  0  0  0  0  0
  -29.8395  -15.6860   20.9327 N   0  0  0  0  0  0
  -29.1324  -22.6783   20.3361 N   0  0  0  0  0  0
  -30.4252  -24.5304   20.5414 O   0  0  0  0  0  0
  -27.3209  -19.4372   23.0479 F   0  0  0  0  0  0
  -28.7660  -21.0320   23.0904 F   0  0  0  0  0  0
  -27.2692  -20.9557   21.5213 F   0  0  0  0  0  0
  -31.4806  -12.5185   19.1596 H   0  0  0  0  0  0
  -30.3747  -11.3978   19.9005 H   0  0  0  0  0  0
  -29.7779  -11.7568   17.4865 H   0  0  0  0  0  0
  -29.6523  -13.4787   17.7519 H   0  0  0  0  0  0
  -27.8748  -11.2894   18.8747 H   0  0  0  0  0  0
  -27.3800  -12.5683   17.7984 H   0  0  0  0  0  0
  -27.6751  -14.2511   19.5267 H   0  0  0  0  0  0
  -28.7046  -12.0512   21.3839 H   0  0  0  0  0  0
  -28.4340  -13.7042   21.8489 H   0  0  0  0  0  0
  -25.2767   -9.5689   22.4759 H   0  0  0  0  0  0
  -24.0008   -7.4635   22.7468 H   0  0  0  0  0  0
  -21.0851   -8.8771   19.8941 H   0  0  0  0  0  0
  -22.3700  -10.9678   19.6164 H   0  0  0  0  0  0
  -21.2000   -7.6152   23.9719 H   0  0  0  0  0  0
  -21.1486   -6.0525   25.9079 H   0  0  0  0  0  0
  -22.0597   -2.7614   23.2832 H   0  0  0  0  0  0
  -22.4106  -11.9871   22.4767 H   0  0  0  0  0  0
  -21.1119  -13.1261   22.2627 H   0  0  0  0  0  0
  -24.6610  -15.8431   20.4992 H   0  0  0  0  0  0
  -26.2797  -15.6217   20.0687 H   0  0  0  0  0  0
  -26.7173  -32.5444   23.1100 H   0  0  0  0  0  0
  -25.0084  -33.9723   25.0427 H   0  0  0  0  0  0
  -22.7164  -31.3061   21.3996 H   0  0  0  0  0  0
  -23.3750  -35.9627   23.3289 H   0  0  0  0  0  0
  -24.3586  -36.8915   22.2055 H   0  0  0  0  0  0
  -23.7251  -37.6498   23.6665 H   0  0  0  0  0  0
  -26.0916  -31.5646   20.6058 H   0  0  0  0  0  0
  -26.8439  -30.8434   21.9977 H   0  0  0  0  0  0
  -28.1248  -29.0003   21.1652 H   0  0  0  0  0  0
  -25.9586  -25.9403   19.0015 H   0  0  0  0  0  0
  -23.9713  -27.3093   19.0202 H   0  0  0  0  0  0
  -23.7621  -30.5985   19.4049 H   0  0  0  0  0  0
  -22.7599  -29.2506   19.8491 H   0  0  0  0  0  0
  -25.1296  -36.1913   25.0823 H   0  0  0  0  0  0
  -20.9976  -28.3238   24.1404 H   0  0  0  0  0  0
  -20.5673  -26.2301   23.3602 H   0  0  0  0  0  0
  -21.6647  -26.7431   22.1204 H   0  0  0  0  0  0
  -19.6914  -25.6285   21.1249 H   0  0  0  0  0  0
  -19.6688  -27.3181   20.6748 H   0  0  0  0  0  0
  -17.4206  -26.6672   21.4024 H   0  0  0  0  0  0
  -18.0325  -26.0088   22.9023 H   0  0  0  0  0  0
  -19.7960  -30.7277   24.2240 H   0  0  0  0  0  0
  -17.5047  -31.6269   24.5176 H   0  0  0  0  0  0
  -15.5376  -30.3010   23.7669 H   0  0  0  0  0  0
  -15.8675  -28.0860   22.7035 H   0  0  0  0  0  0
  -24.5907  -30.7091   25.7822 H   0  0  0  0  0  0
  -24.8931  -32.2954   26.4835 H   0  0  0  0  0  0
  -25.8059  -30.9003   27.0262 H   0  0  0  0  0  0
  -26.2890  -29.6780   24.1175 H   0  0  0  0  0  0
  -27.4011  -29.7245   25.4660 H   0  0  0  0  0  0
  -27.8763  -30.4308   23.9391 H   0  0  0  0  0  0
  -27.2633  -33.3646   26.2038 H   0  0  0  0  0  0
  -28.3883  -32.6838   25.0360 H   0  0  0  0  0  0
  -28.0651  -31.8480   26.5473 H   0  0  0  0  0  0
  -28.2577  -38.0109   24.7504 H   0  0  0  0  0  0
  -28.1076  -36.2637   24.6284 H   0  0  0  0  0  0
  -27.2298  -37.1439   25.8868 H   0  0  0  0  0  0
  -20.9356  -29.8847   21.6960 H   0  0  0  0  0  0
  -26.0155  -38.2838   24.1426 H   0  0  0  0  0  0
  -31.5859  -19.6933   19.1665 H   0  0  0  0  0  0
  -31.5418  -17.2547   19.3230 H   0  0  0  0  0  0
  -28.3231  -17.5170   22.1570 H   0  0  0  0  0  0
  -30.9536  -21.8498   19.7465 H   0  0  0  0  0  0
  -30.7282  -21.8951   21.4572 H   0  0  0  0  0  0
  -27.2863  -24.7297   20.7150 H   0  0  0  0  0  0
  -27.7751  -24.7913   19.0254 H   0  0  0  0  0  0
  -28.9835  -15.3675   21.3622 H   0  0  0  0  0  0
  -28.1945  -22.3275   20.1916 H   0  0  0  0  0  0
  1 25  1  0  0  0
  1 30  2  0  0  0
  1 81  1  0  0  0
  2  3  1  0  0  0
  2 25  1  0  0  0
  2 87  1  0  0  0
  2 88  1  0  0  0
  3  4  1  0  0  0
  3 89  1  0  0  0
  3 90  1  0  0  0
  4  5  1  0  0  0
  4 91  1  0  0  0
  4 92  1  0  0  0
  5  6  1  0  0  0
  5 26  1  0  0  0
  5 93  1  0  0  0
  6 25  1  0  0  0
  6 94  1  0  0  0
  6 95  1  0  0  0
  7  8  2  0  0  0
  7 26  1  0  0  0
  7 29  1  0  0  0
  8  9  1  0  0  0
  8 22  1  0  0  0
  9 10  1  0  0  0
  9 27  2  0  0  0
 10 11  2  0  0  0
 10 15  1  0  0  0
 11 12  1  0  0  0
 11 96  1  0  0  0
 12 13  2  0  0  0
 12 97  1  0  0  0
 13 14  1  0  0  0
 13 31  1  0  0  0
 14 15  2  0  0  0
 14 98  1  0  0  0
 15 99  1  0  0  0
 16 17  2  0  0  0
 16 21  1  0  0  0
 16 31  1  0  0  0
 17 18  1  0  0  0
 17100  1  0  0  0
 18 19  2  0  0  0
 18101  1  0  0  0
 19 20  1  0  0  0
 19 24  1  0  0  0
 20 21  2  0  0  0
 20102  1  0  0  0
 21 23  1  0  0  0
 22 28  1  0  0  0
 22 32  2  0  0  0
 26 27  1  0  0  0
 28103  1  0  0  0
 28104  1  0  0  0
 29105  1  0  0  0
 29106  1  0  0  0
 33 34  1  0  0  0
 33 66  1  0  0  0
 33 70  2  0  0  0
 34 36  1  0  0  0
 34 59  1  0  0  0
 34107  1  0  0  0
 35 44  2  0  0  0
 35 45  1  0  0  0
 35 68  1  0  0  0
 36 56  1  0  0  0
 36108  1  0  0  0
 37 39  1  0  0  0
 37 47  1  0  0  0
 37 66  1  0  0  0
 37109  1  0  0  0
 38 43  2  0  0  0
 38 46  1  0  0  0
 38 47  1  0  0  0
 39 64  1  0  0  0
 39 67  2  0  0  0
 40 52  1  0  0  0
 40 53  2  0  0  0
 40 58  1  0  0  0
 41110  1  0  0  0
 41111  1  0  0  0
 41112  1  0  0  0
 41 48  1  0  0  0
 42 43  1  0  0  0
 42 66  1  0  0  0
 42113  1  0  0  0
 42114  1  0  0  0
 43 44  1  0  0  0
 44115  1  0  0  0
 45 46  2  0  0  0
 45116  1  0  0  0
 46117  1  0  0  0
 47118  1  0  0  0
 47119  1  0  0  0
 48 56  1  0  0  0
 48 65  1  0  0  0
 48120  1  0  0  0
 49 50  1  0  0  0
 49 53  1  0  0  0
 49 64  1  0  0  0
 49121  1  0  0  0
 50 51  1  0  0  0
 50122  1  0  0  0
 50123  1  0  0  0
 51 52  1  0  0  0
 51124  1  0  0  0
 51125  1  0  0  0
 52126  1  0  0  0
 52127  1  0  0  0
 53 54  1  0  0  0
 54 55  2  0  0  0
 54128  1  0  0  0
 55 57  1  0  0  0
 55129  1  0  0  0
 56 69  2  0  0  0
 57 58  2  0  0  0
 57130  1  0  0  0
 58131  1  0  0  0
 59 60  1  0  0  0
 59 61  1  0  0  0
 59 62  1  0  0  0
 60132  1  0  0  0
 60133  1  0  0  0
 60134  1  0  0  0
 61135  1  0  0  0
 61136  1  0  0  0
 61137  1  0  0  0
 62138  1  0  0  0
 62139  1  0  0  0
 62140  1  0  0  0
 63 65  1  0  0  0
 63141  1  0  0  0
 63142  1  0  0  0
 63143  1  0  0  0
 64144  1  0  0  0
 65145  1  0  0  0
 68 79  1  0  0  0
 71 72  2  0  0  0
 71 74  1  0  0  0
 71146  1  0  0  0
 72 76  1  0  0  0
 72147  1  0  0  0
 73 75  1  0  0  0
 73 76  2  0  0  0
 73148  1  0  0  0
 74 75  2  0  0  0
 74 78  1  0  0  0
 75 80  1  0  0  0
 76 81  1  0  0  0
 77 79  1  0  0  0
 77 82  1  0  0  0
 77 83  2  0  0  0
 78 82  1  0  0  0
 78149  1  0  0  0
 78150  1  0  0  0
 79151  1  0  0  0
 79152  1  0  0  0
 80 84  1  0  0  0
 80 85  1  0  0  0
 80 86  1  0  0  0
 81153  1  0  0  0
 82154  1  0  0  0
M  ISO  4   1 100  68 101  79 101  81 100
M  END
> <chiral flag>
0

> <version>
0

> <s_m_source_file>
/data/baiqing/PycharmProjects/Reinvent-master-3.2/result/LINK_invent/BTK/process_docking_weight1_custom_product_contain_oxygen_bond_distance_aromatic_linkinvent_7_9_3/rearranged_h_0052.sdf

> <i_m_source_file_index>
39

> <r_mmod_Potential_Energy-OPLS-2005>
14.7556304931641

> <r_mmod_Stretch_Energy-OPLS-2005>
83.4133682250977

> <r_mmod_Bend_Energy-OPLS-2005>
141.16194152832

> <r_mmod_Torsional_Energy-OPLS-2005>
213.042770385742

> <r_mmod_Improper_Torsional_Energy-OPLS-2005>
4.24114274978638

> <r_mmod_Van_der_Waal_Energy-OPLS-2005>
149.847213745117

> <r_mmod_Electrostatic_Energy-OPLS-2005>
-387.640777587891

> <r_mmod_Solvation_Energy-OPLS-2005>
-237.318923950195

> <b_mmod_Minimization_Converged-OPLS-2005>
0

> <r_mmod_RMS_Derivative-OPLS-2005>
2.05578422546387

$$$$
39
                    3D
 Structure written by MMmdl.
154162  0  0  1  0            999 V2000
  -30.6056  -14.7243   20.4926 C   0  0  0  0  0  0
  -30.4280  -12.4375   19.5058 C   0  0  0  0  0  0
  -29.5191  -12.5110   18.2572 C   0  0  0  0  0  0
  -28.0371  -12.3475   18.6470 C   0  0  0  0  0  0
  -27.6418  -13.2312   19.8588 C   0  0  2  0  0  0
  -28.6742  -13.1447   21.0053 C   0  0  0  0  0  0
  -25.2499  -13.8207   20.5658 C   0  0  0  0  0  0
  -24.1779  -13.0450   20.9200 C   0  0  0  0  0  0
  -24.6350  -11.6931   20.8732 C   0  0  0  0  0  0
  -23.9037  -10.4312   21.0381 C   0  0  0  0  0  0
  -24.3607   -9.4227   21.9148 C   0  0  0  0  0  0
  -23.6305   -8.2258   22.0718 C   0  0  0  0  0  0
  -22.4282   -8.0281   21.3523 C   0  0  0  0  0  0
  -21.9920   -9.0236   20.4619 C   0  0  0  0  0  0
  -22.7223  -10.2131   20.3015 C   0  0  0  0  0  0
  -21.6871   -6.0728   22.5253 C   0  0  0  0  0  0
  -21.4032   -6.5632   23.8192 C   0  0  0  0  0  0
  -21.3684   -5.6780   24.9149 C   0  0  0  0  0  0
  -21.6037   -4.3037   24.7192 C   0  0  0  0  0  0
  -21.8835   -3.8140   23.4321 C   0  0  0  0  0  0
  -21.9213   -4.6961   22.3377 C   0  0  0  0  0  0
  -22.7814  -13.5239   21.1880 C   0  0  0  0  0  0
  -22.1681   -4.2149   21.0963 F   0  0  0  0  0  0
  -21.5633   -3.4525   25.7716 F   0  0  0  0  0  0
  -29.9898  -13.4925   20.4510 N   0  0  0  0  0  0
  -26.2907  -12.9397   20.3270 N   0  0  0  0  0  0
  -25.9289  -11.6552   20.5742 N   0  0  0  0  0  0
  -22.0462  -12.8218   22.0436 N   0  0  0  0  0  0
  -25.4243  -15.1929   20.4106 N   0  0  0  0  0  0
  -31.7653  -14.8431   20.0854 O   0  0  0  0  0  0
  -21.6667   -6.8858   21.4215 O   0  0  0  0  0  0
  -22.3500  -14.5537   20.6698 O   0  0  0  0  0  0
  -24.6321  -31.8546   23.2015 C   0  0  0  0  0  0
  -25.9167  -32.4734   23.8350 C   0  0  1  0  0  0
  -27.2018  -27.2557   20.1288 C   0  0  0  0  0  0
  -25.5988  -33.8548   24.2266 N   0  0  0  0  0  0
  -23.4262  -30.4821   21.5443 C   0  0  2  0  0  0
  -24.8680  -28.9351   20.1067 C   0  0  0  0  0  0
  -22.7512  -29.4599   22.4904 C   0  0  0  0  0  0
  -18.0321  -28.1390   22.8469 C   0  0  0  0  0  0
  -24.1496  -36.7255   23.2638 C   0  0  0  0  0  0
  -25.9746  -30.7656   21.3843 C   0  0  0  0  0  0
  -26.0410  -29.3908   20.7224 C   0  0  0  0  0  0
  -27.2112  -28.5618   20.7230 C   0  0  0  0  0  0
  -26.0071  -26.8787   19.4690 C   0  0  0  0  0  0
  -24.8570  -27.6872   19.4713 C   0  0  0  0  0  0
  -23.6394  -29.8222   20.1573 C   0  0  0  0  0  0
  -25.4115  -36.3032   24.0317 C   0  0  1  0  0  0
  -20.5917  -28.3680   23.1271 C   0  0  2  0  0  0
  -20.6787  -26.9402   22.5395 C   0  0  0  0  0  0
  -19.5763  -26.6379   21.5200 C   0  0  0  0  0  0
  -18.1948  -26.7931   22.1613 C   0  0  0  0  0  0
  -19.1567  -28.8849   23.2860 C   0  0  0  0  0  0
  -18.9481  -30.1458   23.8872 C   0  0  0  0  0  0
  -17.6465  -30.6572   24.0561 C   0  0  0  0  0  0
  -25.9053  -34.9415   23.5060 C   0  0  0  0  0  0
  -16.5359  -29.9059   23.6350 C   0  0  0  0  0  0
  -16.7296  -28.6493   23.0343 C   0  0  0  0  0  0
  -26.4555  -31.6570   25.0732 C   0  0  0  0  0  0
  -25.3795  -31.3727   26.1464 C   0  0  0  0  0  0
  -27.0435  -30.2991   24.6243 C   0  0  0  0  0  0
  -27.6116  -32.4317   25.7503 C   0  0  0  0  0  0
  -27.5574  -37.1773   24.8473 C   0  0  0  0  0  0
  -21.4219  -29.3040   22.3676 N   0  0  0  0  0  0
  -26.4285  -37.3737   23.9412 N   0  0  0  0  0  0
  -24.6975  -31.0509   22.0997 N   0  0  0  0  0  0
  -23.4222  -28.8140   23.3006 O   0  0  0  0  0  0
  -28.2730  -26.3325   20.2184 O   0  0  0  0  0  0
  -26.5581  -34.8894   22.4603 O   0  0  0  0  0  0
  -23.5471  -32.1397   23.7313 O   0  0  0  0  0  0
  -30.0575  -19.9580   22.8875 C   0  0  0  0  0  0
  -30.0802  -18.7190   22.2148 C   0  0  0  0  0  0
  -29.6638  -21.1432   22.2361 C   0  0  0  0  0  0
  -29.7246  -18.6188   20.8564 C   0  0  0  0  0  0
  -29.2807  -19.8510   20.2036 C   0  0  0  0  0  0
  -29.2471  -21.1438   20.8828 C   0  0  0  0  0  0
  -28.9225  -23.7445   20.6102 C   0  0  0  0  0  0
  -28.8340  -19.7716   18.7486 C   0  0  0  0  0  0
  -29.9617  -17.2243   20.1152 C   0  0  0  0  0  0
  -27.9605  -24.8710   20.0055 C   0  0  0  0  0  0
  -28.7307  -22.4051   20.2858 N   0  0  0  0  0  0
  -29.8393  -15.8453   20.7667 N   0  0  0  0  0  0
  -29.8422  -24.1003   21.3543 O   0  0  0  0  0  0
  -31.4741  -12.5522   19.2184 H   0  0  0  0  0  0
  -30.3656  -11.4539   19.9770 H   0  0  0  0  0  0
  -29.7980  -11.7396   17.5381 H   0  0  0  0  0  0
  -29.6682  -13.4676   17.7561 H   0  0  0  0  0  0
  -27.8818  -11.2964   18.8926 H   0  0  0  0  0  0
  -27.3912  -12.5625   17.7940 H   0  0  0  0  0  0
  -27.6389  -14.2578   19.4910 H   0  0  0  0  0  0
  -28.6973  -12.1368   21.4258 H   0  0  0  0  0  0
  -28.3950  -13.8135   21.8227 H   0  0  0  0  0  0
  -25.2742   -9.5759   22.4716 H   0  0  0  0  0  0
  -24.0043   -7.4672   22.7435 H   0  0  0  0  0  0
  -21.0861   -8.8738   19.8923 H   0  0  0  0  0  0
  -22.3658  -10.9655   19.6133 H   0  0  0  0  0  0
  -21.2009   -7.6134   23.9703 H   0  0  0  0  0  0
  -21.1508   -6.0495   25.9064 H   0  0  0  0  0  0
  -22.0598   -2.7599   23.2804 H   0  0  0  0  0  0
  -22.4137  -11.9926   22.4839 H   0  0  0  0  0  0
  -21.1027  -13.1177   22.2586 H   0  0  0  0  0  0
  -24.6564  -15.8457   20.5147 H   0  0  0  0  0  0
  -26.2762  -15.6349   20.0906 H   0  0  0  0  0  0
  -26.7214  -32.5359   23.1079 H   0  0  0  0  0  0
  -25.0232  -33.9706   25.0479 H   0  0  0  0  0  0
  -22.7213  -31.3051   21.4044 H   0  0  0  0  0  0
  -23.3752  -35.9599   23.3284 H   0  0  0  0  0  0
  -24.3610  -36.8876   22.2061 H   0  0  0  0  0  0
  -23.7259  -37.6456   23.6665 H   0  0  0  0  0  0
  -26.1190  -31.5331   20.6224 H   0  0  0  0  0  0
  -26.8518  -30.8062   22.0197 H   0  0  0  0  0  0
  -28.1070  -28.8944   21.2291 H   0  0  0  0  0  0
  -25.9109  -25.9264   18.9678 H   0  0  0  0  0  0
  -23.9562  -27.3310   18.9894 H   0  0  0  0  0  0
  -23.7681  -30.6031   19.4082 H   0  0  0  0  0  0
  -22.7554  -29.2618   19.8467 H   0  0  0  0  0  0
  -25.1302  -36.1853   25.0807 H   0  0  0  0  0  0
  -21.0027  -28.3225   24.1387 H   0  0  0  0  0  0
  -20.5701  -26.2281   23.3584 H   0  0  0  0  0  0
  -21.6645  -26.7428   22.1177 H   0  0  0  0  0  0
  -19.6920  -25.6299   21.1212 H   0  0  0  0  0  0
  -19.6698  -27.3206   20.6740 H   0  0  0  0  0  0
  -17.4217  -26.6692   21.4005 H   0  0  0  0  0  0
  -18.0338  -26.0084   22.9020 H   0  0  0  0  0  0
  -19.7944  -30.7304   24.2206 H   0  0  0  0  0  0
  -17.5009  -31.6258   24.5163 H   0  0  0  0  0  0
  -15.5353  -30.2931   23.7705 H   0  0  0  0  0  0
  -15.8707  -28.0811   22.7042 H   0  0  0  0  0  0
  -24.5952  -30.7092   25.7792 H   0  0  0  0  0  0
  -24.9035  -32.2917   26.4892 H   0  0  0  0  0  0
  -25.8129  -30.8891   27.0231 H   0  0  0  0  0  0
  -26.3036  -29.6688   24.1292 H   0  0  0  0  0  0
  -27.4156  -29.7288   25.4767 H   0  0  0  0  0  0
  -27.8896  -30.4269   23.9485 H   0  0  0  0  0  0
  -27.2722  -33.3612   26.2094 H   0  0  0  0  0  0
  -28.3934  -32.6883   25.0335 H   0  0  0  0  0  0
  -28.0800  -31.8440   26.5412 H   0  0  0  0  0  0
  -28.2568  -38.0091   24.7501 H   0  0  0  0  0  0
  -28.1074  -36.2604   24.6293 H   0  0  0  0  0  0
  -27.2288  -37.1410   25.8879 H   0  0  0  0  0  0
  -20.9399  -29.8786   21.6908 H   0  0  0  0  0  0
  -26.0130  -38.2790   24.1442 H   0  0  0  0  0  0
  -30.3555  -20.0062   23.9280 H   0  0  0  0  0  0
  -30.4074  -17.8367   22.7481 H   0  0  0  0  0  0
  -29.6587  -22.0544   22.8163 H   0  0  0  0  0  0
  -29.5544  -19.2112   18.1519 H   0  0  0  0  0  0
  -28.7438  -20.7486   18.2761 H   0  0  0  0  0  0
  -27.8646  -19.2737   18.6838 H   0  0  0  0  0  0
  -29.2833  -17.1860   19.2635 H   0  0  0  0  0  0
  -30.9619  -17.3092   19.6870 H   0  0  0  0  0  0
  -26.9949  -24.6576   20.4659 H   0  0  0  0  0  0
  -27.8494  -24.6855   18.9382 H   0  0  0  0  0  0
  -28.0621  -22.2627   19.5414 H   0  0  0  0  0  0
  -28.9375  -15.6502   21.1736 H   0  0  0  0  0  0
  1 25  1  0  0  0
  1 30  2  0  0  0
  1 82  1  0  0  0
  2  3  1  0  0  0
  2 25  1  0  0  0
  2 84  1  0  0  0
  2 85  1  0  0  0
  3  4  1  0  0  0
  3 86  1  0  0  0
  3 87  1  0  0  0
  4  5  1  0  0  0
  4 88  1  0  0  0
  4 89  1  0  0  0
  5  6  1  0  0  0
  5 26  1  0  0  0
  5 90  1  0  0  0
  6 25  1  0  0  0
  6 91  1  0  0  0
  6 92  1  0  0  0
  7  8  2  0  0  0
  7 26  1  0  0  0
  7 29  1  0  0  0
  8  9  1  0  0  0
  8 22  1  0  0  0
  9 10  1  0  0  0
  9 27  2  0  0  0
 10 11  2  0  0  0
 10 15  1  0  0  0
 11 12  1  0  0  0
 11 93  1  0  0  0
 12 13  2  0  0  0
 12 94  1  0  0  0
 13 14  1  0  0  0
 13 31  1  0  0  0
 14 15  2  0  0  0
 14 95  1  0  0  0
 15 96  1  0  0  0
 16 17  2  0  0  0
 16 21  1  0  0  0
 16 31  1  0  0  0
 17 18  1  0  0  0
 17 97  1  0  0  0
 18 19  2  0  0  0
 18 98  1  0  0  0
 19 20  1  0  0  0
 19 24  1  0  0  0
 20 21  2  0  0  0
 20 99  1  0  0  0
 21 23  1  0  0  0
 22 28  1  0  0  0
 22 32  2  0  0  0
 26 27  1  0  0  0
 28100  1  0  0  0
 28101  1  0  0  0
 29102  1  0  0  0
 29103  1  0  0  0
 33 34  1  0  0  0
 33 66  1  0  0  0
 33 70  2  0  0  0
 34 36  1  0  0  0
 34 59  1  0  0  0
 34104  1  0  0  0
 35 44  2  0  0  0
 35 45  1  0  0  0
 35 68  1  0  0  0
 36 56  1  0  0  0
 36105  1  0  0  0
 37 39  1  0  0  0
 37 47  1  0  0  0
 37 66  1  0  0  0
 37106  1  0  0  0
 38 43  2  0  0  0
 38 46  1  0  0  0
 38 47  1  0  0  0
 39 64  1  0  0  0
 39 67  2  0  0  0
 40 52  1  0  0  0
 40 53  2  0  0  0
 40 58  1  0  0  0
 41107  1  0  0  0
 41108  1  0  0  0
 41109  1  0  0  0
 41 48  1  0  0  0
 42 43  1  0  0  0
 42 66  1  0  0  0
 42110  1  0  0  0
 42111  1  0  0  0
 43 44  1  0  0  0
 44112  1  0  0  0
 45 46  2  0  0  0
 45113  1  0  0  0
 46114  1  0  0  0
 47115  1  0  0  0
 47116  1  0  0  0
 48 56  1  0  0  0
 48 65  1  0  0  0
 48117  1  0  0  0
 49 50  1  0  0  0
 49 53  1  0  0  0
 49 64  1  0  0  0
 49118  1  0  0  0
 50 51  1  0  0  0
 50119  1  0  0  0
 50120  1  0  0  0
 51 52  1  0  0  0
 51121  1  0  0  0
 51122  1  0  0  0
 52123  1  0  0  0
 52124  1  0  0  0
 53 54  1  0  0  0
 54 55  2  0  0  0
 54125  1  0  0  0
 55 57  1  0  0  0
 55126  1  0  0  0
 56 69  2  0  0  0
 57 58  2  0  0  0
 57127  1  0  0  0
 58128  1  0  0  0
 59 60  1  0  0  0
 59 61  1  0  0  0
 59 62  1  0  0  0
 60129  1  0  0  0
 60130  1  0  0  0
 60131  1  0  0  0
 61132  1  0  0  0
 61133  1  0  0  0
 61134  1  0  0  0
 62135  1  0  0  0
 62136  1  0  0  0
 62137  1  0  0  0
 63 65  1  0  0  0
 63138  1  0  0  0
 63139  1  0  0  0
 63140  1  0  0  0
 64141  1  0  0  0
 65142  1  0  0  0
 68 80  1  0  0  0
 71 72  2  0  0  0
 71 73  1  0  0  0
 71143  1  0  0  0
 72 74  1  0  0  0
 72144  1  0  0  0
 73 76  2  0  0  0
 73145  1  0  0  0
 74 75  2  0  0  0
 74 79  1  0  0  0
 75 76  1  0  0  0
 75 78  1  0  0  0
 76 81  1  0  0  0
 77 80  1  0  0  0
 77 81  1  0  0  0
 77 83  2  0  0  0
 78146  1  0  0  0
 78147  1  0  0  0
 78148  1  0  0  0
 79 82  1  0  0  0
 79149  1  0  0  0
 79150  1  0  0  0
 80151  1  0  0  0
 80152  1  0  0  0
 81153  1  0  0  0
 82154  1  0  0  0
M  ISO  4   1 100  68 101  80 101  82 100
M  END
> <chiral flag>
0

> <version>
0

> <s_m_source_file>
/data/baiqing/PycharmProjects/Reinvent-master-3.2/result/LINK_invent/BTK/process_docking_weight1_custom_product_contain_oxygen_bond_distance_aromatic_linkinvent_7_9_3/rearranged_h_0052.sdf

> <i_m_source_file_index>
40

> <r_mmod_Potential_Energy-OPLS-2005>
74.025505065918

> <r_mmod_Stretch_Energy-OPLS-2005>
122.742820739746

> <r_mmod_Bend_Energy-OPLS-2005>
157.563812255859

> <r_mmod_Torsional_Energy-OPLS-2005>
227.430511474609

> <r_mmod_Improper_Torsional_Energy-OPLS-2005>
7.39645099639893

> <r_mmod_Van_der_Waal_Energy-OPLS-2005>
146.004730224609

> <r_mmod_Electrostatic_Energy-OPLS-2005>
-422.929595947266

> <r_mmod_Solvation_Energy-OPLS-2005>
-249.620895385742

> <b_mmod_Minimization_Converged-OPLS-2005>
0

> <r_mmod_RMS_Derivative-OPLS-2005>
4.15158271789551

$$$$
40
                    3D
 Structure written by MMmdl.
161170  0  0  1  0            999 V2000
  -30.6360  -14.5459   20.5685 C   0  0  0  0  0  0
  -30.4449  -12.3530   19.4236 C   0  0  0  0  0  0
  -29.5041  -12.5230   18.2095 C   0  0  0  0  0  0
  -28.0254  -12.3657   18.6210 C   0  0  0  0  0  0
  -27.6627  -13.2025   19.8759 C   0  0  2  0  0  0
  -28.7067  -12.9760   20.9933 C   0  0  0  0  0  0
  -25.2563  -13.8106   20.5639 C   0  0  0  0  0  0
  -24.1831  -13.0404   20.9202 C   0  0  0  0  0  0
  -24.6390  -11.6876   20.8748 C   0  0  0  0  0  0
  -23.9052  -10.4272   21.0408 C   0  0  0  0  0  0
  -24.3607   -9.4194   21.9189 C   0  0  0  0  0  0
  -23.6282   -8.2233   22.0760 C   0  0  0  0  0  0
  -22.4263   -8.0276   21.3551 C   0  0  0  0  0  0
  -21.9901   -9.0249   20.4652 C   0  0  0  0  0  0
  -22.7228  -10.2125   20.3053 C   0  0  0  0  0  0
  -21.6847   -6.0730   22.5277 C   0  0  0  0  0  0
  -21.4016   -6.5635   23.8211 C   0  0  0  0  0  0
  -21.3658   -5.6789   24.9173 C   0  0  0  0  0  0
  -21.6040   -4.3052   24.7222 C   0  0  0  0  0  0
  -21.8817   -3.8143   23.4343 C   0  0  0  0  0  0
  -21.9194   -4.6959   22.3399 C   0  0  0  0  0  0
  -22.7855  -13.5227   21.1849 C   0  0  0  0  0  0
  -22.1662   -4.2147   21.0977 F   0  0  0  0  0  0
  -21.5628   -3.4536   25.7736 F   0  0  0  0  0  0
  -30.0345  -13.3250   20.4499 N   0  0  0  0  0  0
  -26.3020  -12.9284   20.3349 N   0  0  0  0  0  0
  -25.9321  -11.6450   20.5774 N   0  0  0  0  0  0
  -22.0483  -12.8240   22.0407 N   0  0  0  0  0  0
  -25.4195  -15.1807   20.3919 N   0  0  0  0  0  0
  -31.7574  -14.7888   20.1102 O   0  0  0  0  0  0
  -21.6633   -6.8871   21.4239 O   0  0  0  0  0  0
  -22.3554  -14.5535   20.6685 O   0  0  0  0  0  0
  -24.6181  -31.8652   23.2058 C   0  0  0  0  0  0
  -25.9052  -32.4821   23.8376 C   0  0  1  0  0  0
  -27.2362  -27.3916   20.1068 C   0  0  0  0  0  0
  -25.5900  -33.8621   24.2312 N   0  0  0  0  0  0
  -23.4095  -30.4873   21.5476 C   0  0  2  0  0  0
  -24.8564  -28.9437   20.1180 C   0  0  0  0  0  0
  -22.7437  -29.4644   22.4971 C   0  0  0  0  0  0
  -18.0287  -28.1373   22.8499 C   0  0  0  0  0  0
  -24.1482  -36.7304   23.2642 C   0  0  0  0  0  0
  -25.9422  -30.8180   21.3642 C   0  0  0  0  0  0
  -26.0200  -29.4482   20.7125 C   0  0  0  0  0  0
  -27.2141  -28.6832   20.6949 C   0  0  0  0  0  0
  -26.0505  -26.9089   19.5104 C   0  0  0  0  0  0
  -24.8685  -27.6756   19.5127 C   0  0  0  0  0  0
  -23.6216  -29.8180   20.1636 C   0  0  0  0  0  0
  -25.4108  -36.3113   24.0338 C   0  0  1  0  0  0
  -20.5879  -28.3664   23.1312 C   0  0  2  0  0  0
  -20.6776  -26.9400   22.5411 C   0  0  0  0  0  0
  -19.5751  -26.6382   21.5216 C   0  0  0  0  0  0
  -18.1930  -26.7925   22.1625 C   0  0  0  0  0  0
  -19.1533  -28.8839   23.2905 C   0  0  0  0  0  0
  -18.9459  -30.1449   23.8908 C   0  0  0  0  0  0
  -17.6456  -30.6584   24.0567 C   0  0  0  0  0  0
  -25.9034  -34.9479   23.5123 C   0  0  0  0  0  0
  -16.5352  -29.9078   23.6330 C   0  0  0  0  0  0
  -16.7271  -28.6494   23.0358 C   0  0  0  0  0  0
  -26.4468  -31.6616   25.0722 C   0  0  0  0  0  0
  -25.3727  -31.3731   26.1469 C   0  0  0  0  0  0
  -27.0306  -30.3061   24.6105 C   0  0  0  0  0  0
  -27.6041  -32.4341   25.7489 C   0  0  0  0  0  0
  -27.5580  -37.1812   24.8471 C   0  0  0  0  0  0
  -21.4159  -29.3034   22.3723 N   0  0  0  0  0  0
  -26.4293  -37.3800   23.9414 N   0  0  0  0  0  0
  -24.6754  -31.0718   22.0975 N   0  0  0  0  0  0
  -23.4198  -28.8185   23.3024 O   0  0  0  0  0  0
  -28.4000  -26.6347   20.0987 O   0  0  0  0  0  0
  -26.5602  -34.8933   22.4690 O   0  0  0  0  0  0
  -23.5357  -32.1416   23.7423 O   0  0  0  0  0  0
  -28.1942  -18.8092   20.7727 C   0  0  0  0  0  0
  -28.4694  -17.4282   20.6783 C   0  0  0  0  0  0
  -30.7707  -17.8296   21.3058 C   0  0  0  0  0  0
  -29.1760  -19.7273   21.2072 C   0  0  0  0  0  0
  -30.4912  -19.2255   21.4270 C   0  0  0  0  0  0
  -29.7443  -16.9057   20.9837 C   0  0  0  0  0  0
  -28.4007  -22.7287   19.8076 C   0  0  0  0  0  0
  -28.3664  -24.2089   19.3337 C   0  0  0  0  0  0
  -29.5305  -24.9100   21.3780 C   0  0  0  0  0  0
  -29.4997  -23.4545   21.9128 C   0  0  0  0  0  0
  -28.3203  -25.2352   20.4941 C   0  0  1  0  0  0
  -31.5905  -20.1587   21.9009 C   0  0  0  0  0  0
  -28.6965  -21.1215   21.7013 C   0  0  0  0  0  0
  -28.9790  -22.4093   20.9972 N   0  0  0  0  0  0
  -29.8448  -15.4799   21.1469 N   0  0  0  0  0  0
  -27.8694  -21.8780   19.0884 O   0  0  0  0  0  0
  -31.4839  -12.4913   19.1198 H   0  0  0  0  0  0
  -30.3816  -11.3388   19.8209 H   0  0  0  0  0  0
  -29.7559  -11.7983   17.4339 H   0  0  0  0  0  0
  -29.6554  -13.5077   17.7642 H   0  0  0  0  0  0
  -27.8488  -11.3085   18.8208 H   0  0  0  0  0  0
  -27.3715  -12.6310   17.7899 H   0  0  0  0  0  0
  -27.7057  -14.2514   19.5826 H   0  0  0  0  0  0
  -28.7029  -11.9309   21.3054 H   0  0  0  0  0  0
  -28.4500  -13.5395   21.8918 H   0  0  0  0  0  0
  -25.2751   -9.5675   22.4767 H   0  0  0  0  0  0
  -23.9991   -7.4622   22.7475 H   0  0  0  0  0  0
  -21.0837   -8.8764   19.8961 H   0  0  0  0  0  0
  -22.3686  -10.9667   19.6165 H   0  0  0  0  0  0
  -21.2009   -7.6144   23.9714 H   0  0  0  0  0  0
  -21.1485   -6.0521   25.9078 H   0  0  0  0  0  0
  -22.0599   -2.7608   23.2842 H   0  0  0  0  0  0
  -22.4088  -11.9912   22.4823 H   0  0  0  0  0  0
  -21.1096  -13.1278   22.2581 H   0  0  0  0  0  0
  -24.6325  -15.8170   20.4577 H   0  0  0  0  0  0
  -26.2288  -15.5971   19.9538 H   0  0  0  0  0  0
  -26.7123  -32.5511   23.1137 H   0  0  0  0  0  0
  -25.0089  -33.9784   25.0484 H   0  0  0  0  0  0
  -22.6999  -31.3054   21.4061 H   0  0  0  0  0  0
  -23.3753  -35.9631   23.3323 H   0  0  0  0  0  0
  -24.3572  -36.8897   22.2052 H   0  0  0  0  0  0
  -23.7218  -37.6508   23.6642 H   0  0  0  0  0  0
  -26.0595  -31.5798   20.5925 H   0  0  0  0  0  0
  -26.8285  -30.8727   21.9845 H   0  0  0  0  0  0
  -28.1134  -29.0721   21.1528 H   0  0  0  0  0  0
  -26.0294  -25.9402   19.0362 H   0  0  0  0  0  0
  -23.9730  -27.2826   19.0503 H   0  0  0  0  0  0
  -23.7406  -30.5937   19.4062 H   0  0  0  0  0  0
  -22.7432  -29.2445   19.8614 H   0  0  0  0  0  0
  -25.1286  -36.1981   25.0830 H   0  0  0  0  0  0
  -20.9975  -28.3220   24.1430 H   0  0  0  0  0  0
  -20.5695  -26.2267   23.3596 H   0  0  0  0  0  0
  -21.6645  -26.7449   22.1198 H   0  0  0  0  0  0
  -19.6913  -25.6298   21.1234 H   0  0  0  0  0  0
  -19.6692  -27.3203   20.6758 H   0  0  0  0  0  0
  -17.4210  -26.6700   21.4013 H   0  0  0  0  0  0
  -18.0315  -26.0054   22.9003 H   0  0  0  0  0  0
  -19.7934  -30.7271   24.2269 H   0  0  0  0  0  0
  -17.5012  -31.6265   24.5163 H   0  0  0  0  0  0
  -15.5352  -30.2985   23.7642 H   0  0  0  0  0  0
  -15.8676  -28.0811   22.7067 H   0  0  0  0  0  0
  -24.5894  -30.7082   25.7812 H   0  0  0  0  0  0
  -24.8926  -32.2891   26.4920 H   0  0  0  0  0  0
  -25.8072  -30.8901   27.0230 H   0  0  0  0  0  0
  -26.2850  -29.6834   24.1146 H   0  0  0  0  0  0
  -27.4077  -29.7285   25.4557 H   0  0  0  0  0  0
  -27.8683  -30.4405   23.9259 H   0  0  0  0  0  0
  -27.2655  -33.3636   26.2083 H   0  0  0  0  0  0
  -28.3840  -32.6915   25.0310 H   0  0  0  0  0  0
  -28.0721  -31.8458   26.5394 H   0  0  0  0  0  0
  -28.2619  -38.0093   24.7522 H   0  0  0  0  0  0
  -28.1055  -36.2628   24.6299 H   0  0  0  0  0  0
  -27.2300  -37.1470   25.8876 H   0  0  0  0  0  0
  -20.9319  -29.8750   21.6941 H   0  0  0  0  0  0
  -26.0184  -38.2881   24.1416 H   0  0  0  0  0  0
  -27.1787  -19.1453   20.6119 H   0  0  0  0  0  0
  -27.6570  -16.7601   20.4385 H   0  0  0  0  0  0
  -31.7548  -17.4571   21.5559 H   0  0  0  0  0  0
  -27.5113  -24.3409   18.6731 H   0  0  0  0  0  0
  -29.2523  -24.3825   18.7221 H   0  0  0  0  0  0
  -30.4459  -25.0666   20.8047 H   0  0  0  0  0  0
  -29.5822  -25.6057   22.2168 H   0  0  0  0  0  0
  -28.8717  -23.4571   22.8058 H   0  0  0  0  0  0
  -30.4983  -23.1714   22.2472 H   0  0  0  0  0  0
  -27.4143  -25.0741   21.0829 H   0  0  0  0  0  0
  -32.5670  -19.6736   21.8758 H   0  0  0  0  0  0
  -31.4023  -20.4821   22.9250 H   0  0  0  0  0  0
  -31.6425  -21.0435   21.2664 H   0  0  0  0  0  0
  -29.0567  -21.1945   22.7283 H   0  0  0  0  0  0
  -27.6128  -21.0731   21.8230 H   0  0  0  0  0  0
  -28.9933  -15.0541   21.4796 H   0  0  0  0  0  0
  1 25  1  0  0  0
  1 30  2  0  0  0
  1 85  1  0  0  0
  2  3  1  0  0  0
  2 25  1  0  0  0
  2 87  1  0  0  0
  2 88  1  0  0  0
  3  4  1  0  0  0
  3 89  1  0  0  0
  3 90  1  0  0  0
  4  5  1  0  0  0
  4 91  1  0  0  0
  4 92  1  0  0  0
  5  6  1  0  0  0
  5 26  1  0  0  0
  5 93  1  0  0  0
  6 25  1  0  0  0
  6 94  1  0  0  0
  6 95  1  0  0  0
  7  8  2  0  0  0
  7 26  1  0  0  0
  7 29  1  0  0  0
  8  9  1  0  0  0
  8 22  1  0  0  0
  9 10  1  0  0  0
  9 27  2  0  0  0
 10 11  2  0  0  0
 10 15  1  0  0  0
 11 12  1  0  0  0
 11 96  1  0  0  0
 12 13  2  0  0  0
 12 97  1  0  0  0
 13 14  1  0  0  0
 13 31  1  0  0  0
 14 15  2  0  0  0
 14 98  1  0  0  0
 15 99  1  0  0  0
 16 17  2  0  0  0
 16 21  1  0  0  0
 16 31  1  0  0  0
 17 18  1  0  0  0
 17100  1  0  0  0
 18 19  2  0  0  0
 18101  1  0  0  0
 19 20  1  0  0  0
 19 24  1  0  0  0
 20 21  2  0  0  0
 20102  1  0  0  0
 21 23  1  0  0  0
 22 28  1  0  0  0
 22 32  2  0  0  0
 26 27  1  0  0  0
 28103  1  0  0  0
 28104  1  0  0  0
 29105  1  0  0  0
 29106  1  0  0  0
 33 34  1  0  0  0
 33 66  1  0  0  0
 33 70  2  0  0  0
 34 36  1  0  0  0
 34 59  1  0  0  0
 34107  1  0  0  0
 35 44  2  0  0  0
 35 45  1  0  0  0
 35 68  1  0  0  0
 36 56  1  0  0  0
 36108  1  0  0  0
 37 39  1  0  0  0
 37 47  1  0  0  0
 37 66  1  0  0  0
 37109  1  0  0  0
 38 43  2  0  0  0
 38 46  1  0  0  0
 38 47  1  0  0  0
 39 64  1  0  0  0
 39 67  2  0  0  0
 40 52  1  0  0  0
 40 53  2  0  0  0
 40 58  1  0  0  0
 41110  1  0  0  0
 41111  1  0  0  0
 41112  1  0  0  0
 41 48  1  0  0  0
 42 43  1  0  0  0
 42 66  1  0  0  0
 42113  1  0  0  0
 42114  1  0  0  0
 43 44  1  0  0  0
 44115  1  0  0  0
 45 46  2  0  0  0
 45116  1  0  0  0
 46117  1  0  0  0
 47118  1  0  0  0
 47119  1  0  0  0
 48 56  1  0  0  0
 48 65  1  0  0  0
 48120  1  0  0  0
 49 50  1  0  0  0
 49 53  1  0  0  0
 49 64  1  0  0  0
 49121  1  0  0  0
 50 51  1  0  0  0
 50122  1  0  0  0
 50123  1  0  0  0
 51 52  1  0  0  0
 51124  1  0  0  0
 51125  1  0  0  0
 52126  1  0  0  0
 52127  1  0  0  0
 53 54  1  0  0  0
 54 55  2  0  0  0
 54128  1  0  0  0
 55 57  1  0  0  0
 55129  1  0  0  0
 56 69  2  0  0  0
 57 58  2  0  0  0
 57130  1  0  0  0
 58131  1  0  0  0
 59 60  1  0  0  0
 59 61  1  0  0  0
 59 62  1  0  0  0
 60132  1  0  0  0
 60133  1  0  0  0
 60134  1  0  0  0
 61135  1  0  0  0
 61136  1  0  0  0
 61137  1  0  0  0
 62138  1  0  0  0
 62139  1  0  0  0
 62140  1  0  0  0
 63 65  1  0  0  0
 63141  1  0  0  0
 63142  1  0  0  0
 63143  1  0  0  0
 64144  1  0  0  0
 65145  1  0  0  0
 68 81  1  0  0  0
 71 72  2  0  0  0
 71 74  1  0  0  0
 71146  1  0  0  0
 72 76  1  0  0  0
 72147  1  0  0  0
 73 75  1  0  0  0
 73 76  2  0  0  0
 73148  1  0  0  0
 74 75  2  0  0  0
 74 83  1  0  0  0
 75 82  1  0  0  0
 76 85  1  0  0  0
 77 78  1  0  0  0
 77 84  1  0  0  0
 77 86  2  0  0  0
 78 81  1  0  0  0
 78149  1  0  0  0
 78150  1  0  0  0
 79 80  1  0  0  0
 79 81  1  0  0  0
 79151  1  0  0  0
 79152  1  0  0  0
 80 84  1  0  0  0
 80153  1  0  0  0
 80154  1  0  0  0
 81155  1  0  0  0
 82156  1  0  0  0
 82157  1  0  0  0
 82158  1  0  0  0
 83 84  1  0  0  0
 83159  1  0  0  0
 83160  1  0  0  0
 85161  1  0  0  0
M  ISO  4   1 100  68 101  81 101  85 100
M  END
> <chiral flag>
0

> <version>
0

> <s_m_source_file>
/data/baiqing/PycharmProjects/Reinvent-master-3.2/result/LINK_invent/BTK/process_docking_weight1_custom_product_contain_oxygen_bond_distance_aromatic_linkinvent_7_9_3/rearranged_h_0052.sdf

> <i_m_source_file_index>
41

> <r_mmod_Potential_Energy-OPLS-2005>
30.3637580871582

> <r_mmod_Stretch_Energy-OPLS-2005>
53.5582504272461

> <r_mmod_Bend_Energy-OPLS-2005>
134.851867675781

> <r_mmod_Torsional_Energy-OPLS-2005>
277.5703125

> <r_mmod_Improper_Torsional_Energy-OPLS-2005>
9.64077854156494

> <r_mmod_Van_der_Waal_Energy-OPLS-2005>
149.392395019531

> <r_mmod_Electrostatic_Energy-OPLS-2005>
-386.066009521484

> <r_mmod_Solvation_Energy-OPLS-2005>
-230.451614379883

> <b_mmod_Minimization_Converged-OPLS-2005>
0

> <r_mmod_RMS_Derivative-OPLS-2005>
1.14640378952026

$$$$
41
                    3D
 Structure written by MMmdl.
160168  0  0  1  0            999 V2000
  -31.6431  -14.6898   20.3278 C   0  0  0  0  0  0
  -30.7776  -12.3787   19.5964 C   0  0  0  0  0  0
  -29.4111  -11.9895   18.3805 C   0  0  0  0  0  0
  -27.6567  -12.5969   18.3533 C   0  0  0  0  0  0
  -27.0016  -13.9346   19.5881 C   0  0  2  0  0  0
  -29.5960  -14.5159   21.4514 C   0  0  0  0  0  0
  -24.8125  -13.9603   20.4960 C   0  0  0  0  0  0
  -23.9275  -13.0674   20.9525 C   0  0  0  0  0  0
  -24.5034  -11.7613   20.8501 C   0  0  0  0  0  0
  -23.8717  -10.4489   21.0297 C   0  0  0  0  0  0
  -24.3542   -9.4512   21.9084 C   0  0  0  0  0  0
  -23.6379   -8.2415   22.0706 C   0  0  0  0  0  0
  -22.4352   -8.0251   21.3540 C   0  0  0  0  0  0
  -21.9850   -9.0068   20.4574 C   0  0  0  0  0  0
  -22.6991  -10.2013   20.2918 C   0  0  0  0  0  0
  -21.6930   -6.0721   22.5330 C   0  0  0  0  0  0
  -21.4063   -6.5643   23.8249 C   0  0  0  0  0  0
  -21.3660   -5.6792   24.9208 C   0  0  0  0  0  0
  -21.6025   -4.3050   24.7261 C   0  0  0  0  0  0
  -21.8808   -3.8129   23.4392 C   0  0  0  0  0  0
  -21.9224   -4.6942   22.3453 C   0  0  0  0  0  0
  -22.5500  -13.4739   21.2697 C   0  0  0  0  0  0
  -22.1676   -4.2118   21.1031 F   0  0  0  0  0  0
  -21.5588   -3.4546   25.7779 F   0  0  0  0  0  0
  -30.8705  -13.6674   20.7665 N   0  0  0  0  0  0
  -25.8228  -13.2224   20.0608 N   0  0  0  0  0  0
  -25.7266  -11.8718   20.3602 N   0  0  0  0  0  0
  -21.8924  -12.7453   22.1507 N   0  0  0  0  0  0
  -24.8381  -15.3442   20.3529 N   0  0  0  0  0  0
  -32.7714  -14.4644   20.0179 O   0  0  0  0  0  0
  -21.6768   -6.8818   21.4268 O   0  0  0  0  0  0
  -22.0823  -14.4934   20.7632 O   0  0  0  0  0  0
  -24.6626  -31.8265   23.1772 C   0  0  0  0  0  0
  -25.9318  -32.4597   23.8196 C   0  0  1  0  0  0
  -27.0916  -26.8839   20.2055 C   0  0  0  0  0  0
  -25.6002  -33.8417   24.2097 N   0  0  0  0  0  0
  -23.4694  -30.4508   21.5293 C   0  0  2  0  0  0
  -24.8989  -28.8476   20.1066 C   0  0  0  0  0  0
  -22.7647  -29.4471   22.4790 C   0  0  0  0  0  0
  -18.0321  -28.1409   22.8469 C   0  0  0  0  0  0
  -24.1494  -36.7199   23.2646 C   0  0  0  0  0  0
  -26.0423  -30.6181   21.4151 C   0  0  0  0  0  0
  -26.0877  -29.2104   20.7543 C   0  0  0  0  0  0
  -27.1941  -28.2472   20.7783 C   0  0  0  0  0  0
  -25.9064  -26.7018   19.4718 C   0  0  0  0  0  0
  -24.8385  -27.6205   19.4369 C   0  0  0  0  0  0
  -23.7013  -29.7882   20.1469 C   0  0  0  0  0  0
  -25.4143  -36.2978   24.0296 C   0  0  1  0  0  0
  -20.5947  -28.3750   23.1191 C   0  0  2  0  0  0
  -20.6800  -26.9431   22.5397 C   0  0  0  0  0  0
  -19.5765  -26.6373   21.5219 C   0  0  0  0  0  0
  -18.1952  -26.7941   22.1631 C   0  0  0  0  0  0
  -19.1583  -28.8899   23.2819 C   0  0  0  0  0  0
  -18.9490  -30.1494   23.8843 C   0  0  0  0  0  0
  -17.6481  -30.6598   24.0550 C   0  0  0  0  0  0
  -25.9111  -34.9360   23.5017 C   0  0  0  0  0  0
  -16.5374  -29.9075   23.6350 C   0  0  0  0  0  0
  -16.7303  -28.6502   23.0362 C   0  0  0  0  0  0
  -26.4558  -31.6555   25.0731 C   0  0  0  0  0  0
  -25.3660  -31.3812   26.1368 C   0  0  0  0  0  0
  -27.0465  -30.2918   24.6504 C   0  0  0  0  0  0
  -27.6063  -32.4367   25.7513 C   0  0  0  0  0  0
  -27.5579  -37.1763   24.8466 C   0  0  0  0  0  0
  -21.4322  -29.3046   22.3542 N   0  0  0  0  0  0
  -26.4289  -37.3715   23.9406 N   0  0  0  0  0  0
  -24.7472  -30.9923   22.0926 N   0  0  0  0  0  0
  -23.4224  -28.8021   23.2993 O   0  0  0  0  0  0
  -27.9769  -25.6929   20.2859 O   0  0  0  0  0  0
  -26.5711  -34.8887   22.4606 O   0  0  0  0  0  0
  -23.5707  -32.1252   23.6882 O   0  0  0  0  0  0
  -28.5398  -12.7813   20.6350 C   0  0  0  0  0  0
  -29.1384  -14.2565   19.2812 C   0  0  0  0  0  0
  -27.5841  -13.4599   21.8499 C   0  0  0  0  0  0
  -28.7493  -15.7574   19.5738 C   0  0  0  0  0  0
  -27.2756  -15.0932   21.8005 C   0  0  0  0  0  0
  -27.8124  -16.2355   20.7434 C   0  0  0  0  0  0
  -27.5452  -20.8599   20.7648 C   0  0  0  0  0  0
  -30.0230  -16.5435   19.3112 C   0  0  0  0  0  0
  -27.5080  -17.9538   21.0316 C   0  0  0  0  0  0
  -28.1028  -22.4432   20.2384 C   0  0  0  0  0  0
  -27.4647  -24.1214   20.4884 C   0  0  0  0  0  0
  -26.5395  -15.5985   23.0413 C   0  0  0  0  0  0
  -27.9580  -19.4643   20.4535 N   0  0  0  0  0  0
  -31.2174  -15.9716   20.0350 N   0  0  0  0  0  0
  -26.6296  -20.9364   21.5832 O   0  0  0  0  0  0
  -27.4534  -16.0265   23.9115 F   0  0  0  0  0  0
  -25.6971  -16.5988   22.7981 F   0  0  0  0  0  0
  -25.8454  -14.6182   23.6208 F   0  0  0  0  0  0
  -31.6908  -12.4120   19.0017 H   0  0  0  0  0  0
  -30.9266  -11.4755   20.1910 H   0  0  0  0  0  0
  -29.3425  -10.9021   18.3526 H   0  0  0  0  0  0
  -29.8155  -12.2178   17.3933 H   0  0  0  0  0  0
  -27.0215  -11.7134   18.3229 H   0  0  0  0  0  0
  -27.4902  -13.0097   17.3575 H   0  0  0  0  0  0
  -26.6733  -14.7335   18.9130 H   0  0  0  0  0  0
  -29.6875  -14.0546   22.4480 H   0  0  0  0  0  0
  -29.8045  -15.5205   21.8443 H   0  0  0  0  0  0
  -25.2600   -9.6255   22.4719 H   0  0  0  0  0  0
  -24.0149   -7.4923   22.7525 H   0  0  0  0  0  0
  -21.0785   -8.8433   19.8919 H   0  0  0  0  0  0
  -22.3292  -10.9444   19.6002 H   0  0  0  0  0  0
  -21.2075   -7.6160   23.9749 H   0  0  0  0  0  0
  -21.1469   -6.0530   25.9108 H   0  0  0  0  0  0
  -22.0568   -2.7588   23.2913 H   0  0  0  0  0  0
  -22.3158  -11.9355   22.5773 H   0  0  0  0  0  0
  -20.9519  -13.0035   22.4144 H   0  0  0  0  0  0
  -23.9916  -15.8797   20.5126 H   0  0  0  0  0  0
  -25.5339  -15.8410   19.8158 H   0  0  0  0  0  0
  -26.7360  -32.5098   23.0881 H   0  0  0  0  0  0
  -25.0091  -33.9495   25.0206 H   0  0  0  0  0  0
  -22.7830  -31.2858   21.3727 H   0  0  0  0  0  0
  -23.3786  -35.9499   23.3286 H   0  0  0  0  0  0
  -24.3563  -36.8867   22.2064 H   0  0  0  0  0  0
  -23.7215  -37.6365   23.6714 H   0  0  0  0  0  0
  -26.2414  -31.3592   20.6409 H   0  0  0  0  0  0
  -26.8994  -30.6596   22.0748 H   0  0  0  0  0  0
  -28.0928  -28.5049   21.3209 H   0  0  0  0  0  0
  -25.7558  -25.7754   18.9393 H   0  0  0  0  0  0
  -23.9413  -27.3518   18.8973 H   0  0  0  0  0  0
  -23.8705  -30.5647   19.3998 H   0  0  0  0  0  0
  -22.8042  -29.2586   19.8212 H   0  0  0  0  0  0
  -25.1344  -36.1786   25.0786 H   0  0  0  0  0  0
  -21.0038  -28.3360   24.1313 H   0  0  0  0  0  0
  -20.5698  -26.2363   23.3637 H   0  0  0  0  0  0
  -21.6662  -26.7414   22.1191 H   0  0  0  0  0  0
  -19.6912  -25.6270   21.1281 H   0  0  0  0  0  0
  -19.6702  -27.3159   20.6731 H   0  0  0  0  0  0
  -17.4219  -26.6694   21.4035 H   0  0  0  0  0  0
  -18.0336  -26.0097   22.9038 H   0  0  0  0  0  0
  -19.7962  -30.7333   24.2185 H   0  0  0  0  0  0
  -17.5026  -31.6270   24.5162 H   0  0  0  0  0  0
  -15.5370  -30.2949   23.7703 H   0  0  0  0  0  0
  -15.8711  -28.0795   22.7101 H   0  0  0  0  0  0
  -24.5849  -30.7173   25.7644 H   0  0  0  0  0  0
  -24.8833  -32.3012   26.4676 H   0  0  0  0  0  0
  -25.7848  -30.9025   27.0227 H   0  0  0  0  0  0
  -26.3138  -29.6575   24.1503 H   0  0  0  0  0  0
  -27.3959  -29.7317   25.5189 H   0  0  0  0  0  0
  -27.9105  -30.4094   23.9962 H   0  0  0  0  0  0
  -27.2651  -33.3716   26.1973 H   0  0  0  0  0  0
  -28.3919  -32.6856   25.0363 H   0  0  0  0  0  0
  -28.0684  -31.8572   26.5516 H   0  0  0  0  0  0
  -28.2586  -38.0074   24.7537 H   0  0  0  0  0  0
  -28.1091  -36.2605   24.6283 H   0  0  0  0  0  0
  -27.2289  -37.1386   25.8865 H   0  0  0  0  0  0
  -20.9576  -29.8742   21.6686 H   0  0  0  0  0  0
  -26.0149  -38.2776   24.1417 H   0  0  0  0  0  0
  -28.7205  -11.7129   20.6604 H   0  0  0  0  0  0
  -29.7998  -14.2046   18.4217 H   0  0  0  0  0  0
  -27.2018  -12.8419   22.6494 H   0  0  0  0  0  0
  -30.2242  -16.5515   18.2389 H   0  0  0  0  0  0
  -29.8949  -17.5836   19.6058 H   0  0  0  0  0  0
  -27.7180  -18.0538   22.0973 H   0  0  0  0  0  0
  -26.4217  -18.0110   20.9659 H   0  0  0  0  0  0
  -28.2167  -22.3360   19.1599 H   0  0  0  0  0  0
  -29.1259  -22.4780   20.6096 H   0  0  0  0  0  0
  -27.1818  -24.1218   21.5403 H   0  0  0  0  0  0
  -26.5044  -24.0812   19.9808 H   0  0  0  0  0  0
  -28.6889  -19.4239   19.7562 H   0  0  0  0  0  0
  -32.0192  -16.5739   19.9248 H   0  0  0  0  0  0
  1 25  1  0  0  0
  1 30  2  0  0  0
  1 84  1  0  0  0
  2  3  1  0  0  0
  2 25  1  0  0  0
  2 89  1  0  0  0
  2 90  1  0  0  0
  3  4  1  0  0  0
  3 91  1  0  0  0
  3 92  1  0  0  0
  4  5  1  0  0  0
  4 93  1  0  0  0
  4 94  1  0  0  0
  5  6  1  0  0  0
  5 26  1  0  0  0
  5 95  1  0  0  0
  6 25  1  0  0  0
  6 96  1  0  0  0
  6 97  1  0  0  0
  7  8  2  0  0  0
  7 26  1  0  0  0
  7 29  1  0  0  0
  8  9  1  0  0  0
  8 22  1  0  0  0
  9 10  1  0  0  0
  9 27  2  0  0  0
 10 11  2  0  0  0
 10 15  1  0  0  0
 11 12  1  0  0  0
 11 98  1  0  0  0
 12 13  2  0  0  0
 12 99  1  0  0  0
 13 14  1  0  0  0
 13 31  1  0  0  0
 14 15  2  0  0  0
 14100  1  0  0  0
 15101  1  0  0  0
 16 17  2  0  0  0
 16 21  1  0  0  0
 16 31  1  0  0  0
 17 18  1  0  0  0
 17102  1  0  0  0
 18 19  2  0  0  0
 18103  1  0  0  0
 19 20  1  0  0  0
 19 24  1  0  0  0
 20 21  2  0  0  0
 20104  1  0  0  0
 21 23  1  0  0  0
 22 28  1  0  0  0
 22 32  2  0  0  0
 26 27  1  0  0  0
 28105  1  0  0  0
 28106  1  0  0  0
 29107  1  0  0  0
 29108  1  0  0  0
 33 34  1  0  0  0
 33 66  1  0  0  0
 33 70  2  0  0  0
 34 36  1  0  0  0
 34 59  1  0  0  0
 34109  1  0  0  0
 35 44  2  0  0  0
 35 45  1  0  0  0
 35 68  1  0  0  0
 36 56  1  0  0  0
 36110  1  0  0  0
 37 39  1  0  0  0
 37 47  1  0  0  0
 37 66  1  0  0  0
 37111  1  0  0  0
 38 43  2  0  0  0
 38 46  1  0  0  0
 38 47  1  0  0  0
 39 64  1  0  0  0
 39 67  2  0  0  0
 40 52  1  0  0  0
 40 53  2  0  0  0
 40 58  1  0  0  0
 41112  1  0  0  0
 41113  1  0  0  0
 41114  1  0  0  0
 41 48  1  0  0  0
 42 43  1  0  0  0
 42 66  1  0  0  0
 42115  1  0  0  0
 42116  1  0  0  0
 43 44  1  0  0  0
 44117  1  0  0  0
 45 46  2  0  0  0
 45118  1  0  0  0
 46119  1  0  0  0
 47120  1  0  0  0
 47121  1  0  0  0
 48 56  1  0  0  0
 48 65  1  0  0  0
 48122  1  0  0  0
 49 50  1  0  0  0
 49 53  1  0  0  0
 49 64  1  0  0  0
 49123  1  0  0  0
 50 51  1  0  0  0
 50124  1  0  0  0
 50125  1  0  0  0
 51 52  1  0  0  0
 51126  1  0  0  0
 51127  1  0  0  0
 52128  1  0  0  0
 52129  1  0  0  0
 53 54  1  0  0  0
 54 55  2  0  0  0
 54130  1  0  0  0
 55 57  1  0  0  0
 55131  1  0  0  0
 56 69  2  0  0  0
 57 58  2  0  0  0
 57132  1  0  0  0
 58133  1  0  0  0
 59 60  1  0  0  0
 59 61  1  0  0  0
 59 62  1  0  0  0
 60134  1  0  0  0
 60135  1  0  0  0
 60136  1  0  0  0
 61137  1  0  0  0
 61138  1  0  0  0
 61139  1  0  0  0
 62140  1  0  0  0
 62141  1  0  0  0
 62142  1  0  0  0
 63 65  1  0  0  0
 63143  1  0  0  0
 63144  1  0  0  0
 63145  1  0  0  0
 64146  1  0  0  0
 65147  1  0  0  0
 68 81  1  0  0  0
 71 72  2  0  0  0
 71 73  1  0  0  0
 71148  1  0  0  0
 72 74  1  0  0  0
 72149  1  0  0  0
 73 75  2  0  0  0
 73150  1  0  0  0
 74 76  2  0  0  0
 74 78  1  0  0  0
 75 76  1  0  0  0
 75 82  1  0  0  0
 76 79  1  0  0  0
 77 80  1  0  0  0
 77 83  1  0  0  0
 77 85  2  0  0  0
 78 84  1  0  0  0
 78151  1  0  0  0
 78152  1  0  0  0
 79 83  1  0  0  0
 79153  1  0  0  0
 79154  1  0  0  0
 80 81  1  0  0  0
 80155  1  0  0  0
 80156  1  0  0  0
 81157  1  0  0  0
 81158  1  0  0  0
 82 86  1  0  0  0
 82 87  1  0  0  0
 82 88  1  0  0  0
 83159  1  0  0  0
 84160  1  0  0  0
M  ISO  4   1 100  68 101  81 101  84 100
M  END
> <chiral flag>
0

> <version>
0

> <s_m_source_file>
/data/baiqing/PycharmProjects/Reinvent-master-3.2/result/LINK_invent/BTK/process_docking_weight1_custom_product_contain_oxygen_bond_distance_aromatic_linkinvent_7_9_3/rearranged_h_0052.sdf

> <i_m_source_file_index>
42

> <r_mmod_Potential_Energy-OPLS-2005>
10491.322265625

> <r_mmod_Stretch_Energy-OPLS-2005>
5983.09033203125

> <r_mmod_Bend_Energy-OPLS-2005>
697.0537109375

> <r_mmod_Torsional_Energy-OPLS-2005>
399.716339111328

> <r_mmod_Improper_Torsional_Energy-OPLS-2005>
26.6222305297852

> <r_mmod_Van_der_Waal_Energy-OPLS-2005>
2873.18359375

> <r_mmod_Electrostatic_Energy-OPLS-2005>
-454.407684326172

> <r_mmod_Solvation_Energy-OPLS-2005>
-248.64128112793

> <b_mmod_Minimization_Converged-OPLS-2005>
0

> <r_mmod_RMS_Derivative-OPLS-2005>
3.29974818229675

$$$$
42
                    3D
 Structure written by MMmdl.
160168  0  0  1  0            999 V2000
  -29.7915  -16.9191   20.2606 C   0  0  0  0  0  0
  -30.2568  -14.0669   19.5334 C   0  0  0  0  0  0
  -29.5702  -13.0978   18.4623 C   0  0  0  0  0  0
  -28.2854  -12.4502   18.9703 C   0  0  0  0  0  0
  -27.5757  -13.4882   19.8424 C   0  0  2  0  0  0
  -28.4772  -14.3128   20.8620 C   0  0  0  0  0  0
  -25.2109  -13.8603   20.6017 C   0  0  0  0  0  0
  -24.1675  -13.0514   20.9396 C   0  0  0  0  0  0
  -24.6616  -11.7109   20.8770 C   0  0  0  0  0  0
  -23.9329  -10.4360   21.0319 C   0  0  0  0  0  0
  -24.3788   -9.4251   21.9134 C   0  0  0  0  0  0
  -23.6396   -8.2312   22.0737 C   0  0  0  0  0  0
  -22.4359   -8.0357   21.3553 C   0  0  0  0  0  0
  -22.0054   -9.0336   20.4634 C   0  0  0  0  0  0
  -22.7451  -10.2185   20.3006 C   0  0  0  0  0  0
  -21.6896   -6.0757   22.5268 C   0  0  0  0  0  0
  -21.4041   -6.5648   23.8200 C   0  0  0  0  0  0
  -21.3672   -5.6802   24.9163 C   0  0  0  0  0  0
  -21.6050   -4.3063   24.7220 C   0  0  0  0  0  0
  -21.8813   -3.8151   23.4341 C   0  0  0  0  0  0
  -21.9205   -4.6971   22.3395 C   0  0  0  0  0  0
  -22.7637  -13.5088   21.1984 C   0  0  0  0  0  0
  -22.1662   -4.2149   21.0971 F   0  0  0  0  0  0
  -21.5630   -3.4546   25.7728 F   0  0  0  0  0  0
  -29.4202  -15.3243   20.1513 N   0  0  0  0  0  0
  -26.2853  -13.0336   20.3639 N   0  0  0  0  0  0
  -25.9656  -11.7182   20.5709 N   0  0  0  0  0  0
  -22.0349  -12.8005   22.0516 N   0  0  0  0  0  0
  -25.3377  -15.2376   20.4415 N   0  0  0  0  0  0
  -31.0440  -16.6518   20.2002 O   0  0  0  0  0  0
  -21.6711   -6.8941   21.4241 O   0  0  0  0  0  0
  -22.3230  -14.5364   20.6831 O   0  0  0  0  0  0
  -24.7695  -31.6868   23.0824 C   0  0  0  0  0  0
  -25.9838  -32.3928   23.7691 C   0  0  1  0  0  0
  -27.2769  -25.8105   20.2703 C   0  0  0  0  0  0
  -25.6024  -33.7805   24.1453 N   0  0  0  0  0  0
  -23.6386  -30.2479   21.4568 C   0  0  2  0  0  0
  -25.1127  -28.4073   20.1485 C   0  0  0  0  0  0
  -22.8154  -29.3695   22.4478 C   0  0  0  0  0  0
  -18.0397  -28.1463   22.8379 C   0  0  0  0  0  0
  -24.1509  -36.6929   23.2678 C   0  0  0  0  0  0
  -26.2440  -30.1240   21.4881 C   0  0  0  0  0  0
  -26.3114  -28.5874   20.8494 C   0  0  0  0  0  0
  -27.3344  -27.3498   20.8650 C   0  0  0  0  0  0
  -26.0550  -26.0837   19.5043 C   0  0  0  0  0  0
  -25.0759  -27.1827   19.4472 C   0  0  0  0  0  0
  -23.9451  -29.4643   20.1326 C   0  0  0  0  0  0
  -25.4188  -36.2556   24.0204 C   0  0  1  0  0  0
  -20.6054  -28.3849   23.0968 C   0  0  2  0  0  0
  -20.6794  -26.9421   22.5435 C   0  0  0  0  0  0
  -19.5819  -26.6326   21.5210 C   0  0  0  0  0  0
  -18.1990  -26.7967   22.1568 C   0  0  0  0  0  0
  -19.1677  -28.9015   23.2614 C   0  0  0  0  0  0
  -18.9567  -30.1564   23.8720 C   0  0  0  0  0  0
  -17.6545  -30.6612   24.0529 C   0  0  0  0  0  0
  -25.9213  -34.8971   23.4724 C   0  0  0  0  0  0
  -16.5431  -29.9080   23.6366 C   0  0  0  0  0  0
  -16.7367  -28.6511   23.0368 C   0  0  0  0  0  0
  -26.4736  -31.6368   25.0678 C   0  0  0  0  0  0
  -25.3579  -31.3973   26.1135 C   0  0  0  0  0  0
  -27.0787  -30.2596   24.7256 C   0  0  0  0  0  0
  -27.6001  -32.4466   25.7528 C   0  0  0  0  0  0
  -27.5532  -37.1617   24.8461 C   0  0  0  0  0  0
  -21.4722  -29.2898   22.3207 N   0  0  0  0  0  0
  -26.4238  -37.3412   23.9386 N   0  0  0  0  0  0
  -24.9185  -30.7388   22.0631 N   0  0  0  0  0  0
  -23.4144  -28.7482   23.3273 O   0  0  0  0  0  0
  -27.9191  -24.0796   20.2404 O   0  0  0  0  0  0
  -26.5975  -34.8719   22.4427 O   0  0  0  0  0  0
  -23.6512  -32.0345   23.5201 O   0  0  0  0  0  0
  -29.8883  -24.5862   20.6420 C   0  0  0  0  0  0
  -29.0539  -23.5770   21.9736 C   0  0  0  0  0  0
  -29.6387  -23.6573   19.0485 C   0  0  0  0  0  0
  -28.9652  -21.9822   19.0712 C   0  0  0  0  0  0
  -28.8105  -20.7522   20.3066 C   0  0  0  0  0  0
  -28.4512  -21.9153   21.5896 C   0  0  0  0  0  0
  -32.4551  -23.2715   18.9687 C   0  0  0  0  0  0
  -28.8008  -21.3844   17.6858 C   0  0  0  0  0  0
  -32.6151  -24.7313   17.0018 C   0  0  0  0  0  0
  -30.3737  -24.1332   17.8210 C   0  0  0  0  0  0
  -31.7207  -22.1048   19.6743 C   0  0  0  0  0  0
  -30.5570  -22.4769   20.7223 C   0  0  0  0  0  0
  -29.0219  -18.6191   20.2947 N   0  0  0  0  0  0
  -31.8295  -23.9752   17.9805 N   0  0  0  0  0  0
  -33.6426  -23.4629   19.2495 O   0  0  0  0  0  0
  -27.8784  -21.3311   22.6695 F   0  0  0  0  0  0
  -31.1120  -14.4923   19.0088 H   0  0  0  0  0  0
  -30.7278  -13.4825   20.3253 H   0  0  0  0  0  0
  -30.2741  -12.3301   18.1373 H   0  0  0  0  0  0
  -29.3332  -13.6884   17.5769 H   0  0  0  0  0  0
  -28.5460  -11.5867   19.5846 H   0  0  0  0  0  0
  -27.6540  -12.0975   18.1538 H   0  0  0  0  0  0
  -27.2966  -14.2411   19.1058 H   0  0  0  0  0  0
  -28.9888  -13.6609   21.5740 H   0  0  0  0  0  0
  -27.8269  -14.9224   21.4906 H   0  0  0  0  0  0
  -25.2902   -9.5703   22.4755 H   0  0  0  0  0  0
  -24.0057   -7.4707   22.7492 H   0  0  0  0  0  0
  -21.0966   -8.8905   19.8961 H   0  0  0  0  0  0
  -22.3899  -10.9733   19.6131 H   0  0  0  0  0  0
  -21.2044   -7.6155   23.9705 H   0  0  0  0  0  0
  -21.1497   -6.0528   25.9067 H   0  0  0  0  0  0
  -22.0579   -2.7609   23.2850 H   0  0  0  0  0  0
  -22.4052  -11.9705   22.4911 H   0  0  0  0  0  0
  -21.0921  -13.0913   22.2720 H   0  0  0  0  0  0
  -24.5516  -15.8717   20.5305 H   0  0  0  0  0  0
  -26.1786  -15.6896   20.1091 H   0  0  0  0  0  0
  -26.8039  -32.4237   23.0505 H   0  0  0  0  0  0
  -24.9951  -33.8708   24.9454 H   0  0  0  0  0  0
  -23.0180  -31.1071   21.1924 H   0  0  0  0  0  0
  -23.3772  -35.9253   23.3226 H   0  0  0  0  0  0
  -24.3557  -36.8758   22.2119 H   0  0  0  0  0  0
  -23.7311  -37.6049   23.6918 H   0  0  0  0  0  0
  -26.5389  -30.7990   20.6831 H   0  0  0  0  0  0
  -27.0575  -30.2139   22.1925 H   0  0  0  0  0  0
  -28.2014  -27.5267   21.4873 H   0  0  0  0  0  0
  -25.7480  -25.2340   18.9085 H   0  0  0  0  0  0
  -24.2094  -27.0067   18.8257 H   0  0  0  0  0  0
  -24.1913  -30.1863   19.3538 H   0  0  0  0  0  0
  -23.0360  -28.9713   19.7844 H   0  0  0  0  0  0
  -25.1455  -36.1164   25.0686 H   0  0  0  0  0  0
  -21.0080  -28.3538   24.1117 H   0  0  0  0  0  0
  -20.5526  -26.2510   23.3782 H   0  0  0  0  0  0
  -21.6656  -26.7200   22.1355 H   0  0  0  0  0  0
  -19.6960  -25.6191   21.1360 H   0  0  0  0  0  0
  -19.6815  -27.3030   20.6658 H   0  0  0  0  0  0
  -17.4270  -26.6710   21.3950 H   0  0  0  0  0  0
  -18.0342  -26.0143   22.8993 H   0  0  0  0  0  0
  -19.8057  -30.7407   24.2007 H   0  0  0  0  0  0
  -17.5114  -31.6276   24.5180 H   0  0  0  0  0  0
  -15.5434  -30.2942   23.7813 H   0  0  0  0  0  0
  -15.8750  -28.0803   22.7165 H   0  0  0  0  0  0
  -24.5885  -30.7161   25.7476 H   0  0  0  0  0  0
  -24.8638  -32.3265   26.3968 H   0  0  0  0  0  0
  -25.7576  -30.9581   27.0285 H   0  0  0  0  0  0
  -26.3593  -29.5928   24.2488 H   0  0  0  0  0  0
  -27.4043  -29.7431   25.6305 H   0  0  0  0  0  0
  -27.9665  -30.3498   24.1005 H   0  0  0  0  0  0
  -27.2408  -33.3951   26.1539 H   0  0  0  0  0  0
  -28.4083  -32.6739   25.0568 H   0  0  0  0  0  0
  -28.0359  -31.9003   26.5898 H   0  0  0  0  0  0
  -28.2464  -37.9977   24.7426 H   0  0  0  0  0  0
  -28.1100  -36.2469   24.6361 H   0  0  0  0  0  0
  -27.2241  -37.1322   25.8863 H   0  0  0  0  0  0
  -21.0251  -29.8454   21.6044 H   0  0  0  0  0  0
  -25.9966  -38.2408   24.1390 H   0  0  0  0  0  0
  -30.3353  -25.5639   20.7537 H   0  0  0  0  0  0
  -28.9038  -23.9972   22.9582 H   0  0  0  0  0  0
  -29.7573  -21.3209   17.1659 H   0  0  0  0  0  0
  -28.1224  -22.0058   17.0971 H   0  0  0  0  0  0
  -28.3651  -20.3839   17.7293 H   0  0  0  0  0  0
  -33.4057  -24.1084   16.5798 H   0  0  0  0  0  0
  -33.0669  -25.6062   17.4670 H   0  0  0  0  0  0
  -32.0162  -25.0805   16.1587 H   0  0  0  0  0  0
  -30.1230  -25.1831   17.6623 H   0  0  0  0  0  0
  -30.0444  -23.5921   16.9346 H   0  0  0  0  0  0
  -32.4791  -21.5517   20.2305 H   0  0  0  0  0  0
  -31.3983  -21.3971   18.9146 H   0  0  0  0  0  0
  -31.2621  -22.9769   21.4174 H   0  0  0  0  0  0
  -30.6563  -21.6067   21.3905 H   0  0  0  0  0  0
  -28.0621  -18.3090   20.3834 H   0  0  0  0  0  0
  1 25  1  0  0  0
  1 30  2  0  0  0
  1 83  1  0  0  0
  2  3  1  0  0  0
  2 25  1  0  0  0
  2 87  1  0  0  0
  2 88  1  0  0  0
  3  4  1  0  0  0
  3 89  1  0  0  0
  3 90  1  0  0  0
  4  5  1  0  0  0
  4 91  1  0  0  0
  4 92  1  0  0  0
  5  6  1  0  0  0
  5 26  1  0  0  0
  5 93  1  0  0  0
  6 25  1  0  0  0
  6 94  1  0  0  0
  6 95  1  0  0  0
  7  8  2  0  0  0
  7 26  1  0  0  0
  7 29  1  0  0  0
  8  9  1  0  0  0
  8 22  1  0  0  0
  9 10  1  0  0  0
  9 27  2  0  0  0
 10 11  2  0  0  0
 10 15  1  0  0  0
 11 12  1  0  0  0
 11 96  1  0  0  0
 12 13  2  0  0  0
 12 97  1  0  0  0
 13 14  1  0  0  0
 13 31  1  0  0  0
 14 15  2  0  0  0
 14 98  1  0  0  0
 15 99  1  0  0  0
 16 17  2  0  0  0
 16 21  1  0  0  0
 16 31  1  0  0  0
 17 18  1  0  0  0
 17100  1  0  0  0
 18 19  2  0  0  0
 18101  1  0  0  0
 19 20  1  0  0  0
 19 24  1  0  0  0
 20 21  2  0  0  0
 20102  1  0  0  0
 21 23  1  0  0  0
 22 28  1  0  0  0
 22 32  2  0  0  0
 26 27  1  0  0  0
 28103  1  0  0  0
 28104  1  0  0  0
 29105  1  0  0  0
 29106  1  0  0  0
 33 34  1  0  0  0
 33 66  1  0  0  0
 33 70  2  0  0  0
 34 36  1  0  0  0
 34 59  1  0  0  0
 34107  1  0  0  0
 35 44  2  0  0  0
 35 45  1  0  0  0
 35 68  1  0  0  0
 36 56  1  0  0  0
 36108  1  0  0  0
 37 39  1  0  0  0
 37 47  1  0  0  0
 37 66  1  0  0  0
 37109  1  0  0  0
 38 43  2  0  0  0
 38 46  1  0  0  0
 38 47  1  0  0  0
 39 64  1  0  0  0
 39 67  2  0  0  0
 40 52  1  0  0  0
 40 53  2  0  0  0
 40 58  1  0  0  0
 41110  1  0  0  0
 41111  1  0  0  0
 41112  1  0  0  0
 41 48  1  0  0  0
 42 43  1  0  0  0
 42 66  1  0  0  0
 42113  1  0  0  0
 42114  1  0  0  0
 43 44  1  0  0  0
 44115  1  0  0  0
 45 46  2  0  0  0
 45116  1  0  0  0
 46117  1  0  0  0
 47118  1  0  0  0
 47119  1  0  0  0
 48 56  1  0  0  0
 48 65  1  0  0  0
 48120  1  0  0  0
 49 50  1  0  0  0
 49 53  1  0  0  0
 49 64  1  0  0  0
 49121  1  0  0  0
 50 51  1  0  0  0
 50122  1  0  0  0
 50123  1  0  0  0
 51 52  1  0  0  0
 51124  1  0  0  0
 51125  1  0  0  0
 52126  1  0  0  0
 52127  1  0  0  0
 53 54  1  0  0  0
 54 55  2  0  0  0
 54128  1  0  0  0
 55 57  1  0  0  0
 55129  1  0  0  0
 56 69  2  0  0  0
 57 58  2  0  0  0
 57130  1  0  0  0
 58131  1  0  0  0
 59 60  1  0  0  0
 59 61  1  0  0  0
 59 62  1  0  0  0
 60132  1  0  0  0
 60133  1  0  0  0
 60134  1  0  0  0
 61135  1  0  0  0
 61136  1  0  0  0
 61137  1  0  0  0
 62138  1  0  0  0
 62139  1  0  0  0
 62140  1  0  0  0
 63 65  1  0  0  0
 63141  1  0  0  0
 63142  1  0  0  0
 63143  1  0  0  0
 64144  1  0  0  0
 65145  1  0  0  0
 68 82  1  0  0  0
 71 72  2  0  0  0
 71 73  1  0  0  0
 71146  1  0  0  0
 72 76  1  0  0  0
 72147  1  0  0  0
 73 74  2  0  0  0
 73 80  1  0  0  0
 74 75  1  0  0  0
 74 78  1  0  0  0
 75 76  2  0  0  0
 75 83  1  0  0  0
 76 86  1  0  0  0
 77 81  1  0  0  0
 77 84  1  0  0  0
 77 85  2  0  0  0
 78148  1  0  0  0
 78149  1  0  0  0
 78150  1  0  0  0
 79 84  1  0  0  0
 79151  1  0  0  0
 79152  1  0  0  0
 79153  1  0  0  0
 80 84  1  0  0  0
 80154  1  0  0  0
 80155  1  0  0  0
 81 82  1  0  0  0
 81156  1  0  0  0
 81157  1  0  0  0
 82158  1  0  0  0
 82159  1  0  0  0
 83160  1  0  0  0
M  ISO  4   1 100  68 101  82 101  83 100
M  END
> <chiral flag>
0

> <version>
0

> <s_m_source_file>
/data/baiqing/PycharmProjects/Reinvent-master-3.2/result/LINK_invent/BTK/process_docking_weight1_custom_product_contain_oxygen_bond_distance_aromatic_linkinvent_7_9_3/rearranged_h_0052.sdf

> <i_m_source_file_index>
43

> <r_mmod_Potential_Energy-OPLS-2005>
15281.1328125

> <r_mmod_Stretch_Energy-OPLS-2005>
8386.23046875

> <r_mmod_Bend_Energy-OPLS-2005>
1155.86657714844

> <r_mmod_Torsional_Energy-OPLS-2005>
369.924133300781

> <r_mmod_Improper_Torsional_Energy-OPLS-2005>
13.5933523178101

> <r_mmod_Van_der_Waal_Energy-OPLS-2005>
2065.2216796875

> <r_mmod_Electrostatic_Energy-OPLS-2005>
-407.756378173828

> <r_mmod_Solvation_Energy-OPLS-2005>
-244.36116027832

> <b_mmod_Minimization_Converged-OPLS-2005>
0

> <r_mmod_RMS_Derivative-OPLS-2005>
6.0079402923584

$$$$
43
                    3D
 Structure written by MMmdl.
154162  0  0  1  0            999 V2000
  -30.6111  -14.7670   20.4416 C   0  0  0  0  0  0
  -30.4378  -12.4660   19.4773 C   0  0  0  0  0  0
  -29.5116  -12.5086   18.2397 C   0  0  0  0  0  0
  -28.0410  -12.3198   18.6549 C   0  0  0  0  0  0
  -27.6447  -13.2254   19.8502 C   0  0  2  0  0  0
  -28.6912  -13.1800   20.9865 C   0  0  0  0  0  0
  -25.2561  -13.8182   20.5686 C   0  0  0  0  0  0
  -24.1841  -13.0440   20.9183 C   0  0  0  0  0  0
  -24.6406  -11.6907   20.8739 C   0  0  0  0  0  0
  -23.9069  -10.4281   21.0409 C   0  0  0  0  0  0
  -24.3598   -9.4183   21.9198 C   0  0  0  0  0  0
  -23.6266   -8.2215   22.0748 C   0  0  0  0  0  0
  -22.4247   -8.0265   21.3537 C   0  0  0  0  0  0
  -21.9889   -9.0256   20.4642 C   0  0  0  0  0  0
  -22.7233  -10.2123   20.3068 C   0  0  0  0  0  0
  -21.6836   -6.0722   22.5299 C   0  0  0  0  0  0
  -21.3993   -6.5643   23.8221 C   0  0  0  0  0  0
  -21.3672   -5.6816   24.9202 C   0  0  0  0  0  0
  -21.6031   -4.3075   24.7251 C   0  0  0  0  0  0
  -21.8793   -3.8141   23.4383 C   0  0  0  0  0  0
  -21.9169   -4.6949   22.3423 C   0  0  0  0  0  0
  -22.7860  -13.5231   21.1842 C   0  0  0  0  0  0
  -22.1636   -4.2121   21.1000 F   0  0  0  0  0  0
  -21.5645   -3.4567   25.7770 F   0  0  0  0  0  0
  -29.9936  -13.5345   20.4022 N   0  0  0  0  0  0
  -26.2974  -12.9364   20.3290 N   0  0  0  0  0  0
  -25.9346  -11.6518   20.5777 N   0  0  0  0  0  0
  -22.0534  -12.8217   22.0402 N   0  0  0  0  0  0
  -25.4309  -15.1891   20.4080 N   0  0  0  0  0  0
  -31.7937  -14.8709   20.1057 O   0  0  0  0  0  0
  -21.6609   -6.8867   21.4253 O   0  0  0  0  0  0
  -22.3534  -14.5531   20.6687 O   0  0  0  0  0  0
  -24.6312  -31.8527   23.2024 C   0  0  0  0  0  0
  -25.9123  -32.4743   23.8358 C   0  0  1  0  0  0
  -27.2223  -27.2407   20.1043 C   0  0  0  0  0  0
  -25.5917  -33.8554   24.2251 N   0  0  0  0  0  0
  -23.4298  -30.4785   21.5453 C   0  0  2  0  0  0
  -24.8794  -28.9310   20.1032 C   0  0  0  0  0  0
  -22.7504  -29.4581   22.4908 C   0  0  0  0  0  0
  -18.0292  -28.1378   22.8476 C   0  0  0  0  0  0
  -24.1500  -36.7296   23.2652 C   0  0  0  0  0  0
  -25.9808  -30.7507   21.3970 C   0  0  0  0  0  0
  -26.0497  -29.3750   20.7292 C   0  0  0  0  0  0
  -27.2177  -28.5389   20.7299 C   0  0  0  0  0  0
  -26.0334  -26.8934   19.4192 C   0  0  0  0  0  0
  -24.8786  -27.6982   19.4370 C   0  0  0  0  0  0
  -23.6514  -29.8215   20.1580 C   0  0  0  0  0  0
  -25.4133  -36.3076   24.0324 C   0  0  1  0  0  0
  -20.5894  -28.3691   23.1266 C   0  0  2  0  0  0
  -20.6791  -26.9403   22.5421 C   0  0  0  0  0  0
  -19.5774  -26.6370   21.5220 C   0  0  0  0  0  0
  -18.1948  -26.7918   22.1625 C   0  0  0  0  0  0
  -19.1542  -28.8856   23.2865 C   0  0  0  0  0  0
  -18.9469  -30.1468   23.8869 C   0  0  0  0  0  0
  -17.6465  -30.6582   24.0568 C   0  0  0  0  0  0
  -25.9069  -34.9439   23.5099 C   0  0  0  0  0  0
  -16.5353  -29.9080   23.6337 C   0  0  0  0  0  0
  -16.7283  -28.6505   23.0340 C   0  0  0  0  0  0
  -26.4511  -31.6591   25.0759 C   0  0  0  0  0  0
  -25.3743  -31.3717   26.1478 C   0  0  0  0  0  0
  -27.0410  -30.3008   24.6314 C   0  0  0  0  0  0
  -27.6043  -32.4370   25.7506 C   0  0  0  0  0  0
  -27.5596  -37.1818   24.8460 C   0  0  0  0  0  0
  -21.4214  -29.3015   22.3641 N   0  0  0  0  0  0
  -26.4315  -37.3768   23.9388 N   0  0  0  0  0  0
  -24.6985  -31.0462   22.1022 N   0  0  0  0  0  0
  -23.4182  -28.8109   23.3013 O   0  0  0  0  0  0
  -28.3061  -26.3167   20.1808 O   0  0  0  0  0  0
  -26.5660  -34.8901   22.4683 O   0  0  0  0  0  0
  -23.5457  -32.1370   23.7292 O   0  0  0  0  0  0
  -26.5916  -19.2126   18.4068 C   0  0  0  0  0  0
  -26.9803  -17.8811   18.2726 C   0  0  0  0  0  0
  -27.4068  -20.1012   19.1169 C   0  0  0  0  0  0
  -28.1341  -17.4324   18.9233 C   0  0  0  0  0  0
  -28.6243  -19.7227   19.7488 C   0  0  0  0  0  0
  -28.9514  -18.2667   19.7338 C   0  0  0  0  0  0
  -28.9468  -23.6759   20.4001 C   0  0  0  0  0  0
  -29.3918  -20.9988   20.3393 C   0  0  0  0  0  0
  -30.0727  -17.4092   20.4756 C   0  0  0  0  0  0
  -28.1466  -24.8863   19.6901 C   0  0  0  0  0  0
  -28.9439  -22.3975   19.8497 N   0  0  0  0  0  0
  -29.8265  -15.8932   20.6557 N   0  0  0  0  0  0
  -29.5207  -23.8898   21.4702 O   0  0  0  0  0  0
  -31.4779  -12.5901   19.1741 H   0  0  0  0  0  0
  -30.3868  -11.4947   19.9685 H   0  0  0  0  0  0
  -29.8022  -11.7387   17.5235 H   0  0  0  0  0  0
  -29.6243  -13.4639   17.7226 H   0  0  0  0  0  0
  -27.9034  -11.2711   18.9212 H   0  0  0  0  0  0
  -27.3823  -12.4996   17.8051 H   0  0  0  0  0  0
  -27.6339  -14.2405   19.4598 H   0  0  0  0  0  0
  -28.7282  -12.1913   21.4453 H   0  0  0  0  0  0
  -28.4213  -13.8736   21.7837 H   0  0  0  0  0  0
  -25.2729   -9.5627   22.4802 H   0  0  0  0  0  0
  -23.9945   -7.4597   22.7475 H   0  0  0  0  0  0
  -21.0813   -8.8797   19.8950 H   0  0  0  0  0  0
  -22.3712  -10.9677   19.6194 H   0  0  0  0  0  0
  -21.1965   -7.6145   23.9713 H   0  0  0  0  0  0
  -21.1553   -6.0561   25.9116 H   0  0  0  0  0  0
  -22.0558   -2.7596   23.2907 H   0  0  0  0  0  0
  -22.4197  -11.9875   22.4751 H   0  0  0  0  0  0
  -21.1158  -13.1222   22.2676 H   0  0  0  0  0  0
  -24.6706  -15.8484   20.5320 H   0  0  0  0  0  0
  -26.2756  -15.6215   20.0576 H   0  0  0  0  0  0
  -26.7181  -32.5374   23.1082 H   0  0  0  0  0  0
  -25.0000  -33.9702   25.0356 H   0  0  0  0  0  0
  -22.7268  -31.3019   21.4030 H   0  0  0  0  0  0
  -23.3761  -35.9637   23.3319 H   0  0  0  0  0  0
  -24.3592  -36.8925   22.2073 H   0  0  0  0  0  0
  -23.7262  -37.6498   23.6678 H   0  0  0  0  0  0
  -26.1401  -31.5170   20.6359 H   0  0  0  0  0  0
  -26.8490  -30.7852   22.0432 H   0  0  0  0  0  0
  -28.1047  -28.8746   21.2492 H   0  0  0  0  0  0
  -25.9588  -25.9812   18.8499 H   0  0  0  0  0  0
  -23.9883  -27.3670   18.9170 H   0  0  0  0  0  0
  -23.7778  -30.6058   19.4095 H   0  0  0  0  0  0
  -22.7684  -29.2595   19.8483 H   0  0  0  0  0  0
  -25.1326  -36.1942   25.0824 H   0  0  0  0  0  0
  -20.9980  -28.3281   24.1391 H   0  0  0  0  0  0
  -20.5700  -26.2302   23.3637 H   0  0  0  0  0  0
  -21.6667  -26.7437   22.1219 H   0  0  0  0  0  0
  -19.6939  -25.6272   21.1274 H   0  0  0  0  0  0
  -19.6724  -27.3172   20.6742 H   0  0  0  0  0  0
  -17.4228  -26.6660   21.4023 H   0  0  0  0  0  0
  -18.0340  -26.0065   22.9024 H   0  0  0  0  0  0
  -19.7945  -30.7305   24.2202 H   0  0  0  0  0  0
  -17.5016  -31.6251   24.5184 H   0  0  0  0  0  0
  -15.5351  -30.2974   23.7676 H   0  0  0  0  0  0
  -15.8685  -28.0836   22.7031 H   0  0  0  0  0  0
  -24.5900  -30.7092   25.7794 H   0  0  0  0  0  0
  -24.8962  -32.2883   26.4944 H   0  0  0  0  0  0
  -25.8067  -30.8851   27.0233 H   0  0  0  0  0  0
  -26.3030  -29.6678   24.1374 H   0  0  0  0  0  0
  -27.4115  -29.7342   25.4870 H   0  0  0  0  0  0
  -27.8888  -30.4278   23.9576 H   0  0  0  0  0  0
  -27.2609  -33.3635   26.2116 H   0  0  0  0  0  0
  -28.3796  -32.7009   25.0301 H   0  0  0  0  0  0
  -28.0791  -31.8515   26.5391 H   0  0  0  0  0  0
  -28.2605  -38.0120   24.7509 H   0  0  0  0  0  0
  -28.1096  -36.2655   24.6283 H   0  0  0  0  0  0
  -27.2311  -37.1466   25.8860 H   0  0  0  0  0  0
  -20.9390  -29.8755   21.6866 H   0  0  0  0  0  0
  -26.0196  -38.2846   24.1371 H   0  0  0  0  0  0
  -25.6832  -19.5673   17.9417 H   0  0  0  0  0  0
  -26.3795  -17.1973   17.6895 H   0  0  0  0  0  0
  -27.0426  -21.1157   19.1537 H   0  0  0  0  0  0
  -28.3730  -16.3896   18.7810 H   0  0  0  0  0  0
  -30.4542  -20.8820   20.1156 H   0  0  0  0  0  0
  -29.3074  -20.9738   21.4258 H   0  0  0  0  0  0
  -30.2197  -17.8412   21.4659 H   0  0  0  0  0  0
  -31.0167  -17.5579   19.9493 H   0  0  0  0  0  0
  -27.1129  -24.5617   19.7970 H   0  0  0  0  0  0
  -28.3649  -24.8729   18.6207 H   0  0  0  0  0  0
  -28.5308  -22.3750   18.9275 H   0  0  0  0  0  0
  -28.8828  -15.6706   20.9322 H   0  0  0  0  0  0
  1 25  1  0  0  0
  1 30  2  0  0  0
  1 82  1  0  0  0
  2  3  1  0  0  0
  2 25  1  0  0  0
  2 84  1  0  0  0
  2 85  1  0  0  0
  3  4  1  0  0  0
  3 86  1  0  0  0
  3 87  1  0  0  0
  4  5  1  0  0  0
  4 88  1  0  0  0
  4 89  1  0  0  0
  5  6  1  0  0  0
  5 26  1  0  0  0
  5 90  1  0  0  0
  6 25  1  0  0  0
  6 91  1  0  0  0
  6 92  1  0  0  0
  7  8  2  0  0  0
  7 26  1  0  0  0
  7 29  1  0  0  0
  8  9  1  0  0  0
  8 22  1  0  0  0
  9 10  1  0  0  0
  9 27  2  0  0  0
 10 11  2  0  0  0
 10 15  1  0  0  0
 11 12  1  0  0  0
 11 93  1  0  0  0
 12 13  2  0  0  0
 12 94  1  0  0  0
 13 14  1  0  0  0
 13 31  1  0  0  0
 14 15  2  0  0  0
 14 95  1  0  0  0
 15 96  1  0  0  0
 16 17  2  0  0  0
 16 21  1  0  0  0
 16 31  1  0  0  0
 17 18  1  0  0  0
 17 97  1  0  0  0
 18 19  2  0  0  0
 18 98  1  0  0  0
 19 20  1  0  0  0
 19 24  1  0  0  0
 20 21  2  0  0  0
 20 99  1  0  0  0
 21 23  1  0  0  0
 22 28  1  0  0  0
 22 32  2  0  0  0
 26 27  1  0  0  0
 28100  1  0  0  0
 28101  1  0  0  0
 29102  1  0  0  0
 29103  1  0  0  0
 33 34  1  0  0  0
 33 66  1  0  0  0
 33 70  2  0  0  0
 34 36  1  0  0  0
 34 59  1  0  0  0
 34104  1  0  0  0
 35 44  2  0  0  0
 35 45  1  0  0  0
 35 68  1  0  0  0
 36 56  1  0  0  0
 36105  1  0  0  0
 37 39  1  0  0  0
 37 47  1  0  0  0
 37 66  1  0  0  0
 37106  1  0  0  0
 38 43  2  0  0  0
 38 46  1  0  0  0
 38 47  1  0  0  0
 39 64  1  0  0  0
 39 67  2  0  0  0
 40 52  1  0  0  0
 40 53  2  0  0  0
 40 58  1  0  0  0
 41107  1  0  0  0
 41108  1  0  0  0
 41109  1  0  0  0
 41 48  1  0  0  0
 42 43  1  0  0  0
 42 66  1  0  0  0
 42110  1  0  0  0
 42111  1  0  0  0
 43 44  1  0  0  0
 44112  1  0  0  0
 45 46  2  0  0  0
 45113  1  0  0  0
 46114  1  0  0  0
 47115  1  0  0  0
 47116  1  0  0  0
 48 56  1  0  0  0
 48 65  1  0  0  0
 48117  1  0  0  0
 49 50  1  0  0  0
 49 53  1  0  0  0
 49 64  1  0  0  0
 49118  1  0  0  0
 50 51  1  0  0  0
 50119  1  0  0  0
 50120  1  0  0  0
 51 52  1  0  0  0
 51121  1  0  0  0
 51122  1  0  0  0
 52123  1  0  0  0
 52124  1  0  0  0
 53 54  1  0  0  0
 54 55  2  0  0  0
 54125  1  0  0  0
 55 57  1  0  0  0
 55126  1  0  0  0
 56 69  2  0  0  0
 57 58  2  0  0  0
 57127  1  0  0  0
 58128  1  0  0  0
 59 60  1  0  0  0
 59 61  1  0  0  0
 59 62  1  0  0  0
 60129  1  0  0  0
 60130  1  0  0  0
 60131  1  0  0  0
 61132  1  0  0  0
 61133  1  0  0  0
 61134  1  0  0  0
 62135  1  0  0  0
 62136  1  0  0  0
 62137  1  0  0  0
 63 65  1  0  0  0
 63138  1  0  0  0
 63139  1  0  0  0
 63140  1  0  0  0
 64141  1  0  0  0
 65142  1  0  0  0
 68 80  1  0  0  0
 71 72  2  0  0  0
 71 73  1  0  0  0
 71143  1  0  0  0
 72 74  1  0  0  0
 72144  1  0  0  0
 73 75  2  0  0  0
 73145  1  0  0  0
 74 76  2  0  0  0
 74146  1  0  0  0
 75 76  1  0  0  0
 75 78  1  0  0  0
 76 79  1  0  0  0
 77 80  1  0  0  0
 77 81  1  0  0  0
 77 83  2  0  0  0
 78 81  1  0  0  0
 78147  1  0  0  0
 78148  1  0  0  0
 79 82  1  0  0  0
 79149  1  0  0  0
 79150  1  0  0  0
 80151  1  0  0  0
 80152  1  0  0  0
 81153  1  0  0  0
 82154  1  0  0  0
M  ISO  4   1 100  68 101  80 101  82 100
M  END
> <chiral flag>
0

> <version>
0

> <s_m_source_file>
/data/baiqing/PycharmProjects/Reinvent-master-3.2/result/LINK_invent/BTK/process_docking_weight1_custom_product_contain_oxygen_bond_distance_aromatic_linkinvent_7_9_3/rearranged_h_0052.sdf

> <i_m_source_file_index>
44

> <r_mmod_Potential_Energy-OPLS-2005>
118.511100769043

> <r_mmod_Stretch_Energy-OPLS-2005>
154.515396118164

> <r_mmod_Bend_Energy-OPLS-2005>
202.394683837891

> <r_mmod_Torsional_Energy-OPLS-2005>
201.390060424805

> <r_mmod_Improper_Torsional_Energy-OPLS-2005>
4.87324571609497

> <r_mmod_Van_der_Waal_Energy-OPLS-2005>
145.756576538086

> <r_mmod_Electrostatic_Energy-OPLS-2005>
-438.951934814453

> <r_mmod_Solvation_Energy-OPLS-2005>
-250.750839233398

> <b_mmod_Minimization_Converged-OPLS-2005>
0

> <r_mmod_RMS_Derivative-OPLS-2005>
3.28406929969788

$$$$
44
                    3D
 Structure written by MMmdl.
158166  0  0  1  0            999 V2000
  -30.2762  -14.5220   20.2868 C   0  0  0  0  0  0
  -30.4990  -12.2405   19.4342 C   0  0  0  0  0  0
  -29.4964  -12.1214   18.2480 C   0  0  0  0  0  0
  -28.0354  -11.8272   18.7803 C   0  0  0  0  0  0
  -27.7336  -12.7142   20.0101 C   0  0  2  0  0  0
  -28.7889  -12.7514   21.1004 C   0  0  0  0  0  0
  -25.5455  -14.4493   20.5292 C   0  0  0  0  0  0
  -24.3859  -13.5134   20.9443 C   0  0  0  0  0  0
  -24.6546  -12.0397   20.9430 C   0  0  0  0  0  0
  -23.9029  -10.6801   21.0799 C   0  0  0  0  0  0
  -24.3664   -9.6132   21.9182 C   0  0  0  0  0  0
  -23.6774   -8.3698   22.0597 C   0  0  0  0  0  0
  -22.4804   -8.1232   21.3464 C   0  0  0  0  0  0
  -22.0418   -9.1336   20.4642 C   0  0  0  0  0  0
  -22.7331  -10.3693   20.3328 C   0  0  0  0  0  0
  -21.7318   -6.1172   22.5142 C   0  0  0  0  0  0
  -21.4350   -6.5914   23.8123 C   0  0  0  0  0  0
  -21.3771   -5.6969   24.9032 C   0  0  0  0  0  0
  -21.6035   -4.3218   24.7063 C   0  0  0  0  0  0
  -21.8770   -3.8389   23.4157 C   0  0  0  0  0  0
  -21.9325   -4.7292   22.3262 C   0  0  0  0  0  0
  -22.8795  -13.7175   21.2047 C   0  0  0  0  0  0
  -22.1698   -4.2377   21.0857 F   0  0  0  0  0  0
  -21.5562   -3.4662   25.7551 F   0  0  0  0  0  0
  -29.9842  -13.2133   20.4157 N   0  0  0  0  0  0
  -26.3661  -13.1193   20.4708 N   0  0  0  0  0  0
  -25.8904  -11.8967   20.7456 N   0  0  0  0  0  0
  -22.2665  -12.9802   22.1341 N   0  0  0  0  0  0
  -26.1028  -16.7416   19.3665 N   0  0  0  0  0  0
  -31.4588  -14.8708   20.1224 O   0  0  0  0  0  0
  -21.7416   -6.9498   21.4112 O   0  0  0  0  0  0
  -22.1641  -14.4741   20.5707 O   0  0  0  0  0  0
  -24.6580  -31.8308   23.1857 C   0  0  0  0  0  0
  -25.9328  -32.4582   23.8205 C   0  0  1  0  0  0
  -26.8768  -26.7958   20.3025 C   0  0  0  0  0  0
  -25.6016  -33.8401   24.2080 N   0  0  0  0  0  0
  -23.4579  -30.4722   21.5343 C   0  0  2  0  0  0
  -24.8682  -28.8886   20.0751 C   0  0  0  0  0  0
  -22.7625  -29.4525   22.4751 C   0  0  0  0  0  0
  -18.0344  -28.1406   22.8485 C   0  0  0  0  0  0
  -24.1509  -36.7215   23.2639 C   0  0  0  0  0  0
  -26.0292  -30.5943   21.4410 C   0  0  0  0  0  0
  -26.0387  -29.1862   20.7823 C   0  0  0  0  0  0
  -27.0610  -28.1427   20.8954 C   0  0  0  0  0  0
  -25.8057  -26.7320   19.4091 C   0  0  0  0  0  0
  -24.7942  -27.7020   19.3414 C   0  0  0  0  0  0
  -23.6843  -29.8415   20.1349 C   0  0  0  0  0  0
  -25.4149  -36.2950   24.0279 C   0  0  1  0  0  0
  -20.5971  -28.3759   23.1177 C   0  0  2  0  0  0
  -20.6820  -26.9437   22.5391 C   0  0  0  0  0  0
  -19.5764  -26.6380   21.5234 C   0  0  0  0  0  0
  -18.1958  -26.7945   22.1645 C   0  0  0  0  0  0
  -19.1604  -28.8909   23.2827 C   0  0  0  0  0  0
  -18.9490  -30.1508   23.8854 C   0  0  0  0  0  0
  -17.6471  -30.6585   24.0566 C   0  0  0  0  0  0
  -25.9117  -34.9329   23.4991 C   0  0  0  0  0  0
  -16.5374  -29.9070   23.6327 C   0  0  0  0  0  0
  -16.7324  -28.6494   23.0351 C   0  0  0  0  0  0
  -26.4573  -31.6543   25.0743 C   0  0  0  0  0  0
  -25.3656  -31.3831   26.1368 C   0  0  0  0  0  0
  -27.0473  -30.2894   24.6528 C   0  0  0  0  0  0
  -27.6063  -32.4389   25.7491 C   0  0  0  0  0  0
  -27.5582  -37.1756   24.8439 C   0  0  0  0  0  0
  -21.4313  -29.3071   22.3510 N   0  0  0  0  0  0
  -26.4288  -37.3691   23.9385 N   0  0  0  0  0  0
  -24.7379  -30.9983   22.1025 N   0  0  0  0  0  0
  -23.4237  -28.8031   23.2900 O   0  0  0  0  0  0
  -27.4655  -25.4527   20.5299 O   0  0  0  0  0  0
  -26.5720  -34.8844   22.4583 O   0  0  0  0  0  0
  -23.5677  -32.1359   23.6964 O   0  0  0  0  0  0
  -24.0291  -16.1545   19.9807 C   0  0  0  0  0  0
  -26.6037  -14.7556   18.4894 C   0  0  0  0  0  0
  -25.1320  -16.7698   21.3775 C   0  0  0  0  0  0
  -26.8725  -16.1844   21.4433 C   0  0  0  0  0  0
  -27.6958  -15.3163   20.0365 C   0  0  0  0  0  0
  -24.7383  -15.1660   18.5085 C   0  0  0  0  0  0
  -26.5885  -22.6868   20.8902 C   0  0  0  0  0  0
  -26.5731  -24.1988   20.8236 C   0  0  0  0  0  0
  -25.0604  -18.5087   21.4998 C   0  0  0  0  0  0
  -25.7200  -21.1599   20.9894 C   0  0  0  0  0  0
  -27.7682  -16.7368   22.5298 C   0  0  0  0  0  0
  -24.3132  -21.4088   20.4283 C   0  0  0  0  0  0
  -25.9514  -19.7582   21.2509 N   0  0  0  0  0  0
  -29.2002  -15.3860   20.0662 N   0  0  0  0  0  0
  -23.8724  -18.8213   21.9071 N   0  3  0  0  0  0
  -23.9540  -14.8293   17.4544 F   0  0  0  0  0  0
  -31.4891  -12.5230   19.0700 H   0  0  0  0  0  0
  -30.6295  -11.2728   19.9215 H   0  0  0  0  0  0
  -29.8141  -11.3287   17.5707 H   0  0  0  0  0  0
  -29.5143  -13.0364   17.6521 H   0  0  0  0  0  0
  -27.9656  -10.7828   19.0909 H   0  0  0  0  0  0
  -27.3014  -11.9511   17.9812 H   0  0  0  0  0  0
  -28.0732  -13.3511   19.2741 H   0  0  0  0  0  0
  -28.9291  -11.7625   21.5348 H   0  0  0  0  0  0
  -28.5130  -13.4184   21.9181 H   0  0  0  0  0  0
  -25.2739   -9.7626   22.4860 H   0  0  0  0  0  0
  -24.0784   -7.6154   22.7228 H   0  0  0  0  0  0
  -21.1506   -8.9701   19.8766 H   0  0  0  0  0  0
  -22.3421  -11.1123   19.6525 H   0  0  0  0  0  0
  -21.2472   -7.6429   23.9733 H   0  0  0  0  0  0
  -21.1600   -6.0652   25.8945 H   0  0  0  0  0  0
  -22.0408   -2.7826   23.2609 H   0  0  0  0  0  0
  -22.7679  -12.3387   22.7314 H   0  0  0  0  0  0
  -21.2678  -13.0707   22.2534 H   0  0  0  0  0  0
  -25.4359  -17.4372   19.0448 H   0  0  0  0  0  0
  -26.9938  -16.8503   18.8901 H   0  0  0  0  0  0
  -26.7333  -32.5022   23.0828 H   0  0  0  0  0  0
  -25.0065  -33.9488   25.0163 H   0  0  0  0  0  0
  -22.7702  -31.3118   21.4017 H   0  0  0  0  0  0
  -23.3767  -35.9549   23.3244 H   0  0  0  0  0  0
  -24.3604  -36.8928   22.2069 H   0  0  0  0  0  0
  -23.7273  -37.6382   23.6745 H   0  0  0  0  0  0
  -26.2481  -31.3279   20.6657 H   0  0  0  0  0  0
  -26.8841  -30.6211   22.1041 H   0  0  0  0  0  0
  -27.8985  -28.3083   21.5584 H   0  0  0  0  0  0
  -25.6482  -25.8135   18.8614 H   0  0  0  0  0  0
  -23.9233  -27.5058   18.7338 H   0  0  0  0  0  0
  -23.8616  -30.6371   19.4100 H   0  0  0  0  0  0
  -22.7797  -29.3291   19.8012 H   0  0  0  0  0  0
  -25.1353  -36.1742   25.0775 H   0  0  0  0  0  0
  -21.0074  -28.3385   24.1299 H   0  0  0  0  0  0
  -20.5746  -26.2388   23.3648 H   0  0  0  0  0  0
  -21.6674  -26.7437   22.1173 H   0  0  0  0  0  0
  -19.6908  -25.6287   21.1286 H   0  0  0  0  0  0
  -19.6681  -27.3178   20.6753 H   0  0  0  0  0  0
  -17.4233  -26.6745   21.4036 H   0  0  0  0  0  0
  -18.0316  -26.0098   22.9040 H   0  0  0  0  0  0
  -19.7960  -30.7362   24.2184 H   0  0  0  0  0  0
  -17.5009  -31.6246   24.5189 H   0  0  0  0  0  0
  -15.5362  -30.2930   23.7684 H   0  0  0  0  0  0
  -15.8749  -28.0783   22.7063 H   0  0  0  0  0  0
  -24.5834  -30.7216   25.7624 H   0  0  0  0  0  0
  -24.8860  -32.3062   26.4621 H   0  0  0  0  0  0
  -25.7808  -30.9053   27.0246 H   0  0  0  0  0  0
  -26.3161  -29.6555   24.1497 H   0  0  0  0  0  0
  -27.3941  -29.7278   25.5205 H   0  0  0  0  0  0
  -27.9141  -30.4074   24.0023 H   0  0  0  0  0  0
  -27.2639  -33.3764   26.1883 H   0  0  0  0  0  0
  -28.3896  -32.6841   25.0308 H   0  0  0  0  0  0
  -28.0687  -31.8654   26.5525 H   0  0  0  0  0  0
  -28.2518  -38.0124   24.7525 H   0  0  0  0  0  0
  -28.1155  -36.2642   24.6213 H   0  0  0  0  0  0
  -27.2293  -37.1327   25.8837 H   0  0  0  0  0  0
  -20.9531  -29.8785   21.6688 H   0  0  0  0  0  0
  -26.0118  -38.2739   24.1403 H   0  0  0  0  0  0
  -23.0643  -16.6180   19.8546 H   0  0  0  0  0  0
  -27.0392  -14.3120   17.6078 H   0  0  0  0  0  0
  -25.6835  -22.8959   21.4360 H   0  0  0  0  0  0
  -25.6114  -24.6583   21.0535 H   0  0  0  0  0  0
  -27.1889  -17.0204   23.4065 H   0  0  0  0  0  0
  -28.3019  -17.6156   22.1697 H   0  0  0  0  0  0
  -28.4956  -15.9861   22.8353 H   0  0  0  0  0  0
  -24.3089  -22.2845   19.7791 H   0  0  0  0  0  0
  -23.5860  -21.5722   21.2242 H   0  0  0  0  0  0
  -23.9844  -20.5716   19.8088 H   0  0  0  0  0  0
  -29.5442  -16.3276   19.9476 H   0  0  0  0  0  0
  -23.1775  -18.1151   22.1378 H   0  0  0  0  0  0
  -23.5996  -19.7727   22.1225 H   0  0  0  0  0  0
  1 25  1  0  0  0
  1 30  2  0  0  0
  1 84  1  0  0  0
  2  3  1  0  0  0
  2 25  1  0  0  0
  2 87  1  0  0  0
  2 88  1  0  0  0
  3  4  1  0  0  0
  3 89  1  0  0  0
  3 90  1  0  0  0
  4  5  1  0  0  0
  4 91  1  0  0  0
  4 92  1  0  0  0
  5  6  1  0  0  0
  5 26  1  0  0  0
  5 93  1  0  0  0
  6 25  1  0  0  0
  6 94  1  0  0  0
  6 95  1  0  0  0
  7  8  2  0  0  0
  7 26  1  0  0  0
  7 29  1  0  0  0
  8  9  1  0  0  0
  8 22  1  0  0  0
  9 10  1  0  0  0
  9 27  2  0  0  0
 10 11  2  0  0  0
 10 15  1  0  0  0
 11 12  1  0  0  0
 11 96  1  0  0  0
 12 13  2  0  0  0
 12 97  1  0  0  0
 13 14  1  0  0  0
 13 31  1  0  0  0
 14 15  2  0  0  0
 14 98  1  0  0  0
 15 99  1  0  0  0
 16 17  2  0  0  0
 16 21  1  0  0  0
 16 31  1  0  0  0
 17 18  1  0  0  0
 17100  1  0  0  0
 18 19  2  0  0  0
 18101  1  0  0  0
 19 20  1  0  0  0
 19 24  1  0  0  0
 20 21  2  0  0  0
 20102  1  0  0  0
 21 23  1  0  0  0
 22 28  1  0  0  0
 22 32  2  0  0  0
 26 27  1  0  0  0
 28103  1  0  0  0
 28104  1  0  0  0
 29105  1  0  0  0
 29106  1  0  0  0
 33 34  1  0  0  0
 33 66  1  0  0  0
 33 70  2  0  0  0
 34 36  1  0  0  0
 34 59  1  0  0  0
 34107  1  0  0  0
 35 44  2  0  0  0
 35 45  1  0  0  0
 35 68  1  0  0  0
 36 56  1  0  0  0
 36108  1  0  0  0
 37 39  1  0  0  0
 37 47  1  0  0  0
 37 66  1  0  0  0
 37109  1  0  0  0
 38 43  2  0  0  0
 38 46  1  0  0  0
 38 47  1  0  0  0
 39 64  1  0  0  0
 39 67  2  0  0  0
 40 52  1  0  0  0
 40 53  2  0  0  0
 40 58  1  0  0  0
 41110  1  0  0  0
 41111  1  0  0  0
 41112  1  0  0  0
 41 48  1  0  0  0
 42 43  1  0  0  0
 42 66  1  0  0  0
 42113  1  0  0  0
 42114  1  0  0  0
 43 44  1  0  0  0
 44115  1  0  0  0
 45 46  2  0  0  0
 45116  1  0  0  0
 46117  1  0  0  0
 47118  1  0  0  0
 47119  1  0  0  0
 48 56  1  0  0  0
 48 65  1  0  0  0
 48120  1  0  0  0
 49 50  1  0  0  0
 49 53  1  0  0  0
 49 64  1  0  0  0
 49121  1  0  0  0
 50 51  1  0  0  0
 50122  1  0  0  0
 50123  1  0  0  0
 51 52  1  0  0  0
 51124  1  0  0  0
 51125  1  0  0  0
 52126  1  0  0  0
 52127  1  0  0  0
 53 54  1  0  0  0
 54 55  2  0  0  0
 54128  1  0  0  0
 55 57  1  0  0  0
 55129  1  0  0  0
 56 69  2  0  0  0
 57 58  2  0  0  0
 57130  1  0  0  0
 58131  1  0  0  0
 59 60  1  0  0  0
 59 61  1  0  0  0
 59 62  1  0  0  0
 60132  1  0  0  0
 60133  1  0  0  0
 60134  1  0  0  0
 61135  1  0  0  0
 61136  1  0  0  0
 61137  1  0  0  0
 62138  1  0  0  0
 62139  1  0  0  0
 62140  1  0  0  0
 63 65  1  0  0  0
 63141  1  0  0  0
 63142  1  0  0  0
 63143  1  0  0  0
 64144  1  0  0  0
 65145  1  0  0  0
 68 78  1  0  0  0
 71 73  2  0  0  0
 71 76  1  0  0  0
 71146  1  0  0  0
 72 75  1  0  0  0
 72 76  2  0  0  0
 72147  1  0  0  0
 73 74  1  0  0  0
 73 79  1  0  0  0
 74 75  2  0  0  0
 74 81  1  0  0  0
 75 84  1  0  0  0
 76 86  1  0  0  0
 77 78  2  0  0  0
 77 80  1  0  0  0
 77148  1  0  0  0
 78149  1  0  0  0
 79 83  1  0  0  0
 79 85  2  0  0  0
 80 82  1  0  0  0
 80 83  2  0  0  0
 81150  1  0  0  0
 81151  1  0  0  0
 81152  1  0  0  0
 82153  1  0  0  0
 82154  1  0  0  0
 82155  1  0  0  0
 84156  1  0  0  0
 85157  1  0  0  0
 85158  1  0  0  0
M  CHG  1  85   1
M  ISO  4   1 100  68 101  78 101  84 100
M  END
> <chiral flag>
0

> <version>
0

> <s_m_source_file>
/data/baiqing/PycharmProjects/Reinvent-master-3.2/result/LINK_invent/BTK/process_docking_weight1_custom_product_contain_oxygen_bond_distance_aromatic_linkinvent_7_9_3/rearranged_h_0052.sdf

> <i_m_source_file_index>
45

> <r_mmod_Potential_Energy-OPLS-2005>
11130.177734375

> <r_mmod_Stretch_Energy-OPLS-2005>
6421.302734375

> <r_mmod_Bend_Energy-OPLS-2005>
881.873046875

> <r_mmod_Torsional_Energy-OPLS-2005>
467.301971435547

> <r_mmod_Improper_Torsional_Energy-OPLS-2005>
55.3363838195801

> <r_mmod_Van_der_Waal_Energy-OPLS-2005>
2874.23583984375

> <r_mmod_Electrostatic_Energy-OPLS-2005>
-247.966033935547

> <r_mmod_Solvation_Energy-OPLS-2005>
-447.475830078125

> <b_mmod_Minimization_Converged-OPLS-2005>
0

> <r_mmod_RMS_Derivative-OPLS-2005>
6.9056077003479

$$$$
45
                    3D
 Structure written by MMmdl.
160168  0  0  1  0            999 V2000
  -30.6905  -14.5210   20.4561 C   0  0  0  0  0  0
  -30.4191  -12.3131   19.4257 C   0  0  0  0  0  0
  -29.4899  -12.4772   18.2042 C   0  0  0  0  0  0
  -28.0132  -12.3408   18.6214 C   0  0  0  0  0  0
  -27.6522  -13.2109   19.8540 C   0  0  2  0  0  0
  -28.7001  -13.0563   20.9791 C   0  0  0  0  0  0
  -25.2566  -13.8192   20.5678 C   0  0  0  0  0  0
  -24.1834  -13.0467   20.9201 C   0  0  0  0  0  0
  -24.6387  -11.6937   20.8761 C   0  0  0  0  0  0
  -23.9054  -10.4328   21.0444 C   0  0  0  0  0  0
  -24.3614   -9.4236   21.9206 C   0  0  0  0  0  0
  -23.6309   -8.2253   22.0754 C   0  0  0  0  0  0
  -22.4278   -8.0293   21.3555 C   0  0  0  0  0  0
  -21.9935   -9.0273   20.4635 C   0  0  0  0  0  0
  -22.7254  -10.2160   20.3065 C   0  0  0  0  0  0
  -21.6850   -6.0735   22.5291 C   0  0  0  0  0  0
  -21.4003   -6.5650   23.8217 C   0  0  0  0  0  0
  -21.3663   -5.6809   24.9192 C   0  0  0  0  0  0
  -21.6049   -4.3065   24.7238 C   0  0  0  0  0  0
  -21.8829   -3.8158   23.4356 C   0  0  0  0  0  0
  -21.9198   -4.6967   22.3419 C   0  0  0  0  0  0
  -22.7861  -13.5250   21.1895 C   0  0  0  0  0  0
  -22.1687   -4.2153   21.1003 F   0  0  0  0  0  0
  -21.5636   -3.4546   25.7757 F   0  0  0  0  0  0
  -30.0246  -13.3360   20.4049 N   0  0  0  0  0  0
  -26.2982  -12.9360   20.3293 N   0  0  0  0  0  0
  -25.9304  -11.6515   20.5758 N   0  0  0  0  0  0
  -22.0530  -12.8188   22.0409 N   0  0  0  0  0  0
  -25.4322  -15.1916   20.4071 N   0  0  0  0  0  0
  -31.8978  -14.6015   20.2310 O   0  0  0  0  0  0
  -21.6664   -6.8877   21.4249 O   0  0  0  0  0  0
  -22.3527  -14.5572   20.6774 O   0  0  0  0  0  0
  -24.6152  -31.8664   23.2060 C   0  0  0  0  0  0
  -25.9036  -32.4809   23.8384 C   0  0  1  0  0  0
  -27.2334  -27.4142   20.1015 C   0  0  0  0  0  0
  -25.5867  -33.8615   24.2308 N   0  0  0  0  0  0
  -23.4046  -30.4869   21.5496 C   0  0  2  0  0  0
  -24.8550  -28.9562   20.1117 C   0  0  0  0  0  0
  -22.7419  -29.4651   22.5005 C   0  0  0  0  0  0
  -18.0251  -28.1364   22.8473 C   0  0  0  0  0  0
  -24.1479  -36.7359   23.2638 C   0  0  0  0  0  0
  -25.9339  -30.8269   21.3607 C   0  0  0  0  0  0
  -26.0153  -29.4589   20.7107 C   0  0  0  0  0  0
  -27.2110  -28.6974   20.6986 C   0  0  0  0  0  0
  -26.0571  -26.9425   19.4764 C   0  0  0  0  0  0
  -24.8727  -27.6985   19.4843 C   0  0  0  0  0  0
  -23.6118  -29.8175   20.1647 C   0  0  0  0  0  0
  -25.4088  -36.3128   24.0325 C   0  0  1  0  0  0
  -20.5852  -28.3659   23.1313 C   0  0  2  0  0  0
  -20.6749  -26.9391   22.5422 C   0  0  0  0  0  0
  -19.5732  -26.6383   21.5210 C   0  0  0  0  0  0
  -18.1917  -26.7905   22.1621 C   0  0  0  0  0  0
  -19.1504  -28.8827   23.2881 C   0  0  0  0  0  0
  -18.9433  -30.1440   23.8891 C   0  0  0  0  0  0
  -17.6443  -30.6575   24.0567 C   0  0  0  0  0  0
  -25.9018  -34.9481   23.5131 C   0  0  0  0  0  0
  -16.5325  -29.9082   23.6321 C   0  0  0  0  0  0
  -16.7247  -28.6496   23.0326 C   0  0  0  0  0  0
  -26.4437  -31.6577   25.0724 C   0  0  0  0  0  0
  -25.3691  -31.3687   26.1471 C   0  0  0  0  0  0
  -27.0257  -30.3006   24.6131 C   0  0  0  0  0  0
  -27.6010  -32.4278   25.7504 C   0  0  0  0  0  0
  -27.5569  -37.1819   24.8447 C   0  0  0  0  0  0
  -21.4142  -29.3046   22.3752 N   0  0  0  0  0  0
  -26.4282  -37.3805   23.9391 N   0  0  0  0  0  0
  -24.6699  -31.0759   22.0973 N   0  0  0  0  0  0
  -23.4182  -28.8189   23.3048 O   0  0  0  0  0  0
  -28.3817  -26.6412   20.1053 O   0  0  0  0  0  0
  -26.5642  -34.8934   22.4732 O   0  0  0  0  0  0
  -23.5337  -32.1424   23.7435 O   0  0  0  0  0  0
  -30.6788  -19.7145   19.4219 C   0  0  0  0  0  0
  -31.2532  -18.6819   18.6686 C   0  0  0  0  0  0
  -29.6070  -18.0489   20.8375 C   0  0  0  0  0  0
  -29.8081  -19.4147   20.4874 C   0  0  0  0  0  0
  -30.9827  -17.3276   18.9549 C   0  0  0  0  0  0
  -30.2074  -16.9825   20.1067 C   0  0  0  0  0  0
  -29.4703  -23.0369   21.0614 C   0  0  0  0  0  0
  -31.4837  -16.3247   17.9250 C   0  0  0  0  0  0
  -28.1983  -21.8283   19.3180 C   0  0  0  0  0  0
  -29.1021  -20.5531   21.2541 C   0  0  0  0  0  0
  -29.4273  -24.3554   20.2380 C   0  0  0  0  0  0
  -28.2174  -25.2731   20.5561 C   0  0  0  0  0  0
  -29.9077  -15.6260   20.5108 N   0  0  0  0  0  0
  -28.9853  -21.8671   20.5551 N   0  0  0  0  0  0
  -30.0006  -23.0851   22.1756 O   0  0  0  0  0  0
  -31.4608  -12.4079   19.1150 H   0  0  0  0  0  0
  -30.3234  -11.3158   19.8602 H   0  0  0  0  0  0
  -29.7303  -11.7389   17.4370 H   0  0  0  0  0  0
  -29.6450  -13.4533   17.7435 H   0  0  0  0  0  0
  -27.8325  -11.2897   18.8461 H   0  0  0  0  0  0
  -27.3572  -12.5850   17.7854 H   0  0  0  0  0  0
  -27.6757  -14.2442   19.5088 H   0  0  0  0  0  0
  -28.6773  -12.0434   21.3860 H   0  0  0  0  0  0
  -28.4760  -13.7219   21.8137 H   0  0  0  0  0  0
  -25.2776   -9.5708   22.4753 H   0  0  0  0  0  0
  -24.0054   -7.4635   22.7441 H   0  0  0  0  0  0
  -21.0899   -8.8764   19.8920 H   0  0  0  0  0  0
  -22.3735  -10.9679   19.6151 H   0  0  0  0  0  0
  -21.1977   -7.6151   23.9715 H   0  0  0  0  0  0
  -21.1483   -6.0551   25.9095 H   0  0  0  0  0  0
  -22.0594   -2.7611   23.2875 H   0  0  0  0  0  0
  -22.4204  -11.9829   22.4712 H   0  0  0  0  0  0
  -21.1119  -13.1133   22.2622 H   0  0  0  0  0  0
  -24.6700  -15.8526   20.5066 H   0  0  0  0  0  0
  -26.2794  -15.6229   20.0610 H   0  0  0  0  0  0
  -26.7120  -32.5530   23.1162 H   0  0  0  0  0  0
  -24.9868  -33.9745   25.0352 H   0  0  0  0  0  0
  -22.6912  -31.3012   21.4089 H   0  0  0  0  0  0
  -23.3723  -35.9722   23.3295 H   0  0  0  0  0  0
  -24.3564  -36.8985   22.2052 H   0  0  0  0  0  0
  -23.7249  -37.6557   23.6674 H   0  0  0  0  0  0
  -26.0399  -31.5841   20.5821 H   0  0  0  0  0  0
  -26.8231  -30.8872   21.9765 H   0  0  0  0  0  0
  -28.1091  -29.0890   21.1584 H   0  0  0  0  0  0
  -26.0472  -25.9943   18.9618 H   0  0  0  0  0  0
  -23.9891  -27.3083   18.9953 H   0  0  0  0  0  0
  -23.7030  -30.5878   19.3981 H   0  0  0  0  0  0
  -22.7383  -29.2260   19.8840 H   0  0  0  0  0  0
  -25.1256  -36.1999   25.0818 H   0  0  0  0  0  0
  -20.9891  -28.3236   24.1455 H   0  0  0  0  0  0
  -20.5627  -26.2282   23.3612 H   0  0  0  0  0  0
  -21.6618  -26.7430   22.1231 H   0  0  0  0  0  0
  -19.6898  -25.6297   21.1229 H   0  0  0  0  0  0
  -19.6666  -27.3205   20.6741 H   0  0  0  0  0  0
  -17.4165  -26.6615   21.4044 H   0  0  0  0  0  0
  -18.0324  -26.0067   22.9033 H   0  0  0  0  0  0
  -19.7912  -30.7250   24.2268 H   0  0  0  0  0  0
  -17.4991  -31.6252   24.5181 H   0  0  0  0  0  0
  -15.5313  -30.2984   23.7650 H   0  0  0  0  0  0
  -15.8641  -28.0834   22.7024 H   0  0  0  0  0  0
  -24.5870  -30.7018   25.7811 H   0  0  0  0  0  0
  -24.8868  -32.2830   26.4943 H   0  0  0  0  0  0
  -25.8029  -30.8841   27.0233 H   0  0  0  0  0  0
  -26.2819  -29.6786   24.1141 H   0  0  0  0  0  0
  -27.3920  -29.7221   25.4625 H   0  0  0  0  0  0
  -27.8702  -30.4280   23.9363 H   0  0  0  0  0  0
  -27.2632  -33.3561   26.2141 H   0  0  0  0  0  0
  -28.3812  -32.6851   25.0324 H   0  0  0  0  0  0
  -28.0713  -31.8366   26.5373 H   0  0  0  0  0  0
  -28.2576  -38.0127   24.7498 H   0  0  0  0  0  0
  -28.1064  -36.2646   24.6263 H   0  0  0  0  0  0
  -27.2293  -37.1464   25.8854 H   0  0  0  0  0  0
  -20.9306  -29.8828   21.7016 H   0  0  0  0  0  0
  -26.0180  -38.2885   24.1401 H   0  0  0  0  0  0
  -30.8815  -20.7379   19.1416 H   0  0  0  0  0  0
  -31.8709  -18.9442   17.8199 H   0  0  0  0  0  0
  -28.9609  -17.8131   21.6731 H   0  0  0  0  0  0
  -31.5381  -16.7855   16.9382 H   0  0  0  0  0  0
  -30.8044  -15.4807   17.8264 H   0  0  0  0  0  0
  -32.4824  -15.9670   18.1768 H   0  0  0  0  0  0
  -27.3726  -22.5390   19.3473 H   0  0  0  0  0  0
  -27.7590  -20.8436   19.1536 H   0  0  0  0  0  0
  -28.8226  -22.0526   18.4516 H   0  0  0  0  0  0
  -29.6067  -20.6586   22.2152 H   0  0  0  0  0  0
  -28.0916  -20.2255   21.5033 H   0  0  0  0  0  0
  -29.4989  -24.1569   19.1704 H   0  0  0  0  0  0
  -30.3371  -24.9018   20.4821 H   0  0  0  0  0  0
  -28.0381  -25.2972   21.6308 H   0  0  0  0  0  0
  -27.3435  -24.7935   20.1208 H   0  0  0  0  0  0
  -28.9636  -15.4568   20.8215 H   0  0  0  0  0  0
  1 25  1  0  0  0
  1 30  2  0  0  0
  1 83  1  0  0  0
  2  3  1  0  0  0
  2 25  1  0  0  0
  2 86  1  0  0  0
  2 87  1  0  0  0
  3  4  1  0  0  0
  3 88  1  0  0  0
  3 89  1  0  0  0
  4  5  1  0  0  0
  4 90  1  0  0  0
  4 91  1  0  0  0
  5  6  1  0  0  0
  5 26  1  0  0  0
  5 92  1  0  0  0
  6 25  1  0  0  0
  6 93  1  0  0  0
  6 94  1  0  0  0
  7  8  2  0  0  0
  7 26  1  0  0  0
  7 29  1  0  0  0
  8  9  1  0  0  0
  8 22  1  0  0  0
  9 10  1  0  0  0
  9 27  2  0  0  0
 10 11  2  0  0  0
 10 15  1  0  0  0
 11 12  1  0  0  0
 11 95  1  0  0  0
 12 13  2  0  0  0
 12 96  1  0  0  0
 13 14  1  0  0  0
 13 31  1  0  0  0
 14 15  2  0  0  0
 14 97  1  0  0  0
 15 98  1  0  0  0
 16 17  2  0  0  0
 16 21  1  0  0  0
 16 31  1  0  0  0
 17 18  1  0  0  0
 17 99  1  0  0  0
 18 19  2  0  0  0
 18100  1  0  0  0
 19 20  1  0  0  0
 19 24  1  0  0  0
 20 21  2  0  0  0
 20101  1  0  0  0
 21 23  1  0  0  0
 22 28  1  0  0  0
 22 32  2  0  0  0
 26 27  1  0  0  0
 28102  1  0  0  0
 28103  1  0  0  0
 29104  1  0  0  0
 29105  1  0  0  0
 33 34  1  0  0  0
 33 66  1  0  0  0
 33 70  2  0  0  0
 34 36  1  0  0  0
 34 59  1  0  0  0
 34106  1  0  0  0
 35 44  2  0  0  0
 35 45  1  0  0  0
 35 68  1  0  0  0
 36 56  1  0  0  0
 36107  1  0  0  0
 37 39  1  0  0  0
 37 47  1  0  0  0
 37 66  1  0  0  0
 37108  1  0  0  0
 38 43  2  0  0  0
 38 46  1  0  0  0
 38 47  1  0  0  0
 39 64  1  0  0  0
 39 67  2  0  0  0
 40 52  1  0  0  0
 40 53  2  0  0  0
 40 58  1  0  0  0
 41109  1  0  0  0
 41110  1  0  0  0
 41111  1  0  0  0
 41 48  1  0  0  0
 42 43  1  0  0  0
 42 66  1  0  0  0
 42112  1  0  0  0
 42113  1  0  0  0
 43 44  1  0  0  0
 44114  1  0  0  0
 45 46  2  0  0  0
 45115  1  0  0  0
 46116  1  0  0  0
 47117  1  0  0  0
 47118  1  0  0  0
 48 56  1  0  0  0
 48 65  1  0  0  0
 48119  1  0  0  0
 49 50  1  0  0  0
 49 53  1  0  0  0
 49 64  1  0  0  0
 49120  1  0  0  0
 50 51  1  0  0  0
 50121  1  0  0  0
 50122  1  0  0  0
 51 52  1  0  0  0
 51123  1  0  0  0
 51124  1  0  0  0
 52125  1  0  0  0
 52126  1  0  0  0
 53 54  1  0  0  0
 54 55  2  0  0  0
 54127  1  0  0  0
 55 57  1  0  0  0
 55128  1  0  0  0
 56 69  2  0  0  0
 57 58  2  0  0  0
 57129  1  0  0  0
 58130  1  0  0  0
 59 60  1  0  0  0
 59 61  1  0  0  0
 59 62  1  0  0  0
 60131  1  0  0  0
 60132  1  0  0  0
 60133  1  0  0  0
 61134  1  0  0  0
 61135  1  0  0  0
 61136  1  0  0  0
 62137  1  0  0  0
 62138  1  0  0  0
 62139  1  0  0  0
 63 65  1  0  0  0
 63140  1  0  0  0
 63141  1  0  0  0
 63142  1  0  0  0
 64143  1  0  0  0
 65144  1  0  0  0
 68 82  1  0  0  0
 71 72  2  0  0  0
 71 74  1  0  0  0
 71145  1  0  0  0
 72 75  1  0  0  0
 72146  1  0  0  0
 73 74  2  0  0  0
 73 76  1  0  0  0
 73147  1  0  0  0
 74 80  1  0  0  0
 75 76  2  0  0  0
 75 78  1  0  0  0
 76 83  1  0  0  0
 77 81  1  0  0  0
 77 84  1  0  0  0
 77 85  2  0  0  0
 78148  1  0  0  0
 78149  1  0  0  0
 78150  1  0  0  0
 79 84  1  0  0  0
 79151  1  0  0  0
 79152  1  0  0  0
 79153  1  0  0  0
 80 84  1  0  0  0
 80154  1  0  0  0
 80155  1  0  0  0
 81 82  1  0  0  0
 81156  1  0  0  0
 81157  1  0  0  0
 82158  1  0  0  0
 82159  1  0  0  0
 83160  1  0  0  0
M  ISO  4   1 100  68 101  82 101  83 100
M  END
> <chiral flag>
0

> <version>
0

> <s_m_source_file>
/data/baiqing/PycharmProjects/Reinvent-master-3.2/result/LINK_invent/BTK/process_docking_weight1_custom_product_contain_oxygen_bond_distance_aromatic_linkinvent_7_9_3/rearranged_h_0052.sdf

> <i_m_source_file_index>
46

> <r_mmod_Potential_Energy-OPLS-2005>
-20.8732833862305

> <r_mmod_Stretch_Energy-OPLS-2005>
49.3149871826172

> <r_mmod_Bend_Energy-OPLS-2005>
106.636169433594

> <r_mmod_Torsional_Energy-OPLS-2005>
264.775054931641

> <r_mmod_Improper_Torsional_Energy-OPLS-2005>
6.78901338577271

> <r_mmod_Van_der_Waal_Energy-OPLS-2005>
161.430252075195

> <r_mmod_Electrostatic_Energy-OPLS-2005>
-407.017272949219

> <r_mmod_Solvation_Energy-OPLS-2005>
-229.301544189453

> <b_mmod_Minimization_Converged-OPLS-2005>
0

> <r_mmod_RMS_Derivative-OPLS-2005>
3.55200004577637

$$$$
46
                    3D
 Structure written by MMmdl.
160168  0  0  1  0            999 V2000
  -30.5539  -14.7726   20.4656 C   0  0  0  0  0  0
  -30.4409  -12.4726   19.4732 C   0  0  0  0  0  0
  -29.5109  -12.5133   18.2369 C   0  0  0  0  0  0
  -28.0353  -12.3370   18.6520 C   0  0  0  0  0  0
  -27.6401  -13.2309   19.8532 C   0  0  2  0  0  0
  -28.6817  -13.1406   20.9894 C   0  0  0  0  0  0
  -25.2476  -13.8211   20.5656 C   0  0  0  0  0  0
  -24.1805  -13.0454   20.9242 C   0  0  0  0  0  0
  -24.6385  -11.6923   20.8734 C   0  0  0  0  0  0
  -23.9057  -10.4290   21.0372 C   0  0  0  0  0  0
  -24.3634   -9.4182   21.9117 C   0  0  0  0  0  0
  -23.6311   -8.2230   22.0702 C   0  0  0  0  0  0
  -22.4276   -8.0269   21.3525 C   0  0  0  0  0  0
  -21.9897   -9.0215   20.4613 C   0  0  0  0  0  0
  -22.7202  -10.2115   20.3043 C   0  0  0  0  0  0
  -21.6854   -6.0745   22.5291 C   0  0  0  0  0  0
  -21.4015   -6.5655   23.8214 C   0  0  0  0  0  0
  -21.3668   -5.6809   24.9171 C   0  0  0  0  0  0
  -21.6045   -4.3075   24.7220 C   0  0  0  0  0  0
  -21.8804   -3.8157   23.4353 C   0  0  0  0  0  0
  -21.9197   -4.6981   22.3405 C   0  0  0  0  0  0
  -22.7816  -13.5163   21.1951 C   0  0  0  0  0  0
  -22.1674   -4.2179   21.0972 F   0  0  0  0  0  0
  -21.5627   -3.4589   25.7745 F   0  0  0  0  0  0
  -29.9826  -13.5182   20.4176 N   0  0  0  0  0  0
  -26.2910  -12.9420   20.3273 N   0  0  0  0  0  0
  -25.9286  -11.6552   20.5673 N   0  0  0  0  0  0
  -22.0544  -12.8093   22.0529 N   0  0  0  0  0  0
  -25.4097  -15.1933   20.3944 N   0  0  0  0  0  0
  -31.7356  -14.9253   20.1368 O   0  0  0  0  0  0
  -21.6631   -6.8879   21.4244 O   0  0  0  0  0  0
  -22.3427  -14.5436   20.6822 O   0  0  0  0  0  0
  -24.6348  -31.8547   23.1988 C   0  0  0  0  0  0
  -25.9158  -32.4759   23.8340 C   0  0  1  0  0  0
  -27.2035  -27.2272   20.1218 C   0  0  0  0  0  0
  -25.5940  -33.8564   24.2253 N   0  0  0  0  0  0
  -23.4323  -30.4800   21.5455 C   0  0  2  0  0  0
  -24.8776  -28.9341   20.1069 C   0  0  0  0  0  0
  -22.7519  -29.4588   22.4916 C   0  0  0  0  0  0
  -18.0298  -28.1383   22.8490 C   0  0  0  0  0  0
  -24.1489  -36.7274   23.2638 C   0  0  0  0  0  0
  -25.9834  -30.7567   21.3873 C   0  0  0  0  0  0
  -26.0536  -29.3799   20.7229 C   0  0  0  0  0  0
  -27.2208  -28.5394   20.7223 C   0  0  0  0  0  0
  -26.0065  -26.8780   19.4527 C   0  0  0  0  0  0
  -24.8624  -27.6939   19.4603 C   0  0  0  0  0  0
  -23.6525  -29.8259   20.1582 C   0  0  0  0  0  0
  -25.4120  -36.3075   24.0326 C   0  0  1  0  0  0
  -20.5906  -28.3699   23.1260 C   0  0  2  0  0  0
  -20.6783  -26.9417   22.5405 C   0  0  0  0  0  0
  -19.5747  -26.6382   21.5213 C   0  0  0  0  0  0
  -18.1933  -26.7926   22.1632 C   0  0  0  0  0  0
  -19.1555  -28.8859   23.2868 C   0  0  0  0  0  0
  -18.9467  -30.1460   23.8893 C   0  0  0  0  0  0
  -17.6462  -30.6587   24.0563 C   0  0  0  0  0  0
  -25.9064  -34.9443   23.5093 C   0  0  0  0  0  0
  -16.5358  -29.9077   23.6334 C   0  0  0  0  0  0
  -16.7280  -28.6492   23.0361 C   0  0  0  0  0  0
  -26.4507  -31.6586   25.0735 C   0  0  0  0  0  0
  -25.3694  -31.3731   26.1421 C   0  0  0  0  0  0
  -27.0368  -30.3003   24.6240 C   0  0  0  0  0  0
  -27.6057  -32.4334   25.7510 C   0  0  0  0  0  0
  -27.5579  -37.1803   24.8472 C   0  0  0  0  0  0
  -21.4228  -29.3047   22.3659 N   0  0  0  0  0  0
  -26.4290  -37.3778   23.9411 N   0  0  0  0  0  0
  -24.7032  -31.0472   22.1003 N   0  0  0  0  0  0
  -23.4203  -28.8129   23.3023 O   0  0  0  0  0  0
  -28.2569  -26.2704   20.1985 O   0  0  0  0  0  0
  -26.5636  -34.8920   22.4664 O   0  0  0  0  0  0
  -23.5492  -32.1402   23.7247 O   0  0  0  0  0  0
  -27.7635  -17.4334   22.0085 C   0  0  0  0  0  0
  -26.7471  -17.9135   22.8280 C   0  0  0  0  0  0
  -28.6791  -18.2708   21.3139 C   0  0  0  0  0  0
  -28.4672  -19.7535   21.4103 C   0  0  0  0  0  0
  -27.4975  -20.1868   22.3926 C   0  0  0  0  0  0
  -26.6446  -19.2769   23.0536 C   0  0  0  0  0  0
  -28.8978  -23.6075   20.3837 C   0  0  0  0  0  0
  -26.1034  -22.3463   22.3235 C   0  0  0  0  0  0
  -27.3429  -21.6252   22.8886 C   0  0  0  0  0  0
  -29.8097  -17.3912   20.5921 C   0  0  0  0  0  0
  -29.2094  -20.9212   20.5865 C   0  0  0  0  0  0
  -27.9074  -24.8088   19.9488 C   0  0  0  0  0  0
  -28.5176  -22.2680   20.2570 N   0  0  0  0  0  0
  -29.7048  -15.8492   20.6851 N   0  0  0  0  0  0
  -30.0079  -23.8949   20.8333 O   0  0  0  0  0  0
  -25.7133  -19.7116   23.9381 F   0  0  0  0  0  0
  -31.4746  -12.6273   19.1611 H   0  0  0  0  0  0
  -30.4118  -11.4911   19.9516 H   0  0  0  0  0  0
  -29.7927  -11.7393   17.5227 H   0  0  0  0  0  0
  -29.6346  -13.4655   17.7154 H   0  0  0  0  0  0
  -27.8940  -11.2886   18.9181 H   0  0  0  0  0  0
  -27.3720  -12.5302   17.8075 H   0  0  0  0  0  0
  -27.6386  -14.2538   19.4752 H   0  0  0  0  0  0
  -28.7141  -12.1302   21.3981 H   0  0  0  0  0  0
  -28.4079  -13.7962   21.8169 H   0  0  0  0  0  0
  -25.2762   -9.5656   22.4700 H   0  0  0  0  0  0
  -24.0051   -7.4616   22.7428 H   0  0  0  0  0  0
  -21.0831   -8.8671   19.8926 H   0  0  0  0  0  0
  -22.3611  -10.9632   19.6169 H   0  0  0  0  0  0
  -21.2013   -7.6165   23.9736 H   0  0  0  0  0  0
  -21.1511   -6.0548   25.9090 H   0  0  0  0  0  0
  -22.0577   -2.7620   23.2826 H   0  0  0  0  0  0
  -22.4280  -11.9779   22.4865 H   0  0  0  0  0  0
  -21.1110  -13.0942   22.2705 H   0  0  0  0  0  0
  -24.6302  -15.8356   20.4769 H   0  0  0  0  0  0
  -26.2392  -15.6311   20.0183 H   0  0  0  0  0  0
  -26.7223  -32.5405   23.1078 H   0  0  0  0  0  0
  -25.0094  -33.9714   25.0402 H   0  0  0  0  0  0
  -22.7307  -31.3054   21.4034 H   0  0  0  0  0  0
  -23.3762  -35.9597   23.3311 H   0  0  0  0  0  0
  -24.3571  -36.8886   22.2050 H   0  0  0  0  0  0
  -23.7230  -37.6470   23.6661 H   0  0  0  0  0  0
  -26.1325  -31.5214   20.6229 H   0  0  0  0  0  0
  -26.8533  -30.7990   22.0303 H   0  0  0  0  0  0
  -28.1154  -28.8717   21.2315 H   0  0  0  0  0  0
  -25.9070  -25.9433   18.9222 H   0  0  0  0  0  0
  -23.9672  -27.3523   18.9589 H   0  0  0  0  0  0
  -23.7890  -30.6086   19.4107 H   0  0  0  0  0  0
  -22.7665  -29.2702   19.8444 H   0  0  0  0  0  0
  -25.1307  -36.1928   25.0820 H   0  0  0  0  0  0
  -21.0002  -28.3278   24.1374 H   0  0  0  0  0  0
  -20.5695  -26.2312   23.3618 H   0  0  0  0  0  0
  -21.6647  -26.7451   22.1189 H   0  0  0  0  0  0
  -19.6910  -25.6288   21.1245 H   0  0  0  0  0  0
  -19.6665  -27.3198   20.6743 H   0  0  0  0  0  0
  -17.4206  -26.6686   21.4032 H   0  0  0  0  0  0
  -18.0324  -26.0066   22.9023 H   0  0  0  0  0  0
  -19.7943  -30.7277   24.2265 H   0  0  0  0  0  0
  -17.5012  -31.6266   24.5163 H   0  0  0  0  0  0
  -15.5355  -30.2970   23.7646 H   0  0  0  0  0  0
  -15.8685  -28.0795   22.7083 H   0  0  0  0  0  0
  -24.5912  -30.7039   25.7722 H   0  0  0  0  0  0
  -24.8827  -32.2894   26.4775 H   0  0  0  0  0  0
  -25.7974  -30.8953   27.0241 H   0  0  0  0  0  0
  -26.2970  -29.6735   24.1243 H   0  0  0  0  0  0
  -27.4022  -29.7283   25.4777 H   0  0  0  0  0  0
  -27.8865  -30.4275   23.9527 H   0  0  0  0  0  0
  -27.2672  -33.3666   26.2027 H   0  0  0  0  0  0
  -28.3893  -32.6834   25.0342 H   0  0  0  0  0  0
  -28.0693  -31.8487   26.5467 H   0  0  0  0  0  0
  -28.2606  -38.0090   24.7522 H   0  0  0  0  0  0
  -28.1066  -36.2626   24.6308 H   0  0  0  0  0  0
  -27.2294  -37.1464   25.8871 H   0  0  0  0  0  0
  -20.9422  -29.8786   21.6877 H   0  0  0  0  0  0
  -26.0172  -38.2859   24.1389 H   0  0  0  0  0  0
  -27.8048  -16.3582   21.9772 H   0  0  0  0  0  0
  -26.0903  -17.2222   23.3350 H   0  0  0  0  0  0
  -25.1831  -21.8262   22.5885 H   0  0  0  0  0  0
  -26.1156  -22.4038   21.2385 H   0  0  0  0  0  0
  -26.0302  -23.3623   22.7134 H   0  0  0  0  0  0
  -28.2564  -22.1987   22.7612 H   0  0  0  0  0  0
  -27.2416  -21.5909   23.9748 H   0  0  0  0  0  0
  -30.7767  -17.6880   21.0019 H   0  0  0  0  0  0
  -29.8223  -17.6694   19.5387 H   0  0  0  0  0  0
  -29.4873  -20.4839   19.6270 H   0  0  0  0  0  0
  -30.1523  -21.1317   21.0929 H   0  0  0  0  0  0
  -26.9573  -24.5927   20.4375 H   0  0  0  0  0  0
  -27.7407  -24.6889   18.8775 H   0  0  0  0  0  0
  -27.5990  -22.1437   19.8521 H   0  0  0  0  0  0
  -28.7718  -15.5364   20.9001 H   0  0  0  0  0  0
  1 25  1  0  0  0
  1 30  2  0  0  0
  1 84  1  0  0  0
  2  3  1  0  0  0
  2 25  1  0  0  0
  2 87  1  0  0  0
  2 88  1  0  0  0
  3  4  1  0  0  0
  3 89  1  0  0  0
  3 90  1  0  0  0
  4  5  1  0  0  0
  4 91  1  0  0  0
  4 92  1  0  0  0
  5  6  1  0  0  0
  5 26  1  0  0  0
  5 93  1  0  0  0
  6 25  1  0  0  0
  6 94  1  0  0  0
  6 95  1  0  0  0
  7  8  2  0  0  0
  7 26  1  0  0  0
  7 29  1  0  0  0
  8  9  1  0  0  0
  8 22  1  0  0  0
  9 10  1  0  0  0
  9 27  2  0  0  0
 10 11  2  0  0  0
 10 15  1  0  0  0
 11 12  1  0  0  0
 11 96  1  0  0  0
 12 13  2  0  0  0
 12 97  1  0  0  0
 13 14  1  0  0  0
 13 31  1  0  0  0
 14 15  2  0  0  0
 14 98  1  0  0  0
 15 99  1  0  0  0
 16 17  2  0  0  0
 16 21  1  0  0  0
 16 31  1  0  0  0
 17 18  1  0  0  0
 17100  1  0  0  0
 18 19  2  0  0  0
 18101  1  0  0  0
 19 20  1  0  0  0
 19 24  1  0  0  0
 20 21  2  0  0  0
 20102  1  0  0  0
 21 23  1  0  0  0
 22 28  1  0  0  0
 22 32  2  0  0  0
 26 27  1  0  0  0
 28103  1  0  0  0
 28104  1  0  0  0
 29105  1  0  0  0
 29106  1  0  0  0
 33 34  1  0  0  0
 33 66  1  0  0  0
 33 70  2  0  0  0
 34 36  1  0  0  0
 34 59  1  0  0  0
 34107  1  0  0  0
 35 44  2  0  0  0
 35 45  1  0  0  0
 35 68  1  0  0  0
 36 56  1  0  0  0
 36108  1  0  0  0
 37 39  1  0  0  0
 37 47  1  0  0  0
 37 66  1  0  0  0
 37109  1  0  0  0
 38 43  2  0  0  0
 38 46  1  0  0  0
 38 47  1  0  0  0
 39 64  1  0  0  0
 39 67  2  0  0  0
 40 52  1  0  0  0
 40 53  2  0  0  0
 40 58  1  0  0  0
 41110  1  0  0  0
 41111  1  0  0  0
 41112  1  0  0  0
 41 48  1  0  0  0
 42 43  1  0  0  0
 42 66  1  0  0  0
 42113  1  0  0  0
 42114  1  0  0  0
 43 44  1  0  0  0
 44115  1  0  0  0
 45 46  2  0  0  0
 45116  1  0  0  0
 46117  1  0  0  0
 47118  1  0  0  0
 47119  1  0  0  0
 48 56  1  0  0  0
 48 65  1  0  0  0
 48120  1  0  0  0
 49 50  1  0  0  0
 49 53  1  0  0  0
 49 64  1  0  0  0
 49121  1  0  0  0
 50 51  1  0  0  0
 50122  1  0  0  0
 50123  1  0  0  0
 51 52  1  0  0  0
 51124  1  0  0  0
 51125  1  0  0  0
 52126  1  0  0  0
 52127  1  0  0  0
 53 54  1  0  0  0
 54 55  2  0  0  0
 54128  1  0  0  0
 55 57  1  0  0  0
 55129  1  0  0  0
 56 69  2  0  0  0
 57 58  2  0  0  0
 57130  1  0  0  0
 58131  1  0  0  0
 59 60  1  0  0  0
 59 61  1  0  0  0
 59 62  1  0  0  0
 60132  1  0  0  0
 60133  1  0  0  0
 60134  1  0  0  0
 61135  1  0  0  0
 61136  1  0  0  0
 61137  1  0  0  0
 62138  1  0  0  0
 62139  1  0  0  0
 62140  1  0  0  0
 63 65  1  0  0  0
 63141  1  0  0  0
 63142  1  0  0  0
 63143  1  0  0  0
 64144  1  0  0  0
 65145  1  0  0  0
 68 82  1  0  0  0
 71 72  2  0  0  0
 71 73  1  0  0  0
 71146  1  0  0  0
 72 76  1  0  0  0
 72147  1  0  0  0
 73 74  2  0  0  0
 73 80  1  0  0  0
 74 75  1  0  0  0
 74 81  1  0  0  0
 75 76  2  0  0  0
 75 79  1  0  0  0
 76 86  1  0  0  0
 77 82  1  0  0  0
 77 83  1  0  0  0
 77 85  2  0  0  0
 78 79  1  0  0  0
 78148  1  0  0  0
 78149  1  0  0  0
 78150  1  0  0  0
 79151  1  0  0  0
 79152  1  0  0  0
 80 84  1  0  0  0
 80153  1  0  0  0
 80154  1  0  0  0
 81 83  1  0  0  0
 81155  1  0  0  0
 81156  1  0  0  0
 82157  1  0  0  0
 82158  1  0  0  0
 83159  1  0  0  0
 84160  1  0  0  0
M  ISO  4   1 100  68 101  82 101  84 100
M  END
> <chiral flag>
0

> <version>
0

> <s_m_source_file>
/data/baiqing/PycharmProjects/Reinvent-master-3.2/result/LINK_invent/BTK/process_docking_weight1_custom_product_contain_oxygen_bond_distance_aromatic_linkinvent_7_9_3/rearranged_h_0052.sdf

> <i_m_source_file_index>
47

> <r_mmod_Potential_Energy-OPLS-2005>
163.227813720703

> <r_mmod_Stretch_Energy-OPLS-2005>
170.478179931641

> <r_mmod_Bend_Energy-OPLS-2005>
205.928985595703

> <r_mmod_Torsional_Energy-OPLS-2005>
207.933029174805

> <r_mmod_Improper_Torsional_Energy-OPLS-2005>
5.36846590042114

> <r_mmod_Van_der_Waal_Energy-OPLS-2005>
151.831649780273

> <r_mmod_Electrostatic_Energy-OPLS-2005>
-441.603118896484

> <r_mmod_Solvation_Energy-OPLS-2005>
-244.467483520508

> <b_mmod_Minimization_Converged-OPLS-2005>
0

> <r_mmod_RMS_Derivative-OPLS-2005>
3.74829196929932

$$$$
47
                    3D
 Structure written by MMmdl.
154162  0  0  1  0            999 V2000
  -30.5632  -14.7554   20.4564 C   0  0  0  0  0  0
  -30.4524  -12.4556   19.4655 C   0  0  0  0  0  0
  -29.5217  -12.4971   18.2315 C   0  0  0  0  0  0
  -28.0453  -12.3164   18.6470 C   0  0  0  0  0  0
  -27.6445  -13.2175   19.8442 C   0  0  2  0  0  0
  -28.6940  -13.1360   20.9744 C   0  0  0  0  0  0
  -25.2552  -13.8140   20.5680 C   0  0  0  0  0  0
  -24.1825  -13.0411   20.9215 C   0  0  0  0  0  0
  -24.6389  -11.6897   20.8748 C   0  0  0  0  0  0
  -23.9054  -10.4284   21.0392 C   0  0  0  0  0  0
  -24.3610   -9.4211   21.9173 C   0  0  0  0  0  0
  -23.6284   -8.2238   22.0744 C   0  0  0  0  0  0
  -22.4262   -8.0286   21.3540 C   0  0  0  0  0  0
  -21.9899   -9.0256   20.4634 C   0  0  0  0  0  0
  -22.7225  -10.2140   20.3040 C   0  0  0  0  0  0
  -21.6855   -6.0740   22.5284 C   0  0  0  0  0  0
  -21.4013   -6.5635   23.8228 C   0  0  0  0  0  0
  -21.3653   -5.6782   24.9181 C   0  0  0  0  0  0
  -21.6044   -4.3051   24.7222 C   0  0  0  0  0  0
  -21.8814   -3.8149   23.4344 C   0  0  0  0  0  0
  -21.9195   -4.6965   22.3404 C   0  0  0  0  0  0
  -22.7858  -13.5229   21.1868 C   0  0  0  0  0  0
  -22.1668   -4.2156   21.0981 F   0  0  0  0  0  0
  -21.5628   -3.4534   25.7737 F   0  0  0  0  0  0
  -29.9879  -13.5085   20.3894 N   0  0  0  0  0  0
  -26.2950  -12.9306   20.3246 N   0  0  0  0  0  0
  -25.9315  -11.6476   20.5710 N   0  0  0  0  0  0
  -22.0487  -12.8236   22.0427 N   0  0  0  0  0  0
  -25.4270  -15.1846   20.4063 N   0  0  0  0  0  0
  -31.7700  -14.9021   20.2373 O   0  0  0  0  0  0
  -21.6630   -6.8887   21.4249 O   0  0  0  0  0  0
  -22.3575  -14.5534   20.6709 O   0  0  0  0  0  0
  -24.6343  -31.8571   23.1998 C   0  0  0  0  0  0
  -25.9175  -32.4775   23.8342 C   0  0  1  0  0  0
  -27.2068  -27.2525   20.1048 C   0  0  0  0  0  0
  -25.5971  -33.8573   24.2279 N   0  0  0  0  0  0
  -23.4298  -30.4833   21.5460 C   0  0  2  0  0  0
  -24.8722  -28.9380   20.1100 C   0  0  0  0  0  0
  -22.7518  -29.4619   22.4911 C   0  0  0  0  0  0
  -18.0296  -28.1377   22.8483 C   0  0  0  0  0  0
  -24.1490  -36.7269   23.2633 C   0  0  0  0  0  0
  -25.9820  -30.7641   21.3841 C   0  0  0  0  0  0
  -26.0510  -29.3901   20.7157 C   0  0  0  0  0  0
  -27.2236  -28.5625   20.6991 C   0  0  0  0  0  0
  -25.9953  -26.8794   19.4715 C   0  0  0  0  0  0
  -24.8496  -27.6906   19.4792 C   0  0  0  0  0  0
  -23.6472  -29.8268   20.1601 C   0  0  0  0  0  0
  -25.4126  -36.3082   24.0328 C   0  0  1  0  0  0
  -20.5904  -28.3695   23.1247 C   0  0  2  0  0  0
  -20.6787  -26.9417   22.5387 C   0  0  0  0  0  0
  -19.5760  -26.6384   21.5197 C   0  0  0  0  0  0
  -18.1942  -26.7920   22.1621 C   0  0  0  0  0  0
  -19.1556  -28.8862   23.2853 C   0  0  0  0  0  0
  -18.9477  -30.1461   23.8870 C   0  0  0  0  0  0
  -17.6476  -30.6574   24.0566 C   0  0  0  0  0  0
  -25.9069  -34.9446   23.5098 C   0  0  0  0  0  0
  -16.5362  -29.9074   23.6332 C   0  0  0  0  0  0
  -16.7286  -28.6493   23.0352 C   0  0  0  0  0  0
  -26.4514  -31.6593   25.0726 C   0  0  0  0  0  0
  -25.3713  -31.3776   26.1430 C   0  0  0  0  0  0
  -27.0372  -30.3002   24.6248 C   0  0  0  0  0  0
  -27.6069  -32.4337   25.7506 C   0  0  0  0  0  0
  -27.5585  -37.1806   24.8472 C   0  0  0  0  0  0
  -21.4232  -29.3042   22.3644 N   0  0  0  0  0  0
  -26.4308  -37.3778   23.9403 N   0  0  0  0  0  0
  -24.7013  -31.0523   22.0989 N   0  0  0  0  0  0
  -23.4227  -28.8151   23.2994 O   0  0  0  0  0  0
  -28.2815  -26.3258   20.1478 O   0  0  0  0  0  0
  -26.5623  -34.8920   22.4657 O   0  0  0  0  0  0
  -23.5485  -32.1410   23.7274 O   0  0  0  0  0  0
  -29.7287  -18.4382   20.1991 C   0  0  0  0  0  0
  -29.1996  -17.3071   22.2820 C   0  0  0  0  0  0
  -29.3949  -19.7452   20.7579 C   0  0  0  0  0  0
  -29.6372  -17.1909   20.9467 C   0  0  0  0  0  0
  -28.8725  -18.5589   22.8483 C   0  0  0  0  0  0
  -28.9581  -19.7533   22.1009 C   0  0  0  0  0  0
  -29.0077  -23.7000   20.1706 C   0  0  0  0  0  0
  -27.2201  -22.0013   19.9799 C   0  0  0  0  0  0
  -29.5728  -21.1372   19.9904 C   0  0  0  0  0  0
  -27.9151  -24.8649   20.0185 C   0  0  0  0  0  0
  -29.6720  -15.8168   20.3991 N   0  0  0  0  0  0
  -28.6384  -22.3472   20.1479 N   0  0  0  0  0  0
  -30.1952  -24.0327   20.2461 O   0  0  0  0  0  0
  -28.4547  -18.6111   24.1354 F   0  0  0  0  0  0
  -28.6202  -20.9229   22.6955 F   0  0  0  0  0  0
  -31.4933  -12.6012   19.1749 H   0  0  0  0  0  0
  -30.4144  -11.4814   19.9548 H   0  0  0  0  0  0
  -29.8065  -11.7202   17.5211 H   0  0  0  0  0  0
  -29.6438  -13.4476   17.7101 H   0  0  0  0  0  0
  -27.9112  -11.2714   18.9258 H   0  0  0  0  0  0
  -27.3856  -12.4916   17.7965 H   0  0  0  0  0  0
  -27.6357  -14.2346   19.4569 H   0  0  0  0  0  0
  -28.7409  -12.1260   21.3833 H   0  0  0  0  0  0
  -28.4368  -13.7915   21.8076 H   0  0  0  0  0  0
  -25.2753   -9.5695   22.4759 H   0  0  0  0  0  0
  -24.0005   -7.4625   22.7452 H   0  0  0  0  0  0
  -21.0841   -8.8762   19.8942 H   0  0  0  0  0  0
  -22.3665  -10.9683   19.6158 H   0  0  0  0  0  0
  -21.2002   -7.6149   23.9734 H   0  0  0  0  0  0
  -21.1479   -6.0511   25.9089 H   0  0  0  0  0  0
  -22.0598   -2.7613   23.2832 H   0  0  0  0  0  0
  -22.4077  -11.9892   22.4823 H   0  0  0  0  0  0
  -21.1106  -13.1298   22.2578 H   0  0  0  0  0  0
  -24.6536  -15.8341   20.4962 H   0  0  0  0  0  0
  -26.2542  -15.6208   20.0210 H   0  0  0  0  0  0
  -26.7227  -32.5406   23.1062 H   0  0  0  0  0  0
  -25.0183  -33.9725   25.0475 H   0  0  0  0  0  0
  -22.7252  -31.3052   21.4039 H   0  0  0  0  0  0
  -23.3772  -35.9580   23.3310 H   0  0  0  0  0  0
  -24.3566  -36.8873   22.2041 H   0  0  0  0  0  0
  -23.7229  -37.6474   23.6632 H   0  0  0  0  0  0
  -26.1310  -31.5289   20.6209 H   0  0  0  0  0  0
  -26.8545  -30.8008   22.0245 H   0  0  0  0  0  0
  -28.1290  -28.9077   21.1795 H   0  0  0  0  0  0
  -25.8749  -25.9359   18.9652 H   0  0  0  0  0  0
  -23.9439  -27.3425   19.0008 H   0  0  0  0  0  0
  -23.7731  -30.6053   19.4060 H   0  0  0  0  0  0
  -22.7627  -29.2630   19.8572 H   0  0  0  0  0  0
  -25.1307  -36.1936   25.0825 H   0  0  0  0  0  0
  -20.9993  -28.3261   24.1371 H   0  0  0  0  0  0
  -20.5689  -26.2308   23.3593 H   0  0  0  0  0  0
  -21.6656  -26.7440   22.1190 H   0  0  0  0  0  0
  -19.6919  -25.6298   21.1229 H   0  0  0  0  0  0
  -19.6684  -27.3187   20.6721 H   0  0  0  0  0  0
  -17.4218  -26.6669   21.4018 H   0  0  0  0  0  0
  -18.0347  -26.0058   22.9013 H   0  0  0  0  0  0
  -19.7955  -30.7288   24.2217 H   0  0  0  0  0  0
  -17.5029  -31.6253   24.5175 H   0  0  0  0  0  0
  -15.5367  -30.2970   23.7661 H   0  0  0  0  0  0
  -15.8690  -28.0805   22.7068 H   0  0  0  0  0  0
  -24.5884  -30.7131   25.7748 H   0  0  0  0  0  0
  -24.8905  -32.2961   26.4805 H   0  0  0  0  0  0
  -25.7998  -30.8983   27.0240 H   0  0  0  0  0  0
  -26.2984  -29.6749   24.1215 H   0  0  0  0  0  0
  -27.3976  -29.7263   25.4799 H   0  0  0  0  0  0
  -27.8889  -30.4269   23.9560 H   0  0  0  0  0  0
  -27.2684  -33.3654   26.2055 H   0  0  0  0  0  0
  -28.3892  -32.6883   25.0338 H   0  0  0  0  0  0
  -28.0707  -31.8476   26.5450 H   0  0  0  0  0  0
  -28.2631  -38.0078   24.7519 H   0  0  0  0  0  0
  -28.1064  -36.2620   24.6318 H   0  0  0  0  0  0
  -27.2291  -37.1473   25.8872 H   0  0  0  0  0  0
  -20.9415  -29.8782   21.6866 H   0  0  0  0  0  0
  -26.0189  -38.2858   24.1394 H   0  0  0  0  0  0
  -30.0376  -18.3965   19.1655 H   0  0  0  0  0  0
  -29.0559  -16.4194   22.8801 H   0  0  0  0  0  0
  -26.6023  -22.4323   20.7670 H   0  0  0  0  0  0
  -27.0480  -20.9258   20.0053 H   0  0  0  0  0  0
  -26.8432  -22.3623   19.0203 H   0  0  0  0  0  0
  -29.5781  -20.9064   18.9269 H   0  0  0  0  0  0
  -30.5863  -21.4727   20.2156 H   0  0  0  0  0  0
  -27.1259  -24.6636   20.7431 H   0  0  0  0  0  0
  -27.5081  -24.6947   19.0226 H   0  0  0  0  0  0
  -28.7422  -15.4394   20.3062 H   0  0  0  0  0  0
  1 25  1  0  0  0
  1 30  2  0  0  0
  1 81  1  0  0  0
  2  3  1  0  0  0
  2 25  1  0  0  0
  2 86  1  0  0  0
  2 87  1  0  0  0
  3  4  1  0  0  0
  3 88  1  0  0  0
  3 89  1  0  0  0
  4  5  1  0  0  0
  4 90  1  0  0  0
  4 91  1  0  0  0
  5  6  1  0  0  0
  5 26  1  0  0  0
  5 92  1  0  0  0
  6 25  1  0  0  0
  6 93  1  0  0  0
  6 94  1  0  0  0
  7  8  2  0  0  0
  7 26  1  0  0  0
  7 29  1  0  0  0
  8  9  1  0  0  0
  8 22  1  0  0  0
  9 10  1  0  0  0
  9 27  2  0  0  0
 10 11  2  0  0  0
 10 15  1  0  0  0
 11 12  1  0  0  0
 11 95  1  0  0  0
 12 13  2  0  0  0
 12 96  1  0  0  0
 13 14  1  0  0  0
 13 31  1  0  0  0
 14 15  2  0  0  0
 14 97  1  0  0  0
 15 98  1  0  0  0
 16 17  2  0  0  0
 16 21  1  0  0  0
 16 31  1  0  0  0
 17 18  1  0  0  0
 17 99  1  0  0  0
 18 19  2  0  0  0
 18100  1  0  0  0
 19 20  1  0  0  0
 19 24  1  0  0  0
 20 21  2  0  0  0
 20101  1  0  0  0
 21 23  1  0  0  0
 22 28  1  0  0  0
 22 32  2  0  0  0
 26 27  1  0  0  0
 28102  1  0  0  0
 28103  1  0  0  0
 29104  1  0  0  0
 29105  1  0  0  0
 33 34  1  0  0  0
 33 66  1  0  0  0
 33 70  2  0  0  0
 34 36  1  0  0  0
 34 59  1  0  0  0
 34106  1  0  0  0
 35 44  2  0  0  0
 35 45  1  0  0  0
 35 68  1  0  0  0
 36 56  1  0  0  0
 36107  1  0  0  0
 37 39  1  0  0  0
 37 47  1  0  0  0
 37 66  1  0  0  0
 37108  1  0  0  0
 38 43  2  0  0  0
 38 46  1  0  0  0
 38 47  1  0  0  0
 39 64  1  0  0  0
 39 67  2  0  0  0
 40 52  1  0  0  0
 40 53  2  0  0  0
 40 58  1  0  0  0
 41109  1  0  0  0
 41110  1  0  0  0
 41111  1  0  0  0
 41 48  1  0  0  0
 42 43  1  0  0  0
 42 66  1  0  0  0
 42112  1  0  0  0
 42113  1  0  0  0
 43 44  1  0  0  0
 44114  1  0  0  0
 45 46  2  0  0  0
 45115  1  0  0  0
 46116  1  0  0  0
 47117  1  0  0  0
 47118  1  0  0  0
 48 56  1  0  0  0
 48 65  1  0  0  0
 48119  1  0  0  0
 49 50  1  0  0  0
 49 53  1  0  0  0
 49 64  1  0  0  0
 49120  1  0  0  0
 50 51  1  0  0  0
 50121  1  0  0  0
 50122  1  0  0  0
 51 52  1  0  0  0
 51123  1  0  0  0
 51124  1  0  0  0
 52125  1  0  0  0
 52126  1  0  0  0
 53 54  1  0  0  0
 54 55  2  0  0  0
 54127  1  0  0  0
 55 57  1  0  0  0
 55128  1  0  0  0
 56 69  2  0  0  0
 57 58  2  0  0  0
 57129  1  0  0  0
 58130  1  0  0  0
 59 60  1  0  0  0
 59 61  1  0  0  0
 59 62  1  0  0  0
 60131  1  0  0  0
 60132  1  0  0  0
 60133  1  0  0  0
 61134  1  0  0  0
 61135  1  0  0  0
 61136  1  0  0  0
 62137  1  0  0  0
 62138  1  0  0  0
 62139  1  0  0  0
 63 65  1  0  0  0
 63140  1  0  0  0
 63141  1  0  0  0
 63142  1  0  0  0
 64143  1  0  0  0
 65144  1  0  0  0
 68 80  1  0  0  0
 71 73  2  0  0  0
 71 74  1  0  0  0
 71145  1  0  0  0
 72 74  2  0  0  0
 72 75  1  0  0  0
 72146  1  0  0  0
 73 76  1  0  0  0
 73 79  1  0  0  0
 74 81  1  0  0  0
 75 76  2  0  0  0
 75 84  1  0  0  0
 76 85  1  0  0  0
 77 80  1  0  0  0
 77 82  1  0  0  0
 77 83  2  0  0  0
 78 82  1  0  0  0
 78147  1  0  0  0
 78148  1  0  0  0
 78149  1  0  0  0
 79 82  1  0  0  0
 79150  1  0  0  0
 79151  1  0  0  0
 80152  1  0  0  0
 80153  1  0  0  0
 81154  1  0  0  0
M  ISO  4   1 100  68 101  80 101  81 100
M  END
> <chiral flag>
0

> <version>
0

> <s_m_source_file>
/data/baiqing/PycharmProjects/Reinvent-master-3.2/result/LINK_invent/BTK/process_docking_weight1_custom_product_contain_oxygen_bond_distance_aromatic_linkinvent_7_9_3/rearranged_h_0052.sdf

> <i_m_source_file_index>
48

> <r_mmod_Potential_Energy-OPLS-2005>
263.208862304688

> <r_mmod_Stretch_Energy-OPLS-2005>
127.070487976074

> <r_mmod_Bend_Energy-OPLS-2005>
171.950805664062

> <r_mmod_Torsional_Energy-OPLS-2005>
265.508178710938

> <r_mmod_Improper_Torsional_Energy-OPLS-2005>
15.251051902771

> <r_mmod_Van_der_Waal_Energy-OPLS-2005>
143.522262573242

> <r_mmod_Electrostatic_Energy-OPLS-2005>
-319.790008544922

> <r_mmod_Solvation_Energy-OPLS-2005>
-236.887054443359

> <b_mmod_Minimization_Converged-OPLS-2005>
0

> <r_mmod_RMS_Derivative-OPLS-2005>
3.20589160919189

$$$$
48
                    3D
 Structure written by MMmdl.
167176  0  0  1  0            999 V2000
  -30.7245  -14.4661   20.4220 C   0  0  0  0  0  0
  -30.4047  -12.2631   19.4313 C   0  0  0  0  0  0
  -29.4758  -12.4295   18.2086 C   0  0  0  0  0  0
  -27.9980  -12.3330   18.6252 C   0  0  0  0  0  0
  -27.6507  -13.2117   19.8564 C   0  0  2  0  0  0
  -28.7033  -13.0624   20.9794 C   0  0  0  0  0  0
  -25.2528  -13.8196   20.5689 C   0  0  0  0  0  0
  -24.1796  -13.0461   20.9214 C   0  0  0  0  0  0
  -24.6374  -11.6934   20.8781 C   0  0  0  0  0  0
  -23.9047  -10.4308   21.0420 C   0  0  0  0  0  0
  -24.3605   -9.4222   21.9187 C   0  0  0  0  0  0
  -23.6288   -8.2246   22.0749 C   0  0  0  0  0  0
  -22.4261   -8.0298   21.3550 C   0  0  0  0  0  0
  -21.9888   -9.0269   20.4645 C   0  0  0  0  0  0
  -22.7224  -10.2153   20.3067 C   0  0  0  0  0  0
  -21.6851   -6.0747   22.5271 C   0  0  0  0  0  0
  -21.4029   -6.5648   23.8215 C   0  0  0  0  0  0
  -21.3656   -5.6784   24.9172 C   0  0  0  0  0  0
  -21.6032   -4.3048   24.7209 C   0  0  0  0  0  0
  -21.8824   -3.8148   23.4325 C   0  0  0  0  0  0
  -21.9187   -4.6978   22.3386 C   0  0  0  0  0  0
  -22.7809  -13.5243   21.1870 C   0  0  0  0  0  0
  -22.1656   -4.2167   21.0962 F   0  0  0  0  0  0
  -21.5617   -3.4533   25.7723 F   0  0  0  0  0  0
  -30.0339  -13.2996   20.3991 N   0  0  0  0  0  0
  -26.2965  -12.9376   20.3352 N   0  0  0  0  0  0
  -25.9294  -11.6543   20.5814 N   0  0  0  0  0  0
  -22.0439  -12.8246   22.0430 N   0  0  0  0  0  0
  -25.4238  -15.1916   20.4065 N   0  0  0  0  0  0
  -31.9422  -14.5324   20.2644 O   0  0  0  0  0  0
  -21.6632   -6.8887   21.4235 O   0  0  0  0  0  0
  -22.3499  -14.5547   20.6715 O   0  0  0  0  0  0
  -24.6123  -31.8727   23.2141 C   0  0  0  0  0  0
  -25.9022  -32.4853   23.8424 C   0  0  1  0  0  0
  -27.2279  -27.4595   20.0781 C   0  0  0  0  0  0
  -25.5897  -33.8649   24.2351 N   0  0  0  0  0  0
  -23.3975  -30.4999   21.5542 C   0  0  2  0  0  0
  -24.8395  -28.9746   20.1145 C   0  0  0  0  0  0
  -22.7398  -29.4688   22.5001 C   0  0  0  0  0  0
  -18.0272  -28.1387   22.8484 C   0  0  0  0  0  0
  -24.1498  -36.7333   23.2631 C   0  0  0  0  0  0
  -25.9251  -30.8435   21.3651 C   0  0  0  0  0  0
  -25.9987  -29.4798   20.7138 C   0  0  0  0  0  0
  -27.1907  -28.7246   20.7030 C   0  0  0  0  0  0
  -26.0444  -26.9678   19.4724 C   0  0  0  0  0  0
  -24.8562  -27.7158   19.4957 C   0  0  0  0  0  0
  -23.6035  -29.8403   20.1661 C   0  0  0  0  0  0
  -25.4117  -36.3136   24.0337 C   0  0  1  0  0  0
  -20.5858  -28.3662   23.1325 C   0  0  2  0  0  0
  -20.6765  -26.9406   22.5405 C   0  0  0  0  0  0
  -19.5743  -26.6394   21.5196 C   0  0  0  0  0  0
  -18.1924  -26.7932   22.1613 C   0  0  0  0  0  0
  -19.1520  -28.8840   23.2903 C   0  0  0  0  0  0
  -18.9449  -30.1444   23.8916 C   0  0  0  0  0  0
  -17.6452  -30.6589   24.0567 C   0  0  0  0  0  0
  -25.9035  -34.9499   23.5130 C   0  0  0  0  0  0
  -16.5344  -29.9096   23.6326 C   0  0  0  0  0  0
  -16.7261  -28.6519   23.0339 C   0  0  0  0  0  0
  -26.4449  -31.6624   25.0738 C   0  0  0  0  0  0
  -25.3722  -31.3704   26.1485 C   0  0  0  0  0  0
  -27.0257  -30.3081   24.6063 C   0  0  0  0  0  0
  -27.6045  -32.4328   25.7491 C   0  0  0  0  0  0
  -27.5595  -37.1827   24.8460 C   0  0  0  0  0  0
  -21.4129  -29.3040   22.3736 N   0  0  0  0  0  0
  -26.4308  -37.3815   23.9405 N   0  0  0  0  0  0
  -24.6634  -31.0860   22.1027 N   0  0  0  0  0  0
  -23.4186  -28.8221   23.3018 O   0  0  0  0  0  0
  -28.4174  -26.7629   20.1099 O   0  0  0  0  0  0
  -26.5584  -34.8936   22.4690 O   0  0  0  0  0  0
  -23.5328  -32.1462   23.7556 O   0  0  0  0  0  0
  -30.7650  -19.3976   18.5979 C   0  0  0  0  0  0
  -31.3260  -18.2655   18.0012 C   0  0  0  0  0  0
  -29.7060  -17.9776   20.2644 C   0  0  0  0  0  0
  -29.9165  -19.2688   19.7196 C   0  0  0  0  0  0
  -31.0779  -16.9775   18.5078 C   0  0  0  0  0  0
  -30.2893  -16.8203   19.6936 C   0  0  0  0  0  0
  -30.0346  -22.6931   21.2549 C   0  0  0  0  0  0
  -30.7394  -22.3383   22.3441 C   0  0  0  0  0  0
  -29.3647  -24.0537   21.0472 C   0  0  0  0  0  0
  -30.1347  -23.7619   18.6203 C   0  0  0  0  0  0
  -29.3957  -22.4358   18.8294 C   0  0  0  0  0  0
  -29.7449  -24.7693   19.7182 C   0  0  1  0  0  0
  -31.6608  -15.8402   17.6854 C   0  0  0  0  0  0
  -29.2017  -20.4797   20.3333 C   0  0  0  0  0  0
  -28.5923  -25.6604   19.2293 C   0  0  0  0  0  0
  -29.9574  -15.5648   20.3047 N   0  0  0  0  0  0
  -29.8902  -21.7729   20.0682 N   0  3  2  0  0  0
  -31.4530  -12.3205   19.1332 H   0  0  0  0  0  0
  -30.2751  -11.2763   19.8789 H   0  0  0  0  0  0
  -29.7009  -11.6659   17.4638 H   0  0  0  0  0  0
  -29.6383  -13.3828   17.7128 H   0  0  0  0  0  0
  -27.7917  -11.2846   18.8435 H   0  0  0  0  0  0
  -27.3550  -12.6032   17.7868 H   0  0  0  0  0  0
  -27.6736  -14.2452   19.5099 H   0  0  0  0  0  0
  -28.6643  -12.0616   21.4111 H   0  0  0  0  0  0
  -28.5006  -13.7561   21.7967 H   0  0  0  0  0  0
  -25.2758   -9.5698   22.4765 H   0  0  0  0  0  0
  -24.0019   -7.4618   22.7442 H   0  0  0  0  0  0
  -21.0838   -8.8773   19.8937 H   0  0  0  0  0  0
  -22.3678  -10.9690   19.6177 H   0  0  0  0  0  0
  -21.2058   -7.6160   23.9731 H   0  0  0  0  0  0
  -21.1464   -6.0512   25.9071 H   0  0  0  0  0  0
  -22.0610   -2.7619   23.2801 H   0  0  0  0  0  0
  -22.4023  -11.9918   22.4856 H   0  0  0  0  0  0
  -21.1047  -13.1277   22.2621 H   0  0  0  0  0  0
  -24.6568  -15.8472   20.5127 H   0  0  0  0  0  0
  -26.2700  -15.6266   20.0629 H   0  0  0  0  0  0
  -26.7094  -32.5567   23.1194 H   0  0  0  0  0  0
  -25.0070  -33.9828   25.0508 H   0  0  0  0  0  0
  -22.6844  -31.3157   21.4198 H   0  0  0  0  0  0
  -23.3763  -35.9664   23.3297 H   0  0  0  0  0  0
  -24.3598  -36.8942   22.2046 H   0  0  0  0  0  0
  -23.7247  -37.6541   23.6632 H   0  0  0  0  0  0
  -26.0336  -31.6111   20.5976 H   0  0  0  0  0  0
  -26.8168  -30.8987   21.9779 H   0  0  0  0  0  0
  -28.0862  -29.1142   21.1669 H   0  0  0  0  0  0
  -25.9865  -26.0152   18.9725 H   0  0  0  0  0  0
  -23.9656  -27.3200   19.0283 H   0  0  0  0  0  0
  -23.7171  -30.6186   19.4110 H   0  0  0  0  0  0
  -22.7275  -29.2636   19.8643 H   0  0  0  0  0  0
  -25.1293  -36.2009   25.0831 H   0  0  0  0  0  0
  -20.9945  -28.3216   24.1444 H   0  0  0  0  0  0
  -20.5672  -26.2262   23.3580 H   0  0  0  0  0  0
  -21.6641  -26.7462   22.1195 H   0  0  0  0  0  0
  -19.6907  -25.6303   21.1230 H   0  0  0  0  0  0
  -19.6695  -27.3204   20.6726 H   0  0  0  0  0  0
  -17.4188  -26.6671   21.4022 H   0  0  0  0  0  0
  -18.0339  -26.0077   22.9017 H   0  0  0  0  0  0
  -19.7927  -30.7253   24.2306 H   0  0  0  0  0  0
  -17.5013  -31.6273   24.5166 H   0  0  0  0  0  0
  -15.5350  -30.3006   23.7646 H   0  0  0  0  0  0
  -15.8658  -28.0850   22.7038 H   0  0  0  0  0  0
  -24.5896  -30.7049   25.7812 H   0  0  0  0  0  0
  -24.8899  -32.2844   26.4964 H   0  0  0  0  0  0
  -25.8086  -30.8849   27.0222 H   0  0  0  0  0  0
  -26.2771  -29.6883   24.1107 H   0  0  0  0  0  0
  -27.4038  -29.7277   25.4487 H   0  0  0  0  0  0
  -27.8609  -30.4429   23.9187 H   0  0  0  0  0  0
  -27.2679  -33.3619   26.2107 H   0  0  0  0  0  0
  -28.3827  -32.6905   25.0292 H   0  0  0  0  0  0
  -28.0730  -31.8416   26.5368 H   0  0  0  0  0  0
  -28.2608  -38.0131   24.7522 H   0  0  0  0  0  0
  -28.1096  -36.2664   24.6267 H   0  0  0  0  0  0
  -27.2306  -37.1461   25.8859 H   0  0  0  0  0  0
  -20.9278  -29.8774   21.6978 H   0  0  0  0  0  0
  -26.0203  -38.2898   24.1399 H   0  0  0  0  0  0
  -31.0000  -20.3438   18.1370 H   0  0  0  0  0  0
  -31.9396  -18.3944   17.1197 H   0  0  0  0  0  0
  -29.0679  -17.8747   21.1317 H   0  0  0  0  0  0
  -30.8552  -23.0224   23.1725 H   0  0  0  0  0  0
  -31.2146  -21.3720   22.4334 H   0  0  0  0  0  0
  -29.5813  -24.7115   21.8906 H   0  0  0  0  0  0
  -28.2884  -23.8781   21.0931 H   0  0  0  0  0  0
  -29.9232  -24.1597   17.6269 H   0  0  0  0  0  0
  -31.2122  -23.5889   18.6418 H   0  0  0  0  0  0
  -29.5158  -21.8067   17.9511 H   0  0  0  0  0  0
  -28.3227  -22.6174   18.9051 H   0  0  0  0  0  0
  -30.6134  -25.4064   19.8959 H   0  0  0  0  0  0
  -32.6701  -15.6004   18.0176 H   0  0  0  0  0  0
  -31.7215  -16.1181   16.6331 H   0  0  0  0  0  0
  -31.0513  -14.9481   17.7280 H   0  0  0  0  0  0
  -29.1274  -20.3135   21.4087 H   0  0  0  0  0  0
  -28.1720  -20.5141   19.9743 H   0  0  0  0  0  0
  -27.7213  -25.0146   19.1536 H   0  0  0  0  0  0
  -28.7946  -26.0595   18.2346 H   0  0  0  0  0  0
  -28.9984  -15.4469   20.5890 H   0  0  0  0  0  0
  -30.8245  -21.4727   19.8352 H   0  0  0  0  0  0
  1 25  1  0  0  0
  1 30  2  0  0  0
  1 86  1  0  0  0
  2  3  1  0  0  0
  2 25  1  0  0  0
  2 88  1  0  0  0
  2 89  1  0  0  0
  3  4  1  0  0  0
  3 90  1  0  0  0
  3 91  1  0  0  0
  4  5  1  0  0  0
  4 92  1  0  0  0
  4 93  1  0  0  0
  5  6  1  0  0  0
  5 26  1  0  0  0
  5 94  1  0  0  0
  6 25  1  0  0  0
  6 95  1  0  0  0
  6 96  1  0  0  0
  7  8  2  0  0  0
  7 26  1  0  0  0
  7 29  1  0  0  0
  8  9  1  0  0  0
  8 22  1  0  0  0
  9 10  1  0  0  0
  9 27  2  0  0  0
 10 11  2  0  0  0
 10 15  1  0  0  0
 11 12  1  0  0  0
 11 97  1  0  0  0
 12 13  2  0  0  0
 12 98  1  0  0  0
 13 14  1  0  0  0
 13 31  1  0  0  0
 14 15  2  0  0  0
 14 99  1  0  0  0
 15100  1  0  0  0
 16 17  2  0  0  0
 16 21  1  0  0  0
 16 31  1  0  0  0
 17 18  1  0  0  0
 17101  1  0  0  0
 18 19  2  0  0  0
 18102  1  0  0  0
 19 20  1  0  0  0
 19 24  1  0  0  0
 20 21  2  0  0  0
 20103  1  0  0  0
 21 23  1  0  0  0
 22 28  1  0  0  0
 22 32  2  0  0  0
 26 27  1  0  0  0
 28104  1  0  0  0
 28105  1  0  0  0
 29106  1  0  0  0
 29107  1  0  0  0
 33 34  1  0  0  0
 33 66  1  0  0  0
 33 70  2  0  0  0
 34 36  1  0  0  0
 34 59  1  0  0  0
 34108  1  0  0  0
 35 44  2  0  0  0
 35 45  1  0  0  0
 35 68  1  0  0  0
 36 56  1  0  0  0
 36109  1  0  0  0
 37 39  1  0  0  0
 37 47  1  0  0  0
 37 66  1  0  0  0
 37110  1  0  0  0
 38 43  2  0  0  0
 38 46  1  0  0  0
 38 47  1  0  0  0
 39 64  1  0  0  0
 39 67  2  0  0  0
 40 52  1  0  0  0
 40 53  2  0  0  0
 40 58  1  0  0  0
 41111  1  0  0  0
 41112  1  0  0  0
 41113  1  0  0  0
 41 48  1  0  0  0
 42 43  1  0  0  0
 42 66  1  0  0  0
 42114  1  0  0  0
 42115  1  0  0  0
 43 44  1  0  0  0
 44116  1  0  0  0
 45 46  2  0  0  0
 45117  1  0  0  0
 46118  1  0  0  0
 47119  1  0  0  0
 47120  1  0  0  0
 48 56  1  0  0  0
 48 65  1  0  0  0
 48121  1  0  0  0
 49 50  1  0  0  0
 49 53  1  0  0  0
 49 64  1  0  0  0
 49122  1  0  0  0
 50 51  1  0  0  0
 50123  1  0  0  0
 50124  1  0  0  0
 51 52  1  0  0  0
 51125  1  0  0  0
 51126  1  0  0  0
 52127  1  0  0  0
 52128  1  0  0  0
 53 54  1  0  0  0
 54 55  2  0  0  0
 54129  1  0  0  0
 55 57  1  0  0  0
 55130  1  0  0  0
 56 69  2  0  0  0
 57 58  2  0  0  0
 57131  1  0  0  0
 58132  1  0  0  0
 59 60  1  0  0  0
 59 61  1  0  0  0
 59 62  1  0  0  0
 60133  1  0  0  0
 60134  1  0  0  0
 60135  1  0  0  0
 61136  1  0  0  0
 61137  1  0  0  0
 61138  1  0  0  0
 62139  1  0  0  0
 62140  1  0  0  0
 62141  1  0  0  0
 63 65  1  0  0  0
 63142  1  0  0  0
 63143  1  0  0  0
 63144  1  0  0  0
 64145  1  0  0  0
 65146  1  0  0  0
 68 85  1  0  0  0
 71 72  2  0  0  0
 71 74  1  0  0  0
 71147  1  0  0  0
 72 75  1  0  0  0
 72148  1  0  0  0
 73 74  2  0  0  0
 73 76  1  0  0  0
 73149  1  0  0  0
 74 84  1  0  0  0
 75 76  2  0  0  0
 75 83  1  0  0  0
 76 86  1  0  0  0
 77 78  2  0  0  0
 77 79  1  0  0  0
 77 87  1  0  0  0
 78150  1  0  0  0
 78151  1  0  0  0
 79 82  1  0  0  0
 79152  1  0  0  0
 79153  1  0  0  0
 80 81  1  0  0  0
 80 82  1  0  0  0
 80154  1  0  0  0
 80155  1  0  0  0
 81 87  1  0  0  0
 81156  1  0  0  0
 81157  1  0  0  0
 82 85  1  0  0  0
 82158  1  0  0  0
 83159  1  0  0  0
 83160  1  0  0  0
 83161  1  0  0  0
 84162  1  0  0  0
 84163  1  0  0  0
 84 87  1  0  0  0
 85164  1  0  0  0
 85165  1  0  0  0
 86166  1  0  0  0
 87167  1  0  0  0
M  CHG  1  87   1
M  ISO  4   1 100  68 101  85 101  86 100
M  END
> <chiral flag>
0

> <version>
0

> <s_m_source_file>
/data/baiqing/PycharmProjects/Reinvent-master-3.2/result/LINK_invent/BTK/process_docking_weight1_custom_product_contain_oxygen_bond_distance_aromatic_linkinvent_7_9_3/rearranged_h_0052.sdf

> <i_m_source_file_index>
49

> <r_mmod_Potential_Energy-OPLS-2005>
-69.2225341796875

> <r_mmod_Stretch_Energy-OPLS-2005>
38.8044509887695

> <r_mmod_Bend_Energy-OPLS-2005>
117.945747375488

> <r_mmod_Torsional_Energy-OPLS-2005>
274.419311523438

> <r_mmod_Improper_Torsional_Energy-OPLS-2005>
8.43737506866455

> <r_mmod_Van_der_Waal_Energy-OPLS-2005>
179.641815185547

> <r_mmod_Electrostatic_Energy-OPLS-2005>
-277.074554443359

> <r_mmod_Solvation_Energy-OPLS-2005>
-439.724945068359

> <b_mmod_Minimization_Converged-OPLS-2005>
0

> <r_mmod_RMS_Derivative-OPLS-2005>
2.42688751220703

$$$$
49
                    3D
 Structure written by MMmdl.
165173  0  0  1  0            999 V2000
  -30.7262  -14.5093   20.5403 C   0  0  0  0  0  0
  -30.4271  -12.3166   19.4403 C   0  0  0  0  0  0
  -29.5039  -12.4714   18.2150 C   0  0  0  0  0  0
  -28.0297  -12.3029   18.6364 C   0  0  0  0  0  0
  -27.6487  -13.1785   19.8572 C   0  0  2  0  0  0
  -28.7007  -13.0516   20.9868 C   0  0  0  0  0  0
  -25.2559  -13.8076   20.5681 C   0  0  0  0  0  0
  -24.1804  -13.0392   20.9220 C   0  0  0  0  0  0
  -24.6331  -11.6846   20.8777 C   0  0  0  0  0  0
  -23.8999  -10.4249   21.0432 C   0  0  0  0  0  0
  -24.3571   -9.4150   21.9184 C   0  0  0  0  0  0
  -23.6243   -8.2187   22.0756 C   0  0  0  0  0  0
  -22.4224   -8.0237   21.3547 C   0  0  0  0  0  0
  -21.9852   -9.0215   20.4660 C   0  0  0  0  0  0
  -22.7180  -10.2095   20.3071 C   0  0  0  0  0  0
  -21.6819   -6.0694   22.5272 C   0  0  0  0  0  0
  -21.3995   -6.5609   23.8199 C   0  0  0  0  0  0
  -21.3668   -5.6777   24.9168 C   0  0  0  0  0  0
  -21.6045   -4.3037   24.7232 C   0  0  0  0  0  0
  -21.8805   -3.8118   23.4356 C   0  0  0  0  0  0
  -21.9172   -4.6924   22.3407 C   0  0  0  0  0  0
  -22.7825  -13.5205   21.1853 C   0  0  0  0  0  0
  -22.1640   -4.2104   21.0985 F   0  0  0  0  0  0
  -21.5648   -3.4538   25.7757 F   0  0  0  0  0  0
  -30.0280  -13.3415   20.4194 N   0  0  0  0  0  0
  -26.2950  -12.9171   20.3312 N   0  0  0  0  0  0
  -25.9233  -11.6374   20.5758 N   0  0  0  0  0  0
  -22.0450  -12.8262   22.0451 N   0  0  0  0  0  0
  -25.4243  -15.1803   20.4006 N   0  0  0  0  0  0
  -31.8974  -14.6080   20.1681 O   0  0  0  0  0  0
  -21.6601   -6.8834   21.4231 O   0  0  0  0  0  0
  -22.3501  -14.5458   20.6598 O   0  0  0  0  0  0
  -24.6149  -31.8674   23.2113 C   0  0  0  0  0  0
  -25.9053  -32.4833   23.8405 C   0  0  1  0  0  0
  -27.2312  -27.4410   20.0925 C   0  0  0  0  0  0
  -25.5911  -33.8636   24.2331 N   0  0  0  0  0  0
  -23.4014  -30.4914   21.5527 C   0  0  2  0  0  0
  -24.8442  -28.9590   20.1157 C   0  0  0  0  0  0
  -22.7419  -29.4641   22.4999 C   0  0  0  0  0  0
  -18.0271  -28.1407   22.8510 C   0  0  0  0  0  0
  -24.1470  -36.7326   23.2631 C   0  0  0  0  0  0
  -25.9276  -30.8397   21.3563 C   0  0  0  0  0  0
  -26.0042  -29.4718   20.7087 C   0  0  0  0  0  0
  -27.1977  -28.7191   20.6946 C   0  0  0  0  0  0
  -26.0516  -26.9404   19.4930 C   0  0  0  0  0  0
  -24.8618  -27.6923   19.5072 C   0  0  0  0  0  0
  -23.6087  -29.8267   20.1653 C   0  0  0  0  0  0
  -25.4093  -36.3106   24.0325 C   0  0  1  0  0  0
  -20.5865  -28.3674   23.1344 C   0  0  2  0  0  0
  -20.6748  -26.9410   22.5436 C   0  0  0  0  0  0
  -19.5716  -26.6405   21.5230 C   0  0  0  0  0  0
  -18.1903  -26.7959   22.1640 C   0  0  0  0  0  0
  -19.1523  -28.8857   23.2931 C   0  0  0  0  0  0
  -18.9440  -30.1463   23.8934 C   0  0  0  0  0  0
  -17.6439  -30.6602   24.0584 C   0  0  0  0  0  0
  -25.9027  -34.9482   23.5113 C   0  0  0  0  0  0
  -16.5334  -29.9109   23.6331 C   0  0  0  0  0  0
  -16.7262  -28.6538   23.0347 C   0  0  0  0  0  0
  -26.4482  -31.6628   25.0743 C   0  0  0  0  0  0
  -25.3770  -31.3746   26.1504 C   0  0  0  0  0  0
  -27.0293  -30.3067   24.6110 C   0  0  0  0  0  0
  -27.6055  -32.4337   25.7530 C   0  0  0  0  0  0
  -27.5567  -37.1815   24.8462 C   0  0  0  0  0  0
  -21.4136  -29.3046   22.3765 N   0  0  0  0  0  0
  -26.4271  -37.3800   23.9419 N   0  0  0  0  0  0
  -24.6668  -31.0796   22.0997 N   0  0  0  0  0  0
  -23.4205  -28.8155   23.3010 O   0  0  0  0  0  0
  -28.4125  -26.7294   20.1055 O   0  0  0  0  0  0
  -26.5570  -34.8927   22.4660 O   0  0  0  0  0  0
  -23.5347  -32.1404   23.7520 O   0  0  0  0  0  0
  -30.8320  -18.9442   21.0825 C   0  0  0  0  0  0
  -30.3411  -20.2601   20.9742 C   0  0  0  0  0  0
  -30.2011  -17.9983   21.9202 C   0  0  0  0  0  0
  -29.0485  -18.3870   22.6616 C   0  0  0  0  0  0
  -28.5549  -19.7215   22.5636 C   0  0  0  0  0  0
  -29.2052  -20.6558   21.7093 C   0  0  0  0  0  0
  -28.9435  -16.2904   18.9394 C   0  0  0  0  0  0
  -28.9947  -16.1534   20.2774 C   0  0  0  0  0  0
  -28.3097  -17.3732   23.5322 C   0  0  0  0  0  0
  -27.3278  -20.1687   23.3612 C   0  0  0  0  0  0
  -30.7446  -16.5511   21.9289 C   0  0  0  0  0  0
  -29.6368  -24.6818   20.5570 C   0  0  0  0  0  0
  -28.3220  -25.3032   20.0449 C   0  0  0  0  0  0
  -29.6316  -23.2069   20.5129 N   0  0  0  0  0  0
  -30.0613  -15.6027   21.0111 N   0  0  0  0  0  0
  -27.2695  -22.3125   20.8569 O   0  0  0  0  0  0
  -28.6595  -23.0117   22.8679 O   0  0  0  0  0  0
  -28.5632  -22.3525   21.5535 S   0  0  0  0  0  0
  -31.4771  -12.3960   19.1486 H   0  0  0  0  0  0
  -30.3212  -11.3206   19.8751 H   0  0  0  0  0  0
  -29.7561  -11.7335   17.4524 H   0  0  0  0  0  0
  -29.6616  -13.4467   17.7521 H   0  0  0  0  0  0
  -27.8837  -11.2534   18.8903 H   0  0  0  0  0  0
  -27.3671  -12.5084   17.7952 H   0  0  0  0  0  0
  -27.6346  -14.1868   19.4710 H   0  0  0  0  0  0
  -28.6943  -12.0449   21.4062 H   0  0  0  0  0  0
  -28.4666  -13.7184   21.8192 H   0  0  0  0  0  0
  -25.2727   -9.5598   22.4745 H   0  0  0  0  0  0
  -23.9924   -7.4575   22.7487 H   0  0  0  0  0  0
  -21.0759   -8.8729   19.9013 H   0  0  0  0  0  0
  -22.3620  -10.9618   19.6183 H   0  0  0  0  0  0
  -21.1980   -7.6113   23.9683 H   0  0  0  0  0  0
  -21.1520   -6.0521   25.9069 H   0  0  0  0  0  0
  -22.0580   -2.7579   23.2872 H   0  0  0  0  0  0
  -22.4017  -11.9972   22.4968 H   0  0  0  0  0  0
  -21.1066  -13.1319   22.2610 H   0  0  0  0  0  0
  -24.6435  -15.8242   20.4682 H   0  0  0  0  0  0
  -26.2439  -15.6023   19.9861 H   0  0  0  0  0  0
  -26.7140  -32.5555   23.1190 H   0  0  0  0  0  0
  -25.0118  -33.9818   25.0509 H   0  0  0  0  0  0
  -22.6874  -31.3062   21.4159 H   0  0  0  0  0  0
  -23.3704  -35.9688   23.3308 H   0  0  0  0  0  0
  -24.3548  -36.8933   22.2040 H   0  0  0  0  0  0
  -23.7248  -37.6546   23.6645 H   0  0  0  0  0  0
  -26.0256  -31.5995   20.5793 H   0  0  0  0  0  0
  -26.8228  -30.9062   21.9636 H   0  0  0  0  0  0
  -28.0918  -29.1100   21.1598 H   0  0  0  0  0  0
  -26.0356  -25.9748   19.0087 H   0  0  0  0  0  0
  -23.9703  -27.2910   19.0446 H   0  0  0  0  0  0
  -23.7292  -30.6030   19.4095 H   0  0  0  0  0  0
  -22.7318  -29.2522   19.8619 H   0  0  0  0  0  0
  -25.1266  -36.1954   25.0817 H   0  0  0  0  0  0
  -20.9973  -28.3220   24.1451 H   0  0  0  0  0  0
  -20.5636  -26.2271   23.3619 H   0  0  0  0  0  0
  -21.6618  -26.7435   22.1221 H   0  0  0  0  0  0
  -19.6847  -25.6315   21.1255 H   0  0  0  0  0  0
  -19.6652  -27.3213   20.6762 H   0  0  0  0  0  0
  -17.4168  -26.6726   21.4048 H   0  0  0  0  0  0
  -18.0283  -26.0110   22.9043 H   0  0  0  0  0  0
  -19.7911  -30.7298   24.2304 H   0  0  0  0  0  0
  -17.4985  -31.6280   24.5187 H   0  0  0  0  0  0
  -15.5331  -30.3014   23.7643 H   0  0  0  0  0  0
  -15.8668  -28.0874   22.7018 H   0  0  0  0  0  0
  -24.5951  -30.7061   25.7888 H   0  0  0  0  0  0
  -24.8944  -32.2905   26.4934 H   0  0  0  0  0  0
  -25.8151  -30.8970   27.0275 H   0  0  0  0  0  0
  -26.2836  -29.6860   24.1121 H   0  0  0  0  0  0
  -27.4011  -29.7287   25.4582 H   0  0  0  0  0  0
  -27.8700  -30.4383   23.9284 H   0  0  0  0  0  0
  -27.2671  -33.3629   26.2123 H   0  0  0  0  0  0
  -28.3882  -32.6896   25.0383 H   0  0  0  0  0  0
  -28.0693  -31.8443   26.5443 H   0  0  0  0  0  0
  -28.2582  -38.0113   24.7496 H   0  0  0  0  0  0
  -28.1058  -36.2643   24.6287 H   0  0  0  0  0  0
  -27.2300  -37.1476   25.8871 H   0  0  0  0  0  0
  -20.9277  -29.8816   21.7051 H   0  0  0  0  0  0
  -26.0138  -38.2863   24.1458 H   0  0  0  0  0  0
  -31.6917  -18.6536   20.4937 H   0  0  0  0  0  0
  -30.8359  -20.9563   20.3145 H   0  0  0  0  0  0
  -28.0811  -16.7436   18.4706 H   0  0  0  0  0  0
  -29.7484  -15.9641   18.2964 H   0  0  0  0  0  0
  -28.1835  -16.4952   20.9060 H   0  0  0  0  0  0
  -27.2547  -17.3401   23.2589 H   0  0  0  0  0  0
  -28.3852  -17.6499   24.5839 H   0  0  0  0  0  0
  -28.6629  -16.3506   23.4364 H   0  0  0  0  0  0
  -26.8245  -19.3809   23.9156 H   0  0  0  0  0  0
  -26.5807  -20.6000   22.6936 H   0  0  0  0  0  0
  -27.6007  -20.9268   24.0956 H   0  0  0  0  0  0
  -30.7368  -16.1546   22.9431 H   0  0  0  0  0  0
  -31.8087  -16.6025   21.6878 H   0  0  0  0  0  0
  -29.8083  -25.0079   21.5836 H   0  0  0  0  0  0
  -30.4747  -25.0515   19.9661 H   0  0  0  0  0  0
  -27.4950  -24.9645   20.6733 H   0  0  0  0  0  0
  -28.1272  -24.9877   19.0178 H   0  0  0  0  0  0
  -29.5284  -22.8564   19.5589 H   0  0  0  0  0  0
  1 25  1  0  0  0
  1 30  2  0  0  0
  1 85  1  0  0  0
  2  3  1  0  0  0
  2 25  1  0  0  0
  2 89  1  0  0  0
  2 90  1  0  0  0
  3  4  1  0  0  0
  3 91  1  0  0  0
  3 92  1  0  0  0
  4  5  1  0  0  0
  4 93  1  0  0  0
  4 94  1  0  0  0
  5  6  1  0  0  0
  5 26  1  0  0  0
  5 95  1  0  0  0
  6 25  1  0  0  0
  6 96  1  0  0  0
  6 97  1  0  0  0
  7  8  2  0  0  0
  7 26  1  0  0  0
  7 29  1  0  0  0
  8  9  1  0  0  0
  8 22  1  0  0  0
  9 10  1  0  0  0
  9 27  2  0  0  0
 10 11  2  0  0  0
 10 15  1  0  0  0
 11 12  1  0  0  0
 11 98  1  0  0  0
 12 13  2  0  0  0
 12 99  1  0  0  0
 13 14  1  0  0  0
 13 31  1  0  0  0
 14 15  2  0  0  0
 14100  1  0  0  0
 15101  1  0  0  0
 16 17  2  0  0  0
 16 21  1  0  0  0
 16 31  1  0  0  0
 17 18  1  0  0  0
 17102  1  0  0  0
 18 19  2  0  0  0
 18103  1  0  0  0
 19 20  1  0  0  0
 19 24  1  0  0  0
 20 21  2  0  0  0
 20104  1  0  0  0
 21 23  1  0  0  0
 22 28  1  0  0  0
 22 32  2  0  0  0
 26 27  1  0  0  0
 28105  1  0  0  0
 28106  1  0  0  0
 29107  1  0  0  0
 29108  1  0  0  0
 33 34  1  0  0  0
 33 66  1  0  0  0
 33 70  2  0  0  0
 34 36  1  0  0  0
 34 59  1  0  0  0
 34109  1  0  0  0
 35 44  2  0  0  0
 35 45  1  0  0  0
 35 68  1  0  0  0
 36 56  1  0  0  0
 36110  1  0  0  0
 37 39  1  0  0  0
 37 47  1  0  0  0
 37 66  1  0  0  0
 37111  1  0  0  0
 38 43  2  0  0  0
 38 46  1  0  0  0
 38 47  1  0  0  0
 39 64  1  0  0  0
 39 67  2  0  0  0
 40 52  1  0  0  0
 40 53  2  0  0  0
 40 58  1  0  0  0
 41112  1  0  0  0
 41113  1  0  0  0
 41114  1  0  0  0
 41 48  1  0  0  0
 42 43  1  0  0  0
 42 66  1  0  0  0
 42115  1  0  0  0
 42116  1  0  0  0
 43 44  1  0  0  0
 44117  1  0  0  0
 45 46  2  0  0  0
 45118  1  0  0  0
 46119  1  0  0  0
 47120  1  0  0  0
 47121  1  0  0  0
 48 56  1  0  0  0
 48 65  1  0  0  0
 48122  1  0  0  0
 49 50  1  0  0  0
 49 53  1  0  0  0
 49 64  1  0  0  0
 49123  1  0  0  0
 50 51  1  0  0  0
 50124  1  0  0  0
 50125  1  0  0  0
 51 52  1  0  0  0
 51126  1  0  0  0
 51127  1  0  0  0
 52128  1  0  0  0
 52129  1  0  0  0
 53 54  1  0  0  0
 54 55  2  0  0  0
 54130  1  0  0  0
 55 57  1  0  0  0
 55131  1  0  0  0
 56 69  2  0  0  0
 57 58  2  0  0  0
 57132  1  0  0  0
 58133  1  0  0  0
 59 60  1  0  0  0
 59 61  1  0  0  0
 59 62  1  0  0  0
 60134  1  0  0  0
 60135  1  0  0  0
 60136  1  0  0  0
 61137  1  0  0  0
 61138  1  0  0  0
 61139  1  0  0  0
 62140  1  0  0  0
 62141  1  0  0  0
 62142  1  0  0  0
 63 65  1  0  0  0
 63143  1  0  0  0
 63144  1  0  0  0
 63145  1  0  0  0
 64146  1  0  0  0
 65147  1  0  0  0
 68 83  1  0  0  0
 71 72  2  0  0  0
 71 73  1  0  0  0
 71148  1  0  0  0
 72 76  1  0  0  0
 72149  1  0  0  0
 73 74  2  0  0  0
 73 81  1  0  0  0
 74 75  1  0  0  0
 74 79  1  0  0  0
 75 76  2  0  0  0
 75 80  1  0  0  0
 76 88  1  0  0  0
 77 78  2  0  0  0
 77150  1  0  0  0
 77151  1  0  0  0
 78 85  1  0  0  0
 78152  1  0  0  0
 79153  1  0  0  0
 79154  1  0  0  0
 79155  1  0  0  0
 80156  1  0  0  0
 80157  1  0  0  0
 80158  1  0  0  0
 81 85  1  0  0  0
 81159  1  0  0  0
 81160  1  0  0  0
 82 83  1  0  0  0
 82 84  1  0  0  0
 82161  1  0  0  0
 82162  1  0  0  0
 83163  1  0  0  0
 83164  1  0  0  0
 84165  1  0  0  0
 84 88  1  0  0  0
 86 88  2  0  0  0
 87 88  2  0  0  0
M  ISO  4   1 100  68 101  83 101  85 100
M  END
> <chiral flag>
0

> <version>
0

> <s_m_source_file>
/data/baiqing/PycharmProjects/Reinvent-master-3.2/result/LINK_invent/BTK/process_docking_weight1_custom_product_contain_oxygen_bond_distance_aromatic_linkinvent_7_9_3/rearranged_h_0052.sdf

> <i_m_source_file_index>
50

> <r_mmod_Potential_Energy-OPLS-2005>
68.1743545532227

> <r_mmod_Stretch_Energy-OPLS-2005>
44.3559455871582

> <r_mmod_Bend_Energy-OPLS-2005>
105.69408416748

> <r_mmod_Torsional_Energy-OPLS-2005>
311.697509765625

> <r_mmod_Improper_Torsional_Energy-OPLS-2005>
9.37079334259033

> <r_mmod_Van_der_Waal_Energy-OPLS-2005>
172.028701782227

> <r_mmod_Electrostatic_Energy-OPLS-2005>
-371.547454833984

> <r_mmod_Solvation_Energy-OPLS-2005>
-223.899429321289

> <b_mmod_Minimization_Converged-OPLS-2005>
0

> <r_mmod_RMS_Derivative-OPLS-2005>
3.6758394241333

$$$$
50
                    3D
 Structure written by MMmdl.
154162  0  0  1  0            999 V2000
  -30.6043  -14.7458   20.4650 C   0  0  0  0  0  0
  -30.4350  -12.4581   19.4640 C   0  0  0  0  0  0
  -29.5079  -12.5041   18.2297 C   0  0  0  0  0  0
  -28.0347  -12.3257   18.6470 C   0  0  0  0  0  0
  -27.6399  -13.2275   19.8469 C   0  0  2  0  0  0
  -28.6865  -13.1624   20.9797 C   0  0  0  0  0  0
  -25.2506  -13.8183   20.5691 C   0  0  0  0  0  0
  -24.1798  -13.0433   20.9213 C   0  0  0  0  0  0
  -24.6385  -11.6910   20.8749 C   0  0  0  0  0  0
  -23.9060  -10.4289   21.0409 C   0  0  0  0  0  0
  -24.3614   -9.4206   21.9186 C   0  0  0  0  0  0
  -23.6292   -8.2240   22.0753 C   0  0  0  0  0  0
  -22.4274   -8.0276   21.3543 C   0  0  0  0  0  0
  -21.9908   -9.0248   20.4645 C   0  0  0  0  0  0
  -22.7233  -10.2130   20.3056 C   0  0  0  0  0  0
  -21.6853   -6.0732   22.5278 C   0  0  0  0  0  0
  -21.4014   -6.5637   23.8211 C   0  0  0  0  0  0
  -21.3659   -5.6791   24.9174 C   0  0  0  0  0  0
  -21.6044   -4.3054   24.7225 C   0  0  0  0  0  0
  -21.8819   -3.8144   23.4347 C   0  0  0  0  0  0
  -21.9193   -4.6960   22.3402 C   0  0  0  0  0  0
  -22.7821  -13.5218   21.1872 C   0  0  0  0  0  0
  -22.1662   -4.2145   21.0981 F   0  0  0  0  0  0
  -21.5628   -3.4538   25.7738 F   0  0  0  0  0  0
  -29.9832  -13.5191   20.3916 N   0  0  0  0  0  0
  -26.2925  -12.9382   20.3266 N   0  0  0  0  0  0
  -25.9312  -11.6529   20.5747 N   0  0  0  0  0  0
  -22.0467  -12.8208   22.0428 N   0  0  0  0  0  0
  -25.4183  -15.1909   20.4100 N   0  0  0  0  0  0
  -31.8038  -14.8383   20.1869 O   0  0  0  0  0  0
  -21.6639   -6.8873   21.4239 O   0  0  0  0  0  0
  -22.3508  -14.5525   20.6718 O   0  0  0  0  0  0
  -24.6308  -31.8547   23.1970 C   0  0  0  0  0  0
  -25.9132  -32.4752   23.8321 C   0  0  1  0  0  0
  -27.2219  -27.2667   20.1386 C   0  0  0  0  0  0
  -25.5929  -33.8553   24.2249 N   0  0  0  0  0  0
  -23.4281  -30.4755   21.5400 C   0  0  2  0  0  0
  -24.8765  -28.9172   20.1141 C   0  0  0  0  0  0
  -22.7501  -29.4599   22.4912 C   0  0  0  0  0  0
  -18.0292  -28.1390   22.8486 C   0  0  0  0  0  0
  -24.1489  -36.7281   23.2640 C   0  0  0  0  0  0
  -25.9724  -30.7708   21.3741 C   0  0  0  0  0  0
  -26.0478  -29.3914   20.7202 C   0  0  0  0  0  0
  -27.2273  -28.5802   20.7163 C   0  0  0  0  0  0
  -26.0307  -26.8524   19.5095 C   0  0  0  0  0  0
  -24.8724  -27.6555   19.4967 C   0  0  0  0  0  0
  -23.6468  -29.8043   20.1579 C   0  0  0  0  0  0
  -25.4116  -36.3065   24.0327 C   0  0  1  0  0  0
  -20.5896  -28.3699   23.1272 C   0  0  2  0  0  0
  -20.6780  -26.9417   22.5409 C   0  0  0  0  0  0
  -19.5755  -26.6386   21.5213 C   0  0  0  0  0  0
  -18.1935  -26.7932   22.1625 C   0  0  0  0  0  0
  -19.1546  -28.8861   23.2873 C   0  0  0  0  0  0
  -18.9466  -30.1462   23.8890 C   0  0  0  0  0  0
  -17.6464  -30.6589   24.0562 C   0  0  0  0  0  0
  -25.9056  -34.9437   23.5091 C   0  0  0  0  0  0
  -16.5355  -29.9086   23.6333 C   0  0  0  0  0  0
  -16.7279  -28.6504   23.0354 C   0  0  0  0  0  0
  -26.4502  -31.6579   25.0711 C   0  0  0  0  0  0
  -25.3726  -31.3730   26.1432 C   0  0  0  0  0  0
  -27.0348  -30.2996   24.6191 C   0  0  0  0  0  0
  -27.6053  -32.4322   25.7487 C   0  0  0  0  0  0
  -27.5579  -37.1793   24.8464 C   0  0  0  0  0  0
  -21.4208  -29.3043   22.3658 N   0  0  0  0  0  0
  -26.4288  -37.3766   23.9411 N   0  0  0  0  0  0
  -24.6962  -31.0517   22.0938 N   0  0  0  0  0  0
  -23.4201  -28.8145   23.3015 O   0  0  0  0  0  0
  -28.3140  -26.3752   20.1419 O   0  0  0  0  0  0
  -26.5626  -34.8916   22.4658 O   0  0  0  0  0  0
  -23.5459  -32.1361   23.7270 O   0  0  0  0  0  0
  -31.6411  -19.0377   21.6643 C   0  0  0  0  0  0
  -30.8127  -20.0919   21.2227 C   0  0  0  0  0  0
  -31.3148  -17.6842   21.4286 C   0  0  0  0  0  0
  -29.2902  -18.4269   20.3130 C   0  0  0  0  0  0
  -29.6134  -19.8339   20.5293 C   0  0  0  0  0  0
  -30.1330  -17.3178   20.7459 C   0  0  0  0  0  0
  -28.5871  -23.6938   20.0126 C   0  0  0  0  0  0
  -28.4630  -22.3594   22.0912 C   0  0  0  0  0  0
  -28.7716  -21.0695   19.9592 C   0  0  0  0  0  0
  -28.1321  -25.0291   20.7906 C   0  0  0  0  0  0
  -29.8010  -15.8761   20.5849 N   0  0  0  0  0  0
  -28.6774  -22.4446   20.6445 N   0  0  0  0  0  0
  -28.8068  -23.7945   18.8015 O   0  0  0  0  0  0
  -31.4737  -12.5926   19.1571 H   0  0  0  0  0  0
  -30.3886  -11.4818   19.9489 H   0  0  0  0  0  0
  -29.7906  -11.7299   17.5151 H   0  0  0  0  0  0
  -29.6303  -13.4572   17.7124 H   0  0  0  0  0  0
  -27.8946  -11.2775   18.9133 H   0  0  0  0  0  0
  -27.3751  -12.5136   17.7989 H   0  0  0  0  0  0
  -27.6320  -14.2474   19.4628 H   0  0  0  0  0  0
  -28.7261  -12.1641   21.4182 H   0  0  0  0  0  0
  -28.4228  -13.8436   21.7905 H   0  0  0  0  0  0
  -25.2758   -9.5686   22.4763 H   0  0  0  0  0  0
  -24.0001   -7.4630   22.7473 H   0  0  0  0  0  0
  -21.0839   -8.8764   19.8952 H   0  0  0  0  0  0
  -22.3686  -10.9668   19.6167 H   0  0  0  0  0  0
  -21.2007   -7.6146   23.9712 H   0  0  0  0  0  0
  -21.1481   -6.0523   25.9076 H   0  0  0  0  0  0
  -22.0599   -2.7606   23.2848 H   0  0  0  0  0  0
  -22.4087  -11.9871   22.4815 H   0  0  0  0  0  0
  -21.1085  -13.1230   22.2634 H   0  0  0  0  0  0
  -24.6465  -15.8400   20.5194 H   0  0  0  0  0  0
  -26.2568  -15.6336   20.0584 H   0  0  0  0  0  0
  -26.7200  -32.5406   23.1067 H   0  0  0  0  0  0
  -25.0085  -33.9691   25.0401 H   0  0  0  0  0  0
  -22.7246  -31.2974   21.3916 H   0  0  0  0  0  0
  -23.3754  -35.9610   23.3295 H   0  0  0  0  0  0
  -24.3582  -36.8908   22.2056 H   0  0  0  0  0  0
  -23.7239  -37.6479   23.6668 H   0  0  0  0  0  0
  -26.1079  -31.5305   20.6029 H   0  0  0  0  0  0
  -26.8512  -30.8232   22.0054 H   0  0  0  0  0  0
  -28.1282  -28.9413   21.1924 H   0  0  0  0  0  0
  -25.9911  -25.8822   19.0339 H   0  0  0  0  0  0
  -23.9759  -27.2877   19.0164 H   0  0  0  0  0  0
  -23.7714  -30.5775   19.3989 H   0  0  0  0  0  0
  -22.7659  -29.2358   19.8545 H   0  0  0  0  0  0
  -25.1299  -36.1907   25.0819 H   0  0  0  0  0  0
  -20.9991  -28.3274   24.1392 H   0  0  0  0  0  0
  -20.5680  -26.2308   23.3612 H   0  0  0  0  0  0
  -21.6649  -26.7441   22.1202 H   0  0  0  0  0  0
  -19.6913  -25.6294   21.1249 H   0  0  0  0  0  0
  -19.6693  -27.3192   20.6739 H   0  0  0  0  0  0
  -17.4206  -26.6681   21.4027 H   0  0  0  0  0  0
  -18.0333  -26.0077   22.9024 H   0  0  0  0  0  0
  -19.7941  -30.7282   24.2256 H   0  0  0  0  0  0
  -17.5019  -31.6270   24.5164 H   0  0  0  0  0  0
  -15.5356  -30.2984   23.7662 H   0  0  0  0  0  0
  -15.8681  -28.0821   22.7071 H   0  0  0  0  0  0
  -24.5896  -30.7086   25.7761 H   0  0  0  0  0  0
  -24.8925  -32.2902   26.4853 H   0  0  0  0  0  0
  -25.8043  -30.8908   27.0210 H   0  0  0  0  0  0
  -26.2926  -29.6744   24.1213 H   0  0  0  0  0  0
  -27.4031  -29.7259   25.4705 H   0  0  0  0  0  0
  -27.8805  -30.4277   23.9429 H   0  0  0  0  0  0
  -27.2656  -33.3628   26.2048 H   0  0  0  0  0  0
  -28.3872  -32.6872   25.0321 H   0  0  0  0  0  0
  -28.0710  -31.8456   26.5415 H   0  0  0  0  0  0
  -28.2587  -38.0100   24.7520 H   0  0  0  0  0  0
  -28.1083  -36.2630   24.6278 H   0  0  0  0  0  0
  -27.2300  -37.1429   25.8867 H   0  0  0  0  0  0
  -20.9392  -29.8760   21.6859 H   0  0  0  0  0  0
  -26.0163  -38.2837   24.1419 H   0  0  0  0  0  0
  -32.5542  -19.2729   22.1931 H   0  0  0  0  0  0
  -31.1182  -21.1130   21.4069 H   0  0  0  0  0  0
  -31.9870  -16.9242   21.8013 H   0  0  0  0  0  0
  -28.3771  -18.1962   19.7828 H   0  0  0  0  0  0
  -29.2870  -22.8302   22.6286 H   0  0  0  0  0  0
  -28.3930  -21.3285   22.4383 H   0  0  0  0  0  0
  -27.5340  -22.8482   22.3871 H   0  0  0  0  0  0
  -27.7460  -20.7216   19.8310 H   0  0  0  0  0  0
  -29.1389  -21.2289   18.9446 H   0  0  0  0  0  0
  -28.6922  -25.0713   21.7245 H   0  0  0  0  0  0
  -27.0903  -24.8936   21.0829 H   0  0  0  0  0  0
  -28.8150  -15.6681   20.5693 H   0  0  0  0  0  0
  1 25  1  0  0  0
  1 30  2  0  0  0
  1 81  1  0  0  0
  2  3  1  0  0  0
  2 25  1  0  0  0
  2 84  1  0  0  0
  2 85  1  0  0  0
  3  4  1  0  0  0
  3 86  1  0  0  0
  3 87  1  0  0  0
  4  5  1  0  0  0
  4 88  1  0  0  0
  4 89  1  0  0  0
  5  6  1  0  0  0
  5 26  1  0  0  0
  5 90  1  0  0  0
  6 25  1  0  0  0
  6 91  1  0  0  0
  6 92  1  0  0  0
  7  8  2  0  0  0
  7 26  1  0  0  0
  7 29  1  0  0  0
  8  9  1  0  0  0
  8 22  1  0  0  0
  9 10  1  0  0  0
  9 27  2  0  0  0
 10 11  2  0  0  0
 10 15  1  0  0  0
 11 12  1  0  0  0
 11 93  1  0  0  0
 12 13  2  0  0  0
 12 94  1  0  0  0
 13 14  1  0  0  0
 13 31  1  0  0  0
 14 15  2  0  0  0
 14 95  1  0  0  0
 15 96  1  0  0  0
 16 17  2  0  0  0
 16 21  1  0  0  0
 16 31  1  0  0  0
 17 18  1  0  0  0
 17 97  1  0  0  0
 18 19  2  0  0  0
 18 98  1  0  0  0
 19 20  1  0  0  0
 19 24  1  0  0  0
 20 21  2  0  0  0
 20 99  1  0  0  0
 21 23  1  0  0  0
 22 28  1  0  0  0
 22 32  2  0  0  0
 26 27  1  0  0  0
 28100  1  0  0  0
 28101  1  0  0  0
 29102  1  0  0  0
 29103  1  0  0  0
 33 34  1  0  0  0
 33 66  1  0  0  0
 33 70  2  0  0  0
 34 36  1  0  0  0
 34 59  1  0  0  0
 34104  1  0  0  0
 35 44  2  0  0  0
 35 45  1  0  0  0
 35 68  1  0  0  0
 36 56  1  0  0  0
 36105  1  0  0  0
 37 39  1  0  0  0
 37 47  1  0  0  0
 37 66  1  0  0  0
 37106  1  0  0  0
 38 43  2  0  0  0
 38 46  1  0  0  0
 38 47  1  0  0  0
 39 64  1  0  0  0
 39 67  2  0  0  0
 40 52  1  0  0  0
 40 53  2  0  0  0
 40 58  1  0  0  0
 41107  1  0  0  0
 41108  1  0  0  0
 41109  1  0  0  0
 41 48  1  0  0  0
 42 43  1  0  0  0
 42 66  1  0  0  0
 42110  1  0  0  0
 42111  1  0  0  0
 43 44  1  0  0  0
 44112  1  0  0  0
 45 46  2  0  0  0
 45113  1  0  0  0
 46114  1  0  0  0
 47115  1  0  0  0
 47116  1  0  0  0
 48 56  1  0  0  0
 48 65  1  0  0  0
 48117  1  0  0  0
 49 50  1  0  0  0
 49 53  1  0  0  0
 49 64  1  0  0  0
 49118  1  0  0  0
 50 51  1  0  0  0
 50119  1  0  0  0
 50120  1  0  0  0
 51 52  1  0  0  0
 51121  1  0  0  0
 51122  1  0  0  0
 52123  1  0  0  0
 52124  1  0  0  0
 53 54  1  0  0  0
 54 55  2  0  0  0
 54125  1  0  0  0
 55 57  1  0  0  0
 55126  1  0  0  0
 56 69  2  0  0  0
 57 58  2  0  0  0
 57127  1  0  0  0
 58128  1  0  0  0
 59 60  1  0  0  0
 59 61  1  0  0  0
 59 62  1  0  0  0
 60129  1  0  0  0
 60130  1  0  0  0
 60131  1  0  0  0
 61132  1  0  0  0
 61133  1  0  0  0
 61134  1  0  0  0
 62135  1  0  0  0
 62136  1  0  0  0
 62137  1  0  0  0
 63 65  1  0  0  0
 63138  1  0  0  0
 63139  1  0  0  0
 63140  1  0  0  0
 64141  1  0  0  0
 65142  1  0  0  0
 68 80  1  0  0  0
 71 72  2  0  0  0
 71 73  1  0  0  0
 71143  1  0  0  0
 72 75  1  0  0  0
 72144  1  0  0  0
 73 76  2  0  0  0
 73145  1  0  0  0
 74 75  2  0  0  0
 74 76  1  0  0  0
 74146  1  0  0  0
 75 79  1  0  0  0
 76 81  1  0  0  0
 77 80  1  0  0  0
 77 82  1  0  0  0
 77 83  2  0  0  0
 78 82  1  0  0  0
 78147  1  0  0  0
 78148  1  0  0  0
 78149  1  0  0  0
 79 82  1  0  0  0
 79150  1  0  0  0
 79151  1  0  0  0
 80152  1  0  0  0
 80153  1  0  0  0
 81154  1  0  0  0
M  ISO  4   1 100  68 101  80 101  81 100
M  END
> <chiral flag>
0

> <version>
0

> <s_m_source_file>
/data/baiqing/PycharmProjects/Reinvent-master-3.2/result/LINK_invent/BTK/process_docking_weight1_custom_product_contain_oxygen_bond_distance_aromatic_linkinvent_7_9_3/rearranged_h_0052.sdf

> <i_m_source_file_index>
51

> <r_mmod_Potential_Energy-OPLS-2005>
183.411819458008

> <r_mmod_Stretch_Energy-OPLS-2005>
128.146820068359

> <r_mmod_Bend_Energy-OPLS-2005>
154.421768188477

> <r_mmod_Torsional_Energy-OPLS-2005>
251.719131469727

> <r_mmod_Improper_Torsional_Energy-OPLS-2005>
7.05554056167603

> <r_mmod_Van_der_Waal_Energy-OPLS-2005>
137.242706298828

> <r_mmod_Electrostatic_Energy-OPLS-2005>
-338.717254638672

> <r_mmod_Solvation_Energy-OPLS-2005>
-240.628173828125

> <b_mmod_Minimization_Converged-OPLS-2005>
0

> <r_mmod_RMS_Derivative-OPLS-2005>
0.353999942541122

$$$$
51
                    3D
 Structure written by MMmdl.
157165  0  0  1  0            999 V2000
  -30.6615  -14.5443   20.5585 C   0  0  0  0  0  0
  -30.4330  -12.3521   19.4222 C   0  0  0  0  0  0
  -29.4966  -12.5046   18.2049 C   0  0  0  0  0  0
  -28.0196  -12.3510   18.6222 C   0  0  0  0  0  0
  -27.6557  -13.2072   19.8647 C   0  0  2  0  0  0
  -28.7003  -13.0170   20.9858 C   0  0  0  0  0  0
  -25.2574  -13.8155   20.5673 C   0  0  0  0  0  0
  -24.1832  -13.0432   20.9182 C   0  0  0  0  0  0
  -24.6387  -11.6900   20.8736 C   0  0  0  0  0  0
  -23.9056  -10.4288   21.0407 C   0  0  0  0  0  0
  -24.3611   -9.4204   21.9185 C   0  0  0  0  0  0
  -23.6288   -8.2240   22.0754 C   0  0  0  0  0  0
  -22.4270   -8.0278   21.3544 C   0  0  0  0  0  0
  -21.9903   -9.0252   20.4647 C   0  0  0  0  0  0
  -22.7230  -10.2131   20.3056 C   0  0  0  0  0  0
  -21.6851   -6.0734   22.5280 C   0  0  0  0  0  0
  -21.4013   -6.5639   23.8213 C   0  0  0  0  0  0
  -21.3659   -5.6792   24.9176 C   0  0  0  0  0  0
  -21.6044   -4.3055   24.7226 C   0  0  0  0  0  0
  -21.8820   -3.8146   23.4348 C   0  0  0  0  0  0
  -21.9192   -4.6962   22.3403 C   0  0  0  0  0  0
  -22.7857  -13.5233   21.1851 C   0  0  0  0  0  0
  -22.1661   -4.2148   21.0981 F   0  0  0  0  0  0
  -21.5629   -3.4539   25.7739 F   0  0  0  0  0  0
  -30.0191  -13.3489   20.4231 N   0  0  0  0  0  0
  -26.2995  -12.9320   20.3319 N   0  0  0  0  0  0
  -25.9310  -11.6483   20.5750 N   0  0  0  0  0  0
  -22.0498  -12.8227   22.0408 N   0  0  0  0  0  0
  -25.4298  -15.1875   20.4085 N   0  0  0  0  0  0
  -31.8167  -14.7241   20.1638 O   0  0  0  0  0  0
  -21.6636   -6.8875   21.4240 O   0  0  0  0  0  0
  -22.3544  -14.5543   20.6703 O   0  0  0  0  0  0
  -24.6190  -31.8649   23.2065 C   0  0  0  0  0  0
  -25.9067  -32.4805   23.8376 C   0  0  1  0  0  0
  -27.2303  -27.3873   20.1107 C   0  0  0  0  0  0
  -25.5909  -33.8603   24.2308 N   0  0  0  0  0  0
  -23.4092  -30.4874   21.5486 C   0  0  2  0  0  0
  -24.8557  -28.9425   20.1215 C   0  0  0  0  0  0
  -22.7430  -29.4649   22.4981 C   0  0  0  0  0  0
  -18.0274  -28.1378   22.8492 C   0  0  0  0  0  0
  -24.1489  -36.7309   23.2639 C   0  0  0  0  0  0
  -25.9424  -30.8162   21.3662 C   0  0  0  0  0  0
  -26.0199  -29.4447   20.7179 C   0  0  0  0  0  0
  -27.2132  -28.6767   20.7045 C   0  0  0  0  0  0
  -26.0480  -26.9093   19.5108 C   0  0  0  0  0  0
  -24.8665  -27.6753   19.5142 C   0  0  0  0  0  0
  -23.6208  -29.8166   20.1656 C   0  0  0  0  0  0
  -25.4110  -36.3101   24.0334 C   0  0  1  0  0  0
  -20.5867  -28.3673   23.1307 C   0  0  2  0  0  0
  -20.6767  -26.9406   22.5416 C   0  0  0  0  0  0
  -19.5746  -26.6386   21.5213 C   0  0  0  0  0  0
  -18.1922  -26.7924   22.1624 C   0  0  0  0  0  0
  -19.1524  -28.8842   23.2896 C   0  0  0  0  0  0
  -18.9453  -30.1446   23.8909 C   0  0  0  0  0  0
  -17.6456  -30.6587   24.0565 C   0  0  0  0  0  0
  -25.9041  -34.9467   23.5121 C   0  0  0  0  0  0
  -16.5346  -29.9089   23.6327 C   0  0  0  0  0  0
  -16.7263  -28.6503   23.0352 C   0  0  0  0  0  0
  -26.4481  -31.6590   25.0715 C   0  0  0  0  0  0
  -25.3737  -31.3701   26.1457 C   0  0  0  0  0  0
  -27.0314  -30.3027   24.6109 C   0  0  0  0  0  0
  -27.6054  -32.4313   25.7480 C   0  0  0  0  0  0
  -27.5580  -37.1808   24.8465 C   0  0  0  0  0  0
  -21.4154  -29.3037   22.3714 N   0  0  0  0  0  0
  -26.4294  -37.3787   23.9407 N   0  0  0  0  0  0
  -24.6753  -31.0715   22.0984 N   0  0  0  0  0  0
  -23.4182  -28.8193   23.3041 O   0  0  0  0  0  0
  -28.3836  -26.6220   20.0480 O   0  0  0  0  0  0
  -26.5608  -34.8926   22.4685 O   0  0  0  0  0  0
  -23.5372  -32.1423   23.7433 O   0  0  0  0  0  0
  -30.8649  -18.1720   19.3506 C   0  0  0  0  0  0
  -30.8075  -19.3172   18.5322 C   0  0  0  0  0  0
  -29.3070  -19.2325   20.8909 C   0  0  0  0  0  0
  -30.1265  -18.1138   20.5478 C   0  0  0  0  0  0
  -29.2284  -20.3974   20.0648 C   0  0  0  0  0  0
  -30.0035  -20.4219   18.8800 C   0  0  0  0  0  0
  -28.2863  -24.0676   20.1663 C   0  0  0  0  0  0
  -29.6255  -22.9226   21.9119 C   0  0  0  0  0  0
  -30.3188  -16.9054   21.4932 C   0  0  0  0  0  0
  -28.2326  -21.5472   20.3837 C   0  0  0  0  0  0
  -28.4631  -25.4439   20.9008 C   0  0  0  0  0  0
  -29.9020  -15.5610   21.0315 N   0  0  0  0  0  0
  -28.7439  -22.9064   20.7423 N   0  0  0  0  0  0
  -27.6610  -24.0504   19.1021 O   0  0  0  0  0  0
  -29.9652  -21.7776   17.8099 Cl  0  0  0  0  0  0
  -31.4733  -12.4781   19.1168 H   0  0  0  0  0  0
  -30.3630  -11.3467   19.8401 H   0  0  0  0  0  0
  -29.7474  -11.7665   17.4418 H   0  0  0  0  0  0
  -29.6474  -13.4825   17.7450 H   0  0  0  0  0  0
  -27.8461  -11.2961   18.8384 H   0  0  0  0  0  0
  -27.3637  -12.6003   17.7873 H   0  0  0  0  0  0
  -27.6888  -14.2495   19.5468 H   0  0  0  0  0  0
  -28.6978  -11.9843   21.3376 H   0  0  0  0  0  0
  -28.4544  -13.6231   21.8589 H   0  0  0  0  0  0
  -25.2757   -9.5682   22.4756 H   0  0  0  0  0  0
  -23.9999   -7.4631   22.7472 H   0  0  0  0  0  0
  -21.0835   -8.8769   19.8953 H   0  0  0  0  0  0
  -22.3689  -10.9670   19.6164 H   0  0  0  0  0  0
  -21.2004   -7.6147   23.9716 H   0  0  0  0  0  0
  -21.1480   -6.0523   25.9079 H   0  0  0  0  0  0
  -22.0600   -2.7608   23.2849 H   0  0  0  0  0  0
  -22.4109  -11.9882   22.4790 H   0  0  0  0  0  0
  -21.1120  -13.1258   22.2621 H   0  0  0  0  0  0
  -24.6624  -15.8421   20.5158 H   0  0  0  0  0  0
  -26.2788  -15.6267   20.0750 H   0  0  0  0  0  0
  -26.7136  -32.5507   23.1136 H   0  0  0  0  0  0
  -25.0057  -33.9759   25.0452 H   0  0  0  0  0  0
  -22.6999  -31.3051   21.4058 H   0  0  0  0  0  0
  -23.3745  -35.9648   23.3313 H   0  0  0  0  0  0
  -24.3579  -36.8914   22.2051 H   0  0  0  0  0  0
  -23.7250  -37.6519   23.6649 H   0  0  0  0  0  0
  -26.0588  -31.5779   20.5941 H   0  0  0  0  0  0
  -26.8289  -30.8724   21.9864 H   0  0  0  0  0  0
  -28.1162  -29.0660   21.1540 H   0  0  0  0  0  0
  -26.0358  -25.9450   19.0256 H   0  0  0  0  0  0
  -23.9736  -27.2839   19.0465 H   0  0  0  0  0  0
  -23.7350  -30.5901   19.4050 H   0  0  0  0  0  0
  -22.7428  -29.2403   19.8681 H   0  0  0  0  0  0
  -25.1287  -36.1965   25.0827 H   0  0  0  0  0  0
  -20.9954  -28.3244   24.1430 H   0  0  0  0  0  0
  -20.5676  -26.2281   23.3606 H   0  0  0  0  0  0
  -21.6637  -26.7454   22.1205 H   0  0  0  0  0  0
  -19.6913  -25.6301   21.1236 H   0  0  0  0  0  0
  -19.6684  -27.3204   20.6748 H   0  0  0  0  0  0
  -17.4194  -26.6673   21.4025 H   0  0  0  0  0  0
  -18.0323  -26.0061   22.9015 H   0  0  0  0  0  0
  -19.7931  -30.7253   24.2288 H   0  0  0  0  0  0
  -17.5015  -31.6269   24.5162 H   0  0  0  0  0  0
  -15.5348  -30.2997   23.7645 H   0  0  0  0  0  0
  -15.8661  -28.0827   22.7065 H   0  0  0  0  0  0
  -24.5912  -30.7048   25.7790 H   0  0  0  0  0  0
  -24.8924  -32.2856   26.4909 H   0  0  0  0  0  0
  -25.8083  -30.8867   27.0215 H   0  0  0  0  0  0
  -26.2865  -29.6781   24.1164 H   0  0  0  0  0  0
  -27.4075  -29.7270   25.4577 H   0  0  0  0  0  0
  -27.8705  -30.4333   23.9270 H   0  0  0  0  0  0
  -27.2674  -33.3606   26.2077 H   0  0  0  0  0  0
  -28.3854  -32.6883   25.0300 H   0  0  0  0  0  0
  -28.0734  -31.8423   26.5378 H   0  0  0  0  0  0
  -28.2605  -38.0098   24.7507 H   0  0  0  0  0  0
  -28.1068  -36.2630   24.6300 H   0  0  0  0  0  0
  -27.2297  -37.1471   25.8869 H   0  0  0  0  0  0
  -20.9323  -29.8756   21.6928 H   0  0  0  0  0  0
  -26.0183  -38.2867   24.1401 H   0  0  0  0  0  0
  -31.5055  -17.3472   19.0704 H   0  0  0  0  0  0
  -31.3892  -19.3489   17.6220 H   0  0  0  0  0  0
  -28.7278  -19.1964   21.8031 H   0  0  0  0  0  0
  -29.1556  -23.4377   22.7508 H   0  0  0  0  0  0
  -30.5660  -23.4231   21.6784 H   0  0  0  0  0  0
  -29.8745  -21.9178   22.2541 H   0  0  0  0  0  0
  -29.7811  -17.1061   22.4206 H   0  0  0  0  0  0
  -31.3720  -16.8709   21.7779 H   0  0  0  0  0  0
  -27.5956  -21.2241   21.2080 H   0  0  0  0  0  0
  -27.5543  -21.6084   19.5315 H   0  0  0  0  0  0
  -29.4446  -25.4826   21.3709 H   0  0  0  0  0  0
  -27.7331  -25.5035   21.7096 H   0  0  0  0  0  0
  -28.9475  -15.3127   21.2407 H   0  0  0  0  0  0
  1 25  1  0  0  0
  1 30  2  0  0  0
  1 82  1  0  0  0
  2  3  1  0  0  0
  2 25  1  0  0  0
  2 86  1  0  0  0
  2 87  1  0  0  0
  3  4  1  0  0  0
  3 88  1  0  0  0
  3 89  1  0  0  0
  4  5  1  0  0  0
  4 90  1  0  0  0
  4 91  1  0  0  0
  5  6  1  0  0  0
  5 26  1  0  0  0
  5 92  1  0  0  0
  6 25  1  0  0  0
  6 93  1  0  0  0
  6 94  1  0  0  0
  7  8  2  0  0  0
  7 26  1  0  0  0
  7 29  1  0  0  0
  8  9  1  0  0  0
  8 22  1  0  0  0
  9 10  1  0  0  0
  9 27  2  0  0  0
 10 11  2  0  0  0
 10 15  1  0  0  0
 11 12  1  0  0  0
 11 95  1  0  0  0
 12 13  2  0  0  0
 12 96  1  0  0  0
 13 14  1  0  0  0
 13 31  1  0  0  0
 14 15  2  0  0  0
 14 97  1  0  0  0
 15 98  1  0  0  0
 16 17  2  0  0  0
 16 21  1  0  0  0
 16 31  1  0  0  0
 17 18  1  0  0  0
 17 99  1  0  0  0
 18 19  2  0  0  0
 18100  1  0  0  0
 19 20  1  0  0  0
 19 24  1  0  0  0
 20 21  2  0  0  0
 20101  1  0  0  0
 21 23  1  0  0  0
 22 28  1  0  0  0
 22 32  2  0  0  0
 26 27  1  0  0  0
 28102  1  0  0  0
 28103  1  0  0  0
 29104  1  0  0  0
 29105  1  0  0  0
 33 34  1  0  0  0
 33 66  1  0  0  0
 33 70  2  0  0  0
 34 36  1  0  0  0
 34 59  1  0  0  0
 34106  1  0  0  0
 35 44  2  0  0  0
 35 45  1  0  0  0
 35 68  1  0  0  0
 36 56  1  0  0  0
 36107  1  0  0  0
 37 39  1  0  0  0
 37 47  1  0  0  0
 37 66  1  0  0  0
 37108  1  0  0  0
 38 43  2  0  0  0
 38 46  1  0  0  0
 38 47  1  0  0  0
 39 64  1  0  0  0
 39 67  2  0  0  0
 40 52  1  0  0  0
 40 53  2  0  0  0
 40 58  1  0  0  0
 41109  1  0  0  0
 41110  1  0  0  0
 41111  1  0  0  0
 41 48  1  0  0  0
 42 43  1  0  0  0
 42 66  1  0  0  0
 42112  1  0  0  0
 42113  1  0  0  0
 43 44  1  0  0  0
 44114  1  0  0  0
 45 46  2  0  0  0
 45115  1  0  0  0
 46116  1  0  0  0
 47117  1  0  0  0
 47118  1  0  0  0
 48 56  1  0  0  0
 48 65  1  0  0  0
 48119  1  0  0  0
 49 50  1  0  0  0
 49 53  1  0  0  0
 49 64  1  0  0  0
 49120  1  0  0  0
 50 51  1  0  0  0
 50121  1  0  0  0
 50122  1  0  0  0
 51 52  1  0  0  0
 51123  1  0  0  0
 51124  1  0  0  0
 52125  1  0  0  0
 52126  1  0  0  0
 53 54  1  0  0  0
 54 55  2  0  0  0
 54127  1  0  0  0
 55 57  1  0  0  0
 55128  1  0  0  0
 56 69  2  0  0  0
 57 58  2  0  0  0
 57129  1  0  0  0
 58130  1  0  0  0
 59 60  1  0  0  0
 59 61  1  0  0  0
 59 62  1  0  0  0
 60131  1  0  0  0
 60132  1  0  0  0
 60133  1  0  0  0
 61134  1  0  0  0
 61135  1  0  0  0
 61136  1  0  0  0
 62137  1  0  0  0
 62138  1  0  0  0
 62139  1  0  0  0
 63 65  1  0  0  0
 63140  1  0  0  0
 63141  1  0  0  0
 63142  1  0  0  0
 64143  1  0  0  0
 65144  1  0  0  0
 68 81  1  0  0  0
 71 72  2  0  0  0
 71 74  1  0  0  0
 71145  1  0  0  0
 72 76  1  0  0  0
 72146  1  0  0  0
 73 74  2  0  0  0
 73 75  1  0  0  0
 73147  1  0  0  0
 74 79  1  0  0  0
 75 76  2  0  0  0
 75 80  1  0  0  0
 76 85  1  0  0  0
 77 81  1  0  0  0
 77 83  1  0  0  0
 77 84  2  0  0  0
 78 83  1  0  0  0
 78148  1  0  0  0
 78149  1  0  0  0
 78150  1  0  0  0
 79 82  1  0  0  0
 79151  1  0  0  0
 79152  1  0  0  0
 80 83  1  0  0  0
 80153  1  0  0  0
 80154  1  0  0  0
 81155  1  0  0  0
 81156  1  0  0  0
 82157  1  0  0  0
M  ISO  4   1 100  68 101  81 101  82 100
M  END
> <chiral flag>
0

> <version>
0

> <s_m_source_file>
/data/baiqing/PycharmProjects/Reinvent-master-3.2/result/LINK_invent/BTK/process_docking_weight1_custom_product_contain_oxygen_bond_distance_aromatic_linkinvent_7_9_3/rearranged_h_0052.sdf

> <i_m_source_file_index>
52

> <r_mmod_Potential_Energy-OPLS-2005>
-32.8085556030273

> <r_mmod_Stretch_Energy-OPLS-2005>
54.9209785461426

> <r_mmod_Bend_Energy-OPLS-2005>
111.819747924805

> <r_mmod_Torsional_Energy-OPLS-2005>
244.785583496094

> <r_mmod_Improper_Torsional_Energy-OPLS-2005>
4.63857555389404

> <r_mmod_Van_der_Waal_Energy-OPLS-2005>
143.171417236328

> <r_mmod_Electrostatic_Energy-OPLS-2005>
-381.316680908203

> <r_mmod_Solvation_Energy-OPLS-2005>
-233.035522460938

> <b_mmod_Minimization_Converged-OPLS-2005>
0

> <r_mmod_RMS_Derivative-OPLS-2005>
0.302566289901733

$$$$
52
                    3D
 Structure written by MMmdl.
185195  0  0  1  0            999 V2000
  -30.7485  -14.4153   20.6389 C   0  0  0  0  0  0
  -30.4144  -12.2997   19.4102 C   0  0  0  0  0  0
  -29.4862  -12.5220   18.2006 C   0  0  0  0  0  0
  -28.0093  -12.3817   18.6144 C   0  0  0  0  0  0
  -27.6625  -13.2098   19.8804 C   0  0  2  0  0  0
  -28.7026  -12.9729   20.9985 C   0  0  0  0  0  0
  -25.2577  -13.8163   20.5687 C   0  0  0  0  0  0
  -24.1829  -13.0436   20.9178 C   0  0  0  0  0  0
  -24.6390  -11.6907   20.8730 C   0  0  0  0  0  0
  -23.9056  -10.4291   21.0399 C   0  0  0  0  0  0
  -24.3604   -9.4212   21.9182 C   0  0  0  0  0  0
  -23.6282   -8.2246   22.0757 C   0  0  0  0  0  0
  -22.4269   -8.0280   21.3541 C   0  0  0  0  0  0
  -21.9900   -9.0251   20.4644 C   0  0  0  0  0  0
  -22.7227  -10.2132   20.3049 C   0  0  0  0  0  0
  -21.6851   -6.0730   22.5275 C   0  0  0  0  0  0
  -21.4012   -6.5633   23.8209 C   0  0  0  0  0  0
  -21.3659   -5.6786   24.9171 C   0  0  0  0  0  0
  -21.6044   -4.3049   24.7220 C   0  0  0  0  0  0
  -21.8819   -3.8141   23.4341 C   0  0  0  0  0  0
  -21.9191   -4.6957   22.3397 C   0  0  0  0  0  0
  -22.7853  -13.5237   21.1845 C   0  0  0  0  0  0
  -22.1663   -4.2146   21.0971 F   0  0  0  0  0  0
  -21.5630   -3.4533   25.7735 F   0  0  0  0  0  0
  -30.0398  -13.2689   20.4522 N   0  0  0  0  0  0
  -26.3023  -12.9344   20.3385 N   0  0  0  0  0  0
  -25.9319  -11.6501   20.5764 N   0  0  0  0  0  0
  -22.0490  -12.8222   22.0397 N   0  0  0  0  0  0
  -25.4290  -15.1871   20.4086 N   0  0  0  0  0  0
  -31.8217  -14.6303   20.0674 O   0  0  0  0  0  0
  -21.6634   -6.8876   21.4239 O   0  0  0  0  0  0
  -22.3545  -14.5550   20.6710 O   0  0  0  0  0  0
  -24.6109  -31.8706   23.2122 C   0  0  0  0  0  0
  -25.9018  -32.4839   23.8409 C   0  0  1  0  0  0
  -27.2422  -27.4649   20.0946 C   0  0  0  0  0  0
  -25.5890  -33.8637   24.2346 N   0  0  0  0  0  0
  -23.3985  -30.4922   21.5510 C   0  0  2  0  0  0
  -24.8489  -28.9587   20.1180 C   0  0  0  0  0  0
  -22.7391  -29.4669   22.5003 C   0  0  0  0  0  0
  -18.0266  -28.1381   22.8492 C   0  0  0  0  0  0
  -24.1483  -36.7318   23.2638 C   0  0  0  0  0  0
  -25.9233  -30.8433   21.3630 C   0  0  0  0  0  0
  -26.0036  -29.4762   20.7196 C   0  0  0  0  0  0
  -27.2031  -28.7330   20.7161 C   0  0  0  0  0  0
  -26.0793  -26.9594   19.4811 C   0  0  0  0  0  0
  -24.8788  -27.6957   19.4993 C   0  0  0  0  0  0
  -23.6076  -29.8208   20.1663 C   0  0  0  0  0  0
  -25.4105  -36.3125   24.0343 C   0  0  1  0  0  0
  -20.5852  -28.3665   23.1328 C   0  0  2  0  0  0
  -20.6756  -26.9409   22.5418 C   0  0  0  0  0  0
  -19.5738  -26.6394   21.5212 C   0  0  0  0  0  0
  -18.1914  -26.7931   22.1619 C   0  0  0  0  0  0
  -19.1514  -28.8840   23.2907 C   0  0  0  0  0  0
  -18.9441  -30.1448   23.8916 C   0  0  0  0  0  0
  -17.6446  -30.6590   24.0571 C   0  0  0  0  0  0
  -25.9029  -34.9487   23.5141 C   0  0  0  0  0  0
  -16.5339  -29.9092   23.6330 C   0  0  0  0  0  0
  -16.7257  -28.6511   23.0348 C   0  0  0  0  0  0
  -26.4469  -31.6601   25.0718 C   0  0  0  0  0  0
  -25.3750  -31.3662   26.1467 C   0  0  0  0  0  0
  -27.0310  -30.3056   24.6063 C   0  0  0  0  0  0
  -27.6041  -32.4321   25.7492 C   0  0  0  0  0  0
  -27.5583  -37.1815   24.8467 C   0  0  0  0  0  0
  -21.4123  -29.3036   22.3740 N   0  0  0  0  0  0
  -26.4295  -37.3805   23.9413 N   0  0  0  0  0  0
  -24.6620  -31.0826   22.1011 N   0  0  0  0  0  0
  -23.4173  -28.8221   23.3042 O   0  0  0  0  0  0
  -28.3832  -26.7031   20.0459 O   0  0  0  0  0  0
  -26.5588  -34.8932   22.4699 O   0  0  0  0  0  0
  -23.5310  -32.1445   23.7534 O   0  0  0  0  0  0
  -31.6607  -19.1578   22.5466 C   0  0  0  0  0  0
  -32.0348  -16.8019   22.0971 C   0  0  0  0  0  0
  -32.5405  -18.0654   22.4569 C   0  0  0  0  0  0
  -30.2838  -19.0160   22.2702 C   0  0  0  0  0  0
  -29.7746  -17.7374   21.8834 C   0  0  0  0  0  0
  -30.6647  -16.6263   21.7909 C   0  0  0  0  0  0
  -34.6738  -17.3137   23.4140 C   0  0  0  0  0  0
  -33.9741  -18.2604   22.7524 C   0  0  0  0  0  0
  -29.7853  -23.9414   21.5111 C   0  0  0  0  0  0
  -30.5313  -21.6714   20.6512 C   0  0  0  0  0  0
  -31.1847  -21.1207   19.6146 C   0  0  0  0  0  0
  -29.9436  -25.2454   21.1895 C   0  0  0  0  0  0
  -36.1592  -17.3895   23.7287 C   0  0  0  0  0  0
  -34.6784  -19.5018   22.2100 C   0  0  0  0  0  0
  -30.9343  -22.9478   21.3887 C   0  0  0  0  0  0
  -28.4961  -23.3177   22.0266 C   0  0  0  0  0  0
  -36.7602  -18.7750   23.4432 C   0  0  0  0  0  0
  -36.2074  -19.3522   22.1370 C   0  0  0  0  0  0
  -28.1446  -22.0381   21.2396 C   0  0  0  0  0  0
  -28.0589  -17.6784   20.0145 C   0  0  0  0  0  0
  -28.2991  -17.5433   21.5242 C   0  0  0  0  0  0
  -29.4167  -20.2736   22.4359 C   0  0  0  0  0  0
  -28.9309  -26.3739   21.3170 C   0  0  0  0  0  0
  -30.1692  -15.3321   21.4370 N   0  0  0  0  0  0
  -29.2691  -21.0682   21.1856 N   0  3  2  0  0  0
  -31.4594  -12.3888   19.1068 H   0  0  0  0  0  0
  -30.3064  -11.2837   19.7931 H   0  0  0  0  0  0
  -29.7215  -11.8096   17.4085 H   0  0  0  0  0  0
  -29.6581  -13.5151   17.7816 H   0  0  0  0  0  0
  -27.8144  -11.3245   18.7983 H   0  0  0  0  0  0
  -27.3585  -12.6704   17.7882 H   0  0  0  0  0  0
  -27.7130  -14.2614   19.5971 H   0  0  0  0  0  0
  -28.6709  -11.9332   21.3282 H   0  0  0  0  0  0
  -28.4565  -13.5606   21.8836 H   0  0  0  0  0  0
  -25.2745   -9.5692   22.4761 H   0  0  0  0  0  0
  -23.9989   -7.4640   22.7482 H   0  0  0  0  0  0
  -21.0831   -8.8762   19.8949 H   0  0  0  0  0  0
  -22.3681  -10.9666   19.6156 H   0  0  0  0  0  0
  -21.2005   -7.6141   23.9712 H   0  0  0  0  0  0
  -21.1484   -6.0515   25.9075 H   0  0  0  0  0  0
  -22.0597   -2.7604   23.2837 H   0  0  0  0  0  0
  -22.4093  -11.9863   22.4754 H   0  0  0  0  0  0
  -21.1112  -13.1249   22.2613 H   0  0  0  0  0  0
  -24.6583  -15.8394   20.5043 H   0  0  0  0  0  0
  -26.2774  -15.6195   20.0688 H   0  0  0  0  0  0
  -26.7095  -32.5578   23.1183 H   0  0  0  0  0  0
  -25.0065  -33.9807   25.0508 H   0  0  0  0  0  0
  -22.6853  -31.3072   21.4104 H   0  0  0  0  0  0
  -23.3754  -35.9642   23.3303 H   0  0  0  0  0  0
  -24.3575  -36.8929   22.2052 H   0  0  0  0  0  0
  -23.7221  -37.6518   23.6648 H   0  0  0  0  0  0
  -26.0263  -31.6056   20.5893 H   0  0  0  0  0  0
  -26.8143  -30.9052   21.9755 H   0  0  0  0  0  0
  -28.0942  -29.1386   21.1740 H   0  0  0  0  0  0
  -26.1035  -25.9925   18.9984 H   0  0  0  0  0  0
  -23.9920  -27.2912   19.0311 H   0  0  0  0  0  0
  -23.7110  -30.5935   19.4039 H   0  0  0  0  0  0
  -22.7340  -29.2352   19.8740 H   0  0  0  0  0  0
  -25.1279  -36.1999   25.0836 H   0  0  0  0  0  0
  -20.9939  -28.3231   24.1451 H   0  0  0  0  0  0
  -20.5674  -26.2274   23.3599 H   0  0  0  0  0  0
  -21.6627  -26.7462   22.1208 H   0  0  0  0  0  0
  -19.6901  -25.6311   21.1227 H   0  0  0  0  0  0
  -19.6679  -27.3221   20.6755 H   0  0  0  0  0  0
  -17.4189  -26.6698   21.4014 H   0  0  0  0  0  0
  -18.0304  -26.0065   22.9005 H   0  0  0  0  0  0
  -19.7915  -30.7262   24.2293 H   0  0  0  0  0  0
  -17.4999  -31.6268   24.5175 H   0  0  0  0  0  0
  -15.5342  -30.3005   23.7634 H   0  0  0  0  0  0
  -15.8655  -28.0841   22.7047 H   0  0  0  0  0  0
  -24.5934  -30.7005   25.7790 H   0  0  0  0  0  0
  -24.8933  -32.2798   26.4958 H   0  0  0  0  0  0
  -25.8125  -30.8800   27.0196 H   0  0  0  0  0  0
  -26.2844  -29.6808   24.1145 H   0  0  0  0  0  0
  -27.4128  -29.7292   25.4502 H   0  0  0  0  0  0
  -27.8655  -30.4392   23.9174 H   0  0  0  0  0  0
  -27.2650  -33.3603   26.2100 H   0  0  0  0  0  0
  -28.3840  -32.6907   25.0319 H   0  0  0  0  0  0
  -28.0720  -31.8429   26.5387 H   0  0  0  0  0  0
  -28.2597  -38.0116   24.7534 H   0  0  0  0  0  0
  -28.1084  -36.2649   24.6276 H   0  0  0  0  0  0
  -27.2298  -37.1450   25.8869 H   0  0  0  0  0  0
  -20.9282  -29.8762   21.6968 H   0  0  0  0  0  0
  -26.0190  -38.2885   24.1421 H   0  0  0  0  0  0
  -32.0498  -20.1229   22.8405 H   0  0  0  0  0  0
  -32.7147  -15.9641   22.0407 H   0  0  0  0  0  0
  -34.1762  -16.4190   23.7622 H   0  0  0  0  0  0
  -32.0889  -21.5687   19.2290 H   0  0  0  0  0  0
  -30.8400  -20.2167   19.1333 H   0  0  0  0  0  0
  -30.9033  -25.5659   20.8090 H   0  0  0  0  0  0
  -36.6658  -16.6301   23.1322 H   0  0  0  0  0  0
  -36.3200  -17.1236   24.7743 H   0  0  0  0  0  0
  -34.4043  -20.3601   22.8244 H   0  0  0  0  0  0
  -34.3067  -19.7038   21.2041 H   0  0  0  0  0  0
  -31.2847  -22.6861   22.3877 H   0  0  0  0  0  0
  -31.7822  -23.4093   20.8803 H   0  0  0  0  0  0
  -27.6567  -24.0078   21.9632 H   0  0  0  0  0  0
  -28.6242  -23.0859   23.0844 H   0  0  0  0  0  0
  -37.8483  -18.7094   23.4026 H   0  0  0  0  0  0
  -36.5228  -19.4540   24.2637 H   0  0  0  0  0  0
  -36.6667  -20.3178   21.9220 H   0  0  0  0  0  0
  -36.4730  -18.6943   21.3083 H   0  0  0  0  0  0
  -27.8937  -22.3152   20.2145 H   0  0  0  0  0  0
  -27.2489  -21.5685   21.6475 H   0  0  0  0  0  0
  -27.0011  -17.5706   19.7749 H   0  0  0  0  0  0
  -28.6060  -16.9159   19.4589 H   0  0  0  0  0  0
  -28.3809  -18.6491   19.6402 H   0  0  0  0  0  0
  -27.6521  -18.2318   22.0615 H   0  0  0  0  0  0
  -27.9598  -16.5636   21.8608 H   0  0  0  0  0  0
  -29.8596  -20.9080   23.2046 H   0  0  0  0  0  0
  -28.4431  -20.0110   22.8434 H   0  0  0  0  0  0
  -29.4423  -27.2411   21.7367 H   0  0  0  0  0  0
  -28.1427  -26.1119   22.0229 H   0  0  0  0  0  0
  -29.2370  -15.1034   21.7441 H   0  0  0  0  0  0
  -28.9622  -20.3848   20.5115 H   0  0  0  0  0  0
  1 25  1  0  0  0
  1 30  2  0  0  0
  1 94  1  0  0  0
  2  3  1  0  0  0
  2 25  1  0  0  0
  2 96  1  0  0  0
  2 97  1  0  0  0
  3  4  1  0  0  0
  3 98  1  0  0  0
  3 99  1  0  0  0
  4  5  1  0  0  0
  4100  1  0  0  0
  4101  1  0  0  0
  5  6  1  0  0  0
  5 26  1  0  0  0
  5102  1  0  0  0
  6 25  1  0  0  0
  6103  1  0  0  0
  6104  1  0  0  0
  7  8  2  0  0  0
  7 26  1  0  0  0
  7 29  1  0  0  0
  8  9  1  0  0  0
  8 22  1  0  0  0
  9 10  1  0  0  0
  9 27  2  0  0  0
 10 11  2  0  0  0
 10 15  1  0  0  0
 11 12  1  0  0  0
 11105  1  0  0  0
 12 13  2  0  0  0
 12106  1  0  0  0
 13 14  1  0  0  0
 13 31  1  0  0  0
 14 15  2  0  0  0
 14107  1  0  0  0
 15108  1  0  0  0
 16 17  2  0  0  0
 16 21  1  0  0  0
 16 31  1  0  0  0
 17 18  1  0  0  0
 17109  1  0  0  0
 18 19  2  0  0  0
 18110  1  0  0  0
 19 20  1  0  0  0
 19 24  1  0  0  0
 20 21  2  0  0  0
 20111  1  0  0  0
 21 23  1  0  0  0
 22 28  1  0  0  0
 22 32  2  0  0  0
 26 27  1  0  0  0
 28112  1  0  0  0
 28113  1  0  0  0
 29114  1  0  0  0
 29115  1  0  0  0
 33 34  1  0  0  0
 33 66  1  0  0  0
 33 70  2  0  0  0
 34 36  1  0  0  0
 34 59  1  0  0  0
 34116  1  0  0  0
 35 44  2  0  0  0
 35 45  1  0  0  0
 35 68  1  0  0  0
 36 56  1  0  0  0
 36117  1  0  0  0
 37 39  1  0  0  0
 37 47  1  0  0  0
 37 66  1  0  0  0
 37118  1  0  0  0
 38 43  2  0  0  0
 38 46  1  0  0  0
 38 47  1  0  0  0
 39 64  1  0  0  0
 39 67  2  0  0  0
 40 52  1  0  0  0
 40 53  2  0  0  0
 40 58  1  0  0  0
 41119  1  0  0  0
 41120  1  0  0  0
 41121  1  0  0  0
 41 48  1  0  0  0
 42 43  1  0  0  0
 42 66  1  0  0  0
 42122  1  0  0  0
 42123  1  0  0  0
 43 44  1  0  0  0
 44124  1  0  0  0
 45 46  2  0  0  0
 45125  1  0  0  0
 46126  1  0  0  0
 47127  1  0  0  0
 47128  1  0  0  0
 48 56  1  0  0  0
 48 65  1  0  0  0
 48129  1  0  0  0
 49 50  1  0  0  0
 49 53  1  0  0  0
 49 64  1  0  0  0
 49130  1  0  0  0
 50 51  1  0  0  0
 50131  1  0  0  0
 50132  1  0  0  0
 51 52  1  0  0  0
 51133  1  0  0  0
 51134  1  0  0  0
 52135  1  0  0  0
 52136  1  0  0  0
 53 54  1  0  0  0
 54 55  2  0  0  0
 54137  1  0  0  0
 55 57  1  0  0  0
 55138  1  0  0  0
 56 69  2  0  0  0
 57 58  2  0  0  0
 57139  1  0  0  0
 58140  1  0  0  0
 59 60  1  0  0  0
 59 61  1  0  0  0
 59 62  1  0  0  0
 60141  1  0  0  0
 60142  1  0  0  0
 60143  1  0  0  0
 61144  1  0  0  0
 61145  1  0  0  0
 61146  1  0  0  0
 62147  1  0  0  0
 62148  1  0  0  0
 62149  1  0  0  0
 63 65  1  0  0  0
 63150  1  0  0  0
 63151  1  0  0  0
 63152  1  0  0  0
 64153  1  0  0  0
 65154  1  0  0  0
 68 93  1  0  0  0
 71 73  2  0  0  0
 71 74  1  0  0  0
 71155  1  0  0  0
 72 73  1  0  0  0
 72 76  2  0  0  0
 72156  1  0  0  0
 73 78  1  0  0  0
 74 75  2  0  0  0
 74 92  1  0  0  0
 75 76  1  0  0  0
 75 91  1  0  0  0
 76 94  1  0  0  0
 77 78  2  0  0  0
 77 83  1  0  0  0
 77157  1  0  0  0
 78 84  1  0  0  0
 79 82  2  0  0  0
 79 85  1  0  0  0
 79 86  1  0  0  0
 80 81  2  0  0  0
 80 85  1  0  0  0
 80 95  1  0  0  0
 81158  1  0  0  0
 81159  1  0  0  0
 82 93  1  0  0  0
 82160  1  0  0  0
 83 87  1  0  0  0
 83161  1  0  0  0
 83162  1  0  0  0
 84 88  1  0  0  0
 84163  1  0  0  0
 84164  1  0  0  0
 85165  1  0  0  0
 85166  1  0  0  0
 86 89  1  0  0  0
 86167  1  0  0  0
 86168  1  0  0  0
 87 88  1  0  0  0
 87169  1  0  0  0
 87170  1  0  0  0
 88171  1  0  0  0
 88172  1  0  0  0
 89 95  1  0  0  0
 89173  1  0  0  0
 89174  1  0  0  0
 90 91  1  0  0  0
 90175  1  0  0  0
 90176  1  0  0  0
 90177  1  0  0  0
 91178  1  0  0  0
 91179  1  0  0  0
 92180  1  0  0  0
 92181  1  0  0  0
 92 95  1  0  0  0
 93182  1  0  0  0
 93183  1  0  0  0
 94184  1  0  0  0
 95185  1  0  0  0
M  CHG  1  95   1
M  ISO  4   1 100  68 101  93 101  94 100
M  END
> <chiral flag>
0

> <version>
0

> <s_m_source_file>
/data/baiqing/PycharmProjects/Reinvent-master-3.2/result/LINK_invent/BTK/process_docking_weight1_custom_product_contain_oxygen_bond_distance_aromatic_linkinvent_7_9_3/rearranged_h_0052.sdf

> <i_m_source_file_index>
53

> <r_mmod_Potential_Energy-OPLS-2005>
-138.073516845703

> <r_mmod_Stretch_Energy-OPLS-2005>
40.4175682067871

> <r_mmod_Bend_Energy-OPLS-2005>
110.097274780273

> <r_mmod_Torsional_Energy-OPLS-2005>
236.856994628906

> <r_mmod_Improper_Torsional_Energy-OPLS-2005>
2.33598375320435

> <r_mmod_Van_der_Waal_Energy-OPLS-2005>
158.590850830078

> <r_mmod_Electrostatic_Energy-OPLS-2005>
-269.552551269531

> <r_mmod_Solvation_Energy-OPLS-2005>
-424.243621826172

> <b_mmod_Minimization_Converged-OPLS-2005>
0

> <r_mmod_RMS_Derivative-OPLS-2005>
0.78562980890274

$$$$
53
                    3D
 Structure written by MMmdl.
178188  0  0  1  0            999 V2000
  -30.7504  -14.3942   20.6519 C   0  0  0  0  0  0
  -30.4184  -12.2963   19.3966 C   0  0  0  0  0  0
  -29.4858  -12.5289   18.1921 C   0  0  0  0  0  0
  -28.0079  -12.3906   18.6054 C   0  0  0  0  0  0
  -27.6662  -13.2069   19.8803 C   0  0  2  0  0  0
  -28.7060  -12.9503   20.9935 C   0  0  0  0  0  0
  -25.2613  -13.8171   20.5668 C   0  0  0  0  0  0
  -24.1860  -13.0456   20.9169 C   0  0  0  0  0  0
  -24.6413  -11.6916   20.8741 C   0  0  0  0  0  0
  -23.9088  -10.4302   21.0412 C   0  0  0  0  0  0
  -24.3633   -9.4211   21.9189 C   0  0  0  0  0  0
  -23.6295   -8.2254   22.0760 C   0  0  0  0  0  0
  -22.4279   -8.0301   21.3548 C   0  0  0  0  0  0
  -21.9924   -9.0278   20.4649 C   0  0  0  0  0  0
  -22.7268  -10.2149   20.3057 C   0  0  0  0  0  0
  -21.6854   -6.0750   22.5280 C   0  0  0  0  0  0
  -21.4022   -6.5649   23.8220 C   0  0  0  0  0  0
  -21.3655   -5.6793   24.9174 C   0  0  0  0  0  0
  -21.6036   -4.3056   24.7221 C   0  0  0  0  0  0
  -21.8820   -3.8155   23.4339 C   0  0  0  0  0  0
  -21.9192   -4.6976   22.3399 C   0  0  0  0  0  0
  -22.7883  -13.5243   21.1832 C   0  0  0  0  0  0
  -22.1662   -4.2166   21.0974 F   0  0  0  0  0  0
  -21.5617   -3.4537   25.7733 F   0  0  0  0  0  0
  -30.0438  -13.2511   20.4503 N   0  0  0  0  0  0
  -26.3053  -12.9344   20.3384 N   0  0  0  0  0  0
  -25.9339  -11.6499   20.5762 N   0  0  0  0  0  0
  -22.0514  -12.8242   22.0383 N   0  0  0  0  0  0
  -25.4374  -15.1884   20.4044 N   0  0  0  0  0  0
  -31.8131  -14.6324   20.0691 O   0  0  0  0  0  0
  -21.6631   -6.8903   21.4250 O   0  0  0  0  0  0
  -22.3576  -14.5561   20.6690 O   0  0  0  0  0  0
  -24.6110  -31.8693   23.2130 C   0  0  0  0  0  0
  -25.9029  -32.4822   23.8413 C   0  0  1  0  0  0
  -27.2382  -27.4615   20.0719 C   0  0  0  0  0  0
  -25.5909  -33.8628   24.2329 N   0  0  0  0  0  0
  -23.3972  -30.4929   21.5515 C   0  0  2  0  0  0
  -24.8420  -28.9592   20.1139 C   0  0  0  0  0  0
  -22.7394  -29.4669   22.5004 C   0  0  0  0  0  0
  -18.0279  -28.1392   22.8516 C   0  0  0  0  0  0
  -24.1493  -36.7307   23.2638 C   0  0  0  0  0  0
  -25.9239  -30.8359   21.3672 C   0  0  0  0  0  0
  -25.9977  -29.4720   20.7145 C   0  0  0  0  0  0
  -27.1926  -28.7226   20.7029 C   0  0  0  0  0  0
  -26.0622  -26.9496   19.4796 C   0  0  0  0  0  0
  -24.8661  -27.6933   19.5010 C   0  0  0  0  0  0
  -23.6039  -29.8250   20.1651 C   0  0  0  0  0  0
  -25.4118  -36.3096   24.0323 C   0  0  1  0  0  0
  -20.5865  -28.3670   23.1335 C   0  0  2  0  0  0
  -20.6773  -26.9413   22.5418 C   0  0  0  0  0  0
  -19.5734  -26.6389   21.5235 C   0  0  0  0  0  0
  -18.1911  -26.7945   22.1639 C   0  0  0  0  0  0
  -19.1528  -28.8850   23.2916 C   0  0  0  0  0  0
  -18.9454  -30.1470   23.8905 C   0  0  0  0  0  0
  -17.6454  -30.6601   24.0572 C   0  0  0  0  0  0
  -25.9043  -34.9468   23.5112 C   0  0  0  0  0  0
  -16.5350  -29.9097   23.6345 C   0  0  0  0  0  0
  -16.7271  -28.6515   23.0371 C   0  0  0  0  0  0
  -26.4483  -31.6622   25.0747 C   0  0  0  0  0  0
  -25.3757  -31.3697   26.1495 C   0  0  0  0  0  0
  -27.0352  -30.3084   24.6118 C   0  0  0  0  0  0
  -27.6051  -32.4370   25.7506 C   0  0  0  0  0  0
  -27.5584  -37.1799   24.8464 C   0  0  0  0  0  0
  -21.4128  -29.3028   22.3737 N   0  0  0  0  0  0
  -26.4300  -37.3785   23.9405 N   0  0  0  0  0  0
  -24.6618  -31.0814   22.1017 N   0  0  0  0  0  0
  -23.4182  -28.8218   23.3041 O   0  0  0  0  0  0
  -28.4347  -26.7823   20.0850 O   0  0  0  0  0  0
  -26.5599  -34.8915   22.4669 O   0  0  0  0  0  0
  -23.5316  -32.1461   23.7531 O   0  0  0  0  0  0
  -32.5363  -17.9716   22.6395 C   0  0  0  0  0  0
  -31.6371  -19.0341   22.8347 C   0  0  0  0  0  0
  -32.0686  -16.7275   22.1802 C   0  0  0  0  0  0
  -27.7354  -24.0072   17.7801 C   0  0  0  0  0  0
  -29.7919  -17.6019   22.1279 C   0  0  0  0  0  0
  -27.8932  -22.2286   19.9643 C   0  0  0  0  0  0
  -28.2547  -23.6056   20.1341 C   0  0  0  0  0  0
  -30.2610  -18.8579   22.5790 C   0  0  0  0  0  0
  -28.2097  -24.4870   19.0145 C   0  0  0  0  0  0
  -27.3360  -22.6737   17.6111 C   0  0  0  0  0  0
  -27.4392  -21.7663   18.6918 C   0  0  0  0  0  0
  -30.6929  -16.5345   21.9128 C   0  0  0  0  0  0
  -27.9684  -21.2454   21.1217 C   0  0  0  0  0  0
  -30.3669  -21.5866   21.2399 C   0  0  0  0  0  0
  -31.0262  -21.1859   20.1369 C   0  0  0  0  0  0
  -28.7245  -24.1261   21.4984 C   0  0  0  0  0  0
  -30.8217  -22.7509   22.1094 C   0  0  0  0  0  0
  -30.2571  -24.1032   21.6443 C   0  0  0  0  0  0
  -26.8291  -22.2455   16.2430 C   0  0  0  0  0  0
  -27.0796  -20.2935   18.4683 C   0  0  0  0  0  0
  -29.2976  -20.0195   22.8066 C   0  0  0  0  0  0
  -28.7730  -25.9159   19.0046 C   0  0  0  0  0  0
  -29.1838  -20.9570   21.6689 N   0  0  0  0  0  0
  -30.1792  -15.2785   21.4878 N   0  0  0  0  0  0
  -26.9137  -20.7276   21.5086 O   0  0  0  0  0  0
  -31.4608  -12.3979   19.0872 H   0  0  0  0  0  0
  -30.3210  -11.2761   19.7697 H   0  0  0  0  0  0
  -29.7202  -11.8257   17.3925 H   0  0  0  0  0  0
  -29.6573  -13.5253   17.7812 H   0  0  0  0  0  0
  -27.8033  -11.3333   18.7760 H   0  0  0  0  0  0
  -27.3575  -12.6946   17.7832 H   0  0  0  0  0  0
  -27.7235  -14.2620   19.6103 H   0  0  0  0  0  0
  -28.6726  -11.9056   21.3067 H   0  0  0  0  0  0
  -28.4618  -13.5246   21.8873 H   0  0  0  0  0  0
  -25.2780   -9.5670   22.4760 H   0  0  0  0  0  0
  -23.9996   -7.4647   22.7485 H   0  0  0  0  0  0
  -21.0853   -8.8817   19.8953 H   0  0  0  0  0  0
  -22.3748  -10.9695   19.6160 H   0  0  0  0  0  0
  -21.2034   -7.6158   23.9734 H   0  0  0  0  0  0
  -21.1466   -6.0514   25.9078 H   0  0  0  0  0  0
  -22.0602   -2.7618   23.2829 H   0  0  0  0  0  0
  -22.4101  -11.9871   22.4735 H   0  0  0  0  0  0
  -21.1142  -13.1288   22.2608 H   0  0  0  0  0  0
  -24.6784  -15.8527   20.5101 H   0  0  0  0  0  0
  -26.2940  -15.6156   20.0756 H   0  0  0  0  0  0
  -26.7095  -32.5527   23.1170 H   0  0  0  0  0  0
  -25.0122  -33.9837   25.0515 H   0  0  0  0  0  0
  -22.6829  -31.3071   21.4118 H   0  0  0  0  0  0
  -23.3767  -35.9630   23.3299 H   0  0  0  0  0  0
  -24.3576  -36.8951   22.2055 H   0  0  0  0  0  0
  -23.7248  -37.6497   23.6689 H   0  0  0  0  0  0
  -26.0403  -31.6038   20.6013 H   0  0  0  0  0  0
  -26.8109  -30.8848   21.9867 H   0  0  0  0  0  0
  -28.0879  -29.1160   21.1640 H   0  0  0  0  0  0
  -26.0508  -25.9783   19.0095 H   0  0  0  0  0  0
  -23.9735  -27.2901   19.0417 H   0  0  0  0  0  0
  -23.7079  -30.5998   19.4039 H   0  0  0  0  0  0
  -22.7284  -29.2427   19.8715 H   0  0  0  0  0  0
  -25.1294  -36.1947   25.0815 H   0  0  0  0  0  0
  -20.9967  -28.3243   24.1454 H   0  0  0  0  0  0
  -20.5732  -26.2271   23.3600 H   0  0  0  0  0  0
  -21.6633  -26.7478   22.1174 H   0  0  0  0  0  0
  -19.6883  -25.6298   21.1262 H   0  0  0  0  0  0
  -19.6670  -27.3208   20.6776 H   0  0  0  0  0  0
  -17.4188  -26.6767   21.4024 H   0  0  0  0  0  0
  -18.0259  -26.0067   22.9005 H   0  0  0  0  0  0
  -19.7921  -30.7307   24.2257 H   0  0  0  0  0  0
  -17.5001  -31.6281   24.5162 H   0  0  0  0  0  0
  -15.5351  -30.3001   23.7639 H   0  0  0  0  0  0
  -15.8684  -28.0826   22.7085 H   0  0  0  0  0  0
  -24.5937  -30.7037   25.7832 H   0  0  0  0  0  0
  -24.8934  -32.2837   26.4970 H   0  0  0  0  0  0
  -25.8120  -30.8854   27.0237 H   0  0  0  0  0  0
  -26.2908  -29.6808   24.1206 H   0  0  0  0  0  0
  -27.4199  -29.7346   25.4558 H   0  0  0  0  0  0
  -27.8695  -30.4450   23.9235 H   0  0  0  0  0  0
  -27.2675  -33.3679   26.2074 H   0  0  0  0  0  0
  -28.3864  -32.6929   25.0339 H   0  0  0  0  0  0
  -28.0725  -31.8512   26.5429 H   0  0  0  0  0  0
  -28.2569  -38.0125   24.7544 H   0  0  0  0  0  0
  -28.1113  -36.2652   24.6262 H   0  0  0  0  0  0
  -27.2291  -37.1406   25.8863 H   0  0  0  0  0  0
  -20.9290  -29.8736   21.6946 H   0  0  0  0  0  0
  -26.0175  -38.2851   24.1436 H   0  0  0  0  0  0
  -33.5890  -18.1076   22.8444 H   0  0  0  0  0  0
  -32.0071  -19.9910   23.1786 H   0  0  0  0  0  0
  -32.7800  -15.9265   22.0431 H   0  0  0  0  0  0
  -27.7011  -24.6750   16.9298 H   0  0  0  0  0  0
  -28.7363  -17.4601   21.9398 H   0  0  0  0  0  0
  -31.9303  -21.6825   19.8160 H   0  0  0  0  0  0
  -30.6735  -20.3603   19.5344 H   0  0  0  0  0  0
  -28.2578  -23.5820   22.3189 H   0  0  0  0  0  0
  -28.3497  -25.1307   21.6631 H   0  0  0  0  0  0
  -31.9117  -22.7815   22.1336 H   0  0  0  0  0  0
  -30.5122  -22.5890   23.1426 H   0  0  0  0  0  0
  -30.5457  -24.8538   22.3810 H   0  0  0  0  0  0
  -30.7330  -24.4132   20.7140 H   0  0  0  0  0  0
  -26.6779  -23.1013   15.5848 H   0  0  0  0  0  0
  -25.8730  -21.7281   16.3275 H   0  0  0  0  0  0
  -27.5488  -21.5848   15.7598 H   0  0  0  0  0  0
  -27.7603  -19.6216   18.9915 H   0  0  0  0  0  0
  -27.1291  -19.9940   17.4230 H   0  0  0  0  0  0
  -26.0672  -20.0980   18.8212 H   0  0  0  0  0  0
  -29.6281  -20.5759   23.6838 H   0  0  0  0  0  0
  -28.3357  -19.5996   23.1025 H   0  0  0  0  0  0
  -28.5351  -26.4194   18.0657 H   0  0  0  0  0  0
  -29.8590  -25.8223   19.0057 H   0  0  0  0  0  0
  -29.2489  -15.0397   21.7958 H   0  0  0  0  0  0
  1 25  1  0  0  0
  1 30  2  0  0  0
  1 94  1  0  0  0
  2  3  1  0  0  0
  2 25  1  0  0  0
  2 96  1  0  0  0
  2 97  1  0  0  0
  3  4  1  0  0  0
  3 98  1  0  0  0
  3 99  1  0  0  0
  4  5  1  0  0  0
  4100  1  0  0  0
  4101  1  0  0  0
  5  6  1  0  0  0
  5 26  1  0  0  0
  5102  1  0  0  0
  6 25  1  0  0  0
  6103  1  0  0  0
  6104  1  0  0  0
  7  8  2  0  0  0
  7 26  1  0  0  0
  7 29  1  0  0  0
  8  9  1  0  0  0
  8 22  1  0  0  0
  9 10  1  0  0  0
  9 27  2  0  0  0
 10 11  2  0  0  0
 10 15  1  0  0  0
 11 12  1  0  0  0
 11105  1  0  0  0
 12 13  2  0  0  0
 12106  1  0  0  0
 13 14  1  0  0  0
 13 31  1  0  0  0
 14 15  2  0  0  0
 14107  1  0  0  0
 15108  1  0  0  0
 16 17  2  0  0  0
 16 21  1  0  0  0
 16 31  1  0  0  0
 17 18  1  0  0  0
 17109  1  0  0  0
 18 19  2  0  0  0
 18110  1  0  0  0
 19 20  1  0  0  0
 19 24  1  0  0  0
 20 21  2  0  0  0
 20111  1  0  0  0
 21 23  1  0  0  0
 22 28  1  0  0  0
 22 32  2  0  0  0
 26 27  1  0  0  0
 28112  1  0  0  0
 28113  1  0  0  0
 29114  1  0  0  0
 29115  1  0  0  0
 33 34  1  0  0  0
 33 66  1  0  0  0
 33 70  2  0  0  0
 34 36  1  0  0  0
 34 59  1  0  0  0
 34116  1  0  0  0
 35 44  2  0  0  0
 35 45  1  0  0  0
 35 68  1  0  0  0
 36 56  1  0  0  0
 36117  1  0  0  0
 37 39  1  0  0  0
 37 47  1  0  0  0
 37 66  1  0  0  0
 37118  1  0  0  0
 38 43  2  0  0  0
 38 46  1  0  0  0
 38 47  1  0  0  0
 39 64  1  0  0  0
 39 67  2  0  0  0
 40 52  1  0  0  0
 40 53  2  0  0  0
 40 58  1  0  0  0
 41119  1  0  0  0
 41120  1  0  0  0
 41121  1  0  0  0
 41 48  1  0  0  0
 42 43  1  0  0  0
 42 66  1  0  0  0
 42122  1  0  0  0
 42123  1  0  0  0
 43 44  1  0  0  0
 44124  1  0  0  0
 45 46  2  0  0  0
 45125  1  0  0  0
 46126  1  0  0  0
 47127  1  0  0  0
 47128  1  0  0  0
 48 56  1  0  0  0
 48 65  1  0  0  0
 48129  1  0  0  0
 49 50  1  0  0  0
 49 53  1  0  0  0
 49 64  1  0  0  0
 49130  1  0  0  0
 50 51  1  0  0  0
 50131  1  0  0  0
 50132  1  0  0  0
 51 52  1  0  0  0
 51133  1  0  0  0
 51134  1  0  0  0
 52135  1  0  0  0
 52136  1  0  0  0
 53 54  1  0  0  0
 54 55  2  0  0  0
 54137  1  0  0  0
 55 57  1  0  0  0
 55138  1  0  0  0
 56 69  2  0  0  0
 57 58  2  0  0  0
 57139  1  0  0  0
 58140  1  0  0  0
 59 60  1  0  0  0
 59 61  1  0  0  0
 59 62  1  0  0  0
 60141  1  0  0  0
 60142  1  0  0  0
 60143  1  0  0  0
 61144  1  0  0  0
 61145  1  0  0  0
 61146  1  0  0  0
 62147  1  0  0  0
 62148  1  0  0  0
 62149  1  0  0  0
 63 65  1  0  0  0
 63150  1  0  0  0
 63151  1  0  0  0
 63152  1  0  0  0
 64153  1  0  0  0
 65154  1  0  0  0
 68 92  1  0  0  0
 71 72  2  0  0  0
 71 73  1  0  0  0
 71155  1  0  0  0
 72 78  1  0  0  0
 72156  1  0  0  0
 73 82  2  0  0  0
 73157  1  0  0  0
 74 79  2  0  0  0
 74 80  1  0  0  0
 74158  1  0  0  0
 75 78  2  0  0  0
 75 82  1  0  0  0
 75159  1  0  0  0
 76 77  2  0  0  0
 76 81  1  0  0  0
 76 83  1  0  0  0
 77 79  1  0  0  0
 77 86  1  0  0  0
 78 91  1  0  0  0
 79 92  1  0  0  0
 80 81  2  0  0  0
 80 89  1  0  0  0
 81 90  1  0  0  0
 82 94  1  0  0  0
 83 93  1  0  0  0
 83 95  2  0  0  0
 84 85  2  0  0  0
 84 87  1  0  0  0
 84 93  1  0  0  0
 85160  1  0  0  0
 85161  1  0  0  0
 86 88  1  0  0  0
 86162  1  0  0  0
 86163  1  0  0  0
 87 88  1  0  0  0
 87164  1  0  0  0
 87165  1  0  0  0
 88166  1  0  0  0
 88167  1  0  0  0
 89168  1  0  0  0
 89169  1  0  0  0
 89170  1  0  0  0
 90171  1  0  0  0
 90172  1  0  0  0
 90173  1  0  0  0
 91 93  1  0  0  0
 91174  1  0  0  0
 91175  1  0  0  0
 92176  1  0  0  0
 92177  1  0  0  0
 94178  1  0  0  0
M  ISO  4   1 100  68 101  92 101  94 100
M  END
> <chiral flag>
0

> <version>
0

> <s_m_source_file>
/data/baiqing/PycharmProjects/Reinvent-master-3.2/result/LINK_invent/BTK/process_docking_weight1_custom_product_contain_oxygen_bond_distance_aromatic_linkinvent_7_9_3/rearranged_h_0052.sdf

> <i_m_source_file_index>
54

> <r_mmod_Potential_Energy-OPLS-2005>
176.991455078125

> <r_mmod_Stretch_Energy-OPLS-2005>
45.8456001281738

> <r_mmod_Bend_Energy-OPLS-2005>
111.902709960938

> <r_mmod_Torsional_Energy-OPLS-2005>
304.790069580078

> <r_mmod_Improper_Torsional_Energy-OPLS-2005>
2.60058450698853

> <r_mmod_Van_der_Waal_Energy-OPLS-2005>
198.598236083984

> <r_mmod_Electrostatic_Energy-OPLS-2005>
-287.272583007812

> <r_mmod_Solvation_Energy-OPLS-2005>
-207.701812744141

> <b_mmod_Minimization_Converged-OPLS-2005>
0

> <r_mmod_RMS_Derivative-OPLS-2005>
1.61440551280975

$$$$
54
                    3D
 Structure written by MMmdl.
156164  0  0  1  0            999 V2000
  -30.5336  -15.0174   20.4317 C   0  0  0  0  0  0
  -30.4491  -12.6408   19.4834 C   0  0  0  0  0  0
  -29.5221  -12.5802   18.2431 C   0  0  0  0  0  0
  -28.0464  -12.3627   18.6402 C   0  0  0  0  0  0
  -27.6315  -13.2452   19.8411 C   0  0  2  0  0  0
  -28.6908  -13.2274   20.9680 C   0  0  0  0  0  0
  -25.2329  -13.8084   20.5445 C   0  0  0  0  0  0
  -24.1748  -13.0370   20.9205 C   0  0  0  0  0  0
  -24.6419  -11.6870   20.8785 C   0  0  0  0  0  0
  -23.9099  -10.4271   21.0432 C   0  0  0  0  0  0
  -24.3635   -9.4216   21.9233 C   0  0  0  0  0  0
  -23.6319   -8.2245   22.0790 C   0  0  0  0  0  0
  -22.4323   -8.0276   21.3549 C   0  0  0  0  0  0
  -21.9946   -9.0264   20.4668 C   0  0  0  0  0  0
  -22.7263  -10.2135   20.3082 C   0  0  0  0  0  0
  -21.6881   -6.0744   22.5283 C   0  0  0  0  0  0
  -21.4053   -6.5643   23.8223 C   0  0  0  0  0  0
  -21.3648   -5.6779   24.9169 C   0  0  0  0  0  0
  -21.6017   -4.3037   24.7226 C   0  0  0  0  0  0
  -21.8818   -3.8151   23.4340 C   0  0  0  0  0  0
  -21.9212   -4.6968   22.3396 C   0  0  0  0  0  0
  -22.7759  -13.5168   21.1820 C   0  0  0  0  0  0
  -22.1678   -4.2155   21.0978 F   0  0  0  0  0  0
  -21.5590   -3.4512   25.7729 F   0  0  0  0  0  0
  -29.9493  -13.7295   20.3853 N   0  0  0  0  0  0
  -26.2887  -12.9396   20.3216 N   0  0  0  0  0  0
  -25.9371  -11.6528   20.5810 N   0  0  0  0  0  0
  -22.0387  -12.8233   22.0405 N   0  0  0  0  0  0
  -25.3585  -15.1749   20.3330 N   0  0  0  0  0  0
  -31.7395  -15.0244   20.1617 O   0  0  0  0  0  0
  -21.6669   -6.8886   21.4254 O   0  0  0  0  0  0
  -22.3471  -14.5488   20.6641 O   0  0  0  0  0  0
  -24.6478  -31.8451   23.1777 C   0  0  0  0  0  0
  -25.9233  -32.4705   23.8212 C   0  0  1  0  0  0
  -27.2530  -27.1237   20.1459 C   0  0  0  0  0  0
  -25.5954  -33.8507   24.2142 N   0  0  0  0  0  0
  -23.4534  -30.4544   21.5255 C   0  0  2  0  0  0
  -24.9128  -28.8703   20.1100 C   0  0  0  0  0  0
  -22.7602  -29.4566   22.4874 C   0  0  0  0  0  0
  -18.0334  -28.1436   22.8419 C   0  0  0  0  0  0
  -24.1478  -36.7262   23.2631 C   0  0  0  0  0  0
  -26.0086  -30.7116   21.3769 C   0  0  0  0  0  0
  -26.0882  -29.3157   20.7280 C   0  0  0  0  0  0
  -27.2582  -28.4625   20.7235 C   0  0  0  0  0  0
  -26.0452  -26.7824   19.4938 C   0  0  0  0  0  0
  -24.9066  -27.6169   19.4769 C   0  0  0  0  0  0
  -23.6835  -29.7665   20.1503 C   0  0  0  0  0  0
  -25.4120  -36.3053   24.0309 C   0  0  1  0  0  0
  -20.5931  -28.3780   23.1220 C   0  0  2  0  0  0
  -20.6776  -26.9463   22.5439 C   0  0  0  0  0  0
  -19.5811  -26.6403   21.5177 C   0  0  0  0  0  0
  -18.1984  -26.7997   22.1495 C   0  0  0  0  0  0
  -19.1589  -28.8913   23.2815 C   0  0  0  0  0  0
  -18.9504  -30.1489   23.8885 C   0  0  0  0  0  0
  -17.6494  -30.6607   24.0577 C   0  0  0  0  0  0
  -25.9094  -34.9429   23.5044 C   0  0  0  0  0  0
  -16.5399  -29.9110   23.6320 C   0  0  0  0  0  0
  -16.7318  -28.6535   23.0315 C   0  0  0  0  0  0
  -26.4503  -31.6568   25.0675 C   0  0  0  0  0  0
  -25.3601  -31.3814   26.1302 C   0  0  0  0  0  0
  -27.0339  -30.2955   24.6254 C   0  0  0  0  0  0
  -27.6061  -32.4295   25.7448 C   0  0  0  0  0  0
  -27.5587  -37.1790   24.8474 C   0  0  0  0  0  0
  -21.4293  -29.3111   22.3629 N   0  0  0  0  0  0
  -26.4288  -37.3766   23.9403 N   0  0  0  0  0  0
  -24.7237  -31.0259   22.0823 N   0  0  0  0  0  0
  -23.4223  -28.8200   23.3103 O   0  0  0  0  0  0
  -28.3142  -26.1354   20.2194 O   0  0  0  0  0  0
  -26.5727  -34.8938   22.4656 O   0  0  0  0  0  0
  -23.5597  -32.1345   23.6975 O   0  0  0  0  0  0
  -27.5777  -17.6416   20.8578 C   0  0  0  0  0  0
  -28.3748  -16.4779   20.8394 C   0  0  0  0  0  0
  -28.0929  -18.9253   20.6217 C   0  0  0  0  0  0
  -29.7613  -16.4623   20.5591 C   0  0  0  0  0  0
  -30.2918  -17.8728   20.4069 C   0  0  0  0  0  0
  -29.4654  -19.1356   20.4089 C   0  0  0  0  0  0
  -32.5090  -17.9460   21.4293 C   0  0  0  0  0  0
  -31.7515  -18.0476   20.3249 C   0  0  0  0  0  0
  -29.1640  -23.4041   20.3257 C   0  0  0  0  0  0
  -32.3785  -18.2946   18.9692 C   0  0  0  0  0  0
  -29.9224  -20.7282   20.2770 C   0  0  0  0  0  0
  -28.0662  -24.6078   19.9638 C   0  0  0  0  0  0
  -28.9713  -21.9997   20.1236 N   0  0  0  0  0  0
  -30.2385  -23.7719   20.8069 O   0  0  0  0  0  0
  -31.4739  -12.8186   19.1569 H   0  0  0  0  0  0
  -30.4740  -11.6740   19.9896 H   0  0  0  0  0  0
  -29.8462  -11.7992   17.5519 H   0  0  0  0  0  0
  -29.6047  -13.5220   17.6959 H   0  0  0  0  0  0
  -27.8952  -11.3110   18.8787 H   0  0  0  0  0  0
  -27.4028  -12.5768   17.7848 H   0  0  0  0  0  0
  -27.5994  -14.2524   19.4308 H   0  0  0  0  0  0
  -28.8078  -12.2119   21.3511 H   0  0  0  0  0  0
  -28.4034  -13.8120   21.8388 H   0  0  0  0  0  0
  -25.2736   -9.5725   22.4868 H   0  0  0  0  0  0
  -23.9993   -7.4657   22.7550 H   0  0  0  0  0  0
  -21.0858   -8.8834   19.8995 H   0  0  0  0  0  0
  -22.3729  -10.9719   19.6235 H   0  0  0  0  0  0
  -21.2097   -7.6153   23.9725 H   0  0  0  0  0  0
  -21.1447   -6.0510   25.9062 H   0  0  0  0  0  0
  -22.0610   -2.7622   23.2835 H   0  0  0  0  0  0
  -22.3996  -11.9933   22.4849 H   0  0  0  0  0  0
  -21.1024  -13.1347   22.2609 H   0  0  0  0  0  0
  -24.4940  -15.7021   20.2681 H   0  0  0  0  0  0
  -26.0798  -15.5366   19.7240 H   0  0  0  0  0  0
  -26.7341  -32.5308   23.0978 H   0  0  0  0  0  0
  -24.9958  -33.9593   25.0189 H   0  0  0  0  0  0
  -22.7536  -31.2766   21.3611 H   0  0  0  0  0  0
  -23.3750  -35.9585   23.3308 H   0  0  0  0  0  0
  -24.3562  -36.8888   22.2047 H   0  0  0  0  0  0
  -23.7203  -37.6442   23.6660 H   0  0  0  0  0  0
  -26.1520  -31.4553   20.5920 H   0  0  0  0  0  0
  -26.8832  -30.7801   22.0120 H   0  0  0  0  0  0
  -28.1548  -28.8093   21.2185 H   0  0  0  0  0  0
  -25.9468  -25.8241   19.0058 H   0  0  0  0  0  0
  -24.0149  -27.2635   18.9779 H   0  0  0  0  0  0
  -23.8111  -30.5278   19.3804 H   0  0  0  0  0  0
  -22.7992  -29.1964   19.8589 H   0  0  0  0  0  0
  -25.1291  -36.1882   25.0801 H   0  0  0  0  0  0
  -20.9988  -28.3380   24.1356 H   0  0  0  0  0  0
  -20.5500  -26.2486   23.3720 H   0  0  0  0  0  0
  -21.6687  -26.7377   22.1387 H   0  0  0  0  0  0
  -19.7002  -25.6278   21.1300 H   0  0  0  0  0  0
  -19.6820  -27.3140   20.6643 H   0  0  0  0  0  0
  -17.4316  -26.6855   21.3816 H   0  0  0  0  0  0
  -18.0279  -26.0096   22.8807 H   0  0  0  0  0  0
  -19.7988  -30.7290   24.2267 H   0  0  0  0  0  0
  -17.5066  -31.6251   24.5242 H   0  0  0  0  0  0
  -15.5405  -30.3006   23.7648 H   0  0  0  0  0  0
  -15.8725  -28.0849   22.7010 H   0  0  0  0  0  0
  -24.5815  -30.7172   25.7545 H   0  0  0  0  0  0
  -24.8752  -32.3032   26.4532 H   0  0  0  0  0  0
  -25.7768  -30.9063   27.0193 H   0  0  0  0  0  0
  -26.2976  -29.6726   24.1174 H   0  0  0  0  0  0
  -27.3868  -29.7220   25.4835 H   0  0  0  0  0  0
  -27.8913  -30.4202   23.9635 H   0  0  0  0  0  0
  -27.2712  -33.3615   26.2001 H   0  0  0  0  0  0
  -28.3860  -32.6814   25.0255 H   0  0  0  0  0  0
  -28.0742  -31.8421   26.5349 H   0  0  0  0  0  0
  -28.2603  -38.0090   24.7528 H   0  0  0  0  0  0
  -28.1081  -36.2627   24.6270 H   0  0  0  0  0  0
  -27.2339  -37.1419   25.8888 H   0  0  0  0  0  0
  -20.9589  -29.8828   21.6747 H   0  0  0  0  0  0
  -26.0174  -38.2848   24.1348 H   0  0  0  0  0  0
  -26.5218  -17.5440   21.0617 H   0  0  0  0  0  0
  -27.8411  -15.5819   21.0622 H   0  0  0  0  0  0
  -27.4071  -19.7586   20.6568 H   0  0  0  0  0  0
  -33.5845  -18.0359   21.3741 H   0  0  0  0  0  0
  -32.0740  -17.7642   22.4019 H   0  0  0  0  0  0
  -33.4513  -18.4795   19.0667 H   0  0  0  0  0  0
  -31.9363  -19.1539   18.4688 H   0  0  0  0  0  0
  -32.2522  -17.4180   18.3367 H   0  0  0  0  0  0
  -30.5949  -20.7790   19.4197 H   0  0  0  0  0  0
  -30.5712  -20.9185   21.1332 H   0  0  0  0  0  0
  -27.1503  -24.3329   20.4867 H   0  0  0  0  0  0
  -27.8598  -24.4994   18.8989 H   0  0  0  0  0  0
  -28.0767  -21.7768   19.7057 H   0  0  0  0  0  0
  1 25  1  0  0  0
  1 30  2  0  0  0
  1 74  1  0  0  0
  2  3  1  0  0  0
  2 25  1  0  0  0
  2 85  1  0  0  0
  2 86  1  0  0  0
  3  4  1  0  0  0
  3 87  1  0  0  0
  3 88  1  0  0  0
  4  5  1  0  0  0
  4 89  1  0  0  0
  4 90  1  0  0  0
  5  6  1  0  0  0
  5 26  1  0  0  0
  5 91  1  0  0  0
  6 25  1  0  0  0
  6 92  1  0  0  0
  6 93  1  0  0  0
  7  8  2  0  0  0
  7 26  1  0  0  0
  7 29  1  0  0  0
  8  9  1  0  0  0
  8 22  1  0  0  0
  9 10  1  0  0  0
  9 27  2  0  0  0
 10 11  2  0  0  0
 10 15  1  0  0  0
 11 12  1  0  0  0
 11 94  1  0  0  0
 12 13  2  0  0  0
 12 95  1  0  0  0
 13 14  1  0  0  0
 13 31  1  0  0  0
 14 15  2  0  0  0
 14 96  1  0  0  0
 15 97  1  0  0  0
 16 17  2  0  0  0
 16 21  1  0  0  0
 16 31  1  0  0  0
 17 18  1  0  0  0
 17 98  1  0  0  0
 18 19  2  0  0  0
 18 99  1  0  0  0
 19 20  1  0  0  0
 19 24  1  0  0  0
 20 21  2  0  0  0
 20100  1  0  0  0
 21 23  1  0  0  0
 22 28  1  0  0  0
 22 32  2  0  0  0
 26 27  1  0  0  0
 28101  1  0  0  0
 28102  1  0  0  0
 29103  1  0  0  0
 29104  1  0  0  0
 33 34  1  0  0  0
 33 66  1  0  0  0
 33 70  2  0  0  0
 34 36  1  0  0  0
 34 59  1  0  0  0
 34105  1  0  0  0
 35 44  2  0  0  0
 35 45  1  0  0  0
 35 68  1  0  0  0
 36 56  1  0  0  0
 36106  1  0  0  0
 37 39  1  0  0  0
 37 47  1  0  0  0
 37 66  1  0  0  0
 37107  1  0  0  0
 38 43  2  0  0  0
 38 46  1  0  0  0
 38 47  1  0  0  0
 39 64  1  0  0  0
 39 67  2  0  0  0
 40 52  1  0  0  0
 40 53  2  0  0  0
 40 58  1  0  0  0
 41108  1  0  0  0
 41109  1  0  0  0
 41110  1  0  0  0
 41 48  1  0  0  0
 42 43  1  0  0  0
 42 66  1  0  0  0
 42111  1  0  0  0
 42112  1  0  0  0
 43 44  1  0  0  0
 44113  1  0  0  0
 45 46  2  0  0  0
 45114  1  0  0  0
 46115  1  0  0  0
 47116  1  0  0  0
 47117  1  0  0  0
 48 56  1  0  0  0
 48 65  1  0  0  0
 48118  1  0  0  0
 49 50  1  0  0  0
 49 53  1  0  0  0
 49 64  1  0  0  0
 49119  1  0  0  0
 50 51  1  0  0  0
 50120  1  0  0  0
 50121  1  0  0  0
 51 52  1  0  0  0
 51122  1  0  0  0
 51123  1  0  0  0
 52124  1  0  0  0
 52125  1  0  0  0
 53 54  1  0  0  0
 54 55  2  0  0  0
 54126  1  0  0  0
 55 57  1  0  0  0
 55127  1  0  0  0
 56 69  2  0  0  0
 57 58  2  0  0  0
 57128  1  0  0  0
 58129  1  0  0  0
 59 60  1  0  0  0
 59 61  1  0  0  0
 59 62  1  0  0  0
 60130  1  0  0  0
 60131  1  0  0  0
 60132  1  0  0  0
 61133  1  0  0  0
 61134  1  0  0  0
 61135  1  0  0  0
 62136  1  0  0  0
 62137  1  0  0  0
 62138  1  0  0  0
 63 65  1  0  0  0
 63139  1  0  0  0
 63140  1  0  0  0
 63141  1  0  0  0
 64142  1  0  0  0
 65143  1  0  0  0
 68 82  1  0  0  0
 71 72  2  0  0  0
 71 73  1  0  0  0
 71144  1  0  0  0
 72 74  1  0  0  0
 72145  1  0  0  0
 73 76  2  0  0  0
 73146  1  0  0  0
 74 75  2  0  0  0
 75 76  1  0  0  0
 75 78  1  0  0  0
 76 81  1  0  0  0
 77 78  2  0  0  0
 77147  1  0  0  0
 77148  1  0  0  0
 78 80  1  0  0  0
 79 82  1  0  0  0
 79 83  1  0  0  0
 79 84  2  0  0  0
 80149  1  0  0  0
 80150  1  0  0  0
 80151  1  0  0  0
 81 83  1  0  0  0
 81152  1  0  0  0
 81153  1  0  0  0
 82154  1  0  0  0
 82155  1  0  0  0
 83156  1  0  0  0
M  ISO  4   1 100  68 101  74 100  82 101
M  END
> <chiral flag>
0

> <version>
0

> <s_m_source_file>
/data/baiqing/PycharmProjects/Reinvent-master-3.2/result/LINK_invent/BTK/process_docking_weight1_custom_product_contain_oxygen_bond_distance_aromatic_linkinvent_7_9_3/rearranged_h_0052.sdf

> <i_m_source_file_index>
55

> <r_mmod_Potential_Energy-OPLS-2005>
577.492309570312

> <r_mmod_Stretch_Energy-OPLS-2005>
306.790008544922

> <r_mmod_Bend_Energy-OPLS-2005>
261.127380371094

> <r_mmod_Torsional_Energy-OPLS-2005>
216.804931640625

> <r_mmod_Improper_Torsional_Energy-OPLS-2005>
8.64667797088623

> <r_mmod_Van_der_Waal_Energy-OPLS-2005>
135.428100585938

> <r_mmod_Electrostatic_Energy-OPLS-2005>
-337.20166015625

> <r_mmod_Solvation_Energy-OPLS-2005>
-226.669204711914

> <b_mmod_Minimization_Converged-OPLS-2005>
0

> <r_mmod_RMS_Derivative-OPLS-2005>
5.27177667617798

$$$$
55
                    3D
 Structure written by MMmdl.
167175  0  0  1  0            999 V2000
  -30.6936  -14.4300   20.6131 C   0  0  0  0  0  0
  -30.4463  -12.3060   19.3955 C   0  0  0  0  0  0
  -29.5011  -12.5254   18.1952 C   0  0  0  0  0  0
  -28.0235  -12.3753   18.6106 C   0  0  0  0  0  0
  -27.6716  -13.1945   19.8793 C   0  0  2  0  0  0
  -28.7093  -12.9207   20.9906 C   0  0  0  0  0  0
  -25.2636  -13.8134   20.5591 C   0  0  0  0  0  0
  -24.1866  -13.0465   20.9155 C   0  0  0  0  0  0
  -24.6387  -11.6919   20.8739 C   0  0  0  0  0  0
  -23.9040  -10.4320   21.0439 C   0  0  0  0  0  0
  -24.3600   -9.4229   21.9200 C   0  0  0  0  0  0
  -23.6268   -8.2271   22.0753 C   0  0  0  0  0  0
  -22.4251   -8.0313   21.3543 C   0  0  0  0  0  0
  -21.9896   -9.0298   20.4649 C   0  0  0  0  0  0
  -22.7231  -10.2172   20.3071 C   0  0  0  0  0  0
  -21.6855   -6.0749   22.5281 C   0  0  0  0  0  0
  -21.4005   -6.5644   23.8221 C   0  0  0  0  0  0
  -21.3631   -5.6782   24.9173 C   0  0  0  0  0  0
  -21.6047   -4.3051   24.7211 C   0  0  0  0  0  0
  -21.8817   -3.8154   23.4324 C   0  0  0  0  0  0
  -21.9195   -4.6980   22.3391 C   0  0  0  0  0  0
  -22.7896  -13.5325   21.1796 C   0  0  0  0  0  0
  -22.1691   -4.2192   21.0965 F   0  0  0  0  0  0
  -21.5619   -3.4523   25.7707 F   0  0  0  0  0  0
  -30.0494  -13.2428   20.4547 N   0  0  0  0  0  0
  -26.3063  -12.9286   20.3331 N   0  0  0  0  0  0
  -25.9308  -11.6465   20.5744 N   0  0  0  0  0  0
  -22.0469  -12.8380   22.0351 N   0  0  0  0  0  0
  -25.4398  -15.1807   20.3833 N   0  0  0  0  0  0
  -31.7832  -14.6951   20.0948 O   0  0  0  0  0  0
  -21.6644   -6.8885   21.4235 O   0  0  0  0  0  0
  -22.3585  -14.5604   20.6587 O   0  0  0  0  0  0
  -24.6115  -31.8695   23.2113 C   0  0  0  0  0  0
  -25.9026  -32.4827   23.8393 C   0  0  1  0  0  0
  -27.2322  -27.4679   20.0863 C   0  0  0  0  0  0
  -25.5908  -33.8628   24.2330 N   0  0  0  0  0  0
  -23.3969  -30.4923   21.5520 C   0  0  2  0  0  0
  -24.8437  -28.9598   20.1136 C   0  0  0  0  0  0
  -22.7398  -29.4663   22.5009 C   0  0  0  0  0  0
  -18.0268  -28.1364   22.8475 C   0  0  0  0  0  0
  -24.1484  -36.7330   23.2626 C   0  0  0  0  0  0
  -25.9231  -30.8437   21.3587 C   0  0  0  0  0  0
  -26.0011  -29.4806   20.7062 C   0  0  0  0  0  0
  -27.2021  -28.7396   20.6911 C   0  0  0  0  0  0
  -26.0656  -26.9476   19.4919 C   0  0  0  0  0  0
  -24.8676  -27.6920   19.5042 C   0  0  0  0  0  0
  -23.6038  -29.8236   20.1663 C   0  0  0  0  0  0
  -25.4101  -36.3119   24.0325 C   0  0  1  0  0  0
  -20.5845  -28.3635   23.1331 C   0  0  2  0  0  0
  -20.6757  -26.9380   22.5413 C   0  0  0  0  0  0
  -19.5745  -26.6377   21.5201 C   0  0  0  0  0  0
  -18.1918  -26.7908   22.1609 C   0  0  0  0  0  0
  -19.1508  -28.8811   23.2906 C   0  0  0  0  0  0
  -18.9445  -30.1417   23.8913 C   0  0  0  0  0  0
  -17.6449  -30.6563   24.0553 C   0  0  0  0  0  0
  -25.9027  -34.9487   23.5114 C   0  0  0  0  0  0
  -16.5346  -29.9064   23.6319 C   0  0  0  0  0  0
  -16.7256  -28.6485   23.0335 C   0  0  0  0  0  0
  -26.4466  -31.6595   25.0701 C   0  0  0  0  0  0
  -25.3745  -31.3710   26.1458 C   0  0  0  0  0  0
  -27.0282  -30.3036   24.6052 C   0  0  0  0  0  0
  -27.6057  -32.4298   25.7467 C   0  0  0  0  0  0
  -27.5586  -37.1812   24.8449 C   0  0  0  0  0  0
  -21.4120  -29.3020   22.3755 N   0  0  0  0  0  0
  -26.4289  -37.3808   23.9405 N   0  0  0  0  0  0
  -24.6625  -31.0807   22.1009 N   0  0  0  0  0  0
  -23.4177  -28.8214   23.3044 O   0  0  0  0  0  0
  -28.3857  -26.7262   20.0931 O   0  0  0  0  0  0
  -26.5598  -34.8931   22.4678 O   0  0  0  0  0  0
  -23.5319  -32.1451   23.7534 O   0  0  0  0  0  0
  -27.1728  -19.2599   21.1847 C   0  0  0  0  0  0
  -26.2316  -18.5945   21.9889 C   0  0  0  0  0  0
  -27.8550  -16.8422   22.4227 C   0  0  0  0  0  0
  -28.8010  -17.4826   21.5874 C   0  0  0  0  0  0
  -28.4868  -18.7431   21.0156 C   0  0  0  0  0  0
  -26.5806  -17.3964   22.6297 C   0  0  0  0  0  0
  -30.5923  -22.8136   20.8728 C   0  0  0  0  0  0
  -30.7826  -22.0873   18.4350 C   0  0  0  0  0  0
  -31.8487  -20.7221   20.2330 C   0  0  0  0  0  0
  -30.1368  -16.7921   21.3029 C   0  0  0  0  0  0
  -29.7592  -25.1176   21.3016 C   0  0  0  0  0  0
  -28.3535  -25.6933   21.0755 C   0  0  0  0  0  0
  -29.2841  -20.8092   20.0554 C   0  0  0  0  0  0
  -30.6194  -21.6051   19.8965 C   0  0  0  0  0  0
  -30.0060  -23.9455   20.4601 N   0  0  0  0  0  0
  -29.9722  -15.3381   21.2767 N   0  0  0  0  0  0
  -31.0672  -22.7136   22.0069 O   0  0  0  0  0  0
  -29.4751  -19.4147   20.3233 O   0  0  0  0  0  0
  -25.4425  -16.6017   23.6582 Cl  0  0  0  0  0  0
  -31.4849  -12.4441   19.0855 H   0  0  0  0  0  0
  -30.3819  -11.2798   19.7574 H   0  0  0  0  0  0
  -29.7391  -11.8270   17.3896 H   0  0  0  0  0  0
  -29.6592  -13.5235   17.7849 H   0  0  0  0  0  0
  -27.8293  -11.3182   18.7895 H   0  0  0  0  0  0
  -27.3737  -12.6716   17.7860 H   0  0  0  0  0  0
  -27.7362  -14.2485   19.6068 H   0  0  0  0  0  0
  -28.6804  -11.8710   21.2852 H   0  0  0  0  0  0
  -28.4561  -13.4688   21.8999 H   0  0  0  0  0  0
  -25.2750   -9.5720   22.4763 H   0  0  0  0  0  0
  -23.9998   -7.4653   22.7453 H   0  0  0  0  0  0
  -21.0830   -8.8820   19.8933 H   0  0  0  0  0  0
  -22.3701  -10.9721   19.6184 H   0  0  0  0  0  0
  -21.2003   -7.6152   23.9746 H   0  0  0  0  0  0
  -21.1446   -6.0493   25.9081 H   0  0  0  0  0  0
  -22.0607   -2.7624   23.2801 H   0  0  0  0  0  0
  -22.4064  -12.0102   22.4852 H   0  0  0  0  0  0
  -21.1069  -13.1447   22.2446 H   0  0  0  0  0  0
  -24.6780  -15.8376   20.4956 H   0  0  0  0  0  0
  -26.2896  -15.6146   20.0468 H   0  0  0  0  0  0
  -26.7098  -32.5562   23.1174 H   0  0  0  0  0  0
  -25.0071  -33.9791   25.0475 H   0  0  0  0  0  0
  -22.6843  -31.3077   21.4143 H   0  0  0  0  0  0
  -23.3744  -35.9667   23.3290 H   0  0  0  0  0  0
  -24.3592  -36.8947   22.2044 H   0  0  0  0  0  0
  -23.7234  -37.6530   23.6646 H   0  0  0  0  0  0
  -26.0238  -31.6086   20.5876 H   0  0  0  0  0  0
  -26.8162  -30.9046   21.9691 H   0  0  0  0  0  0
  -28.0977  -29.1320   21.1519 H   0  0  0  0  0  0
  -26.0844  -25.9737   19.0234 H   0  0  0  0  0  0
  -23.9782  -27.2879   19.0426 H   0  0  0  0  0  0
  -23.7103  -30.5985   19.4074 H   0  0  0  0  0  0
  -22.7288  -29.2395   19.8739 H   0  0  0  0  0  0
  -25.1272  -36.1994   25.0817 H   0  0  0  0  0  0
  -20.9923  -28.3203   24.1457 H   0  0  0  0  0  0
  -20.5644  -26.2246   23.3590 H   0  0  0  0  0  0
  -21.6636  -26.7438   22.1212 H   0  0  0  0  0  0
  -19.6921  -25.6299   21.1204 H   0  0  0  0  0  0
  -19.6682  -27.3207   20.6743 H   0  0  0  0  0  0
  -17.4191  -26.6641   21.4019 H   0  0  0  0  0  0
  -18.0335  -26.0040   22.8988 H   0  0  0  0  0  0
  -19.7918  -30.7229   24.2292 H   0  0  0  0  0  0
  -17.5004  -31.6241   24.5153 H   0  0  0  0  0  0
  -15.5348  -30.2982   23.7614 H   0  0  0  0  0  0
  -15.8653  -28.0821   22.7037 H   0  0  0  0  0  0
  -24.5907  -30.7065   25.7810 H   0  0  0  0  0  0
  -24.8944  -32.2870   26.4915 H   0  0  0  0  0  0
  -25.8093  -30.8877   27.0214 H   0  0  0  0  0  0
  -26.2814  -29.6821   24.1100 H   0  0  0  0  0  0
  -27.4059  -29.7245   25.4489 H   0  0  0  0  0  0
  -27.8648  -30.4355   23.9185 H   0  0  0  0  0  0
  -27.2696  -33.3603   26.2065 H   0  0  0  0  0  0
  -28.3871  -32.6850   25.0294 H   0  0  0  0  0  0
  -28.0724  -31.8401   26.5373 H   0  0  0  0  0  0
  -28.2581  -38.0130   24.7536 H   0  0  0  0  0  0
  -28.1102  -36.2671   24.6218 H   0  0  0  0  0  0
  -27.2318  -37.1390   25.8851 H   0  0  0  0  0  0
  -20.9281  -29.8742   21.6985 H   0  0  0  0  0  0
  -26.0185  -38.2883   24.1431 H   0  0  0  0  0  0
  -26.8543  -20.1796   20.7164 H   0  0  0  0  0  0
  -25.2422  -19.0073   22.1210 H   0  0  0  0  0  0
  -28.0897  -15.9127   22.9176 H   0  0  0  0  0  0
  -31.6349  -22.7609   18.3265 H   0  0  0  0  0  0
  -29.8970  -22.6097   18.0722 H   0  0  0  0  0  0
  -30.9477  -21.2461   17.7624 H   0  0  0  0  0  0
  -32.7751  -21.2975   20.1877 H   0  0  0  0  0  0
  -31.9530  -19.8902   19.5354 H   0  0  0  0  0  0
  -31.7768  -20.2941   21.2332 H   0  0  0  0  0  0
  -30.8615  -17.0840   22.0638 H   0  0  0  0  0  0
  -30.5286  -17.1277   20.3416 H   0  0  0  0  0  0
  -29.8476  -24.8589   22.3599 H   0  0  0  0  0  0
  -30.5190  -25.8754   21.1165 H   0  0  0  0  0  0
  -28.0002  -26.1152   22.0172 H   0  0  0  0  0  0
  -27.6422  -24.9104   20.8056 H   0  0  0  0  0  0
  -28.6715  -20.8971   19.1558 H   0  0  0  0  0  0
  -28.6971  -21.2695   20.8532 H   0  0  0  0  0  0
  -29.6542  -23.9744   19.5118 H   0  0  0  0  0  0
  -29.0886  -15.0022   21.6252 H   0  0  0  0  0  0
  1 25  1  0  0  0
  1 30  2  0  0  0
  1 86  1  0  0  0
  2  3  1  0  0  0
  2 25  1  0  0  0
  2 90  1  0  0  0
  2 91  1  0  0  0
  3  4  1  0  0  0
  3 92  1  0  0  0
  3 93  1  0  0  0
  4  5  1  0  0  0
  4 94  1  0  0  0
  4 95  1  0  0  0
  5  6  1  0  0  0
  5 26  1  0  0  0
  5 96  1  0  0  0
  6 25  1  0  0  0
  6 97  1  0  0  0
  6 98  1  0  0  0
  7  8  2  0  0  0
  7 26  1  0  0  0
  7 29  1  0  0  0
  8  9  1  0  0  0
  8 22  1  0  0  0
  9 10  1  0  0  0
  9 27  2  0  0  0
 10 11  2  0  0  0
 10 15  1  0  0  0
 11 12  1  0  0  0
 11 99  1  0  0  0
 12 13  2  0  0  0
 12100  1  0  0  0
 13 14  1  0  0  0
 13 31  1  0  0  0
 14 15  2  0  0  0
 14101  1  0  0  0
 15102  1  0  0  0
 16 17  2  0  0  0
 16 21  1  0  0  0
 16 31  1  0  0  0
 17 18  1  0  0  0
 17103  1  0  0  0
 18 19  2  0  0  0
 18104  1  0  0  0
 19 20  1  0  0  0
 19 24  1  0  0  0
 20 21  2  0  0  0
 20105  1  0  0  0
 21 23  1  0  0  0
 22 28  1  0  0  0
 22 32  2  0  0  0
 26 27  1  0  0  0
 28106  1  0  0  0
 28107  1  0  0  0
 29108  1  0  0  0
 29109  1  0  0  0
 33 34  1  0  0  0
 33 66  1  0  0  0
 33 70  2  0  0  0
 34 36  1  0  0  0
 34 59  1  0  0  0
 34110  1  0  0  0
 35 44  2  0  0  0
 35 45  1  0  0  0
 35 68  1  0  0  0
 36 56  1  0  0  0
 36111  1  0  0  0
 37 39  1  0  0  0
 37 47  1  0  0  0
 37 66  1  0  0  0
 37112  1  0  0  0
 38 43  2  0  0  0
 38 46  1  0  0  0
 38 47  1  0  0  0
 39 64  1  0  0  0
 39 67  2  0  0  0
 40 52  1  0  0  0
 40 53  2  0  0  0
 40 58  1  0  0  0
 41113  1  0  0  0
 41114  1  0  0  0
 41115  1  0  0  0
 41 48  1  0  0  0
 42 43  1  0  0  0
 42 66  1  0  0  0
 42116  1  0  0  0
 42117  1  0  0  0
 43 44  1  0  0  0
 44118  1  0  0  0
 45 46  2  0  0  0
 45119  1  0  0  0
 46120  1  0  0  0
 47121  1  0  0  0
 47122  1  0  0  0
 48 56  1  0  0  0
 48 65  1  0  0  0
 48123  1  0  0  0
 49 50  1  0  0  0
 49 53  1  0  0  0
 49 64  1  0  0  0
 49124  1  0  0  0
 50 51  1  0  0  0
 50125  1  0  0  0
 50126  1  0  0  0
 51 52  1  0  0  0
 51127  1  0  0  0
 51128  1  0  0  0
 52129  1  0  0  0
 52130  1  0  0  0
 53 54  1  0  0  0
 54 55  2  0  0  0
 54131  1  0  0  0
 55 57  1  0  0  0
 55132  1  0  0  0
 56 69  2  0  0  0
 57 58  2  0  0  0
 57133  1  0  0  0
 58134  1  0  0  0
 59 60  1  0  0  0
 59 61  1  0  0  0
 59 62  1  0  0  0
 60135  1  0  0  0
 60136  1  0  0  0
 60137  1  0  0  0
 61138  1  0  0  0
 61139  1  0  0  0
 61140  1  0  0  0
 62141  1  0  0  0
 62142  1  0  0  0
 62143  1  0  0  0
 63 65  1  0  0  0
 63144  1  0  0  0
 63145  1  0  0  0
 63146  1  0  0  0
 64147  1  0  0  0
 65148  1  0  0  0
 68 82  1  0  0  0
 71 72  2  0  0  0
 71 75  1  0  0  0
 71149  1  0  0  0
 72 76  1  0  0  0
 72150  1  0  0  0
 73 74  1  0  0  0
 73 76  2  0  0  0
 73151  1  0  0  0
 74 75  2  0  0  0
 74 80  1  0  0  0
 75 88  1  0  0  0
 76 89  1  0  0  0
 77 84  1  0  0  0
 77 85  1  0  0  0
 77 87  2  0  0  0
 78152  1  0  0  0
 78153  1  0  0  0
 78154  1  0  0  0
 78 84  1  0  0  0
 79 84  1  0  0  0
 79155  1  0  0  0
 79156  1  0  0  0
 79157  1  0  0  0
 80 86  1  0  0  0
 80158  1  0  0  0
 80159  1  0  0  0
 81 82  1  0  0  0
 81 85  1  0  0  0
 81160  1  0  0  0
 81161  1  0  0  0
 82162  1  0  0  0
 82163  1  0  0  0
 83 84  1  0  0  0
 83 88  1  0  0  0
 83164  1  0  0  0
 83165  1  0  0  0
 85166  1  0  0  0
 86167  1  0  0  0
M  ISO  4   1 100  68 101  82 101  86 100
M  END
> <chiral flag>
0

> <version>
0

> <s_m_source_file>
/data/baiqing/PycharmProjects/Reinvent-master-3.2/result/LINK_invent/BTK/process_docking_weight1_custom_product_contain_oxygen_bond_distance_aromatic_linkinvent_7_9_3/rearranged_h_0052.sdf

> <i_m_source_file_index>
56

> <r_mmod_Potential_Energy-OPLS-2005>
-149.880798339844

> <r_mmod_Stretch_Energy-OPLS-2005>
37.6445159912109

> <r_mmod_Bend_Energy-OPLS-2005>
95.1231002807617

> <r_mmod_Torsional_Energy-OPLS-2005>
262.738189697266

> <r_mmod_Improper_Torsional_Energy-OPLS-2005>
3.87831449508667

> <r_mmod_Van_der_Waal_Energy-OPLS-2005>
166.530151367188

> <r_mmod_Electrostatic_Energy-OPLS-2005>
-498.885589599609

> <r_mmod_Solvation_Energy-OPLS-2005>
-226.130218505859

> <b_mmod_Minimization_Converged-OPLS-2005>
0

> <r_mmod_RMS_Derivative-OPLS-2005>
3.94353628158569

$$$$
56
                    3D
 Structure written by MMmdl.
155163  0  0  1  0            999 V2000
  -30.6268  -14.7635   20.4487 C   0  0  0  0  0  0
  -30.4252  -12.4654   19.4800 C   0  0  0  0  0  0
  -29.5089  -12.5046   18.2387 C   0  0  0  0  0  0
  -28.0361  -12.3273   18.6527 C   0  0  0  0  0  0
  -27.6378  -13.2364   19.8464 C   0  0  2  0  0  0
  -28.6822  -13.1970   20.9833 C   0  0  0  0  0  0
  -25.2491  -13.8207   20.5697 C   0  0  0  0  0  0
  -24.1792  -13.0445   20.9217 C   0  0  0  0  0  0
  -24.6389  -11.6925   20.8752 C   0  0  0  0  0  0
  -23.9071  -10.4297   21.0406 C   0  0  0  0  0  0
  -24.3619   -9.4209   21.9181 C   0  0  0  0  0  0
  -23.6293   -8.2246   22.0751 C   0  0  0  0  0  0
  -22.4273   -8.0284   21.3544 C   0  0  0  0  0  0
  -21.9907   -9.0261   20.4649 C   0  0  0  0  0  0
  -22.7241  -10.2140   20.3058 C   0  0  0  0  0  0
  -21.6857   -6.0732   22.5276 C   0  0  0  0  0  0
  -21.4021   -6.5636   23.8209 C   0  0  0  0  0  0
  -21.3659   -5.6789   24.9171 C   0  0  0  0  0  0
  -21.6041   -4.3053   24.7224 C   0  0  0  0  0  0
  -21.8820   -3.8144   23.4345 C   0  0  0  0  0  0
  -21.9195   -4.6959   22.3400 C   0  0  0  0  0  0
  -22.7813  -13.5224   21.1871 C   0  0  0  0  0  0
  -22.1662   -4.2146   21.0978 F   0  0  0  0  0  0
  -21.5626   -3.4537   25.7736 F   0  0  0  0  0  0
  -29.9800  -13.5460   20.3942 N   0  0  0  0  0  0
  -26.2917  -12.9423   20.3270 N   0  0  0  0  0  0
  -25.9319  -11.6560   20.5752 N   0  0  0  0  0  0
  -22.0458  -12.8223   22.0431 N   0  0  0  0  0  0
  -25.4176  -15.1931   20.4094 N   0  0  0  0  0  0
  -31.8205  -14.7974   20.1424 O   0  0  0  0  0  0
  -21.6640   -6.8878   21.4238 O   0  0  0  0  0  0
  -22.3496  -14.5527   20.6710 O   0  0  0  0  0  0
  -24.6318  -31.8530   23.1955 C   0  0  0  0  0  0
  -25.9143  -32.4738   23.8302 C   0  0  1  0  0  0
  -27.2246  -27.2534   20.1242 C   0  0  0  0  0  0
  -25.5936  -33.8540   24.2232 N   0  0  0  0  0  0
  -23.4283  -30.4742   21.5384 C   0  0  2  0  0  0
  -24.8754  -28.9157   20.1066 C   0  0  0  0  0  0
  -22.7502  -29.4590   22.4902 C   0  0  0  0  0  0
  -18.0293  -28.1388   22.8479 C   0  0  0  0  0  0
  -24.1491  -36.7275   23.2635 C   0  0  0  0  0  0
  -25.9731  -30.7633   21.3745 C   0  0  0  0  0  0
  -26.0445  -29.3842   20.7170 C   0  0  0  0  0  0
  -27.2167  -28.5635   20.7165 C   0  0  0  0  0  0
  -26.0294  -26.8465   19.4920 C   0  0  0  0  0  0
  -24.8733  -27.6558   19.4851 C   0  0  0  0  0  0
  -23.6462  -29.8040   20.1550 C   0  0  0  0  0  0
  -25.4118  -36.3057   24.0321 C   0  0  1  0  0  0
  -20.5895  -28.3698   23.1271 C   0  0  2  0  0  0
  -20.6780  -26.9411   22.5417 C   0  0  0  0  0  0
  -19.5759  -26.6381   21.5215 C   0  0  0  0  0  0
  -18.1936  -26.7933   22.1620 C   0  0  0  0  0  0
  -19.1546  -28.8861   23.2871 C   0  0  0  0  0  0
  -18.9467  -30.1462   23.8890 C   0  0  0  0  0  0
  -17.6464  -30.6588   24.0562 C   0  0  0  0  0  0
  -25.9062  -34.9431   23.5085 C   0  0  0  0  0  0
  -16.5357  -29.9084   23.6328 C   0  0  0  0  0  0
  -16.7279  -28.6504   23.0347 C   0  0  0  0  0  0
  -26.4508  -31.6572   25.0701 C   0  0  0  0  0  0
  -25.3729  -31.3735   26.1424 C   0  0  0  0  0  0
  -27.0346  -30.2982   24.6199 C   0  0  0  0  0  0
  -27.6064  -32.4311   25.7473 C   0  0  0  0  0  0
  -27.5586  -37.1779   24.8452 C   0  0  0  0  0  0
  -21.4208  -29.3038   22.3650 N   0  0  0  0  0  0
  -26.4283  -37.3768   23.9420 N   0  0  0  0  0  0
  -24.6968  -31.0490   22.0926 N   0  0  0  0  0  0
  -23.4203  -28.8140   23.3007 O   0  0  0  0  0  0
  -28.3443  -26.3931   20.2157 O   0  0  0  0  0  0
  -26.5640  -34.8915   22.4656 O   0  0  0  0  0  0
  -23.5472  -32.1356   23.7253 O   0  0  0  0  0  0
  -32.0781  -19.0766   20.4829 C   0  0  0  0  0  0
  -31.6500  -17.7383   20.5154 C   0  0  0  0  0  0
  -29.3637  -18.5298   20.5840 C   0  0  0  0  0  0
  -29.7747  -19.9406   20.5645 C   0  0  0  0  0  0
  -31.1829  -20.1675   20.5204 C   0  0  0  0  0  0
  -30.2807  -17.3868   20.5658 C   0  0  0  0  0  0
  -28.8099  -21.1441   20.7356 C   0  0  0  0  0  0
  -28.2227  -23.7144   20.4898 C   0  0  0  0  0  0
  -31.8131  -21.5571   20.5684 C   0  0  0  0  0  0
  -28.4537  -25.0246   19.5893 C   0  0  0  0  0  0
  -29.8847  -15.9374   20.6260 N   0  0  0  0  0  0
  -28.9349  -22.4219   20.1702 N   0  0  0  0  0  0
  -27.7930  -20.9316   21.5743 N   0  3  0  0  0  0
  -27.4325  -23.7554   21.4411 O   0  0  0  0  0  0
  -31.4679  -12.5736   19.1767 H   0  0  0  0  0  0
  -30.3614  -11.4965   19.9775 H   0  0  0  0  0  0
  -29.7956  -11.7251   17.5312 H   0  0  0  0  0  0
  -29.6343  -13.4545   17.7170 H   0  0  0  0  0  0
  -27.8971  -11.2804   18.9245 H   0  0  0  0  0  0
  -27.3793  -12.5097   17.8013 H   0  0  0  0  0  0
  -27.6250  -14.2528   19.4521 H   0  0  0  0  0  0
  -28.7220  -12.2085   21.4429 H   0  0  0  0  0  0
  -28.4139  -13.8946   21.7786 H   0  0  0  0  0  0
  -25.2764   -9.5685   22.4756 H   0  0  0  0  0  0
  -24.0003   -7.4634   22.7465 H   0  0  0  0  0  0
  -21.0839   -8.8782   19.8954 H   0  0  0  0  0  0
  -22.3694  -10.9678   19.6168 H   0  0  0  0  0  0
  -21.2018   -7.6145   23.9713 H   0  0  0  0  0  0
  -21.1477   -6.0519   25.9075 H   0  0  0  0  0  0
  -22.0599   -2.7606   23.2848 H   0  0  0  0  0  0
  -22.4076  -11.9892   22.4832 H   0  0  0  0  0  0
  -21.1072  -13.1245   22.2623 H   0  0  0  0  0  0
  -24.6454  -15.8431   20.5097 H   0  0  0  0  0  0
  -26.2534  -15.6287   20.0425 H   0  0  0  0  0  0
  -26.7204  -32.5382   23.1036 H   0  0  0  0  0  0
  -25.0078  -33.9665   25.0374 H   0  0  0  0  0  0
  -22.7250  -31.2964   21.3907 H   0  0  0  0  0  0
  -23.3764  -35.9594   23.3264 H   0  0  0  0  0  0
  -24.3591  -36.8936   22.2057 H   0  0  0  0  0  0
  -23.7228  -37.6457   23.6687 H   0  0  0  0  0  0
  -26.1128  -31.5231   20.6043 H   0  0  0  0  0  0
  -26.8504  -30.8130   22.0077 H   0  0  0  0  0  0
  -28.1114  -28.9170   21.2091 H   0  0  0  0  0  0
  -25.9489  -25.8761   19.0277 H   0  0  0  0  0  0
  -23.9745  -27.2889   19.0092 H   0  0  0  0  0  0
  -23.7707  -30.5785   19.3973 H   0  0  0  0  0  0
  -22.7638  -29.2378   19.8515 H   0  0  0  0  0  0
  -25.1297  -36.1889   25.0811 H   0  0  0  0  0  0
  -20.9991  -28.3283   24.1391 H   0  0  0  0  0  0
  -20.5674  -26.2305   23.3623 H   0  0  0  0  0  0
  -21.6649  -26.7431   22.1216 H   0  0  0  0  0  0
  -19.6919  -25.6290   21.1249 H   0  0  0  0  0  0
  -19.6703  -27.3189   20.6744 H   0  0  0  0  0  0
  -17.4209  -26.6680   21.4019 H   0  0  0  0  0  0
  -18.0328  -26.0080   22.9018 H   0  0  0  0  0  0
  -19.7941  -30.7283   24.2256 H   0  0  0  0  0  0
  -17.5017  -31.6267   24.5163 H   0  0  0  0  0  0
  -15.5359  -30.2985   23.7658 H   0  0  0  0  0  0
  -15.8678  -28.0825   22.7064 H   0  0  0  0  0  0
  -24.5915  -30.7065   25.7763 H   0  0  0  0  0  0
  -24.8906  -32.2907   26.4815 H   0  0  0  0  0  0
  -25.8048  -30.8946   27.0220 H   0  0  0  0  0  0
  -26.2923  -29.6726   24.1229 H   0  0  0  0  0  0
  -27.4022  -29.7255   25.4723 H   0  0  0  0  0  0
  -27.8806  -30.4240   23.9438 H   0  0  0  0  0  0
  -27.2679  -33.3618   26.2036 H   0  0  0  0  0  0
  -28.3883  -32.6857   25.0304 H   0  0  0  0  0  0
  -28.0723  -31.8443   26.5399 H   0  0  0  0  0  0
  -28.2563  -38.0118   24.7565 H   0  0  0  0  0  0
  -28.1127  -36.2656   24.6191 H   0  0  0  0  0  0
  -27.2319  -37.1321   25.8856 H   0  0  0  0  0  0
  -20.9396  -29.8745   21.6839 H   0  0  0  0  0  0
  -26.0154  -38.2828   24.1468 H   0  0  0  0  0  0
  -33.1442  -19.2582   20.4596 H   0  0  0  0  0  0
  -32.4324  -16.9984   20.5221 H   0  0  0  0  0  0
  -28.3050  -18.3200   20.6385 H   0  0  0  0  0  0
  -32.8926  -21.5005   20.7143 H   0  0  0  0  0  0
  -31.4213  -22.1489   21.3966 H   0  0  0  0  0  0
  -31.6503  -22.0938   19.6341 H   0  0  0  0  0  0
  -27.8415  -24.9486   18.6927 H   0  0  0  0  0  0
  -29.4777  -24.9571   19.2229 H   0  0  0  0  0  0
  -28.9035  -15.7710   20.7838 H   0  0  0  0  0  0
  -29.5996  -22.4035   19.4122 H   0  0  0  0  0  0
  -27.7127  -20.0560   22.0662 H   0  0  0  0  0  0
  -27.2024  -21.7103   21.8361 H   0  0  0  0  0  0
  1 25  1  0  0  0
  1 30  2  0  0  0
  1 81  1  0  0  0
  2  3  1  0  0  0
  2 25  1  0  0  0
  2 85  1  0  0  0
  2 86  1  0  0  0
  3  4  1  0  0  0
  3 87  1  0  0  0
  3 88  1  0  0  0
  4  5  1  0  0  0
  4 89  1  0  0  0
  4 90  1  0  0  0
  5  6  1  0  0  0
  5 26  1  0  0  0
  5 91  1  0  0  0
  6 25  1  0  0  0
  6 92  1  0  0  0
  6 93  1  0  0  0
  7  8  2  0  0  0
  7 26  1  0  0  0
  7 29  1  0  0  0
  8  9  1  0  0  0
  8 22  1  0  0  0
  9 10  1  0  0  0
  9 27  2  0  0  0
 10 11  2  0  0  0
 10 15  1  0  0  0
 11 12  1  0  0  0
 11 94  1  0  0  0
 12 13  2  0  0  0
 12 95  1  0  0  0
 13 14  1  0  0  0
 13 31  1  0  0  0
 14 15  2  0  0  0
 14 96  1  0  0  0
 15 97  1  0  0  0
 16 17  2  0  0  0
 16 21  1  0  0  0
 16 31  1  0  0  0
 17 18  1  0  0  0
 17 98  1  0  0  0
 18 19  2  0  0  0
 18 99  1  0  0  0
 19 20  1  0  0  0
 19 24  1  0  0  0
 20 21  2  0  0  0
 20100  1  0  0  0
 21 23  1  0  0  0
 22 28  1  0  0  0
 22 32  2  0  0  0
 26 27  1  0  0  0
 28101  1  0  0  0
 28102  1  0  0  0
 29103  1  0  0  0
 29104  1  0  0  0
 33 34  1  0  0  0
 33 66  1  0  0  0
 33 70  2  0  0  0
 34 36  1  0  0  0
 34 59  1  0  0  0
 34105  1  0  0  0
 35 44  2  0  0  0
 35 45  1  0  0  0
 35 68  1  0  0  0
 36 56  1  0  0  0
 36106  1  0  0  0
 37 39  1  0  0  0
 37 47  1  0  0  0
 37 66  1  0  0  0
 37107  1  0  0  0
 38 43  2  0  0  0
 38 46  1  0  0  0
 38 47  1  0  0  0
 39 64  1  0  0  0
 39 67  2  0  0  0
 40 52  1  0  0  0
 40 53  2  0  0  0
 40 58  1  0  0  0
 41108  1  0  0  0
 41109  1  0  0  0
 41110  1  0  0  0
 41 48  1  0  0  0
 42 43  1  0  0  0
 42 66  1  0  0  0
 42111  1  0  0  0
 42112  1  0  0  0
 43 44  1  0  0  0
 44113  1  0  0  0
 45 46  2  0  0  0
 45114  1  0  0  0
 46115  1  0  0  0
 47116  1  0  0  0
 47117  1  0  0  0
 48 56  1  0  0  0
 48 65  1  0  0  0
 48118  1  0  0  0
 49 50  1  0  0  0
 49 53  1  0  0  0
 49 64  1  0  0  0
 49119  1  0  0  0
 50 51  1  0  0  0
 50120  1  0  0  0
 50121  1  0  0  0
 51 52  1  0  0  0
 51122  1  0  0  0
 51123  1  0  0  0
 52124  1  0  0  0
 52125  1  0  0  0
 53 54  1  0  0  0
 54 55  2  0  0  0
 54126  1  0  0  0
 55 57  1  0  0  0
 55127  1  0  0  0
 56 69  2  0  0  0
 57 58  2  0  0  0
 57128  1  0  0  0
 58129  1  0  0  0
 59 60  1  0  0  0
 59 61  1  0  0  0
 59 62  1  0  0  0
 60130  1  0  0  0
 60131  1  0  0  0
 60132  1  0  0  0
 61133  1  0  0  0
 61134  1  0  0  0
 61135  1  0  0  0
 62136  1  0  0  0
 62137  1  0  0  0
 62138  1  0  0  0
 63 65  1  0  0  0
 63139  1  0  0  0
 63140  1  0  0  0
 63141  1  0  0  0
 64142  1  0  0  0
 65143  1  0  0  0
 68 80  1  0  0  0
 71 72  2  0  0  0
 71 75  1  0  0  0
 71144  1  0  0  0
 72 76  1  0  0  0
 72145  1  0  0  0
 73 74  1  0  0  0
 73 76  2  0  0  0
 73146  1  0  0  0
 74 75  2  0  0  0
 74 77  1  0  0  0
 75 79  1  0  0  0
 76 81  1  0  0  0
 77 82  1  0  0  0
 77 83  2  0  0  0
 78 80  1  0  0  0
 78 82  1  0  0  0
 78 84  2  0  0  0
 79147  1  0  0  0
 79148  1  0  0  0
 79149  1  0  0  0
 80150  1  0  0  0
 80151  1  0  0  0
 81152  1  0  0  0
 82153  1  0  0  0
 83154  1  0  0  0
 83155  1  0  0  0
M  CHG  1  83   1
M  ISO  4   1 100  68 101  80 101  81 100
M  END
> <chiral flag>
0

> <version>
0

> <s_m_source_file>
/data/baiqing/PycharmProjects/Reinvent-master-3.2/result/LINK_invent/BTK/process_docking_weight1_custom_product_contain_oxygen_bond_distance_aromatic_linkinvent_7_9_3/rearranged_h_0052.sdf

> <i_m_source_file_index>
57

> <r_mmod_Potential_Energy-OPLS-2005>
-78.3606872558594

> <r_mmod_Stretch_Energy-OPLS-2005>
143.785583496094

> <r_mmod_Bend_Energy-OPLS-2005>
188.126358032227

> <r_mmod_Torsional_Energy-OPLS-2005>
206.255325317383

> <r_mmod_Improper_Torsional_Energy-OPLS-2005>
6.32666158676147

> <r_mmod_Van_der_Waal_Energy-OPLS-2005>
154.851013183594

> <r_mmod_Electrostatic_Energy-OPLS-2005>
-414.079833984375

> <r_mmod_Solvation_Energy-OPLS-2005>
-454.040954589844

> <b_mmod_Minimization_Converged-OPLS-2005>
0

> <r_mmod_RMS_Derivative-OPLS-2005>
0.714653253555298

$$$$
57
                    3D
 Structure written by MMmdl.
157165  0  0  1  0            999 V2000
  -30.6978  -13.7318   20.6065 C   0  0  0  0  0  0
  -30.5166  -11.4846   19.1886 C   0  0  0  0  0  0
  -29.3298  -12.1979   17.8359 C   0  0  0  0  0  0
  -27.9628  -13.4537   18.3607 C   0  0  0  0  0  0
  -27.6356  -14.0394   20.2622 C   0  0  2  0  0  0
  -28.7528  -13.2892   21.6809 C   0  0  0  0  0  0
  -25.4418  -14.8800   21.2982 C   0  0  0  0  0  0
  -24.4367  -14.1197   21.7976 C   0  0  0  0  0  0
  -25.0833  -13.0294   21.1379 C   0  0  0  0  0  0
  -24.1801  -10.6897   19.7199 C   0  0  0  0  0  0
  -24.5094   -9.2238   20.1776 C   0  0  0  0  0  0
  -23.8470   -8.3242   21.1436 C   0  0  0  0  0  0
  -22.4583   -8.2046   21.0599 C   0  0  0  0  0  0
  -21.9498   -9.1978   20.1816 C   0  0  0  0  0  0
  -22.7472  -10.2440   19.5306 C   0  0  0  0  0  0
  -21.7749   -6.2106   22.4882 C   0  0  0  0  0  0
  -21.4791   -6.6532   23.7988 C   0  0  0  0  0  0
  -21.4046   -5.7449   24.8826 C   0  0  0  0  0  0
  -21.6178   -4.3682   24.6802 C   0  0  0  0  0  0
  -21.8919   -3.9030   23.3835 C   0  0  0  0  0  0
  -21.9563   -4.8083   22.2991 C   0  0  0  0  0  0
  -22.9369  -14.4791   21.9729 C   0  0  0  0  0  0
  -22.1692   -4.3044   21.0601 F   0  0  0  0  0  0
  -21.5526   -3.4991   25.7212 F   0  0  0  0  0  0
  -30.2098  -12.5519   20.7603 N   0  0  0  0  0  0
  -26.4070  -14.0408   20.8841 N   0  0  0  0  0  0
  -26.1972  -13.1940   21.7774 N   0  0  0  0  0  0
  -22.1527  -13.6317   22.6642 N   0  0  0  0  0  0
  -25.6906  -16.1826   21.1811 N   0  0  0  0  0  0
  -31.6554  -14.3177   20.0725 O   0  0  0  0  0  0
  -21.6758   -7.0742   21.3900 O   0  0  0  0  0  0
  -22.3837  -15.2059   21.1458 O   0  0  0  0  0  0
  -24.7475  -31.7090   23.1051 C   0  0  0  0  0  0
  -25.9778  -32.3958   23.7735 C   0  0  1  0  0  0
  -26.4185  -25.7851   20.0864 C   0  0  0  0  0  0
  -25.6086  -33.7864   24.1504 N   0  0  0  0  0  0
  -23.5502  -30.3494   21.4918 C   0  0  2  0  0  0
  -24.8400  -28.5660   20.0424 C   0  0  0  0  0  0
  -22.7832  -29.3973   22.4497 C   0  0  0  0  0  0
  -18.0369  -28.1427   22.8468 C   0  0  0  0  0  0
  -24.1519  -36.6937   23.2668 C   0  0  0  0  0  0
  -26.1249  -30.0738   21.4982 C   0  0  0  0  0  0
  -26.0124  -28.5837   20.7878 C   0  0  0  0  0  0
  -26.8037  -27.2217   20.7738 C   0  0  0  0  0  0
  -25.4168  -26.2456   19.2189 C   0  0  0  0  0  0
  -24.6544  -27.4527   19.2216 C   0  0  0  0  0  0
  -23.7829  -29.6883   20.1056 C   0  0  0  0  0  0
  -25.4194  -36.2593   24.0213 C   0  0  1  0  0  0
  -20.5996  -28.3785   23.1060 C   0  0  2  0  0  0
  -20.6775  -26.9401   22.5421 C   0  0  0  0  0  0
  -19.5746  -26.6335   21.5239 C   0  0  0  0  0  0
  -18.1946  -26.7960   22.1638 C   0  0  0  0  0  0
  -19.1640  -28.8945   23.2749 C   0  0  0  0  0  0
  -18.9534  -30.1528   23.8797 C   0  0  0  0  0  0
  -17.6509  -30.6592   24.0555 C   0  0  0  0  0  0
  -25.9236  -34.9014   23.4745 C   0  0  0  0  0  0
  -16.5405  -29.9063   23.6353 C   0  0  0  0  0  0
  -16.7350  -28.6492   23.0377 C   0  0  0  0  0  0
  -26.4732  -31.6403   25.0696 C   0  0  0  0  0  0
  -25.3605  -31.3959   26.1172 C   0  0  0  0  0  0
  -27.0781  -30.2675   24.7212 C   0  0  0  0  0  0
  -27.6041  -32.4496   25.7478 C   0  0  0  0  0  0
  -27.5556  -37.1603   24.8445 C   0  0  0  0  0  0
  -21.4457  -29.2942   22.3282 N   0  0  0  0  0  0
  -26.4234  -37.3455   23.9415 N   0  0  0  0  0  0
  -24.8562  -30.7727   22.0756 N   0  0  0  0  0  0
  -23.4097  -28.7577   23.2984 O   0  0  0  0  0  0
  -26.6870  -24.0470   19.9908 O   0  0  0  0  0  0
  -26.5980  -34.8743   22.4437 O   0  0  0  0  0  0
  -23.6425  -32.0696   23.5596 O   0  0  0  0  0  0
  -23.0657  -12.7372   20.1174 C   0  0  0  0  0  0
  -23.5338  -11.5347   21.6794 C   0  0  0  0  0  0
  -24.2362  -13.7657   19.0838 C   0  0  0  0  0  0
  -25.5238  -12.5654   18.8734 C   0  0  0  0  0  0
  -26.4007  -11.4555   20.0647 C   0  0  0  0  0  0
  -25.3916  -10.8853   21.6535 C   0  0  0  0  0  0
  -25.7364  -19.8189   19.3499 C   0  0  0  0  0  0
  -25.5407  -12.0628   17.4210 C   0  0  0  0  0  0
  -24.6186  -16.0396   18.7996 C   0  0  0  0  0  0
  -28.2084  -11.6575   20.0174 C   0  0  0  0  0  0
  -25.7223  -22.0916   19.7469 C   0  0  0  0  0  0
  -24.9306  -18.1658   19.3268 N   0  0  0  0  0  0
  -29.7602  -13.3491   19.8161 N   0  0  0  0  0  0
  -26.8613  -19.6167   18.8859 O   0  0  0  0  0  0
  -25.9327  -10.1565   22.6608 F   0  0  0  0  0  0
  -31.5567  -11.5885   18.8746 H   0  0  0  0  0  0
  -30.3741  -10.4227   19.3940 H   0  0  0  0  0  0
  -28.8903  -11.3794   17.2640 H   0  0  0  0  0  0
  -29.9577  -12.7001   17.0960 H   0  0  0  0  0  0
  -27.2315  -13.6824   17.6013 H   0  0  0  0  0  0
  -28.4684  -14.3703   18.0470 H   0  0  0  0  0  0
  -27.9055  -15.0966   20.2300 H   0  0  0  0  0  0
  -28.3587  -12.5134   22.3423 H   0  0  0  0  0  0
  -29.0374  -14.0799   22.3824 H   0  0  0  0  0  0
  -25.5633   -8.9828   20.1215 H   0  0  0  0  0  0
  -24.4096   -7.5215   21.5962 H   0  0  0  0  0  0
  -20.9015   -9.1419   19.9213 H   0  0  0  0  0  0
  -22.1254  -10.8869   18.9221 H   0  0  0  0  0  0
  -21.2859   -7.7014   23.9716 H   0  0  0  0  0  0
  -21.1805   -6.1100   25.8739 H   0  0  0  0  0  0
  -22.0384   -2.8475   23.2139 H   0  0  0  0  0  0
  -22.5708  -12.9016   23.2218 H   0  0  0  0  0  0
  -21.1492  -13.7459   22.6627 H   0  0  0  0  0  0
  -24.9980  -16.9068   21.3254 H   0  0  0  0  0  0
  -26.5536  -16.5543   20.8063 H   0  0  0  0  0  0
  -26.7877  -32.4157   23.0428 H   0  0  0  0  0  0
  -24.9968  -33.8798   24.9478 H   0  0  0  0  0  0
  -22.9220  -31.2255   21.3185 H   0  0  0  0  0  0
  -23.3833  -35.9204   23.3124 H   0  0  0  0  0  0
  -24.3599  -36.8858   22.2131 H   0  0  0  0  0  0
  -23.7236  -37.5999   23.6958 H   0  0  0  0  0  0
  -26.5178  -30.7549   20.7418 H   0  0  0  0  0  0
  -26.9216  -30.0146   22.2223 H   0  0  0  0  0  0
  -27.6606  -27.1989   21.4322 H   0  0  0  0  0  0
  -25.0338  -25.4921   18.5450 H   0  0  0  0  0  0
  -23.8056  -27.4775   18.5527 H   0  0  0  0  0  0
  -24.0802  -30.4608   19.3949 H   0  0  0  0  0  0
  -22.8326  -29.3026   19.7304 H   0  0  0  0  0  0
  -25.1443  -36.1210   25.0695 H   0  0  0  0  0  0
  -21.0141  -28.3454   24.1159 H   0  0  0  0  0  0
  -20.5594  -26.2432   23.3735 H   0  0  0  0  0  0
  -21.6624  -26.7236   22.1262 H   0  0  0  0  0  0
  -19.6859  -25.6218   21.1321 H   0  0  0  0  0  0
  -19.6686  -27.3101   20.6732 H   0  0  0  0  0  0
  -17.4225  -26.6795   21.4024 H   0  0  0  0  0  0
  -18.0253  -26.0121   22.9032 H   0  0  0  0  0  0
  -19.8007  -30.7395   24.2099 H   0  0  0  0  0  0
  -17.5043  -31.6255   24.5181 H   0  0  0  0  0  0
  -15.5395  -30.2912   23.7704 H   0  0  0  0  0  0
  -15.8782  -28.0753   22.7117 H   0  0  0  0  0  0
  -24.5853  -30.7252   25.7445 H   0  0  0  0  0  0
  -24.8746  -32.3257   26.4125 H   0  0  0  0  0  0
  -25.7584  -30.9405   27.0245 H   0  0  0  0  0  0
  -26.3434  -29.5868   24.2901 H   0  0  0  0  0  0
  -27.4511  -29.7691   25.6170 H   0  0  0  0  0  0
  -27.9347  -30.3610   24.0538 H   0  0  0  0  0  0
  -27.2492  -33.3991   26.1497 H   0  0  0  0  0  0
  -28.4059  -32.6746   25.0433 H   0  0  0  0  0  0
  -28.0483  -31.9053   26.5818 H   0  0  0  0  0  0
  -28.2398  -38.0052   24.7574 H   0  0  0  0  0  0
  -28.1216  -36.2563   24.6145 H   0  0  0  0  0  0
  -27.2284  -37.1047   25.8841 H   0  0  0  0  0  0
  -20.9816  -29.8621   21.6331 H   0  0  0  0  0  0
  -25.9964  -38.2440   24.1491 H   0  0  0  0  0  0
  -22.0280  -13.0416   20.0800 H   0  0  0  0  0  0
  -22.8135  -11.1686   22.3957 H   0  0  0  0  0  0
  -24.7163  -11.3788   17.2185 H   0  0  0  0  0  0
  -26.4625  -11.5309   17.1932 H   0  0  0  0  0  0
  -25.4278  -12.8882   16.7163 H   0  0  0  0  0  0
  -23.8514  -16.2009   18.0448 H   0  0  0  0  0  0
  -25.5315  -15.9320   18.2113 H   0  0  0  0  0  0
  -28.4503  -11.0122   20.8721 H   0  0  0  0  0  0
  -28.2727  -10.8312   19.3089 H   0  0  0  0  0  0
  -25.0796  -22.1063   20.6264 H   0  0  0  0  0  0
  -25.0424  -22.3692   18.9405 H   0  0  0  0  0  0
  -24.0466  -18.3970   19.7616 H   0  0  0  0  0  0
  -29.7538  -13.8083   18.9210 H   0  0  0  0  0  0
  1 25  1  0  0  0
  1 30  2  0  0  0
  1 83  1  0  0  0
  2  3  1  0  0  0
  2 25  1  0  0  0
  2 86  1  0  0  0
  2 87  1  0  0  0
  3  4  1  0  0  0
  3 88  1  0  0  0
  3 89  1  0  0  0
  4  5  1  0  0  0
  4 90  1  0  0  0
  4 91  1  0  0  0
  5  6  1  0  0  0
  5 26  1  0  0  0
  5 92  1  0  0  0
  6 25  1  0  0  0
  6 93  1  0  0  0
  6 94  1  0  0  0
  7  8  2  0  0  0
  7 26  1  0  0  0
  7 29  1  0  0  0
  8  9  1  0  0  0
  8 22  1  0  0  0
  9 10  1  0  0  0
  9 27  2  0  0  0
 10 11  2  0  0  0
 10 15  1  0  0  0
 11 12  1  0  0  0
 11 95  1  0  0  0
 12 13  2  0  0  0
 12 96  1  0  0  0
 13 14  1  0  0  0
 13 31  1  0  0  0
 14 15  2  0  0  0
 14 97  1  0  0  0
 15 98  1  0  0  0
 16 17  2  0  0  0
 16 21  1  0  0  0
 16 31  1  0  0  0
 17 18  1  0  0  0
 17 99  1  0  0  0
 18 19  2  0  0  0
 18100  1  0  0  0
 19 20  1  0  0  0
 19 24  1  0  0  0
 20 21  2  0  0  0
 20101  1  0  0  0
 21 23  1  0  0  0
 22 28  1  0  0  0
 22 32  2  0  0  0
 26 27  1  0  0  0
 28102  1  0  0  0
 28103  1  0  0  0
 29104  1  0  0  0
 29105  1  0  0  0
 33 34  1  0  0  0
 33 66  1  0  0  0
 33 70  2  0  0  0
 34 36  1  0  0  0
 34 59  1  0  0  0
 34106  1  0  0  0
 35 44  2  0  0  0
 35 45  1  0  0  0
 35 68  1  0  0  0
 36 56  1  0  0  0
 36107  1  0  0  0
 37 39  1  0  0  0
 37 47  1  0  0  0
 37 66  1  0  0  0
 37108  1  0  0  0
 38 43  2  0  0  0
 38 46  1  0  0  0
 38 47  1  0  0  0
 39 64  1  0  0  0
 39 67  2  0  0  0
 40 52  1  0  0  0
 40 53  2  0  0  0
 40 58  1  0  0  0
 41109  1  0  0  0
 41110  1  0  0  0
 41111  1  0  0  0
 41 48  1  0  0  0
 42 43  1  0  0  0
 42 66  1  0  0  0
 42112  1  0  0  0
 42113  1  0  0  0
 43 44  1  0  0  0
 44114  1  0  0  0
 45 46  2  0  0  0
 45115  1  0  0  0
 46116  1  0  0  0
 47117  1  0  0  0
 47118  1  0  0  0
 48 56  1  0  0  0
 48 65  1  0  0  0
 48119  1  0  0  0
 49 50  1  0  0  0
 49 53  1  0  0  0
 49 64  1  0  0  0
 49120  1  0  0  0
 50 51  1  0  0  0
 50121  1  0  0  0
 50122  1  0  0  0
 51 52  1  0  0  0
 51123  1  0  0  0
 51124  1  0  0  0
 52125  1  0  0  0
 52126  1  0  0  0
 53 54  1  0  0  0
 54 55  2  0  0  0
 54127  1  0  0  0
 55 57  1  0  0  0
 55128  1  0  0  0
 56 69  2  0  0  0
 57 58  2  0  0  0
 57129  1  0  0  0
 58130  1  0  0  0
 59 60  1  0  0  0
 59 61  1  0  0  0
 59 62  1  0  0  0
 60131  1  0  0  0
 60132  1  0  0  0
 60133  1  0  0  0
 61134  1  0  0  0
 61135  1  0  0  0
 61136  1  0  0  0
 62137  1  0  0  0
 62138  1  0  0  0
 62139  1  0  0  0
 63 65  1  0  0  0
 63140  1  0  0  0
 63141  1  0  0  0
 63142  1  0  0  0
 64143  1  0  0  0
 65144  1  0  0  0
 68 81  1  0  0  0
 71 72  2  0  0  0
 71 73  1  0  0  0
 71145  1  0  0  0
 72 76  1  0  0  0
 72146  1  0  0  0
 73 74  2  0  0  0
 73 79  1  0  0  0
 74 75  1  0  0  0
 74 78  1  0  0  0
 75 76  2  0  0  0
 75 80  1  0  0  0
 76 85  1  0  0  0
 77 81  1  0  0  0
 77 82  1  0  0  0
 77 84  2  0  0  0
 78147  1  0  0  0
 78148  1  0  0  0
 78149  1  0  0  0
 79 82  1  0  0  0
 79150  1  0  0  0
 79151  1  0  0  0
 80 83  1  0  0  0
 80152  1  0  0  0
 80153  1  0  0  0
 81154  1  0  0  0
 81155  1  0  0  0
 82156  1  0  0  0
 83157  1  0  0  0
M  ISO  4   1 100  68 101  81 101  83 100
M  END
> <chiral flag>
0

> <version>
0

> <s_m_source_file>
/data/baiqing/PycharmProjects/Reinvent-master-3.2/result/LINK_invent/BTK/process_docking_weight1_custom_product_contain_oxygen_bond_distance_aromatic_linkinvent_7_9_3/rearranged_h_0052.sdf

> <i_m_source_file_index>
58

> <r_mmod_Potential_Energy-OPLS-2005>
24966.650390625

> <r_mmod_Stretch_Energy-OPLS-2005>
13084.6142578125

> <r_mmod_Bend_Energy-OPLS-2005>
2253.73510742188

> <r_mmod_Torsional_Energy-OPLS-2005>
952.4794921875

> <r_mmod_Improper_Torsional_Energy-OPLS-2005>
140.913299560547

> <r_mmod_Van_der_Waal_Energy-OPLS-2005>
4520.2734375

> <r_mmod_Electrostatic_Energy-OPLS-2005>
-468.256866455078

> <r_mmod_Solvation_Energy-OPLS-2005>
-250.085388183594

> <b_mmod_Minimization_Converged-OPLS-2005>
0

> <r_mmod_RMS_Derivative-OPLS-2005>
4.19019603729248

$$$$
58
                    3D
 Structure written by MMmdl.
167175  0  0  1  0            999 V2000
  -30.7276  -14.4383   20.6450 C   0  0  0  0  0  0
  -30.4440  -12.3218   19.3874 C   0  0  0  0  0  0
  -29.4996  -12.5181   18.1835 C   0  0  0  0  0  0
  -28.0203  -12.3812   18.6038 C   0  0  0  0  0  0
  -27.6716  -13.2023   19.8747 C   0  0  2  0  0  0
  -28.7219  -12.9350   20.9773 C   0  0  0  0  0  0
  -25.2633  -13.8124   20.5674 C   0  0  0  0  0  0
  -24.1890  -13.0435   20.9174 C   0  0  0  0  0  0
  -24.6438  -11.6888   20.8731 C   0  0  0  0  0  0
  -23.9107  -10.4288   21.0414 C   0  0  0  0  0  0
  -24.3650   -9.4186   21.9176 C   0  0  0  0  0  0
  -23.6309   -8.2236   22.0735 C   0  0  0  0  0  0
  -22.4274   -8.0299   21.3540 C   0  0  0  0  0  0
  -21.9932   -9.0290   20.4637 C   0  0  0  0  0  0
  -22.7289  -10.2149   20.3058 C   0  0  0  0  0  0
  -21.6849   -6.0762   22.5293 C   0  0  0  0  0  0
  -21.4010   -6.5650   23.8235 C   0  0  0  0  0  0
  -21.3645   -5.6787   24.9182 C   0  0  0  0  0  0
  -21.6056   -4.3056   24.7226 C   0  0  0  0  0  0
  -21.8824   -3.8162   23.4338 C   0  0  0  0  0  0
  -21.9193   -4.6989   22.3399 C   0  0  0  0  0  0
  -22.7905  -13.5224   21.1869 C   0  0  0  0  0  0
  -22.1660   -4.2184   21.0976 F   0  0  0  0  0  0
  -21.5621   -3.4527   25.7729 F   0  0  0  0  0  0
  -30.0480  -13.2786   20.4292 N   0  0  0  0  0  0
  -26.3101  -12.9313   20.3365 N   0  0  0  0  0  0
  -25.9368  -11.6473   20.5762 N   0  0  0  0  0  0
  -22.0549  -12.8220   22.0404 N   0  0  0  0  0  0
  -25.4319  -15.1851   20.4061 N   0  0  0  0  0  0
  -31.8321  -14.6756   20.1536 O   0  0  0  0  0  0
  -21.6623   -6.8905   21.4254 O   0  0  0  0  0  0
  -22.3608  -14.5575   20.6748 O   0  0  0  0  0  0
  -24.6126  -31.8659   23.2058 C   0  0  0  0  0  0
  -25.9028  -32.4808   23.8367 C   0  0  1  0  0  0
  -27.2421  -27.4251   20.0782 C   0  0  0  0  0  0
  -25.5888  -33.8605   24.2289 N   0  0  0  0  0  0
  -23.4049  -30.4910   21.5394 C   0  0  2  0  0  0
  -24.8556  -28.9541   20.1133 C   0  0  0  0  0  0
  -22.7361  -29.4677   22.4866 C   0  0  0  0  0  0
  -18.0304  -28.1388   22.8454 C   0  0  0  0  0  0
  -24.1517  -36.7335   23.2628 C   0  0  0  0  0  0
  -25.9371  -30.8221   21.3742 C   0  0  0  0  0  0
  -26.0123  -29.4544   20.7209 C   0  0  0  0  0  0
  -27.2027  -28.6883   20.7129 C   0  0  0  0  0  0
  -26.0553  -26.9386   19.4794 C   0  0  0  0  0  0
  -24.8692  -27.6903   19.4999 C   0  0  0  0  0  0
  -23.6235  -29.8257   20.1540 C   0  0  0  0  0  0
  -25.4139  -36.3097   24.0320 C   0  0  1  0  0  0
  -20.5876  -28.3694   23.1234 C   0  0  2  0  0  0
  -20.6821  -26.9435   22.5345 C   0  0  0  0  0  0
  -19.5809  -26.6406   21.5151 C   0  0  0  0  0  0
  -18.1978  -26.7941   22.1582 C   0  0  0  0  0  0
  -19.1554  -28.8845   23.2853 C   0  0  0  0  0  0
  -18.9491  -30.1431   23.8871 C   0  0  0  0  0  0
  -17.6495  -30.6569   24.0567 C   0  0  0  0  0  0
  -25.9026  -34.9469   23.5102 C   0  0  0  0  0  0
  -16.5379  -29.9084   23.6339 C   0  0  0  0  0  0
  -16.7292  -28.6518   23.0309 C   0  0  0  0  0  0
  -26.4456  -31.6610   25.0691 C   0  0  0  0  0  0
  -25.3732  -31.3737   26.1445 C   0  0  0  0  0  0
  -27.0339  -30.3041   24.6149 C   0  0  0  0  0  0
  -27.5996  -32.4375   25.7453 C   0  0  0  0  0  0
  -27.5612  -37.1800   24.8442 C   0  0  0  0  0  0
  -21.4090  -29.3077   22.3611 N   0  0  0  0  0  0
  -26.4339  -37.3774   23.9375 N   0  0  0  0  0  0
  -24.6679  -31.0755   22.0973 N   0  0  0  0  0  0
  -23.4109  -28.8206   23.2921 O   0  0  0  0  0  0
  -28.4347  -26.7231   20.1016 O   0  0  0  0  0  0
  -26.5569  -34.8950   22.4650 O   0  0  0  0  0  0
  -23.5310  -32.1395   23.7430 O   0  0  0  0  0  0
  -31.9724  -19.8630   21.2645 C   0  0  0  0  0  0
  -33.3430  -19.5645   21.1947 C   0  0  0  0  0  0
  -32.8335  -17.2315   21.6686 C   0  0  0  0  0  0
  -31.0128  -18.8661   21.5683 C   0  0  0  0  0  0
  -31.4499  -17.5179   21.7768 C   0  0  0  0  0  0
  -33.7735  -18.2440   21.3921 C   0  0  0  0  0  0
  -28.9682  -21.7758   21.9199 C   0  0  0  0  0  0
  -29.1146  -24.3478   19.9114 C   0  0  0  0  0  0
  -29.6626  -20.4617   23.8630 C   0  0  0  0  0  0
  -26.8766  -23.3355   19.5807 C   0  0  0  0  0  0
  -29.5498  -19.3197   21.6783 C   0  0  0  0  0  0
  -30.5467  -16.3850   22.3003 C   0  0  0  0  0  0
  -28.7766  -21.9368   20.3955 C   0  0  0  0  0  0
  -28.6858  -25.6462   19.1830 C   0  0  0  0  0  0
  -30.0652  -15.3190   21.4105 N   0  0  0  0  0  0
  -29.3699  -20.5808   22.4282 N   0  0  0  0  0  0
  -28.2907  -23.2662   19.9566 N   0  0  0  0  0  0
  -28.7586  -22.7483   22.6557 O   0  0  0  0  0  0
  -30.2538  -24.3070   20.3873 O   0  0  0  0  0  0
  -35.4604  -17.8806   21.3247 Cl  0  0  0  0  0  0
  -31.4839  -12.4500   19.0803 H   0  0  0  0  0  0
  -30.3707  -11.3056   19.7746 H   0  0  0  0  0  0
  -29.7336  -11.7959   17.3987 H   0  0  0  0  0  0
  -29.6673  -13.5030   17.7464 H   0  0  0  0  0  0
  -27.8216  -11.3229   18.7824 H   0  0  0  0  0  0
  -27.3741  -12.6737   17.7762 H   0  0  0  0  0  0
  -27.7250  -14.2573   19.6034 H   0  0  0  0  0  0
  -28.7188  -11.8773   21.2467 H   0  0  0  0  0  0
  -28.4781  -13.4588   21.9020 H   0  0  0  0  0  0
  -25.2808   -9.5651   22.4723 H   0  0  0  0  0  0
  -24.0024   -7.4624   22.7436 H   0  0  0  0  0  0
  -21.0860   -8.8852   19.8942 H   0  0  0  0  0  0
  -22.3785  -10.9701   19.6160 H   0  0  0  0  0  0
  -21.1997   -7.6156   23.9763 H   0  0  0  0  0  0
  -21.1449   -6.0493   25.9090 H   0  0  0  0  0  0
  -22.0609   -2.7631   23.2831 H   0  0  0  0  0  0
  -22.4137  -11.9848   22.4759 H   0  0  0  0  0  0
  -21.1179  -13.1254   22.2629 H   0  0  0  0  0  0
  -24.6584  -15.8324   20.5121 H   0  0  0  0  0  0
  -26.2813  -15.6313   20.0840 H   0  0  0  0  0  0
  -26.7077  -32.5521   23.1107 H   0  0  0  0  0  0
  -25.0138  -33.9810   25.0488 H   0  0  0  0  0  0
  -22.7016  -31.3109   21.3901 H   0  0  0  0  0  0
  -23.3772  -35.9674   23.3274 H   0  0  0  0  0  0
  -24.3567  -36.8956   22.2040 H   0  0  0  0  0  0
  -23.7346  -37.6569   23.6653 H   0  0  0  0  0  0
  -26.0708  -31.6005   20.6201 H   0  0  0  0  0  0
  -26.8128  -30.8544   22.0074 H   0  0  0  0  0  0
  -28.0994  -29.0567   21.1939 H   0  0  0  0  0  0
  -25.9968  -25.9795   18.9903 H   0  0  0  0  0  0
  -23.9775  -27.2864   19.0370 H   0  0  0  0  0  0
  -23.7462  -30.5984   19.3922 H   0  0  0  0  0  0
  -22.7486  -29.2498   19.8476 H   0  0  0  0  0  0
  -25.1340  -36.1943   25.0816 H   0  0  0  0  0  0
  -21.0026  -28.3355   24.1332 H   0  0  0  0  0  0
  -20.5751  -26.2326   23.3541 H   0  0  0  0  0  0
  -21.6701  -26.7503   22.1140 H   0  0  0  0  0  0
  -19.6988  -25.6313   21.1208 H   0  0  0  0  0  0
  -19.6782  -27.3206   20.6668 H   0  0  0  0  0  0
  -17.4255  -26.6655   21.3982 H   0  0  0  0  0  0
  -18.0371  -26.0061   22.8957 H   0  0  0  0  0  0
  -19.7971  -30.7224   24.2228 H   0  0  0  0  0  0
  -17.5077  -31.6236   24.5198 H   0  0  0  0  0  0
  -15.5380  -30.2983   23.7665 H   0  0  0  0  0  0
  -15.8698  -28.0851   22.6985 H   0  0  0  0  0  0
  -24.5871  -30.7142   25.7769 H   0  0  0  0  0  0
  -24.8975  -32.2912   26.4885 H   0  0  0  0  0  0
  -25.8077  -30.8901   27.0197 H   0  0  0  0  0  0
  -26.2930  -29.6693   24.1276 H   0  0  0  0  0  0
  -27.4156  -29.7402   25.4661 H   0  0  0  0  0  0
  -27.8734  -30.4313   23.9325 H   0  0  0  0  0  0
  -27.2578  -33.3649   26.2052 H   0  0  0  0  0  0
  -28.3796  -32.6930   25.0291 H   0  0  0  0  0  0
  -28.0671  -31.8506   26.5356 H   0  0  0  0  0  0
  -28.2572  -38.0136   24.7497 H   0  0  0  0  0  0
  -28.1181  -36.2661   24.6280 H   0  0  0  0  0  0
  -27.2283  -37.1436   25.8827 H   0  0  0  0  0  0
  -20.9200  -29.8812   21.6862 H   0  0  0  0  0  0
  -26.0224  -38.2855   24.1361 H   0  0  0  0  0  0
  -31.6639  -20.8886   21.1176 H   0  0  0  0  0  0
  -34.0603  -20.3519   21.0057 H   0  0  0  0  0  0
  -33.1858  -16.2259   21.8442 H   0  0  0  0  0  0
  -28.7452  -20.5310   24.4489 H   0  0  0  0  0  0
  -30.3368  -21.2573   24.1870 H   0  0  0  0  0  0
  -30.1483  -19.5144   24.1038 H   0  0  0  0  0  0
  -26.4070  -24.1766   20.0856 H   0  0  0  0  0  0
  -26.3135  -22.4529   19.8868 H   0  0  0  0  0  0
  -26.7585  -23.4457   18.5019 H   0  0  0  0  0  0
  -28.9222  -18.5877   22.1792 H   0  0  0  0  0  0
  -29.1494  -19.3685   20.6680 H   0  0  0  0  0  0
  -29.6755  -16.7843   22.8123 H   0  0  0  0  0  0
  -31.0912  -15.8796   23.0956 H   0  0  0  0  0  0
  -28.1056  -21.1626   20.0274 H   0  0  0  0  0  0
  -29.7360  -21.7404   19.9169 H   0  0  0  0  0  0
  -27.9262  -25.4735   18.4282 H   0  0  0  0  0  0
  -29.5568  -25.9543   18.6032 H   0  0  0  0  0  0
  -29.1400  -14.9888   21.6383 H   0  0  0  0  0  0
  1 25  1  0  0  0
  1 30  2  0  0  0
  1 85  1  0  0  0
  2  3  1  0  0  0
  2 25  1  0  0  0
  2 91  1  0  0  0
  2 92  1  0  0  0
  3  4  1  0  0  0
  3 93  1  0  0  0
  3 94  1  0  0  0
  4  5  1  0  0  0
  4 95  1  0  0  0
  4 96  1  0  0  0
  5  6  1  0  0  0
  5 26  1  0  0  0
  5 97  1  0  0  0
  6 25  1  0  0  0
  6 98  1  0  0  0
  6 99  1  0  0  0
  7  8  2  0  0  0
  7 26  1  0  0  0
  7 29  1  0  0  0
  8  9  1  0  0  0
  8 22  1  0  0  0
  9 10  1  0  0  0
  9 27  2  0  0  0
 10 11  2  0  0  0
 10 15  1  0  0  0
 11 12  1  0  0  0
 11100  1  0  0  0
 12 13  2  0  0  0
 12101  1  0  0  0
 13 14  1  0  0  0
 13 31  1  0  0  0
 14 15  2  0  0  0
 14102  1  0  0  0
 15103  1  0  0  0
 16 17  2  0  0  0
 16 21  1  0  0  0
 16 31  1  0  0  0
 17 18  1  0  0  0
 17104  1  0  0  0
 18 19  2  0  0  0
 18105  1  0  0  0
 19 20  1  0  0  0
 19 24  1  0  0  0
 20 21  2  0  0  0
 20106  1  0  0  0
 21 23  1  0  0  0
 22 28  1  0  0  0
 22 32  2  0  0  0
 26 27  1  0  0  0
 28107  1  0  0  0
 28108  1  0  0  0
 29109  1  0  0  0
 29110  1  0  0  0
 33 34  1  0  0  0
 33 66  1  0  0  0
 33 70  2  0  0  0
 34 36  1  0  0  0
 34 59  1  0  0  0
 34111  1  0  0  0
 35 44  2  0  0  0
 35 45  1  0  0  0
 35 68  1  0  0  0
 36 56  1  0  0  0
 36112  1  0  0  0
 37 39  1  0  0  0
 37 47  1  0  0  0
 37 66  1  0  0  0
 37113  1  0  0  0
 38 43  2  0  0  0
 38 46  1  0  0  0
 38 47  1  0  0  0
 39 64  1  0  0  0
 39 67  2  0  0  0
 40 52  1  0  0  0
 40 53  2  0  0  0
 40 58  1  0  0  0
 41114  1  0  0  0
 41115  1  0  0  0
 41116  1  0  0  0
 41 48  1  0  0  0
 42 43  1  0  0  0
 42 66  1  0  0  0
 42117  1  0  0  0
 42118  1  0  0  0
 43 44  1  0  0  0
 44119  1  0  0  0
 45 46  2  0  0  0
 45120  1  0  0  0
 46121  1  0  0  0
 47122  1  0  0  0
 47123  1  0  0  0
 48 56  1  0  0  0
 48 65  1  0  0  0
 48124  1  0  0  0
 49 50  1  0  0  0
 49 53  1  0  0  0
 49 64  1  0  0  0
 49125  1  0  0  0
 50 51  1  0  0  0
 50126  1  0  0  0
 50127  1  0  0  0
 51 52  1  0  0  0
 51128  1  0  0  0
 51129  1  0  0  0
 52130  1  0  0  0
 52131  1  0  0  0
 53 54  1  0  0  0
 54 55  2  0  0  0
 54132  1  0  0  0
 55 57  1  0  0  0
 55133  1  0  0  0
 56 69  2  0  0  0
 57 58  2  0  0  0
 57134  1  0  0  0
 58135  1  0  0  0
 59 60  1  0  0  0
 59 61  1  0  0  0
 59 62  1  0  0  0
 60136  1  0  0  0
 60137  1  0  0  0
 60138  1  0  0  0
 61139  1  0  0  0
 61140  1  0  0  0
 61141  1  0  0  0
 62142  1  0  0  0
 62143  1  0  0  0
 62144  1  0  0  0
 63 65  1  0  0  0
 63145  1  0  0  0
 63146  1  0  0  0
 63147  1  0  0  0
 64148  1  0  0  0
 65149  1  0  0  0
 68 84  1  0  0  0
 71 72  2  0  0  0
 71 74  1  0  0  0
 71150  1  0  0  0
 72 76  1  0  0  0
 72151  1  0  0  0
 73 75  1  0  0  0
 73 76  2  0  0  0
 73152  1  0  0  0
 74 75  2  0  0  0
 74 81  1  0  0  0
 75 82  1  0  0  0
 76 90  1  0  0  0
 77 83  1  0  0  0
 77 86  1  0  0  0
 77 88  2  0  0  0
 78 84  1  0  0  0
 78 87  1  0  0  0
 78 89  2  0  0  0
 79 86  1  0  0  0
 79153  1  0  0  0
 79154  1  0  0  0
 79155  1  0  0  0
 80 87  1  0  0  0
 80156  1  0  0  0
 80157  1  0  0  0
 80158  1  0  0  0
 81 86  1  0  0  0
 81159  1  0  0  0
 81160  1  0  0  0
 82 85  1  0  0  0
 82161  1  0  0  0
 82162  1  0  0  0
 83 87  1  0  0  0
 83163  1  0  0  0
 83164  1  0  0  0
 84165  1  0  0  0
 84166  1  0  0  0
 85167  1  0  0  0
M  ISO  4   1 100  68 101  84 101  85 100
M  END
> <chiral flag>
0

> <version>
0

> <s_m_source_file>
/data/baiqing/PycharmProjects/Reinvent-master-3.2/result/LINK_invent/BTK/process_docking_weight1_custom_product_contain_oxygen_bond_distance_aromatic_linkinvent_7_9_3/rearranged_h_0052.sdf

> <i_m_source_file_index>
59

> <r_mmod_Potential_Energy-OPLS-2005>
-100.146614074707

> <r_mmod_Stretch_Energy-OPLS-2005>
45.721378326416

> <r_mmod_Bend_Energy-OPLS-2005>
135.289566040039

> <r_mmod_Torsional_Energy-OPLS-2005>
220.475326538086

> <r_mmod_Improper_Torsional_Energy-OPLS-2005>
4.17932844161987

> <r_mmod_Van_der_Waal_Energy-OPLS-2005>
171.522384643555

> <r_mmod_Electrostatic_Energy-OPLS-2005>
-411.803924560547

> <r_mmod_Solvation_Energy-OPLS-2005>
-278.233947753906

> <b_mmod_Minimization_Converged-OPLS-2005>
0

> <r_mmod_RMS_Derivative-OPLS-2005>
5.35247039794922

$$$$
59
                    3D
 Structure written by MMmdl.
165174  0  0  1  0            999 V2000
  -30.6778  -14.5304   20.5229 C   0  0  0  0  0  0
  -30.4248  -12.3266   19.4273 C   0  0  0  0  0  0
  -29.4956  -12.4997   18.2078 C   0  0  0  0  0  0
  -28.0157  -12.3596   18.6199 C   0  0  0  0  0  0
  -27.6563  -13.2101   19.8667 C   0  0  2  0  0  0
  -28.7030  -13.0202   20.9885 C   0  0  0  0  0  0
  -25.2525  -13.8103   20.5571 C   0  0  0  0  0  0
  -24.1825  -13.0400   20.9205 C   0  0  0  0  0  0
  -24.6403  -11.6873   20.8788 C   0  0  0  0  0  0
  -23.9071  -10.4264   21.0435 C   0  0  0  0  0  0
  -24.3618   -9.4177   21.9202 C   0  0  0  0  0  0
  -23.6298   -8.2211   22.0756 C   0  0  0  0  0  0
  -22.4286   -8.0263   21.3538 C   0  0  0  0  0  0
  -21.9921   -9.0235   20.4644 C   0  0  0  0  0  0
  -22.7248  -10.2118   20.3072 C   0  0  0  0  0  0
  -21.6843   -6.0742   22.5289 C   0  0  0  0  0  0
  -21.4008   -6.5641   23.8222 C   0  0  0  0  0  0
  -21.3663   -5.6796   24.9179 C   0  0  0  0  0  0
  -21.6045   -4.3060   24.7228 C   0  0  0  0  0  0
  -21.8815   -3.8153   23.4350 C   0  0  0  0  0  0
  -21.9184   -4.6974   22.3409 C   0  0  0  0  0  0
  -22.7844  -13.5200   21.1862 C   0  0  0  0  0  0
  -22.1651   -4.2157   21.0992 F   0  0  0  0  0  0
  -21.5638   -3.4547   25.7740 F   0  0  0  0  0  0
  -30.0295  -13.3320   20.4269 N   0  0  0  0  0  0
  -26.2996  -12.9308   20.3329 N   0  0  0  0  0  0
  -25.9338  -11.6478   20.5810 N   0  0  0  0  0  0
  -22.0487  -12.8195   22.0427 N   0  0  0  0  0  0
  -25.4123  -15.1773   20.3697 N   0  0  0  0  0  0
  -31.8331  -14.6841   20.1198 O   0  0  0  0  0  0
  -21.6636   -6.8875   21.4243 O   0  0  0  0  0  0
  -22.3525  -14.5505   20.6710 O   0  0  0  0  0  0
  -24.6161  -31.8634   23.2082 C   0  0  0  0  0  0
  -25.9056  -32.4802   23.8378 C   0  0  1  0  0  0
  -27.2463  -27.3993   20.1020 C   0  0  0  0  0  0
  -25.5905  -33.8604   24.2292 N   0  0  0  0  0  0
  -23.4055  -30.4872   21.5492 C   0  0  2  0  0  0
  -24.8528  -28.9459   20.1198 C   0  0  0  0  0  0
  -22.7418  -29.4636   22.4985 C   0  0  0  0  0  0
  -18.0269  -28.1355   22.8491 C   0  0  0  0  0  0
  -24.1495  -36.7295   23.2649 C   0  0  0  0  0  0
  -25.9387  -30.8169   21.3682 C   0  0  0  0  0  0
  -26.0131  -29.4494   20.7150 C   0  0  0  0  0  0
  -27.2066  -28.6848   20.6996 C   0  0  0  0  0  0
  -26.0575  -26.9160   19.5043 C   0  0  0  0  0  0
  -24.8719  -27.6779   19.5137 C   0  0  0  0  0  0
  -23.6153  -29.8167   20.1664 C   0  0  0  0  0  0
  -25.4116  -36.3100   24.0342 C   0  0  1  0  0  0
  -20.5859  -28.3639   23.1329 C   0  0  2  0  0  0
  -20.6760  -26.9371   22.5441 C   0  0  0  0  0  0
  -19.5743  -26.6360   21.5245 C   0  0  0  0  0  0
  -18.1910  -26.7904   22.1626 C   0  0  0  0  0  0
  -19.1524  -28.8813   23.2895 C   0  0  0  0  0  0
  -18.9460  -30.1430   23.8890 C   0  0  0  0  0  0
  -17.6469  -30.6561   24.0572 C   0  0  0  0  0  0
  -25.9048  -34.9465   23.5108 C   0  0  0  0  0  0
  -16.5351  -29.9077   23.6340 C   0  0  0  0  0  0
  -16.7264  -28.6501   23.0333 C   0  0  0  0  0  0
  -26.4462  -31.6595   25.0718 C   0  0  0  0  0  0
  -25.3734  -31.3729   26.1477 C   0  0  0  0  0  0
  -27.0295  -30.3038   24.6102 C   0  0  0  0  0  0
  -27.6013  -32.4339   25.7490 C   0  0  0  0  0  0
  -27.5582  -37.1789   24.8468 C   0  0  0  0  0  0
  -21.4141  -29.3002   22.3728 N   0  0  0  0  0  0
  -26.4301  -37.3793   23.9420 N   0  0  0  0  0  0
  -24.6718  -31.0711   22.0991 N   0  0  0  0  0  0
  -23.4172  -28.8197   23.3058 O   0  0  0  0  0  0
  -28.4547  -26.7082   20.1070 O   0  0  0  0  0  0
  -26.5622  -34.8915   22.4675 O   0  0  0  0  0  0
  -23.5337  -32.1397   23.7442 O   0  0  0  0  0  0
  -31.4939  -19.0341   20.9094 C   0  0  0  0  0  0
  -31.3461  -17.6331   20.7459 C   0  0  0  0  0  0
  -29.1599  -19.2219   21.4845 C   0  0  0  0  0  0
  -30.4063  -19.8536   21.2968 C   0  0  0  0  0  0
  -29.0026  -17.8225   21.3362 C   0  0  0  0  0  0
  -30.1024  -16.9911   20.9818 C   0  0  0  0  0  0
  -31.1531  -23.1195   20.0525 C   0  0  0  0  0  0
  -28.9107  -22.9722   21.0739 C   0  0  0  0  0  0
  -32.2039  -22.4323   19.5605 C   0  0  0  0  0  0
  -31.0643  -24.6232   19.7540 C   0  0  0  0  0  0
  -28.6268  -24.4921   21.1769 C   0  0  0  0  0  0
  -29.8059  -25.0503   18.9761 C   0  0  0  0  0  0
  -28.5572  -25.2834   19.8460 C   0  0  2  0  0  0
  -27.6186  -17.2523   21.5922 C   0  0  0  0  0  0
  -30.6246  -21.3266   21.7289 C   0  0  0  0  0  0
  -30.1826  -22.4936   20.8958 N   0  0  0  0  0  0
  -29.8929  -15.5625   20.9149 N   0  0  0  0  0  0
  -27.9690  -22.2183   21.3407 O   0  0  0  0  0  0
  -31.4688  -12.4272   19.1270 H   0  0  0  0  0  0
  -30.3284  -11.3221   19.8424 H   0  0  0  0  0  0
  -29.7354  -11.7616   17.4420 H   0  0  0  0  0  0
  -29.6605  -13.4785   17.7543 H   0  0  0  0  0  0
  -27.8296  -11.3055   18.8270 H   0  0  0  0  0  0
  -27.3657  -12.6243   17.7837 H   0  0  0  0  0  0
  -27.6857  -14.2528   19.5510 H   0  0  0  0  0  0
  -28.6905  -11.9908   21.3501 H   0  0  0  0  0  0
  -28.4640  -13.6376   21.8557 H   0  0  0  0  0  0
  -25.2754   -9.5653   22.4793 H   0  0  0  0  0  0
  -23.9993   -7.4600   22.7478 H   0  0  0  0  0  0
  -21.0853   -8.8779   19.8944 H   0  0  0  0  0  0
  -22.3715  -10.9677   19.6202 H   0  0  0  0  0  0
  -21.1999   -7.6146   23.9733 H   0  0  0  0  0  0
  -21.1490   -6.0519   25.9085 H   0  0  0  0  0  0
  -22.0589   -2.7616   23.2848 H   0  0  0  0  0  0
  -22.4092  -11.9827   22.4770 H   0  0  0  0  0  0
  -21.1117  -13.1232   22.2671 H   0  0  0  0  0  0
  -24.6191  -15.8074   20.4068 H   0  0  0  0  0  0
  -26.2139  -15.5806   19.9030 H   0  0  0  0  0  0
  -26.7099  -32.5484   23.1117 H   0  0  0  0  0  0
  -25.0055  -33.9772   25.0432 H   0  0  0  0  0  0
  -22.6951  -31.3040   21.4053 H   0  0  0  0  0  0
  -23.3752  -35.9634   23.3331 H   0  0  0  0  0  0
  -24.3587  -36.8910   22.2067 H   0  0  0  0  0  0
  -23.7242  -37.6512   23.6644 H   0  0  0  0  0  0
  -26.0584  -31.5806   20.5990 H   0  0  0  0  0  0
  -26.8233  -30.8647   21.9912 H   0  0  0  0  0  0
  -28.1033  -29.0779   21.1555 H   0  0  0  0  0  0
  -26.0094  -25.9593   19.0087 H   0  0  0  0  0  0
  -23.9789  -27.2801   19.0524 H   0  0  0  0  0  0
  -23.7244  -30.5888   19.4049 H   0  0  0  0  0  0
  -22.7361  -29.2400   19.8714 H   0  0  0  0  0  0
  -25.1280  -36.1960   25.0835 H   0  0  0  0  0  0
  -20.9927  -28.3195   24.1462 H   0  0  0  0  0  0
  -20.5681  -26.2235   23.3612 H   0  0  0  0  0  0
  -21.6612  -26.7405   22.1209 H   0  0  0  0  0  0
  -19.6925  -25.6297   21.1227 H   0  0  0  0  0  0
  -19.6705  -27.3197   20.6804 H   0  0  0  0  0  0
  -17.4187  -26.6678   21.4009 H   0  0  0  0  0  0
  -18.0282  -26.0032   22.9001 H   0  0  0  0  0  0
  -19.7945  -30.7250   24.2213 H   0  0  0  0  0  0
  -17.5030  -31.6247   24.5165 H   0  0  0  0  0  0
  -15.5348  -30.2975   23.7674 H   0  0  0  0  0  0
  -15.8659  -28.0840   22.7016 H   0  0  0  0  0  0
  -24.5872  -30.7106   25.7844 H   0  0  0  0  0  0
  -24.8958  -32.2915   26.4918 H   0  0  0  0  0  0
  -25.8093  -30.8911   27.0235 H   0  0  0  0  0  0
  -26.2856  -29.6809   24.1128 H   0  0  0  0  0  0
  -27.4075  -29.7254   25.4544 H   0  0  0  0  0  0
  -27.8683  -30.4387   23.9257 H   0  0  0  0  0  0
  -27.2596  -33.3617   26.2073 H   0  0  0  0  0  0
  -28.3818  -32.6930   25.0330 H   0  0  0  0  0  0
  -28.0666  -31.8466   26.5419 H   0  0  0  0  0  0
  -28.2570  -38.0101   24.7493 H   0  0  0  0  0  0
  -28.1079  -36.2623   24.6280 H   0  0  0  0  0  0
  -27.2284  -37.1439   25.8864 H   0  0  0  0  0  0
  -20.9285  -29.8769   21.7000 H   0  0  0  0  0  0
  -26.0175  -38.2873   24.1414 H   0  0  0  0  0  0
  -32.4792  -19.4623   20.7930 H   0  0  0  0  0  0
  -32.2232  -17.0637   20.4775 H   0  0  0  0  0  0
  -28.3132  -19.8062   21.8133 H   0  0  0  0  0  0
  -32.9492  -22.9207   18.9470 H   0  0  0  0  0  0
  -32.3502  -21.3785   19.7209 H   0  0  0  0  0  0
  -31.9256  -24.8968   19.1430 H   0  0  0  0  0  0
  -31.1978  -25.2103   20.6640 H   0  0  0  0  0  0
  -29.3666  -24.9294   21.8484 H   0  0  0  0  0  0
  -27.6770  -24.6249   21.6981 H   0  0  0  0  0  0
  -29.5922  -24.2924   18.2199 H   0  0  0  0  0  0
  -30.0187  -25.9615   18.4152 H   0  0  0  0  0  0
  -27.7213  -24.9117   19.2617 H   0  0  0  0  0  0
  -27.1183  -17.7995   22.3905 H   0  0  0  0  0  0
  -27.6235  -16.2038   21.8848 H   0  0  0  0  0  0
  -27.0160  -17.3617   20.6912 H   0  0  0  0  0  0
  -31.6801  -21.4538   21.9699 H   0  0  0  0  0  0
  -30.1521  -21.4263   22.7087 H   0  0  0  0  0  0
  -28.9588  -15.2685   21.1497 H   0  0  0  0  0  0
  1 25  1  0  0  0
  1 30  2  0  0  0
  1 87  1  0  0  0
  2  3  1  0  0  0
  2 25  1  0  0  0
  2 89  1  0  0  0
  2 90  1  0  0  0
  3  4  1  0  0  0
  3 91  1  0  0  0
  3 92  1  0  0  0
  4  5  1  0  0  0
  4 93  1  0  0  0
  4 94  1  0  0  0
  5  6  1  0  0  0
  5 26  1  0  0  0
  5 95  1  0  0  0
  6 25  1  0  0  0
  6 96  1  0  0  0
  6 97  1  0  0  0
  7  8  2  0  0  0
  7 26  1  0  0  0
  7 29  1  0  0  0
  8  9  1  0  0  0
  8 22  1  0  0  0
  9 10  1  0  0  0
  9 27  2  0  0  0
 10 11  2  0  0  0
 10 15  1  0  0  0
 11 12  1  0  0  0
 11 98  1  0  0  0
 12 13  2  0  0  0
 12 99  1  0  0  0
 13 14  1  0  0  0
 13 31  1  0  0  0
 14 15  2  0  0  0
 14100  1  0  0  0
 15101  1  0  0  0
 16 17  2  0  0  0
 16 21  1  0  0  0
 16 31  1  0  0  0
 17 18  1  0  0  0
 17102  1  0  0  0
 18 19  2  0  0  0
 18103  1  0  0  0
 19 20  1  0  0  0
 19 24  1  0  0  0
 20 21  2  0  0  0
 20104  1  0  0  0
 21 23  1  0  0  0
 22 28  1  0  0  0
 22 32  2  0  0  0
 26 27  1  0  0  0
 28105  1  0  0  0
 28106  1  0  0  0
 29107  1  0  0  0
 29108  1  0  0  0
 33 34  1  0  0  0
 33 66  1  0  0  0
 33 70  2  0  0  0
 34 36  1  0  0  0
 34 59  1  0  0  0
 34109  1  0  0  0
 35 44  2  0  0  0
 35 45  1  0  0  0
 35 68  1  0  0  0
 36 56  1  0  0  0
 36110  1  0  0  0
 37 39  1  0  0  0
 37 47  1  0  0  0
 37 66  1  0  0  0
 37111  1  0  0  0
 38 43  2  0  0  0
 38 46  1  0  0  0
 38 47  1  0  0  0
 39 64  1  0  0  0
 39 67  2  0  0  0
 40 52  1  0  0  0
 40 53  2  0  0  0
 40 58  1  0  0  0
 41112  1  0  0  0
 41113  1  0  0  0
 41114  1  0  0  0
 41 48  1  0  0  0
 42 43  1  0  0  0
 42 66  1  0  0  0
 42115  1  0  0  0
 42116  1  0  0  0
 43 44  1  0  0  0
 44117  1  0  0  0
 45 46  2  0  0  0
 45118  1  0  0  0
 46119  1  0  0  0
 47120  1  0  0  0
 47121  1  0  0  0
 48 56  1  0  0  0
 48 65  1  0  0  0
 48122  1  0  0  0
 49 50  1  0  0  0
 49 53  1  0  0  0
 49 64  1  0  0  0
 49123  1  0  0  0
 50 51  1  0  0  0
 50124  1  0  0  0
 50125  1  0  0  0
 51 52  1  0  0  0
 51126  1  0  0  0
 51127  1  0  0  0
 52128  1  0  0  0
 52129  1  0  0  0
 53 54  1  0  0  0
 54 55  2  0  0  0
 54130  1  0  0  0
 55 57  1  0  0  0
 55131  1  0  0  0
 56 69  2  0  0  0
 57 58  2  0  0  0
 57132  1  0  0  0
 58133  1  0  0  0
 59 60  1  0  0  0
 59 61  1  0  0  0
 59 62  1  0  0  0
 60134  1  0  0  0
 60135  1  0  0  0
 60136  1  0  0  0
 61137  1  0  0  0
 61138  1  0  0  0
 61139  1  0  0  0
 62140  1  0  0  0
 62141  1  0  0  0
 62142  1  0  0  0
 63 65  1  0  0  0
 63143  1  0  0  0
 63144  1  0  0  0
 63145  1  0  0  0
 64146  1  0  0  0
 65147  1  0  0  0
 68 83  1  0  0  0
 71 72  2  0  0  0
 71 74  1  0  0  0
 71148  1  0  0  0
 72 76  1  0  0  0
 72149  1  0  0  0
 73 74  2  0  0  0
 73 75  1  0  0  0
 73150  1  0  0  0
 74 85  1  0  0  0
 75 76  2  0  0  0
 75 84  1  0  0  0
 76 87  1  0  0  0
 77 79  2  0  0  0
 77 80  1  0  0  0
 77 86  1  0  0  0
 78 81  1  0  0  0
 78 86  1  0  0  0
 78 88  2  0  0  0
 79151  1  0  0  0
 79152  1  0  0  0
 80 82  1  0  0  0
 80153  1  0  0  0
 80154  1  0  0  0
 81 83  1  0  0  0
 81155  1  0  0  0
 81156  1  0  0  0
 82 83  1  0  0  0
 82157  1  0  0  0
 82158  1  0  0  0
 83159  1  0  0  0
 84160  1  0  0  0
 84161  1  0  0  0
 84162  1  0  0  0
 85 86  1  0  0  0
 85163  1  0  0  0
 85164  1  0  0  0
 87165  1  0  0  0
M  ISO  4   1 100  68 101  83 101  87 100
M  END
> <chiral flag>
0

> <version>
0

> <s_m_source_file>
/data/baiqing/PycharmProjects/Reinvent-master-3.2/result/LINK_invent/BTK/process_docking_weight1_custom_product_contain_oxygen_bond_distance_aromatic_linkinvent_7_9_3/rearranged_h_0052.sdf

> <i_m_source_file_index>
60

> <r_mmod_Potential_Energy-OPLS-2005>
81.1505966186523

> <r_mmod_Stretch_Energy-OPLS-2005>
56.7040100097656

> <r_mmod_Bend_Energy-OPLS-2005>
147.832992553711

> <r_mmod_Torsional_Energy-OPLS-2005>
254.571197509766

> <r_mmod_Improper_Torsional_Energy-OPLS-2005>
9.21521663665771

> <r_mmod_Van_der_Waal_Energy-OPLS-2005>
173.897079467773

> <r_mmod_Electrostatic_Energy-OPLS-2005>
-374.701721191406

> <r_mmod_Solvation_Energy-OPLS-2005>
-206.1650390625

> <b_mmod_Minimization_Converged-OPLS-2005>
0

> <r_mmod_RMS_Derivative-OPLS-2005>
2.87434101104736

$$$$
60
                    3D
 Structure written by MMmdl.
157165  0  0  1  0            999 V2000
  -30.5026  -15.0590   20.4391 C   0  0  0  0  0  0
  -30.4331  -12.6585   19.5309 C   0  0  0  0  0  0
  -29.5383  -12.5021   18.2801 C   0  0  0  0  0  0
  -28.0733  -12.2700   18.6969 C   0  0  0  0  0  0
  -27.6134  -13.2502   19.8104 C   0  0  2  0  0  0
  -28.6418  -13.3437   20.9579 C   0  0  0  0  0  0
  -25.2309  -13.8210   20.5540 C   0  0  0  0  0  0
  -24.1699  -13.0464   20.9206 C   0  0  0  0  0  0
  -24.6309  -11.6926   20.8683 C   0  0  0  0  0  0
  -23.8992  -10.4333   21.0359 C   0  0  0  0  0  0
  -24.3567   -9.4252   21.9122 C   0  0  0  0  0  0
  -23.6271   -8.2271   22.0705 C   0  0  0  0  0  0
  -22.4222   -8.0295   21.3551 C   0  0  0  0  0  0
  -21.9863   -9.0238   20.4612 C   0  0  0  0  0  0
  -22.7181  -10.2125   20.2995 C   0  0  0  0  0  0
  -21.6853   -6.0728   22.5315 C   0  0  0  0  0  0
  -21.4053   -6.5616   23.8261 C   0  0  0  0  0  0
  -21.3682   -5.6768   24.9224 C   0  0  0  0  0  0
  -21.6044   -4.3024   24.7293 C   0  0  0  0  0  0
  -21.8812   -3.8128   23.4402 C   0  0  0  0  0  0
  -21.9186   -4.6956   22.3445 C   0  0  0  0  0  0
  -22.7718  -13.5210   21.1975 C   0  0  0  0  0  0
  -22.1604   -4.2153   21.1014 F   0  0  0  0  0  0
  -21.5631   -3.4479   25.7780 F   0  0  0  0  0  0
  -29.9005  -13.7928   20.3521 N   0  0  0  0  0  0
  -26.2740  -12.9457   20.3032 N   0  0  0  0  0  0
  -25.9236  -11.6590   20.5629 N   0  0  0  0  0  0
  -22.0333  -12.8173   22.0489 N   0  0  0  0  0  0
  -25.3938  -15.1924   20.3810 N   0  0  0  0  0  0
  -31.7169  -15.0726   20.2042 O   0  0  0  0  0  0
  -21.6593   -6.8880   21.4273 O   0  0  0  0  0  0
  -22.3418  -14.5583   20.6926 O   0  0  0  0  0  0
  -24.6428  -31.8423   23.1871 C   0  0  0  0  0  0
  -25.9165  -32.4726   23.8323 C   0  0  1  0  0  0
  -27.1964  -27.0599   20.1862 C   0  0  0  0  0  0
  -25.5875  -33.8544   24.2277 N   0  0  0  0  0  0
  -23.4527  -30.4598   21.5348 C   0  0  2  0  0  0
  -24.8990  -28.8774   20.1137 C   0  0  0  0  0  0
  -22.7555  -29.4542   22.4837 C   0  0  0  0  0  0
  -18.0328  -28.1439   22.8471 C   0  0  0  0  0  0
  -24.1449  -36.7232   23.2656 C   0  0  0  0  0  0
  -26.0105  -30.6876   21.4055 C   0  0  0  0  0  0
  -26.0725  -29.2900   20.7519 C   0  0  0  0  0  0
  -27.2082  -28.3896   20.7926 C   0  0  0  0  0  0
  -26.0045  -26.7801   19.4753 C   0  0  0  0  0  0
  -24.8767  -27.6334   19.4670 C   0  0  0  0  0  0
  -23.6837  -29.7928   20.1530 C   0  0  0  0  0  0
  -25.4089  -36.3084   24.0366 C   0  0  1  0  0  0
  -20.5928  -28.3761   23.1186 C   0  0  2  0  0  0
  -20.6796  -26.9442   22.5407 C   0  0  0  0  0  0
  -19.5770  -26.6407   21.5210 C   0  0  0  0  0  0
  -18.1961  -26.7966   22.1624 C   0  0  0  0  0  0
  -19.1584  -28.8907   23.2833 C   0  0  0  0  0  0
  -18.9504  -30.1494   23.8854 C   0  0  0  0  0  0
  -17.6510  -30.6611   24.0565 C   0  0  0  0  0  0
  -25.9017  -34.9441   23.5133 C   0  0  0  0  0  0
  -16.5397  -29.9115   23.6353 C   0  0  0  0  0  0
  -16.7314  -28.6542   23.0356 C   0  0  0  0  0  0
  -26.4505  -31.6594   25.0746 C   0  0  0  0  0  0
  -25.3619  -31.3858   26.1388 C   0  0  0  0  0  0
  -27.0396  -30.2972   24.6376 C   0  0  0  0  0  0
  -27.6049  -32.4379   25.7538 C   0  0  0  0  0  0
  -27.5569  -37.1786   24.8477 C   0  0  0  0  0  0
  -21.4247  -29.3067   22.3540 N   0  0  0  0  0  0
  -26.4269  -37.3791   23.9422 N   0  0  0  0  0  0
  -24.7225  -31.0207   22.0984 N   0  0  0  0  0  0
  -23.4158  -28.8047   23.3005 O   0  0  0  0  0  0
  -28.2168  -26.0269   20.3400 O   0  0  0  0  0  0
  -26.5624  -34.8906   22.4729 O   0  0  0  0  0  0
  -23.5506  -32.1407   23.6977 O   0  0  0  0  0  0
  -31.9730  -18.2796   22.7791 C   0  0  0  0  0  0
  -32.2382  -19.4466   22.0599 C   0  0  0  0  0  0
  -30.9338  -17.4316   22.3726 C   0  0  0  0  0  0
  -30.1263  -19.1887   20.7815 C   0  0  0  0  0  0
  -30.2067  -17.6866   21.1641 C   0  0  0  0  0  0
  -31.3194  -19.9116   21.1059 C   0  0  0  0  0  0
  -28.5805  -23.1037   20.5630 C   0  0  0  0  0  0
  -30.5553  -16.2815   23.3232 C   0  0  0  0  0  0
  -28.8448  -21.8306   18.4801 C   0  0  0  0  0  0
  -28.8635  -20.2526   20.4339 C   0  0  0  0  0  0
  -28.1567  -24.5471   19.7674 C   0  0  0  0  0  0
  -29.7695  -16.3139   20.5645 N   0  0  0  0  0  0
  -28.8374  -21.8141   19.9448 N   0  0  0  0  0  0
  -28.5929  -23.1586   21.7970 O   0  0  0  0  0  0
  -31.7162  -21.4520   20.4294 Cl  0  0  0  0  0  0
  -31.4665  -12.8261   19.2285 H   0  0  0  0  0  0
  -30.4391  -11.7348   20.1095 H   0  0  0  0  0  0
  -29.8932  -11.6700   17.6686 H   0  0  0  0  0  0
  -29.6136  -13.3986   17.6652 H   0  0  0  0  0  0
  -28.0017  -11.2435   19.0622 H   0  0  0  0  0  0
  -27.4145  -12.3283   17.8329 H   0  0  0  0  0  0
  -27.5615  -14.2308   19.3306 H   0  0  0  0  0  0
  -28.7460  -12.3764   21.4570 H   0  0  0  0  0  0
  -28.3205  -14.0559   21.7196 H   0  0  0  0  0  0
  -25.2714   -9.5745   22.4690 H   0  0  0  0  0  0
  -24.0035   -7.4660   22.7373 H   0  0  0  0  0  0
  -21.0806   -8.8747   19.8882 H   0  0  0  0  0  0
  -22.3638  -10.9651   19.6084 H   0  0  0  0  0  0
  -21.2047   -7.6112   23.9802 H   0  0  0  0  0  0
  -21.1470   -6.0449   25.9129 H   0  0  0  0  0  0
  -22.0549   -2.7585   23.2894 H   0  0  0  0  0  0
  -22.3923  -11.9918   22.5067 H   0  0  0  0  0  0
  -21.0919  -13.1185   22.2660 H   0  0  0  0  0  0
  -24.6268  -15.8414   20.5176 H   0  0  0  0  0  0
  -26.2053  -15.6237   19.9617 H   0  0  0  0  0  0
  -26.7205  -32.5338   23.1033 H   0  0  0  0  0  0
  -25.0030  -33.9740   25.0416 H   0  0  0  0  0  0
  -22.7626  -31.2902   21.3814 H   0  0  0  0  0  0
  -23.3767  -35.9493   23.3322 H   0  0  0  0  0  0
  -24.3537  -36.8840   22.2060 H   0  0  0  0  0  0
  -23.7114  -37.6398   23.6671 H   0  0  0  0  0  0
  -26.1655  -31.4321   20.6258 H   0  0  0  0  0  0
  -26.8759  -30.7506   22.0510 H   0  0  0  0  0  0
  -28.0679  -28.6710   21.3813 H   0  0  0  0  0  0
  -25.8672  -25.8517   18.9481 H   0  0  0  0  0  0
  -23.9786  -27.3170   18.9565 H   0  0  0  0  0  0
  -23.8298  -30.5732   19.4058 H   0  0  0  0  0  0
  -22.7936  -29.2475   19.8380 H   0  0  0  0  0  0
  -25.1284  -36.1979   25.0871 H   0  0  0  0  0  0
  -21.0084  -28.3361   24.1287 H   0  0  0  0  0  0
  -20.5666  -26.2377   23.3656 H   0  0  0  0  0  0
  -21.6668  -26.7427   22.1212 H   0  0  0  0  0  0
  -19.6926  -25.6298   21.1284 H   0  0  0  0  0  0
  -19.6696  -27.3160   20.6693 H   0  0  0  0  0  0
  -17.4232  -26.6691   21.4056 H   0  0  0  0  0  0
  -18.0333  -26.0156   22.9060 H   0  0  0  0  0  0
  -19.7988  -30.7321   24.2176 H   0  0  0  0  0  0
  -17.5080  -31.6278   24.5196 H   0  0  0  0  0  0
  -15.5392  -30.3009   23.7713 H   0  0  0  0  0  0
  -15.8720  -28.0853   22.7090 H   0  0  0  0  0  0
  -24.5805  -30.7217   25.7700 H   0  0  0  0  0  0
  -24.8733  -32.3020   26.4679 H   0  0  0  0  0  0
  -25.7758  -30.9122   27.0269 H   0  0  0  0  0  0
  -26.3040  -29.6678   24.1316 H   0  0  0  0  0  0
  -27.3924  -29.7363   25.5050 H   0  0  0  0  0  0
  -27.8996  -30.4288   23.9794 H   0  0  0  0  0  0
  -27.2700  -33.3756   26.2011 H   0  0  0  0  0  0
  -28.3873  -32.6794   25.0331 H   0  0  0  0  0  0
  -28.0638  -31.8513   26.5516 H   0  0  0  0  0  0
  -28.2629  -38.0056   24.7541 H   0  0  0  0  0  0
  -28.1052  -36.2598   24.6321 H   0  0  0  0  0  0
  -27.2281  -37.1431   25.8881 H   0  0  0  0  0  0
  -20.9434  -29.8781   21.6722 H   0  0  0  0  0  0
  -26.0172  -38.2870   24.1437 H   0  0  0  0  0  0
  -32.5892  -18.0298   23.6341 H   0  0  0  0  0  0
  -33.0693  -20.0806   22.3470 H   0  0  0  0  0  0
  -29.4726  -16.2562   23.4586 H   0  0  0  0  0  0
  -30.9789  -16.4169   24.3161 H   0  0  0  0  0  0
  -30.8768  -15.2927   22.9999 H   0  0  0  0  0  0
  -29.3535  -20.9623   18.0619 H   0  0  0  0  0  0
  -29.3426  -22.7066   18.0655 H   0  0  0  0  0  0
  -27.8148  -21.8213   18.1183 H   0  0  0  0  0  0
  -28.2742  -20.2851   21.3516 H   0  0  0  0  0  0
  -28.2225  -19.7069   19.7377 H   0  0  0  0  0  0
  -27.1531  -24.3518   19.4019 H   0  0  0  0  0  0
  -28.7695  -24.6144   18.8695 H   0  0  0  0  0  0
  -28.7826  -16.2454   20.3755 H   0  0  0  0  0  0
  1 25  1  0  0  0
  1 30  2  0  0  0
  1 82  1  0  0  0
  2  3  1  0  0  0
  2 25  1  0  0  0
  2 86  1  0  0  0
  2 87  1  0  0  0
  3  4  1  0  0  0
  3 88  1  0  0  0
  3 89  1  0  0  0
  4  5  1  0  0  0
  4 90  1  0  0  0
  4 91  1  0  0  0
  5  6  1  0  0  0
  5 26  1  0  0  0
  5 92  1  0  0  0
  6 25  1  0  0  0
  6 93  1  0  0  0
  6 94  1  0  0  0
  7  8  2  0  0  0
  7 26  1  0  0  0
  7 29  1  0  0  0
  8  9  1  0  0  0
  8 22  1  0  0  0
  9 10  1  0  0  0
  9 27  2  0  0  0
 10 11  2  0  0  0
 10 15  1  0  0  0
 11 12  1  0  0  0
 11 95  1  0  0  0
 12 13  2  0  0  0
 12 96  1  0  0  0
 13 14  1  0  0  0
 13 31  1  0  0  0
 14 15  2  0  0  0
 14 97  1  0  0  0
 15 98  1  0  0  0
 16 17  2  0  0  0
 16 21  1  0  0  0
 16 31  1  0  0  0
 17 18  1  0  0  0
 17 99  1  0  0  0
 18 19  2  0  0  0
 18100  1  0  0  0
 19 20  1  0  0  0
 19 24  1  0  0  0
 20 21  2  0  0  0
 20101  1  0  0  0
 21 23  1  0  0  0
 22 28  1  0  0  0
 22 32  2  0  0  0
 26 27  1  0  0  0
 28102  1  0  0  0
 28103  1  0  0  0
 29104  1  0  0  0
 29105  1  0  0  0
 33 34  1  0  0  0
 33 66  1  0  0  0
 33 70  2  0  0  0
 34 36  1  0  0  0
 34 59  1  0  0  0
 34106  1  0  0  0
 35 44  2  0  0  0
 35 45  1  0  0  0
 35 68  1  0  0  0
 36 56  1  0  0  0
 36107  1  0  0  0
 37 39  1  0  0  0
 37 47  1  0  0  0
 37 66  1  0  0  0
 37108  1  0  0  0
 38 43  2  0  0  0
 38 46  1  0  0  0
 38 47  1  0  0  0
 39 64  1  0  0  0
 39 67  2  0  0  0
 40 52  1  0  0  0
 40 53  2  0  0  0
 40 58  1  0  0  0
 41109  1  0  0  0
 41110  1  0  0  0
 41111  1  0  0  0
 41 48  1  0  0  0
 42 43  1  0  0  0
 42 66  1  0  0  0
 42112  1  0  0  0
 42113  1  0  0  0
 43 44  1  0  0  0
 44114  1  0  0  0
 45 46  2  0  0  0
 45115  1  0  0  0
 46116  1  0  0  0
 47117  1  0  0  0
 47118  1  0  0  0
 48 56  1  0  0  0
 48 65  1  0  0  0
 48119  1  0  0  0
 49 50  1  0  0  0
 49 53  1  0  0  0
 49 64  1  0  0  0
 49120  1  0  0  0
 50 51  1  0  0  0
 50121  1  0  0  0
 50122  1  0  0  0
 51 52  1  0  0  0
 51123  1  0  0  0
 51124  1  0  0  0
 52125  1  0  0  0
 52126  1  0  0  0
 53 54  1  0  0  0
 54 55  2  0  0  0
 54127  1  0  0  0
 55 57  1  0  0  0
 55128  1  0  0  0
 56 69  2  0  0  0
 57 58  2  0  0  0
 57129  1  0  0  0
 58130  1  0  0  0
 59 60  1  0  0  0
 59 61  1  0  0  0
 59 62  1  0  0  0
 60131  1  0  0  0
 60132  1  0  0  0
 60133  1  0  0  0
 61134  1  0  0  0
 61135  1  0  0  0
 61136  1  0  0  0
 62137  1  0  0  0
 62138  1  0  0  0
 62139  1  0  0  0
 63 65  1  0  0  0
 63140  1  0  0  0
 63141  1  0  0  0
 63142  1  0  0  0
 64143  1  0  0  0
 65144  1  0  0  0
 68 81  1  0  0  0
 71 72  2  0  0  0
 71 73  1  0  0  0
 71145  1  0  0  0
 72 76  1  0  0  0
 72146  1  0  0  0
 73 75  2  0  0  0
 73 78  1  0  0  0
 74 75  1  0  0  0
 74 76  2  0  0  0
 74 80  1  0  0  0
 75 82  1  0  0  0
 76 85  1  0  0  0
 77 81  1  0  0  0
 77 83  1  0  0  0
 77 84  2  0  0  0
 78147  1  0  0  0
 78148  1  0  0  0
 78149  1  0  0  0
 79 83  1  0  0  0
 79150  1  0  0  0
 79151  1  0  0  0
 79152  1  0  0  0
 80 83  1  0  0  0
 80153  1  0  0  0
 80154  1  0  0  0
 81155  1  0  0  0
 81156  1  0  0  0
 82157  1  0  0  0
M  ISO  4   1 100  68 101  81 101  82 100
M  END
> <chiral flag>
0

> <version>
0

> <s_m_source_file>
/data/baiqing/PycharmProjects/Reinvent-master-3.2/result/LINK_invent/BTK/process_docking_weight1_custom_product_contain_oxygen_bond_distance_aromatic_linkinvent_7_9_3/rearranged_h_0052.sdf

> <i_m_source_file_index>
61

> <r_mmod_Potential_Energy-OPLS-2005>
1002.65515136719

> <r_mmod_Stretch_Energy-OPLS-2005>
399.598846435547

> <r_mmod_Bend_Energy-OPLS-2005>
366.048248291016

> <r_mmod_Torsional_Energy-OPLS-2005>
374.750030517578

> <r_mmod_Improper_Torsional_Energy-OPLS-2005>
10.2852458953857

> <r_mmod_Van_der_Waal_Energy-OPLS-2005>
152.268783569336

> <r_mmod_Electrostatic_Energy-OPLS-2005>
-340.518768310547

> <r_mmod_Solvation_Energy-OPLS-2005>
-243.026824951172

> <b_mmod_Minimization_Converged-OPLS-2005>
0

> <r_mmod_RMS_Derivative-OPLS-2005>
7.44213771820068

$$$$
61
                    3D
 Structure written by MMmdl.
173181  0  0  1  0            999 V2000
  -30.7630  -14.3823   20.6497 C   0  0  0  0  0  0
  -30.4118  -12.2813   19.4125 C   0  0  0  0  0  0
  -29.4873  -12.5117   18.2025 C   0  0  0  0  0  0
  -28.0113  -12.3709   18.6171 C   0  0  0  0  0  0
  -27.6654  -13.2043   19.8796 C   0  0  2  0  0  0
  -28.7018  -12.9670   21.0018 C   0  0  0  0  0  0
  -25.2604  -13.8166   20.5678 C   0  0  0  0  0  0
  -24.1849  -13.0447   20.9170 C   0  0  0  0  0  0
  -24.6395  -11.6913   20.8729 C   0  0  0  0  0  0
  -23.9058  -10.4302   21.0405 C   0  0  0  0  0  0
  -24.3610   -9.4218   21.9186 C   0  0  0  0  0  0
  -23.6290   -8.2251   22.0756 C   0  0  0  0  0  0
  -22.4274   -8.0287   21.3543 C   0  0  0  0  0  0
  -21.9907   -9.0261   20.4646 C   0  0  0  0  0  0
  -22.7232  -10.2141   20.3057 C   0  0  0  0  0  0
  -21.6851   -6.0740   22.5281 C   0  0  0  0  0  0
  -21.4015   -6.5640   23.8215 C   0  0  0  0  0  0
  -21.3656   -5.6792   24.9174 C   0  0  0  0  0  0
  -21.6045   -4.3054   24.7224 C   0  0  0  0  0  0
  -21.8818   -3.8150   23.4345 C   0  0  0  0  0  0
  -21.9193   -4.6971   22.3404 C   0  0  0  0  0  0
  -22.7873  -13.5250   21.1834 C   0  0  0  0  0  0
  -22.1660   -4.2155   21.0981 F   0  0  0  0  0  0
  -21.5629   -3.4539   25.7736 F   0  0  0  0  0  0
  -30.0443  -13.2457   20.4611 N   0  0  0  0  0  0
  -26.3040  -12.9331   20.3376 N   0  0  0  0  0  0
  -25.9320  -11.6491   20.5766 N   0  0  0  0  0  0
  -22.0506  -12.8246   22.0390 N   0  0  0  0  0  0
  -25.4343  -15.1884   20.4087 N   0  0  0  0  0  0
  -31.8079  -14.6251   20.0388 O   0  0  0  0  0  0
  -21.6634   -6.8886   21.4244 O   0  0  0  0  0  0
  -22.3561  -14.5556   20.6685 O   0  0  0  0  0  0
  -24.6115  -31.8689   23.2122 C   0  0  0  0  0  0
  -25.9012  -32.4827   23.8419 C   0  0  1  0  0  0
  -27.2353  -27.4640   20.0979 C   0  0  0  0  0  0
  -25.5871  -33.8624   24.2345 N   0  0  0  0  0  0
  -23.3993  -30.4917   21.5513 C   0  0  2  0  0  0
  -24.8476  -28.9594   20.1158 C   0  0  0  0  0  0
  -22.7400  -29.4664   22.5005 C   0  0  0  0  0  0
  -18.0266  -28.1376   22.8504 C   0  0  0  0  0  0
  -24.1480  -36.7328   23.2643 C   0  0  0  0  0  0
  -25.9247  -30.8445   21.3603 C   0  0  0  0  0  0
  -26.0050  -29.4804   20.7100 C   0  0  0  0  0  0
  -27.2052  -28.7389   20.6979 C   0  0  0  0  0  0
  -26.0673  -26.9475   19.4986 C   0  0  0  0  0  0
  -24.8714  -27.6905   19.5083 C   0  0  0  0  0  0
  -23.6069  -29.8217   20.1663 C   0  0  0  0  0  0
  -25.4096  -36.3117   24.0344 C   0  0  1  0  0  0
  -20.5856  -28.3660   23.1328 C   0  0  2  0  0  0
  -20.6762  -26.9400   22.5419 C   0  0  0  0  0  0
  -19.5739  -26.6390   21.5221 C   0  0  0  0  0  0
  -18.1915  -26.7930   22.1626 C   0  0  0  0  0  0
  -19.1515  -28.8835   23.2915 C   0  0  0  0  0  0
  -18.9446  -30.1445   23.8923 C   0  0  0  0  0  0
  -17.6446  -30.6587   24.0569 C   0  0  0  0  0  0
  -25.9024  -34.9478   23.5142 C   0  0  0  0  0  0
  -16.5336  -29.9094   23.6323 C   0  0  0  0  0  0
  -16.7257  -28.6504   23.0355 C   0  0  0  0  0  0
  -26.4459  -31.6600   25.0733 C   0  0  0  0  0  0
  -25.3749  -31.3660   26.1493 C   0  0  0  0  0  0
  -27.0292  -30.3055   24.6082 C   0  0  0  0  0  0
  -27.6043  -32.4316   25.7483 C   0  0  0  0  0  0
  -27.5574  -37.1806   24.8464 C   0  0  0  0  0  0
  -21.4130  -29.3028   22.3737 N   0  0  0  0  0  0
  -26.4286  -37.3797   23.9412 N   0  0  0  0  0  0
  -24.6632  -31.0822   22.1000 N   0  0  0  0  0  0
  -23.4184  -28.8211   23.3040 O   0  0  0  0  0  0
  -28.3908  -26.7277   20.0931 O   0  0  0  0  0  0
  -26.5592  -34.8923   22.4708 O   0  0  0  0  0  0
  -23.5310  -32.1422   23.7528 O   0  0  0  0  0  0
  -30.7551  -17.2114   24.2033 C   0  0  0  0  0  0
  -30.2178  -17.9490   25.2712 C   0  0  0  0  0  0
  -30.2480  -17.3585   22.8937 C   0  0  0  0  0  0
  -29.1666  -18.2561   22.6509 C   0  0  0  0  0  0
  -28.6229  -18.9766   23.7441 C   0  0  0  0  0  0
  -29.1510  -18.8322   25.0423 C   0  0  0  0  0  0
  -29.0608  -24.4066   20.3087 C   0  0  0  0  0  0
  -28.3200  -20.7969   20.4718 C   0  0  0  0  0  0
  -29.2616  -22.8352   17.2256 C   0  0  0  0  0  0
  -26.9103  -22.1885   17.8816 C   0  0  0  0  0  0
  -30.2492  -19.3857   19.7471 C   0  0  0  0  0  0
  -30.9200  -16.5377   21.8024 C   0  0  0  0  0  0
  -28.5381  -18.4453   21.2631 C   0  0  0  0  0  0
  -28.3500  -25.5947   20.9663 C   0  0  0  0  0  0
  -28.8241  -21.9966   19.6291 C   0  0  1  0  0  0
  -28.4109  -21.9233   18.1258 C   0  0  0  0  0  0
  -28.3767  -23.2583   20.2283 N   0  0  0  0  0  0
  -30.2718  -15.2582   21.5352 N   0  0  0  0  0  0
  -29.0134  -19.6250   20.5047 N   0  0  0  0  0  0
  -30.2103  -24.5316   19.8790 O   0  0  0  0  0  0
  -27.2547  -20.9470   21.0782 O   0  0  0  0  0  0
  -27.5721  -19.8088   23.5574 F   0  0  0  0  0  0
  -28.4879  -19.7322   26.3595 Cl  0  0  0  0  0  0
  -31.4578  -12.3643   19.1116 H   0  0  0  0  0  0
  -30.2967  -11.2643   19.7908 H   0  0  0  0  0  0
  -29.7221  -11.8008   17.4089 H   0  0  0  0  0  0
  -29.6613  -13.5050   17.7857 H   0  0  0  0  0  0
  -27.8213  -11.3141   18.8087 H   0  0  0  0  0  0
  -27.3579  -12.6498   17.7892 H   0  0  0  0  0  0
  -27.7190  -14.2554   19.5940 H   0  0  0  0  0  0
  -28.6609  -11.9312   21.3416 H   0  0  0  0  0  0
  -28.4557  -13.5672   21.8781 H   0  0  0  0  0  0
  -25.2757   -9.5694   22.4756 H   0  0  0  0  0  0
  -23.9999   -7.4645   22.7477 H   0  0  0  0  0  0
  -21.0837   -8.8780   19.8955 H   0  0  0  0  0  0
  -22.3694  -10.9679   19.6161 H   0  0  0  0  0  0
  -21.2006   -7.6147   23.9720 H   0  0  0  0  0  0
  -21.1478   -6.0519   25.9077 H   0  0  0  0  0  0
  -22.0602   -2.7613   23.2841 H   0  0  0  0  0  0
  -22.4110  -11.9901   22.4769 H   0  0  0  0  0  0
  -21.1131  -13.1289   22.2594 H   0  0  0  0  0  0
  -24.6700  -15.8464   20.5152 H   0  0  0  0  0  0
  -26.2906  -15.6225   20.0885 H   0  0  0  0  0  0
  -26.7086  -32.5550   23.1194 H   0  0  0  0  0  0
  -25.0000  -33.9796   25.0474 H   0  0  0  0  0  0
  -22.6862  -31.3063   21.4121 H   0  0  0  0  0  0
  -23.3731  -35.9673   23.3312 H   0  0  0  0  0  0
  -24.3576  -36.8944   22.2057 H   0  0  0  0  0  0
  -23.7247  -37.6539   23.6657 H   0  0  0  0  0  0
  -26.0306  -31.6097   20.5903 H   0  0  0  0  0  0
  -26.8150  -30.9011   21.9753 H   0  0  0  0  0  0
  -28.1014  -29.1345   21.1556 H   0  0  0  0  0  0
  -26.0852  -25.9742   19.0281 H   0  0  0  0  0  0
  -23.9800  -27.2830   19.0494 H   0  0  0  0  0  0
  -23.7111  -30.5951   19.4045 H   0  0  0  0  0  0
  -22.7330  -29.2365   19.8746 H   0  0  0  0  0  0
  -25.1273  -36.1984   25.0838 H   0  0  0  0  0  0
  -20.9948  -28.3230   24.1451 H   0  0  0  0  0  0
  -20.5683  -26.2266   23.3601 H   0  0  0  0  0  0
  -21.6633  -26.7460   22.1202 H   0  0  0  0  0  0
  -19.6903  -25.6305   21.1237 H   0  0  0  0  0  0
  -19.6684  -27.3211   20.6756 H   0  0  0  0  0  0
  -17.4190  -26.6682   21.4022 H   0  0  0  0  0  0
  -18.0307  -26.0067   22.9017 H   0  0  0  0  0  0
  -19.7920  -30.7251   24.2314 H   0  0  0  0  0  0
  -17.5002  -31.6275   24.5160 H   0  0  0  0  0  0
  -15.5338  -30.3003   23.7642 H   0  0  0  0  0  0
  -15.8655  -28.0834   22.7065 H   0  0  0  0  0  0
  -24.5938  -30.6988   25.7827 H   0  0  0  0  0  0
  -24.8914  -32.2785   26.4987 H   0  0  0  0  0  0
  -25.8135  -30.8807   27.0223 H   0  0  0  0  0  0
  -26.2820  -29.6796   24.1188 H   0  0  0  0  0  0
  -27.4135  -29.7305   25.4518 H   0  0  0  0  0  0
  -27.8623  -30.4398   23.9178 H   0  0  0  0  0  0
  -27.2684  -33.3609   26.2098 H   0  0  0  0  0  0
  -28.3828  -32.6887   25.0287 H   0  0  0  0  0  0
  -28.0743  -31.8420   26.5367 H   0  0  0  0  0  0
  -28.2593  -38.0105   24.7516 H   0  0  0  0  0  0
  -28.1071  -36.2633   24.6284 H   0  0  0  0  0  0
  -27.2293  -37.1456   25.8870 H   0  0  0  0  0  0
  -20.9282  -29.8737   21.6954 H   0  0  0  0  0  0
  -26.0176  -38.2877   24.1416 H   0  0  0  0  0  0
  -31.5739  -16.5315   24.3968 H   0  0  0  0  0  0
  -30.6214  -17.8353   26.2664 H   0  0  0  0  0  0
  -29.0731  -22.6290   16.1716 H   0  0  0  0  0  0
  -30.3271  -22.6843   17.4013 H   0  0  0  0  0  0
  -29.0410  -23.8895   17.3952 H   0  0  0  0  0  0
  -26.6537  -22.0485   16.8308 H   0  0  0  0  0  0
  -26.6282  -23.2073   18.1507 H   0  0  0  0  0  0
  -26.2835  -21.5077   18.4576 H   0  0  0  0  0  0
  -30.4263  -20.0710   18.9213 H   0  0  0  0  0  0
  -30.2333  -18.4003   19.2828 H   0  0  0  0  0  0
  -31.1108  -19.4399   20.4130 H   0  0  0  0  0  0
  -31.9540  -16.3479   22.0984 H   0  0  0  0  0  0
  -30.9984  -17.1074   20.8821 H   0  0  0  0  0  0
  -27.4551  -18.4877   21.3921 H   0  0  0  0  0  0
  -28.6768  -17.5430   20.6689 H   0  0  0  0  0  0
  -28.8682  -25.8464   21.8924 H   0  0  0  0  0  0
  -27.3330  -25.3101   21.2466 H   0  0  0  0  0  0
  -29.9121  -21.9941   19.7026 H   0  0  0  0  0  0
  -28.6020  -20.9036   17.7863 H   0  0  0  0  0  0
  -27.4634  -23.2155   20.6611 H   0  0  0  0  0  0
  -29.4235  -15.0281   22.0295 H   0  0  0  0  0  0
  1 25  1  0  0  0
  1 30  2  0  0  0
  1 88  1  0  0  0
  2  3  1  0  0  0
  2 25  1  0  0  0
  2 94  1  0  0  0
  2 95  1  0  0  0
  3  4  1  0  0  0
  3 96  1  0  0  0
  3 97  1  0  0  0
  4  5  1  0  0  0
  4 98  1  0  0  0
  4 99  1  0  0  0
  5  6  1  0  0  0
  5 26  1  0  0  0
  5100  1  0  0  0
  6 25  1  0  0  0
  6101  1  0  0  0
  6102  1  0  0  0
  7  8  2  0  0  0
  7 26  1  0  0  0
  7 29  1  0  0  0
  8  9  1  0  0  0
  8 22  1  0  0  0
  9 10  1  0  0  0
  9 27  2  0  0  0
 10 11  2  0  0  0
 10 15  1  0  0  0
 11 12  1  0  0  0
 11103  1  0  0  0
 12 13  2  0  0  0
 12104  1  0  0  0
 13 14  1  0  0  0
 13 31  1  0  0  0
 14 15  2  0  0  0
 14105  1  0  0  0
 15106  1  0  0  0
 16 17  2  0  0  0
 16 21  1  0  0  0
 16 31  1  0  0  0
 17 18  1  0  0  0
 17107  1  0  0  0
 18 19  2  0  0  0
 18108  1  0  0  0
 19 20  1  0  0  0
 19 24  1  0  0  0
 20 21  2  0  0  0
 20109  1  0  0  0
 21 23  1  0  0  0
 22 28  1  0  0  0
 22 32  2  0  0  0
 26 27  1  0  0  0
 28110  1  0  0  0
 28111  1  0  0  0
 29112  1  0  0  0
 29113  1  0  0  0
 33 34  1  0  0  0
 33 66  1  0  0  0
 33 70  2  0  0  0
 34 36  1  0  0  0
 34 59  1  0  0  0
 34114  1  0  0  0
 35 44  2  0  0  0
 35 45  1  0  0  0
 35 68  1  0  0  0
 36 56  1  0  0  0
 36115  1  0  0  0
 37 39  1  0  0  0
 37 47  1  0  0  0
 37 66  1  0  0  0
 37116  1  0  0  0
 38 43  2  0  0  0
 38 46  1  0  0  0
 38 47  1  0  0  0
 39 64  1  0  0  0
 39 67  2  0  0  0
 40 52  1  0  0  0
 40 53  2  0  0  0
 40 58  1  0  0  0
 41117  1  0  0  0
 41118  1  0  0  0
 41119  1  0  0  0
 41 48  1  0  0  0
 42 43  1  0  0  0
 42 66  1  0  0  0
 42120  1  0  0  0
 42121  1  0  0  0
 43 44  1  0  0  0
 44122  1  0  0  0
 45 46  2  0  0  0
 45123  1  0  0  0
 46124  1  0  0  0
 47125  1  0  0  0
 47126  1  0  0  0
 48 56  1  0  0  0
 48 65  1  0  0  0
 48127  1  0  0  0
 49 50  1  0  0  0
 49 53  1  0  0  0
 49 64  1  0  0  0
 49128  1  0  0  0
 50 51  1  0  0  0
 50129  1  0  0  0
 50130  1  0  0  0
 51 52  1  0  0  0
 51131  1  0  0  0
 51132  1  0  0  0
 52133  1  0  0  0
 52134  1  0  0  0
 53 54  1  0  0  0
 54 55  2  0  0  0
 54135  1  0  0  0
 55 57  1  0  0  0
 55136  1  0  0  0
 56 69  2  0  0  0
 57 58  2  0  0  0
 57137  1  0  0  0
 58138  1  0  0  0
 59 60  1  0  0  0
 59 61  1  0  0  0
 59 62  1  0  0  0
 60139  1  0  0  0
 60140  1  0  0  0
 60141  1  0  0  0
 61142  1  0  0  0
 61143  1  0  0  0
 61144  1  0  0  0
 62145  1  0  0  0
 62146  1  0  0  0
 62147  1  0  0  0
 63 65  1  0  0  0
 63148  1  0  0  0
 63149  1  0  0  0
 63150  1  0  0  0
 64151  1  0  0  0
 65152  1  0  0  0
 68 84  1  0  0  0
 71 72  2  0  0  0
 71 73  1  0  0  0
 71153  1  0  0  0
 72 76  1  0  0  0
 72154  1  0  0  0
 73 74  2  0  0  0
 73 82  1  0  0  0
 74 75  1  0  0  0
 74 83  1  0  0  0
 75 76  2  0  0  0
 75 92  1  0  0  0
 76 93  1  0  0  0
 77 84  1  0  0  0
 77 87  1  0  0  0
 77 90  2  0  0  0
 78 85  1  0  0  0
 78 89  1  0  0  0
 78 91  2  0  0  0
 79155  1  0  0  0
 79156  1  0  0  0
 79157  1  0  0  0
 79 86  1  0  0  0
 80 86  1  0  0  0
 80158  1  0  0  0
 80159  1  0  0  0
 80160  1  0  0  0
 81 89  1  0  0  0
 81161  1  0  0  0
 81162  1  0  0  0
 81163  1  0  0  0
 82 88  1  0  0  0
 82164  1  0  0  0
 82165  1  0  0  0
 83 89  1  0  0  0
 83166  1  0  0  0
 83167  1  0  0  0
 84168  1  0  0  0
 84169  1  0  0  0
 85 86  1  0  0  0
 85 87  1  0  0  0
 85170  1  0  0  0
 86171  1  0  0  0
 87172  1  0  0  0
 88173  1  0  0  0
M  ISO  4   1 100  68 101  84 101  88 100
M  END
> <chiral flag>
0

> <version>
0

> <s_m_source_file>
/data/baiqing/PycharmProjects/Reinvent-master-3.2/result/LINK_invent/BTK/process_docking_weight1_custom_product_contain_oxygen_bond_distance_aromatic_linkinvent_7_9_3/rearranged_h_0052.sdf

> <i_m_source_file_index>
62

> <r_mmod_Potential_Energy-OPLS-2005>
-131.924682617188

> <r_mmod_Stretch_Energy-OPLS-2005>
39.4388122558594

> <r_mmod_Bend_Energy-OPLS-2005>
99.1234893798828

> <r_mmod_Torsional_Energy-OPLS-2005>
248.795806884766

> <r_mmod_Improper_Torsional_Energy-OPLS-2005>
1.93483304977417

> <r_mmod_Van_der_Waal_Energy-OPLS-2005>
158.701400756836

> <r_mmod_Electrostatic_Energy-OPLS-2005>
-441.102905273438

> <r_mmod_Solvation_Energy-OPLS-2005>
-246.164535522461

> <b_mmod_Minimization_Converged-OPLS-2005>
0

> <r_mmod_RMS_Derivative-OPLS-2005>
0.995441555976868

$$$$
62
                    3D
 Structure written by MMmdl.
160168  0  0  1  0            999 V2000
  -30.6959  -14.5004   20.5730 C   0  0  0  0  0  0
  -30.4320  -12.3243   19.4263 C   0  0  0  0  0  0
  -29.4966  -12.4963   18.2116 C   0  0  0  0  0  0
  -28.0195  -12.3494   18.6279 C   0  0  0  0  0  0
  -27.6595  -13.2031   19.8726 C   0  0  2  0  0  0
  -28.7047  -13.0102   20.9950 C   0  0  0  0  0  0
  -25.2571  -13.8120   20.5653 C   0  0  0  0  0  0
  -24.1838  -13.0422   20.9188 C   0  0  0  0  0  0
  -24.6397  -11.6889   20.8753 C   0  0  0  0  0  0
  -23.9061  -10.4286   21.0413 C   0  0  0  0  0  0
  -24.3608   -9.4203   21.9197 C   0  0  0  0  0  0
  -23.6282   -8.2237   22.0762 C   0  0  0  0  0  0
  -22.4268   -8.0275   21.3538 C   0  0  0  0  0  0
  -21.9904   -9.0254   20.4644 C   0  0  0  0  0  0
  -22.7233  -10.2137   20.3059 C   0  0  0  0  0  0
  -21.6851   -6.0727   22.5277 C   0  0  0  0  0  0
  -21.4015   -6.5637   23.8208 C   0  0  0  0  0  0
  -21.3657   -5.6794   24.9170 C   0  0  0  0  0  0
  -21.6038   -4.3055   24.7226 C   0  0  0  0  0  0
  -21.8823   -3.8145   23.4348 C   0  0  0  0  0  0
  -21.9199   -4.6958   22.3401 C   0  0  0  0  0  0
  -22.7863  -13.5229   21.1841 C   0  0  0  0  0  0
  -22.1664   -4.2148   21.0974 F   0  0  0  0  0  0
  -21.5630   -3.4535   25.7736 F   0  0  0  0  0  0
  -30.0320  -13.3186   20.4359 N   0  0  0  0  0  0
  -26.3018  -12.9304   20.3358 N   0  0  0  0  0  0
  -25.9325  -11.6473   20.5794 N   0  0  0  0  0  0
  -22.0492  -12.8224   22.0388 N   0  0  0  0  0  0
  -25.4240  -15.1824   20.3962 N   0  0  0  0  0  0
  -31.8405  -14.6724   20.1421 O   0  0  0  0  0  0
  -21.6633   -6.8872   21.4236 O   0  0  0  0  0  0
  -22.3559  -14.5537   20.6686 O   0  0  0  0  0  0
  -24.6152  -31.8676   23.2082 C   0  0  0  0  0  0
  -25.9039  -32.4810   23.8388 C   0  0  1  0  0  0
  -27.2230  -27.4121   20.1032 C   0  0  0  0  0  0
  -25.5890  -33.8615   24.2332 N   0  0  0  0  0  0
  -23.4066  -30.4925   21.5460 C   0  0  2  0  0  0
  -24.8543  -28.9589   20.1078 C   0  0  0  0  0  0
  -22.7425  -29.4651   22.4929 C   0  0  0  0  0  0
  -18.0267  -28.1374   22.8454 C   0  0  0  0  0  0
  -24.1490  -36.7326   23.2638 C   0  0  0  0  0  0
  -25.9374  -30.8270   21.3645 C   0  0  0  0  0  0
  -26.0176  -29.4606   20.7100 C   0  0  0  0  0  0
  -27.2088  -28.6932   20.7061 C   0  0  0  0  0  0
  -26.0530  -26.9418   19.4724 C   0  0  0  0  0  0
  -24.8681  -27.6996   19.4850 C   0  0  0  0  0  0
  -23.6191  -29.8319   20.1586 C   0  0  0  0  0  0
  -25.4106  -36.3114   24.0340 C   0  0  1  0  0  0
  -20.5863  -28.3672   23.1275 C   0  0  2  0  0  0
  -20.6773  -26.9406   22.5386 C   0  0  0  0  0  0
  -19.5757  -26.6393   21.5176 C   0  0  0  0  0  0
  -18.1929  -26.7916   22.1585 C   0  0  0  0  0  0
  -19.1515  -28.8830   23.2860 C   0  0  0  0  0  0
  -18.9462  -30.1426   23.8882 C   0  0  0  0  0  0
  -17.6476  -30.6579   24.0560 C   0  0  0  0  0  0
  -25.9040  -34.9475   23.5146 C   0  0  0  0  0  0
  -16.5355  -29.9086   23.6322 C   0  0  0  0  0  0
  -16.7261  -28.6502   23.0332 C   0  0  0  0  0  0
  -26.4468  -31.6579   25.0705 C   0  0  0  0  0  0
  -25.3725  -31.3679   26.1453 C   0  0  0  0  0  0
  -27.0317  -30.3035   24.6058 C   0  0  0  0  0  0
  -27.6047  -32.4297   25.7458 C   0  0  0  0  0  0
  -27.5588  -37.1818   24.8460 C   0  0  0  0  0  0
  -21.4137  -29.3047   22.3688 N   0  0  0  0  0  0
  -26.4296  -37.3800   23.9403 N   0  0  0  0  0  0
  -24.6712  -31.0777   22.0979 N   0  0  0  0  0  0
  -23.4192  -28.8175   23.2953 O   0  0  0  0  0  0
  -28.3285  -26.5890   20.1593 O   0  0  0  0  0  0
  -26.5611  -34.8925   22.4716 O   0  0  0  0  0  0
  -23.5340  -32.1424   23.7473 O   0  0  0  0  0  0
  -30.8578  -19.6079   21.8533 C   0  0  0  0  0  0
  -31.5506  -17.2763   21.7553 C   0  0  0  0  0  0
  -29.5879  -19.2898   21.3250 C   0  0  0  0  0  0
  -29.3138  -17.9245   20.9844 C   0  0  0  0  0  0
  -30.2876  -16.9083   21.2311 C   0  0  0  0  0  0
  -31.8449  -18.6291   22.0524 C   0  0  0  0  0  0
  -28.5469  -20.3938   21.2487 C   0  0  0  0  0  0
  -28.7048  -24.1028   20.3764 C   0  0  0  0  0  0
  -27.9900  -17.5247   20.3372 C   0  0  0  0  0  0
  -34.1092  -18.1516   22.7185 C   0  0  0  0  0  0
  -28.0152  -22.7674   20.7389 C   0  0  0  0  0  0
  -28.0740  -25.3957   20.9460 C   0  0  0  0  0  0
  -29.9459  -15.5237   21.0403 N   0  0  0  0  0  0
  -28.9347  -21.6142   20.8279 N   0  0  0  0  0  0
  -27.3778  -20.1713   21.5701 O   0  0  0  0  0  0
  -29.7235  -24.1233   19.6771 O   0  0  0  0  0  0
  -33.0443  -19.0786   22.5602 O   0  0  0  0  0  0
  -31.4728  -12.4372   19.1182 H   0  0  0  0  0  0
  -30.3533  -11.3175   19.8389 H   0  0  0  0  0  0
  -29.7420  -11.7626   17.4427 H   0  0  0  0  0  0
  -29.6557  -13.4776   17.7631 H   0  0  0  0  0  0
  -27.8397  -11.2945   18.8405 H   0  0  0  0  0  0
  -27.3666  -12.6047   17.7929 H   0  0  0  0  0  0
  -27.6957  -14.2443   19.5551 H   0  0  0  0  0  0
  -28.6896  -11.9830   21.3615 H   0  0  0  0  0  0
  -28.4640  -13.6291   21.8607 H   0  0  0  0  0  0
  -25.2751   -9.5689   22.4775 H   0  0  0  0  0  0
  -23.9996   -7.4633   22.7486 H   0  0  0  0  0  0
  -21.0840   -8.8770   19.8946 H   0  0  0  0  0  0
  -22.3690  -10.9677   19.6171 H   0  0  0  0  0  0
  -21.2000   -7.6149   23.9710 H   0  0  0  0  0  0
  -21.1475   -6.0519   25.9071 H   0  0  0  0  0  0
  -22.0605   -2.7609   23.2842 H   0  0  0  0  0  0
  -22.4085  -11.9864   22.4755 H   0  0  0  0  0  0
  -21.1126  -13.1270   22.2604 H   0  0  0  0  0  0
  -24.6463  -15.8272   20.4769 H   0  0  0  0  0  0
  -26.2539  -15.6091   20.0084 H   0  0  0  0  0  0
  -26.7106  -32.5503   23.1143 H   0  0  0  0  0  0
  -25.0009  -33.9759   25.0454 H   0  0  0  0  0  0
  -22.6959  -31.3095   21.4087 H   0  0  0  0  0  0
  -23.3749  -35.9665   23.3295 H   0  0  0  0  0  0
  -24.3594  -36.8938   22.2057 H   0  0  0  0  0  0
  -23.7240  -37.6523   23.6662 H   0  0  0  0  0  0
  -26.0547  -31.5959   20.5990 H   0  0  0  0  0  0
  -26.8220  -30.8765   21.9851 H   0  0  0  0  0  0
  -28.1013  -29.0626   21.1933 H   0  0  0  0  0  0
  -26.0509  -25.9779   18.9851 H   0  0  0  0  0  0
  -23.9778  -27.3082   19.0125 H   0  0  0  0  0  0
  -23.7325  -30.6140   19.4057 H   0  0  0  0  0  0
  -22.7411  -29.2586   19.8566 H   0  0  0  0  0  0
  -25.1278  -36.2005   25.0834 H   0  0  0  0  0  0
  -20.9936  -28.3262   24.1411 H   0  0  0  0  0  0
  -20.5697  -26.2270   23.3573 H   0  0  0  0  0  0
  -21.6642  -26.7470   22.1170 H   0  0  0  0  0  0
  -19.6945  -25.6312   21.1185 H   0  0  0  0  0  0
  -19.6721  -27.3209   20.6709 H   0  0  0  0  0  0
  -17.4207  -26.6625   21.3994 H   0  0  0  0  0  0
  -18.0345  -26.0065   22.8988 H   0  0  0  0  0  0
  -19.7956  -30.7200   24.2274 H   0  0  0  0  0  0
  -17.5059  -31.6268   24.5162 H   0  0  0  0  0  0
  -15.5361  -30.3009   23.7677 H   0  0  0  0  0  0
  -15.8643  -28.0852   22.7054 H   0  0  0  0  0  0
  -24.5891  -30.7033   25.7788 H   0  0  0  0  0  0
  -24.8908  -32.2825   26.4930 H   0  0  0  0  0  0
  -25.8067  -30.8834   27.0205 H   0  0  0  0  0  0
  -26.2863  -29.6767   24.1150 H   0  0  0  0  0  0
  -27.4142  -29.7297   25.4502 H   0  0  0  0  0  0
  -27.8674  -30.4374   23.9185 H   0  0  0  0  0  0
  -27.2679  -33.3599   26.2051 H   0  0  0  0  0  0
  -28.3846  -32.6835   25.0270 H   0  0  0  0  0  0
  -28.0715  -31.8392   26.5345 H   0  0  0  0  0  0
  -28.2583  -38.0138   24.7530 H   0  0  0  0  0  0
  -28.1101  -36.2663   24.6263 H   0  0  0  0  0  0
  -27.2307  -37.1441   25.8862 H   0  0  0  0  0  0
  -20.9300  -29.8832   21.6964 H   0  0  0  0  0  0
  -26.0197  -38.2873   24.1430 H   0  0  0  0  0  0
  -31.0838  -20.6259   22.1393 H   0  0  0  0  0  0
  -32.2827  -16.5056   21.9477 H   0  0  0  0  0  0
  -27.2632  -17.2527   21.1034 H   0  0  0  0  0  0
  -28.1154  -16.6807   19.6588 H   0  0  0  0  0  0
  -27.5730  -18.3243   19.7260 H   0  0  0  0  0  0
  -34.9931  -18.6967   23.0514 H   0  0  0  0  0  0
  -34.3626  -17.6567   21.7800 H   0  0  0  0  0  0
  -33.8803  -17.4020   23.4767 H   0  0  0  0  0  0
  -27.2734  -22.5565   19.9675 H   0  0  0  0  0  0
  -27.4722  -22.8877   21.6790 H   0  0  0  0  0  0
  -28.4850  -25.5515   21.9435 H   0  0  0  0  0  0
  -27.0061  -25.2183   21.0878 H   0  0  0  0  0  0
  -28.9799  -15.2867   21.2026 H   0  0  0  0  0  0
  -29.8978  -21.7581   20.5565 H   0  0  0  0  0  0
  1 25  1  0  0  0
  1 30  2  0  0  0
  1 83  1  0  0  0
  2  3  1  0  0  0
  2 25  1  0  0  0
  2 88  1  0  0  0
  2 89  1  0  0  0
  3  4  1  0  0  0
  3 90  1  0  0  0
  3 91  1  0  0  0
  4  5  1  0  0  0
  4 92  1  0  0  0
  4 93  1  0  0  0
  5  6  1  0  0  0
  5 26  1  0  0  0
  5 94  1  0  0  0
  6 25  1  0  0  0
  6 95  1  0  0  0
  6 96  1  0  0  0
  7  8  2  0  0  0
  7 26  1  0  0  0
  7 29  1  0  0  0
  8  9  1  0  0  0
  8 22  1  0  0  0
  9 10  1  0  0  0
  9 27  2  0  0  0
 10 11  2  0  0  0
 10 15  1  0  0  0
 11 12  1  0  0  0
 11 97  1  0  0  0
 12 13  2  0  0  0
 12 98  1  0  0  0
 13 14  1  0  0  0
 13 31  1  0  0  0
 14 15  2  0  0  0
 14 99  1  0  0  0
 15100  1  0  0  0
 16 17  2  0  0  0
 16 21  1  0  0  0
 16 31  1  0  0  0
 17 18  1  0  0  0
 17101  1  0  0  0
 18 19  2  0  0  0
 18102  1  0  0  0
 19 20  1  0  0  0
 19 24  1  0  0  0
 20 21  2  0  0  0
 20103  1  0  0  0
 21 23  1  0  0  0
 22 28  1  0  0  0
 22 32  2  0  0  0
 26 27  1  0  0  0
 28104  1  0  0  0
 28105  1  0  0  0
 29106  1  0  0  0
 29107  1  0  0  0
 33 34  1  0  0  0
 33 66  1  0  0  0
 33 70  2  0  0  0
 34 36  1  0  0  0
 34 59  1  0  0  0
 34108  1  0  0  0
 35 44  2  0  0  0
 35 45  1  0  0  0
 35 68  1  0  0  0
 36 56  1  0  0  0
 36109  1  0  0  0
 37 39  1  0  0  0
 37 47  1  0  0  0
 37 66  1  0  0  0
 37110  1  0  0  0
 38 43  2  0  0  0
 38 46  1  0  0  0
 38 47  1  0  0  0
 39 64  1  0  0  0
 39 67  2  0  0  0
 40 52  1  0  0  0
 40 53  2  0  0  0
 40 58  1  0  0  0
 41111  1  0  0  0
 41112  1  0  0  0
 41113  1  0  0  0
 41 48  1  0  0  0
 42 43  1  0  0  0
 42 66  1  0  0  0
 42114  1  0  0  0
 42115  1  0  0  0
 43 44  1  0  0  0
 44116  1  0  0  0
 45 46  2  0  0  0
 45117  1  0  0  0
 46118  1  0  0  0
 47119  1  0  0  0
 47120  1  0  0  0
 48 56  1  0  0  0
 48 65  1  0  0  0
 48121  1  0  0  0
 49 50  1  0  0  0
 49 53  1  0  0  0
 49 64  1  0  0  0
 49122  1  0  0  0
 50 51  1  0  0  0
 50123  1  0  0  0
 50124  1  0  0  0
 51 52  1  0  0  0
 51125  1  0  0  0
 51126  1  0  0  0
 52127  1  0  0  0
 52128  1  0  0  0
 53 54  1  0  0  0
 54 55  2  0  0  0
 54129  1  0  0  0
 55 57  1  0  0  0
 55130  1  0  0  0
 56 69  2  0  0  0
 57 58  2  0  0  0
 57131  1  0  0  0
 58132  1  0  0  0
 59 60  1  0  0  0
 59 61  1  0  0  0
 59 62  1  0  0  0
 60133  1  0  0  0
 60134  1  0  0  0
 60135  1  0  0  0
 61136  1  0  0  0
 61137  1  0  0  0
 61138  1  0  0  0
 62139  1  0  0  0
 62140  1  0  0  0
 62141  1  0  0  0
 63 65  1  0  0  0
 63142  1  0  0  0
 63143  1  0  0  0
 63144  1  0  0  0
 64145  1  0  0  0
 65146  1  0  0  0
 68 82  1  0  0  0
 71 73  2  0  0  0
 71 76  1  0  0  0
 71147  1  0  0  0
 72 75  1  0  0  0
 72 76  2  0  0  0
 72148  1  0  0  0
 73 74  1  0  0  0
 73 77  1  0  0  0
 74 75  2  0  0  0
 74 79  1  0  0  0
 75 83  1  0  0  0
 76 87  1  0  0  0
 77 84  1  0  0  0
 77 85  2  0  0  0
 78 81  1  0  0  0
 78 82  1  0  0  0
 78 86  2  0  0  0
 79149  1  0  0  0
 79150  1  0  0  0
 79151  1  0  0  0
 80 87  1  0  0  0
 80152  1  0  0  0
 80153  1  0  0  0
 80154  1  0  0  0
 81 84  1  0  0  0
 81155  1  0  0  0
 81156  1  0  0  0
 82157  1  0  0  0
 82158  1  0  0  0
 83159  1  0  0  0
 84160  1  0  0  0
M  ISO  4   1 100  68 101  82 101  83 100
M  END
> <chiral flag>
0

> <version>
0

> <s_m_source_file>
/data/baiqing/PycharmProjects/Reinvent-master-3.2/result/LINK_invent/BTK/process_docking_weight1_custom_product_contain_oxygen_bond_distance_aromatic_linkinvent_7_9_3/rearranged_h_0052.sdf

> <i_m_source_file_index>
63

> <r_mmod_Potential_Energy-OPLS-2005>
-130.168716430664

> <r_mmod_Stretch_Energy-OPLS-2005>
45.7674026489258

> <r_mmod_Bend_Energy-OPLS-2005>
106.350486755371

> <r_mmod_Torsional_Energy-OPLS-2005>
256.736633300781

> <r_mmod_Improper_Torsional_Energy-OPLS-2005>
4.95605802536011

> <r_mmod_Van_der_Waal_Energy-OPLS-2005>
160.707794189453

> <r_mmod_Electrostatic_Energy-OPLS-2005>
-477.132659912109

> <r_mmod_Solvation_Energy-OPLS-2005>
-247.723693847656

> <b_mmod_Minimization_Converged-OPLS-2005>
0

> <r_mmod_RMS_Derivative-OPLS-2005>
2.82339978218079

$$$$
63
                    3D
 Structure written by MMmdl.
160168  0  0  1  0            999 V2000
  -30.7216  -14.4332   20.6162 C   0  0  0  0  0  0
  -30.4183  -12.2996   19.4126 C   0  0  0  0  0  0
  -29.4876  -12.5096   18.2018 C   0  0  0  0  0  0
  -28.0104  -12.3711   18.6180 C   0  0  0  0  0  0
  -27.6635  -13.2048   19.8804 C   0  0  2  0  0  0
  -28.7035  -12.9680   20.9978 C   0  0  0  0  0  0
  -25.2597  -13.8159   20.5693 C   0  0  0  0  0  0
  -24.1840  -13.0441   20.9169 C   0  0  0  0  0  0
  -24.6387  -11.6904   20.8739 C   0  0  0  0  0  0
  -23.9053  -10.4291   21.0407 C   0  0  0  0  0  0
  -24.3607   -9.4213   21.9188 C   0  0  0  0  0  0
  -23.6284   -8.2248   22.0761 C   0  0  0  0  0  0
  -22.4273   -8.0279   21.3544 C   0  0  0  0  0  0
  -21.9905   -9.0252   20.4652 C   0  0  0  0  0  0
  -22.7225  -10.2132   20.3056 C   0  0  0  0  0  0
  -21.6851   -6.0731   22.5279 C   0  0  0  0  0  0
  -21.4013   -6.5637   23.8209 C   0  0  0  0  0  0
  -21.3656   -5.6791   24.9173 C   0  0  0  0  0  0
  -21.6046   -4.3057   24.7227 C   0  0  0  0  0  0
  -21.8821   -3.8144   23.4348 C   0  0  0  0  0  0
  -21.9194   -4.6958   22.3402 C   0  0  0  0  0  0
  -22.7867  -13.5243   21.1834 C   0  0  0  0  0  0
  -22.1663   -4.2143   21.0979 F   0  0  0  0  0  0
  -21.5631   -3.4541   25.7738 F   0  0  0  0  0  0
  -30.0344  -13.2727   20.4471 N   0  0  0  0  0  0
  -26.3034  -12.9324   20.3402 N   0  0  0  0  0  0
  -25.9316  -11.6484   20.5780 N   0  0  0  0  0  0
  -22.0514  -12.8238   22.0387 N   0  0  0  0  0  0
  -25.4345  -15.1875   20.4105 N   0  0  0  0  0  0
  -31.8168  -14.6445   20.0874 O   0  0  0  0  0  0
  -21.6641   -6.8875   21.4239 O   0  0  0  0  0  0
  -22.3556  -14.5557   20.6687 O   0  0  0  0  0  0
  -24.6139  -31.8678   23.2108 C   0  0  0  0  0  0
  -25.9034  -32.4820   23.8404 C   0  0  1  0  0  0
  -27.2293  -27.4364   20.1006 C   0  0  0  0  0  0
  -25.5895  -33.8618   24.2333 N   0  0  0  0  0  0
  -23.4007  -30.4926   21.5515 C   0  0  2  0  0  0
  -24.8467  -28.9557   20.1168 C   0  0  0  0  0  0
  -22.7398  -29.4675   22.4998 C   0  0  0  0  0  0
  -18.0267  -28.1365   22.8495 C   0  0  0  0  0  0
  -24.1481  -36.7311   23.2642 C   0  0  0  0  0  0
  -25.9294  -30.8359   21.3618 C   0  0  0  0  0  0
  -26.0086  -29.4715   20.7060 C   0  0  0  0  0  0
  -27.2075  -28.7225   20.6864 C   0  0  0  0  0  0
  -26.0524  -26.9293   19.5133 C   0  0  0  0  0  0
  -24.8630  -27.6832   19.5176 C   0  0  0  0  0  0
  -23.6081  -29.8232   20.1671 C   0  0  0  0  0  0
  -25.4102  -36.3104   24.0342 C   0  0  1  0  0  0
  -20.5857  -28.3660   23.1303 C   0  0  2  0  0  0
  -20.6756  -26.9399   22.5405 C   0  0  0  0  0  0
  -19.5739  -26.6376   21.5199 C   0  0  0  0  0  0
  -18.1917  -26.7916   22.1613 C   0  0  0  0  0  0
  -19.1517  -28.8830   23.2891 C   0  0  0  0  0  0
  -18.9452  -30.1435   23.8903 C   0  0  0  0  0  0
  -17.6458  -30.6582   24.0559 C   0  0  0  0  0  0
  -25.9028  -34.9471   23.5135 C   0  0  0  0  0  0
  -16.5345  -29.9072   23.6343 C   0  0  0  0  0  0
  -16.7256  -28.6478   23.0376 C   0  0  0  0  0  0
  -26.4467  -31.6597   25.0730 C   0  0  0  0  0  0
  -25.3741  -31.3686   26.1486 C   0  0  0  0  0  0
  -27.0321  -30.3043   24.6115 C   0  0  0  0  0  0
  -27.6037  -32.4329   25.7491 C   0  0  0  0  0  0
  -27.5585  -37.1795   24.8464 C   0  0  0  0  0  0
  -21.4128  -29.3025   22.3713 N   0  0  0  0  0  0
  -26.4284  -37.3793   23.9426 N   0  0  0  0  0  0
  -24.6663  -31.0791   22.1001 N   0  0  0  0  0  0
  -23.4174  -28.8235   23.3056 O   0  0  0  0  0  0
  -28.3813  -26.6833   20.0962 O   0  0  0  0  0  0
  -26.5590  -34.8933   22.4701 O   0  0  0  0  0  0
  -23.5331  -32.1432   23.7502 O   0  0  0  0  0  0
  -28.1701  -19.0315   23.3344 C   0  0  0  0  0  0
  -29.0254  -17.9466   23.0767 C   0  0  0  0  0  0
  -27.9929  -20.0316   22.3613 C   0  0  0  0  0  0
  -29.6789  -17.8242   21.8329 C   0  0  0  0  0  0
  -29.4395  -18.7950   20.8141 C   0  0  0  0  0  0
  -28.6499  -19.9498   21.1158 C   0  0  0  0  0  0
  -30.0108  -18.5678   19.4195 C   0  0  0  0  0  0
  -30.6900  -16.6842   21.6689 C   0  0  0  0  0  0
  -28.3772  -24.1742   20.0645 C   0  0  0  0  0  0
  -28.3242  -25.4844   20.8884 C   0  0  0  0  0  0
  -28.3649  -22.8983   20.9476 C   0  0  0  0  0  0
  -26.9096  -21.2371   19.4056 N   0  0  0  0  0  0
  -30.1077  -15.3797   21.3452 N   0  0  0  0  0  0
  -29.4934  -21.4481   19.0112 O   0  0  0  0  0  0
  -28.3698  -21.3377   19.9551 S   0  0  2  0  0  0
  -31.4626  -12.3967   19.1093 H   0  0  0  0  0  0
  -30.3168  -11.2850   19.8018 H   0  0  0  0  0  0
  -29.7219  -11.7890   17.4172 H   0  0  0  0  0  0
  -29.6579  -13.4981   17.7709 H   0  0  0  0  0  0
  -27.8176  -11.3148   18.8084 H   0  0  0  0  0  0
  -27.3574  -12.6534   17.7913 H   0  0  0  0  0  0
  -27.7148  -14.2557   19.5944 H   0  0  0  0  0  0
  -28.6786  -11.9277   21.3252 H   0  0  0  0  0  0
  -28.4631  -13.5538   21.8858 H   0  0  0  0  0  0
  -25.2749   -9.5694   22.4768 H   0  0  0  0  0  0
  -23.9991   -7.4646   22.7487 H   0  0  0  0  0  0
  -21.0836   -8.8767   19.8962 H   0  0  0  0  0  0
  -22.3680  -10.9670   19.6170 H   0  0  0  0  0  0
  -21.2003   -7.6146   23.9707 H   0  0  0  0  0  0
  -21.1477   -6.0525   25.9073 H   0  0  0  0  0  0
  -22.0606   -2.7606   23.2850 H   0  0  0  0  0  0
  -22.4121  -11.9868   22.4736 H   0  0  0  0  0  0
  -21.1146  -13.1283   22.2630 H   0  0  0  0  0  0
  -24.6744  -15.8482   20.5274 H   0  0  0  0  0  0
  -26.2990  -15.6257   20.1192 H   0  0  0  0  0  0
  -26.7107  -32.5534   23.1168 H   0  0  0  0  0  0
  -25.0073  -33.9775   25.0498 H   0  0  0  0  0  0
  -22.6885  -31.3091   21.4131 H   0  0  0  0  0  0
  -23.3754  -35.9634   23.3290 H   0  0  0  0  0  0
  -24.3576  -36.8941   22.2060 H   0  0  0  0  0  0
  -23.7216  -37.6499   23.6677 H   0  0  0  0  0  0
  -26.0427  -31.6050   20.5964 H   0  0  0  0  0  0
  -26.8163  -30.8856   21.9820 H   0  0  0  0  0  0
  -28.1082  -29.1191   21.1355 H   0  0  0  0  0  0
  -26.0528  -25.9520   19.0538 H   0  0  0  0  0  0
  -23.9677  -27.2773   19.0660 H   0  0  0  0  0  0
  -23.7131  -30.5972   19.4062 H   0  0  0  0  0  0
  -22.7314  -29.2415   19.8755 H   0  0  0  0  0  0
  -25.1273  -36.1966   25.0832 H   0  0  0  0  0  0
  -20.9940  -28.3234   24.1422 H   0  0  0  0  0  0
  -20.5662  -26.2274   23.3593 H   0  0  0  0  0  0
  -21.6636  -26.7448   22.1201 H   0  0  0  0  0  0
  -19.6907  -25.6288   21.1228 H   0  0  0  0  0  0
  -19.6678  -27.3185   20.6736 H   0  0  0  0  0  0
  -17.4194  -26.6676   21.4003 H   0  0  0  0  0  0
  -18.0304  -26.0034   22.8980 H   0  0  0  0  0  0
  -19.7933  -30.7236   24.2273 H   0  0  0  0  0  0
  -17.5030  -31.6269   24.5150 H   0  0  0  0  0  0
  -15.5352  -30.2991   23.7670 H   0  0  0  0  0  0
  -15.8644  -28.0798   22.7124 H   0  0  0  0  0  0
  -24.5905  -30.7045   25.7821 H   0  0  0  0  0  0
  -24.8942  -32.2831   26.4977 H   0  0  0  0  0  0
  -25.8100  -30.8822   27.0221 H   0  0  0  0  0  0
  -26.2859  -29.6751   24.1244 H   0  0  0  0  0  0
  -27.4170  -29.7329   25.4576 H   0  0  0  0  0  0
  -27.8663  -30.4368   23.9220 H   0  0  0  0  0  0
  -27.2659  -33.3642   26.2055 H   0  0  0  0  0  0
  -28.3846  -32.6860   25.0307 H   0  0  0  0  0  0
  -28.0711  -31.8465   26.5410 H   0  0  0  0  0  0
  -28.2568  -38.0126   24.7574 H   0  0  0  0  0  0
  -28.1107  -36.2659   24.6212 H   0  0  0  0  0  0
  -27.2312  -37.1352   25.8865 H   0  0  0  0  0  0
  -20.9291  -29.8720   21.6907 H   0  0  0  0  0  0
  -26.0171  -38.2862   24.1463 H   0  0  0  0  0  0
  -27.6691  -19.1102   24.2892 H   0  0  0  0  0  0
  -29.1924  -17.2101   23.8513 H   0  0  0  0  0  0
  -27.3465  -20.8694   22.5746 H   0  0  0  0  0  0
  -30.0852  -17.5057   19.1861 H   0  0  0  0  0  0
  -31.0010  -19.0123   19.3241 H   0  0  0  0  0  0
  -29.3638  -18.9832   18.6484 H   0  0  0  0  0  0
  -31.2302  -16.5703   22.6104 H   0  0  0  0  0  0
  -31.4578  -16.9752   20.9505 H   0  0  0  0  0  0
  -29.2711  -24.1735   19.4400 H   0  0  0  0  0  0
  -27.5317  -24.1399   19.3781 H   0  0  0  0  0  0
  -29.1779  -25.5118   21.5663 H   0  0  0  0  0  0
  -27.4418  -25.4756   21.5321 H   0  0  0  0  0  0
  -27.4861  -22.8877   21.5900 H   0  0  0  0  0  0
  -29.2399  -22.8675   21.5973 H   0  0  0  0  0  0
  -26.7650  -20.3545   18.8986 H   0  0  0  0  0  0
  -29.2038  -15.1584   21.7330 H   0  0  0  0  0  0
  1 25  1  0  0  0
  1 30  2  0  0  0
  1 83  1  0  0  0
  2  3  1  0  0  0
  2 25  1  0  0  0
  2 86  1  0  0  0
  2 87  1  0  0  0
  3  4  1  0  0  0
  3 88  1  0  0  0
  3 89  1  0  0  0
  4  5  1  0  0  0
  4 90  1  0  0  0
  4 91  1  0  0  0
  5  6  1  0  0  0
  5 26  1  0  0  0
  5 92  1  0  0  0
  6 25  1  0  0  0
  6 93  1  0  0  0
  6 94  1  0  0  0
  7  8  2  0  0  0
  7 26  1  0  0  0
  7 29  1  0  0  0
  8  9  1  0  0  0
  8 22  1  0  0  0
  9 10  1  0  0  0
  9 27  2  0  0  0
 10 11  2  0  0  0
 10 15  1  0  0  0
 11 12  1  0  0  0
 11 95  1  0  0  0
 12 13  2  0  0  0
 12 96  1  0  0  0
 13 14  1  0  0  0
 13 31  1  0  0  0
 14 15  2  0  0  0
 14 97  1  0  0  0
 15 98  1  0  0  0
 16 17  2  0  0  0
 16 21  1  0  0  0
 16 31  1  0  0  0
 17 18  1  0  0  0
 17 99  1  0  0  0
 18 19  2  0  0  0
 18100  1  0  0  0
 19 20  1  0  0  0
 19 24  1  0  0  0
 20 21  2  0  0  0
 20101  1  0  0  0
 21 23  1  0  0  0
 22 28  1  0  0  0
 22 32  2  0  0  0
 26 27  1  0  0  0
 28102  1  0  0  0
 28103  1  0  0  0
 29104  1  0  0  0
 29105  1  0  0  0
 33 34  1  0  0  0
 33 66  1  0  0  0
 33 70  2  0  0  0
 34 36  1  0  0  0
 34 59  1  0  0  0
 34106  1  0  0  0
 35 44  2  0  0  0
 35 45  1  0  0  0
 35 68  1  0  0  0
 36 56  1  0  0  0
 36107  1  0  0  0
 37 39  1  0  0  0
 37 47  1  0  0  0
 37 66  1  0  0  0
 37108  1  0  0  0
 38 43  2  0  0  0
 38 46  1  0  0  0
 38 47  1  0  0  0
 39 64  1  0  0  0
 39 67  2  0  0  0
 40 52  1  0  0  0
 40 53  2  0  0  0
 40 58  1  0  0  0
 41109  1  0  0  0
 41110  1  0  0  0
 41111  1  0  0  0
 41 48  1  0  0  0
 42 43  1  0  0  0
 42 66  1  0  0  0
 42112  1  0  0  0
 42113  1  0  0  0
 43 44  1  0  0  0
 44114  1  0  0  0
 45 46  2  0  0  0
 45115  1  0  0  0
 46116  1  0  0  0
 47117  1  0  0  0
 47118  1  0  0  0
 48 56  1  0  0  0
 48 65  1  0  0  0
 48119  1  0  0  0
 49 50  1  0  0  0
 49 53  1  0  0  0
 49 64  1  0  0  0
 49120  1  0  0  0
 50 51  1  0  0  0
 50121  1  0  0  0
 50122  1  0  0  0
 51 52  1  0  0  0
 51123  1  0  0  0
 51124  1  0  0  0
 52125  1  0  0  0
 52126  1  0  0  0
 53 54  1  0  0  0
 54 55  2  0  0  0
 54127  1  0  0  0
 55 57  1  0  0  0
 55128  1  0  0  0
 56 69  2  0  0  0
 57 58  2  0  0  0
 57129  1  0  0  0
 58130  1  0  0  0
 59 60  1  0  0  0
 59 61  1  0  0  0
 59 62  1  0  0  0
 60131  1  0  0  0
 60132  1  0  0  0
 60133  1  0  0  0
 61134  1  0  0  0
 61135  1  0  0  0
 61136  1  0  0  0
 62137  1  0  0  0
 62138  1  0  0  0
 62139  1  0  0  0
 63 65  1  0  0  0
 63140  1  0  0  0
 63141  1  0  0  0
 63142  1  0  0  0
 64143  1  0  0  0
 65144  1  0  0  0
 68 80  1  0  0  0
 71 72  2  0  0  0
 71 73  1  0  0  0
 71145  1  0  0  0
 72 74  1  0  0  0
 72146  1  0  0  0
 73 76  2  0  0  0
 73147  1  0  0  0
 74 75  2  0  0  0
 74 78  1  0  0  0
 75 76  1  0  0  0
 75 77  1  0  0  0
 76 85  1  0  0  0
 77148  1  0  0  0
 77149  1  0  0  0
 77150  1  0  0  0
 78 83  1  0  0  0
 78151  1  0  0  0
 78152  1  0  0  0
 79 80  1  0  0  0
 79 81  1  0  0  0
 79153  1  0  0  0
 79154  1  0  0  0
 80155  1  0  0  0
 80156  1  0  0  0
 81157  1  0  0  0
 81158  1  0  0  0
 81 85  1  0  0  0
 82 85  2  0  0  0
 82159  1  0  0  0
 83160  1  0  0  0
 84 85  2  0  0  0
M  ISO  4   1 100  68 101  80 101  83 100
M  END
> <chiral flag>
0

> <version>
0

> <s_m_source_file>
/data/baiqing/PycharmProjects/Reinvent-master-3.2/result/LINK_invent/BTK/process_docking_weight1_custom_product_contain_oxygen_bond_distance_aromatic_linkinvent_7_9_3/rearranged_h_0052.sdf

> <i_m_source_file_index>
64

> <r_mmod_Potential_Energy-OPLS-2005>
-251.356750488281

> <r_mmod_Stretch_Energy-OPLS-2005>
39.0854301452637

> <r_mmod_Bend_Energy-OPLS-2005>
94.9691696166992

> <r_mmod_Torsional_Energy-OPLS-2005>
224.175567626953

> <r_mmod_Improper_Torsional_Energy-OPLS-2005>
2.17676830291748

> <r_mmod_Van_der_Waal_Energy-OPLS-2005>
145.622695922852

> <r_mmod_Electrostatic_Energy-OPLS-2005>
-525.575988769531

> <r_mmod_Solvation_Energy-OPLS-2005>
-241.910354614258

> <b_mmod_Minimization_Converged-OPLS-2005>
0

> <r_mmod_RMS_Derivative-OPLS-2005>
1.43556535243988

$$$$
64
                    3D
 Structure written by MMmdl.
160169  0  0  1  0            999 V2000
  -30.5690  -14.7720   20.4816 C   0  0  0  0  0  0
  -30.4424  -12.4726   19.4870 C   0  0  0  0  0  0
  -29.5109  -12.4973   18.2499 C   0  0  0  0  0  0
  -28.0375  -12.3113   18.6651 C   0  0  0  0  0  0
  -27.6405  -13.2273   19.8548 C   0  0  2  0  0  0
  -28.6815  -13.1512   20.9931 C   0  0  0  0  0  0
  -25.2527  -13.8202   20.5670 C   0  0  0  0  0  0
  -24.1821  -13.0477   20.9192 C   0  0  0  0  0  0
  -24.6378  -11.6899   20.8777 C   0  0  0  0  0  0
  -23.9052  -10.4305   21.0460 C   0  0  0  0  0  0
  -24.3626   -9.4222   21.9234 C   0  0  0  0  0  0
  -23.6301   -8.2256   22.0789 C   0  0  0  0  0  0
  -22.4263   -8.0311   21.3587 C   0  0  0  0  0  0
  -21.9905   -9.0273   20.4676 C   0  0  0  0  0  0
  -22.7223  -10.2161   20.3092 C   0  0  0  0  0  0
  -21.6866   -6.0745   22.5270 C   0  0  0  0  0  0
  -21.4039   -6.5659   23.8195 C   0  0  0  0  0  0
  -21.3630   -5.6823   24.9157 C   0  0  0  0  0  0
  -21.6019   -4.3077   24.7228 C   0  0  0  0  0  0
  -21.8816   -3.8161   23.4349 C   0  0  0  0  0  0
  -21.9204   -4.6974   22.3401 C   0  0  0  0  0  0
  -22.7845  -13.5277   21.1848 C   0  0  0  0  0  0
  -22.1670   -4.2144   21.0981 F   0  0  0  0  0  0
  -21.5615   -3.4547   25.7752 F   0  0  0  0  0  0
  -29.9799  -13.5282   20.4198 N   0  0  0  0  0  0
  -26.2936  -12.9393   20.3269 N   0  0  0  0  0  0
  -25.9306  -11.6519   20.5752 N   0  0  0  0  0  0
  -22.0449  -12.8296   22.0378 N   0  0  0  0  0  0
  -25.4165  -15.1936   20.3976 N   0  0  0  0  0  0
  -31.7504  -14.8998   20.1382 O   0  0  0  0  0  0
  -21.6630   -6.8896   21.4246 O   0  0  0  0  0  0
  -22.3528  -14.5531   20.6591 O   0  0  0  0  0  0
  -24.6243  -31.8531   23.1965 C   0  0  0  0  0  0
  -25.9076  -32.4763   23.8287 C   0  0  1  0  0  0
  -27.2191  -27.2588   20.1753 C   0  0  0  0  0  0
  -25.5850  -33.8548   24.2197 N   0  0  0  0  0  0
  -23.4255  -30.4746   21.5335 C   0  0  2  0  0  0
  -24.8822  -28.9147   20.1140 C   0  0  0  0  0  0
  -22.7411  -29.4690   22.4905 C   0  0  0  0  0  0
  -18.0250  -28.1353   22.8341 C   0  0  0  0  0  0
  -24.1474  -36.7256   23.2641 C   0  0  0  0  0  0
  -25.9645  -30.7782   21.3728 C   0  0  0  0  0  0
  -26.0479  -29.3922   20.7322 C   0  0  0  0  0  0
  -27.2217  -28.5720   20.7519 C   0  0  0  0  0  0
  -26.0434  -26.8523   19.5154 C   0  0  0  0  0  0
  -24.8842  -27.6538   19.4967 C   0  0  0  0  0  0
  -23.6512  -29.7984   20.1529 C   0  0  0  0  0  0
  -25.4113  -36.3049   24.0326 C   0  0  1  0  0  0
  -20.5785  -28.3810   23.1109 C   0  0  2  0  0  0
  -20.6708  -26.9432   22.5524 C   0  0  0  0  0  0
  -19.5771  -26.6245   21.5285 C   0  0  0  0  0  0
  -18.1961  -26.7758   22.1719 C   0  0  0  0  0  0
  -19.1435  -28.8928   23.2759 C   0  0  0  0  0  0
  -18.9222  -30.1477   23.8886 C   0  0  0  0  0  0
  -17.6177  -30.6468   24.0648 C   0  0  0  0  0  0
  -25.9048  -34.9454   23.5097 C   0  0  0  0  0  0
  -16.5174  -29.8941   23.6243 C   0  0  0  0  0  0
  -16.7214  -28.6380   23.0186 C   0  0  0  0  0  0
  -26.4492  -31.6578   25.0660 C   0  0  0  0  0  0
  -25.3683  -31.3746   26.1372 C   0  0  0  0  0  0
  -27.0376  -30.3003   24.6109 C   0  0  0  0  0  0
  -27.6036  -32.4320   25.7430 C   0  0  0  0  0  0
  -27.5570  -37.1778   24.8472 C   0  0  0  0  0  0
  -21.4156  -29.3033   22.3435 N   0  0  0  0  0  0
  -26.4282  -37.3739   23.9428 N   0  0  0  0  0  0
  -24.6888  -31.0505   22.0924 N   0  0  0  0  0  0
  -23.4026  -28.8349   23.3169 O   0  0  0  0  0  0
  -28.3128  -26.3670   20.1867 O   0  0  0  0  0  0
  -26.5646  -34.8917   22.4663 O   0  0  0  0  0  0
  -23.5381  -32.1402   23.7227 O   0  0  0  0  0  0
  -29.4244  -19.9735   20.8972 C   0  0  0  0  0  0
  -27.7826  -18.3364   20.1665 C   0  0  0  0  0  0
  -27.1934  -20.7230   20.3158 C   0  0  0  0  0  0
  -29.1052  -18.5787   20.6106 C   0  0  0  0  0  0
  -28.4825  -21.0751   20.7605 C   0  0  0  0  0  0
  -26.8413  -19.3856   20.0420 C   0  0  0  0  0  0
  -28.2993  -22.6359   22.6107 C   0  0  0  0  0  0
  -28.5987  -21.7658   23.5918 C   0  0  0  0  0  0
  -27.4543  -23.8574   22.9869 C   0  0  0  0  0  0
  -27.0978  -24.8562   21.8708 C   0  0  0  0  0  0
  -28.5909  -23.6152   20.3107 C   0  0  0  0  0  0
  -28.3071  -25.0723   20.9676 C   0  0  1  0  0  0
  -30.1498  -17.3615   20.7509 C   0  0  0  0  0  0
  -28.6445  -22.4286   21.2647 N   0  0  0  0  0  0
  -29.7674  -15.8755   20.7540 N   0  0  0  0  0  0
  -25.2185  -19.0292   19.5870 Cl  0  0  0  0  0  0
  -31.4811  -12.6173   19.1824 H   0  0  0  0  0  0
  -30.4182  -11.5000   19.9738 H   0  0  0  0  0  0
  -29.8020  -11.7160   17.5460 H   0  0  0  0  0  0
  -29.6102  -13.4473   17.7273 H   0  0  0  0  0  0
  -27.9152  -11.2635   18.9503 H   0  0  0  0  0  0
  -27.3682  -12.4829   17.8190 H   0  0  0  0  0  0
  -27.6296  -14.2457   19.4698 H   0  0  0  0  0  0
  -28.7199  -12.1411   21.4060 H   0  0  0  0  0  0
  -28.4113  -13.8056   21.8258 H   0  0  0  0  0  0
  -25.2741   -9.5697   22.4829 H   0  0  0  0  0  0
  -23.9973   -7.4662   22.7535 H   0  0  0  0  0  0
  -21.0797   -8.8794   19.9025 H   0  0  0  0  0  0
  -22.3651  -10.9728   19.6226 H   0  0  0  0  0  0
  -21.2054   -7.6160   23.9703 H   0  0  0  0  0  0
  -21.1435   -6.0541   25.9056 H   0  0  0  0  0  0
  -22.0622   -2.7611   23.2839 H   0  0  0  0  0  0
  -22.4025  -11.9957   22.4804 H   0  0  0  0  0  0
  -21.1118  -13.1462   22.2594 H   0  0  0  0  0  0
  -24.6220  -15.8210   20.4470 H   0  0  0  0  0  0
  -26.2025  -15.5944   19.9080 H   0  0  0  0  0  0
  -26.7178  -32.5508   23.1072 H   0  0  0  0  0  0
  -25.0069  -33.9734   25.0403 H   0  0  0  0  0  0
  -22.7182  -31.2949   21.3854 H   0  0  0  0  0  0
  -23.3755  -35.9557   23.3294 H   0  0  0  0  0  0
  -24.3561  -36.8889   22.2046 H   0  0  0  0  0  0
  -23.7237  -37.6457   23.6685 H   0  0  0  0  0  0
  -26.0867  -31.5364   20.5972 H   0  0  0  0  0  0
  -26.8447  -30.8389   21.9999 H   0  0  0  0  0  0
  -28.1124  -28.9299   21.2585 H   0  0  0  0  0  0
  -26.0187  -25.8810   19.0408 H   0  0  0  0  0  0
  -23.9991  -27.2820   19.0040 H   0  0  0  0  0  0
  -23.7926  -30.5729   19.4008 H   0  0  0  0  0  0
  -22.7656  -29.2440   19.8337 H   0  0  0  0  0  0
  -25.1293  -36.1903   25.0814 H   0  0  0  0  0  0
  -20.9783  -28.3536   24.1279 H   0  0  0  0  0  0
  -20.5426  -26.2550   23.3919 H   0  0  0  0  0  0
  -21.6645  -26.7228   22.1491 H   0  0  0  0  0  0
  -19.6728  -27.2968   20.6752 H   0  0  0  0  0  0
  -19.6929  -25.6119   21.1388 H   0  0  0  0  0  0
  -17.4243  -26.6176   21.4186 H   0  0  0  0  0  0
  -18.0469  -26.0019   22.9293 H   0  0  0  0  0  0
  -19.7533  -30.7488   24.2277 H   0  0  0  0  0  0
  -17.4745  -31.6170   24.5155 H   0  0  0  0  0  0
  -15.5167  -30.2854   23.7388 H   0  0  0  0  0  0
  -15.8627  -28.0709   22.6788 H   0  0  0  0  0  0
  -24.5847  -30.7111   25.7698 H   0  0  0  0  0  0
  -24.8912  -32.2946   26.4715 H   0  0  0  0  0  0
  -25.7938  -30.8981   27.0210 H   0  0  0  0  0  0
  -26.2990  -29.6704   24.1125 H   0  0  0  0  0  0
  -27.4138  -29.7279   25.4609 H   0  0  0  0  0  0
  -27.8797  -30.4351   23.9316 H   0  0  0  0  0  0
  -27.2646  -33.3642   26.1947 H   0  0  0  0  0  0
  -28.3845  -32.6823   25.0236 H   0  0  0  0  0  0
  -28.0692  -31.8486   26.5389 H   0  0  0  0  0  0
  -28.2562  -38.0082   24.7480 H   0  0  0  0  0  0
  -28.1080  -36.2610   24.6342 H   0  0  0  0  0  0
  -27.2271  -37.1461   25.8864 H   0  0  0  0  0  0
  -20.9598  -29.8174   21.6046 H   0  0  0  0  0  0
  -26.0149  -38.2785   24.1493 H   0  0  0  0  0  0
  -30.4080  -20.2119   21.2793 H   0  0  0  0  0  0
  -27.4702  -17.3321   19.9166 H   0  0  0  0  0  0
  -26.4234  -21.4850   20.2609 H   0  0  0  0  0  0
  -28.2703  -21.9455   24.6079 H   0  0  0  0  0  0
  -29.1573  -20.8579   23.4259 H   0  0  0  0  0  0
  -27.9949  -24.3960   23.7694 H   0  0  0  0  0  0
  -26.5303  -23.4995   23.4428 H   0  0  0  0  0  0
  -26.7624  -25.7778   22.3419 H   0  0  0  0  0  0
  -26.2665  -24.4785   21.2702 H   0  0  0  0  0  0
  -29.5424  -23.6497   19.7750 H   0  0  0  0  0  0
  -27.8294  -23.4119   19.5604 H   0  0  0  0  0  0
  -29.1431  -25.2497   21.6511 H   0  0  0  0  0  0
  -30.8883  -17.5028   19.9607 H   0  0  0  0  0  0
  -30.7115  -17.5385   21.6719 H   0  0  0  0  0  0
  -28.8204  -15.6523   21.0373 H   0  0  0  0  0  0
  1 25  1  0  0  0
  1 30  2  0  0  0
  1 85  1  0  0  0
  2  3  1  0  0  0
  2 25  1  0  0  0
  2 87  1  0  0  0
  2 88  1  0  0  0
  3  4  1  0  0  0
  3 89  1  0  0  0
  3 90  1  0  0  0
  4  5  1  0  0  0
  4 91  1  0  0  0
  4 92  1  0  0  0
  5  6  1  0  0  0
  5 26  1  0  0  0
  5 93  1  0  0  0
  6 25  1  0  0  0
  6 94  1  0  0  0
  6 95  1  0  0  0
  7  8  2  0  0  0
  7 26  1  0  0  0
  7 29  1  0  0  0
  8  9  1  0  0  0
  8 22  1  0  0  0
  9 10  1  0  0  0
  9 27  2  0  0  0
 10 11  2  0  0  0
 10 15  1  0  0  0
 11 12  1  0  0  0
 11 96  1  0  0  0
 12 13  2  0  0  0
 12 97  1  0  0  0
 13 14  1  0  0  0
 13 31  1  0  0  0
 14 15  2  0  0  0
 14 98  1  0  0  0
 15 99  1  0  0  0
 16 17  2  0  0  0
 16 21  1  0  0  0
 16 31  1  0  0  0
 17 18  1  0  0  0
 17100  1  0  0  0
 18 19  2  0  0  0
 18101  1  0  0  0
 19 20  1  0  0  0
 19 24  1  0  0  0
 20 21  2  0  0  0
 20102  1  0  0  0
 21 23  1  0  0  0
 22 28  1  0  0  0
 22 32  2  0  0  0
 26 27  1  0  0  0
 28103  1  0  0  0
 28104  1  0  0  0
 29105  1  0  0  0
 29106  1  0  0  0
 33 34  1  0  0  0
 33 66  1  0  0  0
 33 70  2  0  0  0
 34 36  1  0  0  0
 34 59  1  0  0  0
 34107  1  0  0  0
 35 44  2  0  0  0
 35 45  1  0  0  0
 35 68  1  0  0  0
 36 56  1  0  0  0
 36108  1  0  0  0
 37 39  1  0  0  0
 37 47  1  0  0  0
 37 66  1  0  0  0
 37109  1  0  0  0
 38 43  2  0  0  0
 38 46  1  0  0  0
 38 47  1  0  0  0
 39 64  1  0  0  0
 39 67  2  0  0  0
 40 52  1  0  0  0
 40 53  2  0  0  0
 40 58  1  0  0  0
 41110  1  0  0  0
 41111  1  0  0  0
 41112  1  0  0  0
 41 48  1  0  0  0
 42 43  1  0  0  0
 42 66  1  0  0  0
 42113  1  0  0  0
 42114  1  0  0  0
 43 44  1  0  0  0
 44115  1  0  0  0
 45 46  2  0  0  0
 45116  1  0  0  0
 46117  1  0  0  0
 47118  1  0  0  0
 47119  1  0  0  0
 48 56  1  0  0  0
 48 65  1  0  0  0
 48120  1  0  0  0
 49 50  1  0  0  0
 49 53  1  0  0  0
 49 64  1  0  0  0
 49121  1  0  0  0
 50 51  1  0  0  0
 50122  1  0  0  0
 50123  1  0  0  0
 51 52  1  0  0  0
 51124  1  0  0  0
 51125  1  0  0  0
 52126  1  0  0  0
 52127  1  0  0  0
 53 54  1  0  0  0
 54 55  2  0  0  0
 54128  1  0  0  0
 55 57  1  0  0  0
 55129  1  0  0  0
 56 69  2  0  0  0
 57 58  2  0  0  0
 57130  1  0  0  0
 58131  1  0  0  0
 59 60  1  0  0  0
 59 61  1  0  0  0
 59 62  1  0  0  0
 60132  1  0  0  0
 60133  1  0  0  0
 60134  1  0  0  0
 61135  1  0  0  0
 61136  1  0  0  0
 61137  1  0  0  0
 62138  1  0  0  0
 62139  1  0  0  0
 62140  1  0  0  0
 63 65  1  0  0  0
 63141  1  0  0  0
 63142  1  0  0  0
 63143  1  0  0  0
 64144  1  0  0  0
 65145  1  0  0  0
 68 82  1  0  0  0
 71 74  2  0  0  0
 71 75  1  0  0  0
 71146  1  0  0  0
 72 74  1  0  0  0
 72 76  2  0  0  0
 72147  1  0  0  0
 73 75  2  0  0  0
 73 76  1  0  0  0
 73148  1  0  0  0
 74 83  1  0  0  0
 75 84  1  0  0  0
 76 86  1  0  0  0
 77 78  2  0  0  0
 77 79  1  0  0  0
 77 84  1  0  0  0
 78149  1  0  0  0
 78150  1  0  0  0
 79 80  1  0  0  0
 79151  1  0  0  0
 79152  1  0  0  0
 80 82  1  0  0  0
 80153  1  0  0  0
 80154  1  0  0  0
 81 82  1  0  0  0
 81 84  1  0  0  0
 81155  1  0  0  0
 81156  1  0  0  0
 82157  1  0  0  0
 83 85  1  0  0  0
 83158  1  0  0  0
 83159  1  0  0  0
 85160  1  0  0  0
M  ISO  4   1 100  68 101  82 101  85 100
M  END
> <chiral flag>
0

> <version>
0

> <s_m_source_file>
/data/baiqing/PycharmProjects/Reinvent-master-3.2/result/LINK_invent/BTK/process_docking_weight1_custom_product_contain_oxygen_bond_distance_aromatic_linkinvent_7_9_3/rearranged_h_0052.sdf

> <i_m_source_file_index>
65

> <r_mmod_Potential_Energy-OPLS-2005>
193.582168579102

> <r_mmod_Stretch_Energy-OPLS-2005>
129.204284667969

> <r_mmod_Bend_Energy-OPLS-2005>
186.603622436523

> <r_mmod_Torsional_Energy-OPLS-2005>
283.040802001953

> <r_mmod_Improper_Torsional_Energy-OPLS-2005>
8.39879989624023

> <r_mmod_Van_der_Waal_Energy-OPLS-2005>
135.848175048828

> <r_mmod_Electrostatic_Energy-OPLS-2005>
-438.271514892578

> <r_mmod_Solvation_Energy-OPLS-2005>
-204.081390380859

> <b_mmod_Minimization_Converged-OPLS-2005>
0

> <r_mmod_RMS_Derivative-OPLS-2005>
10.3943462371826

$$$$
65
                    3D
 Structure written by MMmdl.
168177  0  0  1  0            999 V2000
  -30.6543  -14.5911   20.4946 C   0  0  0  0  0  0
  -30.4324  -12.3586   19.4434 C   0  0  0  0  0  0
  -29.4994  -12.5006   18.2214 C   0  0  0  0  0  0
  -28.0242  -12.3422   18.6403 C   0  0  0  0  0  0
  -27.6543  -13.2065   19.8740 C   0  0  2  0  0  0
  -28.7060  -13.0592   20.9982 C   0  0  0  0  0  0
  -25.2563  -13.8130   20.5788 C   0  0  0  0  0  0
  -24.1812  -13.0408   20.9197 C   0  0  0  0  0  0
  -24.6376  -11.6876   20.8743 C   0  0  0  0  0  0
  -23.9038  -10.4278   21.0413 C   0  0  0  0  0  0
  -24.3588   -9.4198   21.9193 C   0  0  0  0  0  0
  -23.6266   -8.2237   22.0770 C   0  0  0  0  0  0
  -22.4256   -8.0271   21.3548 C   0  0  0  0  0  0
  -21.9884   -9.0248   20.4653 C   0  0  0  0  0  0
  -22.7210  -10.2126   20.3064 C   0  0  0  0  0  0
  -21.6853   -6.0722   22.5278 C   0  0  0  0  0  0
  -21.4005   -6.5634   23.8205 C   0  0  0  0  0  0
  -21.3649   -5.6795   24.9170 C   0  0  0  0  0  0
  -21.6049   -4.3057   24.7226 C   0  0  0  0  0  0
  -21.8833   -3.8137   23.4353 C   0  0  0  0  0  0
  -21.9202   -4.6950   22.3405 C   0  0  0  0  0  0
  -22.7837  -13.5210   21.1850 C   0  0  0  0  0  0
  -22.1678   -4.2136   21.0985 F   0  0  0  0  0  0
  -21.5624   -3.4539   25.7740 F   0  0  0  0  0  0
  -30.0246  -13.3785   20.4261 N   0  0  0  0  0  0
  -26.2995  -12.9305   20.3421 N   0  0  0  0  0  0
  -25.9309  -11.6466   20.5807 N   0  0  0  0  0  0
  -22.0463  -12.8212   22.0389 N   0  0  0  0  0  0
  -25.4273  -15.1862   20.4364 N   0  0  0  0  0  0
  -31.8237  -14.7451   20.1331 O   0  0  0  0  0  0
  -21.6627   -6.8866   21.4238 O   0  0  0  0  0  0
  -22.3540  -14.5529   20.6700 O   0  0  0  0  0  0
  -24.6196  -31.8598   23.2080 C   0  0  0  0  0  0
  -25.9066  -32.4782   23.8380 C   0  0  1  0  0  0
  -27.2271  -27.3653   20.0967 C   0  0  0  0  0  0
  -25.5903  -33.8588   24.2297 N   0  0  0  0  0  0
  -23.4102  -30.4837   21.5503 C   0  0  2  0  0  0
  -24.8535  -28.9388   20.1163 C   0  0  0  0  0  0
  -22.7414  -29.4619   22.4984 C   0  0  0  0  0  0
  -18.0263  -28.1383   22.8506 C   0  0  0  0  0  0
  -24.1484  -36.7302   23.2644 C   0  0  0  0  0  0
  -25.9460  -30.8037   21.3708 C   0  0  0  0  0  0
  -26.0184  -29.4349   20.7115 C   0  0  0  0  0  0
  -27.2054  -28.6572   20.6924 C   0  0  0  0  0  0
  -26.0345  -26.8939   19.5025 C   0  0  0  0  0  0
  -24.8597  -27.6721   19.5090 C   0  0  0  0  0  0
  -23.6196  -29.8136   20.1662 C   0  0  0  0  0  0
  -25.4110  -36.3091   24.0333 C   0  0  1  0  0  0
  -20.5849  -28.3667   23.1314 C   0  0  2  0  0  0
  -20.6742  -26.9392   22.5432 C   0  0  0  0  0  0
  -19.5735  -26.6382   21.5215 C   0  0  0  0  0  0
  -18.1904  -26.7943   22.1610 C   0  0  0  0  0  0
  -19.1512  -28.8847   23.2899 C   0  0  0  0  0  0
  -18.9442  -30.1463   23.8900 C   0  0  0  0  0  0
  -17.6443  -30.6594   24.0567 C   0  0  0  0  0  0
  -25.9034  -34.9448   23.5108 C   0  0  0  0  0  0
  -16.5329  -29.9092   23.6346 C   0  0  0  0  0  0
  -16.7251  -28.6503   23.0375 C   0  0  0  0  0  0
  -26.4489  -31.6603   25.0742 C   0  0  0  0  0  0
  -25.3759  -31.3695   26.1497 C   0  0  0  0  0  0
  -27.0344  -30.3041   24.6169 C   0  0  0  0  0  0
  -27.6035  -32.4364   25.7502 C   0  0  0  0  0  0
  -27.5591  -37.1784   24.8449 C   0  0  0  0  0  0
  -21.4133  -29.3023   22.3711 N   0  0  0  0  0  0
  -26.4287  -37.3787   23.9416 N   0  0  0  0  0  0
  -24.6779  -31.0637   22.1011 N   0  0  0  0  0  0
  -23.4154  -28.8154   23.3046 O   0  0  0  0  0  0
  -28.4051  -26.6236   20.1248 O   0  0  0  0  0  0
  -26.5586  -34.8899   22.4664 O   0  0  0  0  0  0
  -23.5374  -32.1378   23.7435 O   0  0  0  0  0  0
  -31.0016  -19.2762   20.9636 C   0  0  0  0  0  0
  -30.9014  -17.8806   21.2278 C   0  0  0  0  0  0
  -29.3306  -19.0789   19.2350 C   0  0  0  0  0  0
  -30.2350  -19.9034   19.9460 C   0  0  0  0  0  0
  -29.2132  -17.6868   19.5041 C   0  0  0  0  0  0
  -30.0195  -17.0518   20.4910 C   0  0  0  0  0  0
  -30.6739  -23.8729   19.9195 C   0  0  0  0  0  0
  -33.5632  -23.2261   22.1406 C   0  0  0  0  0  0
  -31.7551  -24.0279   20.7147 C   0  0  0  0  0  0
  -32.3567  -23.0368   21.5843 C   0  0  0  0  0  0
  -29.9687  -25.0288   19.2050 C   0  0  0  0  0  0
  -28.1034  -24.1620   20.7329 C   0  0  0  0  0  0
  -28.5570  -22.6728   20.4231 C   0  0  0  0  0  0
  -28.4974  -25.2400   19.6610 C   0  0  1  0  0  0
  -28.2265  -16.8806   18.6833 C   0  0  0  0  0  0
  -30.6047  -21.3258   19.4166 C   0  0  0  0  0  0
  -29.8488  -15.6454   20.8007 N   0  0  0  0  0  0
  -29.8678  -22.6184   19.7178 N   0  3  2  0  0  0
  -31.4748  -12.4654   19.1393 H   0  0  0  0  0  0
  -30.3469  -11.3618   19.8794 H   0  0  0  0  0  0
  -29.7506  -11.7567   17.4640 H   0  0  0  0  0  0
  -29.6478  -13.4774   17.7567 H   0  0  0  0  0  0
  -27.8574  -11.2878   18.8653 H   0  0  0  0  0  0
  -27.3652  -12.5799   17.8057 H   0  0  0  0  0  0
  -27.6703  -14.2392   19.5367 H   0  0  0  0  0  0
  -28.7085  -12.0416   21.3932 H   0  0  0  0  0  0
  -28.4659  -13.7033   21.8455 H   0  0  0  0  0  0
  -25.2737   -9.5685   22.4758 H   0  0  0  0  0  0
  -23.9978   -7.4641   22.7504 H   0  0  0  0  0  0
  -21.0811   -8.8772   19.8956 H   0  0  0  0  0  0
  -22.3676  -10.9668   19.6175 H   0  0  0  0  0  0
  -21.1991   -7.6143   23.9697 H   0  0  0  0  0  0
  -21.1448   -6.0523   25.9067 H   0  0  0  0  0  0
  -22.0616   -2.7596   23.2864 H   0  0  0  0  0  0
  -22.4045  -11.9834   22.4738 H   0  0  0  0  0  0
  -21.1116  -13.1302   22.2647 H   0  0  0  0  0  0
  -24.6707  -15.8455   20.5813 H   0  0  0  0  0  0
  -26.2974  -15.6312   20.1841 H   0  0  0  0  0  0
  -26.7118  -32.5454   23.1119 H   0  0  0  0  0  0
  -25.0086  -33.9765   25.0463 H   0  0  0  0  0  0
  -22.7045  -31.3042   21.4090 H   0  0  0  0  0  0
  -23.3764  -35.9614   23.3261 H   0  0  0  0  0  0
  -24.3576  -36.8983   22.2069 H   0  0  0  0  0  0
  -23.7207  -37.6473   23.6705 H   0  0  0  0  0  0
  -26.0676  -31.5697   20.6040 H   0  0  0  0  0  0
  -26.8301  -30.8511   21.9944 H   0  0  0  0  0  0
  -28.1067  -29.0387   21.1527 H   0  0  0  0  0  0
  -25.9760  -25.9229   19.0349 H   0  0  0  0  0  0
  -23.9586  -27.2875   19.0508 H   0  0  0  0  0  0
  -23.7278  -30.5889   19.4062 H   0  0  0  0  0  0
  -22.7423  -29.2357   19.8720 H   0  0  0  0  0  0
  -25.1278  -36.1957   25.0825 H   0  0  0  0  0  0
  -20.9933  -28.3239   24.1436 H   0  0  0  0  0  0
  -20.5621  -26.2262   23.3615 H   0  0  0  0  0  0
  -21.6612  -26.7413   22.1240 H   0  0  0  0  0  0
  -19.6880  -25.6293   21.1250 H   0  0  0  0  0  0
  -19.6700  -27.3180   20.6739 H   0  0  0  0  0  0
  -17.4184  -26.6742   21.3993 H   0  0  0  0  0  0
  -18.0257  -26.0066   22.8972 H   0  0  0  0  0  0
  -19.7915  -30.7293   24.2253 H   0  0  0  0  0  0
  -17.4993  -31.6279   24.5163 H   0  0  0  0  0  0
  -15.5331  -30.2990   23.7686 H   0  0  0  0  0  0
  -15.8646  -28.0822   22.7097 H   0  0  0  0  0  0
  -24.6017  -30.6922   25.7875 H   0  0  0  0  0  0
  -24.8838  -32.2822   26.4863 H   0  0  0  0  0  0
  -25.8162  -30.8994   27.0300 H   0  0  0  0  0  0
  -26.2904  -29.6786   24.1227 H   0  0  0  0  0  0
  -27.4094  -29.7309   25.4657 H   0  0  0  0  0  0
  -27.8740  -30.4352   23.9339 H   0  0  0  0  0  0
  -27.2616  -33.3641   26.2103 H   0  0  0  0  0  0
  -28.3820  -32.6986   25.0325 H   0  0  0  0  0  0
  -28.0741  -31.8502   26.5409 H   0  0  0  0  0  0
  -28.2564  -38.0127   24.7557 H   0  0  0  0  0  0
  -28.1140  -36.2657   24.6209 H   0  0  0  0  0  0
  -27.2306  -37.1337   25.8849 H   0  0  0  0  0  0
  -20.9294  -29.8752   21.6939 H   0  0  0  0  0  0
  -26.0175  -38.2850   24.1488 H   0  0  0  0  0  0
  -31.7339  -19.8498   21.5146 H   0  0  0  0  0  0
  -31.5212  -17.4469   22.0015 H   0  0  0  0  0  0
  -28.7614  -19.5030   18.4187 H   0  0  0  0  0  0
  -33.9990  -22.4887   22.8005 H   0  0  0  0  0  0
  -34.1399  -24.1197   21.9440 H   0  0  0  0  0  0
  -32.1677  -25.0260   20.7667 H   0  0  0  0  0  0
  -31.8240  -22.1283   21.8242 H   0  0  0  0  0  0
  -30.0005  -24.8626   18.1272 H   0  0  0  0  0  0
  -30.5389  -25.9451   19.3672 H   0  0  0  0  0  0
  -28.5683  -24.4552   21.6758 H   0  0  0  0  0  0
  -27.0302  -24.1971   20.9188 H   0  0  0  0  0  0
  -27.8158  -22.1761   19.7953 H   0  0  0  0  0  0
  -28.6122  -22.1012   21.3500 H   0  0  0  0  0  0
  -27.8878  -25.0961   18.7698 H   0  0  0  0  0  0
  -27.8599  -17.4412   17.8236 H   0  0  0  0  0  0
  -27.3691  -16.6305   19.3025 H   0  0  0  0  0  0
  -28.6806  -15.9610   18.3127 H   0  0  0  0  0  0
  -30.5705  -21.2514   18.3290 H   0  0  0  0  0  0
  -31.6672  -21.4674   19.6026 H   0  0  0  0  0  0
  -28.9044  -15.3658   21.0105 H   0  0  0  0  0  0
  -29.5188  -22.7359   18.7795 H   0  0  0  0  0  0
  1 25  1  0  0  0
  1 30  2  0  0  0
  1 87  1  0  0  0
  2  3  1  0  0  0
  2 25  1  0  0  0
  2 89  1  0  0  0
  2 90  1  0  0  0
  3  4  1  0  0  0
  3 91  1  0  0  0
  3 92  1  0  0  0
  4  5  1  0  0  0
  4 93  1  0  0  0
  4 94  1  0  0  0
  5  6  1  0  0  0
  5 26  1  0  0  0
  5 95  1  0  0  0
  6 25  1  0  0  0
  6 96  1  0  0  0
  6 97  1  0  0  0
  7  8  2  0  0  0
  7 26  1  0  0  0
  7 29  1  0  0  0
  8  9  1  0  0  0
  8 22  1  0  0  0
  9 10  1  0  0  0
  9 27  2  0  0  0
 10 11  2  0  0  0
 10 15  1  0  0  0
 11 12  1  0  0  0
 11 98  1  0  0  0
 12 13  2  0  0  0
 12 99  1  0  0  0
 13 14  1  0  0  0
 13 31  1  0  0  0
 14 15  2  0  0  0
 14100  1  0  0  0
 15101  1  0  0  0
 16 17  2  0  0  0
 16 21  1  0  0  0
 16 31  1  0  0  0
 17 18  1  0  0  0
 17102  1  0  0  0
 18 19  2  0  0  0
 18103  1  0  0  0
 19 20  1  0  0  0
 19 24  1  0  0  0
 20 21  2  0  0  0
 20104  1  0  0  0
 21 23  1  0  0  0
 22 28  1  0  0  0
 22 32  2  0  0  0
 26 27  1  0  0  0
 28105  1  0  0  0
 28106  1  0  0  0
 29107  1  0  0  0
 29108  1  0  0  0
 33 34  1  0  0  0
 33 66  1  0  0  0
 33 70  2  0  0  0
 34 36  1  0  0  0
 34 59  1  0  0  0
 34109  1  0  0  0
 35 44  2  0  0  0
 35 45  1  0  0  0
 35 68  1  0  0  0
 36 56  1  0  0  0
 36110  1  0  0  0
 37 39  1  0  0  0
 37 47  1  0  0  0
 37 66  1  0  0  0
 37111  1  0  0  0
 38 43  2  0  0  0
 38 46  1  0  0  0
 38 47  1  0  0  0
 39 64  1  0  0  0
 39 67  2  0  0  0
 40 52  1  0  0  0
 40 53  2  0  0  0
 40 58  1  0  0  0
 41112  1  0  0  0
 41113  1  0  0  0
 41114  1  0  0  0
 41 48  1  0  0  0
 42 43  1  0  0  0
 42 66  1  0  0  0
 42115  1  0  0  0
 42116  1  0  0  0
 43 44  1  0  0  0
 44117  1  0  0  0
 45 46  2  0  0  0
 45118  1  0  0  0
 46119  1  0  0  0
 47120  1  0  0  0
 47121  1  0  0  0
 48 56  1  0  0  0
 48 65  1  0  0  0
 48122  1  0  0  0
 49 50  1  0  0  0
 49 53  1  0  0  0
 49 64  1  0  0  0
 49123  1  0  0  0
 50 51  1  0  0  0
 50124  1  0  0  0
 50125  1  0  0  0
 51 52  1  0  0  0
 51126  1  0  0  0
 51127  1  0  0  0
 52128  1  0  0  0
 52129  1  0  0  0
 53 54  1  0  0  0
 54 55  2  0  0  0
 54130  1  0  0  0
 55 57  1  0  0  0
 55131  1  0  0  0
 56 69  2  0  0  0
 57 58  2  0  0  0
 57132  1  0  0  0
 58133  1  0  0  0
 59 60  1  0  0  0
 59 61  1  0  0  0
 59 62  1  0  0  0
 60134  1  0  0  0
 60135  1  0  0  0
 60136  1  0  0  0
 61137  1  0  0  0
 61138  1  0  0  0
 61139  1  0  0  0
 62140  1  0  0  0
 62141  1  0  0  0
 62142  1  0  0  0
 63 65  1  0  0  0
 63143  1  0  0  0
 63144  1  0  0  0
 63145  1  0  0  0
 64146  1  0  0  0
 65147  1  0  0  0
 68 84  1  0  0  0
 71 72  2  0  0  0
 71 74  1  0  0  0
 71148  1  0  0  0
 72 76  1  0  0  0
 72149  1  0  0  0
 73 74  2  0  0  0
 73 75  1  0  0  0
 73150  1  0  0  0
 74 86  1  0  0  0
 75 76  2  0  0  0
 75 85  1  0  0  0
 76 87  1  0  0  0
 77 79  2  0  0  0
 77 81  1  0  0  0
 77 88  1  0  0  0
 78 80  2  0  0  0
 78151  1  0  0  0
 78152  1  0  0  0
 79 80  1  0  0  0
 79153  1  0  0  0
 80154  1  0  0  0
 81 84  1  0  0  0
 81155  1  0  0  0
 81156  1  0  0  0
 82 83  1  0  0  0
 82 84  1  0  0  0
 82157  1  0  0  0
 82158  1  0  0  0
 83 88  1  0  0  0
 83159  1  0  0  0
 83160  1  0  0  0
 84161  1  0  0  0
 85162  1  0  0  0
 85163  1  0  0  0
 85164  1  0  0  0
 86165  1  0  0  0
 86166  1  0  0  0
 86 88  1  0  0  0
 87167  1  0  0  0
 88168  1  0  0  0
M  CHG  1  88   1
M  ISO  4   1 100  68 101  84 101  87 100
M  END
> <chiral flag>
0

> <version>
0

> <s_m_source_file>
/data/baiqing/PycharmProjects/Reinvent-master-3.2/result/LINK_invent/BTK/process_docking_weight1_custom_product_contain_oxygen_bond_distance_aromatic_linkinvent_7_9_3/rearranged_h_0052.sdf

> <i_m_source_file_index>
66

> <r_mmod_Potential_Energy-OPLS-2005>
-29.9499359130859

> <r_mmod_Stretch_Energy-OPLS-2005>
63.0060844421387

> <r_mmod_Bend_Energy-OPLS-2005>
181.720947265625

> <r_mmod_Torsional_Energy-OPLS-2005>
272.963775634766

> <r_mmod_Improper_Torsional_Energy-OPLS-2005>
7.88819742202759

> <r_mmod_Van_der_Waal_Energy-OPLS-2005>
147.186981201172

> <r_mmod_Electrostatic_Energy-OPLS-2005>
-287.918823242188

> <r_mmod_Solvation_Energy-OPLS-2005>
-446.061340332031

> <b_mmod_Minimization_Converged-OPLS-2005>
0

> <r_mmod_RMS_Derivative-OPLS-2005>
2.23299479484558

$$$$
66
                    3D
 Structure written by MMmdl.
154162  0  0  1  0            999 V2000
  -30.7224  -14.5230   20.5959 C   0  0  0  0  0  0
  -30.4190  -12.3451   19.4290 C   0  0  0  0  0  0
  -29.4903  -12.5114   18.2105 C   0  0  0  0  0  0
  -28.0147  -12.3631   18.6299 C   0  0  0  0  0  0
  -27.6587  -13.2155   19.8749 C   0  0  2  0  0  0
  -28.7054  -13.0327   20.9972 C   0  0  0  0  0  0
  -25.2535  -13.8171   20.5662 C   0  0  0  0  0  0
  -24.1817  -13.0449   20.9219 C   0  0  0  0  0  0
  -24.6381  -11.6915   20.8789 C   0  0  0  0  0  0
  -23.9061  -10.4294   21.0435 C   0  0  0  0  0  0
  -24.3617   -9.4196   21.9187 C   0  0  0  0  0  0
  -23.6285   -8.2238   22.0758 C   0  0  0  0  0  0
  -22.4266   -8.0283   21.3555 C   0  0  0  0  0  0
  -21.9914   -9.0261   20.4658 C   0  0  0  0  0  0
  -22.7256  -10.2130   20.3067 C   0  0  0  0  0  0
  -21.6850   -6.0722   22.5276 C   0  0  0  0  0  0
  -21.4007   -6.5638   23.8201 C   0  0  0  0  0  0
  -21.3658   -5.6797   24.9169 C   0  0  0  0  0  0
  -21.6032   -4.3056   24.7224 C   0  0  0  0  0  0
  -21.8822   -3.8142   23.4355 C   0  0  0  0  0  0
  -21.9183   -4.6947   22.3406 C   0  0  0  0  0  0
  -22.7840  -13.5248   21.1847 C   0  0  0  0  0  0
  -22.1659   -4.2145   21.0979 F   0  0  0  0  0  0
  -21.5627   -3.4537   25.7734 F   0  0  0  0  0  0
  -30.0306  -13.3509   20.4420 N   0  0  0  0  0  0
  -26.3013  -12.9379   20.3386 N   0  0  0  0  0  0
  -25.9322  -11.6535   20.5841 N   0  0  0  0  0  0
  -22.0472  -12.8244   22.0394 N   0  0  0  0  0  0
  -25.4192  -15.1892   20.3953 N   0  0  0  0  0  0
  -31.8434  -14.6789   20.1052 O   0  0  0  0  0  0
  -21.6641   -6.8879   21.4248 O   0  0  0  0  0  0
  -22.3537  -14.5547   20.6666 O   0  0  0  0  0  0
  -24.6153  -31.8640   23.2087 C   0  0  0  0  0  0
  -25.9056  -32.4819   23.8367 C   0  0  1  0  0  0
  -27.2554  -27.4168   20.1068 C   0  0  0  0  0  0
  -25.5888  -33.8609   24.2271 N   0  0  0  0  0  0
  -23.4045  -30.4879   21.5482 C   0  0  2  0  0  0
  -24.8570  -28.9518   20.1137 C   0  0  0  0  0  0
  -22.7426  -29.4673   22.4972 C   0  0  0  0  0  0
  -18.0300  -28.1457   22.8412 C   0  0  0  0  0  0
  -24.1493  -36.7309   23.2635 C   0  0  0  0  0  0
  -25.9324  -30.8288   21.3640 C   0  0  0  0  0  0
  -26.0166  -29.4622   20.7086 C   0  0  0  0  0  0
  -27.2149  -28.7030   20.7002 C   0  0  0  0  0  0
  -26.0745  -26.9400   19.4861 C   0  0  0  0  0  0
  -24.8857  -27.6922   19.4908 C   0  0  0  0  0  0
  -23.6143  -29.8139   20.1656 C   0  0  0  0  0  0
  -25.4119  -36.3093   24.0320 C   0  0  1  0  0  0
  -20.5861  -28.3736   23.1330 C   0  0  2  0  0  0
  -20.6770  -26.9426   22.5546 C   0  0  0  0  0  0
  -19.5838  -26.6416   21.5248 C   0  0  0  0  0  0
  -18.1997  -26.7976   22.1578 C   0  0  0  0  0  0
  -19.1532  -28.8906   23.2851 C   0  0  0  0  0  0
  -18.9471  -30.1503   23.8862 C   0  0  0  0  0  0
  -17.6502  -30.6625   24.0529 C   0  0  0  0  0  0
  -25.9036  -34.9476   23.5096 C   0  0  0  0  0  0
  -16.5403  -29.9119   23.6306 C   0  0  0  0  0  0
  -16.7297  -28.6555   23.0324 C   0  0  0  0  0  0
  -26.4485  -31.6606   25.0685 C   0  0  0  0  0  0
  -25.3693  -31.3722   26.1377 C   0  0  0  0  0  0
  -27.0316  -30.3046   24.6071 C   0  0  0  0  0  0
  -27.6069  -32.4312   25.7440 C   0  0  0  0  0  0
  -27.5577  -37.1807   24.8464 C   0  0  0  0  0  0
  -21.4147  -29.3017   22.3653 N   0  0  0  0  0  0
  -26.4300  -37.3780   23.9395 N   0  0  0  0  0  0
  -24.6689  -31.0760   22.0980 N   0  0  0  0  0  0
  -23.4158  -28.8256   23.3083 O   0  0  0  0  0  0
  -28.4318  -26.6777   20.1576 O   0  0  0  0  0  0
  -26.5612  -34.8922   22.4660 O   0  0  0  0  0  0
  -23.5365  -32.1397   23.7487 O   0  0  0  0  0  0
  -30.3871  -19.4659   21.2563 C   0  0  0  0  0  0
  -28.1948  -20.5163   21.1516 C   0  0  0  0  0  0
  -28.3894  -18.0715   21.2218 C   0  0  0  0  0  0
  -29.6001  -20.6557   21.1623 C   0  0  0  0  0  0
  -29.7940  -18.1637   21.2917 C   0  0  0  0  0  0
  -27.6015  -19.2391   21.1718 C   0  0  0  0  0  0
  -29.5385  -24.4466   20.4597 C   0  0  0  0  0  0
  -30.2345  -22.0672   21.1105 C   0  0  0  0  0  0
  -30.6774  -16.9055   21.4561 C   0  0  0  0  0  0
  -28.3868  -25.2712   19.8137 C   0  0  0  0  0  0
  -29.3610  -23.1065   20.5236 N   0  0  0  0  0  0
  -30.0949  -15.5507   21.2252 N   0  0  0  0  0  0
  -30.5548  -25.0033   20.8883 O   0  0  0  0  0  0
  -25.8829  -19.1102   21.1378 Cl  0  0  0  0  0  0
  -31.4598  -12.4330   19.1205 H   0  0  0  0  0  0
  -30.3207  -11.3381   19.8345 H   0  0  0  0  0  0
  -29.7373  -11.7757   17.4430 H   0  0  0  0  0  0
  -29.6462  -13.4951   17.7612 H   0  0  0  0  0  0
  -27.8394  -11.3053   18.8386 H   0  0  0  0  0  0
  -27.3612  -12.6226   17.7972 H   0  0  0  0  0  0
  -27.6938  -14.2637   19.5709 H   0  0  0  0  0  0
  -28.6919  -12.0003   21.3525 H   0  0  0  0  0  0
  -28.4575  -13.6537   21.8557 H   0  0  0  0  0  0
  -25.2780   -9.5644   22.4733 H   0  0  0  0  0  0
  -23.9991   -7.4635   22.7481 H   0  0  0  0  0  0
  -21.0842   -8.8795   19.8967 H   0  0  0  0  0  0
  -22.3749  -10.9660   19.6151 H   0  0  0  0  0  0
  -21.2013   -7.6145   23.9722 H   0  0  0  0  0  0
  -21.1476   -6.0510   25.9074 H   0  0  0  0  0  0
  -22.0603   -2.7608   23.2848 H   0  0  0  0  0  0
  -22.4119  -11.9970   22.4865 H   0  0  0  0  0  0
  -21.1076  -13.1215   22.2576 H   0  0  0  0  0  0
  -24.6365  -15.8274   20.4758 H   0  0  0  0  0  0
  -26.2385  -15.6220   19.9861 H   0  0  0  0  0  0
  -26.7101  -32.5554   23.1117 H   0  0  0  0  0  0
  -25.0019  -33.9756   25.0401 H   0  0  0  0  0  0
  -22.6954  -31.3056   21.4089 H   0  0  0  0  0  0
  -23.3746  -35.9653   23.3317 H   0  0  0  0  0  0
  -24.3568  -36.8907   22.2041 H   0  0  0  0  0  0
  -23.7279  -37.6521   23.6647 H   0  0  0  0  0  0
  -26.0474  -31.5969   20.5975 H   0  0  0  0  0  0
  -26.8187  -30.8808   21.9853 H   0  0  0  0  0  0
  -28.1057  -29.1009   21.1685 H   0  0  0  0  0  0
  -26.0448  -25.9831   18.9845 H   0  0  0  0  0  0
  -24.0028  -27.2939   19.0091 H   0  0  0  0  0  0
  -23.7087  -30.5829   19.3992 H   0  0  0  0  0  0
  -22.7429  -29.2220   19.8817 H   0  0  0  0  0  0
  -25.1330  -36.1932   25.0819 H   0  0  0  0  0  0
  -20.9860  -28.3484   24.1486 H   0  0  0  0  0  0
  -20.5534  -26.2438   23.3819 H   0  0  0  0  0  0
  -21.6685  -26.7366   22.1495 H   0  0  0  0  0  0
  -19.6838  -27.3254   20.6808 H   0  0  0  0  0  0
  -19.7000  -25.6348   21.1237 H   0  0  0  0  0  0
  -17.4314  -26.6686   21.3950 H   0  0  0  0  0  0
  -18.0417  -26.0164   22.9024 H   0  0  0  0  0  0
  -19.7980  -30.7297   24.2225 H   0  0  0  0  0  0
  -17.5036  -31.6269   24.5212 H   0  0  0  0  0  0
  -15.5408  -30.3010   23.7680 H   0  0  0  0  0  0
  -15.8641  -28.0918   22.7108 H   0  0  0  0  0  0
  -24.5908  -30.7054   25.7650 H   0  0  0  0  0  0
  -24.8836  -32.2867   26.4764 H   0  0  0  0  0  0
  -25.7955  -30.8896   27.0174 H   0  0  0  0  0  0
  -26.2867  -29.6766   24.1150 H   0  0  0  0  0  0
  -27.4099  -29.7345   25.4565 H   0  0  0  0  0  0
  -27.8692  -30.4365   23.9219 H   0  0  0  0  0  0
  -27.2739  -33.3635   26.2029 H   0  0  0  0  0  0
  -28.3876  -32.6818   25.0236 H   0  0  0  0  0  0
  -28.0725  -31.8393   26.5329 H   0  0  0  0  0  0
  -28.2631  -38.0065   24.7488 H   0  0  0  0  0  0
  -28.1038  -36.2603   24.6351 H   0  0  0  0  0  0
  -27.2272  -37.1533   25.8856 H   0  0  0  0  0  0
  -20.9365  -29.8492   21.6641 H   0  0  0  0  0  0
  -26.0186  -38.2865   24.1338 H   0  0  0  0  0  0
  -31.4641  -19.5521   21.3107 H   0  0  0  0  0  0
  -27.5516  -21.3869   21.1318 H   0  0  0  0  0  0
  -27.8964  -17.1066   21.2254 H   0  0  0  0  0  0
  -31.1737  -22.0218   20.5562 H   0  0  0  0  0  0
  -30.4832  -22.3733   22.1277 H   0  0  0  0  0  0
  -31.5511  -17.0572   20.8238 H   0  0  0  0  0  0
  -31.0480  -16.9310   22.4828 H   0  0  0  0  0  0
  -27.4555  -24.8100   20.1506 H   0  0  0  0  0  0
  -28.4438  -25.1776   18.7257 H   0  0  0  0  0  0
  -28.4861  -22.7660   20.1563 H   0  0  0  0  0  0
  -29.1848  -15.3578   21.6155 H   0  0  0  0  0  0
  1 25  1  0  0  0
  1 30  2  0  0  0
  1 82  1  0  0  0
  2  3  1  0  0  0
  2 25  1  0  0  0
  2 85  1  0  0  0
  2 86  1  0  0  0
  3  4  1  0  0  0
  3 87  1  0  0  0
  3 88  1  0  0  0
  4  5  1  0  0  0
  4 89  1  0  0  0
  4 90  1  0  0  0
  5  6  1  0  0  0
  5 26  1  0  0  0
  5 91  1  0  0  0
  6 25  1  0  0  0
  6 92  1  0  0  0
  6 93  1  0  0  0
  7  8  2  0  0  0
  7 26  1  0  0  0
  7 29  1  0  0  0
  8  9  1  0  0  0
  8 22  1  0  0  0
  9 10  1  0  0  0
  9 27  2  0  0  0
 10 11  2  0  0  0
 10 15  1  0  0  0
 11 12  1  0  0  0
 11 94  1  0  0  0
 12 13  2  0  0  0
 12 95  1  0  0  0
 13 14  1  0  0  0
 13 31  1  0  0  0
 14 15  2  0  0  0
 14 96  1  0  0  0
 15 97  1  0  0  0
 16 17  2  0  0  0
 16 21  1  0  0  0
 16 31  1  0  0  0
 17 18  1  0  0  0
 17 98  1  0  0  0
 18 19  2  0  0  0
 18 99  1  0  0  0
 19 20  1  0  0  0
 19 24  1  0  0  0
 20 21  2  0  0  0
 20100  1  0  0  0
 21 23  1  0  0  0
 22 28  1  0  0  0
 22 32  2  0  0  0
 26 27  1  0  0  0
 28101  1  0  0  0
 28102  1  0  0  0
 29103  1  0  0  0
 29104  1  0  0  0
 33 34  1  0  0  0
 33 66  1  0  0  0
 33 70  2  0  0  0
 34 36  1  0  0  0
 34 59  1  0  0  0
 34105  1  0  0  0
 35 44  2  0  0  0
 35 45  1  0  0  0
 35 68  1  0  0  0
 36 56  1  0  0  0
 36106  1  0  0  0
 37 39  1  0  0  0
 37 47  1  0  0  0
 37 66  1  0  0  0
 37107  1  0  0  0
 38 43  2  0  0  0
 38 46  1  0  0  0
 38 47  1  0  0  0
 39 64  1  0  0  0
 39 67  2  0  0  0
 40 52  1  0  0  0
 40 53  2  0  0  0
 40 58  1  0  0  0
 41108  1  0  0  0
 41109  1  0  0  0
 41110  1  0  0  0
 41 48  1  0  0  0
 42 43  1  0  0  0
 42 66  1  0  0  0
 42111  1  0  0  0
 42112  1  0  0  0
 43 44  1  0  0  0
 44113  1  0  0  0
 45 46  2  0  0  0
 45114  1  0  0  0
 46115  1  0  0  0
 47116  1  0  0  0
 47117  1  0  0  0
 48 56  1  0  0  0
 48 65  1  0  0  0
 48118  1  0  0  0
 49 50  1  0  0  0
 49 53  1  0  0  0
 49 64  1  0  0  0
 49119  1  0  0  0
 50 51  1  0  0  0
 50120  1  0  0  0
 50121  1  0  0  0
 51 52  1  0  0  0
 51122  1  0  0  0
 51123  1  0  0  0
 52124  1  0  0  0
 52125  1  0  0  0
 53 54  1  0  0  0
 54 55  2  0  0  0
 54126  1  0  0  0
 55 57  1  0  0  0
 55127  1  0  0  0
 56 69  2  0  0  0
 57 58  2  0  0  0
 57128  1  0  0  0
 58129  1  0  0  0
 59 60  1  0  0  0
 59 61  1  0  0  0
 59 62  1  0  0  0
 60130  1  0  0  0
 60131  1  0  0  0
 60132  1  0  0  0
 61133  1  0  0  0
 61134  1  0  0  0
 61135  1  0  0  0
 62136  1  0  0  0
 62137  1  0  0  0
 62138  1  0  0  0
 63 65  1  0  0  0
 63139  1  0  0  0
 63140  1  0  0  0
 63141  1  0  0  0
 64142  1  0  0  0
 65143  1  0  0  0
 68 80  1  0  0  0
 71 74  2  0  0  0
 71 75  1  0  0  0
 71144  1  0  0  0
 72 74  1  0  0  0
 72 76  2  0  0  0
 72145  1  0  0  0
 73 75  2  0  0  0
 73 76  1  0  0  0
 73146  1  0  0  0
 74 78  1  0  0  0
 75 79  1  0  0  0
 76 84  1  0  0  0
 77 80  1  0  0  0
 77 81  1  0  0  0
 77 83  2  0  0  0
 78 81  1  0  0  0
 78147  1  0  0  0
 78148  1  0  0  0
 79 82  1  0  0  0
 79149  1  0  0  0
 79150  1  0  0  0
 80151  1  0  0  0
 80152  1  0  0  0
 81153  1  0  0  0
 82154  1  0  0  0
M  ISO  4   1 100  68 101  80 101  82 100
M  END
> <chiral flag>
0

> <version>
0

> <s_m_source_file>
/data/baiqing/PycharmProjects/Reinvent-master-3.2/result/LINK_invent/BTK/process_docking_weight1_custom_product_contain_oxygen_bond_distance_aromatic_linkinvent_7_9_3/rearranged_h_0052.sdf

> <i_m_source_file_index>
67

> <r_mmod_Potential_Energy-OPLS-2005>
-183.763397216797

> <r_mmod_Stretch_Energy-OPLS-2005>
49.4899978637695

> <r_mmod_Bend_Energy-OPLS-2005>
106.697380065918

> <r_mmod_Torsional_Energy-OPLS-2005>
185.523025512695

> <r_mmod_Improper_Torsional_Energy-OPLS-2005>
2.89176940917969

> <r_mmod_Van_der_Waal_Energy-OPLS-2005>
149.292236328125

> <r_mmod_Electrostatic_Energy-OPLS-2005>
-450.223693847656

> <r_mmod_Solvation_Energy-OPLS-2005>
-245.730560302734

> <b_mmod_Minimization_Converged-OPLS-2005>
0

> <r_mmod_RMS_Derivative-OPLS-2005>
6.86665439605713

$$$$
67
                    3D
 Structure written by MMmdl.
164173  0  0  1  0            999 V2000
  -30.4803  -14.7796   20.5287 C   0  0  0  0  0  0
  -30.4666  -12.4954   19.4407 C   0  0  0  0  0  0
  -29.5159  -12.5484   18.2167 C   0  0  0  0  0  0
  -28.0384  -12.3541   18.6252 C   0  0  0  0  0  0
  -27.6529  -13.2071   19.8603 C   0  0  2  0  0  0
  -28.7079  -13.0306   20.9750 C   0  0  0  0  0  0
  -25.2549  -13.8114   20.5532 C   0  0  0  0  0  0
  -24.1835  -13.0412   20.9139 C   0  0  0  0  0  0
  -24.6405  -11.6881   20.8715 C   0  0  0  0  0  0
  -23.9048  -10.4292   21.0417 C   0  0  0  0  0  0
  -24.3597   -9.4224   21.9212 C   0  0  0  0  0  0
  -23.6275   -8.2263   22.0792 C   0  0  0  0  0  0
  -22.4265   -8.0293   21.3569 C   0  0  0  0  0  0
  -21.9891   -9.0261   20.4668 C   0  0  0  0  0  0
  -22.7210  -10.2147   20.3075 C   0  0  0  0  0  0
  -21.6864   -6.0731   22.5274 C   0  0  0  0  0  0
  -21.4024   -6.5640   23.8210 C   0  0  0  0  0  0
  -21.3644   -5.6789   24.9168 C   0  0  0  0  0  0
  -21.6035   -4.3056   24.7223 C   0  0  0  0  0  0
  -21.8816   -3.8149   23.4348 C   0  0  0  0  0  0
  -21.9203   -4.6959   22.3400 C   0  0  0  0  0  0
  -22.7860  -13.5241   21.1814 C   0  0  0  0  0  0
  -22.1670   -4.2136   21.0978 F   0  0  0  0  0  0
  -21.5616   -3.4550   25.7739 F   0  0  0  0  0  0
  -29.9919  -13.4900   20.4286 N   0  0  0  0  0  0
  -26.3004  -12.9277   20.3287 N   0  0  0  0  0  0
  -25.9334  -11.6450   20.5728 N   0  0  0  0  0  0
  -22.0438  -12.8263   22.0345 N   0  0  0  0  0  0
  -25.4158  -15.1815   20.3699 N   0  0  0  0  0  0
  -31.6404  -15.0317   20.1756 O   0  0  0  0  0  0
  -21.6672   -6.8863   21.4231 O   0  0  0  0  0  0
  -22.3549  -14.5544   20.6649 O   0  0  0  0  0  0
  -24.6299  -31.8525   23.1925 C   0  0  0  0  0  0
  -25.9125  -32.4735   23.8269 C   0  0  1  0  0  0
  -27.2382  -27.2616   20.1266 C   0  0  0  0  0  0
  -25.5937  -33.8531   24.2232 N   0  0  0  0  0  0
  -23.4237  -30.4713   21.5382 C   0  0  2  0  0  0
  -24.8721  -28.9094   20.1116 C   0  0  0  0  0  0
  -22.7479  -29.4581   22.4913 C   0  0  0  0  0  0
  -18.0273  -28.1394   22.8498 C   0  0  0  0  0  0
  -24.1476  -36.7262   23.2635 C   0  0  0  0  0  0
  -25.9637  -30.7747   21.3549 C   0  0  0  0  0  0
  -26.0415  -29.3896   20.7107 C   0  0  0  0  0  0
  -27.2201  -28.5802   20.7027 C   0  0  0  0  0  0
  -26.0279  -26.8283   19.5406 C   0  0  0  0  0  0
  -24.8715  -27.6367   19.5162 C   0  0  0  0  0  0
  -23.6390  -29.7921   20.1567 C   0  0  0  0  0  0
  -25.4102  -36.3058   24.0330 C   0  0  1  0  0  0
  -20.5876  -28.3694   23.1297 C   0  0  2  0  0  0
  -20.6757  -26.9411   22.5424 C   0  0  0  0  0  0
  -19.5731  -26.6408   21.5216 C   0  0  0  0  0  0
  -18.1915  -26.7934   22.1642 C   0  0  0  0  0  0
  -19.1525  -28.8857   23.2899 C   0  0  0  0  0  0
  -18.9454  -30.1456   23.8913 C   0  0  0  0  0  0
  -17.6457  -30.6593   24.0568 C   0  0  0  0  0  0
  -25.9059  -34.9433   23.5093 C   0  0  0  0  0  0
  -16.5350  -29.9096   23.6327 C   0  0  0  0  0  0
  -16.7262  -28.6516   23.0355 C   0  0  0  0  0  0
  -26.4518  -31.6533   25.0627 C   0  0  0  0  0  0
  -25.3739  -31.3670   26.1340 C   0  0  0  0  0  0
  -27.0325  -30.2962   24.6023 C   0  0  0  0  0  0
  -27.6092  -32.4232   25.7407 C   0  0  0  0  0  0
  -27.5564  -37.1774   24.8476 C   0  0  0  0  0  0
  -21.4185  -29.3039   22.3688 N   0  0  0  0  0  0
  -26.4271  -37.3766   23.9436 N   0  0  0  0  0  0
  -24.6940  -31.0482   22.0880 N   0  0  0  0  0  0
  -23.4194  -28.8102   23.2984 O   0  0  0  0  0  0
  -28.4002  -26.4504   20.1837 O   0  0  0  0  0  0
  -26.5626  -34.8925   22.4659 O   0  0  0  0  0  0
  -23.5469  -32.1316   23.7258 O   0  0  0  0  0  0
  -29.6574  -18.4461   20.6231 C   0  0  0  0  0  0
  -27.5931  -18.4751   22.5005 C   0  0  0  0  0  0
  -29.0666  -19.7472   21.0100 C   0  0  0  0  0  0
  -28.0054  -19.7022   21.9542 C   0  0  0  0  0  0
  -29.2258  -17.1586   21.1845 C   0  0  0  0  0  0
  -28.1906  -17.2567   22.1539 C   0  0  0  0  0  0
  -28.7065  -22.3396   18.4285 C   0  0  0  0  0  0
  -29.4778  -21.5771   17.6290 C   0  0  0  0  0  0
  -27.7364  -23.3922   17.9107 C   0  0  0  0  0  0
  -28.2477  -24.8102   18.2022 C   0  0  0  0  0  0
  -28.5076  -23.6864   20.5941 C   0  0  0  0  0  0
  -28.6193  -25.0350   19.6852 C   0  0  2  0  0  0
  -27.2804  -20.9498   22.4483 C   0  0  0  0  0  0
  -29.5955  -21.2154   20.6033 C   0  0  0  0  0  0
  -29.5025  -15.7198   20.8450 N   0  0  0  0  0  0
  -28.6750  -22.2780   19.9384 N   0  3  2  0  0  0
  -27.5205  -15.7254   23.0730 Br  0  0  0  0  0  0
  -31.4954  -12.6889   19.1356 H   0  0  0  0  0  0
  -30.4700  -11.4958   19.8780 H   0  0  0  0  0  0
  -29.8059  -11.7977   17.4807 H   0  0  0  0  0  0
  -29.6214  -13.5116   17.7157 H   0  0  0  0  0  0
  -27.8902  -11.2962   18.8432 H   0  0  0  0  0  0
  -27.3780  -12.5886   17.7879 H   0  0  0  0  0  0
  -27.6667  -14.2423   19.5212 H   0  0  0  0  0  0
  -28.7758  -11.9814   21.2679 H   0  0  0  0  0  0
  -28.4490  -13.5547   21.8880 H   0  0  0  0  0  0
  -25.2733   -9.5725   22.4786 H   0  0  0  0  0  0
  -24.0004   -7.4672   22.7507 H   0  0  0  0  0  0
  -21.0835   -8.8735   19.8964 H   0  0  0  0  0  0
  -22.3646  -10.9682   19.6184 H   0  0  0  0  0  0
  -21.2022   -7.6152   23.9709 H   0  0  0  0  0  0
  -21.1456   -6.0525   25.9062 H   0  0  0  0  0  0
  -22.0609   -2.7616   23.2855 H   0  0  0  0  0  0
  -22.4054  -11.9989   22.4837 H   0  0  0  0  0  0
  -21.1065  -13.1350   22.2482 H   0  0  0  0  0  0
  -24.6467  -15.8300   20.4944 H   0  0  0  0  0  0
  -26.2482  -15.6224   20.0035 H   0  0  0  0  0  0
  -26.7169  -32.5400   23.0998 H   0  0  0  0  0  0
  -25.0115  -33.9680   25.0399 H   0  0  0  0  0  0
  -22.7205  -31.2925   21.3892 H   0  0  0  0  0  0
  -23.3745  -35.9583   23.3284 H   0  0  0  0  0  0
  -24.3564  -36.8890   22.2051 H   0  0  0  0  0  0
  -23.7221  -37.6465   23.6648 H   0  0  0  0  0  0
  -26.0654  -31.5259   20.5691 H   0  0  0  0  0  0
  -26.8566  -30.8552   21.9634 H   0  0  0  0  0  0
  -28.1176  -28.9564   21.1732 H   0  0  0  0  0  0
  -25.9316  -25.8389   19.1235 H   0  0  0  0  0  0
  -23.9690  -27.2563   19.0597 H   0  0  0  0  0  0
  -23.7551  -30.5622   19.3940 H   0  0  0  0  0  0
  -22.7579  -29.2189   19.8588 H   0  0  0  0  0  0
  -25.1269  -36.1895   25.0817 H   0  0  0  0  0  0
  -20.9981  -28.3256   24.1411 H   0  0  0  0  0  0
  -20.5653  -26.2284   23.3623 H   0  0  0  0  0  0
  -21.6624  -26.7427   22.1214 H   0  0  0  0  0  0
  -19.6893  -25.6326   21.1217 H   0  0  0  0  0  0
  -19.6666  -27.3238   20.6763 H   0  0  0  0  0  0
  -17.4186  -26.6681   21.4052 H   0  0  0  0  0  0
  -18.0322  -26.0076   22.9039 H   0  0  0  0  0  0
  -19.7930  -30.7272   24.2290 H   0  0  0  0  0  0
  -17.5011  -31.6268   24.5175 H   0  0  0  0  0  0
  -15.5348  -30.3017   23.7638 H   0  0  0  0  0  0
  -15.8665  -28.0847   22.7065 H   0  0  0  0  0  0
  -24.5972  -30.6952   25.7661 H   0  0  0  0  0  0
  -24.8866  -32.2834   26.4684 H   0  0  0  0  0  0
  -25.8079  -30.8922   27.0151 H   0  0  0  0  0  0
  -26.2868  -29.6731   24.1076 H   0  0  0  0  0  0
  -27.4086  -29.7186   25.4481 H   0  0  0  0  0  0
  -27.8701  -30.4249   23.9157 H   0  0  0  0  0  0
  -27.2736  -33.3553   26.1960 H   0  0  0  0  0  0
  -28.3938  -32.6740   25.0246 H   0  0  0  0  0  0
  -28.0697  -31.8334   26.5354 H   0  0  0  0  0  0
  -28.2587  -38.0068   24.7532 H   0  0  0  0  0  0
  -28.1059  -36.2612   24.6272 H   0  0  0  0  0  0
  -27.2290  -37.1367   25.8880 H   0  0  0  0  0  0
  -20.9353  -29.8782   21.6921 H   0  0  0  0  0  0
  -26.0143  -38.2827   24.1483 H   0  0  0  0  0  0
  -30.4456  -18.4434   19.8866 H   0  0  0  0  0  0
  -26.7920  -18.4553   23.2283 H   0  0  0  0  0  0
  -29.4323  -21.7072   16.5565 H   0  0  0  0  0  0
  -30.1666  -20.8255   17.9817 H   0  0  0  0  0  0
  -26.7470  -23.2367   18.3434 H   0  0  0  0  0  0
  -27.6109  -23.2652   16.8340 H   0  0  0  0  0  0
  -27.5450  -25.5495   17.8323 H   0  0  0  0  0  0
  -29.1383  -24.9747   17.5935 H   0  0  0  0  0  0
  -29.1876  -23.7839   21.4380 H   0  0  0  0  0  0
  -27.5157  -23.6924   21.0436 H   0  0  0  0  0  0
  -29.7070  -25.0989   19.6235 H   0  0  0  0  0  0
  -27.9647  -21.7386   22.7625 H   0  0  0  0  0  0
  -26.6642  -20.7273   23.3194 H   0  0  0  0  0  0
  -26.6034  -21.3294   21.6830 H   0  0  0  0  0  0
  -30.5348  -21.1221   20.0608 H   0  0  0  0  0  0
  -29.9277  -21.6538   21.5446 H   0  0  0  0  0  0
  -28.6928  -15.1727   21.1027 H   0  0  0  0  0  0
  -27.7803  -21.8630   20.1566 H   0  0  0  0  0  0
  1 25  1  0  0  0
  1 30  2  0  0  0
  1 85  1  0  0  0
  2  3  1  0  0  0
  2 25  1  0  0  0
  2 88  1  0  0  0
  2 89  1  0  0  0
  3  4  1  0  0  0
  3 90  1  0  0  0
  3 91  1  0  0  0
  4  5  1  0  0  0
  4 92  1  0  0  0
  4 93  1  0  0  0
  5  6  1  0  0  0
  5 26  1  0  0  0
  5 94  1  0  0  0
  6 25  1  0  0  0
  6 95  1  0  0  0
  6 96  1  0  0  0
  7  8  2  0  0  0
  7 26  1  0  0  0
  7 29  1  0  0  0
  8  9  1  0  0  0
  8 22  1  0  0  0
  9 10  1  0  0  0
  9 27  2  0  0  0
 10 11  2  0  0  0
 10 15  1  0  0  0
 11 12  1  0  0  0
 11 97  1  0  0  0
 12 13  2  0  0  0
 12 98  1  0  0  0
 13 14  1  0  0  0
 13 31  1  0  0  0
 14 15  2  0  0  0
 14 99  1  0  0  0
 15100  1  0  0  0
 16 17  2  0  0  0
 16 21  1  0  0  0
 16 31  1  0  0  0
 17 18  1  0  0  0
 17101  1  0  0  0
 18 19  2  0  0  0
 18102  1  0  0  0
 19 20  1  0  0  0
 19 24  1  0  0  0
 20 21  2  0  0  0
 20103  1  0  0  0
 21 23  1  0  0  0
 22 28  1  0  0  0
 22 32  2  0  0  0
 26 27  1  0  0  0
 28104  1  0  0  0
 28105  1  0  0  0
 29106  1  0  0  0
 29107  1  0  0  0
 33 34  1  0  0  0
 33 66  1  0  0  0
 33 70  2  0  0  0
 34 36  1  0  0  0
 34 59  1  0  0  0
 34108  1  0  0  0
 35 44  2  0  0  0
 35 45  1  0  0  0
 35 68  1  0  0  0
 36 56  1  0  0  0
 36109  1  0  0  0
 37 39  1  0  0  0
 37 47  1  0  0  0
 37 66  1  0  0  0
 37110  1  0  0  0
 38 43  2  0  0  0
 38 46  1  0  0  0
 38 47  1  0  0  0
 39 64  1  0  0  0
 39 67  2  0  0  0
 40 52  1  0  0  0
 40 53  2  0  0  0
 40 58  1  0  0  0
 41111  1  0  0  0
 41112  1  0  0  0
 41113  1  0  0  0
 41 48  1  0  0  0
 42 43  1  0  0  0
 42 66  1  0  0  0
 42114  1  0  0  0
 42115  1  0  0  0
 43 44  1  0  0  0
 44116  1  0  0  0
 45 46  2  0  0  0
 45117  1  0  0  0
 46118  1  0  0  0
 47119  1  0  0  0
 47120  1  0  0  0
 48 56  1  0  0  0
 48 65  1  0  0  0
 48121  1  0  0  0
 49 50  1  0  0  0
 49 53  1  0  0  0
 49 64  1  0  0  0
 49122  1  0  0  0
 50 51  1  0  0  0
 50123  1  0  0  0
 50124  1  0  0  0
 51 52  1  0  0  0
 51125  1  0  0  0
 51126  1  0  0  0
 52127  1  0  0  0
 52128  1  0  0  0
 53 54  1  0  0  0
 54 55  2  0  0  0
 54129  1  0  0  0
 55 57  1  0  0  0
 55130  1  0  0  0
 56 69  2  0  0  0
 57 58  2  0  0  0
 57131  1  0  0  0
 58132  1  0  0  0
 59 60  1  0  0  0
 59 61  1  0  0  0
 59 62  1  0  0  0
 60133  1  0  0  0
 60134  1  0  0  0
 60135  1  0  0  0
 61136  1  0  0  0
 61137  1  0  0  0
 61138  1  0  0  0
 62139  1  0  0  0
 62140  1  0  0  0
 62141  1  0  0  0
 63 65  1  0  0  0
 63142  1  0  0  0
 63143  1  0  0  0
 63144  1  0  0  0
 64145  1  0  0  0
 65146  1  0  0  0
 68 82  1  0  0  0
 71 73  2  0  0  0
 71 75  1  0  0  0
 71147  1  0  0  0
 72 74  2  0  0  0
 72 76  1  0  0  0
 72148  1  0  0  0
 73 74  1  0  0  0
 73 84  1  0  0  0
 74 83  1  0  0  0
 75 76  2  0  0  0
 75 85  1  0  0  0
 76 87  1  0  0  0
 77 78  2  0  0  0
 77 79  1  0  0  0
 77 86  1  0  0  0
 78149  1  0  0  0
 78150  1  0  0  0
 79 80  1  0  0  0
 79151  1  0  0  0
 79152  1  0  0  0
 80 82  1  0  0  0
 80153  1  0  0  0
 80154  1  0  0  0
 81 82  1  0  0  0
 81 86  1  0  0  0
 81155  1  0  0  0
 81156  1  0  0  0
 82157  1  0  0  0
 83158  1  0  0  0
 83159  1  0  0  0
 83160  1  0  0  0
 84161  1  0  0  0
 84162  1  0  0  0
 84 86  1  0  0  0
 85163  1  0  0  0
 86164  1  0  0  0
M  CHG  1  86   1
M  ISO  4   1 100  68 101  82 101  85 100
M  END
> <chiral flag>
0

> <version>
0

> <s_m_source_file>
/data/baiqing/PycharmProjects/Reinvent-master-3.2/result/LINK_invent/BTK/process_docking_weight1_custom_product_contain_oxygen_bond_distance_aromatic_linkinvent_7_9_3/rearranged_h_0052.sdf

> <i_m_source_file_index>
68

> <r_mmod_Potential_Energy-OPLS-2005>
255.968017578125

> <r_mmod_Stretch_Energy-OPLS-2005>
158.342391967773

> <r_mmod_Bend_Energy-OPLS-2005>
312.823150634766

> <r_mmod_Torsional_Energy-OPLS-2005>
255.918075561523

> <r_mmod_Improper_Torsional_Energy-OPLS-2005>
6.88545799255371

> <r_mmod_Van_der_Waal_Energy-OPLS-2005>
142.900497436523

> <r_mmod_Electrostatic_Energy-OPLS-2005>
-285.978820800781

> <r_mmod_Solvation_Energy-OPLS-2005>
-428.862731933594

> <b_mmod_Minimization_Converged-OPLS-2005>
0

> <r_mmod_RMS_Derivative-OPLS-2005>
3.55922985076904

$$$$
68
                    3D
 Structure written by MMmdl.
167176  0  0  1  0            999 V2000
  -30.6775  -14.4891   20.6090 C   0  0  0  0  0  0
  -30.4310  -12.3318   19.4253 C   0  0  0  0  0  0
  -29.5017  -12.5303   18.2095 C   0  0  0  0  0  0
  -28.0191  -12.3836   18.6102 C   0  0  0  0  0  0
  -27.6599  -13.2094   19.8768 C   0  0  2  0  0  0
  -28.6995  -12.9734   20.9977 C   0  0  0  0  0  0
  -25.2506  -13.8080   20.5558 C   0  0  0  0  0  0
  -24.1829  -13.0389   20.9190 C   0  0  0  0  0  0
  -24.6402  -11.6863   20.8752 C   0  0  0  0  0  0
  -23.9079  -10.4263   21.0418 C   0  0  0  0  0  0
  -24.3609   -9.4178   21.9205 C   0  0  0  0  0  0
  -23.6278   -8.2217   22.0757 C   0  0  0  0  0  0
  -22.4262   -8.0263   21.3546 C   0  0  0  0  0  0
  -21.9911   -9.0249   20.4653 C   0  0  0  0  0  0
  -22.7244  -10.2125   20.3078 C   0  0  0  0  0  0
  -21.6841   -6.0738   22.5299 C   0  0  0  0  0  0
  -21.3987   -6.5641   23.8232 C   0  0  0  0  0  0
  -21.3659   -5.6794   24.9197 C   0  0  0  0  0  0
  -21.6045   -4.3060   24.7239 C   0  0  0  0  0  0
  -21.8815   -3.8150   23.4359 C   0  0  0  0  0  0
  -21.9177   -4.6966   22.3413 C   0  0  0  0  0  0
  -22.7857  -13.5202   21.1849 C   0  0  0  0  0  0
  -22.1656   -4.2157   21.0992 F   0  0  0  0  0  0
  -21.5638   -3.4536   25.7749 F   0  0  0  0  0  0
  -30.0306  -13.3005   20.4581 N   0  0  0  0  0  0
  -26.2999  -12.9306   20.3317 N   0  0  0  0  0  0
  -25.9331  -11.6472   20.5786 N   0  0  0  0  0  0
  -22.0455  -12.8280   22.0425 N   0  0  0  0  0  0
  -25.4028  -15.1763   20.3692 N   0  0  0  0  0  0
  -31.7910  -14.6932   20.1140 O   0  0  0  0  0  0
  -21.6626   -6.8862   21.4250 O   0  0  0  0  0  0
  -22.3567  -14.5487   20.6620 O   0  0  0  0  0  0
  -24.6145  -31.8631   23.2117 C   0  0  0  0  0  0
  -25.9029  -32.4817   23.8426 C   0  0  1  0  0  0
  -27.2381  -27.4234   20.0914 C   0  0  0  0  0  0
  -25.5896  -33.8619   24.2347 N   0  0  0  0  0  0
  -23.4023  -30.4885   21.5519 C   0  0  2  0  0  0
  -24.8494  -28.9511   20.1164 C   0  0  0  0  0  0
  -22.7368  -29.4648   22.4996 C   0  0  0  0  0  0
  -18.0224  -28.1321   22.8465 C   0  0  0  0  0  0
  -24.1479  -36.7317   23.2644 C   0  0  0  0  0  0
  -25.9318  -30.8273   21.3635 C   0  0  0  0  0  0
  -26.0077  -29.4597   20.7155 C   0  0  0  0  0  0
  -27.2011  -28.6988   20.7034 C   0  0  0  0  0  0
  -26.0557  -26.9299   19.4901 C   0  0  0  0  0  0
  -24.8669  -27.6843   19.5069 C   0  0  0  0  0  0
  -23.6116  -29.8210   20.1656 C   0  0  0  0  0  0
  -25.4092  -36.3114   24.0348 C   0  0  1  0  0  0
  -20.5805  -28.3665   23.1299 C   0  0  2  0  0  0
  -20.6703  -26.9421   22.5345 C   0  0  0  0  0  0
  -19.5685  -26.6432   21.5135 C   0  0  0  0  0  0
  -18.1866  -26.7897   22.1566 C   0  0  0  0  0  0
  -19.1454  -28.8794   23.2918 C   0  0  0  0  0  0
  -18.9330  -30.1379   23.8960 C   0  0  0  0  0  0
  -17.6308  -30.6476   24.0583 C   0  0  0  0  0  0
  -25.9017  -34.9483   23.5145 C   0  0  0  0  0  0
  -16.5221  -29.8985   23.6237 C   0  0  0  0  0  0
  -16.7193  -28.6421   23.0251 C   0  0  0  0  0  0
  -26.4465  -31.6605   25.0749 C   0  0  0  0  0  0
  -25.3773  -31.3656   26.1529 C   0  0  0  0  0  0
  -27.0278  -30.3049   24.6110 C   0  0  0  0  0  0
  -27.6049  -32.4332   25.7500 C   0  0  0  0  0  0
  -27.5580  -37.1814   24.8476 C   0  0  0  0  0  0
  -21.4073  -29.3051   22.3708 N   0  0  0  0  0  0
  -26.4293  -37.3795   23.9417 N   0  0  0  0  0  0
  -24.6680  -31.0747   22.1012 N   0  0  0  0  0  0
  -23.4102  -28.8126   23.3032 O   0  0  0  0  0  0
  -28.4270  -26.7187   20.1185 O   0  0  0  0  0  0
  -26.5590  -34.8934   22.4699 O   0  0  0  0  0  0
  -23.5339  -32.1380   23.7494 O   0  0  0  0  0  0
  -30.5014  -19.6879   21.3307 C   0  0  0  0  0  0
  -31.4470  -17.4436   21.2373 C   0  0  0  0  0  0
  -31.6204  -18.8398   21.2587 C   0  0  0  0  0  0
  -29.1985  -19.1581   21.4285 C   0  0  0  0  0  0
  -29.0274  -17.7423   21.4280 C   0  0  0  0  0  0
  -30.1528  -16.8724   21.2857 C   0  0  0  0  0  0
  -28.4407  -22.5367   21.9657 C   0  0  0  0  0  0
  -28.7028  -23.9442   21.3918 C   0  0  0  0  0  0
  -28.4241  -22.9973   19.0973 C   0  0  0  0  0  0
  -27.8873  -21.6872   19.6945 C   0  0  0  0  0  0
  -28.0953  -24.2024   19.9966 C   0  0  1  0  0  0
  -33.0116  -19.4405   21.2166 C   0  0  0  0  0  0
  -27.6210  -17.1812   21.6014 C   0  0  0  0  0  0
  -27.9996  -20.1154   21.5900 C   0  0  0  0  0  0
  -28.5973  -25.5220   19.3436 C   0  0  0  0  0  0
  -28.1915  -21.5049   21.1196 N   0  0  0  0  0  0
  -29.9612  -15.4475   21.2428 N   0  0  0  0  0  0
  -28.5111  -22.3907   23.1886 O   0  0  0  0  0  0
  -31.4731  -12.4523   19.1208 H   0  0  0  0  0  0
  -30.3517  -11.3147   19.8114 H   0  0  0  0  0  0
  -29.7531  -11.8208   17.4204 H   0  0  0  0  0  0
  -29.6665  -13.5203   17.7852 H   0  0  0  0  0  0
  -27.8117  -11.3252   18.7793 H   0  0  0  0  0  0
  -27.3843  -12.6881   17.7752 H   0  0  0  0  0  0
  -27.7040  -14.2603   19.5885 H   0  0  0  0  0  0
  -28.6911  -11.9273   21.3044 H   0  0  0  0  0  0
  -28.4538  -13.5385   21.8970 H   0  0  0  0  0  0
  -25.2732   -9.5650   22.4810 H   0  0  0  0  0  0
  -23.9983   -7.4594   22.7468 H   0  0  0  0  0  0
  -21.0852   -8.8775   19.8929 H   0  0  0  0  0  0
  -22.3707  -10.9678   19.6198 H   0  0  0  0  0  0
  -21.1965   -7.6143   23.9741 H   0  0  0  0  0  0
  -21.1492   -6.0524   25.9112 H   0  0  0  0  0  0
  -22.0585   -2.7608   23.2864 H   0  0  0  0  0  0
  -22.4017  -11.9945   22.4857 H   0  0  0  0  0  0
  -21.1044  -13.1309   22.2489 H   0  0  0  0  0  0
  -24.6054  -15.8017   20.4299 H   0  0  0  0  0  0
  -26.2216  -15.6086   19.9652 H   0  0  0  0  0  0
  -26.7100  -32.5514   23.1207 H   0  0  0  0  0  0
  -25.0096  -33.9785   25.0531 H   0  0  0  0  0  0
  -22.6906  -31.3048   21.4117 H   0  0  0  0  0  0
  -23.3743  -35.9657   23.3312 H   0  0  0  0  0  0
  -24.3587  -36.8912   22.2064 H   0  0  0  0  0  0
  -23.7244  -37.6532   23.6633 H   0  0  0  0  0  0
  -26.0456  -31.5912   20.5926 H   0  0  0  0  0  0
  -26.8209  -30.8831   21.9795 H   0  0  0  0  0  0
  -28.0981  -29.0864   21.1674 H   0  0  0  0  0  0
  -26.0286  -25.9639   19.0097 H   0  0  0  0  0  0
  -23.9753  -27.2812   19.0451 H   0  0  0  0  0  0
  -23.7258  -30.5967   19.4077 H   0  0  0  0  0  0
  -22.7335  -29.2443   19.8666 H   0  0  0  0  0  0
  -25.1265  -36.1993   25.0849 H   0  0  0  0  0  0
  -20.9900  -28.3193   24.1431 H   0  0  0  0  0  0
  -20.5631  -26.2244   23.3496 H   0  0  0  0  0  0
  -21.6583  -26.7523   22.1157 H   0  0  0  0  0  0
  -19.6913  -25.6389   21.1032 H   0  0  0  0  0  0
  -19.6541  -27.3341   20.6729 H   0  0  0  0  0  0
  -17.4131  -26.6693   21.3940 H   0  0  0  0  0  0
  -18.0314  -26.0015   22.8924 H   0  0  0  0  0  0
  -19.7777  -30.7210   24.2353 H   0  0  0  0  0  0
  -17.4769  -31.6124   24.5217 H   0  0  0  0  0  0
  -15.5188  -30.2810   23.7498 H   0  0  0  0  0  0
  -15.8653  -28.0723   22.6838 H   0  0  0  0  0  0
  -24.5980  -30.6950   25.7891 H   0  0  0  0  0  0
  -24.8931  -32.2770   26.5041 H   0  0  0  0  0  0
  -25.8203  -30.8827   27.0256 H   0  0  0  0  0  0
  -26.2791  -29.6841   24.1180 H   0  0  0  0  0  0
  -27.4046  -29.7263   25.4559 H   0  0  0  0  0  0
  -27.8641  -30.4354   23.9239 H   0  0  0  0  0  0
  -27.2671  -33.3631   26.2098 H   0  0  0  0  0  0
  -28.3853  -32.6905   25.0321 H   0  0  0  0  0  0
  -28.0738  -31.8460   26.5415 H   0  0  0  0  0  0
  -28.2607  -38.0099   24.7504 H   0  0  0  0  0  0
  -28.1060  -36.2637   24.6307 H   0  0  0  0  0  0
  -27.2307  -37.1482   25.8883 H   0  0  0  0  0  0
  -20.9251  -29.8747   21.6884 H   0  0  0  0  0  0
  -26.0182  -38.2880   24.1402 H   0  0  0  0  0  0
  -30.6571  -20.7566   21.3455 H   0  0  0  0  0  0
  -32.3274  -16.8181   21.1992 H   0  0  0  0  0  0
  -29.7826  -24.0754   21.3503 H   0  0  0  0  0  0
  -28.3278  -24.6856   22.0991 H   0  0  0  0  0  0
  -28.0097  -23.1294   18.0984 H   0  0  0  0  0  0
  -29.5054  -22.9114   18.9704 H   0  0  0  0  0  0
  -28.2731  -20.8389   19.1247 H   0  0  0  0  0  0
  -26.8017  -21.6696   19.5908 H   0  0  0  0  0  0
  -27.0138  -24.2597   20.1060 H   0  0  0  0  0  0
  -33.0543  -20.3580   21.8039 H   0  0  0  0  0  0
  -33.2932  -19.6736   20.1897 H   0  0  0  0  0  0
  -33.7558  -18.7564   21.6275 H   0  0  0  0  0  0
  -27.5850  -16.0957   21.6611 H   0  0  0  0  0  0
  -26.9842  -17.4798   20.7681 H   0  0  0  0  0  0
  -27.1811  -17.5575   22.5243 H   0  0  0  0  0  0
  -27.7106  -20.1076   22.6412 H   0  0  0  0  0  0
  -27.1298  -19.7183   21.0641 H   0  0  0  0  0  0
  -28.1812  -25.6558   18.3425 H   0  0  0  0  0  0
  -29.6713  -25.4235   19.1806 H   0  0  0  0  0  0
  -29.0589  -15.1274   21.5586 H   0  0  0  0  0  0
  1 25  1  0  0  0
  1 30  2  0  0  0
  1 87  1  0  0  0
  2  3  1  0  0  0
  2 25  1  0  0  0
  2 89  1  0  0  0
  2 90  1  0  0  0
  3  4  1  0  0  0
  3 91  1  0  0  0
  3 92  1  0  0  0
  4  5  1  0  0  0
  4 93  1  0  0  0
  4 94  1  0  0  0
  5  6  1  0  0  0
  5 26  1  0  0  0
  5 95  1  0  0  0
  6 25  1  0  0  0
  6 96  1  0  0  0
  6 97  1  0  0  0
  7  8  2  0  0  0
  7 26  1  0  0  0
  7 29  1  0  0  0
  8  9  1  0  0  0
  8 22  1  0  0  0
  9 10  1  0  0  0
  9 27  2  0  0  0
 10 11  2  0  0  0
 10 15  1  0  0  0
 11 12  1  0  0  0
 11 98  1  0  0  0
 12 13  2  0  0  0
 12 99  1  0  0  0
 13 14  1  0  0  0
 13 31  1  0  0  0
 14 15  2  0  0  0
 14100  1  0  0  0
 15101  1  0  0  0
 16 17  2  0  0  0
 16 21  1  0  0  0
 16 31  1  0  0  0
 17 18  1  0  0  0
 17102  1  0  0  0
 18 19  2  0  0  0
 18103  1  0  0  0
 19 20  1  0  0  0
 19 24  1  0  0  0
 20 21  2  0  0  0
 20104  1  0  0  0
 21 23  1  0  0  0
 22 28  1  0  0  0
 22 32  2  0  0  0
 26 27  1  0  0  0
 28105  1  0  0  0
 28106  1  0  0  0
 29107  1  0  0  0
 29108  1  0  0  0
 33 34  1  0  0  0
 33 66  1  0  0  0
 33 70  2  0  0  0
 34 36  1  0  0  0
 34 59  1  0  0  0
 34109  1  0  0  0
 35 44  2  0  0  0
 35 45  1  0  0  0
 35 68  1  0  0  0
 36 56  1  0  0  0
 36110  1  0  0  0
 37 39  1  0  0  0
 37 47  1  0  0  0
 37 66  1  0  0  0
 37111  1  0  0  0
 38 43  2  0  0  0
 38 46  1  0  0  0
 38 47  1  0  0  0
 39 64  1  0  0  0
 39 67  2  0  0  0
 40 52  1  0  0  0
 40 53  2  0  0  0
 40 58  1  0  0  0
 41112  1  0  0  0
 41113  1  0  0  0
 41114  1  0  0  0
 41 48  1  0  0  0
 42 43  1  0  0  0
 42 66  1  0  0  0
 42115  1  0  0  0
 42116  1  0  0  0
 43 44  1  0  0  0
 44117  1  0  0  0
 45 46  2  0  0  0
 45118  1  0  0  0
 46119  1  0  0  0
 47120  1  0  0  0
 47121  1  0  0  0
 48 56  1  0  0  0
 48 65  1  0  0  0
 48122  1  0  0  0
 49 50  1  0  0  0
 49 53  1  0  0  0
 49 64  1  0  0  0
 49123  1  0  0  0
 50 51  1  0  0  0
 50124  1  0  0  0
 50125  1  0  0  0
 51 52  1  0  0  0
 51126  1  0  0  0
 51127  1  0  0  0
 52128  1  0  0  0
 52129  1  0  0  0
 53 54  1  0  0  0
 54 55  2  0  0  0
 54130  1  0  0  0
 55 57  1  0  0  0
 55131  1  0  0  0
 56 69  2  0  0  0
 57 58  2  0  0  0
 57132  1  0  0  0
 58133  1  0  0  0
 59 60  1  0  0  0
 59 61  1  0  0  0
 59 62  1  0  0  0
 60134  1  0  0  0
 60135  1  0  0  0
 60136  1  0  0  0
 61137  1  0  0  0
 61138  1  0  0  0
 61139  1  0  0  0
 62140  1  0  0  0
 62141  1  0  0  0
 62142  1  0  0  0
 63 65  1  0  0  0
 63143  1  0  0  0
 63144  1  0  0  0
 63145  1  0  0  0
 64146  1  0  0  0
 65147  1  0  0  0
 68 85  1  0  0  0
 71 73  2  0  0  0
 71 74  1  0  0  0
 71148  1  0  0  0
 72 73  1  0  0  0
 72 76  2  0  0  0
 72149  1  0  0  0
 73 82  1  0  0  0
 74 75  2  0  0  0
 74 84  1  0  0  0
 75 76  1  0  0  0
 75 83  1  0  0  0
 76 87  1  0  0  0
 77 78  1  0  0  0
 77 86  1  0  0  0
 77 88  2  0  0  0
 78 81  1  0  0  0
 78150  1  0  0  0
 78151  1  0  0  0
 79 80  1  0  0  0
 79 81  1  0  0  0
 79152  1  0  0  0
 79153  1  0  0  0
 80 86  1  0  0  0
 80154  1  0  0  0
 80155  1  0  0  0
 81 85  1  0  0  0
 81156  1  0  0  0
 82157  1  0  0  0
 82158  1  0  0  0
 82159  1  0  0  0
 83160  1  0  0  0
 83161  1  0  0  0
 83162  1  0  0  0
 84 86  1  0  0  0
 84163  1  0  0  0
 84164  1  0  0  0
 85165  1  0  0  0
 85166  1  0  0  0
 87167  1  0  0  0
M  ISO  4   1 100  68 101  85 101  87 100
M  END
> <chiral flag>
0

> <version>
0

> <s_m_source_file>
/data/baiqing/PycharmProjects/Reinvent-master-3.2/result/LINK_invent/BTK/process_docking_weight1_custom_product_contain_oxygen_bond_distance_aromatic_linkinvent_7_9_3/rearranged_h_0052.sdf

> <i_m_source_file_index>
69

> <r_mmod_Potential_Energy-OPLS-2005>
-65.7378616333008

> <r_mmod_Stretch_Energy-OPLS-2005>
44.5725326538086

> <r_mmod_Bend_Energy-OPLS-2005>
114.605430603027

> <r_mmod_Torsional_Energy-OPLS-2005>
221.873657226562

> <r_mmod_Improper_Torsional_Energy-OPLS-2005>
4.25312852859497

> <r_mmod_Van_der_Waal_Energy-OPLS-2005>
168.839721679688

> <r_mmod_Electrostatic_Energy-OPLS-2005>
-409.402435302734

> <r_mmod_Solvation_Energy-OPLS-2005>
-224.454544067383

> <b_mmod_Minimization_Converged-OPLS-2005>
0

> <r_mmod_RMS_Derivative-OPLS-2005>
4.35209035873413

$$$$
69
                    3D
 Structure written by MMmdl.
161170  0  0  1  0            999 V2000
  -30.6499  -14.6256   20.4958 C   0  0  0  0  0  0
  -30.4251  -12.3800   19.4576 C   0  0  0  0  0  0
  -29.5044  -12.5036   18.2248 C   0  0  0  0  0  0
  -28.0266  -12.3472   18.6341 C   0  0  0  0  0  0
  -27.6496  -13.2211   19.8607 C   0  0  2  0  0  0
  -28.6933  -13.0905   20.9934 C   0  0  0  0  0  0
  -25.2537  -13.8178   20.5681 C   0  0  0  0  0  0
  -24.1811  -13.0437   20.9193 C   0  0  0  0  0  0
  -24.6391  -11.6911   20.8735 C   0  0  0  0  0  0
  -23.9066  -10.4293   21.0401 C   0  0  0  0  0  0
  -24.3619   -9.4206   21.9174 C   0  0  0  0  0  0
  -23.6299   -8.2240   22.0749 C   0  0  0  0  0  0
  -22.4280   -8.0276   21.3542 C   0  0  0  0  0  0
  -21.9913   -9.0249   20.4641 C   0  0  0  0  0  0
  -22.7241  -10.2129   20.3052 C   0  0  0  0  0  0
  -21.6856   -6.0733   22.5279 C   0  0  0  0  0  0
  -21.4014   -6.5641   23.8209 C   0  0  0  0  0  0
  -21.3657   -5.6795   24.9171 C   0  0  0  0  0  0
  -21.6042   -4.3057   24.7221 C   0  0  0  0  0  0
  -21.8819   -3.8148   23.4344 C   0  0  0  0  0  0
  -21.9191   -4.6962   22.3399 C   0  0  0  0  0  0
  -22.7833  -13.5222   21.1853 C   0  0  0  0  0  0
  -22.1660   -4.2149   21.0977 F   0  0  0  0  0  0
  -21.5627   -3.4538   25.7733 F   0  0  0  0  0  0
  -30.0091  -13.4161   20.4246 N   0  0  0  0  0  0
  -26.2965  -12.9369   20.3309 N   0  0  0  0  0  0
  -25.9320  -11.6520   20.5754 N   0  0  0  0  0  0
  -22.0476  -12.8220   22.0412 N   0  0  0  0  0  0
  -25.4247  -15.1895   20.4072 N   0  0  0  0  0  0
  -31.8104  -14.7380   20.0959 O   0  0  0  0  0  0
  -21.6644   -6.8876   21.4243 O   0  0  0  0  0  0
  -22.3519  -14.5529   20.6697 O   0  0  0  0  0  0
  -24.6243  -31.8611   23.2040 C   0  0  0  0  0  0
  -25.9099  -32.4785   23.8362 C   0  0  1  0  0  0
  -27.2205  -27.3300   20.1140 C   0  0  0  0  0  0
  -25.5925  -33.8587   24.2291 N   0  0  0  0  0  0
  -23.4168  -30.4843   21.5466 C   0  0  2  0  0  0
  -24.8622  -28.9399   20.1111 C   0  0  0  0  0  0
  -22.7462  -29.4627   22.4951 C   0  0  0  0  0  0
  -18.0281  -28.1381   22.8488 C   0  0  0  0  0  0
  -24.1492  -36.7290   23.2639 C   0  0  0  0  0  0
  -25.9568  -30.7933   21.3750 C   0  0  0  0  0  0
  -26.0297  -29.4224   20.7156 C   0  0  0  0  0  0
  -27.2121  -28.6280   20.7076 C   0  0  0  0  0  0
  -26.0355  -26.9017   19.4755 C   0  0  0  0  0  0
  -24.8661  -27.6849   19.4825 C   0  0  0  0  0  0
  -23.6299  -29.8186   20.1618 C   0  0  0  0  0  0
  -25.4116  -36.3087   24.0333 C   0  0  1  0  0  0
  -20.5879  -28.3681   23.1294 C   0  0  2  0  0  0
  -20.6773  -26.9408   22.5413 C   0  0  0  0  0  0
  -19.5753  -26.6382   21.5213 C   0  0  0  0  0  0
  -18.1931  -26.7926   22.1621 C   0  0  0  0  0  0
  -19.1531  -28.8847   23.2886 C   0  0  0  0  0  0
  -18.9456  -30.1450   23.8900 C   0  0  0  0  0  0
  -17.6456  -30.6586   24.0561 C   0  0  0  0  0  0
  -25.9050  -34.9456   23.5110 C   0  0  0  0  0  0
  -16.5347  -29.9081   23.6331 C   0  0  0  0  0  0
  -16.7269  -28.6497   23.0357 C   0  0  0  0  0  0
  -26.4489  -31.6592   25.0728 C   0  0  0  0  0  0
  -25.3725  -31.3722   26.1455 C   0  0  0  0  0  0
  -27.0338  -30.3021   24.6178 C   0  0  0  0  0  0
  -27.6055  -32.4324   25.7491 C   0  0  0  0  0  0
  -27.5580  -37.1803   24.8463 C   0  0  0  0  0  0
  -21.4177  -29.3035   22.3689 N   0  0  0  0  0  0
  -26.4296  -37.3778   23.9403 N   0  0  0  0  0  0
  -24.6845  -31.0629   22.0987 N   0  0  0  0  0  0
  -23.4193  -28.8170   23.3027 O   0  0  0  0  0  0
  -28.3484  -26.5014   20.1597 O   0  0  0  0  0  0
  -26.5614  -34.8919   22.4675 O   0  0  0  0  0  0
  -23.5412  -32.1408   23.7374 O   0  0  0  0  0  0
  -30.7826  -19.9712   20.8139 C   0  0  0  0  0  0
  -31.7670  -19.0148   21.1407 C   0  0  0  0  0  0
  -29.2032  -18.1458   20.5058 C   0  0  0  0  0  0
  -29.4670  -19.5644   20.5125 C   0  0  0  0  0  0
  -30.1991  -17.1484   20.8014 C   0  0  0  0  0  0
  -31.4845  -17.6321   21.1599 C   0  0  0  0  0  0
  -29.0637  -22.8287   18.9879 C   0  0  0  0  0  0
  -29.9199  -22.2284   18.1417 C   0  0  0  0  0  0
  -28.6224  -24.3188   18.8859 C   0  0  0  0  0  0
  -28.9854  -24.3653   21.3536 C   0  0  0  0  0  0
  -28.7619  -22.8123   21.4869 C   0  0  0  0  0  0
  -28.1844  -25.0289   20.2049 C   0  0  1  0  0  0
  -28.3251  -20.5979   20.1981 C   0  0  0  0  0  0
  -29.8759  -15.7172   20.8034 N   0  0  0  0  0  0
  -28.4918  -22.1188   20.1906 N   0  3  2  0  0  0
  -32.4607  -16.7926   21.5769 F   0  0  0  0  0  0
  -31.4709  -12.4786   19.1605 H   0  0  0  0  0  0
  -30.3375  -11.3883   19.9044 H   0  0  0  0  0  0
  -29.7695  -11.7527   17.4796 H   0  0  0  0  0  0
  -29.6528  -13.4738   17.7483 H   0  0  0  0  0  0
  -27.8602  -11.2948   18.8662 H   0  0  0  0  0  0
  -27.3747  -12.5778   17.7911 H   0  0  0  0  0  0
  -27.6642  -14.2549   19.5146 H   0  0  0  0  0  0
  -28.6980  -12.0764   21.3959 H   0  0  0  0  0  0
  -28.4450  -13.7440   21.8310 H   0  0  0  0  0  0
  -25.2760   -9.5686   22.4751 H   0  0  0  0  0  0
  -24.0006   -7.4634   22.7476 H   0  0  0  0  0  0
  -21.0839   -8.8766   19.8957 H   0  0  0  0  0  0
  -22.3692  -10.9663   19.6164 H   0  0  0  0  0  0
  -21.2018   -7.6151   23.9718 H   0  0  0  0  0  0
  -21.1476   -6.0520   25.9074 H   0  0  0  0  0  0
  -22.0603   -2.7614   23.2841 H   0  0  0  0  0  0
  -22.4097  -11.9886   22.4803 H   0  0  0  0  0  0
  -21.1088  -13.1241   22.2607 H   0  0  0  0  0  0
  -24.6556  -15.8430   20.5076 H   0  0  0  0  0  0
  -26.2658  -15.6221   20.0495 H   0  0  0  0  0  0
  -26.7162  -32.5457   23.1104 H   0  0  0  0  0  0
  -25.0087  -33.9740   25.0445 H   0  0  0  0  0  0
  -22.7096  -31.3041   21.4047 H   0  0  0  0  0  0
  -23.3760  -35.9617   23.3305 H   0  0  0  0  0  0
  -24.3579  -36.8905   22.2050 H   0  0  0  0  0  0
  -23.7239  -37.6492   23.6656 H   0  0  0  0  0  0
  -26.0899  -31.5585   20.6090 H   0  0  0  0  0  0
  -26.8368  -30.8385   22.0051 H   0  0  0  0  0  0
  -28.1086  -28.9919   21.1899 H   0  0  0  0  0  0
  -25.9939  -25.9505   18.9662 H   0  0  0  0  0  0
  -23.9725  -27.3143   18.9994 H   0  0  0  0  0  0
  -23.7470  -30.5946   19.4045 H   0  0  0  0  0  0
  -22.7507  -29.2460   19.8618 H   0  0  0  0  0  0
  -25.1299  -36.1943   25.0827 H   0  0  0  0  0  0
  -20.9971  -28.3254   24.1415 H   0  0  0  0  0  0
  -20.5683  -26.2287   23.3607 H   0  0  0  0  0  0
  -21.6643  -26.7451   22.1201 H   0  0  0  0  0  0
  -19.6917  -25.6293   21.1240 H   0  0  0  0  0  0
  -19.6696  -27.3194   20.6745 H   0  0  0  0  0  0
  -17.4206  -26.6677   21.4018 H   0  0  0  0  0  0
  -18.0328  -26.0064   22.9012 H   0  0  0  0  0  0
  -19.7932  -30.7263   24.2274 H   0  0  0  0  0  0
  -17.5013  -31.6270   24.5155 H   0  0  0  0  0  0
  -15.5347  -30.2984   23.7658 H   0  0  0  0  0  0
  -15.8669  -28.0815   22.7079 H   0  0  0  0  0  0
  -24.5899  -30.7078   25.7772 H   0  0  0  0  0  0
  -24.8917  -32.2888   26.4886 H   0  0  0  0  0  0
  -25.8049  -30.8888   27.0225 H   0  0  0  0  0  0
  -26.2917  -29.6766   24.1206 H   0  0  0  0  0  0
  -27.4044  -29.7279   25.4678 H   0  0  0  0  0  0
  -27.8780  -30.4310   23.9401 H   0  0  0  0  0  0
  -27.2676  -33.3622   26.2075 H   0  0  0  0  0  0
  -28.3860  -32.6887   25.0315 H   0  0  0  0  0  0
  -28.0734  -31.8448   26.5398 H   0  0  0  0  0  0
  -28.2602  -38.0098   24.7516 H   0  0  0  0  0  0
  -28.1078  -36.2631   24.6293 H   0  0  0  0  0  0
  -27.2299  -37.1456   25.8867 H   0  0  0  0  0  0
  -20.9352  -29.8743   21.6889 H   0  0  0  0  0  0
  -26.0182  -38.2857   24.1401 H   0  0  0  0  0  0
  -31.0557  -21.0164   20.8169 H   0  0  0  0  0  0
  -32.7609  -19.3468   21.4031 H   0  0  0  0  0  0
  -28.2020  -17.8149   20.2670 H   0  0  0  0  0  0
  -30.3340  -22.7696   17.3030 H   0  0  0  0  0  0
  -30.2279  -21.1996   18.2576 H   0  0  0  0  0  0
  -27.8373  -24.4090   18.1339 H   0  0  0  0  0  0
  -29.4758  -24.8651   18.4822 H   0  0  0  0  0  0
  -30.0463  -24.5584   21.1883 H   0  0  0  0  0  0
  -28.7436  -24.8458   22.3020 H   0  0  0  0  0  0
  -27.9105  -22.6256   22.1419 H   0  0  0  0  0  0
  -29.6238  -22.3673   21.9813 H   0  0  0  0  0  0
  -27.1438  -24.7750   20.4086 H   0  0  0  0  0  0
  -27.5269  -20.3845   20.9095 H   0  0  0  0  0  0
  -27.9096  -20.3199   19.2286 H   0  0  0  0  0  0
  -28.9085  -15.4931   20.9698 H   0  0  0  0  0  0
  -27.5074  -22.3254   20.1085 H   0  0  0  0  0  0
  1 25  1  0  0  0
  1 30  2  0  0  0
  1 84  1  0  0  0
  2  3  1  0  0  0
  2 25  1  0  0  0
  2 87  1  0  0  0
  2 88  1  0  0  0
  3  4  1  0  0  0
  3 89  1  0  0  0
  3 90  1  0  0  0
  4  5  1  0  0  0
  4 91  1  0  0  0
  4 92  1  0  0  0
  5  6  1  0  0  0
  5 26  1  0  0  0
  5 93  1  0  0  0
  6 25  1  0  0  0
  6 94  1  0  0  0
  6 95  1  0  0  0
  7  8  2  0  0  0
  7 26  1  0  0  0
  7 29  1  0  0  0
  8  9  1  0  0  0
  8 22  1  0  0  0
  9 10  1  0  0  0
  9 27  2  0  0  0
 10 11  2  0  0  0
 10 15  1  0  0  0
 11 12  1  0  0  0
 11 96  1  0  0  0
 12 13  2  0  0  0
 12 97  1  0  0  0
 13 14  1  0  0  0
 13 31  1  0  0  0
 14 15  2  0  0  0
 14 98  1  0  0  0
 15 99  1  0  0  0
 16 17  2  0  0  0
 16 21  1  0  0  0
 16 31  1  0  0  0
 17 18  1  0  0  0
 17100  1  0  0  0
 18 19  2  0  0  0
 18101  1  0  0  0
 19 20  1  0  0  0
 19 24  1  0  0  0
 20 21  2  0  0  0
 20102  1  0  0  0
 21 23  1  0  0  0
 22 28  1  0  0  0
 22 32  2  0  0  0
 26 27  1  0  0  0
 28103  1  0  0  0
 28104  1  0  0  0
 29105  1  0  0  0
 29106  1  0  0  0
 33 34  1  0  0  0
 33 66  1  0  0  0
 33 70  2  0  0  0
 34 36  1  0  0  0
 34 59  1  0  0  0
 34107  1  0  0  0
 35 44  2  0  0  0
 35 45  1  0  0  0
 35 68  1  0  0  0
 36 56  1  0  0  0
 36108  1  0  0  0
 37 39  1  0  0  0
 37 47  1  0  0  0
 37 66  1  0  0  0
 37109  1  0  0  0
 38 43  2  0  0  0
 38 46  1  0  0  0
 38 47  1  0  0  0
 39 64  1  0  0  0
 39 67  2  0  0  0
 40 52  1  0  0  0
 40 53  2  0  0  0
 40 58  1  0  0  0
 41110  1  0  0  0
 41111  1  0  0  0
 41112  1  0  0  0
 41 48  1  0  0  0
 42 43  1  0  0  0
 42 66  1  0  0  0
 42113  1  0  0  0
 42114  1  0  0  0
 43 44  1  0  0  0
 44115  1  0  0  0
 45 46  2  0  0  0
 45116  1  0  0  0
 46117  1  0  0  0
 47118  1  0  0  0
 47119  1  0  0  0
 48 56  1  0  0  0
 48 65  1  0  0  0
 48120  1  0  0  0
 49 50  1  0  0  0
 49 53  1  0  0  0
 49 64  1  0  0  0
 49121  1  0  0  0
 50 51  1  0  0  0
 50122  1  0  0  0
 50123  1  0  0  0
 51 52  1  0  0  0
 51124  1  0  0  0
 51125  1  0  0  0
 52126  1  0  0  0
 52127  1  0  0  0
 53 54  1  0  0  0
 54 55  2  0  0  0
 54128  1  0  0  0
 55 57  1  0  0  0
 55129  1  0  0  0
 56 69  2  0  0  0
 57 58  2  0  0  0
 57130  1  0  0  0
 58131  1  0  0  0
 59 60  1  0  0  0
 59 61  1  0  0  0
 59 62  1  0  0  0
 60132  1  0  0  0
 60133  1  0  0  0
 60134  1  0  0  0
 61135  1  0  0  0
 61136  1  0  0  0
 61137  1  0  0  0
 62138  1  0  0  0
 62139  1  0  0  0
 62140  1  0  0  0
 63 65  1  0  0  0
 63141  1  0  0  0
 63142  1  0  0  0
 63143  1  0  0  0
 64144  1  0  0  0
 65145  1  0  0  0
 68 82  1  0  0  0
 71 72  2  0  0  0
 71 74  1  0  0  0
 71146  1  0  0  0
 72 76  1  0  0  0
 72147  1  0  0  0
 73 74  2  0  0  0
 73 75  1  0  0  0
 73148  1  0  0  0
 74 83  1  0  0  0
 75 76  2  0  0  0
 75 84  1  0  0  0
 76 86  1  0  0  0
 77 78  2  0  0  0
 77 79  1  0  0  0
 77 85  1  0  0  0
 78149  1  0  0  0
 78150  1  0  0  0
 79 82  1  0  0  0
 79151  1  0  0  0
 79152  1  0  0  0
 80 81  1  0  0  0
 80 82  1  0  0  0
 80153  1  0  0  0
 80154  1  0  0  0
 81 85  1  0  0  0
 81155  1  0  0  0
 81156  1  0  0  0
 82157  1  0  0  0
 83158  1  0  0  0
 83159  1  0  0  0
 83 85  1  0  0  0
 84160  1  0  0  0
 85161  1  0  0  0
M  CHG  1  85   1
M  ISO  4   1 100  68 101  82 101  84 100
M  END
> <chiral flag>
0

> <version>
0

> <s_m_source_file>
/data/baiqing/PycharmProjects/Reinvent-master-3.2/result/LINK_invent/BTK/process_docking_weight1_custom_product_contain_oxygen_bond_distance_aromatic_linkinvent_7_9_3/rearranged_h_0052.sdf

> <i_m_source_file_index>
70

> <r_mmod_Potential_Energy-OPLS-2005>
-49.760425567627

> <r_mmod_Stretch_Energy-OPLS-2005>
79.9435348510742

> <r_mmod_Bend_Energy-OPLS-2005>
165.159133911133

> <r_mmod_Torsional_Energy-OPLS-2005>
248.39421081543

> <r_mmod_Improper_Torsional_Energy-OPLS-2005>
5.61604356765747

> <r_mmod_Van_der_Waal_Energy-OPLS-2005>
150.055252075195

> <r_mmod_Electrostatic_Energy-OPLS-2005>
-262.656433105469

> <r_mmod_Solvation_Energy-OPLS-2005>
-479.65576171875

> <b_mmod_Minimization_Converged-OPLS-2005>
0

> <r_mmod_RMS_Derivative-OPLS-2005>
0.92487233877182

$$$$
70
                    3D
 Structure written by MMmdl.
154162  0  0  1  0            999 V2000
  -30.7299  -14.5006   20.5748 C   0  0  0  0  0  0
  -30.4189  -12.3340   19.4390 C   0  0  0  0  0  0
  -29.4942  -12.5097   18.2174 C   0  0  0  0  0  0
  -28.0195  -12.3622   18.6332 C   0  0  0  0  0  0
  -27.6596  -13.2188   19.8767 C   0  0  2  0  0  0
  -28.7027  -13.0502   21.0063 C   0  0  0  0  0  0
  -25.2602  -13.8212   20.5746 C   0  0  0  0  0  0
  -24.1845  -13.0459   20.9196 C   0  0  0  0  0  0
  -24.6411  -11.6933   20.8740 C   0  0  0  0  0  0
  -23.9073  -10.4314   21.0412 C   0  0  0  0  0  0
  -24.3626   -9.4221   21.9181 C   0  0  0  0  0  0
  -23.6299   -8.2258   22.0752 C   0  0  0  0  0  0
  -22.4292   -8.0291   21.3531 C   0  0  0  0  0  0
  -21.9919   -9.0275   20.4652 C   0  0  0  0  0  0
  -22.7247  -10.2152   20.3061 C   0  0  0  0  0  0
  -21.6858   -6.0744   22.5277 C   0  0  0  0  0  0
  -21.4018   -6.5645   23.8213 C   0  0  0  0  0  0
  -21.3661   -5.6793   24.9174 C   0  0  0  0  0  0
  -21.6038   -4.3055   24.7217 C   0  0  0  0  0  0
  -21.8827   -3.8153   23.4340 C   0  0  0  0  0  0
  -21.9197   -4.6971   22.3399 C   0  0  0  0  0  0
  -22.7870  -13.5256   21.1848 C   0  0  0  0  0  0
  -22.1664   -4.2157   21.0976 F   0  0  0  0  0  0
  -21.5630   -3.4543   25.7731 F   0  0  0  0  0  0
  -30.0313  -13.3386   20.4437 N   0  0  0  0  0  0
  -26.3032  -12.9383   20.3421 N   0  0  0  0  0  0
  -25.9346  -11.6532   20.5799 N   0  0  0  0  0  0
  -22.0517  -12.8242   22.0406 N   0  0  0  0  0  0
  -25.4381  -15.1930   20.4211 N   0  0  0  0  0  0
  -31.8614  -14.6423   20.1050 O   0  0  0  0  0  0
  -21.6645   -6.8890   21.4238 O   0  0  0  0  0  0
  -22.3544  -14.5559   20.6708 O   0  0  0  0  0  0
  -24.6135  -31.8669   23.2088 C   0  0  0  0  0  0
  -25.9034  -32.4819   23.8378 C   0  0  1  0  0  0
  -27.2417  -27.4168   20.1101 C   0  0  0  0  0  0
  -25.5889  -33.8612   24.2310 N   0  0  0  0  0  0
  -23.4022  -30.4885   21.5507 C   0  0  2  0  0  0
  -24.8539  -28.9483   20.1196 C   0  0  0  0  0  0
  -22.7406  -29.4649   22.5016 C   0  0  0  0  0  0
  -18.0277  -28.1387   22.8529 C   0  0  0  0  0  0
  -24.1491  -36.7297   23.2636 C   0  0  0  0  0  0
  -25.9327  -30.8259   21.3673 C   0  0  0  0  0  0
  -26.0154  -29.4588   20.7162 C   0  0  0  0  0  0
  -27.2144  -28.7015   20.7060 C   0  0  0  0  0  0
  -26.0677  -26.9273   19.5007 C   0  0  0  0  0  0
  -24.8774  -27.6817   19.5058 C   0  0  0  0  0  0
  -23.6122  -29.8161   20.1681 C   0  0  0  0  0  0
  -25.4112  -36.3105   24.0336 C   0  0  1  0  0  0
  -20.5858  -28.3680   23.1388 C   0  0  2  0  0  0
  -20.6734  -26.9403   22.5512 C   0  0  0  0  0  0
  -19.5760  -26.6398   21.5250 C   0  0  0  0  0  0
  -18.1902  -26.7954   22.1588 C   0  0  0  0  0  0
  -19.1519  -28.8844   23.2942 C   0  0  0  0  0  0
  -18.9447  -30.1468   23.8929 C   0  0  0  0  0  0
  -17.6456  -30.6618   24.0545 C   0  0  0  0  0  0
  -25.9034  -34.9472   23.5119 C   0  0  0  0  0  0
  -16.5346  -29.9096   23.6323 C   0  0  0  0  0  0
  -16.7265  -28.6501   23.0395 C   0  0  0  0  0  0
  -26.4461  -31.6597   25.0708 C   0  0  0  0  0  0
  -25.3713  -31.3705   26.1450 C   0  0  0  0  0  0
  -27.0290  -30.3036   24.6089 C   0  0  0  0  0  0
  -27.6044  -32.4315   25.7466 C   0  0  0  0  0  0
  -27.5588  -37.1796   24.8461 C   0  0  0  0  0  0
  -21.4117  -29.3084   22.3832 N   0  0  0  0  0  0
  -26.4292  -37.3797   23.9423 N   0  0  0  0  0  0
  -24.6676  -31.0752   22.1007 N   0  0  0  0  0  0
  -23.4178  -28.8123   23.3015 O   0  0  0  0  0  0
  -28.3962  -26.6593   20.0869 O   0  0  0  0  0  0
  -26.5614  -34.8930   22.4686 O   0  0  0  0  0  0
  -23.5330  -32.1437   23.7465 O   0  0  0  0  0  0
  -27.5696  -19.1448   21.7982 C   0  0  0  0  0  0
  -28.0061  -20.3773   21.2691 C   0  0  0  0  0  0
  -28.4147  -18.0164   21.7825 C   0  0  0  0  0  0
  -30.1371  -19.3502   20.6936 C   0  0  0  0  0  0
  -29.3006  -20.4992   20.7195 C   0  0  0  0  0  0
  -29.7097  -18.1016   21.2269 C   0  0  0  0  0  0
  -28.9370  -24.2130   20.0066 C   0  0  0  0  0  0
  -29.7964  -21.8376   20.1357 C   0  0  0  0  0  0
  -30.6722  -16.9010   21.2808 C   0  0  0  0  0  0
  -28.3397  -25.4027   20.8060 C   0  0  0  0  0  0
  -29.1515  -23.0563   20.6694 N   0  0  0  0  0  0
  -30.0906  -15.5452   21.1378 N   0  0  0  0  0  0
  -29.2131  -24.3431   18.8115 O   0  0  0  0  0  0
  -31.4641  -12.4243   19.1334 H   0  0  0  0  0  0
  -30.3192  -11.3311   19.8607 H   0  0  0  0  0  0
  -29.7399  -11.7764   17.4491 H   0  0  0  0  0  0
  -29.6534  -13.4892   17.7670 H   0  0  0  0  0  0
  -27.8430  -11.3060   18.8495 H   0  0  0  0  0  0
  -27.3629  -12.6178   17.8020 H   0  0  0  0  0  0
  -27.6908  -14.2601   19.5543 H   0  0  0  0  0  0
  -28.6840  -12.0350   21.4054 H   0  0  0  0  0  0
  -28.4609  -13.6991   21.8502 H   0  0  0  0  0  0
  -25.2771   -9.5697   22.4748 H   0  0  0  0  0  0
  -24.0015   -7.4648   22.7462 H   0  0  0  0  0  0
  -21.0854   -8.8798   19.8951 H   0  0  0  0  0  0
  -22.3709  -10.9693   19.6176 H   0  0  0  0  0  0
  -21.2011   -7.6155   23.9714 H   0  0  0  0  0  0
  -21.1472   -6.0525   25.9072 H   0  0  0  0  0  0
  -22.0604   -2.7618   23.2840 H   0  0  0  0  0  0
  -22.4123  -11.9888   22.4766 H   0  0  0  0  0  0
  -21.1152  -13.1283   22.2639 H   0  0  0  0  0  0
  -24.6882  -15.8634   20.5526 H   0  0  0  0  0  0
  -26.3085  -15.6252   20.1370 H   0  0  0  0  0  0
  -26.7097  -32.5545   23.1136 H   0  0  0  0  0  0
  -25.0040  -33.9779   25.0458 H   0  0  0  0  0  0
  -22.6886  -31.3018   21.4090 H   0  0  0  0  0  0
  -23.3765  -35.9616   23.3293 H   0  0  0  0  0  0
  -24.3578  -36.8916   22.2050 H   0  0  0  0  0  0
  -23.7221  -37.6490   23.6653 H   0  0  0  0  0  0
  -26.0455  -31.5907   20.5986 H   0  0  0  0  0  0
  -26.8187  -30.8820   21.9870 H   0  0  0  0  0  0
  -28.1113  -29.0917   21.1684 H   0  0  0  0  0  0
  -26.0772  -25.9571   19.0242 H   0  0  0  0  0  0
  -23.9929  -27.2815   19.0293 H   0  0  0  0  0  0
  -23.7135  -30.5871   19.4044 H   0  0  0  0  0  0
  -22.7363  -29.2330   19.8770 H   0  0  0  0  0  0
  -25.1288  -36.1964   25.0827 H   0  0  0  0  0  0
  -20.9928  -28.3242   24.1519 H   0  0  0  0  0  0
  -21.6628  -26.7403   22.1372 H   0  0  0  0  0  0
  -20.5549  -26.2311   23.3719 H   0  0  0  0  0  0
  -19.6924  -25.6309   21.1284 H   0  0  0  0  0  0
  -19.6781  -27.3214   20.6789 H   0  0  0  0  0  0
  -18.0175  -26.0037   22.8900 H   0  0  0  0  0  0
  -17.4225  -26.6825   21.3904 H   0  0  0  0  0  0
  -19.7933  -30.7279   24.2270 H   0  0  0  0  0  0
  -17.4990  -31.6344   24.5045 H   0  0  0  0  0  0
  -15.5345  -30.3008   23.7629 H   0  0  0  0  0  0
  -15.8643  -28.0810   22.7145 H   0  0  0  0  0  0
  -24.5890  -30.7056   25.7772 H   0  0  0  0  0  0
  -24.8903  -32.2868   26.4890 H   0  0  0  0  0  0
  -25.8055  -30.8869   27.0210 H   0  0  0  0  0  0
  -26.2839  -29.6805   24.1134 H   0  0  0  0  0  0
  -27.4049  -29.7269   25.4550 H   0  0  0  0  0  0
  -27.8683  -30.4354   23.9252 H   0  0  0  0  0  0
  -27.2668  -33.3607   26.2069 H   0  0  0  0  0  0
  -28.3838  -32.6880   25.0276 H   0  0  0  0  0  0
  -28.0733  -31.8420   26.5359 H   0  0  0  0  0  0
  -28.2591  -38.0113   24.7560 H   0  0  0  0  0  0
  -28.1105  -36.2648   24.6232 H   0  0  0  0  0  0
  -27.2310  -37.1376   25.8863 H   0  0  0  0  0  0
  -20.9203  -29.9025   21.7298 H   0  0  0  0  0  0
  -26.0180  -38.2870   24.1449 H   0  0  0  0  0  0
  -26.5818  -19.0641   22.2296 H   0  0  0  0  0  0
  -27.3349  -21.2249   21.2892 H   0  0  0  0  0  0
  -28.0698  -17.0956   22.2305 H   0  0  0  0  0  0
  -31.1279  -19.4386   20.2695 H   0  0  0  0  0  0
  -29.6772  -21.7799   19.0517 H   0  0  0  0  0  0
  -30.8707  -21.9223   20.3091 H   0  0  0  0  0  0
  -31.1739  -16.9381   22.2495 H   0  0  0  0  0  0
  -31.4567  -17.0659   20.5366 H   0  0  0  0  0  0
  -27.3302  -25.1458   21.1238 H   0  0  0  0  0  0
  -28.9298  -25.5179   21.7145 H   0  0  0  0  0  0
  -28.9266  -23.0471   21.6544 H   0  0  0  0  0  0
  -29.1592  -15.3888   21.4847 H   0  0  0  0  0  0
  1 25  1  0  0  0
  1 30  2  0  0  0
  1 82  1  0  0  0
  2  3  1  0  0  0
  2 25  1  0  0  0
  2 84  1  0  0  0
  2 85  1  0  0  0
  3  4  1  0  0  0
  3 86  1  0  0  0
  3 87  1  0  0  0
  4  5  1  0  0  0
  4 88  1  0  0  0
  4 89  1  0  0  0
  5  6  1  0  0  0
  5 26  1  0  0  0
  5 90  1  0  0  0
  6 25  1  0  0  0
  6 91  1  0  0  0
  6 92  1  0  0  0
  7  8  2  0  0  0
  7 26  1  0  0  0
  7 29  1  0  0  0
  8  9  1  0  0  0
  8 22  1  0  0  0
  9 10  1  0  0  0
  9 27  2  0  0  0
 10 11  2  0  0  0
 10 15  1  0  0  0
 11 12  1  0  0  0
 11 93  1  0  0  0
 12 13  2  0  0  0
 12 94  1  0  0  0
 13 14  1  0  0  0
 13 31  1  0  0  0
 14 15  2  0  0  0
 14 95  1  0  0  0
 15 96  1  0  0  0
 16 17  2  0  0  0
 16 21  1  0  0  0
 16 31  1  0  0  0
 17 18  1  0  0  0
 17 97  1  0  0  0
 18 19  2  0  0  0
 18 98  1  0  0  0
 19 20  1  0  0  0
 19 24  1  0  0  0
 20 21  2  0  0  0
 20 99  1  0  0  0
 21 23  1  0  0  0
 22 28  1  0  0  0
 22 32  2  0  0  0
 26 27  1  0  0  0
 28100  1  0  0  0
 28101  1  0  0  0
 29102  1  0  0  0
 29103  1  0  0  0
 33 34  1  0  0  0
 33 66  1  0  0  0
 33 70  2  0  0  0
 34 36  1  0  0  0
 34 59  1  0  0  0
 34104  1  0  0  0
 35 44  2  0  0  0
 35 45  1  0  0  0
 35 68  1  0  0  0
 36 56  1  0  0  0
 36105  1  0  0  0
 37 39  1  0  0  0
 37 47  1  0  0  0
 37 66  1  0  0  0
 37106  1  0  0  0
 38 43  2  0  0  0
 38 46  1  0  0  0
 38 47  1  0  0  0
 39 64  1  0  0  0
 39 67  2  0  0  0
 40 52  1  0  0  0
 40 53  2  0  0  0
 40 58  1  0  0  0
 41107  1  0  0  0
 41108  1  0  0  0
 41109  1  0  0  0
 41 48  1  0  0  0
 42 43  1  0  0  0
 42 66  1  0  0  0
 42110  1  0  0  0
 42111  1  0  0  0
 43 44  1  0  0  0
 44112  1  0  0  0
 45 46  2  0  0  0
 45113  1  0  0  0
 46114  1  0  0  0
 47115  1  0  0  0
 47116  1  0  0  0
 48 56  1  0  0  0
 48 65  1  0  0  0
 48117  1  0  0  0
 49 50  1  0  0  0
 49 53  1  0  0  0
 49 64  1  0  0  0
 49118  1  0  0  0
 50 51  1  0  0  0
 50119  1  0  0  0
 50120  1  0  0  0
 51 52  1  0  0  0
 51121  1  0  0  0
 51122  1  0  0  0
 52123  1  0  0  0
 52124  1  0  0  0
 53 54  1  0  0  0
 54 55  2  0  0  0
 54125  1  0  0  0
 55 57  1  0  0  0
 55126  1  0  0  0
 56 69  2  0  0  0
 57 58  2  0  0  0
 57127  1  0  0  0
 58128  1  0  0  0
 59 60  1  0  0  0
 59 61  1  0  0  0
 59 62  1  0  0  0
 60129  1  0  0  0
 60130  1  0  0  0
 60131  1  0  0  0
 61132  1  0  0  0
 61133  1  0  0  0
 61134  1  0  0  0
 62135  1  0  0  0
 62136  1  0  0  0
 62137  1  0  0  0
 63 65  1  0  0  0
 63138  1  0  0  0
 63139  1  0  0  0
 63140  1  0  0  0
 64141  1  0  0  0
 65142  1  0  0  0
 68 80  1  0  0  0
 71 72  2  0  0  0
 71 73  1  0  0  0
 71143  1  0  0  0
 72 75  1  0  0  0
 72144  1  0  0  0
 73 76  2  0  0  0
 73145  1  0  0  0
 74 75  2  0  0  0
 74 76  1  0  0  0
 74146  1  0  0  0
 75 78  1  0  0  0
 76 79  1  0  0  0
 77 80  1  0  0  0
 77 81  1  0  0  0
 77 83  2  0  0  0
 78 81  1  0  0  0
 78147  1  0  0  0
 78148  1  0  0  0
 79 82  1  0  0  0
 79149  1  0  0  0
 79150  1  0  0  0
 80151  1  0  0  0
 80152  1  0  0  0
 81153  1  0  0  0
 82154  1  0  0  0
M  ISO  4   1 100  68 101  80 101  82 100
M  END
> <chiral flag>
0

> <version>
0

> <s_m_source_file>
/data/baiqing/PycharmProjects/Reinvent-master-3.2/result/LINK_invent/BTK/process_docking_weight1_custom_product_contain_oxygen_bond_distance_aromatic_linkinvent_7_9_3/rearranged_h_0052.sdf

> <i_m_source_file_index>
71

> <r_mmod_Potential_Energy-OPLS-2005>
-172.507415771484

> <r_mmod_Stretch_Energy-OPLS-2005>
42.8556175231934

> <r_mmod_Bend_Energy-OPLS-2005>
94.6104965209961

> <r_mmod_Torsional_Energy-OPLS-2005>
212.762542724609

> <r_mmod_Improper_Torsional_Energy-OPLS-2005>
2.81301927566528

> <r_mmod_Van_der_Waal_Energy-OPLS-2005>
147.65364074707

> <r_mmod_Electrostatic_Energy-OPLS-2005>
-447.794799804688

> <r_mmod_Solvation_Energy-OPLS-2005>
-241.909271240234

> <b_mmod_Minimization_Converged-OPLS-2005>
0

> <r_mmod_RMS_Derivative-OPLS-2005>
3.83706045150757

$$$$
71
                    3D
 Structure written by MMmdl.
164173  0  0  1  0            999 V2000
  -30.7568  -14.4368   20.6408 C   0  0  0  0  0  0
  -30.4083  -12.3185   19.4118 C   0  0  0  0  0  0
  -29.4834  -12.5275   18.2001 C   0  0  0  0  0  0
  -28.0078  -12.3854   18.6154 C   0  0  0  0  0  0
  -27.6599  -13.2149   19.8802 C   0  0  2  0  0  0
  -28.7044  -12.9891   20.9969 C   0  0  0  0  0  0
  -25.2519  -13.8123   20.5612 C   0  0  0  0  0  0
  -24.1810  -13.0394   20.9164 C   0  0  0  0  0  0
  -24.6400  -11.6876   20.8748 C   0  0  0  0  0  0
  -23.9060  -10.4267   21.0403 C   0  0  0  0  0  0
  -24.3603   -9.4186   21.9187 C   0  0  0  0  0  0
  -23.6279   -8.2227   22.0766 C   0  0  0  0  0  0
  -22.4263   -8.0270   21.3551 C   0  0  0  0  0  0
  -21.9888   -9.0239   20.4655 C   0  0  0  0  0  0
  -22.7223  -10.2114   20.3062 C   0  0  0  0  0  0
  -21.6849   -6.0718   22.5279 C   0  0  0  0  0  0
  -21.4012   -6.5627   23.8210 C   0  0  0  0  0  0
  -21.3668   -5.6786   24.9179 C   0  0  0  0  0  0
  -21.6045   -4.3049   24.7236 C   0  0  0  0  0  0
  -21.8820   -3.8133   23.4359 C   0  0  0  0  0  0
  -21.9188   -4.6943   22.3412 C   0  0  0  0  0  0
  -22.7835  -13.5194   21.1834 C   0  0  0  0  0  0
  -22.1652   -4.2121   21.0991 F   0  0  0  0  0  0
  -21.5638   -3.4545   25.7755 F   0  0  0  0  0  0
  -30.0320  -13.2984   20.4459 N   0  0  0  0  0  0
  -26.3020  -12.9346   20.3423 N   0  0  0  0  0  0
  -25.9341  -11.6486   20.5820 N   0  0  0  0  0  0
  -22.0474  -12.8219   22.0417 N   0  0  0  0  0  0
  -25.4083  -15.1817   20.3844 N   0  0  0  0  0  0
  -31.8247  -14.6423   20.0604 O   0  0  0  0  0  0
  -21.6640   -6.8858   21.4238 O   0  0  0  0  0  0
  -22.3522  -14.5512   20.6697 O   0  0  0  0  0  0
  -24.6157  -31.8669   23.2097 C   0  0  0  0  0  0
  -25.9053  -32.4810   23.8389 C   0  0  1  0  0  0
  -27.2373  -27.4242   20.0836 C   0  0  0  0  0  0
  -25.5901  -33.8610   24.2322 N   0  0  0  0  0  0
  -23.4026  -30.4905   21.5508 C   0  0  2  0  0  0
  -24.8471  -28.9543   20.1174 C   0  0  0  0  0  0
  -22.7404  -29.4653   22.4995 C   0  0  0  0  0  0
  -18.0277  -28.1356   22.8502 C   0  0  0  0  0  0
  -24.1487  -36.7313   23.2634 C   0  0  0  0  0  0
  -25.9326  -30.8275   21.3639 C   0  0  0  0  0  0
  -26.0083  -29.4597   20.7140 C   0  0  0  0  0  0
  -27.2002  -28.6982   20.7024 C   0  0  0  0  0  0
  -26.0468  -26.9312   19.4974 C   0  0  0  0  0  0
  -24.8618  -27.6883   19.5102 C   0  0  0  0  0  0
  -23.6097  -29.8214   20.1664 C   0  0  0  0  0  0
  -25.4103  -36.3106   24.0338 C   0  0  1  0  0  0
  -20.5863  -28.3648   23.1321 C   0  0  2  0  0  0
  -20.6763  -26.9382   22.5414 C   0  0  0  0  0  0
  -19.5741  -26.6365   21.5214 C   0  0  0  0  0  0
  -18.1929  -26.7902   22.1627 C   0  0  0  0  0  0
  -19.1523  -28.8817   23.2911 C   0  0  0  0  0  0
  -18.9446  -30.1423   23.8914 C   0  0  0  0  0  0
  -17.6451  -30.6564   24.0558 C   0  0  0  0  0  0
  -25.9032  -34.9468   23.5129 C   0  0  0  0  0  0
  -16.5345  -29.9070   23.6318 C   0  0  0  0  0  0
  -16.7259  -28.6484   23.0344 C   0  0  0  0  0  0
  -26.4473  -31.6583   25.0713 C   0  0  0  0  0  0
  -25.3744  -31.3701   26.1466 C   0  0  0  0  0  0
  -27.0285  -30.3023   24.6084 C   0  0  0  0  0  0
  -27.6047  -32.4301   25.7478 C   0  0  0  0  0  0
  -27.5579  -37.1811   24.8464 C   0  0  0  0  0  0
  -21.4128  -29.3025   22.3734 N   0  0  0  0  0  0
  -26.4289  -37.3792   23.9412 N   0  0  0  0  0  0
  -24.6687  -31.0765   22.1002 N   0  0  0  0  0  0
  -23.4186  -28.8191   23.3026 O   0  0  0  0  0  0
  -28.4255  -26.7114   20.0928 O   0  0  0  0  0  0
  -26.5602  -34.8923   22.4692 O   0  0  0  0  0  0
  -23.5347  -32.1422   23.7490 O   0  0  0  0  0  0
  -27.4567  -17.6905   21.3107 C   0  0  0  0  0  0
  -28.2051  -16.5137   21.5040 C   0  0  0  0  0  0
  -29.4711  -18.8993   20.7206 C   0  0  0  0  0  0
  -28.0712  -18.8935   20.9056 C   0  0  0  0  0  0
  -30.2331  -17.7185   20.9169 C   0  0  0  0  0  0
  -29.5960  -16.4989   21.2852 C   0  0  0  0  0  0
  -27.4762  -22.4711   21.2820 C   0  0  0  0  0  0
  -27.4181  -23.8951   20.7108 C   0  0  0  0  0  0
  -28.7524  -23.1063   18.7159 C   0  0  0  0  0  0
  -28.1553  -21.7035   19.0336 C   0  0  0  0  0  0
  -28.6230  -24.1953   19.8104 C   0  0  1  0  0  0
  -31.7380  -17.7964   20.7270 C   0  0  0  0  0  0
  -27.1581  -20.1069   20.6751 C   0  0  0  0  0  0
  -28.6201  -25.6191   19.1759 C   0  0  0  0  0  0
  -27.7269  -21.4538   20.4224 N   0  0  0  0  0  0
  -30.3378  -15.3113   21.5743 N   0  0  0  0  0  0
  -27.1974  -22.2971   22.4726 O   0  0  0  0  0  0
  -31.4531  -12.4054   19.1090 H   0  0  0  0  0  0
  -30.3007  -11.3046   19.8017 H   0  0  0  0  0  0
  -29.7228  -11.8114   17.4123 H   0  0  0  0  0  0
  -29.6530  -13.5178   17.7766 H   0  0  0  0  0  0
  -27.8138  -11.3284   18.7981 H   0  0  0  0  0  0
  -27.3592  -12.6743   17.7869 H   0  0  0  0  0  0
  -27.7036  -14.2652   19.5921 H   0  0  0  0  0  0
  -28.6815  -11.9493   21.3280 H   0  0  0  0  0  0
  -28.4738  -13.5761   21.8839 H   0  0  0  0  0  0
  -25.2748   -9.5667   22.4762 H   0  0  0  0  0  0
  -23.9979   -7.4618   22.7489 H   0  0  0  0  0  0
  -21.0824   -8.8755   19.8970 H   0  0  0  0  0  0
  -22.3673  -10.9648   19.6174 H   0  0  0  0  0  0
  -21.1998   -7.6132   23.9715 H   0  0  0  0  0  0
  -21.1497   -6.0514   25.9082 H   0  0  0  0  0  0
  -22.0592   -2.7595   23.2866 H   0  0  0  0  0  0
  -22.4058  -11.9884   22.4834 H   0  0  0  0  0  0
  -21.1117  -13.1301   22.2650 H   0  0  0  0  0  0
  -24.6260  -15.8221   20.4636 H   0  0  0  0  0  0
  -26.2621  -15.6311   20.0787 H   0  0  0  0  0  0
  -26.7119  -32.5518   23.1145 H   0  0  0  0  0  0
  -25.0033  -33.9769   25.0457 H   0  0  0  0  0  0
  -22.6916  -31.3080   21.4129 H   0  0  0  0  0  0
  -23.3740  -35.9659   23.3301 H   0  0  0  0  0  0
  -24.3577  -36.8915   22.2047 H   0  0  0  0  0  0
  -23.7252  -37.6526   23.6639 H   0  0  0  0  0  0
  -26.0438  -31.5912   20.5920 H   0  0  0  0  0  0
  -26.8223  -30.8840   21.9799 H   0  0  0  0  0  0
  -28.0967  -29.0884   21.1640 H   0  0  0  0  0  0
  -26.0002  -25.9582   19.0340 H   0  0  0  0  0  0
  -23.9675  -27.2880   19.0541 H   0  0  0  0  0  0
  -23.7141  -30.5945   19.4036 H   0  0  0  0  0  0
  -22.7340  -29.2391   19.8724 H   0  0  0  0  0  0
  -25.1283  -36.1965   25.0834 H   0  0  0  0  0  0
  -20.9965  -28.3205   24.1442 H   0  0  0  0  0  0
  -20.5663  -26.2252   23.3603 H   0  0  0  0  0  0
  -21.6635  -26.7408   22.1211 H   0  0  0  0  0  0
  -19.6895  -25.6280   21.1232 H   0  0  0  0  0  0
  -19.6673  -27.3194   20.6749 H   0  0  0  0  0  0
  -17.4200  -26.6658   21.4034 H   0  0  0  0  0  0
  -18.0313  -26.0034   22.9012 H   0  0  0  0  0  0
  -19.7919  -30.7230   24.2292 H   0  0  0  0  0  0
  -17.5008  -31.6244   24.5162 H   0  0  0  0  0  0
  -15.5348  -30.2974   23.7622 H   0  0  0  0  0  0
  -15.8665  -28.0798   22.7045 H   0  0  0  0  0  0
  -24.5915  -30.7042   25.7816 H   0  0  0  0  0  0
  -24.8935  -32.2860   26.4915 H   0  0  0  0  0  0
  -25.8106  -30.8873   27.0218 H   0  0  0  0  0  0
  -26.2824  -29.6822   24.1099 H   0  0  0  0  0  0
  -27.3999  -29.7223   25.4537 H   0  0  0  0  0  0
  -27.8686  -30.4327   23.9262 H   0  0  0  0  0  0
  -27.2656  -33.3584   26.2092 H   0  0  0  0  0  0
  -28.3842  -32.6887   25.0299 H   0  0  0  0  0  0
  -28.0734  -31.8399   26.5359 H   0  0  0  0  0  0
  -28.2607  -38.0101   24.7500 H   0  0  0  0  0  0
  -28.1060  -36.2625   24.6295 H   0  0  0  0  0  0
  -27.2293  -37.1479   25.8868 H   0  0  0  0  0  0
  -20.9287  -29.8774   21.6985 H   0  0  0  0  0  0
  -26.0171  -38.2868   24.1408 H   0  0  0  0  0  0
  -26.3897  -17.6640   21.4827 H   0  0  0  0  0  0
  -27.6939  -15.6277   21.8481 H   0  0  0  0  0  0
  -29.9688  -19.8130   20.4283 H   0  0  0  0  0  0
  -27.3733  -24.6148   21.5292 H   0  0  0  0  0  0
  -26.4859  -23.9926   20.1542 H   0  0  0  0  0  0
  -28.2683  -23.4561   17.8022 H   0  0  0  0  0  0
  -29.8042  -23.0013   18.4483 H   0  0  0  0  0  0
  -28.8696  -20.9361   18.7333 H   0  0  0  0  0  0
  -27.2837  -21.5513   18.3950 H   0  0  0  0  0  0
  -29.5063  -24.1286   20.4476 H   0  0  0  0  0  0
  -32.0845  -18.8302   20.7305 H   0  0  0  0  0  0
  -32.0201  -17.3549   19.7713 H   0  0  0  0  0  0
  -32.2671  -17.2699   21.5217 H   0  0  0  0  0  0
  -26.4629  -20.1370   21.5159 H   0  0  0  0  0  0
  -26.5215  -19.8567   19.8256 H   0  0  0  0  0  0
  -27.9540  -25.6740   18.3157 H   0  0  0  0  0  0
  -29.6072  -25.7757   18.7390 H   0  0  0  0  0  0
  -31.1565  -15.5680   22.1042 H   0  0  0  0  0  0
  1 25  1  0  0  0
  1 30  2  0  0  0
  1 86  1  0  0  0
  2  3  1  0  0  0
  2 25  1  0  0  0
  2 88  1  0  0  0
  2 89  1  0  0  0
  3  4  1  0  0  0
  3 90  1  0  0  0
  3 91  1  0  0  0
  4  5  1  0  0  0
  4 92  1  0  0  0
  4 93  1  0  0  0
  5  6  1  0  0  0
  5 26  1  0  0  0
  5 94  1  0  0  0
  6 25  1  0  0  0
  6 95  1  0  0  0
  6 96  1  0  0  0
  7  8  2  0  0  0
  7 26  1  0  0  0
  7 29  1  0  0  0
  8  9  1  0  0  0
  8 22  1  0  0  0
  9 10  1  0  0  0
  9 27  2  0  0  0
 10 11  2  0  0  0
 10 15  1  0  0  0
 11 12  1  0  0  0
 11 97  1  0  0  0
 12 13  2  0  0  0
 12 98  1  0  0  0
 13 14  1  0  0  0
 13 31  1  0  0  0
 14 15  2  0  0  0
 14 99  1  0  0  0
 15100  1  0  0  0
 16 17  2  0  0  0
 16 21  1  0  0  0
 16 31  1  0  0  0
 17 18  1  0  0  0
 17101  1  0  0  0
 18 19  2  0  0  0
 18102  1  0  0  0
 19 20  1  0  0  0
 19 24  1  0  0  0
 20 21  2  0  0  0
 20103  1  0  0  0
 21 23  1  0  0  0
 22 28  1  0  0  0
 22 32  2  0  0  0
 26 27  1  0  0  0
 28104  1  0  0  0
 28105  1  0  0  0
 29106  1  0  0  0
 29107  1  0  0  0
 33 34  1  0  0  0
 33 66  1  0  0  0
 33 70  2  0  0  0
 34 36  1  0  0  0
 34 59  1  0  0  0
 34108  1  0  0  0
 35 44  2  0  0  0
 35 45  1  0  0  0
 35 68  1  0  0  0
 36 56  1  0  0  0
 36109  1  0  0  0
 37 39  1  0  0  0
 37 47  1  0  0  0
 37 66  1  0  0  0
 37110  1  0  0  0
 38 43  2  0  0  0
 38 46  1  0  0  0
 38 47  1  0  0  0
 39 64  1  0  0  0
 39 67  2  0  0  0
 40 52  1  0  0  0
 40 53  2  0  0  0
 40 58  1  0  0  0
 41111  1  0  0  0
 41112  1  0  0  0
 41113  1  0  0  0
 41 48  1  0  0  0
 42 43  1  0  0  0
 42 66  1  0  0  0
 42114  1  0  0  0
 42115  1  0  0  0
 43 44  1  0  0  0
 44116  1  0  0  0
 45 46  2  0  0  0
 45117  1  0  0  0
 46118  1  0  0  0
 47119  1  0  0  0
 47120  1  0  0  0
 48 56  1  0  0  0
 48 65  1  0  0  0
 48121  1  0  0  0
 49 50  1  0  0  0
 49 53  1  0  0  0
 49 64  1  0  0  0
 49122  1  0  0  0
 50 51  1  0  0  0
 50123  1  0  0  0
 50124  1  0  0  0
 51 52  1  0  0  0
 51125  1  0  0  0
 51126  1  0  0  0
 52127  1  0  0  0
 52128  1  0  0  0
 53 54  1  0  0  0
 54 55  2  0  0  0
 54129  1  0  0  0
 55 57  1  0  0  0
 55130  1  0  0  0
 56 69  2  0  0  0
 57 58  2  0  0  0
 57131  1  0  0  0
 58132  1  0  0  0
 59 60  1  0  0  0
 59 61  1  0  0  0
 59 62  1  0  0  0
 60133  1  0  0  0
 60134  1  0  0  0
 60135  1  0  0  0
 61136  1  0  0  0
 61137  1  0  0  0
 61138  1  0  0  0
 62139  1  0  0  0
 62140  1  0  0  0
 62141  1  0  0  0
 63 65  1  0  0  0
 63142  1  0  0  0
 63143  1  0  0  0
 63144  1  0  0  0
 64145  1  0  0  0
 65146  1  0  0  0
 68 84  1  0  0  0
 71 72  2  0  0  0
 71 74  1  0  0  0
 71147  1  0  0  0
 72 76  1  0  0  0
 72148  1  0  0  0
 73 74  2  0  0  0
 73 75  1  0  0  0
 73149  1  0  0  0
 74 83  1  0  0  0
 75 76  2  0  0  0
 75 82  1  0  0  0
 76 86  1  0  0  0
 77 78  1  0  0  0
 77 85  1  0  0  0
 77 87  2  0  0  0
 78 81  1  0  0  0
 78150  1  0  0  0
 78151  1  0  0  0
 79 80  1  0  0  0
 79 81  1  0  0  0
 79152  1  0  0  0
 79153  1  0  0  0
 80 85  1  0  0  0
 80154  1  0  0  0
 80155  1  0  0  0
 81 84  1  0  0  0
 81156  1  0  0  0
 82157  1  0  0  0
 82158  1  0  0  0
 82159  1  0  0  0
 83 85  1  0  0  0
 83160  1  0  0  0
 83161  1  0  0  0
 84162  1  0  0  0
 84163  1  0  0  0
 86164  1  0  0  0
M  ISO  4   1 100  68 101  84 101  86 100
M  END
> <chiral flag>
0

> <version>
0

> <s_m_source_file>
/data/baiqing/PycharmProjects/Reinvent-master-3.2/result/LINK_invent/BTK/process_docking_weight1_custom_product_contain_oxygen_bond_distance_aromatic_linkinvent_7_9_3/rearranged_h_0052.sdf

> <i_m_source_file_index>
72

> <r_mmod_Potential_Energy-OPLS-2005>
17.9263343811035

> <r_mmod_Stretch_Energy-OPLS-2005>
42.7345008850098

> <r_mmod_Bend_Energy-OPLS-2005>
137.033737182617

> <r_mmod_Torsional_Energy-OPLS-2005>
300.270690917969

> <r_mmod_Improper_Torsional_Energy-OPLS-2005>
10.0970602035522

> <r_mmod_Van_der_Waal_Energy-OPLS-2005>
156.465744018555

> <r_mmod_Electrostatic_Energy-OPLS-2005>
-427.259033203125

> <r_mmod_Solvation_Energy-OPLS-2005>
-212.410186767578

> <b_mmod_Minimization_Converged-OPLS-2005>
0

> <r_mmod_RMS_Derivative-OPLS-2005>
1.74563527107239

$$$$
72
                    3D
 Structure written by MMmdl.
161169  0  0  1  0            999 V2000
  -30.6610  -14.6241   20.5526 C   0  0  0  0  0  0
  -30.4271  -12.4044   19.4400 C   0  0  0  0  0  0
  -29.4975  -12.5150   18.2141 C   0  0  0  0  0  0
  -28.0220  -12.3524   18.6293 C   0  0  0  0  0  0
  -27.6473  -13.2223   19.8594 C   0  0  2  0  0  0
  -28.6930  -13.0869   20.9862 C   0  0  0  0  0  0
  -25.2527  -13.8186   20.5690 C   0  0  0  0  0  0
  -24.1808  -13.0441   20.9202 C   0  0  0  0  0  0
  -24.6385  -11.6913   20.8743 C   0  0  0  0  0  0
  -23.9063  -10.4293   21.0403 C   0  0  0  0  0  0
  -24.3617   -9.4210   21.9181 C   0  0  0  0  0  0
  -23.6293   -8.2244   22.0750 C   0  0  0  0  0  0
  -22.4277   -8.0280   21.3542 C   0  0  0  0  0  0
  -21.9911   -9.0254   20.4645 C   0  0  0  0  0  0
  -22.7235  -10.2134   20.3052 C   0  0  0  0  0  0
  -21.6855   -6.0735   22.5279 C   0  0  0  0  0  0
  -21.4013   -6.5638   23.8213 C   0  0  0  0  0  0
  -21.3659   -5.6791   24.9174 C   0  0  0  0  0  0
  -21.6045   -4.3053   24.7223 C   0  0  0  0  0  0
  -21.8818   -3.8147   23.4346 C   0  0  0  0  0  0
  -21.9192   -4.6964   22.3402 C   0  0  0  0  0  0
  -22.7830  -13.5226   21.1865 C   0  0  0  0  0  0
  -22.1661   -4.2151   21.0979 F   0  0  0  0  0  0
  -21.5628   -3.4537   25.7736 F   0  0  0  0  0  0
  -30.0000  -13.4319   20.4108 N   0  0  0  0  0  0
  -26.2956  -12.9378   20.3314 N   0  0  0  0  0  0
  -25.9313  -11.6526   20.5755 N   0  0  0  0  0  0
  -22.0476  -12.8214   22.0420 N   0  0  0  0  0  0
  -25.4221  -15.1908   20.4086 N   0  0  0  0  0  0
  -31.8135  -14.7640   20.1336 O   0  0  0  0  0  0
  -21.6640   -6.8879   21.4241 O   0  0  0  0  0  0
  -22.3513  -14.5531   20.6710 O   0  0  0  0  0  0
  -24.6249  -31.8599   23.2017 C   0  0  0  0  0  0
  -25.9104  -32.4781   23.8342 C   0  0  1  0  0  0
  -27.2211  -27.3223   20.1273 C   0  0  0  0  0  0
  -25.5922  -33.8585   24.2275 N   0  0  0  0  0  0
  -23.4178  -30.4815   21.5442 C   0  0  2  0  0  0
  -24.8637  -28.9259   20.1202 C   0  0  0  0  0  0
  -22.7460  -29.4625   22.4951 C   0  0  0  0  0  0
  -18.0282  -28.1386   22.8489 C   0  0  0  0  0  0
  -24.1485  -36.7288   23.2638 C   0  0  0  0  0  0
  -25.9568  -30.7894   21.3714 C   0  0  0  0  0  0
  -26.0312  -29.4132   20.7220 C   0  0  0  0  0  0
  -27.2169  -28.6224   20.7166 C   0  0  0  0  0  0
  -26.0351  -26.8732   19.5152 C   0  0  0  0  0  0
  -24.8645  -27.6594   19.5111 C   0  0  0  0  0  0
  -23.6324  -29.8091   20.1622 C   0  0  0  0  0  0
  -25.4113  -36.3087   24.0331 C   0  0  1  0  0  0
  -20.5881  -28.3681   23.1296 C   0  0  2  0  0  0
  -20.6771  -26.9409   22.5415 C   0  0  0  0  0  0
  -19.5751  -26.6386   21.5214 C   0  0  0  0  0  0
  -18.1929  -26.7929   22.1622 C   0  0  0  0  0  0
  -19.1536  -28.8850   23.2883 C   0  0  0  0  0  0
  -18.9465  -30.1457   23.8894 C   0  0  0  0  0  0
  -17.6468  -30.6588   24.0562 C   0  0  0  0  0  0
  -25.9051  -34.9457   23.5101 C   0  0  0  0  0  0
  -16.5354  -29.9085   23.6338 C   0  0  0  0  0  0
  -16.7266  -28.6502   23.0358 C   0  0  0  0  0  0
  -26.4490  -31.6590   25.0711 C   0  0  0  0  0  0
  -25.3727  -31.3749   26.1439 C   0  0  0  0  0  0
  -27.0321  -30.3009   24.6165 C   0  0  0  0  0  0
  -27.6051  -32.4318   25.7485 C   0  0  0  0  0  0
  -27.5578  -37.1795   24.8467 C   0  0  0  0  0  0
  -21.4176  -29.3034   22.3686 N   0  0  0  0  0  0
  -26.4290  -37.3781   23.9409 N   0  0  0  0  0  0
  -24.6853  -31.0616   22.0959 N   0  0  0  0  0  0
  -23.4187  -28.8170   23.3033 O   0  0  0  0  0  0
  -28.3439  -26.4970   20.0616 O   0  0  0  0  0  0
  -26.5616  -34.8925   22.4669 O   0  0  0  0  0  0
  -23.5419  -32.1391   23.7365 O   0  0  0  0  0  0
  -31.6326  -17.2743   24.0269 C   0  0  0  0  0  0
  -30.6448  -19.0716   22.7634 C   0  0  0  0  0  0
  -31.1371  -16.3381   23.1010 C   0  0  0  0  0  0
  -30.1724  -18.1914   21.7553 C   0  0  0  0  0  0
  -30.4391  -16.7574   21.9153 C   0  0  0  0  0  0
  -31.3879  -18.6362   23.8628 C   0  0  0  0  0  0
  -28.9926  -22.8055   20.7049 C   0  0  0  0  0  0
  -28.1729  -23.8992   20.5276 C   0  0  0  0  0  0
  -28.5929  -21.3832   20.4561 C   0  0  0  0  0  0
  -31.3562  -14.8777   23.4879 C   0  0  0  0  0  0
  -30.9690  -20.7824   20.0991 C   0  0  0  0  0  0
  -29.3872  -18.9108   20.5998 C   0  0  0  0  0  0
  -28.4485  -25.3707   20.9993 C   0  0  0  0  0  0
  -29.9528  -15.6977   21.0377 N   0  0  0  0  0  0
  -29.5862  -20.4183   20.4384 N   0  0  0  0  0  0
  -27.4076  -21.0516   20.3729 O   0  0  0  0  0  0
  -31.9719  -19.7719   25.0232 Cl  0  0  0  0  0  0
  -31.4672  -12.5274   19.1335 H   0  0  0  0  0  0
  -30.3639  -11.4109   19.8865 H   0  0  0  0  0  0
  -29.7621  -11.7629   17.4696 H   0  0  0  0  0  0
  -29.6385  -13.4846   17.7337 H   0  0  0  0  0  0
  -27.8561  -11.2990   18.8570 H   0  0  0  0  0  0
  -27.3671  -12.5884   17.7895 H   0  0  0  0  0  0
  -27.6635  -14.2581   19.5194 H   0  0  0  0  0  0
  -28.7096  -12.0673   21.3737 H   0  0  0  0  0  0
  -28.4369  -13.7246   21.8336 H   0  0  0  0  0  0
  -25.2763   -9.5687   22.4753 H   0  0  0  0  0  0
  -24.0006   -7.4633   22.7463 H   0  0  0  0  0  0
  -21.0844   -8.8769   19.8945 H   0  0  0  0  0  0
  -22.3694  -10.9672   19.6159 H   0  0  0  0  0  0
  -21.2006   -7.6147   23.9718 H   0  0  0  0  0  0
  -21.1481   -6.0520   25.9079 H   0  0  0  0  0  0
  -22.0598   -2.7609   23.2843 H   0  0  0  0  0  0
  -22.4096  -11.9881   22.4814 H   0  0  0  0  0  0
  -21.1090  -13.1229   22.2621 H   0  0  0  0  0  0
  -24.6511  -15.8421   20.5099 H   0  0  0  0  0  0
  -26.2655  -15.6304   20.0630 H   0  0  0  0  0  0
  -26.7166  -32.5448   23.1085 H   0  0  0  0  0  0
  -25.0088  -33.9740   25.0431 H   0  0  0  0  0  0
  -22.7114  -31.3017   21.3999 H   0  0  0  0  0  0
  -23.3751  -35.9617   23.3315 H   0  0  0  0  0  0
  -24.3570  -36.8894   22.2050 H   0  0  0  0  0  0
  -23.7235  -37.6492   23.6648 H   0  0  0  0  0  0
  -26.0875  -31.5481   20.5987 H   0  0  0  0  0  0
  -26.8393  -30.8424   21.9980 H   0  0  0  0  0  0
  -28.1203  -28.9969   21.1777 H   0  0  0  0  0  0
  -26.0139  -25.9025   19.0402 H   0  0  0  0  0  0
  -23.9683  -27.2806   19.0392 H   0  0  0  0  0  0
  -23.7527  -30.5813   19.4016 H   0  0  0  0  0  0
  -22.7519  -29.2382   19.8618 H   0  0  0  0  0  0
  -25.1298  -36.1934   25.0823 H   0  0  0  0  0  0
  -20.9977  -28.3250   24.1416 H   0  0  0  0  0  0
  -20.5686  -26.2286   23.3612 H   0  0  0  0  0  0
  -21.6638  -26.7443   22.1210 H   0  0  0  0  0  0
  -19.6915  -25.6295   21.1245 H   0  0  0  0  0  0
  -19.6699  -27.3194   20.6743 H   0  0  0  0  0  0
  -17.4206  -26.6681   21.4020 H   0  0  0  0  0  0
  -18.0323  -26.0072   22.9023 H   0  0  0  0  0  0
  -19.7939  -30.7273   24.2258 H   0  0  0  0  0  0
  -17.5020  -31.6272   24.5160 H   0  0  0  0  0  0
  -15.5358  -30.2989   23.7665 H   0  0  0  0  0  0
  -15.8665  -28.0821   22.7080 H   0  0  0  0  0  0
  -24.5911  -30.7081   25.7779 H   0  0  0  0  0  0
  -24.8910  -32.2928   26.4816 H   0  0  0  0  0  0
  -25.8055  -30.8966   27.0235 H   0  0  0  0  0  0
  -26.2886  -29.6773   24.1184 H   0  0  0  0  0  0
  -27.3999  -29.7256   25.4672 H   0  0  0  0  0  0
  -27.8770  -30.4288   23.9398 H   0  0  0  0  0  0
  -27.2656  -33.3621   26.2052 H   0  0  0  0  0  0
  -28.3865  -32.6871   25.0317 H   0  0  0  0  0  0
  -28.0705  -31.8446   26.5408 H   0  0  0  0  0  0
  -28.2602  -38.0087   24.7507 H   0  0  0  0  0  0
  -28.1063  -36.2616   24.6296 H   0  0  0  0  0  0
  -27.2297  -37.1454   25.8872 H   0  0  0  0  0  0
  -20.9356  -29.8730   21.6875 H   0  0  0  0  0  0
  -26.0172  -38.2855   24.1413 H   0  0  0  0  0  0
  -32.1801  -16.9482   24.8998 H   0  0  0  0  0  0
  -30.4465  -20.1303   22.7216 H   0  0  0  0  0  0
  -29.9718  -22.9914   21.1192 H   0  0  0  0  0  0
  -27.1968  -23.7439   20.0900 H   0  0  0  0  0  0
  -31.6146  -14.7801   24.5428 H   0  0  0  0  0  0
  -32.1771  -14.4419   22.9177 H   0  0  0  0  0  0
  -30.4563  -14.2808   23.3390 H   0  0  0  0  0  0
  -31.4662  -21.2799   20.9323 H   0  0  0  0  0  0
  -31.0023  -21.4478   19.2348 H   0  0  0  0  0  0
  -31.5660  -19.9060   19.8461 H   0  0  0  0  0  0
  -28.3295  -18.6947   20.7563 H   0  0  0  0  0  0
  -29.6438  -18.4257   19.6574 H   0  0  0  0  0  0
  -29.4605  -25.3971   21.4040 H   0  0  0  0  0  0
  -27.7942  -25.5641   21.8513 H   0  0  0  0  0  0
  -28.9556  -15.5523   21.0717 H   0  0  0  0  0  0
  1 25  1  0  0  0
  1 30  2  0  0  0
  1 84  1  0  0  0
  2  3  1  0  0  0
  2 25  1  0  0  0
  2 88  1  0  0  0
  2 89  1  0  0  0
  3  4  1  0  0  0
  3 90  1  0  0  0
  3 91  1  0  0  0
  4  5  1  0  0  0
  4 92  1  0  0  0
  4 93  1  0  0  0
  5  6  1  0  0  0
  5 26  1  0  0  0
  5 94  1  0  0  0
  6 25  1  0  0  0
  6 95  1  0  0  0
  6 96  1  0  0  0
  7  8  2  0  0  0
  7 26  1  0  0  0
  7 29  1  0  0  0
  8  9  1  0  0  0
  8 22  1  0  0  0
  9 10  1  0  0  0
  9 27  2  0  0  0
 10 11  2  0  0  0
 10 15  1  0  0  0
 11 12  1  0  0  0
 11 97  1  0  0  0
 12 13  2  0  0  0
 12 98  1  0  0  0
 13 14  1  0  0  0
 13 31  1  0  0  0
 14 15  2  0  0  0
 14 99  1  0  0  0
 15100  1  0  0  0
 16 17  2  0  0  0
 16 21  1  0  0  0
 16 31  1  0  0  0
 17 18  1  0  0  0
 17101  1  0  0  0
 18 19  2  0  0  0
 18102  1  0  0  0
 19 20  1  0  0  0
 19 24  1  0  0  0
 20 21  2  0  0  0
 20103  1  0  0  0
 21 23  1  0  0  0
 22 28  1  0  0  0
 22 32  2  0  0  0
 26 27  1  0  0  0
 28104  1  0  0  0
 28105  1  0  0  0
 29106  1  0  0  0
 29107  1  0  0  0
 33 34  1  0  0  0
 33 66  1  0  0  0
 33 70  2  0  0  0
 34 36  1  0  0  0
 34 59  1  0  0  0
 34108  1  0  0  0
 35 44  2  0  0  0
 35 45  1  0  0  0
 35 68  1  0  0  0
 36 56  1  0  0  0
 36109  1  0  0  0
 37 39  1  0  0  0
 37 47  1  0  0  0
 37 66  1  0  0  0
 37110  1  0  0  0
 38 43  2  0  0  0
 38 46  1  0  0  0
 38 47  1  0  0  0
 39 64  1  0  0  0
 39 67  2  0  0  0
 40 52  1  0  0  0
 40 53  2  0  0  0
 40 58  1  0  0  0
 41111  1  0  0  0
 41112  1  0  0  0
 41113  1  0  0  0
 41 48  1  0  0  0
 42 43  1  0  0  0
 42 66  1  0  0  0
 42114  1  0  0  0
 42115  1  0  0  0
 43 44  1  0  0  0
 44116  1  0  0  0
 45 46  2  0  0  0
 45117  1  0  0  0
 46118  1  0  0  0
 47119  1  0  0  0
 47120  1  0  0  0
 48 56  1  0  0  0
 48 65  1  0  0  0
 48121  1  0  0  0
 49 50  1  0  0  0
 49 53  1  0  0  0
 49 64  1  0  0  0
 49122  1  0  0  0
 50 51  1  0  0  0
 50123  1  0  0  0
 50124  1  0  0  0
 51 52  1  0  0  0
 51125  1  0  0  0
 51126  1  0  0  0
 52127  1  0  0  0
 52128  1  0  0  0
 53 54  1  0  0  0
 54 55  2  0  0  0
 54129  1  0  0  0
 55 57  1  0  0  0
 55130  1  0  0  0
 56 69  2  0  0  0
 57 58  2  0  0  0
 57131  1  0  0  0
 58132  1  0  0  0
 59 60  1  0  0  0
 59 61  1  0  0  0
 59 62  1  0  0  0
 60133  1  0  0  0
 60134  1  0  0  0
 60135  1  0  0  0
 61136  1  0  0  0
 61137  1  0  0  0
 61138  1  0  0  0
 62139  1  0  0  0
 62140  1  0  0  0
 62141  1  0  0  0
 63 65  1  0  0  0
 63142  1  0  0  0
 63143  1  0  0  0
 63144  1  0  0  0
 64145  1  0  0  0
 65146  1  0  0  0
 68 83  1  0  0  0
 71 73  2  0  0  0
 71 76  1  0  0  0
 71147  1  0  0  0
 72 74  1  0  0  0
 72 76  2  0  0  0
 72148  1  0  0  0
 73 75  1  0  0  0
 73 80  1  0  0  0
 74 75  2  0  0  0
 74 82  1  0  0  0
 75 84  1  0  0  0
 76 87  1  0  0  0
 77 78  2  0  0  0
 77 79  1  0  0  0
 77149  1  0  0  0
 78 83  1  0  0  0
 78150  1  0  0  0
 79 85  1  0  0  0
 79 86  2  0  0  0
 80151  1  0  0  0
 80152  1  0  0  0
 80153  1  0  0  0
 81 85  1  0  0  0
 81154  1  0  0  0
 81155  1  0  0  0
 81156  1  0  0  0
 82 85  1  0  0  0
 82157  1  0  0  0
 82158  1  0  0  0
 83159  1  0  0  0
 83160  1  0  0  0
 84161  1  0  0  0
M  ISO  4   1 100  68 101  83 101  84 100
M  END
> <chiral flag>
0

> <version>
0

> <s_m_source_file>
/data/baiqing/PycharmProjects/Reinvent-master-3.2/result/LINK_invent/BTK/process_docking_weight1_custom_product_contain_oxygen_bond_distance_aromatic_linkinvent_7_9_3/rearranged_h_0052.sdf

> <i_m_source_file_index>
73

> <r_mmod_Potential_Energy-OPLS-2005>
74.9786224365234

> <r_mmod_Stretch_Energy-OPLS-2005>
93.9097518920898

> <r_mmod_Bend_Energy-OPLS-2005>
145.495193481445

> <r_mmod_Torsional_Energy-OPLS-2005>
276.835968017578

> <r_mmod_Improper_Torsional_Energy-OPLS-2005>
7.29858207702637

> <r_mmod_Van_der_Waal_Energy-OPLS-2005>
156.877487182617

> <r_mmod_Electrostatic_Energy-OPLS-2005>
-426.038391113281

> <r_mmod_Solvation_Energy-OPLS-2005>
-222.13671875

> <b_mmod_Minimization_Converged-OPLS-2005>
0

> <r_mmod_RMS_Derivative-OPLS-2005>
1.22322189807892

$$$$
73
                    3D
 Structure written by MMmdl.
154162  0  0  1  0            999 V2000
  -30.6414  -14.7540   20.5112 C   0  0  0  0  0  0
  -30.4409  -12.4783   19.4674 C   0  0  0  0  0  0
  -29.5140  -12.5303   18.2344 C   0  0  0  0  0  0
  -28.0450  -12.3436   18.6523 C   0  0  0  0  0  0
  -27.6493  -13.2348   19.8588 C   0  0  2  0  0  0
  -28.6986  -13.1767   20.9929 C   0  0  0  0  0  0
  -25.2556  -13.8198   20.5721 C   0  0  0  0  0  0
  -24.1855  -13.0422   20.9208 C   0  0  0  0  0  0
  -24.6437  -11.6899   20.8723 C   0  0  0  0  0  0
  -23.9094  -10.4277   21.0394 C   0  0  0  0  0  0
  -24.3633   -9.4205   21.9189 C   0  0  0  0  0  0
  -23.6307   -8.2247   22.0757 C   0  0  0  0  0  0
  -22.4298   -8.0280   21.3537 C   0  0  0  0  0  0
  -21.9919   -9.0261   20.4655 C   0  0  0  0  0  0
  -22.7243  -10.2138   20.3063 C   0  0  0  0  0  0
  -21.6879   -6.0741   22.5271 C   0  0  0  0  0  0
  -21.4015   -6.5644   23.8199 C   0  0  0  0  0  0
  -21.3660   -5.6803   24.9159 C   0  0  0  0  0  0
  -21.6044   -4.3067   24.7220 C   0  0  0  0  0  0
  -21.8819   -3.8153   23.4347 C   0  0  0  0  0  0
  -21.9201   -4.6966   22.3397 C   0  0  0  0  0  0
  -22.7879  -13.5217   21.1874 C   0  0  0  0  0  0
  -22.1676   -4.2161   21.0974 F   0  0  0  0  0  0
  -21.5633   -3.4541   25.7735 F   0  0  0  0  0  0
  -29.9964  -13.5367   20.4068 N   0  0  0  0  0  0
  -26.2993  -12.9407   20.3331 N   0  0  0  0  0  0
  -25.9366  -11.6544   20.5739 N   0  0  0  0  0  0
  -22.0533  -12.8194   22.0410 N   0  0  0  0  0  0
  -25.4180  -15.1932   20.4132 N   0  0  0  0  0  0
  -31.8290  -14.8374   20.1856 O   0  0  0  0  0  0
  -21.6656   -6.8880   21.4238 O   0  0  0  0  0  0
  -22.3550  -14.5533   20.6751 O   0  0  0  0  0  0
  -24.6310  -31.8489   23.2006 C   0  0  0  0  0  0
  -25.9147  -32.4703   23.8317 C   0  0  1  0  0  0
  -27.2253  -27.2545   20.1630 C   0  0  0  0  0  0
  -25.5945  -33.8506   24.2242 N   0  0  0  0  0  0
  -23.4269  -30.4778   21.5365 C   0  0  2  0  0  0
  -24.8801  -28.9229   20.1080 C   0  0  0  0  0  0
  -22.7489  -29.4590   22.4838 C   0  0  0  0  0  0
  -18.0295  -28.1382   22.8464 C   0  0  0  0  0  0
  -24.1469  -36.7283   23.2650 C   0  0  0  0  0  0
  -25.9698  -30.7692   21.3774 C   0  0  0  0  0  0
  -26.0473  -29.3925   20.7216 C   0  0  0  0  0  0
  -27.2229  -28.5733   20.7341 C   0  0  0  0  0  0
  -26.0400  -26.8554   19.5064 C   0  0  0  0  0  0
  -24.8845  -27.6660   19.4825 C   0  0  0  0  0  0
  -23.6496  -29.8123   20.1514 C   0  0  0  0  0  0
  -25.4090  -36.3036   24.0334 C   0  0  1  0  0  0
  -20.5910  -28.3695   23.1237 C   0  0  2  0  0  0
  -20.6774  -26.9409   22.5396 C   0  0  0  0  0  0
  -19.5747  -26.6374   21.5204 C   0  0  0  0  0  0
  -18.1930  -26.7917   22.1621 C   0  0  0  0  0  0
  -19.1558  -28.8848   23.2838 C   0  0  0  0  0  0
  -18.9493  -30.1453   23.8865 C   0  0  0  0  0  0
  -17.6502  -30.6586   24.0555 C   0  0  0  0  0  0
  -25.9059  -34.9408   23.5096 C   0  0  0  0  0  0
  -16.5382  -29.9098   23.6338 C   0  0  0  0  0  0
  -16.7288  -28.6515   23.0352 C   0  0  0  0  0  0
  -26.4541  -31.6539   25.0720 C   0  0  0  0  0  0
  -25.3744  -31.3731   26.1431 C   0  0  0  0  0  0
  -27.0403  -30.2958   24.6234 C   0  0  0  0  0  0
  -27.6059  -32.4339   25.7489 C   0  0  0  0  0  0
  -27.5555  -37.1776   24.8476 C   0  0  0  0  0  0
  -21.4201  -29.3040   22.3604 N   0  0  0  0  0  0
  -26.4263  -37.3747   23.9434 N   0  0  0  0  0  0
  -24.6935  -31.0496   22.0958 N   0  0  0  0  0  0
  -23.4190  -28.8108   23.2918 O   0  0  0  0  0  0
  -28.3337  -26.3743   20.2002 O   0  0  0  0  0  0
  -26.5628  -34.8897   22.4663 O   0  0  0  0  0  0
  -23.5465  -32.1333   23.7314 O   0  0  0  0  0  0
  -31.6224  -18.8122   22.4645 C   0  0  0  0  0  0
  -31.2714  -17.5151   22.0356 C   0  0  0  0  0  0
  -29.6839  -18.5221   20.5001 C   0  0  0  0  0  0
  -30.0394  -19.8886   20.8956 C   0  0  0  0  0  0
  -31.0414  -19.9853   21.9161 C   0  0  0  0  0  0
  -30.2887  -17.3091   21.0435 C   0  0  0  0  0  0
  -29.5056  -21.1578   20.1383 C   0  0  0  0  0  0
  -31.5747  -21.3162   22.4467 C   0  0  0  0  0  0
  -29.1567  -23.7709   20.0597 C   0  0  0  0  0  0
  -28.1526  -24.9272   20.5993 C   0  0  0  0  0  0
  -29.8864  -15.9034   20.7355 N   0  0  0  0  0  0
  -29.2695  -22.3905   20.7373 N   0  0  0  0  0  0
  -29.3200  -21.0433   18.9230 O   0  0  0  0  0  0
  -31.4813  -12.6113   19.1641 H   0  0  0  0  0  0
  -30.3929  -11.4976   19.9443 H   0  0  0  0  0  0
  -29.7938  -11.7606   17.5139 H   0  0  0  0  0  0
  -29.6389  -13.4903   17.7286 H   0  0  0  0  0  0
  -27.9118  -11.2944   18.9136 H   0  0  0  0  0  0
  -27.3840  -12.5346   17.8076 H   0  0  0  0  0  0
  -27.6391  -14.2566   19.4807 H   0  0  0  0  0  0
  -28.7432  -12.1830   21.4443 H   0  0  0  0  0  0
  -28.4334  -13.8674   21.7965 H   0  0  0  0  0  0
  -25.2773   -9.5712   22.4756 H   0  0  0  0  0  0
  -24.0045   -7.4641   22.7464 H   0  0  0  0  0  0
  -21.0853   -8.8753   19.8955 H   0  0  0  0  0  0
  -22.3684  -10.9678   19.6186 H   0  0  0  0  0  0
  -21.1994   -7.6150   23.9703 H   0  0  0  0  0  0
  -21.1490   -6.0533   25.9065 H   0  0  0  0  0  0
  -22.0601   -2.7621   23.2828 H   0  0  0  0  0  0
  -22.4192  -11.9882   22.4809 H   0  0  0  0  0  0
  -21.1137  -13.1192   22.2583 H   0  0  0  0  0  0
  -24.6447  -15.8362   20.5366 H   0  0  0  0  0  0
  -26.2492  -15.6407   20.0496 H   0  0  0  0  0  0
  -26.7170  -32.5327   23.1008 H   0  0  0  0  0  0
  -25.0048  -33.9623   25.0353 H   0  0  0  0  0  0
  -22.7228  -31.3002   21.3873 H   0  0  0  0  0  0
  -23.3725  -35.9623   23.3333 H   0  0  0  0  0  0
  -24.3547  -36.8894   22.2063 H   0  0  0  0  0  0
  -23.7247  -37.6494   23.6664 H   0  0  0  0  0  0
  -26.1063  -31.5327   20.6108 H   0  0  0  0  0  0
  -26.8477  -30.8162   22.0106 H   0  0  0  0  0  0
  -28.1131  -28.9362   21.2290 H   0  0  0  0  0  0
  -25.9842  -25.8952   19.0105 H   0  0  0  0  0  0
  -23.9956  -27.3082   18.9842 H   0  0  0  0  0  0
  -23.7774  -30.5907   19.3989 H   0  0  0  0  0  0
  -22.7665  -29.2476   19.8435 H   0  0  0  0  0  0
  -25.1247  -36.1868   25.0820 H   0  0  0  0  0  0
  -20.9990  -28.3291   24.1358 H   0  0  0  0  0  0
  -20.5655  -26.2306   23.3611 H   0  0  0  0  0  0
  -21.6640  -26.7398   22.1189 H   0  0  0  0  0  0
  -19.6939  -25.6282   21.1240 H   0  0  0  0  0  0
  -19.6717  -27.3159   20.6711 H   0  0  0  0  0  0
  -17.4194  -26.6667   21.4025 H   0  0  0  0  0  0
  -18.0349  -26.0052   22.9006 H   0  0  0  0  0  0
  -19.7983  -30.7260   24.2213 H   0  0  0  0  0  0
  -17.5081  -31.6267   24.5160 H   0  0  0  0  0  0
  -15.5392  -30.3001   23.7688 H   0  0  0  0  0  0
  -15.8681  -28.0840   22.7079 H   0  0  0  0  0  0
  -24.5919  -30.7075   25.7785 H   0  0  0  0  0  0
  -24.8944  -32.2916   26.4820 H   0  0  0  0  0  0
  -25.8050  -30.8941   27.0244 H   0  0  0  0  0  0
  -26.3009  -29.6662   24.1274 H   0  0  0  0  0  0
  -27.4098  -29.7266   25.4778 H   0  0  0  0  0  0
  -27.8865  -30.4227   23.9474 H   0  0  0  0  0  0
  -27.2637  -33.3654   26.2028 H   0  0  0  0  0  0
  -28.3889  -32.6900   25.0326 H   0  0  0  0  0  0
  -28.0716  -31.8504   26.5452 H   0  0  0  0  0  0
  -28.2550  -38.0084   24.7478 H   0  0  0  0  0  0
  -28.1059  -36.2604   24.6316 H   0  0  0  0  0  0
  -27.2283  -37.1452   25.8883 H   0  0  0  0  0  0
  -20.9397  -29.8798   21.6843 H   0  0  0  0  0  0
  -26.0144  -38.2809   24.1473 H   0  0  0  0  0  0
  -32.3738  -18.9021   23.2394 H   0  0  0  0  0  0
  -31.7460  -16.6670   22.5105 H   0  0  0  0  0  0
  -28.9337  -18.4099   19.7271 H   0  0  0  0  0  0
  -30.8786  -21.7709   23.1509 H   0  0  0  0  0  0
  -31.7796  -22.0278   21.6453 H   0  0  0  0  0  0
  -32.5132  -21.1720   22.9856 H   0  0  0  0  0  0
  -30.1630  -24.1920   20.0905 H   0  0  0  0  0  0
  -28.9426  -23.6310   18.9995 H   0  0  0  0  0  0
  -28.1881  -24.9057   21.6884 H   0  0  0  0  0  0
  -27.1444  -24.5947   20.3605 H   0  0  0  0  0  0
  -28.8922  -15.7360   20.7833 H   0  0  0  0  0  0
  -29.3744  -22.4059   21.7431 H   0  0  0  0  0  0
  1 25  1  0  0  0
  1 30  2  0  0  0
  1 81  1  0  0  0
  2  3  1  0  0  0
  2 25  1  0  0  0
  2 84  1  0  0  0
  2 85  1  0  0  0
  3  4  1  0  0  0
  3 86  1  0  0  0
  3 87  1  0  0  0
  4  5  1  0  0  0
  4 88  1  0  0  0
  4 89  1  0  0  0
  5  6  1  0  0  0
  5 26  1  0  0  0
  5 90  1  0  0  0
  6 25  1  0  0  0
  6 91  1  0  0  0
  6 92  1  0  0  0
  7  8  2  0  0  0
  7 26  1  0  0  0
  7 29  1  0  0  0
  8  9  1  0  0  0
  8 22  1  0  0  0
  9 10  1  0  0  0
  9 27  2  0  0  0
 10 11  2  0  0  0
 10 15  1  0  0  0
 11 12  1  0  0  0
 11 93  1  0  0  0
 12 13  2  0  0  0
 12 94  1  0  0  0
 13 14  1  0  0  0
 13 31  1  0  0  0
 14 15  2  0  0  0
 14 95  1  0  0  0
 15 96  1  0  0  0
 16 17  2  0  0  0
 16 21  1  0  0  0
 16 31  1  0  0  0
 17 18  1  0  0  0
 17 97  1  0  0  0
 18 19  2  0  0  0
 18 98  1  0  0  0
 19 20  1  0  0  0
 19 24  1  0  0  0
 20 21  2  0  0  0
 20 99  1  0  0  0
 21 23  1  0  0  0
 22 28  1  0  0  0
 22 32  2  0  0  0
 26 27  1  0  0  0
 28100  1  0  0  0
 28101  1  0  0  0
 29102  1  0  0  0
 29103  1  0  0  0
 33 34  1  0  0  0
 33 66  1  0  0  0
 33 70  2  0  0  0
 34 36  1  0  0  0
 34 59  1  0  0  0
 34104  1  0  0  0
 35 44  2  0  0  0
 35 45  1  0  0  0
 35 68  1  0  0  0
 36 56  1  0  0  0
 36105  1  0  0  0
 37 39  1  0  0  0
 37 47  1  0  0  0
 37 66  1  0  0  0
 37106  1  0  0  0
 38 43  2  0  0  0
 38 46  1  0  0  0
 38 47  1  0  0  0
 39 64  1  0  0  0
 39 67  2  0  0  0
 40 52  1  0  0  0
 40 53  2  0  0  0
 40 58  1  0  0  0
 41107  1  0  0  0
 41108  1  0  0  0
 41109  1  0  0  0
 41 48  1  0  0  0
 42 43  1  0  0  0
 42 66  1  0  0  0
 42110  1  0  0  0
 42111  1  0  0  0
 43 44  1  0  0  0
 44112  1  0  0  0
 45 46  2  0  0  0
 45113  1  0  0  0
 46114  1  0  0  0
 47115  1  0  0  0
 47116  1  0  0  0
 48 56  1  0  0  0
 48 65  1  0  0  0
 48117  1  0  0  0
 49 50  1  0  0  0
 49 53  1  0  0  0
 49 64  1  0  0  0
 49118  1  0  0  0
 50 51  1  0  0  0
 50119  1  0  0  0
 50120  1  0  0  0
 51 52  1  0  0  0
 51121  1  0  0  0
 51122  1  0  0  0
 52123  1  0  0  0
 52124  1  0  0  0
 53 54  1  0  0  0
 54 55  2  0  0  0
 54125  1  0  0  0
 55 57  1  0  0  0
 55126  1  0  0  0
 56 69  2  0  0  0
 57 58  2  0  0  0
 57127  1  0  0  0
 58128  1  0  0  0
 59 60  1  0  0  0
 59 61  1  0  0  0
 59 62  1  0  0  0
 60129  1  0  0  0
 60130  1  0  0  0
 60131  1  0  0  0
 61132  1  0  0  0
 61133  1  0  0  0
 61134  1  0  0  0
 62135  1  0  0  0
 62136  1  0  0  0
 62137  1  0  0  0
 63 65  1  0  0  0
 63138  1  0  0  0
 63139  1  0  0  0
 63140  1  0  0  0
 64141  1  0  0  0
 65142  1  0  0  0
 68 80  1  0  0  0
 71 72  2  0  0  0
 71 75  1  0  0  0
 71143  1  0  0  0
 72 76  1  0  0  0
 72144  1  0  0  0
 73 74  1  0  0  0
 73 76  2  0  0  0
 73145  1  0  0  0
 74 75  2  0  0  0
 74 77  1  0  0  0
 75 78  1  0  0  0
 76 81  1  0  0  0
 77 82  1  0  0  0
 77 83  2  0  0  0
 78146  1  0  0  0
 78147  1  0  0  0
 78148  1  0  0  0
 79 80  1  0  0  0
 79 82  1  0  0  0
 79149  1  0  0  0
 79150  1  0  0  0
 80151  1  0  0  0
 80152  1  0  0  0
 81153  1  0  0  0
 82154  1  0  0  0
M  ISO  4   1 100  68 101  80 101  81 100
M  END
> <chiral flag>
0

> <version>
0

> <s_m_source_file>
/data/baiqing/PycharmProjects/Reinvent-master-3.2/result/LINK_invent/BTK/process_docking_weight1_custom_product_contain_oxygen_bond_distance_aromatic_linkinvent_7_9_3/rearranged_h_0052.sdf

> <i_m_source_file_index>
74

> <r_mmod_Potential_Energy-OPLS-2005>
127.453147888184

> <r_mmod_Stretch_Energy-OPLS-2005>
136.760192871094

> <r_mmod_Bend_Energy-OPLS-2005>
166.690521240234

> <r_mmod_Torsional_Energy-OPLS-2005>
256.577423095703

> <r_mmod_Improper_Torsional_Energy-OPLS-2005>
7.30554676055908

> <r_mmod_Van_der_Waal_Energy-OPLS-2005>
139.038635253906

> <r_mmod_Electrostatic_Energy-OPLS-2005>
-429.082214355469

> <r_mmod_Solvation_Energy-OPLS-2005>
-236.640396118164

> <b_mmod_Minimization_Converged-OPLS-2005>
0

> <r_mmod_RMS_Derivative-OPLS-2005>
4.89915037155151

$$$$
74
                    3D
 Structure written by MMmdl.
157165  0  0  1  0            999 V2000
  -30.5906  -14.7988   20.4345 C   0  0  0  0  0  0
  -30.4417  -12.4936   19.4666 C   0  0  0  0  0  0
  -29.5200  -12.5396   18.2278 C   0  0  0  0  0  0
  -28.0394  -12.3716   18.6269 C   0  0  0  0  0  0
  -27.6425  -13.2473   19.8450 C   0  0  2  0  0  0
  -28.6897  -13.1913   20.9800 C   0  0  0  0  0  0
  -25.2500  -13.8214   20.5667 C   0  0  0  0  0  0
  -24.1814  -13.0464   20.9200 C   0  0  0  0  0  0
  -24.6437  -11.6944   20.8717 C   0  0  0  0  0  0
  -23.9108  -10.4320   21.0346 C   0  0  0  0  0  0
  -24.3643   -9.4206   21.9117 C   0  0  0  0  0  0
  -23.6311   -8.2247   22.0717 C   0  0  0  0  0  0
  -22.4284   -8.0293   21.3529 C   0  0  0  0  0  0
  -21.9927   -9.0257   20.4598 C   0  0  0  0  0  0
  -22.7267  -10.2141   20.2982 C   0  0  0  0  0  0
  -21.6873   -6.0723   22.5250 C   0  0  0  0  0  0
  -21.4035   -6.5625   23.8184 C   0  0  0  0  0  0
  -21.3666   -5.6764   24.9141 C   0  0  0  0  0  0
  -21.6053   -4.3031   24.7177 C   0  0  0  0  0  0
  -21.8836   -3.8136   23.4298 C   0  0  0  0  0  0
  -21.9219   -4.6958   22.3367 C   0  0  0  0  0  0
  -22.7818  -13.5211   21.1866 C   0  0  0  0  0  0
  -22.1670   -4.2156   21.0940 F   0  0  0  0  0  0
  -21.5636   -3.4498   25.7691 F   0  0  0  0  0  0
  -29.9889  -13.5547   20.3992 N   0  0  0  0  0  0
  -26.2961  -12.9473   20.3217 N   0  0  0  0  0  0
  -25.9372  -11.6609   20.5690 N   0  0  0  0  0  0
  -22.0512  -12.8176   22.0416 N   0  0  0  0  0  0
  -25.4173  -15.1942   20.4059 N   0  0  0  0  0  0
  -31.7780  -14.9061   20.1154 O   0  0  0  0  0  0
  -21.6664   -6.8880   21.4224 O   0  0  0  0  0  0
  -22.3472  -14.5499   20.6677 O   0  0  0  0  0  0
  -24.6373  -31.8493   23.1920 C   0  0  0  0  0  0
  -25.9184  -32.4718   23.8273 C   0  0  1  0  0  0
  -27.2315  -27.2435   20.1365 C   0  0  0  0  0  0
  -25.5958  -33.8506   24.2165 N   0  0  0  0  0  0
  -23.4379  -30.4697   21.5338 C   0  0  2  0  0  0
  -24.8884  -28.9113   20.1090 C   0  0  0  0  0  0
  -22.7538  -29.4541   22.4812 C   0  0  0  0  0  0
  -18.0321  -28.1435   22.8457 C   0  0  0  0  0  0
  -24.1514  -36.7275   23.2637 C   0  0  0  0  0  0
  -25.9889  -30.7627   21.3720 C   0  0  0  0  0  0
  -26.0633  -29.3827   20.7126 C   0  0  0  0  0  0
  -27.2444  -28.5701   20.6930 C   0  0  0  0  0  0
  -26.0314  -26.8335   19.5222 C   0  0  0  0  0  0
  -24.8789  -27.6483   19.4965 C   0  0  0  0  0  0
  -23.6586  -29.7987   20.1536 C   0  0  0  0  0  0
  -25.4138  -36.3010   24.0290 C   0  0  1  0  0  0
  -20.5937  -28.3726   23.1260 C   0  0  2  0  0  0
  -20.6803  -26.9420   22.5420 C   0  0  0  0  0  0
  -19.5779  -26.6384   21.5224 C   0  0  0  0  0  0
  -18.1955  -26.7974   22.1617 C   0  0  0  0  0  0
  -19.1575  -28.8893   23.2853 C   0  0  0  0  0  0
  -18.9491  -30.1502   23.8865 C   0  0  0  0  0  0
  -17.6478  -30.6609   24.0585 C   0  0  0  0  0  0
  -25.9079  -34.9389   23.5012 C   0  0  0  0  0  0
  -16.5371  -29.9103   23.6354 C   0  0  0  0  0  0
  -16.7306  -28.6547   23.0330 C   0  0  0  0  0  0
  -26.4530  -31.6587   25.0705 C   0  0  0  0  0  0
  -25.3722  -31.3788   26.1412 C   0  0  0  0  0  0
  -27.0435  -30.2996   24.6265 C   0  0  0  0  0  0
  -27.6061  -32.4363   25.7499 C   0  0  0  0  0  0
  -27.5570  -37.1775   24.8432 C   0  0  0  0  0  0
  -21.4226  -29.3056   22.3606 N   0  0  0  0  0  0
  -26.4294  -37.3726   23.9380 N   0  0  0  0  0  0
  -24.7068  -31.0445   22.0881 N   0  0  0  0  0  0
  -23.4206  -28.8082   23.2930 O   0  0  0  0  0  0
  -28.3313  -26.3538   20.0919 O   0  0  0  0  0  0
  -26.5655  -34.8875   22.4584 O   0  0  0  0  0  0
  -23.5530  -32.1294   23.7224 O   0  0  0  0  0  0
  -29.3111  -20.5152   22.8327 C   0  0  0  0  0  0
  -29.6252  -19.8392   24.0211 C   0  0  0  0  0  0
  -30.1553  -17.8801   22.7284 C   0  0  0  0  0  0
  -29.4518  -19.9485   21.5364 C   0  0  0  0  0  0
  -29.8221  -18.4988   21.4969 C   0  0  0  0  0  0
  -30.0841  -18.5264   23.9648 C   0  0  0  0  0  0
  -28.4161  -23.6115   20.2286 C   0  0  0  0  0  0
  -30.5056  -22.9607   21.3295 C   0  0  0  0  0  0
  -29.1547  -21.0364   20.3856 C   0  0  0  0  0  0
  -29.9839  -17.4365   20.3172 C   0  0  0  0  0  0
  -28.3378  -25.0867   20.9156 C   0  0  0  0  0  0
  -29.7868  -15.9235   20.6067 N   0  0  0  0  0  0
  -29.2472  -22.5694   20.6818 N   0  0  0  0  0  0
  -27.6164  -23.3871   19.3152 O   0  0  0  0  0  0
  -30.5610  -17.6982   25.4022 Cl  0  0  0  0  0  0
  -31.4798  -12.6333   19.1592 H   0  0  0  0  0  0
  -30.4004  -11.5158   19.9468 H   0  0  0  0  0  0
  -29.8034  -11.7700   17.5075 H   0  0  0  0  0  0
  -29.6483  -13.4996   17.7244 H   0  0  0  0  0  0
  -27.8665  -11.3164   18.8433 H   0  0  0  0  0  0
  -27.4041  -12.6131   17.7712 H   0  0  0  0  0  0
  -27.6278  -14.2720   19.4758 H   0  0  0  0  0  0
  -28.7399  -12.1984   21.4272 H   0  0  0  0  0  0
  -28.4116  -13.8822   21.7785 H   0  0  0  0  0  0
  -25.2798   -9.5701   22.4673 H   0  0  0  0  0  0
  -24.0048   -7.4633   22.7411 H   0  0  0  0  0  0
  -21.0887   -8.8762   19.8863 H   0  0  0  0  0  0
  -22.3727  -10.9670   19.6085 H   0  0  0  0  0  0
  -21.2015   -7.6130   23.9703 H   0  0  0  0  0  0
  -21.1479   -6.0464   25.9047 H   0  0  0  0  0  0
  -22.0623   -2.7603   23.2776 H   0  0  0  0  0  0
  -22.4187  -11.9900   22.4852 H   0  0  0  0  0  0
  -21.1077  -13.1087   22.2549 H   0  0  0  0  0  0
  -24.6501  -15.8478   20.5024 H   0  0  0  0  0  0
  -26.2524  -15.6324   20.0414 H   0  0  0  0  0  0
  -26.7261  -32.5339   23.1025 H   0  0  0  0  0  0
  -25.0135  -33.9637   25.0337 H   0  0  0  0  0  0
  -22.7380  -31.2933   21.3791 H   0  0  0  0  0  0
  -23.3752  -35.9633   23.3270 H   0  0  0  0  0  0
  -24.3609  -36.8955   22.2058 H   0  0  0  0  0  0
  -23.7322  -37.6469   23.6735 H   0  0  0  0  0  0
  -26.1412  -31.5286   20.6092 H   0  0  0  0  0  0
  -26.8640  -30.8003   22.0102 H   0  0  0  0  0  0
  -28.1618  -28.9498   21.1228 H   0  0  0  0  0  0
  -25.9861  -25.8573   19.0612 H   0  0  0  0  0  0
  -23.9827  -27.2847   19.0123 H   0  0  0  0  0  0
  -23.7814  -30.5758   19.3975 H   0  0  0  0  0  0
  -22.7813  -29.2260   19.8470 H   0  0  0  0  0  0
  -25.1336  -36.1804   25.0793 H   0  0  0  0  0  0
  -21.0042  -28.3327   24.1376 H   0  0  0  0  0  0
  -20.5728  -26.2290   23.3618 H   0  0  0  0  0  0
  -21.6660  -26.7434   22.1181 H   0  0  0  0  0  0
  -19.6920  -25.6272   21.1297 H   0  0  0  0  0  0
  -19.6792  -27.3157   20.6737 H   0  0  0  0  0  0
  -17.4221  -26.6733   21.4024 H   0  0  0  0  0  0
  -18.0345  -26.0150   22.9048 H   0  0  0  0  0  0
  -19.7961  -30.7363   24.2167 H   0  0  0  0  0  0
  -17.5035  -31.6286   24.5214 H   0  0  0  0  0  0
  -15.5374  -30.3008   23.7714 H   0  0  0  0  0  0
  -15.8704  -28.0905   22.7001 H   0  0  0  0  0  0
  -24.5866  -30.7186   25.7707 H   0  0  0  0  0  0
  -24.8982  -32.3004   26.4782 H   0  0  0  0  0  0
  -25.7990  -30.8957   27.0206 H   0  0  0  0  0  0
  -26.3069  -29.6686   24.1283 H   0  0  0  0  0  0
  -27.4097  -29.7303   25.4811 H   0  0  0  0  0  0
  -27.8924  -30.4238   23.9546 H   0  0  0  0  0  0
  -27.2624  -33.3643   26.2063 H   0  0  0  0  0  0
  -28.3896  -32.6957   25.0367 H   0  0  0  0  0  0
  -28.0730  -31.8521   26.5434 H   0  0  0  0  0  0
  -28.2522  -38.0128   24.7500 H   0  0  0  0  0  0
  -28.1123  -36.2633   24.6233 H   0  0  0  0  0  0
  -27.2270  -37.1380   25.8831 H   0  0  0  0  0  0
  -20.9384  -29.8737   21.6794 H   0  0  0  0  0  0
  -26.0120  -38.2768   24.1447 H   0  0  0  0  0  0
  -28.9709  -21.5304   22.9604 H   0  0  0  0  0  0
  -29.5317  -20.3348   24.9766 H   0  0  0  0  0  0
  -30.5070  -16.8631   22.7568 H   0  0  0  0  0  0
  -30.9611  -23.8219   20.8385 H   0  0  0  0  0  0
  -31.2459  -22.1588   21.3104 H   0  0  0  0  0  0
  -30.3397  -23.2314   22.3719 H   0  0  0  0  0  0
  -28.1452  -20.8306   20.0284 H   0  0  0  0  0  0
  -29.8195  -20.8236   19.5462 H   0  0  0  0  0  0
  -29.2936  -17.7153   19.5211 H   0  0  0  0  0  0
  -30.9850  -17.5687   19.8988 H   0  0  0  0  0  0
  -29.1601  -25.2021   21.6193 H   0  0  0  0  0  0
  -27.4465  -25.0955   21.5436 H   0  0  0  0  0  0
  -28.8354  -15.6932   20.8442 H   0  0  0  0  0  0
  1 25  1  0  0  0
  1 30  2  0  0  0
  1 82  1  0  0  0
  2  3  1  0  0  0
  2 25  1  0  0  0
  2 86  1  0  0  0
  2 87  1  0  0  0
  3  4  1  0  0  0
  3 88  1  0  0  0
  3 89  1  0  0  0
  4  5  1  0  0  0
  4 90  1  0  0  0
  4 91  1  0  0  0
  5  6  1  0  0  0
  5 26  1  0  0  0
  5 92  1  0  0  0
  6 25  1  0  0  0
  6 93  1  0  0  0
  6 94  1  0  0  0
  7  8  2  0  0  0
  7 26  1  0  0  0
  7 29  1  0  0  0
  8  9  1  0  0  0
  8 22  1  0  0  0
  9 10  1  0  0  0
  9 27  2  0  0  0
 10 11  2  0  0  0
 10 15  1  0  0  0
 11 12  1  0  0  0
 11 95  1  0  0  0
 12 13  2  0  0  0
 12 96  1  0  0  0
 13 14  1  0  0  0
 13 31  1  0  0  0
 14 15  2  0  0  0
 14 97  1  0  0  0
 15 98  1  0  0  0
 16 17  2  0  0  0
 16 21  1  0  0  0
 16 31  1  0  0  0
 17 18  1  0  0  0
 17 99  1  0  0  0
 18 19  2  0  0  0
 18100  1  0  0  0
 19 20  1  0  0  0
 19 24  1  0  0  0
 20 21  2  0  0  0
 20101  1  0  0  0
 21 23  1  0  0  0
 22 28  1  0  0  0
 22 32  2  0  0  0
 26 27  1  0  0  0
 28102  1  0  0  0
 28103  1  0  0  0
 29104  1  0  0  0
 29105  1  0  0  0
 33 34  1  0  0  0
 33 66  1  0  0  0
 33 70  2  0  0  0
 34 36  1  0  0  0
 34 59  1  0  0  0
 34106  1  0  0  0
 35 44  2  0  0  0
 35 45  1  0  0  0
 35 68  1  0  0  0
 36 56  1  0  0  0
 36107  1  0  0  0
 37 39  1  0  0  0
 37 47  1  0  0  0
 37 66  1  0  0  0
 37108  1  0  0  0
 38 43  2  0  0  0
 38 46  1  0  0  0
 38 47  1  0  0  0
 39 64  1  0  0  0
 39 67  2  0  0  0
 40 52  1  0  0  0
 40 53  2  0  0  0
 40 58  1  0  0  0
 41109  1  0  0  0
 41110  1  0  0  0
 41111  1  0  0  0
 41 48  1  0  0  0
 42 43  1  0  0  0
 42 66  1  0  0  0
 42112  1  0  0  0
 42113  1  0  0  0
 43 44  1  0  0  0
 44114  1  0  0  0
 45 46  2  0  0  0
 45115  1  0  0  0
 46116  1  0  0  0
 47117  1  0  0  0
 47118  1  0  0  0
 48 56  1  0  0  0
 48 65  1  0  0  0
 48119  1  0  0  0
 49 50  1  0  0  0
 49 53  1  0  0  0
 49 64  1  0  0  0
 49120  1  0  0  0
 50 51  1  0  0  0
 50121  1  0  0  0
 50122  1  0  0  0
 51 52  1  0  0  0
 51123  1  0  0  0
 51124  1  0  0  0
 52125  1  0  0  0
 52126  1  0  0  0
 53 54  1  0  0  0
 54 55  2  0  0  0
 54127  1  0  0  0
 55 57  1  0  0  0
 55128  1  0  0  0
 56 69  2  0  0  0
 57 58  2  0  0  0
 57129  1  0  0  0
 58130  1  0  0  0
 59 60  1  0  0  0
 59 61  1  0  0  0
 59 62  1  0  0  0
 60131  1  0  0  0
 60132  1  0  0  0
 60133  1  0  0  0
 61134  1  0  0  0
 61135  1  0  0  0
 61136  1  0  0  0
 62137  1  0  0  0
 62138  1  0  0  0
 62139  1  0  0  0
 63 65  1  0  0  0
 63140  1  0  0  0
 63141  1  0  0  0
 63142  1  0  0  0
 64143  1  0  0  0
 65144  1  0  0  0
 68 81  1  0  0  0
 71 72  2  0  0  0
 71 74  1  0  0  0
 71145  1  0  0  0
 72 76  1  0  0  0
 72146  1  0  0  0
 73 75  1  0  0  0
 73 76  2  0  0  0
 73147  1  0  0  0
 74 75  2  0  0  0
 74 79  1  0  0  0
 75 80  1  0  0  0
 76 85  1  0  0  0
 77 81  1  0  0  0
 77 83  1  0  0  0
 77 84  2  0  0  0
 78 83  1  0  0  0
 78148  1  0  0  0
 78149  1  0  0  0
 78150  1  0  0  0
 79 83  1  0  0  0
 79151  1  0  0  0
 79152  1  0  0  0
 80 82  1  0  0  0
 80153  1  0  0  0
 80154  1  0  0  0
 81155  1  0  0  0
 81156  1  0  0  0
 82157  1  0  0  0
M  ISO  4   1 100  68 101  81 101  82 100
M  END
> <chiral flag>
0

> <version>
0

> <s_m_source_file>
/data/baiqing/PycharmProjects/Reinvent-master-3.2/result/LINK_invent/BTK/process_docking_weight1_custom_product_contain_oxygen_bond_distance_aromatic_linkinvent_7_9_3/rearranged_h_0052.sdf

> <i_m_source_file_index>
75

> <r_mmod_Potential_Energy-OPLS-2005>
257.021820068359

> <r_mmod_Stretch_Energy-OPLS-2005>
170.65299987793

> <r_mmod_Bend_Energy-OPLS-2005>
219.048202514648

> <r_mmod_Torsional_Energy-OPLS-2005>
249.242599487305

> <r_mmod_Improper_Torsional_Energy-OPLS-2005>
6.79881811141968

> <r_mmod_Van_der_Waal_Energy-OPLS-2005>
139.864471435547

> <r_mmod_Electrostatic_Energy-OPLS-2005>
-393.102020263672

> <r_mmod_Solvation_Energy-OPLS-2005>
-236.456939697266

> <b_mmod_Minimization_Converged-OPLS-2005>
0

> <r_mmod_RMS_Derivative-OPLS-2005>
5.2352352142334

$$$$
75
                    3D
 Structure written by MMmdl.
157165  0  0  1  0            999 V2000
  -30.6168  -14.7894   20.3970 C   0  0  0  0  0  0
  -30.4340  -12.4652   19.4980 C   0  0  0  0  0  0
  -29.5194  -12.4327   18.2527 C   0  0  0  0  0  0
  -28.0383  -12.3104   18.6590 C   0  0  0  0  0  0
  -27.6389  -13.2389   19.8385 C   0  0  2  0  0  0
  -28.6812  -13.2239   20.9777 C   0  0  0  0  0  0
  -25.2512  -13.8236   20.5689 C   0  0  0  0  0  0
  -24.1810  -13.0470   20.9218 C   0  0  0  0  0  0
  -24.6396  -11.6952   20.8760 C   0  0  0  0  0  0
  -23.9077  -10.4322   21.0408 C   0  0  0  0  0  0
  -24.3628   -9.4231   21.9177 C   0  0  0  0  0  0
  -23.6313   -8.2258   22.0745 C   0  0  0  0  0  0
  -22.4292   -8.0294   21.3539 C   0  0  0  0  0  0
  -21.9930   -9.0267   20.4640 C   0  0  0  0  0  0
  -22.7254  -10.2155   20.3056 C   0  0  0  0  0  0
  -21.6868   -6.0744   22.5271 C   0  0  0  0  0  0
  -21.4013   -6.5641   23.8201 C   0  0  0  0  0  0
  -21.3663   -5.6791   24.9164 C   0  0  0  0  0  0
  -21.6048   -4.3052   24.7217 C   0  0  0  0  0  0
  -21.8821   -3.8145   23.4337 C   0  0  0  0  0  0
  -21.9197   -4.6967   22.3394 C   0  0  0  0  0  0
  -22.7831  -13.5246   21.1871 C   0  0  0  0  0  0
  -22.1670   -4.2156   21.0973 F   0  0  0  0  0  0
  -21.5635   -3.4534   25.7726 F   0  0  0  0  0  0
  -29.9765  -13.5665   20.3828 N   0  0  0  0  0  0
  -26.2934  -12.9450   20.3252 N   0  0  0  0  0  0
  -25.9331  -11.6593   20.5770 N   0  0  0  0  0  0
  -22.0485  -12.8220   22.0422 N   0  0  0  0  0  0
  -25.4225  -15.1963   20.4097 N   0  0  0  0  0  0
  -31.8234  -14.8319   20.1412 O   0  0  0  0  0  0
  -21.6656   -6.8889   21.4233 O   0  0  0  0  0  0
  -22.3499  -14.5538   20.6713 O   0  0  0  0  0  0
  -24.6320  -31.8536   23.1986 C   0  0  0  0  0  0
  -25.9136  -32.4746   23.8336 C   0  0  1  0  0  0
  -27.2154  -27.2452   20.1436 C   0  0  0  0  0  0
  -25.5928  -33.8553   24.2259 N   0  0  0  0  0  0
  -23.4300  -30.4748   21.5425 C   0  0  2  0  0  0
  -24.8782  -28.9179   20.1140 C   0  0  0  0  0  0
  -22.7499  -29.4585   22.4920 C   0  0  0  0  0  0
  -18.0298  -28.1366   22.8502 C   0  0  0  0  0  0
  -24.1488  -36.7270   23.2643 C   0  0  0  0  0  0
  -25.9779  -30.7616   21.3818 C   0  0  0  0  0  0
  -26.0508  -29.3830   20.7236 C   0  0  0  0  0  0
  -27.2259  -28.5613   20.7210 C   0  0  0  0  0  0
  -26.0251  -26.8541   19.4956 C   0  0  0  0  0  0
  -24.8710  -27.6618   19.4876 C   0  0  0  0  0  0
  -23.6486  -29.8054   20.1604 C   0  0  0  0  0  0
  -25.4118  -36.3066   24.0329 C   0  0  1  0  0  0
  -20.5901  -28.3677   23.1272 C   0  0  2  0  0  0
  -20.6775  -26.9390   22.5409 C   0  0  0  0  0  0
  -19.5750  -26.6368   21.5212 C   0  0  0  0  0  0
  -18.1933  -26.7915   22.1626 C   0  0  0  0  0  0
  -19.1548  -28.8840   23.2885 C   0  0  0  0  0  0
  -18.9464  -30.1441   23.8908 C   0  0  0  0  0  0
  -17.6459  -30.6576   24.0548 C   0  0  0  0  0  0
  -25.9055  -34.9432   23.5092 C   0  0  0  0  0  0
  -16.5355  -29.9065   23.6324 C   0  0  0  0  0  0
  -16.7279  -28.6467   23.0380 C   0  0  0  0  0  0
  -26.4503  -31.6582   25.0732 C   0  0  0  0  0  0
  -25.3712  -31.3734   26.1439 C   0  0  0  0  0  0
  -27.0373  -30.3008   24.6229 C   0  0  0  0  0  0
  -27.6058  -32.4338   25.7492 C   0  0  0  0  0  0
  -27.5585  -37.1785   24.8465 C   0  0  0  0  0  0
  -21.4203  -29.3027   22.3660 N   0  0  0  0  0  0
  -26.4301  -37.3758   23.9400 N   0  0  0  0  0  0
  -24.6988  -31.0494   22.0968 N   0  0  0  0  0  0
  -23.4185  -28.8124   23.3031 O   0  0  0  0  0  0
  -28.2990  -26.3348   20.1697 O   0  0  0  0  0  0
  -26.5627  -34.8906   22.4662 O   0  0  0  0  0  0
  -23.5464  -32.1362   23.7270 O   0  0  0  0  0  0
  -30.1036  -17.0489   16.8708 C   0  0  0  0  0  0
  -30.5575  -18.3624   16.9124 C   0  0  0  0  0  0
  -29.8595  -16.3922   18.0750 C   0  0  0  0  0  0
  -30.6300  -19.0687   18.1305 C   0  0  0  0  0  0
  -30.0698  -18.5078   19.3399 C   0  0  0  0  0  0
  -29.9471  -17.0188   19.3448 C   0  0  0  0  0  0
  -28.7855  -22.1535   20.6658 C   0  0  0  0  0  0
  -29.5992  -19.5744   20.4491 C   0  0  0  0  0  0
  -28.8717  -23.6242   20.0032 C   0  0  0  0  0  0
  -28.0598  -24.9034   20.6095 C   0  0  0  0  0  0
  -31.3372  -20.4374   18.0562 C   0  0  0  0  0  0
  -29.8792  -15.9843   20.4185 N   0  0  0  0  0  0
  -29.3093  -21.0376   20.0334 N   0  0  0  0  0  0
  -28.2657  -22.0374   21.7763 O   0  0  0  0  0  0
  -31.8703  -20.7828   19.2280 F   0  0  0  0  0  0
  -30.4712  -21.3859   17.6897 F   0  0  0  0  0  0
  -32.6926  -20.4519   16.8879 Cl  0  0  0  0  0  0
  -31.4736  -12.5839   19.1900 H   0  0  0  0  0  0
  -30.3909  -11.5135   20.0302 H   0  0  0  0  0  0
  -29.7922  -11.5879   17.6199 H   0  0  0  0  0  0
  -29.6769  -13.3113   17.6346 H   0  0  0  0  0  0
  -27.8751  -11.2711   18.9444 H   0  0  0  0  0  0
  -27.3930  -12.4900   17.7990 H   0  0  0  0  0  0
  -27.6202  -14.2490   19.4281 H   0  0  0  0  0  0
  -28.7246  -12.2457   21.4582 H   0  0  0  0  0  0
  -28.4144  -13.9407   21.7556 H   0  0  0  0  0  0
  -25.2778   -9.5716   22.4747 H   0  0  0  0  0  0
  -24.0033   -7.4651   22.7457 H   0  0  0  0  0  0
  -21.0863   -8.8783   19.8943 H   0  0  0  0  0  0
  -22.3703  -10.9691   19.6163 H   0  0  0  0  0  0
  -21.1996   -7.6144   23.9709 H   0  0  0  0  0  0
  -21.1486   -6.0516   25.9069 H   0  0  0  0  0  0
  -22.0598   -2.7611   23.2830 H   0  0  0  0  0  0
  -22.4117  -11.9901   22.4829 H   0  0  0  0  0  0
  -21.1083  -13.1213   22.2597 H   0  0  0  0  0  0
  -24.6584  -15.8548   20.5199 H   0  0  0  0  0  0
  -26.2672  -15.6313   20.0609 H   0  0  0  0  0  0
  -26.7202  -32.5386   23.1077 H   0  0  0  0  0  0
  -25.0086  -33.9684   25.0415 H   0  0  0  0  0  0
  -22.7270  -31.2971   21.3930 H   0  0  0  0  0  0
  -23.3762  -35.9589   23.3302 H   0  0  0  0  0  0
  -24.3587  -36.8890   22.2059 H   0  0  0  0  0  0
  -23.7227  -37.6460   23.6674 H   0  0  0  0  0  0
  -26.1244  -31.5242   20.6138 H   0  0  0  0  0  0
  -26.8538  -30.8064   22.0183 H   0  0  0  0  0  0
  -28.1266  -28.9121   21.2051 H   0  0  0  0  0  0
  -25.9753  -25.8966   18.9980 H   0  0  0  0  0  0
  -23.9748  -27.3006   19.0010 H   0  0  0  0  0  0
  -23.7674  -30.5770   19.3988 H   0  0  0  0  0  0
  -22.7683  -29.2331   19.8621 H   0  0  0  0  0  0
  -25.1305  -36.1912   25.0827 H   0  0  0  0  0  0
  -21.0020  -28.3247   24.1379 H   0  0  0  0  0  0
  -20.5654  -26.2282   23.3607 H   0  0  0  0  0  0
  -21.6642  -26.7384   22.1206 H   0  0  0  0  0  0
  -19.6897  -25.6273   21.1244 H   0  0  0  0  0  0
  -19.6697  -27.3171   20.6733 H   0  0  0  0  0  0
  -17.4198  -26.6683   21.4026 H   0  0  0  0  0  0
  -18.0321  -26.0048   22.9011 H   0  0  0  0  0  0
  -19.7931  -30.7257   24.2294 H   0  0  0  0  0  0
  -17.5000  -31.6263   24.5126 H   0  0  0  0  0  0
  -15.5348  -30.2960   23.7637 H   0  0  0  0  0  0
  -15.8681  -28.0761   22.7137 H   0  0  0  0  0  0
  -24.5885  -30.7101   25.7739 H   0  0  0  0  0  0
  -24.8916  -32.2910   26.4862 H   0  0  0  0  0  0
  -25.8012  -30.8892   27.0215 H   0  0  0  0  0  0
  -26.2977  -29.6736   24.1249 H   0  0  0  0  0  0
  -27.4054  -29.7289   25.4753 H   0  0  0  0  0  0
  -27.8843  -30.4297   23.9489 H   0  0  0  0  0  0
  -27.2675  -33.3652   26.2046 H   0  0  0  0  0  0
  -28.3871  -32.6882   25.0316 H   0  0  0  0  0  0
  -28.0724  -31.8485   26.5418 H   0  0  0  0  0  0
  -28.2591  -38.0091   24.7524 H   0  0  0  0  0  0
  -28.1095  -36.2624   24.6289 H   0  0  0  0  0  0
  -27.2301  -37.1416   25.8866 H   0  0  0  0  0  0
  -20.9386  -29.8744   21.6864 H   0  0  0  0  0  0
  -26.0179  -38.2830   24.1407 H   0  0  0  0  0  0
  -30.0342  -16.5184   15.9314 H   0  0  0  0  0  0
  -30.8560  -18.8285   15.9857 H   0  0  0  0  0  0
  -29.6109  -15.3491   17.9976 H   0  0  0  0  0  0
  -30.3685  -19.6011   21.2229 H   0  0  0  0  0  0
  -28.7048  -19.1792   20.9305 H   0  0  0  0  0  0
  -28.5942  -23.5166   18.9550 H   0  0  0  0  0  0
  -29.9301  -23.8827   19.9961 H   0  0  0  0  0  0
  -28.2449  -24.9106   21.6845 H   0  0  0  0  0  0
  -26.9992  -24.6623   20.5369 H   0  0  0  0  0  0
  -28.9783  -15.9063   20.8663 H   0  0  0  0  0  0
  -29.7311  -21.2774   19.1372 H   0  0  0  0  0  0
  1 25  1  0  0  0
  1 30  2  0  0  0
  1 82  1  0  0  0
  2  3  1  0  0  0
  2 25  1  0  0  0
  2 88  1  0  0  0
  2 89  1  0  0  0
  3  4  1  0  0  0
  3 90  1  0  0  0
  3 91  1  0  0  0
  4  5  1  0  0  0
  4 92  1  0  0  0
  4 93  1  0  0  0
  5  6  1  0  0  0
  5 26  1  0  0  0
  5 94  1  0  0  0
  6 25  1  0  0  0
  6 95  1  0  0  0
  6 96  1  0  0  0
  7  8  2  0  0  0
  7 26  1  0  0  0
  7 29  1  0  0  0
  8  9  1  0  0  0
  8 22  1  0  0  0
  9 10  1  0  0  0
  9 27  2  0  0  0
 10 11  2  0  0  0
 10 15  1  0  0  0
 11 12  1  0  0  0
 11 97  1  0  0  0
 12 13  2  0  0  0
 12 98  1  0  0  0
 13 14  1  0  0  0
 13 31  1  0  0  0
 14 15  2  0  0  0
 14 99  1  0  0  0
 15100  1  0  0  0
 16 17  2  0  0  0
 16 21  1  0  0  0
 16 31  1  0  0  0
 17 18  1  0  0  0
 17101  1  0  0  0
 18 19  2  0  0  0
 18102  1  0  0  0
 19 20  1  0  0  0
 19 24  1  0  0  0
 20 21  2  0  0  0
 20103  1  0  0  0
 21 23  1  0  0  0
 22 28  1  0  0  0
 22 32  2  0  0  0
 26 27  1  0  0  0
 28104  1  0  0  0
 28105  1  0  0  0
 29106  1  0  0  0
 29107  1  0  0  0
 33 34  1  0  0  0
 33 66  1  0  0  0
 33 70  2  0  0  0
 34 36  1  0  0  0
 34 59  1  0  0  0
 34108  1  0  0  0
 35 44  2  0  0  0
 35 45  1  0  0  0
 35 68  1  0  0  0
 36 56  1  0  0  0
 36109  1  0  0  0
 37 39  1  0  0  0
 37 47  1  0  0  0
 37 66  1  0  0  0
 37110  1  0  0  0
 38 43  2  0  0  0
 38 46  1  0  0  0
 38 47  1  0  0  0
 39 64  1  0  0  0
 39 67  2  0  0  0
 40 52  1  0  0  0
 40 53  2  0  0  0
 40 58  1  0  0  0
 41111  1  0  0  0
 41112  1  0  0  0
 41113  1  0  0  0
 41 48  1  0  0  0
 42 43  1  0  0  0
 42 66  1  0  0  0
 42114  1  0  0  0
 42115  1  0  0  0
 43 44  1  0  0  0
 44116  1  0  0  0
 45 46  2  0  0  0
 45117  1  0  0  0
 46118  1  0  0  0
 47119  1  0  0  0
 47120  1  0  0  0
 48 56  1  0  0  0
 48 65  1  0  0  0
 48121  1  0  0  0
 49 50  1  0  0  0
 49 53  1  0  0  0
 49 64  1  0  0  0
 49122  1  0  0  0
 50 51  1  0  0  0
 50123  1  0  0  0
 50124  1  0  0  0
 51 52  1  0  0  0
 51125  1  0  0  0
 51126  1  0  0  0
 52127  1  0  0  0
 52128  1  0  0  0
 53 54  1  0  0  0
 54 55  2  0  0  0
 54129  1  0  0  0
 55 57  1  0  0  0
 55130  1  0  0  0
 56 69  2  0  0  0
 57 58  2  0  0  0
 57131  1  0  0  0
 58132  1  0  0  0
 59 60  1  0  0  0
 59 61  1  0  0  0
 59 62  1  0  0  0
 60133  1  0  0  0
 60134  1  0  0  0
 60135  1  0  0  0
 61136  1  0  0  0
 61137  1  0  0  0
 61138  1  0  0  0
 62139  1  0  0  0
 62140  1  0  0  0
 62141  1  0  0  0
 63 65  1  0  0  0
 63142  1  0  0  0
 63143  1  0  0  0
 63144  1  0  0  0
 64145  1  0  0  0
 65146  1  0  0  0
 68 80  1  0  0  0
 71 72  2  0  0  0
 71 73  1  0  0  0
 71147  1  0  0  0
 72 74  1  0  0  0
 72148  1  0  0  0
 73 76  2  0  0  0
 73149  1  0  0  0
 74 75  2  0  0  0
 74 81  1  0  0  0
 75 76  1  0  0  0
 75 78  1  0  0  0
 76 82  1  0  0  0
 77 79  1  0  0  0
 77 83  1  0  0  0
 77 84  2  0  0  0
 78 83  1  0  0  0
 78150  1  0  0  0
 78151  1  0  0  0
 79 80  1  0  0  0
 79152  1  0  0  0
 79153  1  0  0  0
 80154  1  0  0  0
 80155  1  0  0  0
 81 85  1  0  0  0
 81 86  1  0  0  0
 81 87  1  0  0  0
 82156  1  0  0  0
 83157  1  0  0  0
M  ISO  4   1 100  68 101  80 101  82 100
M  END
> <chiral flag>
0

> <version>
0

> <s_m_source_file>
/data/baiqing/PycharmProjects/Reinvent-master-3.2/result/LINK_invent/BTK/process_docking_weight1_custom_product_contain_oxygen_bond_distance_aromatic_linkinvent_7_9_3/rearranged_h_0052.sdf

> <i_m_source_file_index>
76

> <r_mmod_Potential_Energy-OPLS-2005>
325.435852050781

> <r_mmod_Stretch_Energy-OPLS-2005>
161.316421508789

> <r_mmod_Bend_Energy-OPLS-2005>
207.215545654297

> <r_mmod_Torsional_Energy-OPLS-2005>
327.594909667969

> <r_mmod_Improper_Torsional_Energy-OPLS-2005>
9.44000244140625

> <r_mmod_Van_der_Waal_Energy-OPLS-2005>
160.30680847168

> <r_mmod_Electrostatic_Energy-OPLS-2005>
-404.034515380859

> <r_mmod_Solvation_Energy-OPLS-2005>
-241.612548828125

> <b_mmod_Minimization_Converged-OPLS-2005>
0

> <r_mmod_RMS_Derivative-OPLS-2005>
1.69000327587128

$$$$
76
                    3D
 Structure written by MMmdl.
168177  0  0  1  0            999 V2000
  -30.6703  -14.4715   20.5924 C   0  0  0  0  0  0
  -30.4346  -12.3155   19.4061 C   0  0  0  0  0  0
  -29.4980  -12.5317   18.1977 C   0  0  0  0  0  0
  -28.0169  -12.3848   18.6068 C   0  0  0  0  0  0
  -27.6654  -13.2013   19.8789 C   0  0  2  0  0  0
  -28.7058  -12.9372   20.9887 C   0  0  0  0  0  0
  -25.2632  -13.8173   20.5712 C   0  0  0  0  0  0
  -24.1854  -13.0459   20.9154 C   0  0  0  0  0  0
  -24.6387  -11.6919   20.8703 C   0  0  0  0  0  0
  -23.9033  -10.4314   21.0375 C   0  0  0  0  0  0
  -24.3587   -9.4241   21.9164 C   0  0  0  0  0  0
  -23.6275   -8.2274   22.0749 C   0  0  0  0  0  0
  -22.4265   -8.0294   21.3545 C   0  0  0  0  0  0
  -21.9879   -9.0256   20.4643 C   0  0  0  0  0  0
  -22.7193  -10.2148   20.3039 C   0  0  0  0  0  0
  -21.6859   -6.0719   22.5271 C   0  0  0  0  0  0
  -21.4022   -6.5623   23.8202 C   0  0  0  0  0  0
  -21.3666   -5.6779   24.9166 C   0  0  0  0  0  0
  -21.6043   -4.3041   24.7214 C   0  0  0  0  0  0
  -21.8823   -3.8133   23.4337 C   0  0  0  0  0  0
  -21.9192   -4.6947   22.3392 C   0  0  0  0  0  0
  -22.7871  -13.5268   21.1791 C   0  0  0  0  0  0
  -22.1663   -4.2137   21.0967 F   0  0  0  0  0  0
  -21.5609   -3.4523   25.7720 F   0  0  0  0  0  0
  -30.0378  -13.2740   20.4493 N   0  0  0  0  0  0
  -26.3048  -12.9318   20.3367 N   0  0  0  0  0  0
  -25.9310  -11.6483   20.5716 N   0  0  0  0  0  0
  -22.0473  -12.8311   22.0357 N   0  0  0  0  0  0
  -25.4410  -15.1892   20.4221 N   0  0  0  0  0  0
  -31.8069  -14.6667   20.1575 O   0  0  0  0  0  0
  -21.6656   -6.8875   21.4236 O   0  0  0  0  0  0
  -22.3573  -14.5553   20.6586 O   0  0  0  0  0  0
  -24.6078  -31.8713   23.2123 C   0  0  0  0  0  0
  -25.8985  -32.4843   23.8397 C   0  0  1  0  0  0
  -27.2481  -27.4641   20.0905 C   0  0  0  0  0  0
  -25.5840  -33.8634   24.2328 N   0  0  0  0  0  0
  -23.3963  -30.4953   21.5499 C   0  0  2  0  0  0
  -24.8486  -28.9626   20.1189 C   0  0  0  0  0  0
  -22.7374  -29.4678   22.4976 C   0  0  0  0  0  0
  -18.0265  -28.1370   22.8484 C   0  0  0  0  0  0
  -24.1477  -36.7354   23.2646 C   0  0  0  0  0  0
  -25.9223  -30.8429   21.3657 C   0  0  0  0  0  0
  -26.0041  -29.4751   20.7227 C   0  0  0  0  0  0
  -27.2048  -28.7329   20.7192 C   0  0  0  0  0  0
  -26.0762  -26.9649   19.4869 C   0  0  0  0  0  0
  -24.8766  -27.7000   19.5023 C   0  0  0  0  0  0
  -23.6088  -29.8267   20.1646 C   0  0  0  0  0  0
  -25.4090  -36.3126   24.0344 C   0  0  1  0  0  0
  -20.5853  -28.3653   23.1315 C   0  0  2  0  0  0
  -20.6750  -26.9388   22.5421 C   0  0  0  0  0  0
  -19.5739  -26.6376   21.5203 C   0  0  0  0  0  0
  -18.1913  -26.7921   22.1608 C   0  0  0  0  0  0
  -19.1515  -28.8822   23.2903 C   0  0  0  0  0  0
  -18.9450  -30.1427   23.8919 C   0  0  0  0  0  0
  -17.6459  -30.6578   24.0563 C   0  0  0  0  0  0
  -25.9006  -34.9491   23.5140 C   0  0  0  0  0  0
  -16.5346  -29.9089   23.6318 C   0  0  0  0  0  0
  -16.7261  -28.6505   23.0334 C   0  0  0  0  0  0
  -26.4427  -31.6603   25.0711 C   0  0  0  0  0  0
  -25.3705  -31.3727   26.1476 C   0  0  0  0  0  0
  -27.0262  -30.3048   24.6069 C   0  0  0  0  0  0
  -27.6007  -32.4325   25.7463 C   0  0  0  0  0  0
  -27.5581  -37.1830   24.8459 C   0  0  0  0  0  0
  -21.4110  -29.3024   22.3718 N   0  0  0  0  0  0
  -26.4289  -37.3797   23.9405 N   0  0  0  0  0  0
  -24.6597  -31.0837   22.1011 N   0  0  0  0  0  0
  -23.4161  -28.8229   23.3007 O   0  0  0  0  0  0
  -28.3664  -26.6679   19.9750 O   0  0  0  0  0  0
  -26.5597  -34.8940   22.4718 O   0  0  0  0  0  0
  -23.5280  -32.1460   23.7529 O   0  0  0  0  0  0
  -29.3087  -19.6198   21.6089 C   0  0  0  0  0  0
  -28.6288  -18.6763   22.3850 C   0  0  0  0  0  0
  -30.2588  -19.2138   20.6509 C   0  0  0  0  0  0
  -28.8869  -17.3045   22.2293 C   0  0  0  0  0  0
  -30.5096  -17.8140   20.4566 C   0  0  0  0  0  0
  -29.8291  -16.8433   21.2692 C   0  0  0  0  0  0
  -30.0351  -23.8529   19.1847 C   0  0  0  0  0  0
  -30.4766  -24.5210   20.2671 C   0  0  0  0  0  0
  -29.9428  -22.3965   19.1214 C   0  0  0  0  0  0
  -30.8773  -23.7767   21.5230 C   0  0  0  0  0  0
  -31.3479  -22.3445   21.1956 C   0  0  0  0  0  0
  -28.0981  -16.3414   23.1083 C   0  0  0  0  0  0
  -31.4839  -17.3831   19.3643 C   0  0  0  0  0  0
  -31.0127  -20.2875   19.8442 C   0  0  0  0  0  0
  -30.6548  -26.0400   20.2678 C   0  0  0  0  0  0
  -29.4786  -26.8537   20.8392 C   0  0  0  0  0  0
  -30.6607  -21.7118   20.0539 N   0  0  0  0  0  0
  -29.8976  -15.4050   21.1877 N   0  0  0  0  0  0
  -29.3134  -21.8260   18.2252 O   0  0  0  0  0  0
  -31.4770  -12.4375   19.1049 H   0  0  0  0  0  0
  -30.3483  -11.2941   19.7790 H   0  0  0  0  0  0
  -29.7382  -11.8257   17.4001 H   0  0  0  0  0  0
  -29.6640  -13.5278   17.7831 H   0  0  0  0  0  0
  -27.8191  -11.3260   18.7745 H   0  0  0  0  0  0
  -27.3697  -12.6852   17.7819 H   0  0  0  0  0  0
  -27.7203  -14.2566   19.6096 H   0  0  0  0  0  0
  -28.6848  -11.8846   21.2748 H   0  0  0  0  0  0
  -28.4617  -13.4793   21.9022 H   0  0  0  0  0  0
  -25.2729   -9.5724   22.4750 H   0  0  0  0  0  0
  -23.9978   -7.4668   22.7481 H   0  0  0  0  0  0
  -21.0799   -8.8759   19.8968 H   0  0  0  0  0  0
  -22.3626  -10.9673   19.6150 H   0  0  0  0  0  0
  -21.2045   -7.6136   23.9698 H   0  0  0  0  0  0
  -21.1473   -6.0511   25.9065 H   0  0  0  0  0  0
  -22.0604   -2.7597   23.2837 H   0  0  0  0  0  0
  -22.4039  -12.0009   22.4849 H   0  0  0  0  0  0
  -21.1080  -13.1387   22.2487 H   0  0  0  0  0  0
  -24.6922  -15.8560   20.5751 H   0  0  0  0  0  0
  -26.3083  -15.6314   20.1430 H   0  0  0  0  0  0
  -26.7059  -32.5579   23.1171 H   0  0  0  0  0  0
  -24.9909  -33.9792   25.0420 H   0  0  0  0  0  0
  -22.6828  -31.3104   21.4102 H   0  0  0  0  0  0
  -23.3712  -35.9712   23.3308 H   0  0  0  0  0  0
  -24.3580  -36.8967   22.2061 H   0  0  0  0  0  0
  -23.7263  -37.6578   23.6655 H   0  0  0  0  0  0
  -26.0264  -31.6046   20.5920 H   0  0  0  0  0  0
  -26.8132  -30.9056   21.9785 H   0  0  0  0  0  0
  -28.0816  -29.1592   21.1829 H   0  0  0  0  0  0
  -26.0967  -26.0004   18.9984 H   0  0  0  0  0  0
  -23.9920  -27.2998   19.0256 H   0  0  0  0  0  0
  -23.7184  -30.6024   19.4052 H   0  0  0  0  0  0
  -22.7342  -29.2459   19.8659 H   0  0  0  0  0  0
  -25.1270  -36.1999   25.0839 H   0  0  0  0  0  0
  -20.9950  -28.3219   24.1433 H   0  0  0  0  0  0
  -20.5609  -26.2263   23.3605 H   0  0  0  0  0  0
  -21.6625  -26.7406   22.1239 H   0  0  0  0  0  0
  -19.6885  -25.6285   21.1225 H   0  0  0  0  0  0
  -19.6688  -27.3189   20.6733 H   0  0  0  0  0  0
  -17.4186  -26.6672   21.4009 H   0  0  0  0  0  0
  -18.0314  -26.0055   22.8993 H   0  0  0  0  0  0
  -19.7931  -30.7225   24.2298 H   0  0  0  0  0  0
  -17.5025  -31.6260   24.5160 H   0  0  0  0  0  0
  -15.5350  -30.3003   23.7627 H   0  0  0  0  0  0
  -15.8658  -28.0843   22.7022 H   0  0  0  0  0  0
  -24.5832  -30.7119   25.7830 H   0  0  0  0  0  0
  -24.8952  -32.2901   26.4959 H   0  0  0  0  0  0
  -25.8054  -30.8866   27.0217 H   0  0  0  0  0  0
  -26.2816  -29.6834   24.1078 H   0  0  0  0  0  0
  -27.4001  -29.7247   25.4519 H   0  0  0  0  0  0
  -27.8651  -30.4378   23.9233 H   0  0  0  0  0  0
  -27.2598  -33.3587   26.2100 H   0  0  0  0  0  0
  -28.3764  -32.6951   25.0260 H   0  0  0  0  0  0
  -28.0724  -31.8424   26.5333 H   0  0  0  0  0  0
  -28.2595  -38.0129   24.7478 H   0  0  0  0  0  0
  -28.1077  -36.2658   24.6290 H   0  0  0  0  0  0
  -27.2315  -37.1500   25.8870 H   0  0  0  0  0  0
  -20.9245  -29.8758   21.6974 H   0  0  0  0  0  0
  -26.0186  -38.2878   24.1394 H   0  0  0  0  0  0
  -29.0793  -20.6638   21.7664 H   0  0  0  0  0  0
  -27.9001  -19.0185   23.1065 H   0  0  0  0  0  0
  -29.7575  -24.4110   18.3034 H   0  0  0  0  0  0
  -30.0138  -23.7568   22.1904 H   0  0  0  0  0  0
  -31.6706  -24.3086   22.0504 H   0  0  0  0  0  0
  -31.2645  -21.7177   22.0842 H   0  0  0  0  0  0
  -32.4095  -22.3797   20.9476 H   0  0  0  0  0  0
  -27.6198  -16.8665   23.9365 H   0  0  0  0  0  0
  -28.7425  -15.5791   23.5464 H   0  0  0  0  0  0
  -27.3140  -15.8504   22.5314 H   0  0  0  0  0  0
  -31.7888  -18.1632   18.6748 H   0  0  0  0  0  0
  -31.0339  -16.6110   18.7399 H   0  0  0  0  0  0
  -32.4027  -17.0092   19.8136 H   0  0  0  0  0  0
  -30.9130  -20.0568   18.7845 H   0  0  0  0  0  0
  -32.0761  -20.1722   20.0614 H   0  0  0  0  0  0
  -30.8354  -26.3703   19.2440 H   0  0  0  0  0  0
  -31.5658  -26.2866   20.8136 H   0  0  0  0  0  0
  -29.7839  -27.8992   20.8765 H   0  0  0  0  0  0
  -29.2319  -26.5352   21.8531 H   0  0  0  0  0  0
  -29.0950  -14.9654   21.6079 H   0  0  0  0  0  0
  1 25  1  0  0  0
  1 30  2  0  0  0
  1 88  1  0  0  0
  2  3  1  0  0  0
  2 25  1  0  0  0
  2 90  1  0  0  0
  2 91  1  0  0  0
  3  4  1  0  0  0
  3 92  1  0  0  0
  3 93  1  0  0  0
  4  5  1  0  0  0
  4 94  1  0  0  0
  4 95  1  0  0  0
  5  6  1  0  0  0
  5 26  1  0  0  0
  5 96  1  0  0  0
  6 25  1  0  0  0
  6 97  1  0  0  0
  6 98  1  0  0  0
  7  8  2  0  0  0
  7 26  1  0  0  0
  7 29  1  0  0  0
  8  9  1  0  0  0
  8 22  1  0  0  0
  9 10  1  0  0  0
  9 27  2  0  0  0
 10 11  2  0  0  0
 10 15  1  0  0  0
 11 12  1  0  0  0
 11 99  1  0  0  0
 12 13  2  0  0  0
 12100  1  0  0  0
 13 14  1  0  0  0
 13 31  1  0  0  0
 14 15  2  0  0  0
 14101  1  0  0  0
 15102  1  0  0  0
 16 17  2  0  0  0
 16 21  1  0  0  0
 16 31  1  0  0  0
 17 18  1  0  0  0
 17103  1  0  0  0
 18 19  2  0  0  0
 18104  1  0  0  0
 19 20  1  0  0  0
 19 24  1  0  0  0
 20 21  2  0  0  0
 20105  1  0  0  0
 21 23  1  0  0  0
 22 28  1  0  0  0
 22 32  2  0  0  0
 26 27  1  0  0  0
 28106  1  0  0  0
 28107  1  0  0  0
 29108  1  0  0  0
 29109  1  0  0  0
 33 34  1  0  0  0
 33 66  1  0  0  0
 33 70  2  0  0  0
 34 36  1  0  0  0
 34 59  1  0  0  0
 34110  1  0  0  0
 35 44  2  0  0  0
 35 45  1  0  0  0
 35 68  1  0  0  0
 36 56  1  0  0  0
 36111  1  0  0  0
 37 39  1  0  0  0
 37 47  1  0  0  0
 37 66  1  0  0  0
 37112  1  0  0  0
 38 43  2  0  0  0
 38 46  1  0  0  0
 38 47  1  0  0  0
 39 64  1  0  0  0
 39 67  2  0  0  0
 40 52  1  0  0  0
 40 53  2  0  0  0
 40 58  1  0  0  0
 41113  1  0  0  0
 41114  1  0  0  0
 41115  1  0  0  0
 41 48  1  0  0  0
 42 43  1  0  0  0
 42 66  1  0  0  0
 42116  1  0  0  0
 42117  1  0  0  0
 43 44  1  0  0  0
 44118  1  0  0  0
 45 46  2  0  0  0
 45119  1  0  0  0
 46120  1  0  0  0
 47121  1  0  0  0
 47122  1  0  0  0
 48 56  1  0  0  0
 48 65  1  0  0  0
 48123  1  0  0  0
 49 50  1  0  0  0
 49 53  1  0  0  0
 49 64  1  0  0  0
 49124  1  0  0  0
 50 51  1  0  0  0
 50125  1  0  0  0
 50126  1  0  0  0
 51 52  1  0  0  0
 51127  1  0  0  0
 51128  1  0  0  0
 52129  1  0  0  0
 52130  1  0  0  0
 53 54  1  0  0  0
 54 55  2  0  0  0
 54131  1  0  0  0
 55 57  1  0  0  0
 55132  1  0  0  0
 56 69  2  0  0  0
 57 58  2  0  0  0
 57133  1  0  0  0
 58134  1  0  0  0
 59 60  1  0  0  0
 59 61  1  0  0  0
 59 62  1  0  0  0
 60135  1  0  0  0
 60136  1  0  0  0
 60137  1  0  0  0
 61138  1  0  0  0
 61139  1  0  0  0
 61140  1  0  0  0
 62141  1  0  0  0
 62142  1  0  0  0
 62143  1  0  0  0
 63 65  1  0  0  0
 63144  1  0  0  0
 63145  1  0  0  0
 63146  1  0  0  0
 64147  1  0  0  0
 65148  1  0  0  0
 68 86  1  0  0  0
 71 72  2  0  0  0
 71 73  1  0  0  0
 71149  1  0  0  0
 72 74  1  0  0  0
 72150  1  0  0  0
 73 75  2  0  0  0
 73 84  1  0  0  0
 74 76  2  0  0  0
 74 82  1  0  0  0
 75 76  1  0  0  0
 75 83  1  0  0  0
 76 88  1  0  0  0
 77 78  2  0  0  0
 77 79  1  0  0  0
 77151  1  0  0  0
 78 80  1  0  0  0
 78 85  1  0  0  0
 79 87  1  0  0  0
 79 89  2  0  0  0
 80 81  1  0  0  0
 80152  1  0  0  0
 80153  1  0  0  0
 81 87  1  0  0  0
 81154  1  0  0  0
 81155  1  0  0  0
 82156  1  0  0  0
 82157  1  0  0  0
 82158  1  0  0  0
 83159  1  0  0  0
 83160  1  0  0  0
 83161  1  0  0  0
 84 87  1  0  0  0
 84162  1  0  0  0
 84163  1  0  0  0
 85 86  1  0  0  0
 85164  1  0  0  0
 85165  1  0  0  0
 86166  1  0  0  0
 86167  1  0  0  0
 88168  1  0  0  0
M  ISO  4   1 100  68 101  86 101  88 100
M  END
> <chiral flag>
0

> <version>
0

> <s_m_source_file>
/data/baiqing/PycharmProjects/Reinvent-master-3.2/result/LINK_invent/BTK/process_docking_weight1_custom_product_contain_oxygen_bond_distance_aromatic_linkinvent_7_9_3/rearranged_h_0052.sdf

> <i_m_source_file_index>
77

> <r_mmod_Potential_Energy-OPLS-2005>
-7.24942970275879

> <r_mmod_Stretch_Energy-OPLS-2005>
45.7397193908691

> <r_mmod_Bend_Energy-OPLS-2005>
151.221313476562

> <r_mmod_Torsional_Energy-OPLS-2005>
235.545288085938

> <r_mmod_Improper_Torsional_Energy-OPLS-2005>
3.49187994003296

> <r_mmod_Van_der_Waal_Energy-OPLS-2005>
182.779281616211

> <r_mmod_Electrostatic_Energy-OPLS-2005>
-417.523406982422

> <r_mmod_Solvation_Energy-OPLS-2005>
-219.931030273438

> <b_mmod_Minimization_Converged-OPLS-2005>
0

> <r_mmod_RMS_Derivative-OPLS-2005>
2.07098722457886

$$$$
77
                    3D
 Structure written by MMmdl.
164173  0  0  1  0            999 V2000
  -30.6746  -14.5934   20.5025 C   0  0  0  0  0  0
  -30.4158  -12.3590   19.4597 C   0  0  0  0  0  0
  -29.5008  -12.4960   18.2248 C   0  0  0  0  0  0
  -28.0226  -12.3492   18.6327 C   0  0  0  0  0  0
  -27.6483  -13.2208   19.8618 C   0  0  2  0  0  0
  -28.6910  -13.0956   20.9952 C   0  0  0  0  0  0
  -25.2530  -13.8155   20.5746 C   0  0  0  0  0  0
  -24.1798  -13.0406   20.9213 C   0  0  0  0  0  0
  -24.6376  -11.6895   20.8738 C   0  0  0  0  0  0
  -23.9044  -10.4283   21.0400 C   0  0  0  0  0  0
  -24.3601   -9.4211   21.9190 C   0  0  0  0  0  0
  -23.6288   -8.2242   22.0761 C   0  0  0  0  0  0
  -22.4276   -8.0264   21.3541 C   0  0  0  0  0  0
  -21.9910   -9.0228   20.4634 C   0  0  0  0  0  0
  -22.7225  -10.2116   20.3045 C   0  0  0  0  0  0
  -21.6848   -6.0722   22.5270 C   0  0  0  0  0  0
  -21.4014   -6.5630   23.8204 C   0  0  0  0  0  0
  -21.3672   -5.6788   24.9168 C   0  0  0  0  0  0
  -21.6049   -4.3049   24.7224 C   0  0  0  0  0  0
  -21.8817   -3.8139   23.4344 C   0  0  0  0  0  0
  -21.9192   -4.6950   22.3398 C   0  0  0  0  0  0
  -22.7832  -13.5215   21.1869 C   0  0  0  0  0  0
  -22.1659   -4.2132   21.0977 F   0  0  0  0  0  0
  -21.5641   -3.4541   25.7739 F   0  0  0  0  0  0
  -30.0097  -13.3997   20.4252 N   0  0  0  0  0  0
  -26.2955  -12.9359   20.3325 N   0  0  0  0  0  0
  -25.9303  -11.6507   20.5745 N   0  0  0  0  0  0
  -22.0465  -12.8186   22.0407 N   0  0  0  0  0  0
  -25.4244  -15.1868   20.4261 N   0  0  0  0  0  0
  -31.8460  -14.6811   20.1310 O   0  0  0  0  0  0
  -21.6639   -6.8862   21.4230 O   0  0  0  0  0  0
  -22.3540  -14.5540   20.6745 O   0  0  0  0  0  0
  -24.6219  -31.8603   23.2022 C   0  0  0  0  0  0
  -25.9079  -32.4780   23.8362 C   0  0  1  0  0  0
  -27.2546  -27.3440   20.1551 C   0  0  0  0  0  0
  -25.5902  -33.8584   24.2310 N   0  0  0  0  0  0
  -23.4188  -30.4757   21.5392 C   0  0  2  0  0  0
  -24.8748  -28.9132   20.1286 C   0  0  0  0  0  0
  -22.7443  -29.4629   22.4929 C   0  0  0  0  0  0
  -18.0279  -28.1417   22.8497 C   0  0  0  0  0  0
  -24.1458  -36.7278   23.2647 C   0  0  0  0  0  0
  -25.9529  -30.7949   21.3740 C   0  0  0  0  0  0
  -26.0313  -29.4162   20.7357 C   0  0  0  0  0  0
  -27.2209  -28.6414   20.7412 C   0  0  0  0  0  0
  -26.0828  -26.8744   19.5264 C   0  0  0  0  0  0
  -24.8989  -27.6456   19.5167 C   0  0  0  0  0  0
  -23.6406  -29.7917   20.1610 C   0  0  0  0  0  0
  -25.4088  -36.3096   24.0349 C   0  0  1  0  0  0
  -20.5864  -28.3725   23.1282 C   0  0  2  0  0  0
  -20.6767  -26.9451   22.5421 C   0  0  0  0  0  0
  -19.5745  -26.6415   21.5224 C   0  0  0  0  0  0
  -18.1920  -26.7960   22.1627 C   0  0  0  0  0  0
  -19.1531  -28.8888   23.2882 C   0  0  0  0  0  0
  -18.9456  -30.1480   23.8914 C   0  0  0  0  0  0
  -17.6463  -30.6621   24.0577 C   0  0  0  0  0  0
  -25.9029  -34.9458   23.5132 C   0  0  0  0  0  0
  -16.5352  -29.9124   23.6349 C   0  0  0  0  0  0
  -16.7269  -28.6540   23.0372 C   0  0  0  0  0  0
  -26.4498  -31.6591   25.0726 C   0  0  0  0  0  0
  -25.3755  -31.3754   26.1477 C   0  0  0  0  0  0
  -27.0331  -30.3006   24.6196 C   0  0  0  0  0  0
  -27.6089  -32.4301   25.7471 C   0  0  0  0  0  0
  -27.5574  -37.1779   24.8464 C   0  0  0  0  0  0
  -21.4161  -29.3066   22.3666 N   0  0  0  0  0  0
  -26.4262  -37.3798   23.9449 N   0  0  0  0  0  0
  -24.6820  -31.0613   22.0965 N   0  0  0  0  0  0
  -23.4160  -28.8184   23.3028 O   0  0  0  0  0  0
  -28.4484  -26.6289   20.0949 O   0  0  0  0  0  0
  -26.5588  -34.8922   22.4692 O   0  0  0  0  0  0
  -23.5381  -32.1403   23.7342 O   0  0  0  0  0  0
  -30.9824  -19.8993   20.5154 C   0  0  0  0  0  0
  -31.6229  -17.5512   20.7704 C   0  0  0  0  0  0
  -29.6084  -19.5682   20.5256 C   0  0  0  0  0  0
  -29.2666  -18.1598   20.6201 C   0  0  0  0  0  0
  -30.2727  -17.1284   20.7285 C   0  0  0  0  0  0
  -31.9713  -18.9058   20.6381 C   0  0  0  0  0  0
  -27.9888  -22.9472   21.5698 C   0  0  0  0  0  0
  -27.7086  -22.4684   22.7968 C   0  0  0  0  0  0
  -27.4913  -24.3214   21.0367 C   0  0  0  0  0  0
  -29.5440  -24.4415   19.5638 C   0  0  0  0  0  0
  -29.1684  -22.9349   19.3630 C   0  0  0  0  0  0
  -28.6416  -25.2379   20.5464 C   0  0  1  0  0  0
  -27.8090  -17.7182   20.5738 C   0  0  0  0  0  0
  -28.5370  -20.7158   20.3776 C   0  0  0  0  0  0
  -29.9272  -15.7039   20.8047 N   0  0  0  0  0  0
  -28.9128  -22.1759   20.6269 N   0  3  2  0  0  0
  -33.6380  -19.3509   20.6086 Cl  0  0  0  0  0  0
  -31.4635  -12.4442   19.1640 H   0  0  0  0  0  0
  -30.3111  -11.3700   19.9086 H   0  0  0  0  0  0
  -29.7575  -11.7442   17.4771 H   0  0  0  0  0  0
  -29.6577  -13.4664   17.7502 H   0  0  0  0  0  0
  -27.8471  -11.2979   18.8594 H   0  0  0  0  0  0
  -27.3747  -12.5912   17.7900 H   0  0  0  0  0  0
  -27.6617  -14.2530   19.5152 H   0  0  0  0  0  0
  -28.6856  -12.0903   21.4184 H   0  0  0  0  0  0
  -28.4459  -13.7685   21.8181 H   0  0  0  0  0  0
  -25.2730   -9.5700   22.4785 H   0  0  0  0  0  0
  -23.9989   -7.4637   22.7500 H   0  0  0  0  0  0
  -21.0847   -8.8728   19.8942 H   0  0  0  0  0  0
  -22.3668  -10.9647   19.6162 H   0  0  0  0  0  0
  -21.2000   -7.6139   23.9695 H   0  0  0  0  0  0
  -21.1509   -6.0529   25.9073 H   0  0  0  0  0  0
  -22.0588   -2.7598   23.2849 H   0  0  0  0  0  0
  -22.4085  -11.9817   22.4728 H   0  0  0  0  0  0
  -21.1087  -13.1214   22.2631 H   0  0  0  0  0  0
  -24.6652  -15.8443   20.5645 H   0  0  0  0  0  0
  -26.2718  -15.6220   20.0903 H   0  0  0  0  0  0
  -26.7142  -32.5489   23.1112 H   0  0  0  0  0  0
  -25.0099  -33.9737   25.0488 H   0  0  0  0  0  0
  -22.7128  -31.2936   21.3816 H   0  0  0  0  0  0
  -23.3776  -35.9543   23.3225 H   0  0  0  0  0  0
  -24.3565  -36.8988   22.2079 H   0  0  0  0  0  0
  -23.7112  -37.6410   23.6720 H   0  0  0  0  0  0
  -26.0736  -31.5443   20.5906 H   0  0  0  0  0  0
  -26.8369  -30.8578   21.9968 H   0  0  0  0  0  0
  -28.1150  -29.0309   21.2079 H   0  0  0  0  0  0
  -26.0929  -25.9195   19.0206 H   0  0  0  0  0  0
  -24.0183  -27.2544   19.0291 H   0  0  0  0  0  0
  -23.7665  -30.5579   19.3954 H   0  0  0  0  0  0
  -22.7658  -29.2129   19.8603 H   0  0  0  0  0  0
  -25.1250  -36.1950   25.0836 H   0  0  0  0  0  0
  -20.9956  -28.3327   24.1400 H   0  0  0  0  0  0
  -20.5689  -26.2349   23.3628 H   0  0  0  0  0  0
  -21.6634  -26.7495   22.1204 H   0  0  0  0  0  0
  -19.6900  -25.6323   21.1270 H   0  0  0  0  0  0
  -19.6682  -27.3211   20.6733 H   0  0  0  0  0  0
  -17.4192  -26.6735   21.4022 H   0  0  0  0  0  0
  -18.0291  -26.0105   22.9019 H   0  0  0  0  0  0
  -19.7928  -30.7287   24.2303 H   0  0  0  0  0  0
  -17.5026  -31.6304   24.5179 H   0  0  0  0  0  0
  -15.5360  -30.3039   23.7680 H   0  0  0  0  0  0
  -15.8660  -28.0874   22.7087 H   0  0  0  0  0  0
  -24.5800  -30.7271   25.7795 H   0  0  0  0  0  0
  -24.9110  -32.2946   26.5050 H   0  0  0  0  0  0
  -25.8062  -30.8771   27.0169 H   0  0  0  0  0  0
  -26.2896  -29.6727   24.1270 H   0  0  0  0  0  0
  -27.4061  -29.7308   25.4721 H   0  0  0  0  0  0
  -27.8755  -30.4289   23.9393 H   0  0  0  0  0  0
  -27.2773  -33.3663   26.1976 H   0  0  0  0  0  0
  -28.3932  -32.6746   25.0293 H   0  0  0  0  0  0
  -28.0698  -31.8438   26.5435 H   0  0  0  0  0  0
  -28.2568  -38.0104   24.7575 H   0  0  0  0  0  0
  -28.1084  -36.2638   24.6192 H   0  0  0  0  0  0
  -27.2305  -37.1317   25.8866 H   0  0  0  0  0  0
  -20.9335  -29.8800   21.6879 H   0  0  0  0  0  0
  -26.0145  -38.2859   24.1504 H   0  0  0  0  0  0
  -31.3161  -20.9197   20.4019 H   0  0  0  0  0  0
  -32.4326  -16.8482   20.8910 H   0  0  0  0  0  0
  -27.0764  -23.0212   23.4772 H   0  0  0  0  0  0
  -28.0983  -21.5235   23.1516 H   0  0  0  0  0  0
  -26.9578  -24.8313   21.8407 H   0  0  0  0  0  0
  -26.7670  -24.1465   20.2438 H   0  0  0  0  0  0
  -29.5145  -24.9251   18.5874 H   0  0  0  0  0  0
  -30.5819  -24.5208   19.8900 H   0  0  0  0  0  0
  -29.9452  -22.4374   18.7802 H   0  0  0  0  0  0
  -28.2646  -22.8950   18.7538 H   0  0  0  0  0  0
  -29.2535  -25.3774   21.4399 H   0  0  0  0  0  0
  -27.1454  -18.4692   20.1493 H   0  0  0  0  0  0
  -27.4498  -17.4716   21.5739 H   0  0  0  0  0  0
  -27.7000  -16.8355   19.9442 H   0  0  0  0  0  0
  -27.7217  -20.4659   21.0548 H   0  0  0  0  0  0
  -28.0959  -20.6335   19.3838 H   0  0  0  0  0  0
  -28.9601  -15.4980   20.9959 H   0  0  0  0  0  0
  -29.8088  -22.1204   21.0892 H   0  0  0  0  0  0
  1 25  1  0  0  0
  1 30  2  0  0  0
  1 85  1  0  0  0
  2  3  1  0  0  0
  2 25  1  0  0  0
  2 88  1  0  0  0
  2 89  1  0  0  0
  3  4  1  0  0  0
  3 90  1  0  0  0
  3 91  1  0  0  0
  4  5  1  0  0  0
  4 92  1  0  0  0
  4 93  1  0  0  0
  5  6  1  0  0  0
  5 26  1  0  0  0
  5 94  1  0  0  0
  6 25  1  0  0  0
  6 95  1  0  0  0
  6 96  1  0  0  0
  7  8  2  0  0  0
  7 26  1  0  0  0
  7 29  1  0  0  0
  8  9  1  0  0  0
  8 22  1  0  0  0
  9 10  1  0  0  0
  9 27  2  0  0  0
 10 11  2  0  0  0
 10 15  1  0  0  0
 11 12  1  0  0  0
 11 97  1  0  0  0
 12 13  2  0  0  0
 12 98  1  0  0  0
 13 14  1  0  0  0
 13 31  1  0  0  0
 14 15  2  0  0  0
 14 99  1  0  0  0
 15100  1  0  0  0
 16 17  2  0  0  0
 16 21  1  0  0  0
 16 31  1  0  0  0
 17 18  1  0  0  0
 17101  1  0  0  0
 18 19  2  0  0  0
 18102  1  0  0  0
 19 20  1  0  0  0
 19 24  1  0  0  0
 20 21  2  0  0  0
 20103  1  0  0  0
 21 23  1  0  0  0
 22 28  1  0  0  0
 22 32  2  0  0  0
 26 27  1  0  0  0
 28104  1  0  0  0
 28105  1  0  0  0
 29106  1  0  0  0
 29107  1  0  0  0
 33 34  1  0  0  0
 33 66  1  0  0  0
 33 70  2  0  0  0
 34 36  1  0  0  0
 34 59  1  0  0  0
 34108  1  0  0  0
 35 44  2  0  0  0
 35 45  1  0  0  0
 35 68  1  0  0  0
 36 56  1  0  0  0
 36109  1  0  0  0
 37 39  1  0  0  0
 37 47  1  0  0  0
 37 66  1  0  0  0
 37110  1  0  0  0
 38 43  2  0  0  0
 38 46  1  0  0  0
 38 47  1  0  0  0
 39 64  1  0  0  0
 39 67  2  0  0  0
 40 52  1  0  0  0
 40 53  2  0  0  0
 40 58  1  0  0  0
 41111  1  0  0  0
 41112  1  0  0  0
 41113  1  0  0  0
 41 48  1  0  0  0
 42 43  1  0  0  0
 42 66  1  0  0  0
 42114  1  0  0  0
 42115  1  0  0  0
 43 44  1  0  0  0
 44116  1  0  0  0
 45 46  2  0  0  0
 45117  1  0  0  0
 46118  1  0  0  0
 47119  1  0  0  0
 47120  1  0  0  0
 48 56  1  0  0  0
 48 65  1  0  0  0
 48121  1  0  0  0
 49 50  1  0  0  0
 49 53  1  0  0  0
 49 64  1  0  0  0
 49122  1  0  0  0
 50 51  1  0  0  0
 50123  1  0  0  0
 50124  1  0  0  0
 51 52  1  0  0  0
 51125  1  0  0  0
 51126  1  0  0  0
 52127  1  0  0  0
 52128  1  0  0  0
 53 54  1  0  0  0
 54 55  2  0  0  0
 54129  1  0  0  0
 55 57  1  0  0  0
 55130  1  0  0  0
 56 69  2  0  0  0
 57 58  2  0  0  0
 57131  1  0  0  0
 58132  1  0  0  0
 59 60  1  0  0  0
 59 61  1  0  0  0
 59 62  1  0  0  0
 60133  1  0  0  0
 60134  1  0  0  0
 60135  1  0  0  0
 61136  1  0  0  0
 61137  1  0  0  0
 61138  1  0  0  0
 62139  1  0  0  0
 62140  1  0  0  0
 62141  1  0  0  0
 63 65  1  0  0  0
 63142  1  0  0  0
 63143  1  0  0  0
 63144  1  0  0  0
 64145  1  0  0  0
 65146  1  0  0  0
 68 82  1  0  0  0
 71 73  2  0  0  0
 71 76  1  0  0  0
 71147  1  0  0  0
 72 75  1  0  0  0
 72 76  2  0  0  0
 72148  1  0  0  0
 73 74  1  0  0  0
 73 84  1  0  0  0
 74 75  2  0  0  0
 74 83  1  0  0  0
 75 85  1  0  0  0
 76 87  1  0  0  0
 77 78  2  0  0  0
 77 79  1  0  0  0
 77 86  1  0  0  0
 78149  1  0  0  0
 78150  1  0  0  0
 79 82  1  0  0  0
 79151  1  0  0  0
 79152  1  0  0  0
 80 81  1  0  0  0
 80 82  1  0  0  0
 80153  1  0  0  0
 80154  1  0  0  0
 81 86  1  0  0  0
 81155  1  0  0  0
 81156  1  0  0  0
 82157  1  0  0  0
 83158  1  0  0  0
 83159  1  0  0  0
 83160  1  0  0  0
 84161  1  0  0  0
 84162  1  0  0  0
 84 86  1  0  0  0
 85163  1  0  0  0
 86164  1  0  0  0
M  CHG  1  86   1
M  ISO  4   1 100  68 101  82 101  85 100
M  END
> <chiral flag>
0

> <version>
0

> <s_m_source_file>
/data/baiqing/PycharmProjects/Reinvent-master-3.2/result/LINK_invent/BTK/process_docking_weight1_custom_product_contain_oxygen_bond_distance_aromatic_linkinvent_7_9_3/rearranged_h_0052.sdf

> <i_m_source_file_index>
78

> <r_mmod_Potential_Energy-OPLS-2005>
-22.9004096984863

> <r_mmod_Stretch_Energy-OPLS-2005>
80.4781112670898

> <r_mmod_Bend_Energy-OPLS-2005>
161.865127563477

> <r_mmod_Torsional_Energy-OPLS-2005>
264.301208496094

> <r_mmod_Improper_Torsional_Energy-OPLS-2005>
5.15799331665039

> <r_mmod_Van_der_Waal_Energy-OPLS-2005>
152.657379150391

> <r_mmod_Electrostatic_Energy-OPLS-2005>
-262.881988525391

> <r_mmod_Solvation_Energy-OPLS-2005>
-458.578918457031

> <b_mmod_Minimization_Converged-OPLS-2005>
0

> <r_mmod_RMS_Derivative-OPLS-2005>
2.79833292961121

$$$$
78
                    3D
 Structure written by MMmdl.
171180  0  0  1  0            999 V2000
  -30.7476  -14.4313   20.5814 C   0  0  0  0  0  0
  -30.4095  -12.2839   19.4282 C   0  0  0  0  0  0
  -29.4842  -12.4982   18.2133 C   0  0  0  0  0  0
  -28.0023  -12.3713   18.6206 C   0  0  0  0  0  0
  -27.6477  -13.1880   19.8900 C   0  0  2  0  0  0
  -28.7048  -13.0012   21.0058 C   0  0  0  0  0  0
  -25.2513  -13.8070   20.5695 C   0  0  0  0  0  0
  -24.1755  -13.0385   20.9220 C   0  0  0  0  0  0
  -24.6293  -11.6847   20.8798 C   0  0  0  0  0  0
  -23.8963  -10.4256   21.0436 C   0  0  0  0  0  0
  -24.3543   -9.4192   21.9213 C   0  0  0  0  0  0
  -23.6245   -8.2223   22.0771 C   0  0  0  0  0  0
  -22.4240   -8.0253   21.3549 C   0  0  0  0  0  0
  -21.9849   -9.0219   20.4655 C   0  0  0  0  0  0
  -22.7142  -10.2112   20.3076 C   0  0  0  0  0  0
  -21.6841   -6.0714   22.5281 C   0  0  0  0  0  0
  -21.4007   -6.5635   23.8203 C   0  0  0  0  0  0
  -21.3646   -5.6804   24.9178 C   0  0  0  0  0  0
  -21.6044   -4.3064   24.7233 C   0  0  0  0  0  0
  -21.8819   -3.8131   23.4363 C   0  0  0  0  0  0
  -21.9187   -4.6941   22.3409 C   0  0  0  0  0  0
  -22.7790  -13.5230   21.1842 C   0  0  0  0  0  0
  -22.1672   -4.2116   21.0990 F   0  0  0  0  0  0
  -21.5613   -3.4560   25.7759 F   0  0  0  0  0  0
  -30.0417  -13.2753   20.4484 N   0  0  0  0  0  0
  -26.2937  -12.9176   20.3512 N   0  0  0  0  0  0
  -25.9229  -11.6373   20.5905 N   0  0  0  0  0  0
  -22.0391  -12.8282   22.0415 N   0  0  0  0  0  0
  -25.4233  -15.1780   20.3936 N   0  0  0  0  0  0
  -31.8503  -14.5962   20.0569 O   0  0  0  0  0  0
  -21.6611   -6.8855   21.4239 O   0  0  0  0  0  0
  -22.3520  -14.5537   20.6652 O   0  0  0  0  0  0
  -24.6070  -31.8700   23.2098 C   0  0  0  0  0  0
  -25.8981  -32.4833   23.8386 C   0  0  1  0  0  0
  -27.2631  -27.4876   20.1119 C   0  0  0  0  0  0
  -25.5858  -33.8630   24.2333 N   0  0  0  0  0  0
  -23.3923  -30.4879   21.5487 C   0  0  2  0  0  0
  -24.8455  -28.9552   20.1123 C   0  0  0  0  0  0
  -22.7367  -29.4653   22.5020 C   0  0  0  0  0  0
  -18.0258  -28.1369   22.8501 C   0  0  0  0  0  0
  -24.1482  -36.7325   23.2643 C   0  0  0  0  0  0
  -25.9075  -30.8625   21.3434 C   0  0  0  0  0  0
  -25.9937  -29.4980   20.6980 C   0  0  0  0  0  0
  -27.2008  -28.7794   20.6859 C   0  0  0  0  0  0
  -26.1026  -26.9516   19.5134 C   0  0  0  0  0  0
  -24.8931  -27.6802   19.5137 C   0  0  0  0  0  0
  -23.5979  -29.8077   20.1651 C   0  0  0  0  0  0
  -25.4099  -36.3123   24.0347 C   0  0  1  0  0  0
  -20.5842  -28.3639   23.1355 C   0  0  2  0  0  0
  -20.6744  -26.9381   22.5433 C   0  0  0  0  0  0
  -19.5732  -26.6388   21.5213 C   0  0  0  0  0  0
  -18.1906  -26.7924   22.1616 C   0  0  0  0  0  0
  -19.1506  -28.8819   23.2926 C   0  0  0  0  0  0
  -18.9441  -30.1430   23.8926 C   0  0  0  0  0  0
  -17.6444  -30.6580   24.0569 C   0  0  0  0  0  0
  -25.9020  -34.9485   23.5141 C   0  0  0  0  0  0
  -16.5333  -29.9086   23.6325 C   0  0  0  0  0  0
  -16.7248  -28.6502   23.0346 C   0  0  0  0  0  0
  -26.4457  -31.6591   25.0677 C   0  0  0  0  0  0
  -25.3763  -31.3664   26.1455 C   0  0  0  0  0  0
  -27.0277  -30.3058   24.5969 C   0  0  0  0  0  0
  -27.6058  -32.4293   25.7427 C   0  0  0  0  0  0
  -27.5582  -37.1809   24.8464 C   0  0  0  0  0  0
  -21.4100  -29.3010   22.3767 N   0  0  0  0  0  0
  -26.4292  -37.3799   23.9413 N   0  0  0  0  0  0
  -24.6539  -31.0863   22.0955 N   0  0  0  0  0  0
  -23.4168  -28.8215   23.3050 O   0  0  0  0  0  0
  -28.4367  -26.7622   20.1369 O   0  0  0  0  0  0
  -26.5590  -34.8935   22.4706 O   0  0  0  0  0  0
  -23.5284  -32.1409   23.7546 O   0  0  0  0  0  0
  -33.3324  -22.9784   20.7390 C   0  0  0  0  0  0
  -28.3678  -16.7015   17.2989 C   0  0  0  0  0  0
  -32.4926  -21.9127   20.3666 C   0  0  0  0  0  0
  -32.8968  -24.3060   20.5799 C   0  0  0  0  0  0
  -28.4268  -17.9714   16.7081 C   0  0  0  0  0  0
  -29.0219  -16.4759   18.5188 C   0  0  0  0  0  0
  -30.7694  -23.5004   19.7055 C   0  0  0  0  0  0
  -31.2012  -22.1652   19.8489 C   0  0  0  0  0  0
  -29.8419  -18.7726   18.5557 C   0  0  0  0  0  0
  -31.6121  -24.5717   20.0600 C   0  0  0  0  0  0
  -29.1787  -19.0004   17.3115 C   0  0  0  0  0  0
  -29.7228  -17.5006   19.1821 C   0  0  0  0  0  0
  -30.3221  -21.0915   19.3677 C   0  0  0  0  0  0
  -30.6887  -19.8151   19.1565 C   0  0  0  0  0  0
  -29.0900  -26.6205   21.3343 C   0  0  0  0  0  0
  -29.2776  -20.3221   16.5622 C   0  0  0  0  0  0
  -31.3476  -26.6118   22.3291 C   0  0  0  0  0  0
  -31.1137  -26.0010   19.9268 C   0  0  0  0  0  0
  -30.1080  -15.5068   21.1966 N   0  0  0  0  0  0
  -30.4679  -26.4446   21.1680 N   0  0  0  0  0  0
  -28.5362  -26.7457   22.4333 O   0  0  0  0  0  0
  -31.8585  -17.4110   20.8478 O   0  0  0  0  0  0
  -29.5799  -17.9378   21.8107 O   0  0  0  0  0  0
  -30.4035  -17.1814   20.8496 S   0  0  0  0  0  0
  -31.4536  -12.3595   19.1210 H   0  0  0  0  0  0
  -30.2925  -11.2772   19.8313 H   0  0  0  0  0  0
  -29.7148  -11.7716   17.4329 H   0  0  0  0  0  0
  -29.6699  -13.4802   17.7767 H   0  0  0  0  0  0
  -27.7940  -11.3160   18.7928 H   0  0  0  0  0  0
  -27.3576  -12.6736   17.7940 H   0  0  0  0  0  0
  -27.6383  -14.2279   19.6043 H   0  0  0  0  0  0
  -28.6771  -11.9785   21.3862 H   0  0  0  0  0  0
  -28.4717  -13.6347   21.8624 H   0  0  0  0  0  0
  -25.2676   -9.5693   22.4795 H   0  0  0  0  0  0
  -23.9950   -7.4628   22.7507 H   0  0  0  0  0  0
  -21.0774   -8.8719   19.8983 H   0  0  0  0  0  0
  -22.3580  -10.9660   19.6207 H   0  0  0  0  0  0
  -21.2018   -7.6149   23.9686 H   0  0  0  0  0  0
  -21.1462   -6.0553   25.9077 H   0  0  0  0  0  0
  -22.0604   -2.7585   23.2894 H   0  0  0  0  0  0
  -22.3956  -12.0003   22.4951 H   0  0  0  0  0  0
  -21.0996  -13.1346   22.2515 H   0  0  0  0  0  0
  -24.6391  -15.8196   20.4284 H   0  0  0  0  0  0
  -26.2524  -15.5980   19.9942 H   0  0  0  0  0  0
  -26.7056  -32.5593   23.1170 H   0  0  0  0  0  0
  -25.0001  -33.9792   25.0472 H   0  0  0  0  0  0
  -22.6772  -31.3010   21.4070 H   0  0  0  0  0  0
  -23.3738  -35.9663   23.3314 H   0  0  0  0  0  0
  -24.3580  -36.8926   22.2054 H   0  0  0  0  0  0
  -23.7238  -37.6538   23.6646 H   0  0  0  0  0  0
  -25.9923  -31.6254   20.5679 H   0  0  0  0  0  0
  -26.8050  -30.9344   21.9456 H   0  0  0  0  0  0
  -28.0825  -29.2148   21.1355 H   0  0  0  0  0  0
  -26.1353  -25.9702   19.0615 H   0  0  0  0  0  0
  -24.0092  -27.2544   19.0590 H   0  0  0  0  0  0
  -23.6901  -30.5763   19.3973 H   0  0  0  0  0  0
  -22.7275  -29.2134   19.8818 H   0  0  0  0  0  0
  -25.1275  -36.1992   25.0840 H   0  0  0  0  0  0
  -20.9931  -28.3190   24.1475 H   0  0  0  0  0  0
  -20.5628  -26.2240   23.3608 H   0  0  0  0  0  0
  -21.6620  -26.7425   22.1236 H   0  0  0  0  0  0
  -19.6891  -25.6311   21.1213 H   0  0  0  0  0  0
  -19.6680  -27.3226   20.6768 H   0  0  0  0  0  0
  -17.4184  -26.6691   21.4008 H   0  0  0  0  0  0
  -18.0292  -26.0051   22.8994 H   0  0  0  0  0  0
  -19.7920  -30.7238   24.2308 H   0  0  0  0  0  0
  -17.5004  -31.6264   24.5167 H   0  0  0  0  0  0
  -15.5338  -30.2997   23.7637 H   0  0  0  0  0  0
  -15.8647  -28.0833   22.7041 H   0  0  0  0  0  0
  -24.5930  -30.7015   25.7801 H   0  0  0  0  0  0
  -24.8961  -32.2806   26.4956 H   0  0  0  0  0  0
  -25.8154  -30.8803   27.0175 H   0  0  0  0  0  0
  -26.2769  -29.6797   24.1130 H   0  0  0  0  0  0
  -27.4213  -29.7304   25.4357 H   0  0  0  0  0  0
  -27.8524  -30.4415   23.8966 H   0  0  0  0  0  0
  -27.2698  -33.3578   26.2060 H   0  0  0  0  0  0
  -28.3836  -32.6873   25.0225 H   0  0  0  0  0  0
  -28.0761  -31.8375   26.5291 H   0  0  0  0  0  0
  -28.2612  -38.0095   24.7505 H   0  0  0  0  0  0
  -28.1064  -36.2629   24.6288 H   0  0  0  0  0  0
  -27.2307  -37.1463   25.8870 H   0  0  0  0  0  0
  -20.9243  -29.8730   21.7002 H   0  0  0  0  0  0
  -26.0189  -38.2883   24.1408 H   0  0  0  0  0  0
  -34.3130  -22.7765   21.1474 H   0  0  0  0  0  0
  -27.8235  -15.8973   16.8231 H   0  0  0  0  0  0
  -32.8609  -20.9049   20.4881 H   0  0  0  0  0  0
  -33.5495  -25.1167   20.8720 H   0  0  0  0  0  0
  -27.9166  -18.1418   15.7682 H   0  0  0  0  0  0
  -28.9859  -15.4974   18.9331 H   0  0  0  0  0  0
  -29.7850  -23.7069   19.3081 H   0  0  0  0  0  0
  -29.3000  -21.3755   19.1599 H   0  0  0  0  0  0
  -31.6990  -19.5055   19.3762 H   0  0  0  0  0  0
  -29.0196  -20.1980   15.5106 H   0  0  0  0  0  0
  -30.2898  -20.7255   16.5938 H   0  0  0  0  0  0
  -28.5906  -21.0574   16.9816 H   0  0  0  0  0  0
  -31.0251  -27.4425   22.9588 H   0  0  0  0  0  0
  -32.3743  -26.8252   22.0310 H   0  0  0  0  0  0
  -31.3502  -25.7063   22.9363 H   0  0  0  0  0  0
  -30.4632  -26.0675   19.0548 H   0  0  0  0  0  0
  -31.9553  -26.6573   19.7015 H   0  0  0  0  0  0
  -29.1650  -15.3807   21.5512 H   0  0  0  0  0  0
  1 25  1  0  0  0
  1 30  2  0  0  0
  1 89  1  0  0  0
  2  3  1  0  0  0
  2 25  1  0  0  0
  2 95  1  0  0  0
  2 96  1  0  0  0
  3  4  1  0  0  0
  3 97  1  0  0  0
  3 98  1  0  0  0
  4  5  1  0  0  0
  4 99  1  0  0  0
  4100  1  0  0  0
  5  6  1  0  0  0
  5 26  1  0  0  0
  5101  1  0  0  0
  6 25  1  0  0  0
  6102  1  0  0  0
  6103  1  0  0  0
  7  8  2  0  0  0
  7 26  1  0  0  0
  7 29  1  0  0  0
  8  9  1  0  0  0
  8 22  1  0  0  0
  9 10  1  0  0  0
  9 27  2  0  0  0
 10 11  2  0  0  0
 10 15  1  0  0  0
 11 12  1  0  0  0
 11104  1  0  0  0
 12 13  2  0  0  0
 12105  1  0  0  0
 13 14  1  0  0  0
 13 31  1  0  0  0
 14 15  2  0  0  0
 14106  1  0  0  0
 15107  1  0  0  0
 16 17  2  0  0  0
 16 21  1  0  0  0
 16 31  1  0  0  0
 17 18  1  0  0  0
 17108  1  0  0  0
 18 19  2  0  0  0
 18109  1  0  0  0
 19 20  1  0  0  0
 19 24  1  0  0  0
 20 21  2  0  0  0
 20110  1  0  0  0
 21 23  1  0  0  0
 22 28  1  0  0  0
 22 32  2  0  0  0
 26 27  1  0  0  0
 28111  1  0  0  0
 28112  1  0  0  0
 29113  1  0  0  0
 29114  1  0  0  0
 33 34  1  0  0  0
 33 66  1  0  0  0
 33 70  2  0  0  0
 34 36  1  0  0  0
 34 59  1  0  0  0
 34115  1  0  0  0
 35 44  2  0  0  0
 35 45  1  0  0  0
 35 68  1  0  0  0
 36 56  1  0  0  0
 36116  1  0  0  0
 37 39  1  0  0  0
 37 47  1  0  0  0
 37 66  1  0  0  0
 37117  1  0  0  0
 38 43  2  0  0  0
 38 46  1  0  0  0
 38 47  1  0  0  0
 39 64  1  0  0  0
 39 67  2  0  0  0
 40 52  1  0  0  0
 40 53  2  0  0  0
 40 58  1  0  0  0
 41118  1  0  0  0
 41119  1  0  0  0
 41120  1  0  0  0
 41 48  1  0  0  0
 42 43  1  0  0  0
 42 66  1  0  0  0
 42121  1  0  0  0
 42122  1  0  0  0
 43 44  1  0  0  0
 44123  1  0  0  0
 45 46  2  0  0  0
 45124  1  0  0  0
 46125  1  0  0  0
 47126  1  0  0  0
 47127  1  0  0  0
 48 56  1  0  0  0
 48 65  1  0  0  0
 48128  1  0  0  0
 49 50  1  0  0  0
 49 53  1  0  0  0
 49 64  1  0  0  0
 49129  1  0  0  0
 50 51  1  0  0  0
 50130  1  0  0  0
 50131  1  0  0  0
 51 52  1  0  0  0
 51132  1  0  0  0
 51133  1  0  0  0
 52134  1  0  0  0
 52135  1  0  0  0
 53 54  1  0  0  0
 54 55  2  0  0  0
 54136  1  0  0  0
 55 57  1  0  0  0
 55137  1  0  0  0
 56 69  2  0  0  0
 57 58  2  0  0  0
 57138  1  0  0  0
 58139  1  0  0  0
 59 60  1  0  0  0
 59 61  1  0  0  0
 59 62  1  0  0  0
 60140  1  0  0  0
 60141  1  0  0  0
 60142  1  0  0  0
 61143  1  0  0  0
 61144  1  0  0  0
 61145  1  0  0  0
 62146  1  0  0  0
 62147  1  0  0  0
 62148  1  0  0  0
 63 65  1  0  0  0
 63149  1  0  0  0
 63150  1  0  0  0
 63151  1  0  0  0
 64152  1  0  0  0
 65153  1  0  0  0
 68 85  1  0  0  0
 71 73  2  0  0  0
 71 74  1  0  0  0
 71154  1  0  0  0
 72 75  2  0  0  0
 72 76  1  0  0  0
 72155  1  0  0  0
 73 78  1  0  0  0
 73156  1  0  0  0
 74 80  2  0  0  0
 74157  1  0  0  0
 75 81  1  0  0  0
 75158  1  0  0  0
 76 82  2  0  0  0
 76159  1  0  0  0
 77 78  2  0  0  0
 77 80  1  0  0  0
 77160  1  0  0  0
 78 83  1  0  0  0
 79 81  2  0  0  0
 79 82  1  0  0  0
 79 84  1  0  0  0
 80 88  1  0  0  0
 81 86  1  0  0  0
 82 94  1  0  0  0
 83 84  2  0  0  0
 83161  1  0  0  0
 84162  1  0  0  0
 85 90  1  0  0  0
 85 91  2  0  0  0
 86163  1  0  0  0
 86164  1  0  0  0
 86165  1  0  0  0
 87 90  1  0  0  0
 87166  1  0  0  0
 87167  1  0  0  0
 87168  1  0  0  0
 88 90  1  0  0  0
 88169  1  0  0  0
 88170  1  0  0  0
 89171  1  0  0  0
 89 94  1  0  0  0
 92 94  2  0  0  0
 93 94  2  0  0  0
M  ISO  4   1 100  68 101  85 101  89 100
M  END
> <chiral flag>
0

> <version>
0

> <s_m_source_file>
/data/baiqing/PycharmProjects/Reinvent-master-3.2/result/LINK_invent/BTK/process_docking_weight1_custom_product_contain_oxygen_bond_distance_aromatic_linkinvent_7_9_3/rearranged_h_0052.sdf

> <i_m_source_file_index>
79

> <r_mmod_Potential_Energy-OPLS-2005>
-128.294143676758

> <r_mmod_Stretch_Energy-OPLS-2005>
40.2486000061035

> <r_mmod_Bend_Energy-OPLS-2005>
96.5187606811523

> <r_mmod_Torsional_Energy-OPLS-2005>
211.795288085938

> <r_mmod_Improper_Torsional_Energy-OPLS-2005>
7.58363008499146

> <r_mmod_Van_der_Waal_Energy-OPLS-2005>
182.689697265625

> <r_mmod_Electrostatic_Energy-OPLS-2005>
-411.162933349609

> <r_mmod_Solvation_Energy-OPLS-2005>
-266.855651855469

> <b_mmod_Minimization_Converged-OPLS-2005>
0

> <r_mmod_RMS_Derivative-OPLS-2005>
2.16495728492737

$$$$
79
                    3D
 Structure written by MMmdl.
157165  0  0  1  0            999 V2000
  -30.6093  -14.6386   20.5036 C   0  0  0  0  0  0
  -30.4423  -12.3917   19.4491 C   0  0  0  0  0  0
  -29.5088  -12.5098   18.2225 C   0  0  0  0  0  0
  -28.0313  -12.3448   18.6335 C   0  0  0  0  0  0
  -27.6542  -13.2116   19.8640 C   0  0  2  0  0  0
  -28.6991  -13.0559   20.9926 C   0  0  0  0  0  0
  -25.2564  -13.8147   20.5666 C   0  0  0  0  0  0
  -24.1831  -13.0427   20.9196 C   0  0  0  0  0  0
  -24.6394  -11.6896   20.8749 C   0  0  0  0  0  0
  -23.9060  -10.4283   21.0410 C   0  0  0  0  0  0
  -24.3614   -9.4201   21.9187 C   0  0  0  0  0  0
  -23.6289   -8.2236   22.0754 C   0  0  0  0  0  0
  -22.4272   -8.0276   21.3544 C   0  0  0  0  0  0
  -21.9907   -9.0249   20.4645 C   0  0  0  0  0  0
  -22.7235  -10.2127   20.3054 C   0  0  0  0  0  0
  -21.6850   -6.0733   22.5280 C   0  0  0  0  0  0
  -21.4009   -6.5638   23.8212 C   0  0  0  0  0  0
  -21.3659   -5.6792   24.9175 C   0  0  0  0  0  0
  -21.6044   -4.3055   24.7227 C   0  0  0  0  0  0
  -21.8820   -3.8146   23.4347 C   0  0  0  0  0  0
  -21.9193   -4.6962   22.3404 C   0  0  0  0  0  0
  -22.7855  -13.5228   21.1857 C   0  0  0  0  0  0
  -22.1662   -4.2149   21.0982 F   0  0  0  0  0  0
  -21.5632   -3.4538   25.7738 F   0  0  0  0  0  0
  -30.0151  -13.4055   20.4328 N   0  0  0  0  0  0
  -26.2991  -12.9321   20.3309 N   0  0  0  0  0  0
  -25.9321  -11.6483   20.5757 N   0  0  0  0  0  0
  -22.0492  -12.8220   22.0410 N   0  0  0  0  0  0
  -25.4267  -15.1858   20.4028 N   0  0  0  0  0  0
  -31.7722  -14.8163   20.1272 O   0  0  0  0  0  0
  -21.6637   -6.8875   21.4240 O   0  0  0  0  0  0
  -22.3548  -14.5540   20.6710 O   0  0  0  0  0  0
  -24.6248  -31.8602   23.2026 C   0  0  0  0  0  0
  -25.9101  -32.4781   23.8353 C   0  0  1  0  0  0
  -27.2266  -27.3314   20.1245 C   0  0  0  0  0  0
  -25.5926  -33.8579   24.2285 N   0  0  0  0  0  0
  -23.4181  -30.4825   21.5443 C   0  0  2  0  0  0
  -24.8662  -28.9348   20.1137 C   0  0  0  0  0  0
  -22.7461  -29.4630   22.4939 C   0  0  0  0  0  0
  -18.0284  -28.1385   22.8486 C   0  0  0  0  0  0
  -24.1488  -36.7285   23.2641 C   0  0  0  0  0  0
  -25.9568  -30.7961   21.3699 C   0  0  0  0  0  0
  -26.0337  -29.4223   20.7163 C   0  0  0  0  0  0
  -27.2199  -28.6324   20.7098 C   0  0  0  0  0  0
  -26.0418  -26.8911   19.4976 C   0  0  0  0  0  0
  -24.8710  -27.6739   19.4952 C   0  0  0  0  0  0
  -23.6326  -29.8132   20.1607 C   0  0  0  0  0  0
  -25.4113  -36.3082   24.0334 C   0  0  1  0  0  0
  -20.5880  -28.3687   23.1284 C   0  0  2  0  0  0
  -20.6772  -26.9412   22.5408 C   0  0  0  0  0  0
  -19.5752  -26.6384   21.5209 C   0  0  0  0  0  0
  -18.1930  -26.7930   22.1618 C   0  0  0  0  0  0
  -19.1536  -28.8852   23.2882 C   0  0  0  0  0  0
  -18.9460  -30.1452   23.8900 C   0  0  0  0  0  0
  -17.6464  -30.6589   24.0563 C   0  0  0  0  0  0
  -25.9048  -34.9452   23.5107 C   0  0  0  0  0  0
  -16.5352  -29.9088   23.6334 C   0  0  0  0  0  0
  -16.7270  -28.6503   23.0355 C   0  0  0  0  0  0
  -26.4497  -31.6583   25.0715 C   0  0  0  0  0  0
  -25.3738  -31.3699   26.1444 C   0  0  0  0  0  0
  -27.0345  -30.3019   24.6145 C   0  0  0  0  0  0
  -27.6061  -32.4313   25.7487 C   0  0  0  0  0  0
  -27.5574  -37.1801   24.8469 C   0  0  0  0  0  0
  -21.4176  -29.3045   22.3679 N   0  0  0  0  0  0
  -26.4291  -37.3777   23.9410 N   0  0  0  0  0  0
  -24.6854  -31.0624   22.0966 N   0  0  0  0  0  0
  -23.4187  -28.8171   23.3018 O   0  0  0  0  0  0
  -28.3432  -26.4900   20.1359 O   0  0  0  0  0  0
  -26.5612  -34.8923   22.4669 O   0  0  0  0  0  0
  -23.5416  -32.1387   23.7368 O   0  0  0  0  0  0
  -30.9939  -17.9034   20.6021 C   0  0  0  0  0  0
  -28.5983  -17.8321   20.4826 C   0  0  0  0  0  0
  -30.9574  -19.3215   20.4007 C   0  0  0  0  0  0
  -29.7272  -20.0304   20.1986 C   0  0  0  0  0  0
  -29.8159  -17.1149   20.6313 C   0  0  0  0  0  0
  -28.5507  -19.2378   20.2526 C   0  0  0  0  0  0
  -28.9569  -23.9638   19.9913 C   0  0  0  0  0  0
  -32.2862  -20.0586   20.3753 C   0  0  0  0  0  0
  -28.2410  -22.2863   21.6941 C   0  0  0  0  0  0
  -29.6817  -21.5497   19.7427 C   0  0  0  0  0  0
  -28.1543  -25.1309   20.6978 C   0  0  0  0  0  0
  -29.7702  -15.6667   20.8472 N   0  0  0  0  0  0
  -28.9582  -22.6614   20.4724 N   0  0  0  0  0  0
  -29.5867  -24.2520   18.9677 O   0  0  0  0  0  0
  -27.3471  -19.8215   20.0400 F   0  0  0  0  0  0
  -31.4826  -12.5247   19.1469 H   0  0  0  0  0  0
  -30.3832  -11.3931   19.8845 H   0  0  0  0  0  0
  -29.7736  -11.7622   17.4738 H   0  0  0  0  0  0
  -29.6485  -13.4811   17.7457 H   0  0  0  0  0  0
  -27.8671  -11.2910   18.8608 H   0  0  0  0  0  0
  -27.3763  -12.5778   17.7928 H   0  0  0  0  0  0
  -27.6745  -14.2473   19.5262 H   0  0  0  0  0  0
  -28.7110  -12.0301   21.3636 H   0  0  0  0  0  0
  -28.4432  -13.6767   21.8527 H   0  0  0  0  0  0
  -25.2758   -9.5680   22.4763 H   0  0  0  0  0  0
  -23.9999   -7.4628   22.7471 H   0  0  0  0  0  0
  -21.0838   -8.8766   19.8951 H   0  0  0  0  0  0
  -22.3695  -10.9665   19.6161 H   0  0  0  0  0  0
  -21.1995   -7.6148   23.9716 H   0  0  0  0  0  0
  -21.1481   -6.0522   25.9078 H   0  0  0  0  0  0
  -22.0601   -2.7607   23.2846 H   0  0  0  0  0  0
  -22.4098  -11.9871   22.4785 H   0  0  0  0  0  0
  -21.1111  -13.1248   22.2619 H   0  0  0  0  0  0
  -24.6485  -15.8314   20.4845 H   0  0  0  0  0  0
  -26.2516  -15.6100   20.0005 H   0  0  0  0  0  0
  -26.7170  -32.5463   23.1105 H   0  0  0  0  0  0
  -25.0096  -33.9723   25.0446 H   0  0  0  0  0  0
  -22.7126  -31.3032   21.3994 H   0  0  0  0  0  0
  -23.3755  -35.9615   23.3317 H   0  0  0  0  0  0
  -24.3580  -36.8888   22.2054 H   0  0  0  0  0  0
  -23.7242  -37.6493   23.6651 H   0  0  0  0  0  0
  -26.0827  -31.5583   20.5997 H   0  0  0  0  0  0
  -26.8393  -30.8490   21.9956 H   0  0  0  0  0  0
  -28.1183  -29.0022   21.1840 H   0  0  0  0  0  0
  -26.0148  -25.9262   19.0114 H   0  0  0  0  0  0
  -23.9770  -27.2955   19.0186 H   0  0  0  0  0  0
  -23.7500  -30.5874   19.4018 H   0  0  0  0  0  0
  -22.7537  -29.2399   19.8599 H   0  0  0  0  0  0
  -25.1297  -36.1933   25.0828 H   0  0  0  0  0  0
  -20.9976  -28.3259   24.1404 H   0  0  0  0  0  0
  -20.5670  -26.2298   23.3605 H   0  0  0  0  0  0
  -21.6640  -26.7443   22.1200 H   0  0  0  0  0  0
  -19.6915  -25.6295   21.1237 H   0  0  0  0  0  0
  -19.6694  -27.3195   20.6739 H   0  0  0  0  0  0
  -17.4199  -26.6680   21.4021 H   0  0  0  0  0  0
  -18.0336  -26.0067   22.9010 H   0  0  0  0  0  0
  -19.7937  -30.7265   24.2273 H   0  0  0  0  0  0
  -17.5021  -31.6273   24.5160 H   0  0  0  0  0  0
  -15.5354  -30.2994   23.7662 H   0  0  0  0  0  0
  -15.8667  -28.0826   22.7077 H   0  0  0  0  0  0
  -24.5930  -30.7032   25.7769 H   0  0  0  0  0  0
  -24.8909  -32.2852   26.4874 H   0  0  0  0  0  0
  -25.8074  -30.8876   27.0213 H   0  0  0  0  0  0
  -26.2908  -29.6763   24.1196 H   0  0  0  0  0  0
  -27.4094  -29.7280   25.4629 H   0  0  0  0  0  0
  -27.8755  -30.4325   23.9330 H   0  0  0  0  0  0
  -27.2684  -33.3624   26.2049 H   0  0  0  0  0  0
  -28.3885  -32.6848   25.0321 H   0  0  0  0  0  0
  -28.0715  -31.8442   26.5415 H   0  0  0  0  0  0
  -28.2595  -38.0094   24.7511 H   0  0  0  0  0  0
  -28.1064  -36.2625   24.6300 H   0  0  0  0  0  0
  -27.2288  -37.1453   25.8871 H   0  0  0  0  0  0
  -20.9354  -29.8765   21.6887 H   0  0  0  0  0  0
  -26.0169  -38.2852   24.1413 H   0  0  0  0  0  0
  -31.9496  -17.4149   20.7355 H   0  0  0  0  0  0
  -27.6614  -17.2967   20.5107 H   0  0  0  0  0  0
  -33.1058  -19.4208   20.7080 H   0  0  0  0  0  0
  -32.2620  -20.9256   21.0362 H   0  0  0  0  0  0
  -32.5189  -20.3963   19.3650 H   0  0  0  0  0  0
  -27.2114  -22.0173   21.4565 H   0  0  0  0  0  0
  -28.2177  -23.0837   22.4356 H   0  0  0  0  0  0
  -28.7062  -21.4345   22.1890 H   0  0  0  0  0  0
  -29.2476  -21.5226   18.7420 H   0  0  0  0  0  0
  -30.6979  -21.9030   19.5774 H   0  0  0  0  0  0
  -28.4826  -25.1871   21.7351 H   0  0  0  0  0  0
  -27.1043  -24.8394   20.7308 H   0  0  0  0  0  0
  -28.8636  -15.3194   21.1200 H   0  0  0  0  0  0
  1 25  1  0  0  0
  1 30  2  0  0  0
  1 82  1  0  0  0
  2  3  1  0  0  0
  2 25  1  0  0  0
  2 86  1  0  0  0
  2 87  1  0  0  0
  3  4  1  0  0  0
  3 88  1  0  0  0
  3 89  1  0  0  0
  4  5  1  0  0  0
  4 90  1  0  0  0
  4 91  1  0  0  0
  5  6  1  0  0  0
  5 26  1  0  0  0
  5 92  1  0  0  0
  6 25  1  0  0  0
  6 93  1  0  0  0
  6 94  1  0  0  0
  7  8  2  0  0  0
  7 26  1  0  0  0
  7 29  1  0  0  0
  8  9  1  0  0  0
  8 22  1  0  0  0
  9 10  1  0  0  0
  9 27  2  0  0  0
 10 11  2  0  0  0
 10 15  1  0  0  0
 11 12  1  0  0  0
 11 95  1  0  0  0
 12 13  2  0  0  0
 12 96  1  0  0  0
 13 14  1  0  0  0
 13 31  1  0  0  0
 14 15  2  0  0  0
 14 97  1  0  0  0
 15 98  1  0  0  0
 16 17  2  0  0  0
 16 21  1  0  0  0
 16 31  1  0  0  0
 17 18  1  0  0  0
 17 99  1  0  0  0
 18 19  2  0  0  0
 18100  1  0  0  0
 19 20  1  0  0  0
 19 24  1  0  0  0
 20 21  2  0  0  0
 20101  1  0  0  0
 21 23  1  0  0  0
 22 28  1  0  0  0
 22 32  2  0  0  0
 26 27  1  0  0  0
 28102  1  0  0  0
 28103  1  0  0  0
 29104  1  0  0  0
 29105  1  0  0  0
 33 34  1  0  0  0
 33 66  1  0  0  0
 33 70  2  0  0  0
 34 36  1  0  0  0
 34 59  1  0  0  0
 34106  1  0  0  0
 35 44  2  0  0  0
 35 45  1  0  0  0
 35 68  1  0  0  0
 36 56  1  0  0  0
 36107  1  0  0  0
 37 39  1  0  0  0
 37 47  1  0  0  0
 37 66  1  0  0  0
 37108  1  0  0  0
 38 43  2  0  0  0
 38 46  1  0  0  0
 38 47  1  0  0  0
 39 64  1  0  0  0
 39 67  2  0  0  0
 40 52  1  0  0  0
 40 53  2  0  0  0
 40 58  1  0  0  0
 41109  1  0  0  0
 41110  1  0  0  0
 41111  1  0  0  0
 41 48  1  0  0  0
 42 43  1  0  0  0
 42 66  1  0  0  0
 42112  1  0  0  0
 42113  1  0  0  0
 43 44  1  0  0  0
 44114  1  0  0  0
 45 46  2  0  0  0
 45115  1  0  0  0
 46116  1  0  0  0
 47117  1  0  0  0
 47118  1  0  0  0
 48 56  1  0  0  0
 48 65  1  0  0  0
 48119  1  0  0  0
 49 50  1  0  0  0
 49 53  1  0  0  0
 49 64  1  0  0  0
 49120  1  0  0  0
 50 51  1  0  0  0
 50121  1  0  0  0
 50122  1  0  0  0
 51 52  1  0  0  0
 51123  1  0  0  0
 51124  1  0  0  0
 52125  1  0  0  0
 52126  1  0  0  0
 53 54  1  0  0  0
 54 55  2  0  0  0
 54127  1  0  0  0
 55 57  1  0  0  0
 55128  1  0  0  0
 56 69  2  0  0  0
 57 58  2  0  0  0
 57129  1  0  0  0
 58130  1  0  0  0
 59 60  1  0  0  0
 59 61  1  0  0  0
 59 62  1  0  0  0
 60131  1  0  0  0
 60132  1  0  0  0
 60133  1  0  0  0
 61134  1  0  0  0
 61135  1  0  0  0
 61136  1  0  0  0
 62137  1  0  0  0
 62138  1  0  0  0
 62139  1  0  0  0
 63 65  1  0  0  0
 63140  1  0  0  0
 63141  1  0  0  0
 63142  1  0  0  0
 64143  1  0  0  0
 65144  1  0  0  0
 68 81  1  0  0  0
 71 73  2  0  0  0
 71 75  1  0  0  0
 71145  1  0  0  0
 72 75  2  0  0  0
 72 76  1  0  0  0
 72146  1  0  0  0
 73 74  1  0  0  0
 73 78  1  0  0  0
 74 76  2  0  0  0
 74 80  1  0  0  0
 75 82  1  0  0  0
 76 85  1  0  0  0
 77 81  1  0  0  0
 77 83  1  0  0  0
 77 84  2  0  0  0
 78147  1  0  0  0
 78148  1  0  0  0
 78149  1  0  0  0
 79 83  1  0  0  0
 79150  1  0  0  0
 79151  1  0  0  0
 79152  1  0  0  0
 80 83  1  0  0  0
 80153  1  0  0  0
 80154  1  0  0  0
 81155  1  0  0  0
 81156  1  0  0  0
 82157  1  0  0  0
M  ISO  4   1 100  68 101  81 101  82 100
M  END
> <chiral flag>
0

> <version>
0

> <s_m_source_file>
/data/baiqing/PycharmProjects/Reinvent-master-3.2/result/LINK_invent/BTK/process_docking_weight1_custom_product_contain_oxygen_bond_distance_aromatic_linkinvent_7_9_3/rearranged_h_0052.sdf

> <i_m_source_file_index>
80

> <r_mmod_Potential_Energy-OPLS-2005>
117.446281433105

> <r_mmod_Stretch_Energy-OPLS-2005>
84.25048828125

> <r_mmod_Bend_Energy-OPLS-2005>
140.607192993164

> <r_mmod_Torsional_Energy-OPLS-2005>
250.113159179688

> <r_mmod_Improper_Torsional_Energy-OPLS-2005>
5.85858631134033

> <r_mmod_Van_der_Waal_Energy-OPLS-2005>
147.434448242188

> <r_mmod_Electrostatic_Energy-OPLS-2005>
-326.924530029297

> <r_mmod_Solvation_Energy-OPLS-2005>
-229.261245727539

> <b_mmod_Minimization_Converged-OPLS-2005>
0

> <r_mmod_RMS_Derivative-OPLS-2005>
0.650785624980927

$$$$
80
                    3D
 Structure written by MMmdl.
156164  0  0  1  0            999 V2000
  -30.5936  -14.6262   20.5175 C   0  0  0  0  0  0
  -30.4469  -12.3940   19.4318 C   0  0  0  0  0  0
  -29.5052  -12.5164   18.2129 C   0  0  0  0  0  0
  -28.0274  -12.3530   18.6256 C   0  0  0  0  0  0
  -27.6536  -13.2070   19.8640 C   0  0  2  0  0  0
  -28.7008  -13.0286   20.9869 C   0  0  0  0  0  0
  -25.2547  -13.8135   20.5643 C   0  0  0  0  0  0
  -24.1803  -13.0425   20.9160 C   0  0  0  0  0  0
  -24.6366  -11.6899   20.8741 C   0  0  0  0  0  0
  -23.9048  -10.4292   21.0427 C   0  0  0  0  0  0
  -24.3617   -9.4201   21.9186 C   0  0  0  0  0  0
  -23.6310   -8.2224   22.0762 C   0  0  0  0  0  0
  -22.4282   -8.0277   21.3567 C   0  0  0  0  0  0
  -21.9918   -9.0246   20.4667 C   0  0  0  0  0  0
  -22.7234  -10.2131   20.3067 C   0  0  0  0  0  0
  -21.6828   -6.0746   22.5284 C   0  0  0  0  0  0
  -21.4009   -6.5654   23.8220 C   0  0  0  0  0  0
  -21.3650   -5.6788   24.9177 C   0  0  0  0  0  0
  -21.6049   -4.3050   24.7214 C   0  0  0  0  0  0
  -21.8809   -3.8169   23.4327 C   0  0  0  0  0  0
  -21.9179   -4.6987   22.3392 C   0  0  0  0  0  0
  -22.7822  -13.5242   21.1844 C   0  0  0  0  0  0
  -22.1626   -4.2187   21.0950 F   0  0  0  0  0  0
  -21.5680   -3.4522   25.7722 F   0  0  0  0  0  0
  -30.0145  -13.3915   20.4275 N   0  0  0  0  0  0
  -26.2984  -12.9304   20.3308 N   0  0  0  0  0  0
  -25.9295  -11.6469   20.5729 N   0  0  0  0  0  0
  -22.0458  -12.8230   22.0386 N   0  0  0  0  0  0
  -25.4211  -15.1847   20.4049 N   0  0  0  0  0  0
  -31.7593  -14.8357   20.1651 O   0  0  0  0  0  0
  -21.6630   -6.8891   21.4250 O   0  0  0  0  0  0
  -22.3509  -14.5571   20.6703 O   0  0  0  0  0  0
  -24.6221  -31.8617   23.2028 C   0  0  0  0  0  0
  -25.9083  -32.4803   23.8345 C   0  0  1  0  0  0
  -27.2295  -27.3593   20.1211 C   0  0  0  0  0  0
  -25.5922  -33.8603   24.2283 N   0  0  0  0  0  0
  -23.4132  -30.4824   21.5445 C   0  0  2  0  0  0
  -24.8605  -28.9307   20.1196 C   0  0  0  0  0  0
  -22.7443  -29.4640   22.4966 C   0  0  0  0  0  0
  -18.0273  -28.1402   22.8495 C   0  0  0  0  0  0
  -24.1479  -36.7296   23.2639 C   0  0  0  0  0  0
  -25.9477  -30.8048   21.3634 C   0  0  0  0  0  0
  -26.0238  -29.4316   20.7159 C   0  0  0  0  0  0
  -27.2157  -28.6570   20.7041 C   0  0  0  0  0  0
  -26.0472  -26.8839   19.5210 C   0  0  0  0  0  0
  -24.8701  -27.6599   19.5167 C   0  0  0  0  0  0
  -23.6276  -29.8095   20.1623 C   0  0  0  0  0  0
  -25.4106  -36.3108   24.0340 C   0  0  1  0  0  0
  -20.5873  -28.3695   23.1324 C   0  0  2  0  0  0
  -20.6783  -26.9434   22.5433 C   0  0  0  0  0  0
  -19.5758  -26.6404   21.5229 C   0  0  0  0  0  0
  -18.1931  -26.7944   22.1632 C   0  0  0  0  0  0
  -19.1526  -28.8860   23.2900 C   0  0  0  0  0  0
  -18.9453  -30.1470   23.8908 C   0  0  0  0  0  0
  -17.6460  -30.6607   24.0583 C   0  0  0  0  0  0
  -25.9039  -34.9483   23.5104 C   0  0  0  0  0  0
  -16.5349  -29.9123   23.6338 C   0  0  0  0  0  0
  -16.7263  -28.6538   23.0354 C   0  0  0  0  0  0
  -26.4477  -31.6610   25.0703 C   0  0  0  0  0  0
  -25.3732  -31.3741   26.1444 C   0  0  0  0  0  0
  -27.0305  -30.3051   24.6102 C   0  0  0  0  0  0
  -27.6038  -32.4339   25.7476 C   0  0  0  0  0  0
  -27.5577  -37.1808   24.8468 C   0  0  0  0  0  0
  -21.4161  -29.3043   22.3708 N   0  0  0  0  0  0
  -26.4288  -37.3808   23.9415 N   0  0  0  0  0  0
  -24.6793  -31.0666   22.0957 N   0  0  0  0  0  0
  -23.4188  -28.8196   23.3044 O   0  0  0  0  0  0
  -28.3799  -26.5820   20.0847 O   0  0  0  0  0  0
  -26.5610  -34.8948   22.4672 O   0  0  0  0  0  0
  -23.5397  -32.1401   23.7403 O   0  0  0  0  0  0
  -26.5844  -17.2551   22.9938 C   0  0  0  0  0  0
  -27.7636  -16.8864   22.3474 C   0  0  0  0  0  0
  -26.1625  -18.5789   22.9389 C   0  0  0  0  0  0
  -28.1329  -19.2050   21.5462 C   0  0  0  0  0  0
  -28.5468  -17.7974   21.5829 C   0  0  0  0  0  0
  -26.9240  -19.5434   22.2623 C   0  0  0  0  0  0
  -28.9046  -20.3574   20.8955 C   0  0  0  0  0  0
  -29.7870  -17.1333   20.8796 C   0  0  0  0  0  0
  -28.4142  -23.9778   19.7654 C   0  0  0  0  0  0
  -29.2193  -22.7010   20.2755 C   0  0  0  0  0  0
  -28.3575  -25.2530   20.6990 C   0  0  0  0  0  0
  -28.3964  -21.4949   20.5172 N   0  0  0  0  0  0
  -29.7195  -15.6278   20.8193 N   0  0  0  0  0  0
  -26.2819  -21.1479   22.4664 Cl  0  0  0  0  0  0
  -31.4850  -12.5419   19.1246 H   0  0  0  0  0  0
  -30.3966  -11.3925   19.8594 H   0  0  0  0  0  0
  -29.7640  -11.7749   17.4577 H   0  0  0  0  0  0
  -29.6466  -13.4911   17.7416 H   0  0  0  0  0  0
  -27.8614  -11.2987   18.8457 H   0  0  0  0  0  0
  -27.3701  -12.5988   17.7908 H   0  0  0  0  0  0
  -27.6752  -14.2463   19.5352 H   0  0  0  0  0  0
  -28.7137  -11.9952   21.3336 H   0  0  0  0  0  0
  -28.4433  -13.6261   21.8624 H   0  0  0  0  0  0
  -25.2771   -9.5686   22.4748 H   0  0  0  0  0  0
  -24.0043   -7.4610   22.7466 H   0  0  0  0  0  0
  -21.0855   -8.8773   19.8968 H   0  0  0  0  0  0
  -22.3706  -10.9683   19.6188 H   0  0  0  0  0  0
  -21.1991   -7.6163   23.9740 H   0  0  0  0  0  0
  -21.1479   -6.0520   25.9076 H   0  0  0  0  0  0
  -22.0598   -2.7643   23.2805 H   0  0  0  0  0  0
  -22.4047  -11.9848   22.4711 H   0  0  0  0  0  0
  -21.1083  -13.1268   22.2572 H   0  0  0  0  0  0
  -24.6497  -15.8293   20.5406 H   0  0  0  0  0  0
  -26.2694  -15.6435   20.1025 H   0  0  0  0  0  0
  -26.7162  -32.5479   23.1109 H   0  0  0  0  0  0
  -25.0105  -33.9741   25.0454 H   0  0  0  0  0  0
  -22.7033  -31.3003   21.4000 H   0  0  0  0  0  0
  -23.3757  -35.9615   23.3308 H   0  0  0  0  0  0
  -24.3558  -36.8906   22.2052 H   0  0  0  0  0  0
  -23.7226  -37.6503   23.6636 H   0  0  0  0  0  0
  -26.0635  -31.5622   20.5874 H   0  0  0  0  0  0
  -26.8351  -30.8655   21.9830 H   0  0  0  0  0  0
  -28.1179  -29.0406   21.1593 H   0  0  0  0  0  0
  -26.0388  -25.9119   19.0490 H   0  0  0  0  0  0
  -23.9765  -27.2674   19.0520 H   0  0  0  0  0  0
  -23.7486  -30.5814   19.4008 H   0  0  0  0  0  0
  -22.7481  -29.2376   19.8603 H   0  0  0  0  0  0
  -25.1295  -36.1959   25.0842 H   0  0  0  0  0  0
  -20.9947  -28.3272   24.1454 H   0  0  0  0  0  0
  -20.5722  -26.2296   23.3615 H   0  0  0  0  0  0
  -21.6654  -26.7509   22.1207 H   0  0  0  0  0  0
  -19.6916  -25.6311   21.1268 H   0  0  0  0  0  0
  -19.6701  -27.3206   20.6751 H   0  0  0  0  0  0
  -17.4211  -26.6703   21.4031 H   0  0  0  0  0  0
  -18.0330  -26.0078   22.9021 H   0  0  0  0  0  0
  -19.7926  -30.7294   24.2275 H   0  0  0  0  0  0
  -17.5016  -31.6278   24.5205 H   0  0  0  0  0  0
  -15.5356  -30.3051   23.7631 H   0  0  0  0  0  0
  -15.8657  -28.0872   22.7068 H   0  0  0  0  0  0
  -24.5899  -30.7096   25.7775 H   0  0  0  0  0  0
  -24.8928  -32.2912   26.4862 H   0  0  0  0  0  0
  -25.8086  -30.8923   27.0211 H   0  0  0  0  0  0
  -26.2857  -29.6829   24.1117 H   0  0  0  0  0  0
  -27.4037  -29.7275   25.4563 H   0  0  0  0  0  0
  -27.8714  -30.4365   23.9291 H   0  0  0  0  0  0
  -27.2642  -33.3637   26.2052 H   0  0  0  0  0  0
  -28.3851  -32.6903   25.0312 H   0  0  0  0  0  0
  -28.0693  -31.8460   26.5394 H   0  0  0  0  0  0
  -28.2617  -38.0085   24.7527 H   0  0  0  0  0  0
  -28.1062  -36.2629   24.6291 H   0  0  0  0  0  0
  -27.2294  -37.1467   25.8871 H   0  0  0  0  0  0
  -20.9331  -29.8750   21.6903 H   0  0  0  0  0  0
  -26.0171  -38.2890   24.1421 H   0  0  0  0  0  0
  -26.0103  -16.5216   23.5426 H   0  0  0  0  0  0
  -28.0371  -15.8523   22.4807 H   0  0  0  0  0  0
  -25.2615  -18.8724   23.4594 H   0  0  0  0  0  0
  -29.9846  -20.2064   20.8242 H   0  0  0  0  0  0
  -30.6953  -17.4252   21.4074 H   0  0  0  0  0  0
  -29.8714  -17.5208   19.8638 H   0  0  0  0  0  0
  -27.4003  -23.7038   19.4652 H   0  0  0  0  0  0
  -28.8976  -24.2959   18.8404 H   0  0  0  0  0  0
  -29.7539  -22.9602   21.1903 H   0  0  0  0  0  0
  -30.0028  -22.4733   19.5493 H   0  0  0  0  0  0
  -27.5248  -25.1639   21.3988 H   0  0  0  0  0  0
  -29.2490  -25.2430   21.3255 H   0  0  0  0  0  0
  -28.7991  -15.2676   21.0071 H   0  0  0  0  0  0
  1 25  1  0  0  0
  1 30  2  0  0  0
  1 83  1  0  0  0
  2  3  1  0  0  0
  2 25  1  0  0  0
  2 85  1  0  0  0
  2 86  1  0  0  0
  3  4  1  0  0  0
  3 87  1  0  0  0
  3 88  1  0  0  0
  4  5  1  0  0  0
  4 89  1  0  0  0
  4 90  1  0  0  0
  5  6  1  0  0  0
  5 26  1  0  0  0
  5 91  1  0  0  0
  6 25  1  0  0  0
  6 92  1  0  0  0
  6 93  1  0  0  0
  7  8  2  0  0  0
  7 26  1  0  0  0
  7 29  1  0  0  0
  8  9  1  0  0  0
  8 22  1  0  0  0
  9 10  1  0  0  0
  9 27  2  0  0  0
 10 11  2  0  0  0
 10 15  1  0  0  0
 11 12  1  0  0  0
 11 94  1  0  0  0
 12 13  2  0  0  0
 12 95  1  0  0  0
 13 14  1  0  0  0
 13 31  1  0  0  0
 14 15  2  0  0  0
 14 96  1  0  0  0
 15 97  1  0  0  0
 16 17  2  0  0  0
 16 21  1  0  0  0
 16 31  1  0  0  0
 17 18  1  0  0  0
 17 98  1  0  0  0
 18 19  2  0  0  0
 18 99  1  0  0  0
 19 20  1  0  0  0
 19 24  1  0  0  0
 20 21  2  0  0  0
 20100  1  0  0  0
 21 23  1  0  0  0
 22 28  1  0  0  0
 22 32  2  0  0  0
 26 27  1  0  0  0
 28101  1  0  0  0
 28102  1  0  0  0
 29103  1  0  0  0
 29104  1  0  0  0
 33 34  1  0  0  0
 33 66  1  0  0  0
 33 70  2  0  0  0
 34 36  1  0  0  0
 34 59  1  0  0  0
 34105  1  0  0  0
 35 44  2  0  0  0
 35 45  1  0  0  0
 35 68  1  0  0  0
 36 56  1  0  0  0
 36106  1  0  0  0
 37 39  1  0  0  0
 37 47  1  0  0  0
 37 66  1  0  0  0
 37107  1  0  0  0
 38 43  2  0  0  0
 38 46  1  0  0  0
 38 47  1  0  0  0
 39 64  1  0  0  0
 39 67  2  0  0  0
 40 52  1  0  0  0
 40 53  2  0  0  0
 40 58  1  0  0  0
 41108  1  0  0  0
 41109  1  0  0  0
 41110  1  0  0  0
 41 48  1  0  0  0
 42 43  1  0  0  0
 42 66  1  0  0  0
 42111  1  0  0  0
 42112  1  0  0  0
 43 44  1  0  0  0
 44113  1  0  0  0
 45 46  2  0  0  0
 45114  1  0  0  0
 46115  1  0  0  0
 47116  1  0  0  0
 47117  1  0  0  0
 48 56  1  0  0  0
 48 65  1  0  0  0
 48118  1  0  0  0
 49 50  1  0  0  0
 49 53  1  0  0  0
 49 64  1  0  0  0
 49119  1  0  0  0
 50 51  1  0  0  0
 50120  1  0  0  0
 50121  1  0  0  0
 51 52  1  0  0  0
 51122  1  0  0  0
 51123  1  0  0  0
 52124  1  0  0  0
 52125  1  0  0  0
 53 54  1  0  0  0
 54 55  2  0  0  0
 54126  1  0  0  0
 55 57  1  0  0  0
 55127  1  0  0  0
 56 69  2  0  0  0
 57 58  2  0  0  0
 57128  1  0  0  0
 58129  1  0  0  0
 59 60  1  0  0  0
 59 61  1  0  0  0
 59 62  1  0  0  0
 60130  1  0  0  0
 60131  1  0  0  0
 60132  1  0  0  0
 61133  1  0  0  0
 61134  1  0  0  0
 61135  1  0  0  0
 62136  1  0  0  0
 62137  1  0  0  0
 62138  1  0  0  0
 63 65  1  0  0  0
 63139  1  0  0  0
 63140  1  0  0  0
 63141  1  0  0  0
 64142  1  0  0  0
 65143  1  0  0  0
 68 81  1  0  0  0
 71 72  2  0  0  0
 71 73  1  0  0  0
 71144  1  0  0  0
 72 75  1  0  0  0
 72145  1  0  0  0
 73 76  2  0  0  0
 73146  1  0  0  0
 74 75  2  0  0  0
 74 76  1  0  0  0
 74 77  1  0  0  0
 75 78  1  0  0  0
 76 84  1  0  0  0
 77 82  2  0  0  0
 77147  1  0  0  0
 78 83  1  0  0  0
 78148  1  0  0  0
 78149  1  0  0  0
 79 80  1  0  0  0
 79 81  1  0  0  0
 79150  1  0  0  0
 79151  1  0  0  0
 80 82  1  0  0  0
 80152  1  0  0  0
 80153  1  0  0  0
 81154  1  0  0  0
 81155  1  0  0  0
 83156  1  0  0  0
M  ISO  4   1 100  68 101  81 101  83 100
M  END
> <chiral flag>
0

> <version>
0

> <s_m_source_file>
/data/baiqing/PycharmProjects/Reinvent-master-3.2/result/LINK_invent/BTK/process_docking_weight1_custom_product_contain_oxygen_bond_distance_aromatic_linkinvent_7_9_3/rearranged_h_0052.sdf

> <i_m_source_file_index>
81

> <r_mmod_Potential_Energy-OPLS-2005>
102.971054077148

> <r_mmod_Stretch_Energy-OPLS-2005>
83.2409896850586

> <r_mmod_Bend_Energy-OPLS-2005>
148.916854858398

> <r_mmod_Torsional_Energy-OPLS-2005>
247.219528198242

> <r_mmod_Improper_Torsional_Energy-OPLS-2005>
5.46805191040039

> <r_mmod_Van_der_Waal_Energy-OPLS-2005>
153.38020324707

> <r_mmod_Electrostatic_Energy-OPLS-2005>
-351.182342529297

> <r_mmod_Solvation_Energy-OPLS-2005>
-221.935562133789

> <b_mmod_Minimization_Converged-OPLS-2005>
0

> <r_mmod_RMS_Derivative-OPLS-2005>
2.85832548141479

$$$$
81
                    3D
 Structure written by MMmdl.
168176  0  0  1  0            999 V2000
  -30.6683  -14.4927   20.5512 C   0  0  0  0  0  0
  -30.4124  -12.3100   19.4175 C   0  0  0  0  0  0
  -29.4873  -12.5067   18.1956 C   0  0  0  0  0  0
  -28.0047  -12.3811   18.5968 C   0  0  0  0  0  0
  -27.6542  -13.2014   19.8658 C   0  0  2  0  0  0
  -28.6964  -12.9882   20.9832 C   0  0  0  0  0  0
  -25.2521  -13.8148   20.5645 C   0  0  0  0  0  0
  -24.1793  -13.0412   20.9141 C   0  0  0  0  0  0
  -24.6351  -11.6888   20.8713 C   0  0  0  0  0  0
  -23.9041  -10.4269   21.0395 C   0  0  0  0  0  0
  -24.3600   -9.4195   21.9187 C   0  0  0  0  0  0
  -23.6259   -8.2226   22.0810 C   0  0  0  0  0  0
  -22.4232   -8.0273   21.3563 C   0  0  0  0  0  0
  -21.9845   -9.0266   20.4691 C   0  0  0  0  0  0
  -22.7214  -10.2129   20.3060 C   0  0  0  0  0  0
  -21.6854   -6.0702   22.5250 C   0  0  0  0  0  0
  -21.4033   -6.5613   23.8212 C   0  0  0  0  0  0
  -21.3673   -5.6776   24.9157 C   0  0  0  0  0  0
  -21.6029   -4.3039   24.7229 C   0  0  0  0  0  0
  -21.8834   -3.8130   23.4342 C   0  0  0  0  0  0
  -21.9178   -4.6929   22.3400 C   0  0  0  0  0  0
  -22.7814  -13.5219   21.1821 C   0  0  0  0  0  0
  -22.1633   -4.2107   21.0974 F   0  0  0  0  0  0
  -21.5648   -3.4537   25.7739 F   0  0  0  0  0  0
  -30.0221  -13.3019   20.4265 N   0  0  0  0  0  0
  -26.2961  -12.9313   20.3305 N   0  0  0  0  0  0
  -25.9260  -11.6483   20.5714 N   0  0  0  0  0  0
  -22.0501  -12.8230   22.0434 N   0  0  0  0  0  0
  -25.4191  -15.1891   20.4070 N   0  0  0  0  0  0
  -31.8127  -14.6810   20.1159 O   0  0  0  0  0  0
  -21.6630   -6.8846   21.4243 O   0  0  0  0  0  0
  -22.3476  -14.5530   20.6712 O   0  0  0  0  0  0
  -24.6030  -31.8761   23.2158 C   0  0  0  0  0  0
  -25.8982  -32.4861   23.8422 C   0  0  1  0  0  0
  -27.2106  -27.5102   20.0709 C   0  0  0  0  0  0
  -25.5898  -33.8644   24.2373 N   0  0  0  0  0  0
  -23.3821  -30.5005   21.5581 C   0  0  2  0  0  0
  -24.8231  -28.9770   20.1078 C   0  0  0  0  0  0
  -22.7323  -29.4721   22.5081 C   0  0  0  0  0  0
  -18.0267  -28.1378   22.8395 C   0  0  0  0  0  0
  -24.1479  -36.7356   23.2630 C   0  0  0  0  0  0
  -25.8978  -30.8670   21.3482 C   0  0  0  0  0  0
  -25.9758  -29.5036   20.7046 C   0  0  0  0  0  0
  -27.1765  -28.7764   20.6838 C   0  0  0  0  0  0
  -26.0551  -26.9827   19.4685 C   0  0  0  0  0  0
  -24.8554  -27.7157   19.4846 C   0  0  0  0  0  0
  -23.5817  -29.8368   20.1675 C   0  0  0  0  0  0
  -25.4096  -36.3140   24.0338 C   0  0  1  0  0  0
  -20.5816  -28.3657   23.1340 C   0  0  2  0  0  0
  -20.6744  -26.9453   22.5367 C   0  0  0  0  0  0
  -19.5804  -26.6470   21.5074 C   0  0  0  0  0  0
  -18.1940  -26.7984   22.1393 C   0  0  0  0  0  0
  -19.1478  -28.8832   23.2903 C   0  0  0  0  0  0
  -18.9393  -30.1412   23.8978 C   0  0  0  0  0  0
  -17.6388  -30.6553   24.0588 C   0  0  0  0  0  0
  -25.9036  -34.9487   23.5140 C   0  0  0  0  0  0
  -16.5308  -29.9039   23.6275 C   0  0  0  0  0  0
  -16.7255  -28.6477   23.0252 C   0  0  0  0  0  0
  -26.4472  -31.6601   25.0689 C   0  0  0  0  0  0
  -25.3795  -31.3679   26.1479 C   0  0  0  0  0  0
  -27.0237  -30.3041   24.5953 C   0  0  0  0  0  0
  -27.6055  -32.4312   25.7435 C   0  0  0  0  0  0
  -27.5589  -37.1827   24.8466 C   0  0  0  0  0  0
  -21.4075  -29.3038   22.3796 N   0  0  0  0  0  0
  -26.4303  -37.3810   23.9425 N   0  0  0  0  0  0
  -24.6455  -31.0934   22.1022 N   0  0  0  0  0  0
  -23.4158  -28.8256   23.3068 O   0  0  0  0  0  0
  -28.3662  -26.7939   20.0226 O   0  0  0  0  0  0
  -26.5554  -34.8908   22.4673 O   0  0  0  0  0  0
  -23.5266  -32.1478   23.7649 O   0  0  0  0  0  0
  -27.8391  -19.7889   18.8624 C   0  0  0  0  0  0
  -28.4243  -17.5004   19.4699 C   0  0  0  0  0  0
  -28.9214  -20.2678   19.6234 C   0  0  0  0  0  0
  -29.4649  -17.9508   20.3135 C   0  0  0  0  0  0
  -29.7278  -19.3559   20.3733 C   0  0  0  0  0  0
  -27.6085  -18.4053   18.7682 C   0  0  0  0  0  0
  -29.2413  -21.6976   19.5040 C   0  0  0  0  0  0
  -30.8466  -19.9116   21.2532 C   0  0  0  0  0  0
  -27.1595  -24.5383   22.0394 C   0  0  0  0  0  0
  -29.6234  -24.2543   22.3724 C   0  0  0  0  0  0
  -30.2728  -16.9315   21.1541 C   0  0  0  0  0  0
  -28.7745  -24.1151   20.0717 C   0  0  0  0  0  0
  -28.8015  -26.3317   21.2905 C   0  0  0  0  0  0
  -28.5550  -24.8086   21.4315 C   0  0  0  0  0  0
  -30.2779  -22.0471   18.7438 N   0  0  0  0  0  0
  -29.9158  -15.5036   21.0248 N   0  0  0  0  0  0
  -28.5264  -22.6525   20.1192 N   0  3  0  0  0  0
  -26.6147  -17.9424   17.9724 F   0  0  0  0  0  0
  -31.4595  -12.4096   19.1244 H   0  0  0  0  0  0
  -30.2992  -11.2976   19.8187 H   0  0  0  0  0  0
  -29.7189  -11.7660   17.4284 H   0  0  0  0  0  0
  -29.6759  -13.4806   17.7398 H   0  0  0  0  0  0
  -27.7866  -11.3272   18.7652 H   0  0  0  0  0  0
  -27.3728  -12.7038   17.7667 H   0  0  0  0  0  0
  -27.6932  -14.2461   19.5706 H   0  0  0  0  0  0
  -28.6736  -11.9558   21.3305 H   0  0  0  0  0  0
  -28.4553  -13.5944   21.8570 H   0  0  0  0  0  0
  -25.2782   -9.5624   22.4740 H   0  0  0  0  0  0
  -23.9959   -7.4589   22.7524 H   0  0  0  0  0  0
  -21.0753   -8.8792   19.8975 H   0  0  0  0  0  0
  -22.3701  -10.9661   19.6147 H   0  0  0  0  0  0
  -21.2062   -7.6139   23.9669 H   0  0  0  0  0  0
  -21.1473   -6.0535   25.9053 H   0  0  0  0  0  0
  -22.0589   -2.7580   23.2882 H   0  0  0  0  0  0
  -22.4103  -11.9869   22.4802 H   0  0  0  0  0  0
  -21.1173  -13.1341   22.2759 H   0  0  0  0  0  0
  -24.6484  -15.8423   20.5061 H   0  0  0  0  0  0
  -26.2578  -15.6217   20.0490 H   0  0  0  0  0  0
  -26.7042  -32.5655   23.1205 H   0  0  0  0  0  0
  -25.0111  -33.9850   25.0550 H   0  0  0  0  0  0
  -22.6679  -31.3174   21.4312 H   0  0  0  0  0  0
  -23.3709  -35.9728   23.3319 H   0  0  0  0  0  0
  -24.3598  -36.8932   22.2049 H   0  0  0  0  0  0
  -23.7248  -37.6576   23.6606 H   0  0  0  0  0  0
  -25.9813  -31.6358   20.5784 H   0  0  0  0  0  0
  -26.7975  -30.9381   21.9485 H   0  0  0  0  0  0
  -28.0677  -29.1953   21.1233 H   0  0  0  0  0  0
  -26.0828  -26.0185   18.9829 H   0  0  0  0  0  0
  -23.9667  -27.3136   19.0216 H   0  0  0  0  0  0
  -23.6865  -30.6144   19.4125 H   0  0  0  0  0  0
  -22.7026  -29.2629   19.8732 H   0  0  0  0  0  0
  -25.1260  -36.2024   25.0832 H   0  0  0  0  0  0
  -20.9916  -28.3170   24.1464 H   0  0  0  0  0  0
  -20.5569  -26.2271   23.3463 H   0  0  0  0  0  0
  -21.6636  -26.7480   22.1236 H   0  0  0  0  0  0
  -19.7000  -25.6432   21.1019 H   0  0  0  0  0  0
  -19.6775  -27.3356   20.6674 H   0  0  0  0  0  0
  -17.4294  -26.6882   21.3673 H   0  0  0  0  0  0
  -18.0218  -26.0005   22.8621 H   0  0  0  0  0  0
  -19.7866  -30.7197   24.2439 H   0  0  0  0  0  0
  -17.4893  -31.6213   24.5218 H   0  0  0  0  0  0
  -15.5310  -30.2903   23.7590 H   0  0  0  0  0  0
  -15.8650  -28.0867   22.6891 H   0  0  0  0  0  0
  -24.5951  -30.7032   25.7881 H   0  0  0  0  0  0
  -24.8999  -32.2808   26.4977 H   0  0  0  0  0  0
  -25.8214  -30.8838   27.0199 H   0  0  0  0  0  0
  -26.2696  -29.6839   24.1079 H   0  0  0  0  0  0
  -27.4133  -29.7239   25.4340 H   0  0  0  0  0  0
  -27.8502  -30.4397   23.8972 H   0  0  0  0  0  0
  -27.2667  -33.3618   26.2016 H   0  0  0  0  0  0
  -28.3834  -32.6873   25.0229 H   0  0  0  0  0  0
  -28.0739  -31.8430   26.5337 H   0  0  0  0  0  0
  -28.2612  -38.0117   24.7485 H   0  0  0  0  0  0
  -28.1071  -36.2643   24.6300 H   0  0  0  0  0  0
  -27.2335  -37.1508   25.8877 H   0  0  0  0  0  0
  -20.9241  -29.8784   21.7029 H   0  0  0  0  0  0
  -26.0186  -38.2906   24.1363 H   0  0  0  0  0  0
  -27.2245  -20.4790   18.2963 H   0  0  0  0  0  0
  -28.2299  -16.4498   19.3441 H   0  0  0  0  0  0
  -30.4127  -20.3728   22.1436 H   0  0  0  0  0  0
  -31.4357  -20.6715   20.7344 H   0  0  0  0  0  0
  -31.5553  -19.1558   21.5825 H   0  0  0  0  0  0
  -27.0943  -23.5344   22.4707 H   0  0  0  0  0  0
  -26.3543  -24.6352   21.3077 H   0  0  0  0  0  0
  -26.9404  -25.2359   22.8499 H   0  0  0  0  0  0
  -29.4620  -23.1972   22.5722 H   0  0  0  0  0  0
  -29.6530  -24.7974   23.3142 H   0  0  0  0  0  0
  -30.5982  -24.3551   21.8987 H   0  0  0  0  0  0
  -30.1175  -17.1923   22.2031 H   0  0  0  0  0  0
  -31.3379  -17.0680   20.9672 H   0  0  0  0  0  0
  -29.8090  -24.3335   19.7953 H   0  0  0  0  0  0
  -28.1706  -24.5679   19.2896 H   0  0  0  0  0  0
  -29.8656  -26.5550   21.3389 H   0  0  0  0  0  0
  -28.3415  -26.8695   22.1246 H   0  0  0  0  0  0
  -30.7528  -21.3330   18.2130 H   0  0  0  0  0  0
  -30.5747  -23.0016   18.6201 H   0  0  0  0  0  0
  -28.9944  -15.2497   21.3433 H   0  0  0  0  0  0
  -27.6593  -22.3569   20.5525 H   0  0  0  0  0  0
  1 25  1  0  0  0
  1 30  2  0  0  0
  1 86  1  0  0  0
  2  3  1  0  0  0
  2 25  1  0  0  0
  2 89  1  0  0  0
  2 90  1  0  0  0
  3  4  1  0  0  0
  3 91  1  0  0  0
  3 92  1  0  0  0
  4  5  1  0  0  0
  4 93  1  0  0  0
  4 94  1  0  0  0
  5  6  1  0  0  0
  5 26  1  0  0  0
  5 95  1  0  0  0
  6 25  1  0  0  0
  6 96  1  0  0  0
  6 97  1  0  0  0
  7  8  2  0  0  0
  7 26  1  0  0  0
  7 29  1  0  0  0
  8  9  1  0  0  0
  8 22  1  0  0  0
  9 10  1  0  0  0
  9 27  2  0  0  0
 10 11  2  0  0  0
 10 15  1  0  0  0
 11 12  1  0  0  0
 11 98  1  0  0  0
 12 13  2  0  0  0
 12 99  1  0  0  0
 13 14  1  0  0  0
 13 31  1  0  0  0
 14 15  2  0  0  0
 14100  1  0  0  0
 15101  1  0  0  0
 16 17  2  0  0  0
 16 21  1  0  0  0
 16 31  1  0  0  0
 17 18  1  0  0  0
 17102  1  0  0  0
 18 19  2  0  0  0
 18103  1  0  0  0
 19 20  1  0  0  0
 19 24  1  0  0  0
 20 21  2  0  0  0
 20104  1  0  0  0
 21 23  1  0  0  0
 22 28  1  0  0  0
 22 32  2  0  0  0
 26 27  1  0  0  0
 28105  1  0  0  0
 28106  1  0  0  0
 29107  1  0  0  0
 29108  1  0  0  0
 33 34  1  0  0  0
 33 66  1  0  0  0
 33 70  2  0  0  0
 34 36  1  0  0  0
 34 59  1  0  0  0
 34109  1  0  0  0
 35 44  2  0  0  0
 35 45  1  0  0  0
 35 68  1  0  0  0
 36 56  1  0  0  0
 36110  1  0  0  0
 37 39  1  0  0  0
 37 47  1  0  0  0
 37 66  1  0  0  0
 37111  1  0  0  0
 38 43  2  0  0  0
 38 46  1  0  0  0
 38 47  1  0  0  0
 39 64  1  0  0  0
 39 67  2  0  0  0
 40 52  1  0  0  0
 40 53  2  0  0  0
 40 58  1  0  0  0
 41112  1  0  0  0
 41113  1  0  0  0
 41114  1  0  0  0
 41 48  1  0  0  0
 42 43  1  0  0  0
 42 66  1  0  0  0
 42115  1  0  0  0
 42116  1  0  0  0
 43 44  1  0  0  0
 44117  1  0  0  0
 45 46  2  0  0  0
 45118  1  0  0  0
 46119  1  0  0  0
 47120  1  0  0  0
 47121  1  0  0  0
 48 56  1  0  0  0
 48 65  1  0  0  0
 48122  1  0  0  0
 49 50  1  0  0  0
 49 53  1  0  0  0
 49 64  1  0  0  0
 49123  1  0  0  0
 50 51  1  0  0  0
 50124  1  0  0  0
 50125  1  0  0  0
 51 52  1  0  0  0
 51126  1  0  0  0
 51127  1  0  0  0
 52128  1  0  0  0
 52129  1  0  0  0
 53 54  1  0  0  0
 54 55  2  0  0  0
 54130  1  0  0  0
 55 57  1  0  0  0
 55131  1  0  0  0
 56 69  2  0  0  0
 57 58  2  0  0  0
 57132  1  0  0  0
 58133  1  0  0  0
 59 60  1  0  0  0
 59 61  1  0  0  0
 59 62  1  0  0  0
 60134  1  0  0  0
 60135  1  0  0  0
 60136  1  0  0  0
 61137  1  0  0  0
 61138  1  0  0  0
 61139  1  0  0  0
 62140  1  0  0  0
 62141  1  0  0  0
 62142  1  0  0  0
 63 65  1  0  0  0
 63143  1  0  0  0
 63144  1  0  0  0
 63145  1  0  0  0
 64146  1  0  0  0
 65147  1  0  0  0
 68 83  1  0  0  0
 71 73  2  0  0  0
 71 76  1  0  0  0
 71148  1  0  0  0
 72 74  1  0  0  0
 72 76  2  0  0  0
 72149  1  0  0  0
 73 75  1  0  0  0
 73 77  1  0  0  0
 74 75  2  0  0  0
 74 81  1  0  0  0
 75 78  1  0  0  0
 76 88  1  0  0  0
 77 85  1  0  0  0
 77 87  2  0  0  0
 78150  1  0  0  0
 78151  1  0  0  0
 78152  1  0  0  0
 79153  1  0  0  0
 79154  1  0  0  0
 79155  1  0  0  0
 79 84  1  0  0  0
 80 84  1  0  0  0
 80156  1  0  0  0
 80157  1  0  0  0
 80158  1  0  0  0
 81 86  1  0  0  0
 81159  1  0  0  0
 81160  1  0  0  0
 82 84  1  0  0  0
 82 87  1  0  0  0
 82161  1  0  0  0
 82162  1  0  0  0
 83 84  1  0  0  0
 83163  1  0  0  0
 83164  1  0  0  0
 85165  1  0  0  0
 85166  1  0  0  0
 86167  1  0  0  0
 87168  1  0  0  0
M  CHG  1  87   1
M  ISO  4   1 100  68 101  83 101  86 100
M  END
> <chiral flag>
0

> <version>
0

> <s_m_source_file>
/data/baiqing/PycharmProjects/Reinvent-master-3.2/result/LINK_invent/BTK/process_docking_weight1_custom_product_contain_oxygen_bond_distance_aromatic_linkinvent_7_9_3/rearranged_h_0052.sdf

> <i_m_source_file_index>
82

> <r_mmod_Potential_Energy-OPLS-2005>
-285.493988037109

> <r_mmod_Stretch_Energy-OPLS-2005>
38.0679893493652

> <r_mmod_Bend_Energy-OPLS-2005>
103.070831298828

> <r_mmod_Torsional_Energy-OPLS-2005>
258.353790283203

> <r_mmod_Improper_Torsional_Energy-OPLS-2005>
4.58323526382446

> <r_mmod_Van_der_Waal_Energy-OPLS-2005>
164.360977172852

> <r_mmod_Electrostatic_Energy-OPLS-2005>
-467.326507568359

> <r_mmod_Solvation_Energy-OPLS-2005>
-400.403106689453

> <b_mmod_Minimization_Converged-OPLS-2005>
0

> <r_mmod_RMS_Derivative-OPLS-2005>
8.88269805908203

$$$$
82
                    3D
 Structure written by MMmdl.
163171  0  0  1  0            999 V2000
  -30.5759  -14.7464   20.4976 C   0  0  0  0  0  0
  -30.4399  -12.4652   19.4876 C   0  0  0  0  0  0
  -29.5233  -12.5349   18.2447 C   0  0  0  0  0  0
  -28.0436  -12.3503   18.6418 C   0  0  0  0  0  0
  -27.6465  -13.2158   19.8689 C   0  0  2  0  0  0
  -28.6814  -13.1186   21.0111 C   0  0  0  0  0  0
  -25.2542  -13.8129   20.5824 C   0  0  0  0  0  0
  -24.1760  -13.0411   20.9192 C   0  0  0  0  0  0
  -24.6326  -11.6882   20.8692 C   0  0  0  0  0  0
  -23.9000  -10.4268   21.0393 C   0  0  0  0  0  0
  -24.3553   -9.4200   21.9168 C   0  0  0  0  0  0
  -23.6247   -8.2234   22.0745 C   0  0  0  0  0  0
  -22.4232   -8.0277   21.3546 C   0  0  0  0  0  0
  -21.9863   -9.0246   20.4646 C   0  0  0  0  0  0
  -22.7178  -10.2121   20.3051 C   0  0  0  0  0  0
  -21.6835   -6.0723   22.5276 C   0  0  0  0  0  0
  -21.3982   -6.5616   23.8211 C   0  0  0  0  0  0
  -21.3677   -5.6774   24.9165 C   0  0  0  0  0  0
  -21.6064   -4.3047   24.7227 C   0  0  0  0  0  0
  -21.8820   -3.8139   23.4339 C   0  0  0  0  0  0
  -21.9191   -4.6950   22.3393 C   0  0  0  0  0  0
  -22.7781  -13.5242   21.1863 C   0  0  0  0  0  0
  -22.1647   -4.2131   21.0981 F   0  0  0  0  0  0
  -21.5665   -3.4539   25.7746 F   0  0  0  0  0  0
  -29.9891  -13.4982   20.4548 N   0  0  0  0  0  0
  -26.2912  -12.9291   20.3309 N   0  0  0  0  0  0
  -25.9244  -11.6450   20.5675 N   0  0  0  0  0  0
  -22.0368  -12.8256   22.0404 N   0  0  0  0  0  0
  -25.4440  -15.1854   20.4620 N   0  0  0  0  0  0
  -31.7111  -14.9083   20.0378 O   0  0  0  0  0  0
  -21.6601   -6.8870   21.4249 O   0  0  0  0  0  0
  -22.3509  -14.5582   20.6747 O   0  0  0  0  0  0
  -24.6343  -31.8560   23.2018 C   0  0  0  0  0  0
  -25.9183  -32.4759   23.8327 C   0  0  1  0  0  0
  -27.2019  -27.2347   20.1228 C   0  0  0  0  0  0
  -25.6003  -33.8552   24.2276 N   0  0  0  0  0  0
  -23.4266  -30.4824   21.5470 C   0  0  2  0  0  0
  -24.8710  -28.9343   20.1037 C   0  0  0  0  0  0
  -22.7473  -29.4616   22.4934 C   0  0  0  0  0  0
  -18.0272  -28.1376   22.8484 C   0  0  0  0  0  0
  -24.1473  -36.7224   23.2637 C   0  0  0  0  0  0
  -25.9751  -30.7643   21.3828 C   0  0  0  0  0  0
  -26.0427  -29.3853   20.7205 C   0  0  0  0  0  0
  -27.2059  -28.5461   20.7251 C   0  0  0  0  0  0
  -26.0052  -26.8722   19.4624 C   0  0  0  0  0  0
  -24.8597  -27.6888   19.4624 C   0  0  0  0  0  0
  -23.6420  -29.8213   20.1595 C   0  0  0  0  0  0
  -25.4099  -36.3039   24.0338 C   0  0  1  0  0  0
  -20.5881  -28.3675   23.1276 C   0  0  2  0  0  0
  -20.6767  -26.9399   22.5407 C   0  0  0  0  0  0
  -19.5756  -26.6366   21.5201 C   0  0  0  0  0  0
  -18.1920  -26.7930   22.1602 C   0  0  0  0  0  0
  -19.1526  -28.8842   23.2882 C   0  0  0  0  0  0
  -18.9451  -30.1453   23.8886 C   0  0  0  0  0  0
  -17.6456  -30.6603   24.0533 C   0  0  0  0  0  0
  -25.9059  -34.9432   23.5093 C   0  0  0  0  0  0
  -16.5342  -29.9072   23.6367 C   0  0  0  0  0  0
  -16.7259  -28.6480   23.0402 C   0  0  0  0  0  0
  -26.4551  -31.6590   25.0715 C   0  0  0  0  0  0
  -25.3763  -31.3733   26.1431 C   0  0  0  0  0  0
  -27.0406  -30.3006   24.6209 C   0  0  0  0  0  0
  -27.6122  -32.4299   25.7491 C   0  0  0  0  0  0
  -27.5560  -37.1760   24.8481 C   0  0  0  0  0  0
  -21.4186  -29.3024   22.3654 N   0  0  0  0  0  0
  -26.4261  -37.3754   23.9436 N   0  0  0  0  0  0
  -24.6984  -31.0499   22.0997 N   0  0  0  0  0  0
  -23.4170  -28.8165   23.3046 O   0  0  0  0  0  0
  -28.2946  -26.3319   20.2211 O   0  0  0  0  0  0
  -26.5567  -34.8920   22.4619 O   0  0  0  0  0  0
  -23.5518  -32.1371   23.7344 O   0  0  0  0  0  0
  -28.6853  -16.9567   19.1871 C   0  0  0  0  0  0
  -29.5096  -18.4383   20.9114 C   0  0  0  0  0  0
  -27.8981  -18.0066   18.6768 C   0  0  0  0  0  0
  -28.8038  -19.5912   20.3561 C   0  0  0  0  0  0
  -27.8832  -19.2932   19.2971 C   0  0  0  0  0  0
  -29.4342  -17.0886   20.3655 C   0  0  0  0  0  0
  -28.5397  -23.6605   20.6521 C   0  0  0  0  0  0
  -26.9989  -17.6377   17.5017 C   0  0  0  0  0  0
  -25.4871  -20.0462   19.7173 C   0  0  0  0  0  0
  -29.6139  -22.2790   18.9078 C   0  0  0  0  0  0
  -26.7763  -20.2837   18.9097 C   0  0  0  0  0  0
  -28.9117  -21.0679   21.0019 C   0  0  0  0  0  0
  -28.2900  -24.9175   19.6678 C   0  0  0  0  0  0
  -29.8513  -15.8166   21.0083 N   0  0  0  0  0  0
  -28.9291  -22.3883   20.1973 N   0  0  0  0  0  0
  -28.3033  -23.8335   21.8504 O   0  0  0  0  0  0
  -31.4841  -12.6027   19.1990 H   0  0  0  0  0  0
  -30.3930  -11.4751   19.9447 H   0  0  0  0  0  0
  -29.8168  -11.7752   17.5183 H   0  0  0  0  0  0
  -29.6521  -13.5023   17.7539 H   0  0  0  0  0  0
  -27.8846  -11.2936   18.8625 H   0  0  0  0  0  0
  -27.3933  -12.5829   17.7966 H   0  0  0  0  0  0
  -27.6550  -14.2435   19.5201 H   0  0  0  0  0  0
  -28.7170  -12.1054   21.4141 H   0  0  0  0  0  0
  -28.3938  -13.7551   21.8507 H   0  0  0  0  0  0
  -25.2712   -9.5676   22.4709 H   0  0  0  0  0  0
  -23.9995   -7.4603   22.7421 H   0  0  0  0  0  0
  -21.0819   -8.8748   19.8899 H   0  0  0  0  0  0
  -22.3665  -10.9649   19.6134 H   0  0  0  0  0  0
  -21.1916   -7.6117   23.9710 H   0  0  0  0  0  0
  -21.1506   -6.0483   25.9082 H   0  0  0  0  0  0
  -22.0583   -2.7599   23.2838 H   0  0  0  0  0  0
  -22.3988  -11.9967   22.4865 H   0  0  0  0  0  0
  -21.0956  -13.1241   22.2574 H   0  0  0  0  0  0
  -24.7206  -15.8532   20.7052 H   0  0  0  0  0  0
  -26.3530  -15.6105   20.3348 H   0  0  0  0  0  0
  -26.7236  -32.5410   23.1065 H   0  0  0  0  0  0
  -25.0339  -33.9696   25.0548 H   0  0  0  0  0  0
  -22.7242  -31.3073   21.4067 H   0  0  0  0  0  0
  -23.3778  -35.9516   23.3282 H   0  0  0  0  0  0
  -24.3568  -36.8842   22.2054 H   0  0  0  0  0  0
  -23.7198  -37.6410   23.6655 H   0  0  0  0  0  0
  -26.1159  -31.5306   20.6190 H   0  0  0  0  0  0
  -26.8501  -30.8101   22.0188 H   0  0  0  0  0  0
  -28.0966  -28.8841   21.2352 H   0  0  0  0  0  0
  -25.8864  -25.9388   18.9408 H   0  0  0  0  0  0
  -23.9610  -27.3464   18.9672 H   0  0  0  0  0  0
  -23.7560  -30.5996   19.4037 H   0  0  0  0  0  0
  -22.7619  -29.2506   19.8638 H   0  0  0  0  0  0
  -25.1293  -36.1853   25.0834 H   0  0  0  0  0  0
  -20.9961  -28.3222   24.1408 H   0  0  0  0  0  0
  -20.5644  -26.2275   23.3592 H   0  0  0  0  0  0
  -21.6644  -26.7419   22.1216 H   0  0  0  0  0  0
  -19.6907  -25.6254   21.1285 H   0  0  0  0  0  0
  -19.6735  -27.3130   20.6686 H   0  0  0  0  0  0
  -17.4207  -26.6688   21.3989 H   0  0  0  0  0  0
  -18.0315  -26.0068   22.8988 H   0  0  0  0  0  0
  -19.7930  -30.7266   24.2255 H   0  0  0  0  0  0
  -17.5024  -31.6310   24.5077 H   0  0  0  0  0  0
  -15.5342  -30.2973   23.7733 H   0  0  0  0  0  0
  -15.8646  -28.0784   22.7179 H   0  0  0  0  0  0
  -24.6083  -30.6907   25.7789 H   0  0  0  0  0  0
  -24.8800  -32.2887   26.4661 H   0  0  0  0  0  0
  -25.8126  -30.9126   27.0306 H   0  0  0  0  0  0
  -26.2996  -29.6749   24.1235 H   0  0  0  0  0  0
  -27.4101  -29.7301   25.4738 H   0  0  0  0  0  0
  -27.8871  -30.4290   23.9456 H   0  0  0  0  0  0
  -27.2790  -33.3690   26.1921 H   0  0  0  0  0  0
  -28.4024  -32.6664   25.0348 H   0  0  0  0  0  0
  -28.0672  -31.8482   26.5529 H   0  0  0  0  0  0
  -28.2571  -38.0055   24.7538 H   0  0  0  0  0  0
  -28.1045  -36.2595   24.6276 H   0  0  0  0  0  0
  -27.2284  -37.1372   25.8882 H   0  0  0  0  0  0
  -20.9341  -29.8704   21.6837 H   0  0  0  0  0  0
  -26.0130  -38.2822   24.1447 H   0  0  0  0  0  0
  -28.6126  -15.9904   18.7132 H   0  0  0  0  0  0
  -30.0834  -18.5887   21.8153 H   0  0  0  0  0  0
  -27.4123  -16.7934   16.9454 H   0  0  0  0  0  0
  -26.8804  -18.4415   16.7770 H   0  0  0  0  0  0
  -26.0184  -17.3290   17.8646 H   0  0  0  0  0  0
  -24.7236  -20.7874   19.4741 H   0  0  0  0  0  0
  -25.6803  -20.1107   20.7889 H   0  0  0  0  0  0
  -25.0598  -19.0620   19.5172 H   0  0  0  0  0  0
  -30.3637  -23.0656   18.8065 H   0  0  0  0  0  0
  -28.9173  -22.3507   18.0712 H   0  0  0  0  0  0
  -30.1555  -21.3379   18.8257 H   0  0  0  0  0  0
  -26.5521  -20.2307   17.8471 H   0  0  0  0  0  0
  -27.0637  -21.3154   19.0500 H   0  0  0  0  0  0
  -29.8162  -21.0802   21.6123 H   0  0  0  0  0  0
  -28.0915  -21.1354   21.7188 H   0  0  0  0  0  0
  -27.3812  -24.6576   19.1367 H   0  0  0  0  0  0
  -29.0522  -24.9084   18.8917 H   0  0  0  0  0  0
  -29.1334  -15.4712   21.6275 H   0  0  0  0  0  0
  1 25  1  0  0  0
  1 30  2  0  0  0
  1 84  1  0  0  0
  2  3  1  0  0  0
  2 25  1  0  0  0
  2 87  1  0  0  0
  2 88  1  0  0  0
  3  4  1  0  0  0
  3 89  1  0  0  0
  3 90  1  0  0  0
  4  5  1  0  0  0
  4 91  1  0  0  0
  4 92  1  0  0  0
  5  6  1  0  0  0
  5 26  1  0  0  0
  5 93  1  0  0  0
  6 25  1  0  0  0
  6 94  1  0  0  0
  6 95  1  0  0  0
  7  8  2  0  0  0
  7 26  1  0  0  0
  7 29  1  0  0  0
  8  9  1  0  0  0
  8 22  1  0  0  0
  9 10  1  0  0  0
  9 27  2  0  0  0
 10 11  2  0  0  0
 10 15  1  0  0  0
 11 12  1  0  0  0
 11 96  1  0  0  0
 12 13  2  0  0  0
 12 97  1  0  0  0
 13 14  1  0  0  0
 13 31  1  0  0  0
 14 15  2  0  0  0
 14 98  1  0  0  0
 15 99  1  0  0  0
 16 17  2  0  0  0
 16 21  1  0  0  0
 16 31  1  0  0  0
 17 18  1  0  0  0
 17100  1  0  0  0
 18 19  2  0  0  0
 18101  1  0  0  0
 19 20  1  0  0  0
 19 24  1  0  0  0
 20 21  2  0  0  0
 20102  1  0  0  0
 21 23  1  0  0  0
 22 28  1  0  0  0
 22 32  2  0  0  0
 26 27  1  0  0  0
 28103  1  0  0  0
 28104  1  0  0  0
 29105  1  0  0  0
 29106  1  0  0  0
 33 34  1  0  0  0
 33 66  1  0  0  0
 33 70  2  0  0  0
 34 36  1  0  0  0
 34 59  1  0  0  0
 34107  1  0  0  0
 35 44  2  0  0  0
 35 45  1  0  0  0
 35 68  1  0  0  0
 36 56  1  0  0  0
 36108  1  0  0  0
 37 39  1  0  0  0
 37 47  1  0  0  0
 37 66  1  0  0  0
 37109  1  0  0  0
 38 43  2  0  0  0
 38 46  1  0  0  0
 38 47  1  0  0  0
 39 64  1  0  0  0
 39 67  2  0  0  0
 40 52  1  0  0  0
 40 53  2  0  0  0
 40 58  1  0  0  0
 41110  1  0  0  0
 41111  1  0  0  0
 41112  1  0  0  0
 41 48  1  0  0  0
 42 43  1  0  0  0
 42 66  1  0  0  0
 42113  1  0  0  0
 42114  1  0  0  0
 43 44  1  0  0  0
 44115  1  0  0  0
 45 46  2  0  0  0
 45116  1  0  0  0
 46117  1  0  0  0
 47118  1  0  0  0
 47119  1  0  0  0
 48 56  1  0  0  0
 48 65  1  0  0  0
 48120  1  0  0  0
 49 50  1  0  0  0
 49 53  1  0  0  0
 49 64  1  0  0  0
 49121  1  0  0  0
 50 51  1  0  0  0
 50122  1  0  0  0
 50123  1  0  0  0
 51 52  1  0  0  0
 51124  1  0  0  0
 51125  1  0  0  0
 52126  1  0  0  0
 52127  1  0  0  0
 53 54  1  0  0  0
 54 55  2  0  0  0
 54128  1  0  0  0
 55 57  1  0  0  0
 55129  1  0  0  0
 56 69  2  0  0  0
 57 58  2  0  0  0
 57130  1  0  0  0
 58131  1  0  0  0
 59 60  1  0  0  0
 59 61  1  0  0  0
 59 62  1  0  0  0
 60132  1  0  0  0
 60133  1  0  0  0
 60134  1  0  0  0
 61135  1  0  0  0
 61136  1  0  0  0
 61137  1  0  0  0
 62138  1  0  0  0
 62139  1  0  0  0
 62140  1  0  0  0
 63 65  1  0  0  0
 63141  1  0  0  0
 63142  1  0  0  0
 63143  1  0  0  0
 64144  1  0  0  0
 65145  1  0  0  0
 68 83  1  0  0  0
 71 73  2  0  0  0
 71 76  1  0  0  0
 71146  1  0  0  0
 72 74  1  0  0  0
 72 76  2  0  0  0
 72147  1  0  0  0
 73 75  1  0  0  0
 73 78  1  0  0  0
 74 75  2  0  0  0
 74 82  1  0  0  0
 75 81  1  0  0  0
 76 84  1  0  0  0
 77 83  1  0  0  0
 77 85  1  0  0  0
 77 86  2  0  0  0
 78148  1  0  0  0
 78149  1  0  0  0
 78150  1  0  0  0
 79 81  1  0  0  0
 79151  1  0  0  0
 79152  1  0  0  0
 79153  1  0  0  0
 80 85  1  0  0  0
 80154  1  0  0  0
 80155  1  0  0  0
 80156  1  0  0  0
 81157  1  0  0  0
 81158  1  0  0  0
 82 85  1  0  0  0
 82159  1  0  0  0
 82160  1  0  0  0
 83161  1  0  0  0
 83162  1  0  0  0
 84163  1  0  0  0
M  ISO  4   1 100  68 101  83 101  84 100
M  END
> <chiral flag>
0

> <version>
0

> <s_m_source_file>
/data/baiqing/PycharmProjects/Reinvent-master-3.2/result/LINK_invent/BTK/process_docking_weight1_custom_product_contain_oxygen_bond_distance_aromatic_linkinvent_7_9_3/rearranged_h_0052.sdf

> <i_m_source_file_index>
83

> <r_mmod_Potential_Energy-OPLS-2005>
270.389739990234

> <r_mmod_Stretch_Energy-OPLS-2005>
148.352020263672

> <r_mmod_Bend_Energy-OPLS-2005>
189.089904785156

> <r_mmod_Torsional_Energy-OPLS-2005>
283.13818359375

> <r_mmod_Improper_Torsional_Energy-OPLS-2005>
8.93938064575195

> <r_mmod_Van_der_Waal_Energy-OPLS-2005>
141.161041259766

> <r_mmod_Electrostatic_Energy-OPLS-2005>
-359.008850097656

> <r_mmod_Solvation_Energy-OPLS-2005>
-234.579345703125

> <b_mmod_Minimization_Converged-OPLS-2005>
0

> <r_mmod_RMS_Derivative-OPLS-2005>
4.8701868057251

$$$$
83
                    3D
 Structure written by MMmdl.
167176  0  0  1  0            999 V2000
  -29.0244  -14.1471   19.2969 C   0  0  0  0  0  0
  -30.6726  -12.4812   19.4478 C   0  0  0  0  0  0
  -29.6581  -11.6892   18.6787 C   0  0  0  0  0  0
  -28.5274  -11.4556   19.7569 C   0  0  0  0  0  0
  -28.0529  -12.6184   21.1264 C   0  0  2  0  0  0
  -29.3741  -13.0962   21.4757 C   0  0  0  0  0  0
  -25.7608  -14.4227   21.3594 C   0  0  0  0  0  0
  -24.4998  -13.9618   21.7345 C   0  0  0  0  0  0
  -24.9450  -12.7636   21.2535 C   0  0  0  0  0  0
  -24.1027  -10.6219   19.5732 C   0  0  0  0  0  0
  -24.4452   -9.1095   19.9287 C   0  0  0  0  0  0
  -23.8280   -8.1801   20.9174 C   0  0  0  0  0  0
  -22.4353   -8.1515   20.9943 C   0  0  0  0  0  0
  -21.9004   -9.1378   20.1219 C   0  0  0  0  0  0
  -22.6939  -10.1147   19.3547 C   0  0  0  0  0  0
  -21.7676   -6.2014   22.4876 C   0  0  0  0  0  0
  -21.4736   -6.6477   23.7979 C   0  0  0  0  0  0
  -21.4006   -5.7403   24.8832 C   0  0  0  0  0  0
  -21.6191   -4.3640   24.6812 C   0  0  0  0  0  0
  -21.8985   -3.8982   23.3856 C   0  0  0  0  0  0
  -21.9596   -4.8018   22.3004 C   0  0  0  0  0  0
  -23.0465  -14.4609   21.8088 C   0  0  0  0  0  0
  -22.1718   -4.2998   21.0608 F   0  0  0  0  0  0
  -21.5535   -3.4947   25.7223 F   0  0  0  0  0  0
  -29.8405  -13.4526   20.1513 N   0  0  0  0  0  0
  -26.7006  -13.3289   21.5146 N   0  0  0  0  0  0
  -25.9047  -12.7001   22.2144 N   0  0  0  0  0  0
  -22.1888  -13.7529   22.5642 N   0  0  0  0  0  0
  -26.1985  -15.6368   20.9706 N   0  0  0  0  0  0
  -29.8588  -15.0531   18.9978 O   0  0  0  0  0  0
  -21.6382   -7.0555   21.3868 O   0  0  0  0  0  0
  -22.5879  -15.2667   21.0102 O   0  0  0  0  0  0
  -24.7047  -31.7815   23.1476 C   0  0  0  0  0  0
  -25.9594  -32.4317   23.7996 C   0  0  1  0  0  0
  -26.7010  -26.3923   20.0787 C   0  0  0  0  0  0
  -25.6120  -33.8176   24.1855 N   0  0  0  0  0  0
  -23.4995  -30.4267   21.5221 C   0  0  2  0  0  0
  -24.8375  -28.7600   20.0603 C   0  0  0  0  0  0
  -22.7719  -29.4310   22.4669 C   0  0  0  0  0  0
  -18.0325  -28.1409   22.8449 C   0  0  0  0  0  0
  -24.1513  -36.7079   23.2656 C   0  0  0  0  0  0
  -26.0888  -30.3781   21.4446 C   0  0  0  0  0  0
  -26.0422  -28.9411   20.7443 C   0  0  0  0  0  0
  -26.9942  -27.7670   20.7275 C   0  0  0  0  0  0
  -25.5624  -26.5228   19.3031 C   0  0  0  0  0  0
  -24.6581  -27.5980   19.3142 C   0  0  0  0  0  0
  -23.7166  -29.7940   20.1282 C   0  0  0  0  0  0
  -25.4180  -36.2815   24.0263 C   0  0  1  0  0  0
  -20.5957  -28.3773   23.1123 C   0  0  2  0  0  0
  -20.6797  -26.9432   22.5396 C   0  0  0  0  0  0
  -19.5777  -26.6356   21.5208 C   0  0  0  0  0  0
  -18.1955  -26.7937   22.1609 C   0  0  0  0  0  0
  -19.1591  -28.8912   23.2772 C   0  0  0  0  0  0
  -18.9508  -30.1492   23.8826 C   0  0  0  0  0  0
  -17.6505  -30.6600   24.0546 C   0  0  0  0  0  0
  -25.9191  -34.9212   23.4897 C   0  0  0  0  0  0
  -16.5389  -29.9086   23.6349 C   0  0  0  0  0  0
  -16.7308  -28.6500   23.0374 C   0  0  0  0  0  0
  -26.4658  -31.6456   25.0726 C   0  0  0  0  0  0
  -25.3659  -31.3873   26.1304 C   0  0  0  0  0  0
  -27.0598  -30.2752   24.6844 C   0  0  0  0  0  0
  -27.6086  -32.4357   25.7520 C   0  0  0  0  0  0
  -27.5569  -37.1712   24.8475 C   0  0  0  0  0  0
  -21.4372  -29.3025   22.3437 N   0  0  0  0  0  0
  -26.4284  -37.3608   23.9398 N   0  0  0  0  0  0
  -24.7997  -30.9045   22.0853 N   0  0  0  0  0  0
  -23.4178  -28.7840   23.2953 O   0  0  0  0  0  0
  -27.2246  -24.9003   20.0158 O   0  0  0  0  0  0
  -26.5827  -34.8830   22.4515 O   0  0  0  0  0  0
  -23.6074  -32.1077   23.6364 O   0  0  0  0  0  0
  -24.6305  -10.6234   21.8000 C   0  0  0  0  0  0
  -23.0521  -11.5534   21.3690 C   0  0  0  0  0  0
  -26.1150  -10.9552   20.5411 C   0  0  0  0  0  0
  -23.1053  -12.7291   19.8347 C   0  0  0  0  0  0
  -24.5944  -13.3909   19.0208 C   0  0  0  0  0  0
  -26.0986  -12.4465   19.2403 C   0  0  0  0  0  0
  -24.8763  -20.5607   18.9308 C   0  0  0  0  0  0
  -23.5347  -20.5164   19.0071 C   0  0  0  0  0  0
  -25.6429  -22.1331   18.7457 C   0  0  0  0  0  0
  -27.1547  -21.5749   20.1725 C   0  0  0  0  0  0
  -26.5059  -19.8723   20.2112 C   0  0  0  0  0  0
  -26.4639  -23.1690   19.9096 C   0  0  1  0  0  0
  -21.7759  -13.2212   19.2591 C   0  0  0  0  0  0
  -24.8559  -15.3409   18.6099 C   0  0  0  0  0  0
  -24.8741  -17.3348   19.2848 C   0  0  0  0  0  0
  -27.5106  -13.6168   18.8643 N   0  0  0  0  0  0
  -25.6276  -19.0497   19.1153 N   0  3  2  0  0  0
  -31.4007  -12.9564   18.7876 H   0  0  0  0  0  0
  -31.2367  -11.8511   20.1386 H   0  0  0  0  0  0
  -30.0911  -10.7345   18.3780 H   0  0  0  0  0  0
  -29.3210  -12.1397   17.7416 H   0  0  0  0  0  0
  -28.9322  -10.6132   20.3231 H   0  0  0  0  0  0
  -27.8526  -10.9422   19.0767 H   0  0  0  0  0  0
  -27.9593  -13.6920   21.1859 H   0  0  0  0  0  0
  -29.9595  -12.2760   21.8905 H   0  0  0  0  0  0
  -29.4794  -13.9157   22.2029 H   0  0  0  0  0  0
  -25.4718   -8.8132   19.7623 H   0  0  0  0  0  0
  -24.3856   -7.3274   21.2788 H   0  0  0  0  0  0
  -20.8415   -9.0842   19.9121 H   0  0  0  0  0  0
  -22.0694  -10.7058   18.7106 H   0  0  0  0  0  0
  -21.2718   -7.6950   23.9702 H   0  0  0  0  0  0
  -21.1685   -6.1035   25.8737 H   0  0  0  0  0  0
  -22.0511   -2.8430   23.2161 H   0  0  0  0  0  0
  -22.5303  -13.0176   23.1645 H   0  0  0  0  0  0
  -21.2095  -13.9921   22.5753 H   0  0  0  0  0  0
  -27.1915  -15.7860   21.0899 H   0  0  0  0  0  0
  -25.6765  -16.3758   21.4200 H   0  0  0  0  0  0
  -26.7643  -32.4594   23.0642 H   0  0  0  0  0  0
  -25.0162  -33.9179   24.9939 H   0  0  0  0  0  0
  -22.8361  -31.2825   21.3765 H   0  0  0  0  0  0
  -23.3815  -35.9369   23.3254 H   0  0  0  0  0  0
  -24.3570  -36.8821   22.2083 H   0  0  0  0  0  0
  -23.7232  -37.6218   23.6789 H   0  0  0  0  0  0
  -26.3729  -31.0960   20.6738 H   0  0  0  0  0  0
  -26.9253  -30.3720   22.1301 H   0  0  0  0  0  0
  -27.8970  -27.8534   21.3140 H   0  0  0  0  0  0
  -25.2621  -25.6623   18.7219 H   0  0  0  0  0  0
  -23.7470  -27.4849   18.7425 H   0  0  0  0  0  0
  -23.9553  -30.5809   19.4123 H   0  0  0  0  0  0
  -22.7832  -29.3530   19.7734 H   0  0  0  0  0  0
  -25.1396  -36.1559   25.0756 H   0  0  0  0  0  0
  -21.0045  -28.3412   24.1248 H   0  0  0  0  0  0
  -20.5654  -26.2400   23.3662 H   0  0  0  0  0  0
  -21.6659  -26.7370   22.1217 H   0  0  0  0  0  0
  -19.6939  -25.6244   21.1289 H   0  0  0  0  0  0
  -19.6726  -27.3121   20.6703 H   0  0  0  0  0  0
  -17.4224  -26.6669   21.4012 H   0  0  0  0  0  0
  -18.0350  -26.0093   22.9019 H   0  0  0  0  0  0
  -19.7988  -30.7314   24.2171 H   0  0  0  0  0  0
  -17.5063  -31.6276   24.5158 H   0  0  0  0  0  0
  -15.5386  -30.2978   23.7717 H   0  0  0  0  0  0
  -15.8700  -28.0797   22.7151 H   0  0  0  0  0  0
  -24.5882  -30.7170   25.7624 H   0  0  0  0  0  0
  -24.8804  -32.3121   26.4432 H   0  0  0  0  0  0
  -25.7784  -30.9237   27.0275 H   0  0  0  0  0  0
  -26.3306  -29.6241   24.2017 H   0  0  0  0  0  0
  -27.4048  -29.7370   25.5683 H   0  0  0  0  0  0
  -27.9307  -30.3784   24.0372 H   0  0  0  0  0  0
  -27.2638  -33.3774   26.1803 H   0  0  0  0  0  0
  -28.4034  -32.6723   25.0432 H   0  0  0  0  0  0
  -28.0603  -31.8683   26.5667 H   0  0  0  0  0  0
  -28.2558  -38.0032   24.7508 H   0  0  0  0  0  0
  -28.1093  -36.2549   24.6332 H   0  0  0  0  0  0
  -27.2272  -37.1383   25.8875 H   0  0  0  0  0  0
  -20.9649  -29.8760   21.6590 H   0  0  0  0  0  0
  -26.0091  -38.2653   24.1395 H   0  0  0  0  0  0
  -24.6950   -9.9092   22.6092 H   0  0  0  0  0  0
  -22.1245  -11.3083   21.8702 H   0  0  0  0  0  0
  -26.9271  -10.3202   20.8557 H   0  0  0  0  0  0
  -22.9478  -21.4208   18.9371 H   0  0  0  0  0  0
  -22.9919  -19.5969   19.1616 H   0  0  0  0  0  0
  -24.8482  -22.7611   18.3443 H   0  0  0  0  0  0
  -26.3003  -22.0180   17.8816 H   0  0  0  0  0  0
  -27.9927  -21.5212   19.4743 H   0  0  0  0  0  0
  -27.6568  -21.6765   21.1333 H   0  0  0  0  0  0
  -25.9270  -19.8068   21.1334 H   0  0  0  0  0  0
  -27.3642  -19.2283   20.3980 H   0  0  0  0  0  0
  -25.7174  -23.2863   20.6962 H   0  0  0  0  0  0
  -21.5097  -12.6702   18.3599 H   0  0  0  0  0  0
  -20.9695  -13.0995   19.9821 H   0  0  0  0  0  0
  -21.8263  -14.2666   18.9576 H   0  0  0  0  0  0
  -24.1008  -15.4214   17.8302 H   0  0  0  0  0  0
  -25.7695  -15.3145   18.0235 H   0  0  0  0  0  0
  -24.5493  -17.3252   20.3240 H   0  0  0  0  0  0
  -23.9241  -17.5965   18.8236 H   0  0  0  0  0  0
  -27.2094  -14.2667   18.1542 H   0  0  0  0  0  0
  -26.2375  -18.9304   18.3197 H   0  0  0  0  0  0
  1 25  1  0  0  0
  1 30  2  0  0  0
  1 86  1  0  0  0
  2  3  1  0  0  0
  2 25  1  0  0  0
  2 88  1  0  0  0
  2 89  1  0  0  0
  3  4  1  0  0  0
  3 90  1  0  0  0
  3 91  1  0  0  0
  4  5  1  0  0  0
  4 92  1  0  0  0
  4 93  1  0  0  0
  5  6  1  0  0  0
  5 26  1  0  0  0
  5 94  1  0  0  0
  6 25  1  0  0  0
  6 95  1  0  0  0
  6 96  1  0  0  0
  7  8  2  0  0  0
  7 26  1  0  0  0
  7 29  1  0  0  0
  8  9  1  0  0  0
  8 22  1  0  0  0
  9 10  1  0  0  0
  9 27  2  0  0  0
 10 11  2  0  0  0
 10 15  1  0  0  0
 11 12  1  0  0  0
 11 97  1  0  0  0
 12 13  2  0  0  0
 12 98  1  0  0  0
 13 14  1  0  0  0
 13 31  1  0  0  0
 14 15  2  0  0  0
 14 99  1  0  0  0
 15100  1  0  0  0
 16 17  2  0  0  0
 16 21  1  0  0  0
 16 31  1  0  0  0
 17 18  1  0  0  0
 17101  1  0  0  0
 18 19  2  0  0  0
 18102  1  0  0  0
 19 20  1  0  0  0
 19 24  1  0  0  0
 20 21  2  0  0  0
 20103  1  0  0  0
 21 23  1  0  0  0
 22 28  1  0  0  0
 22 32  2  0  0  0
 26 27  1  0  0  0
 28104  1  0  0  0
 28105  1  0  0  0
 29106  1  0  0  0
 29107  1  0  0  0
 33 34  1  0  0  0
 33 66  1  0  0  0
 33 70  2  0  0  0
 34 36  1  0  0  0
 34 59  1  0  0  0
 34108  1  0  0  0
 35 44  2  0  0  0
 35 45  1  0  0  0
 35 68  1  0  0  0
 36 56  1  0  0  0
 36109  1  0  0  0
 37 39  1  0  0  0
 37 47  1  0  0  0
 37 66  1  0  0  0
 37110  1  0  0  0
 38 43  2  0  0  0
 38 46  1  0  0  0
 38 47  1  0  0  0
 39 64  1  0  0  0
 39 67  2  0  0  0
 40 52  1  0  0  0
 40 53  2  0  0  0
 40 58  1  0  0  0
 41111  1  0  0  0
 41112  1  0  0  0
 41113  1  0  0  0
 41 48  1  0  0  0
 42 43  1  0  0  0
 42 66  1  0  0  0
 42114  1  0  0  0
 42115  1  0  0  0
 43 44  1  0  0  0
 44116  1  0  0  0
 45 46  2  0  0  0
 45117  1  0  0  0
 46118  1  0  0  0
 47119  1  0  0  0
 47120  1  0  0  0
 48 56  1  0  0  0
 48 65  1  0  0  0
 48121  1  0  0  0
 49 50  1  0  0  0
 49 53  1  0  0  0
 49 64  1  0  0  0
 49122  1  0  0  0
 50 51  1  0  0  0
 50123  1  0  0  0
 50124  1  0  0  0
 51 52  1  0  0  0
 51125  1  0  0  0
 51126  1  0  0  0
 52127  1  0  0  0
 52128  1  0  0  0
 53 54  1  0  0  0
 54 55  2  0  0  0
 54129  1  0  0  0
 55 57  1  0  0  0
 55130  1  0  0  0
 56 69  2  0  0  0
 57 58  2  0  0  0
 57131  1  0  0  0
 58132  1  0  0  0
 59 60  1  0  0  0
 59 61  1  0  0  0
 59 62  1  0  0  0
 60133  1  0  0  0
 60134  1  0  0  0
 60135  1  0  0  0
 61136  1  0  0  0
 61137  1  0  0  0
 61138  1  0  0  0
 62139  1  0  0  0
 62140  1  0  0  0
 62141  1  0  0  0
 63 65  1  0  0  0
 63142  1  0  0  0
 63143  1  0  0  0
 63144  1  0  0  0
 64145  1  0  0  0
 65146  1  0  0  0
 68 82  1  0  0  0
 71 72  2  0  0  0
 71 73  1  0  0  0
 71147  1  0  0  0
 72 74  1  0  0  0
 72148  1  0  0  0
 73 76  2  0  0  0
 73149  1  0  0  0
 74 75  2  0  0  0
 74 83  1  0  0  0
 75 76  1  0  0  0
 75 84  1  0  0  0
 76 86  1  0  0  0
 77 78  2  0  0  0
 77 79  1  0  0  0
 77 87  1  0  0  0
 78150  1  0  0  0
 78151  1  0  0  0
 79 82  1  0  0  0
 79152  1  0  0  0
 79153  1  0  0  0
 80 81  1  0  0  0
 80 82  1  0  0  0
 80154  1  0  0  0
 80155  1  0  0  0
 81 87  1  0  0  0
 81156  1  0  0  0
 81157  1  0  0  0
 82158  1  0  0  0
 83159  1  0  0  0
 83160  1  0  0  0
 83161  1  0  0  0
 84 85  1  0  0  0
 84162  1  0  0  0
 84163  1  0  0  0
 85164  1  0  0  0
 85165  1  0  0  0
 85 87  1  0  0  0
 86166  1  0  0  0
 87167  1  0  0  0
M  CHG  1  87   1
M  ISO  4   1 100  68 101  82 101  86 100
M  END
> <chiral flag>
0

> <version>
0

> <s_m_source_file>
/data/baiqing/PycharmProjects/Reinvent-master-3.2/result/LINK_invent/BTK/process_docking_weight1_custom_product_contain_oxygen_bond_distance_aromatic_linkinvent_7_9_3/rearranged_h_0052.sdf

> <i_m_source_file_index>
84

> <r_mmod_Potential_Energy-OPLS-2005>
19016.56640625

> <r_mmod_Stretch_Energy-OPLS-2005>
8420.8720703125

> <r_mmod_Bend_Energy-OPLS-2005>
2072.7822265625

> <r_mmod_Torsional_Energy-OPLS-2005>
833.5439453125

> <r_mmod_Improper_Torsional_Energy-OPLS-2005>
86.3011627197266

> <r_mmod_Van_der_Waal_Energy-OPLS-2005>
3528.216796875

> <r_mmod_Electrostatic_Energy-OPLS-2005>
-321.721130371094

> <r_mmod_Solvation_Energy-OPLS-2005>
-431.900268554688

> <b_mmod_Minimization_Converged-OPLS-2005>
0

> <r_mmod_RMS_Derivative-OPLS-2005>
3.3310182094574

$$$$
84
                    3D
 Structure written by MMmdl.
160168  0  0  1  0            999 V2000
  -30.6905  -14.5210   20.4561 C   0  0  0  0  0  0
  -30.4191  -12.3131   19.4257 C   0  0  0  0  0  0
  -29.4899  -12.4772   18.2042 C   0  0  0  0  0  0
  -28.0132  -12.3408   18.6214 C   0  0  0  0  0  0
  -27.6522  -13.2109   19.8540 C   0  0  2  0  0  0
  -28.7001  -13.0563   20.9791 C   0  0  0  0  0  0
  -25.2566  -13.8192   20.5678 C   0  0  0  0  0  0
  -24.1834  -13.0467   20.9201 C   0  0  0  0  0  0
  -24.6387  -11.6937   20.8761 C   0  0  0  0  0  0
  -23.9054  -10.4328   21.0444 C   0  0  0  0  0  0
  -24.3614   -9.4236   21.9206 C   0  0  0  0  0  0
  -23.6309   -8.2253   22.0754 C   0  0  0  0  0  0
  -22.4278   -8.0293   21.3555 C   0  0  0  0  0  0
  -21.9935   -9.0273   20.4635 C   0  0  0  0  0  0
  -22.7254  -10.2160   20.3065 C   0  0  0  0  0  0
  -21.6850   -6.0735   22.5291 C   0  0  0  0  0  0
  -21.4003   -6.5650   23.8217 C   0  0  0  0  0  0
  -21.3663   -5.6809   24.9192 C   0  0  0  0  0  0
  -21.6049   -4.3065   24.7238 C   0  0  0  0  0  0
  -21.8829   -3.8158   23.4356 C   0  0  0  0  0  0
  -21.9198   -4.6967   22.3419 C   0  0  0  0  0  0
  -22.7861  -13.5250   21.1895 C   0  0  0  0  0  0
  -22.1687   -4.2153   21.1003 F   0  0  0  0  0  0
  -21.5636   -3.4546   25.7757 F   0  0  0  0  0  0
  -30.0246  -13.3360   20.4049 N   0  0  0  0  0  0
  -26.2982  -12.9360   20.3293 N   0  0  0  0  0  0
  -25.9304  -11.6515   20.5758 N   0  0  0  0  0  0
  -22.0530  -12.8188   22.0409 N   0  0  0  0  0  0
  -25.4322  -15.1916   20.4071 N   0  0  0  0  0  0
  -31.8978  -14.6015   20.2310 O   0  0  0  0  0  0
  -21.6664   -6.8877   21.4249 O   0  0  0  0  0  0
  -22.3527  -14.5572   20.6774 O   0  0  0  0  0  0
  -24.6152  -31.8664   23.2060 C   0  0  0  0  0  0
  -25.9036  -32.4809   23.8384 C   0  0  1  0  0  0
  -27.2334  -27.4142   20.1015 C   0  0  0  0  0  0
  -25.5867  -33.8615   24.2308 N   0  0  0  0  0  0
  -23.4046  -30.4869   21.5496 C   0  0  2  0  0  0
  -24.8550  -28.9562   20.1117 C   0  0  0  0  0  0
  -22.7419  -29.4651   22.5005 C   0  0  0  0  0  0
  -18.0251  -28.1364   22.8473 C   0  0  0  0  0  0
  -24.1479  -36.7359   23.2638 C   0  0  0  0  0  0
  -25.9339  -30.8269   21.3607 C   0  0  0  0  0  0
  -26.0153  -29.4589   20.7107 C   0  0  0  0  0  0
  -27.2110  -28.6974   20.6986 C   0  0  0  0  0  0
  -26.0571  -26.9425   19.4764 C   0  0  0  0  0  0
  -24.8727  -27.6985   19.4843 C   0  0  0  0  0  0
  -23.6118  -29.8175   20.1647 C   0  0  0  0  0  0
  -25.4088  -36.3128   24.0325 C   0  0  1  0  0  0
  -20.5852  -28.3659   23.1313 C   0  0  2  0  0  0
  -20.6749  -26.9391   22.5422 C   0  0  0  0  0  0
  -19.5732  -26.6383   21.5210 C   0  0  0  0  0  0
  -18.1917  -26.7905   22.1621 C   0  0  0  0  0  0
  -19.1504  -28.8827   23.2881 C   0  0  0  0  0  0
  -18.9433  -30.1440   23.8891 C   0  0  0  0  0  0
  -17.6443  -30.6575   24.0567 C   0  0  0  0  0  0
  -25.9018  -34.9481   23.5131 C   0  0  0  0  0  0
  -16.5325  -29.9082   23.6321 C   0  0  0  0  0  0
  -16.7247  -28.6496   23.0326 C   0  0  0  0  0  0
  -26.4437  -31.6577   25.0724 C   0  0  0  0  0  0
  -25.3691  -31.3687   26.1471 C   0  0  0  0  0  0
  -27.0257  -30.3006   24.6131 C   0  0  0  0  0  0
  -27.6010  -32.4278   25.7504 C   0  0  0  0  0  0
  -27.5569  -37.1819   24.8447 C   0  0  0  0  0  0
  -21.4142  -29.3046   22.3752 N   0  0  0  0  0  0
  -26.4282  -37.3805   23.9391 N   0  0  0  0  0  0
  -24.6699  -31.0759   22.0973 N   0  0  0  0  0  0
  -23.4182  -28.8189   23.3048 O   0  0  0  0  0  0
  -28.3817  -26.6412   20.1053 O   0  0  0  0  0  0
  -26.5642  -34.8934   22.4732 O   0  0  0  0  0  0
  -23.5337  -32.1424   23.7435 O   0  0  0  0  0  0
  -30.6788  -19.7145   19.4219 C   0  0  0  0  0  0
  -31.2532  -18.6819   18.6686 C   0  0  0  0  0  0
  -29.6070  -18.0489   20.8375 C   0  0  0  0  0  0
  -29.8081  -19.4147   20.4874 C   0  0  0  0  0  0
  -30.9827  -17.3276   18.9549 C   0  0  0  0  0  0
  -30.2074  -16.9825   20.1067 C   0  0  0  0  0  0
  -29.4703  -23.0369   21.0614 C   0  0  0  0  0  0
  -31.4837  -16.3247   17.9250 C   0  0  0  0  0  0
  -28.1983  -21.8283   19.3180 C   0  0  0  0  0  0
  -29.1021  -20.5531   21.2541 C   0  0  0  0  0  0
  -29.4273  -24.3554   20.2380 C   0  0  0  0  0  0
  -28.2174  -25.2731   20.5561 C   0  0  0  0  0  0
  -29.9077  -15.6260   20.5108 N   0  0  0  0  0  0
  -28.9853  -21.8671   20.5551 N   0  0  0  0  0  0
  -30.0006  -23.0851   22.1756 O   0  0  0  0  0  0
  -31.4608  -12.4079   19.1150 H   0  0  0  0  0  0
  -30.3234  -11.3158   19.8602 H   0  0  0  0  0  0
  -29.7303  -11.7389   17.4370 H   0  0  0  0  0  0
  -29.6450  -13.4533   17.7435 H   0  0  0  0  0  0
  -27.8325  -11.2897   18.8461 H   0  0  0  0  0  0
  -27.3572  -12.5850   17.7854 H   0  0  0  0  0  0
  -27.6757  -14.2442   19.5088 H   0  0  0  0  0  0
  -28.6773  -12.0434   21.3860 H   0  0  0  0  0  0
  -28.4760  -13.7219   21.8137 H   0  0  0  0  0  0
  -25.2776   -9.5708   22.4753 H   0  0  0  0  0  0
  -24.0054   -7.4635   22.7441 H   0  0  0  0  0  0
  -21.0899   -8.8764   19.8920 H   0  0  0  0  0  0
  -22.3735  -10.9679   19.6151 H   0  0  0  0  0  0
  -21.1977   -7.6151   23.9715 H   0  0  0  0  0  0
  -21.1483   -6.0551   25.9095 H   0  0  0  0  0  0
  -22.0594   -2.7611   23.2875 H   0  0  0  0  0  0
  -22.4204  -11.9829   22.4712 H   0  0  0  0  0  0
  -21.1119  -13.1133   22.2622 H   0  0  0  0  0  0
  -24.6700  -15.8526   20.5066 H   0  0  0  0  0  0
  -26.2794  -15.6229   20.0610 H   0  0  0  0  0  0
  -26.7120  -32.5530   23.1162 H   0  0  0  0  0  0
  -24.9868  -33.9745   25.0352 H   0  0  0  0  0  0
  -22.6912  -31.3012   21.4089 H   0  0  0  0  0  0
  -23.3723  -35.9722   23.3295 H   0  0  0  0  0  0
  -24.3564  -36.8985   22.2052 H   0  0  0  0  0  0
  -23.7249  -37.6557   23.6674 H   0  0  0  0  0  0
  -26.0399  -31.5841   20.5821 H   0  0  0  0  0  0
  -26.8231  -30.8872   21.9765 H   0  0  0  0  0  0
  -28.1091  -29.0890   21.1584 H   0  0  0  0  0  0
  -26.0472  -25.9943   18.9618 H   0  0  0  0  0  0
  -23.9891  -27.3083   18.9953 H   0  0  0  0  0  0
  -23.7030  -30.5878   19.3981 H   0  0  0  0  0  0
  -22.7383  -29.2260   19.8840 H   0  0  0  0  0  0
  -25.1256  -36.1999   25.0818 H   0  0  0  0  0  0
  -20.9891  -28.3236   24.1455 H   0  0  0  0  0  0
  -20.5627  -26.2282   23.3612 H   0  0  0  0  0  0
  -21.6618  -26.7430   22.1231 H   0  0  0  0  0  0
  -19.6898  -25.6297   21.1229 H   0  0  0  0  0  0
  -19.6666  -27.3205   20.6741 H   0  0  0  0  0  0
  -17.4165  -26.6615   21.4044 H   0  0  0  0  0  0
  -18.0324  -26.0067   22.9033 H   0  0  0  0  0  0
  -19.7912  -30.7250   24.2268 H   0  0  0  0  0  0
  -17.4991  -31.6252   24.5181 H   0  0  0  0  0  0
  -15.5313  -30.2984   23.7650 H   0  0  0  0  0  0
  -15.8641  -28.0834   22.7024 H   0  0  0  0  0  0
  -24.5870  -30.7018   25.7811 H   0  0  0  0  0  0
  -24.8868  -32.2830   26.4943 H   0  0  0  0  0  0
  -25.8029  -30.8841   27.0233 H   0  0  0  0  0  0
  -26.2819  -29.6786   24.1141 H   0  0  0  0  0  0
  -27.3920  -29.7221   25.4625 H   0  0  0  0  0  0
  -27.8702  -30.4280   23.9363 H   0  0  0  0  0  0
  -27.2632  -33.3561   26.2141 H   0  0  0  0  0  0
  -28.3812  -32.6851   25.0324 H   0  0  0  0  0  0
  -28.0713  -31.8366   26.5373 H   0  0  0  0  0  0
  -28.2576  -38.0127   24.7498 H   0  0  0  0  0  0
  -28.1064  -36.2646   24.6263 H   0  0  0  0  0  0
  -27.2293  -37.1464   25.8854 H   0  0  0  0  0  0
  -20.9306  -29.8828   21.7016 H   0  0  0  0  0  0
  -26.0180  -38.2885   24.1401 H   0  0  0  0  0  0
  -30.8815  -20.7379   19.1416 H   0  0  0  0  0  0
  -31.8709  -18.9442   17.8199 H   0  0  0  0  0  0
  -28.9609  -17.8131   21.6731 H   0  0  0  0  0  0
  -31.5381  -16.7855   16.9382 H   0  0  0  0  0  0
  -30.8044  -15.4807   17.8264 H   0  0  0  0  0  0
  -32.4824  -15.9670   18.1768 H   0  0  0  0  0  0
  -27.3726  -22.5390   19.3473 H   0  0  0  0  0  0
  -27.7590  -20.8436   19.1536 H   0  0  0  0  0  0
  -28.8226  -22.0526   18.4516 H   0  0  0  0  0  0
  -29.6067  -20.6586   22.2152 H   0  0  0  0  0  0
  -28.0916  -20.2255   21.5033 H   0  0  0  0  0  0
  -29.4989  -24.1569   19.1704 H   0  0  0  0  0  0
  -30.3371  -24.9018   20.4821 H   0  0  0  0  0  0
  -28.0381  -25.2972   21.6308 H   0  0  0  0  0  0
  -27.3435  -24.7935   20.1208 H   0  0  0  0  0  0
  -28.9636  -15.4568   20.8215 H   0  0  0  0  0  0
  1 25  1  0  0  0
  1 30  2  0  0  0
  1 83  1  0  0  0
  2  3  1  0  0  0
  2 25  1  0  0  0
  2 86  1  0  0  0
  2 87  1  0  0  0
  3  4  1  0  0  0
  3 88  1  0  0  0
  3 89  1  0  0  0
  4  5  1  0  0  0
  4 90  1  0  0  0
  4 91  1  0  0  0
  5  6  1  0  0  0
  5 26  1  0  0  0
  5 92  1  0  0  0
  6 25  1  0  0  0
  6 93  1  0  0  0
  6 94  1  0  0  0
  7  8  2  0  0  0
  7 26  1  0  0  0
  7 29  1  0  0  0
  8  9  1  0  0  0
  8 22  1  0  0  0
  9 10  1  0  0  0
  9 27  2  0  0  0
 10 11  2  0  0  0
 10 15  1  0  0  0
 11 12  1  0  0  0
 11 95  1  0  0  0
 12 13  2  0  0  0
 12 96  1  0  0  0
 13 14  1  0  0  0
 13 31  1  0  0  0
 14 15  2  0  0  0
 14 97  1  0  0  0
 15 98  1  0  0  0
 16 17  2  0  0  0
 16 21  1  0  0  0
 16 31  1  0  0  0
 17 18  1  0  0  0
 17 99  1  0  0  0
 18 19  2  0  0  0
 18100  1  0  0  0
 19 20  1  0  0  0
 19 24  1  0  0  0
 20 21  2  0  0  0
 20101  1  0  0  0
 21 23  1  0  0  0
 22 28  1  0  0  0
 22 32  2  0  0  0
 26 27  1  0  0  0
 28102  1  0  0  0
 28103  1  0  0  0
 29104  1  0  0  0
 29105  1  0  0  0
 33 34  1  0  0  0
 33 66  1  0  0  0
 33 70  2  0  0  0
 34 36  1  0  0  0
 34 59  1  0  0  0
 34106  1  0  0  0
 35 44  2  0  0  0
 35 45  1  0  0  0
 35 68  1  0  0  0
 36 56  1  0  0  0
 36107  1  0  0  0
 37 39  1  0  0  0
 37 47  1  0  0  0
 37 66  1  0  0  0
 37108  1  0  0  0
 38 43  2  0  0  0
 38 46  1  0  0  0
 38 47  1  0  0  0
 39 64  1  0  0  0
 39 67  2  0  0  0
 40 52  1  0  0  0
 40 53  2  0  0  0
 40 58  1  0  0  0
 41109  1  0  0  0
 41110  1  0  0  0
 41111  1  0  0  0
 41 48  1  0  0  0
 42 43  1  0  0  0
 42 66  1  0  0  0
 42112  1  0  0  0
 42113  1  0  0  0
 43 44  1  0  0  0
 44114  1  0  0  0
 45 46  2  0  0  0
 45115  1  0  0  0
 46116  1  0  0  0
 47117  1  0  0  0
 47118  1  0  0  0
 48 56  1  0  0  0
 48 65  1  0  0  0
 48119  1  0  0  0
 49 50  1  0  0  0
 49 53  1  0  0  0
 49 64  1  0  0  0
 49120  1  0  0  0
 50 51  1  0  0  0
 50121  1  0  0  0
 50122  1  0  0  0
 51 52  1  0  0  0
 51123  1  0  0  0
 51124  1  0  0  0
 52125  1  0  0  0
 52126  1  0  0  0
 53 54  1  0  0  0
 54 55  2  0  0  0
 54127  1  0  0  0
 55 57  1  0  0  0
 55128  1  0  0  0
 56 69  2  0  0  0
 57 58  2  0  0  0
 57129  1  0  0  0
 58130  1  0  0  0
 59 60  1  0  0  0
 59 61  1  0  0  0
 59 62  1  0  0  0
 60131  1  0  0  0
 60132  1  0  0  0
 60133  1  0  0  0
 61134  1  0  0  0
 61135  1  0  0  0
 61136  1  0  0  0
 62137  1  0  0  0
 62138  1  0  0  0
 62139  1  0  0  0
 63 65  1  0  0  0
 63140  1  0  0  0
 63141  1  0  0  0
 63142  1  0  0  0
 64143  1  0  0  0
 65144  1  0  0  0
 68 82  1  0  0  0
 71 72  2  0  0  0
 71 74  1  0  0  0
 71145  1  0  0  0
 72 75  1  0  0  0
 72146  1  0  0  0
 73 74  2  0  0  0
 73 76  1  0  0  0
 73147  1  0  0  0
 74 80  1  0  0  0
 75 76  2  0  0  0
 75 78  1  0  0  0
 76 83  1  0  0  0
 77 81  1  0  0  0
 77 84  1  0  0  0
 77 85  2  0  0  0
 78148  1  0  0  0
 78149  1  0  0  0
 78150  1  0  0  0
 79 84  1  0  0  0
 79151  1  0  0  0
 79152  1  0  0  0
 79153  1  0  0  0
 80 84  1  0  0  0
 80154  1  0  0  0
 80155  1  0  0  0
 81 82  1  0  0  0
 81156  1  0  0  0
 81157  1  0  0  0
 82158  1  0  0  0
 82159  1  0  0  0
 83160  1  0  0  0
M  ISO  4   1 100  68 101  82 101  83 100
M  END
> <chiral flag>
0

> <version>
0

> <s_m_source_file>
/data/baiqing/PycharmProjects/Reinvent-master-3.2/result/LINK_invent/BTK/process_docking_weight1_custom_product_contain_oxygen_bond_distance_aromatic_linkinvent_7_9_3/rearranged_h_0052.sdf

> <i_m_source_file_index>
85

> <r_mmod_Potential_Energy-OPLS-2005>
-20.8732833862305

> <r_mmod_Stretch_Energy-OPLS-2005>
49.3149871826172

> <r_mmod_Bend_Energy-OPLS-2005>
106.636169433594

> <r_mmod_Torsional_Energy-OPLS-2005>
264.775054931641

> <r_mmod_Improper_Torsional_Energy-OPLS-2005>
6.78901338577271

> <r_mmod_Van_der_Waal_Energy-OPLS-2005>
161.430252075195

> <r_mmod_Electrostatic_Energy-OPLS-2005>
-407.017272949219

> <r_mmod_Solvation_Energy-OPLS-2005>
-229.301544189453

> <b_mmod_Minimization_Converged-OPLS-2005>
0

> <r_mmod_RMS_Derivative-OPLS-2005>
3.55200004577637

$$$$
85
                    3D
 Structure written by MMmdl.
151159  0  0  1  0            999 V2000
  -30.5938  -14.7547   20.4723 C   0  0  0  0  0  0
  -30.4401  -12.4643   19.4674 C   0  0  0  0  0  0
  -29.5107  -12.4988   18.2342 C   0  0  0  0  0  0
  -28.0387  -12.3156   18.6537 C   0  0  0  0  0  0
  -27.6410  -13.2236   19.8474 C   0  0  2  0  0  0
  -28.6869  -13.1590   20.9809 C   0  0  0  0  0  0
  -25.2511  -13.8178   20.5691 C   0  0  0  0  0  0
  -24.1797  -13.0433   20.9211 C   0  0  0  0  0  0
  -24.6380  -11.6907   20.8754 C   0  0  0  0  0  0
  -23.9056  -10.4288   21.0411 C   0  0  0  0  0  0
  -24.3608   -9.4203   21.9186 C   0  0  0  0  0  0
  -23.6283   -8.2240   22.0756 C   0  0  0  0  0  0
  -22.4265   -8.0280   21.3549 C   0  0  0  0  0  0
  -21.9903   -9.0252   20.4649 C   0  0  0  0  0  0
  -22.7230  -10.2131   20.3057 C   0  0  0  0  0  0
  -21.6853   -6.0728   22.5277 C   0  0  0  0  0  0
  -21.4012   -6.5633   23.8210 C   0  0  0  0  0  0
  -21.3658   -5.6788   24.9175 C   0  0  0  0  0  0
  -21.6044   -4.3053   24.7227 C   0  0  0  0  0  0
  -21.8820   -3.8141   23.4351 C   0  0  0  0  0  0
  -21.9190   -4.6954   22.3403 C   0  0  0  0  0  0
  -22.7820  -13.5224   21.1869 C   0  0  0  0  0  0
  -22.1660   -4.2139   21.0981 F   0  0  0  0  0  0
  -21.5630   -3.4537   25.7740 F   0  0  0  0  0  0
  -29.9832  -13.5229   20.3948 N   0  0  0  0  0  0
  -26.2930  -12.9366   20.3269 N   0  0  0  0  0  0
  -25.9305  -11.6521   20.5750 N   0  0  0  0  0  0
  -22.0465  -12.8216   22.0426 N   0  0  0  0  0  0
  -25.4193  -15.1900   20.4089 N   0  0  0  0  0  0
  -31.7842  -14.8677   20.1640 O   0  0  0  0  0  0
  -21.6635   -6.8871   21.4240 O   0  0  0  0  0  0
  -22.3508  -14.5533   20.6716 O   0  0  0  0  0  0
  -24.6314  -31.8533   23.1960 C   0  0  0  0  0  0
  -25.9138  -32.4743   23.8311 C   0  0  1  0  0  0
  -27.2243  -27.2601   20.1404 C   0  0  0  0  0  0
  -25.5934  -33.8547   24.2242 N   0  0  0  0  0  0
  -23.4292  -30.4725   21.5399 C   0  0  2  0  0  0
  -24.8780  -28.9123   20.1160 C   0  0  0  0  0  0
  -22.7502  -29.4586   22.4914 C   0  0  0  0  0  0
  -18.0293  -28.1372   22.8476 C   0  0  0  0  0  0
  -24.1489  -36.7282   23.2641 C   0  0  0  0  0  0
  -25.9732  -30.7669   21.3739 C   0  0  0  0  0  0
  -26.0496  -29.3873   20.7205 C   0  0  0  0  0  0
  -27.2293  -28.5759   20.7148 C   0  0  0  0  0  0
  -26.0318  -26.8448   19.5141 C   0  0  0  0  0  0
  -24.8737  -27.6494   19.5006 C   0  0  0  0  0  0
  -23.6484  -29.7998   20.1589 C   0  0  0  0  0  0
  -25.4118  -36.3064   24.0322 C   0  0  1  0  0  0
  -20.5896  -28.3685   23.1256 C   0  0  2  0  0  0
  -20.6780  -26.9394   22.5406 C   0  0  0  0  0  0
  -19.5766  -26.6374   21.5196 C   0  0  0  0  0  0
  -18.1944  -26.7916   22.1610 C   0  0  0  0  0  0
  -19.1546  -28.8846   23.2857 C   0  0  0  0  0  0
  -18.9472  -30.1448   23.8871 C   0  0  0  0  0  0
  -17.6473  -30.6576   24.0551 C   0  0  0  0  0  0
  -25.9058  -34.9434   23.5081 C   0  0  0  0  0  0
  -16.5363  -29.9069   23.6325 C   0  0  0  0  0  0
  -16.7281  -28.6485   23.0348 C   0  0  0  0  0  0
  -26.4505  -31.6579   25.0708 C   0  0  0  0  0  0
  -25.3718  -31.3740   26.1422 C   0  0  0  0  0  0
  -27.0365  -30.3001   24.6204 C   0  0  0  0  0  0
  -27.6050  -32.4334   25.7482 C   0  0  0  0  0  0
  -27.5578  -37.1797   24.8468 C   0  0  0  0  0  0
  -21.4211  -29.3032   22.3652 N   0  0  0  0  0  0
  -26.4297  -37.3761   23.9403 N   0  0  0  0  0  0
  -24.6970  -31.0491   22.0935 N   0  0  0  0  0  0
  -23.4188  -28.8125   23.3027 O   0  0  0  0  0  0
  -28.3218  -26.3733   20.1375 O   0  0  0  0  0  0
  -26.5630  -34.8913   22.4651 O   0  0  0  0  0  0
  -23.5463  -32.1367   23.7252 O   0  0  0  0  0  0
  -30.5030  -20.0784   21.6547 C   0  0  0  0  0  0
  -31.1722  -19.0186   22.3018 C   0  0  0  0  0  0
  -29.3638  -18.4234   20.2877 C   0  0  0  0  0  0
  -29.5662  -19.8284   20.6347 C   0  0  0  0  0  0
  -30.0607  -17.3046   20.9192 C   0  0  0  0  0  0
  -30.9570  -17.6633   21.9652 C   0  0  0  0  0  0
  -28.5461  -23.6955   19.9312 C   0  0  0  0  0  0
  -28.8598  -21.0693   19.9147 C   0  0  0  0  0  0
  -28.1652  -25.0143   20.7694 C   0  0  0  0  0  0
  -29.7757  -15.8695   20.6273 N   0  0  0  0  0  0
  -28.7673  -22.4651   20.5440 N   0  0  0  0  0  0
  -28.5903  -23.7838   18.7020 O   0  0  0  0  0  0
  -31.7577  -16.4807   22.9443 Cl  0  0  0  0  0  0
  -31.4770  -12.6065   19.1587 H   0  0  0  0  0  0
  -30.4043  -11.4902   19.9567 H   0  0  0  0  0  0
  -29.7983  -11.7202   17.5265 H   0  0  0  0  0  0
  -29.6276  -13.4483   17.7095 H   0  0  0  0  0  0
  -27.9071  -11.2695   18.9314 H   0  0  0  0  0  0
  -27.3768  -12.4904   17.8047 H   0  0  0  0  0  0
  -27.6342  -14.2410   19.4579 H   0  0  0  0  0  0
  -28.7294  -12.1599   21.4169 H   0  0  0  0  0  0
  -28.4194  -13.8359   21.7940 H   0  0  0  0  0  0
  -25.2751   -9.5679   22.4758 H   0  0  0  0  0  0
  -23.9992   -7.4631   22.7474 H   0  0  0  0  0  0
  -21.0836   -8.8768   19.8951 H   0  0  0  0  0  0
  -22.3690  -10.9668   19.6161 H   0  0  0  0  0  0
  -21.2006   -7.6141   23.9711 H   0  0  0  0  0  0
  -21.1478   -6.0520   25.9077 H   0  0  0  0  0  0
  -22.0601   -2.7604   23.2855 H   0  0  0  0  0  0
  -22.4084  -11.9874   22.4804 H   0  0  0  0  0  0
  -21.1081  -13.1243   22.2630 H   0  0  0  0  0  0
  -24.6495  -15.8398   20.5221 H   0  0  0  0  0  0
  -26.2551  -15.6327   20.0509 H   0  0  0  0  0  0
  -26.7197  -32.5396   23.1049 H   0  0  0  0  0  0
  -25.0093  -33.9664   25.0396 H   0  0  0  0  0  0
  -22.7274  -31.2955   21.3896 H   0  0  0  0  0  0
  -23.3752  -35.9611   23.3313 H   0  0  0  0  0  0
  -24.3585  -36.8903   22.2056 H   0  0  0  0  0  0
  -23.7246  -37.6488   23.6663 H   0  0  0  0  0  0
  -26.1111  -31.5267   20.6032 H   0  0  0  0  0  0
  -26.8497  -30.8191   22.0076 H   0  0  0  0  0  0
  -28.1332  -28.9375   21.1847 H   0  0  0  0  0  0
  -25.9934  -25.8734   19.0407 H   0  0  0  0  0  0
  -23.9763  -27.2824   19.0219 H   0  0  0  0  0  0
  -23.7731  -30.5718   19.3990 H   0  0  0  0  0  0
  -22.7672  -29.2303   19.8561 H   0  0  0  0  0  0
  -25.1302  -36.1915   25.0815 H   0  0  0  0  0  0
  -20.9983  -28.3267   24.1380 H   0  0  0  0  0  0
  -20.5678  -26.2282   23.3607 H   0  0  0  0  0  0
  -21.6646  -26.7417   22.1197 H   0  0  0  0  0  0
  -19.6925  -25.6278   21.1235 H   0  0  0  0  0  0
  -19.6710  -27.3172   20.6709 H   0  0  0  0  0  0
  -17.4208  -26.6651   21.4018 H   0  0  0  0  0  0
  -18.0355  -26.0047   22.8994 H   0  0  0  0  0  0
  -19.7953  -30.7267   24.2227 H   0  0  0  0  0  0
  -17.5030  -31.6255   24.5162 H   0  0  0  0  0  0
  -15.5364  -30.2965   23.7667 H   0  0  0  0  0  0
  -15.8678  -28.0805   22.7068 H   0  0  0  0  0  0
  -24.5884  -30.7097   25.7759 H   0  0  0  0  0  0
  -24.8912  -32.2909   26.4839 H   0  0  0  0  0  0
  -25.8014  -30.8928   27.0212 H   0  0  0  0  0  0
  -26.2955  -29.6735   24.1224 H   0  0  0  0  0  0
  -27.4055  -29.7282   25.4730 H   0  0  0  0  0  0
  -27.8823  -30.4303   23.9447 H   0  0  0  0  0  0
  -27.2655  -33.3645   26.2037 H   0  0  0  0  0  0
  -28.3862  -32.6886   25.0307 H   0  0  0  0  0  0
  -28.0709  -31.8478   26.5420 H   0  0  0  0  0  0
  -28.2596  -38.0091   24.7499 H   0  0  0  0  0  0
  -28.1072  -36.2619   24.6313 H   0  0  0  0  0  0
  -27.2290  -37.1468   25.8869 H   0  0  0  0  0  0
  -20.9399  -29.8748   21.6853 H   0  0  0  0  0  0
  -26.0179  -38.2837   24.1402 H   0  0  0  0  0  0
  -30.7180  -21.0947   21.9541 H   0  0  0  0  0  0
  -31.8609  -19.2522   23.1012 H   0  0  0  0  0  0
  -28.6501  -18.2012   19.5068 H   0  0  0  0  0  0
  -27.8383  -20.7614   19.6851 H   0  0  0  0  0  0
  -29.3506  -21.1789   18.9468 H   0  0  0  0  0  0
  -27.1450  -24.8897   21.1343 H   0  0  0  0  0  0
  -28.7886  -25.0112   21.6635 H   0  0  0  0  0  0
  -28.7953  -15.6419   20.5879 H   0  0  0  0  0  0
  -28.7368  -22.4755   21.5550 H   0  0  0  0  0  0
  1 25  1  0  0  0
  1 30  2  0  0  0
  1 80  1  0  0  0
  2  3  1  0  0  0
  2 25  1  0  0  0
  2 84  1  0  0  0
  2 85  1  0  0  0
  3  4  1  0  0  0
  3 86  1  0  0  0
  3 87  1  0  0  0
  4  5  1  0  0  0
  4 88  1  0  0  0
  4 89  1  0  0  0
  5  6  1  0  0  0
  5 26  1  0  0  0
  5 90  1  0  0  0
  6 25  1  0  0  0
  6 91  1  0  0  0
  6 92  1  0  0  0
  7  8  2  0  0  0
  7 26  1  0  0  0
  7 29  1  0  0  0
  8  9  1  0  0  0
  8 22  1  0  0  0
  9 10  1  0  0  0
  9 27  2  0  0  0
 10 11  2  0  0  0
 10 15  1  0  0  0
 11 12  1  0  0  0
 11 93  1  0  0  0
 12 13  2  0  0  0
 12 94  1  0  0  0
 13 14  1  0  0  0
 13 31  1  0  0  0
 14 15  2  0  0  0
 14 95  1  0  0  0
 15 96  1  0  0  0
 16 17  2  0  0  0
 16 21  1  0  0  0
 16 31  1  0  0  0
 17 18  1  0  0  0
 17 97  1  0  0  0
 18 19  2  0  0  0
 18 98  1  0  0  0
 19 20  1  0  0  0
 19 24  1  0  0  0
 20 21  2  0  0  0
 20 99  1  0  0  0
 21 23  1  0  0  0
 22 28  1  0  0  0
 22 32  2  0  0  0
 26 27  1  0  0  0
 28100  1  0  0  0
 28101  1  0  0  0
 29102  1  0  0  0
 29103  1  0  0  0
 33 34  1  0  0  0
 33 66  1  0  0  0
 33 70  2  0  0  0
 34 36  1  0  0  0
 34 59  1  0  0  0
 34104  1  0  0  0
 35 44  2  0  0  0
 35 45  1  0  0  0
 35 68  1  0  0  0
 36 56  1  0  0  0
 36105  1  0  0  0
 37 39  1  0  0  0
 37 47  1  0  0  0
 37 66  1  0  0  0
 37106  1  0  0  0
 38 43  2  0  0  0
 38 46  1  0  0  0
 38 47  1  0  0  0
 39 64  1  0  0  0
 39 67  2  0  0  0
 40 52  1  0  0  0
 40 53  2  0  0  0
 40 58  1  0  0  0
 41107  1  0  0  0
 41108  1  0  0  0
 41109  1  0  0  0
 41 48  1  0  0  0
 42 43  1  0  0  0
 42 66  1  0  0  0
 42110  1  0  0  0
 42111  1  0  0  0
 43 44  1  0  0  0
 44112  1  0  0  0
 45 46  2  0  0  0
 45113  1  0  0  0
 46114  1  0  0  0
 47115  1  0  0  0
 47116  1  0  0  0
 48 56  1  0  0  0
 48 65  1  0  0  0
 48117  1  0  0  0
 49 50  1  0  0  0
 49 53  1  0  0  0
 49 64  1  0  0  0
 49118  1  0  0  0
 50 51  1  0  0  0
 50119  1  0  0  0
 50120  1  0  0  0
 51 52  1  0  0  0
 51121  1  0  0  0
 51122  1  0  0  0
 52123  1  0  0  0
 52124  1  0  0  0
 53 54  1  0  0  0
 54 55  2  0  0  0
 54125  1  0  0  0
 55 57  1  0  0  0
 55126  1  0  0  0
 56 69  2  0  0  0
 57 58  2  0  0  0
 57127  1  0  0  0
 58128  1  0  0  0
 59 60  1  0  0  0
 59 61  1  0  0  0
 59 62  1  0  0  0
 60129  1  0  0  0
 60130  1  0  0  0
 60131  1  0  0  0
 61132  1  0  0  0
 61133  1  0  0  0
 61134  1  0  0  0
 62135  1  0  0  0
 62136  1  0  0  0
 62137  1  0  0  0
 63 65  1  0  0  0
 63138  1  0  0  0
 63139  1  0  0  0
 63140  1  0  0  0
 64141  1  0  0  0
 65142  1  0  0  0
 68 79  1  0  0  0
 71 72  2  0  0  0
 71 74  1  0  0  0
 71143  1  0  0  0
 72 76  1  0  0  0
 72144  1  0  0  0
 73 74  2  0  0  0
 73 75  1  0  0  0
 73145  1  0  0  0
 74 78  1  0  0  0
 75 76  2  0  0  0
 75 80  1  0  0  0
 76 83  1  0  0  0
 77 79  1  0  0  0
 77 81  1  0  0  0
 77 82  2  0  0  0
 78 81  1  0  0  0
 78146  1  0  0  0
 78147  1  0  0  0
 79148  1  0  0  0
 79149  1  0  0  0
 80150  1  0  0  0
 81151  1  0  0  0
M  ISO  4   1 100  68 101  79 101  80 100
M  END
> <chiral flag>
0

> <version>
0

> <s_m_source_file>
/data/baiqing/PycharmProjects/Reinvent-master-3.2/result/LINK_invent/BTK/process_docking_weight1_custom_product_contain_oxygen_bond_distance_aromatic_linkinvent_7_9_3/rearranged_h_0052.sdf

> <i_m_source_file_index>
86

> <r_mmod_Potential_Energy-OPLS-2005>
80.3390655517578

> <r_mmod_Stretch_Energy-OPLS-2005>
126.338417053223

> <r_mmod_Bend_Energy-OPLS-2005>
155.718933105469

> <r_mmod_Torsional_Energy-OPLS-2005>
245.411895751953

> <r_mmod_Improper_Torsional_Energy-OPLS-2005>
7.61665439605713

> <r_mmod_Van_der_Waal_Energy-OPLS-2005>
133.151641845703

> <r_mmod_Electrostatic_Energy-OPLS-2005>
-425.962188720703

> <r_mmod_Solvation_Energy-OPLS-2005>
-249.005630493164

> <b_mmod_Minimization_Converged-OPLS-2005>
0

> <r_mmod_RMS_Derivative-OPLS-2005>
1.26247441768646

$$$$
86
                    3D
 Structure written by MMmdl.
154162  0  0  1  0            999 V2000
  -30.5956  -14.7314   20.4879 C   0  0  0  0  0  0
  -30.4458  -12.4525   19.4562 C   0  0  0  0  0  0
  -29.5081  -12.5129   18.2279 C   0  0  0  0  0  0
  -28.0377  -12.3241   18.6522 C   0  0  0  0  0  0
  -27.6439  -13.2226   19.8534 C   0  0  2  0  0  0
  -28.6990  -13.1191   20.9759 C   0  0  0  0  0  0
  -25.2518  -13.8170   20.5716 C   0  0  0  0  0  0
  -24.1828  -13.0428   20.9235 C   0  0  0  0  0  0
  -24.6399  -11.6900   20.8785 C   0  0  0  0  0  0
  -23.9066  -10.4278   21.0429 C   0  0  0  0  0  0
  -24.3611   -9.4186   21.9194 C   0  0  0  0  0  0
  -23.6288   -8.2223   22.0740 C   0  0  0  0  0  0
  -22.4273   -8.0256   21.3514 C   0  0  0  0  0  0
  -21.9911   -9.0260   20.4635 C   0  0  0  0  0  0
  -22.7245  -10.2134   20.3066 C   0  0  0  0  0  0
  -21.6848   -6.0733   22.5290 C   0  0  0  0  0  0
  -21.4010   -6.5630   23.8224 C   0  0  0  0  0  0
  -21.3655   -5.6772   24.9180 C   0  0  0  0  0  0
  -21.6046   -4.3044   24.7225 C   0  0  0  0  0  0
  -21.8812   -3.8140   23.4346 C   0  0  0  0  0  0
  -21.9188   -4.6966   22.3397 C   0  0  0  0  0  0
  -22.7841  -13.5238   21.1845 C   0  0  0  0  0  0
  -22.1661   -4.2159   21.0982 F   0  0  0  0  0  0
  -21.5629   -3.4515   25.7729 F   0  0  0  0  0  0
  -29.9918  -13.4995   20.3934 N   0  0  0  0  0  0
  -26.2952  -12.9361   20.3312 N   0  0  0  0  0  0
  -25.9341  -11.6512   20.5801 N   0  0  0  0  0  0
  -22.0471  -12.8247   22.0409 N   0  0  0  0  0  0
  -25.4224  -15.1885   20.4075 N   0  0  0  0  0  0
  -31.7982  -14.8578   20.2400 O   0  0  0  0  0  0
  -21.6600   -6.8883   21.4251 O   0  0  0  0  0  0
  -22.3541  -14.5524   20.6655 O   0  0  0  0  0  0
  -24.6354  -31.8553   23.1961 C   0  0  0  0  0  0
  -25.9187  -32.4721   23.8309 C   0  0  1  0  0  0
  -27.1964  -27.2516   20.1084 C   0  0  0  0  0  0
  -25.6005  -33.8532   24.2240 N   0  0  0  0  0  0
  -23.4289  -30.4847   21.5398 C   0  0  2  0  0  0
  -24.8695  -28.9409   20.1037 C   0  0  0  0  0  0
  -22.7543  -29.4620   22.4874 C   0  0  0  0  0  0
  -18.0307  -28.1388   22.8475 C   0  0  0  0  0  0
  -24.1486  -36.7283   23.2625 C   0  0  0  0  0  0
  -25.9802  -30.7667   21.3791 C   0  0  0  0  0  0
  -26.0467  -29.3912   20.7146 C   0  0  0  0  0  0
  -27.2163  -28.5594   20.7049 C   0  0  0  0  0  0
  -25.9951  -26.8900   19.4514 C   0  0  0  0  0  0
  -24.8481  -27.7011   19.4581 C   0  0  0  0  0  0
  -23.6450  -29.8291   20.1536 C   0  0  0  0  0  0
  -25.4103  -36.3045   24.0312 C   0  0  1  0  0  0
  -20.5913  -28.3697   23.1240 C   0  0  2  0  0  0
  -20.6803  -26.9417   22.5383 C   0  0  0  0  0  0
  -19.5771  -26.6386   21.5198 C   0  0  0  0  0  0
  -18.1949  -26.7919   22.1625 C   0  0  0  0  0  0
  -19.1563  -28.8874   23.2840 C   0  0  0  0  0  0
  -18.9493  -30.1489   23.8834 C   0  0  0  0  0  0
  -17.6488  -30.6569   24.0573 C   0  0  0  0  0  0
  -25.9064  -34.9420   23.5071 C   0  0  0  0  0  0
  -16.5380  -29.9078   23.6332 C   0  0  0  0  0  0
  -16.7297  -28.6518   23.0314 C   0  0  0  0  0  0
  -26.4544  -31.6544   25.0709 C   0  0  0  0  0  0
  -25.3740  -31.3766   26.1412 C   0  0  0  0  0  0
  -27.0386  -30.2936   24.6254 C   0  0  0  0  0  0
  -27.6061  -32.4319   25.7508 C   0  0  0  0  0  0
  -27.5562  -37.1783   24.8459 C   0  0  0  0  0  0
  -21.4248  -29.3049   22.3645 N   0  0  0  0  0  0
  -26.4275  -37.3763   23.9399 N   0  0  0  0  0  0
  -24.6998  -31.0540   22.0937 N   0  0  0  0  0  0
  -23.4251  -28.8112   23.2920 O   0  0  0  0  0  0
  -28.2631  -26.3165   20.1532 O   0  0  0  0  0  0
  -26.5620  -34.8931   22.4635 O   0  0  0  0  0  0
  -23.5514  -32.1396   23.7264 O   0  0  0  0  0  0
  -30.2533  -17.4145   22.3640 C   0  0  0  0  0  0
  -30.2255  -18.7021   22.9415 C   0  0  0  0  0  0
  -29.5492  -18.4094   20.2616 C   0  0  0  0  0  0
  -29.5554  -19.7562   20.8213 C   0  0  0  0  0  0
  -29.9098  -17.2164   21.0097 C   0  0  0  0  0  0
  -29.9031  -19.8534   22.1875 C   0  0  0  0  0  0
  -28.9417  -23.6785   20.2007 C   0  0  0  0  0  0
  -27.2483  -22.0748   21.0059 C   0  0  0  0  0  0
  -29.3045  -21.0797   19.9583 C   0  0  0  0  0  0
  -27.8739  -24.8673   20.3580 C   0  0  0  0  0  0
  -29.7453  -15.8270   20.5314 N   0  0  0  0  0  0
  -28.5862  -22.3467   20.4606 N   0  0  0  0  0  0
  -30.0613  -23.9660   19.7614 O   0  0  0  0  0  0
  -29.9518  -21.0634   22.7927 F   0  0  0  0  0  0
  -31.4843  -12.5967   19.1555 H   0  0  0  0  0  0
  -30.4052  -11.4740   19.9396 H   0  0  0  0  0  0
  -29.7915  -11.7566   17.4949 H   0  0  0  0  0  0
  -29.6076  -13.4796   17.7312 H   0  0  0  0  0  0
  -27.9189  -11.2763   18.9300 H   0  0  0  0  0  0
  -27.3660  -12.4931   17.8093 H   0  0  0  0  0  0
  -27.6374  -14.2464   19.4785 H   0  0  0  0  0  0
  -28.7500  -12.0934   21.3463 H   0  0  0  0  0  0
  -28.4508  -13.7436   21.8346 H   0  0  0  0  0  0
  -25.2766   -9.5657   22.4767 H   0  0  0  0  0  0
  -23.9998   -7.4604   22.7447 H   0  0  0  0  0  0
  -21.0840   -8.8795   19.8945 H   0  0  0  0  0  0
  -22.3726  -10.9677   19.6168 H   0  0  0  0  0  0
  -21.2010   -7.6138   23.9738 H   0  0  0  0  0  0
  -21.1482   -6.0497   25.9083 H   0  0  0  0  0  0
  -22.0602   -2.7610   23.2822 H   0  0  0  0  0  0
  -22.4040  -11.9930   22.4856 H   0  0  0  0  0  0
  -21.1083  -13.1298   22.2553 H   0  0  0  0  0  0
  -24.6605  -15.8495   20.5223 H   0  0  0  0  0  0
  -26.2609  -15.6130   20.0369 H   0  0  0  0  0  0
  -26.7254  -32.5324   23.1040 H   0  0  0  0  0  0
  -25.0177  -33.9672   25.0409 H   0  0  0  0  0  0
  -22.7230  -31.3053   21.3978 H   0  0  0  0  0  0
  -23.3741  -35.9631   23.3300 H   0  0  0  0  0  0
  -24.3564  -36.8909   22.2042 H   0  0  0  0  0  0
  -23.7288  -37.6505   23.6656 H   0  0  0  0  0  0
  -26.1293  -31.5340   20.6166 H   0  0  0  0  0  0
  -26.8552  -30.8066   22.0161 H   0  0  0  0  0  0
  -28.1182  -28.9030   21.1904 H   0  0  0  0  0  0
  -25.8904  -25.9713   18.8974 H   0  0  0  0  0  0
  -23.9502  -27.3687   18.9520 H   0  0  0  0  0  0
  -23.7662  -30.6057   19.3970 H   0  0  0  0  0  0
  -22.7632  -29.2643   19.8476 H   0  0  0  0  0  0
  -25.1301  -36.1860   25.0814 H   0  0  0  0  0  0
  -21.0011  -28.3262   24.1354 H   0  0  0  0  0  0
  -20.5687  -26.2331   23.3593 H   0  0  0  0  0  0
  -21.6663  -26.7413   22.1176 H   0  0  0  0  0  0
  -19.6919  -25.6304   21.1216 H   0  0  0  0  0  0
  -19.6663  -27.3204   20.6724 H   0  0  0  0  0  0
  -17.4213  -26.6667   21.4028 H   0  0  0  0  0  0
  -18.0346  -26.0061   22.9029 H   0  0  0  0  0  0
  -19.7981  -30.7342   24.2104 H   0  0  0  0  0  0
  -17.5044  -31.6197   24.5248 H   0  0  0  0  0  0
  -15.5387  -30.2962   23.7661 H   0  0  0  0  0  0
  -15.8715  -28.0834   22.6987 H   0  0  0  0  0  0
  -24.5876  -30.7174   25.7733 H   0  0  0  0  0  0
  -24.9003  -32.3003   26.4763 H   0  0  0  0  0  0
  -25.8026  -30.8961   27.0218 H   0  0  0  0  0  0
  -26.3016  -29.6669   24.1228 H   0  0  0  0  0  0
  -27.3995  -29.7209   25.4808 H   0  0  0  0  0  0
  -27.8934  -30.4176   23.9593 H   0  0  0  0  0  0
  -27.2607  -33.3606   26.2083 H   0  0  0  0  0  0
  -28.3885  -32.6910   25.0354 H   0  0  0  0  0  0
  -28.0734  -31.8460   26.5439 H   0  0  0  0  0  0
  -28.2571  -38.0073   24.7481 H   0  0  0  0  0  0
  -28.1072  -36.2615   24.6317 H   0  0  0  0  0  0
  -27.2287  -37.1474   25.8862 H   0  0  0  0  0  0
  -20.9442  -29.8843   21.6917 H   0  0  0  0  0  0
  -26.0136  -38.2840   24.1392 H   0  0  0  0  0  0
  -30.4904  -16.5718   22.9975 H   0  0  0  0  0  0
  -30.4564  -18.8106   23.9928 H   0  0  0  0  0  0
  -29.2752  -18.2893   19.2218 H   0  0  0  0  0  0
  -27.0903  -22.5672   21.9659 H   0  0  0  0  0  0
  -27.0732  -21.0157   21.1803 H   0  0  0  0  0  0
  -26.4633  -22.4142   20.3247 H   0  0  0  0  0  0
  -28.7401  -20.7597   19.0799 H   0  0  0  0  0  0
  -30.2802  -21.3613   19.5603 H   0  0  0  0  0  0
  -27.4089  -24.7902   21.3421 H   0  0  0  0  0  0
  -27.1255  -24.5647   19.6305 H   0  0  0  0  0  0
  -28.7823  -15.5702   20.3865 H   0  0  0  0  0  0
  1 25  1  0  0  0
  1 30  2  0  0  0
  1 81  1  0  0  0
  2  3  1  0  0  0
  2 25  1  0  0  0
  2 85  1  0  0  0
  2 86  1  0  0  0
  3  4  1  0  0  0
  3 87  1  0  0  0
  3 88  1  0  0  0
  4  5  1  0  0  0
  4 89  1  0  0  0
  4 90  1  0  0  0
  5  6  1  0  0  0
  5 26  1  0  0  0
  5 91  1  0  0  0
  6 25  1  0  0  0
  6 92  1  0  0  0
  6 93  1  0  0  0
  7  8  2  0  0  0
  7 26  1  0  0  0
  7 29  1  0  0  0
  8  9  1  0  0  0
  8 22  1  0  0  0
  9 10  1  0  0  0
  9 27  2  0  0  0
 10 11  2  0  0  0
 10 15  1  0  0  0
 11 12  1  0  0  0
 11 94  1  0  0  0
 12 13  2  0  0  0
 12 95  1  0  0  0
 13 14  1  0  0  0
 13 31  1  0  0  0
 14 15  2  0  0  0
 14 96  1  0  0  0
 15 97  1  0  0  0
 16 17  2  0  0  0
 16 21  1  0  0  0
 16 31  1  0  0  0
 17 18  1  0  0  0
 17 98  1  0  0  0
 18 19  2  0  0  0
 18 99  1  0  0  0
 19 20  1  0  0  0
 19 24  1  0  0  0
 20 21  2  0  0  0
 20100  1  0  0  0
 21 23  1  0  0  0
 22 28  1  0  0  0
 22 32  2  0  0  0
 26 27  1  0  0  0
 28101  1  0  0  0
 28102  1  0  0  0
 29103  1  0  0  0
 29104  1  0  0  0
 33 34  1  0  0  0
 33 66  1  0  0  0
 33 70  2  0  0  0
 34 36  1  0  0  0
 34 59  1  0  0  0
 34105  1  0  0  0
 35 44  2  0  0  0
 35 45  1  0  0  0
 35 68  1  0  0  0
 36 56  1  0  0  0
 36106  1  0  0  0
 37 39  1  0  0  0
 37 47  1  0  0  0
 37 66  1  0  0  0
 37107  1  0  0  0
 38 43  2  0  0  0
 38 46  1  0  0  0
 38 47  1  0  0  0
 39 64  1  0  0  0
 39 67  2  0  0  0
 40 52  1  0  0  0
 40 53  2  0  0  0
 40 58  1  0  0  0
 41108  1  0  0  0
 41109  1  0  0  0
 41110  1  0  0  0
 41 48  1  0  0  0
 42 43  1  0  0  0
 42 66  1  0  0  0
 42111  1  0  0  0
 42112  1  0  0  0
 43 44  1  0  0  0
 44113  1  0  0  0
 45 46  2  0  0  0
 45114  1  0  0  0
 46115  1  0  0  0
 47116  1  0  0  0
 47117  1  0  0  0
 48 56  1  0  0  0
 48 65  1  0  0  0
 48118  1  0  0  0
 49 50  1  0  0  0
 49 53  1  0  0  0
 49 64  1  0  0  0
 49119  1  0  0  0
 50 51  1  0  0  0
 50120  1  0  0  0
 50121  1  0  0  0
 51 52  1  0  0  0
 51122  1  0  0  0
 51123  1  0  0  0
 52124  1  0  0  0
 52125  1  0  0  0
 53 54  1  0  0  0
 54 55  2  0  0  0
 54126  1  0  0  0
 55 57  1  0  0  0
 55127  1  0  0  0
 56 69  2  0  0  0
 57 58  2  0  0  0
 57128  1  0  0  0
 58129  1  0  0  0
 59 60  1  0  0  0
 59 61  1  0  0  0
 59 62  1  0  0  0
 60130  1  0  0  0
 60131  1  0  0  0
 60132  1  0  0  0
 61133  1  0  0  0
 61134  1  0  0  0
 61135  1  0  0  0
 62136  1  0  0  0
 62137  1  0  0  0
 62138  1  0  0  0
 63 65  1  0  0  0
 63139  1  0  0  0
 63140  1  0  0  0
 63141  1  0  0  0
 64142  1  0  0  0
 65143  1  0  0  0
 68 80  1  0  0  0
 71 72  2  0  0  0
 71 75  1  0  0  0
 71144  1  0  0  0
 72 76  1  0  0  0
 72145  1  0  0  0
 73 74  1  0  0  0
 73 75  2  0  0  0
 73146  1  0  0  0
 74 76  2  0  0  0
 74 79  1  0  0  0
 75 81  1  0  0  0
 76 84  1  0  0  0
 77 80  1  0  0  0
 77 82  1  0  0  0
 77 83  2  0  0  0
 78 82  1  0  0  0
 78147  1  0  0  0
 78148  1  0  0  0
 78149  1  0  0  0
 79 82  1  0  0  0
 79150  1  0  0  0
 79151  1  0  0  0
 80152  1  0  0  0
 80153  1  0  0  0
 81154  1  0  0  0
M  ISO  4   1 100  68 101  80 101  81 100
M  END
> <chiral flag>
0

> <version>
0

> <s_m_source_file>
/data/baiqing/PycharmProjects/Reinvent-master-3.2/result/LINK_invent/BTK/process_docking_weight1_custom_product_contain_oxygen_bond_distance_aromatic_linkinvent_7_9_3/rearranged_h_0052.sdf

> <i_m_source_file_index>
87

> <r_mmod_Potential_Energy-OPLS-2005>
216.35383605957

> <r_mmod_Stretch_Energy-OPLS-2005>
128.038803100586

> <r_mmod_Bend_Energy-OPLS-2005>
163.802398681641

> <r_mmod_Torsional_Energy-OPLS-2005>
266.054229736328

> <r_mmod_Improper_Torsional_Energy-OPLS-2005>
11.4431409835815

> <r_mmod_Van_der_Waal_Energy-OPLS-2005>
142.536178588867

> <r_mmod_Electrostatic_Energy-OPLS-2005>
-346.009552001953

> <r_mmod_Solvation_Energy-OPLS-2005>
-239.998519897461

> <b_mmod_Minimization_Converged-OPLS-2005>
0

> <r_mmod_RMS_Derivative-OPLS-2005>
4.95721960067749

$$$$
87
                    3D
 Structure written by MMmdl.
154162  0  0  1  0            999 V2000
  -31.6586  -14.7666   20.2670 C   0  0  0  0  0  0
  -30.6572  -12.5262   19.6650 C   0  0  0  0  0  0
  -29.3112  -12.1345   18.4878 C   0  0  0  0  0  0
  -27.6186  -12.7971   18.3771 C   0  0  0  0  0  0
  -26.9562  -14.1993   19.5065 C   0  0  2  0  0  0
  -29.6000  -14.8556   21.3685 C   0  0  0  0  0  0
  -24.7899  -14.0212   20.5164 C   0  0  0  0  0  0
  -23.9297  -13.0905   20.9466 C   0  0  0  0  0  0
  -24.5373  -11.8019   20.8232 C   0  0  0  0  0  0
  -23.9092  -10.4706   21.0019 C   0  0  0  0  0  0
  -24.3786   -9.4719   21.8902 C   0  0  0  0  0  0
  -23.6561   -8.2634   22.0643 C   0  0  0  0  0  0
  -22.4509   -8.0413   21.3523 C   0  0  0  0  0  0
  -22.0043   -9.0239   20.4538 C   0  0  0  0  0  0
  -22.7250  -10.2164   20.2788 C   0  0  0  0  0  0
  -21.7026   -6.0811   22.5300 C   0  0  0  0  0  0
  -21.4141   -6.5699   23.8227 C   0  0  0  0  0  0
  -21.3694   -5.6826   24.9172 C   0  0  0  0  0  0
  -21.6039   -4.3083   24.7211 C   0  0  0  0  0  0
  -21.8809   -3.8182   23.4330 C   0  0  0  0  0  0
  -21.9252   -4.7018   22.3403 C   0  0  0  0  0  0
  -22.5429  -13.4604   21.2715 C   0  0  0  0  0  0
  -22.1691   -4.2196   21.0975 F   0  0  0  0  0  0
  -21.5587   -3.4554   25.7713 F   0  0  0  0  0  0
  -30.8050  -13.8521   20.7522 N   0  0  0  0  0  0
  -25.8225  -13.3546   20.0345 N   0  0  0  0  0  0
  -25.7684  -11.9832   20.3415 N   0  0  0  0  0  0
  -21.9045  -12.7169   22.1535 N   0  0  0  0  0  0
  -24.7725  -15.4057   20.4258 N   0  0  0  0  0  0
  -32.7960  -14.4499   20.1183 O   0  0  0  0  0  0
  -21.6905   -6.8963   21.4267 O   0  0  0  0  0  0
  -22.0511  -14.4732   20.7733 O   0  0  0  0  0  0
  -24.6859  -31.7984   23.1529 C   0  0  0  0  0  0
  -25.9454  -32.4434   23.8050 C   0  0  1  0  0  0
  -27.0531  -26.6042   20.2348 C   0  0  0  0  0  0
  -25.6029  -33.8269   24.1925 N   0  0  0  0  0  0
  -23.5035  -30.4136   21.5099 C   0  0  2  0  0  0
  -24.9287  -28.7549   20.1009 C   0  0  0  0  0  0
  -22.7743  -29.4335   22.4690 C   0  0  0  0  0  0
  -18.0339  -28.1421   22.8459 C   0  0  0  0  0  0
  -24.1506  -36.7137   23.2649 C   0  0  0  0  0  0
  -26.0858  -30.4955   21.4310 C   0  0  0  0  0  0
  -26.1171  -29.0579   20.7743 C   0  0  0  0  0  0
  -27.1756  -28.0036   20.8156 C   0  0  0  0  0  0
  -25.8777  -26.5486   19.4611 C   0  0  0  0  0  0
  -24.8561  -27.5347   19.4142 C   0  0  0  0  0  0
  -23.7479  -29.7334   20.1341 C   0  0  0  0  0  0
  -25.4157  -36.2871   24.0270 C   0  0  1  0  0  0
  -20.5973  -28.3786   23.1136 C   0  0  2  0  0  0
  -20.6807  -26.9447   22.5400 C   0  0  0  0  0  0
  -19.5782  -26.6371   21.5216 C   0  0  0  0  0  0
  -18.1965  -26.7950   22.1620 C   0  0  0  0  0  0
  -19.1606  -28.8925   23.2782 C   0  0  0  0  0  0
  -18.9513  -30.1510   23.8825 C   0  0  0  0  0  0
  -17.6503  -30.6605   24.0554 C   0  0  0  0  0  0
  -25.9145  -34.9266   23.4933 C   0  0  0  0  0  0
  -16.5392  -29.9088   23.6354 C   0  0  0  0  0  0
  -16.7318  -28.6509   23.0370 C   0  0  0  0  0  0
  -26.4608  -31.6494   25.0699 C   0  0  0  0  0  0
  -25.3654  -31.3843   26.1301 C   0  0  0  0  0  0
  -27.0547  -30.2815   24.6671 C   0  0  0  0  0  0
  -27.6043  -32.4375   25.7514 C   0  0  0  0  0  0
  -27.5568  -37.1725   24.8457 C   0  0  0  0  0  0
  -21.4394  -29.3034   22.3445 N   0  0  0  0  0  0
  -26.4271  -37.3643   23.9405 N   0  0  0  0  0  0
  -24.7842  -30.9384   22.0814 N   0  0  0  0  0  0
  -23.4198  -28.7920   23.3019 O   0  0  0  0  0  0
  -27.8415  -25.2694   20.3720 O   0  0  0  0  0  0
  -26.5785  -34.8848   22.4552 O   0  0  0  0  0  0
  -23.5886  -32.1114   23.6466 O   0  0  0  0  0  0
  -27.3080  -15.7210   21.5605 C   0  0  0  0  0  0
  -27.4778  -14.0839   21.8138 C   0  0  0  0  0  0
  -29.0967  -14.4924   19.2437 C   0  0  0  0  0  0
  -27.9151  -16.7936   20.4994 C   0  0  0  0  0  0
  -28.7962  -16.0504   19.4165 C   0  0  0  0  0  0
  -28.4168  -13.1532   20.7252 C   0  0  0  0  0  0
  -27.9233  -21.8487   20.6295 C   0  0  0  0  0  0
  -27.9568  -18.6652   20.8446 C   0  0  0  0  0  0
  -30.1432  -16.6820   19.0854 C   0  0  0  0  0  0
  -27.4096  -23.5700   20.0329 C   0  0  0  0  0  0
  -27.6817  -20.3413   20.2412 N   0  0  0  0  0  0
  -31.3303  -16.0088   19.7460 N   0  0  0  0  0  0
  -28.6336  -21.9395   21.6333 O   0  0  0  0  0  0
  -28.5667  -11.8103   20.9215 F   0  0  0  0  0  0
  -31.5634  -12.5006   19.0574 H   0  0  0  0  0  0
  -30.7986  -11.6452   20.2920 H   0  0  0  0  0  0
  -29.1940  -11.0514   18.5361 H   0  0  0  0  0  0
  -29.7389  -12.2701   17.4933 H   0  0  0  0  0  0
  -26.9325  -11.9621   18.2468 H   0  0  0  0  0  0
  -27.5677  -13.2314   17.3777 H   0  0  0  0  0  0
  -26.5869  -14.9889   18.8426 H   0  0  0  0  0  0
  -29.6421  -14.5067   22.4131 H   0  0  0  0  0  0
  -29.8771  -15.8872   21.6209 H   0  0  0  0  0  0
  -25.2862   -9.6442   22.4513 H   0  0  0  0  0  0
  -24.0360   -7.5151   22.7455 H   0  0  0  0  0  0
  -21.0962   -8.8622   19.8894 H   0  0  0  0  0  0
  -22.3483  -10.9588   19.5890 H   0  0  0  0  0  0
  -21.2190   -7.6216   23.9749 H   0  0  0  0  0  0
  -21.1503   -6.0548   25.9075 H   0  0  0  0  0  0
  -22.0533   -2.7636   23.2810 H   0  0  0  0  0  0
  -22.3426  -11.9056   22.5639 H   0  0  0  0  0  0
  -20.9609  -12.9544   22.4240 H   0  0  0  0  0  0
  -23.9790  -15.9589   20.7272 H   0  0  0  0  0  0
  -25.5781  -15.9582   20.1594 H   0  0  0  0  0  0
  -26.7521  -32.4845   23.0735 H   0  0  0  0  0  0
  -25.0078  -33.9310   25.0009 H   0  0  0  0  0  0
  -22.8310  -31.2561   21.3350 H   0  0  0  0  0  0
  -23.3791  -35.9443   23.3239 H   0  0  0  0  0  0
  -24.3577  -36.8878   22.2079 H   0  0  0  0  0  0
  -23.7247  -37.6284   23.6781 H   0  0  0  0  0  0
  -26.3123  -31.2186   20.6464 H   0  0  0  0  0  0
  -26.9315  -30.5434   22.1037 H   0  0  0  0  0  0
  -28.0557  -28.2173   21.4055 H   0  0  0  0  0  0
  -25.6744  -25.6273   18.9350 H   0  0  0  0  0  0
  -23.9614  -27.3075   18.8513 H   0  0  0  0  0  0
  -23.9409  -30.5036   19.3864 H   0  0  0  0  0  0
  -22.8417  -29.2252   19.7993 H   0  0  0  0  0  0
  -25.1372  -36.1620   25.0759 H   0  0  0  0  0  0
  -21.0063  -28.3415   24.1261 H   0  0  0  0  0  0
  -20.5682  -26.2413   23.3666 H   0  0  0  0  0  0
  -21.6670  -26.7401   22.1215 H   0  0  0  0  0  0
  -19.6946  -25.6260   21.1301 H   0  0  0  0  0  0
  -19.6721  -27.3136   20.6711 H   0  0  0  0  0  0
  -17.4238  -26.6696   21.4021 H   0  0  0  0  0  0
  -18.0353  -26.0105   22.9027 H   0  0  0  0  0  0
  -19.7987  -30.7349   24.2156 H   0  0  0  0  0  0
  -17.5053  -31.6278   24.5174 H   0  0  0  0  0  0
  -15.5390  -30.2968   23.7716 H   0  0  0  0  0  0
  -15.8719  -28.0802   22.7126 H   0  0  0  0  0  0
  -24.5867  -30.7159   25.7605 H   0  0  0  0  0  0
  -24.8815  -32.3078   26.4489 H   0  0  0  0  0  0
  -25.7812  -30.9163   27.0233 H   0  0  0  0  0  0
  -26.3268  -29.6395   24.1700 H   0  0  0  0  0  0
  -27.3956  -29.7311   25.5451 H   0  0  0  0  0  0
  -27.9264  -30.3906   24.0216 H   0  0  0  0  0  0
  -27.2573  -33.3762   26.1846 H   0  0  0  0  0  0
  -28.3970  -32.6802   25.0423 H   0  0  0  0  0  0
  -28.0581  -31.8675   26.5632 H   0  0  0  0  0  0
  -28.2524  -38.0077   24.7532 H   0  0  0  0  0  0
  -28.1126  -36.2599   24.6251 H   0  0  0  0  0  0
  -27.2281  -37.1311   25.8856 H   0  0  0  0  0  0
  -20.9682  -29.8698   21.6526 H   0  0  0  0  0  0
  -26.0086  -38.2681   24.1433 H   0  0  0  0  0  0
  -26.7356  -16.1922   22.3466 H   0  0  0  0  0  0
  -27.0021  -13.6098   22.6600 H   0  0  0  0  0  0
  -29.7551  -14.3352   18.3971 H   0  0  0  0  0  0
  -28.9731  -18.7660   21.2259 H   0  0  0  0  0  0
  -27.3564  -18.6964   21.7541 H   0  0  0  0  0  0
  -30.2863  -16.6660   18.0041 H   0  0  0  0  0  0
  -30.1445  -17.7328   19.3724 H   0  0  0  0  0  0
  -26.3275  -23.5547   20.1655 H   0  0  0  0  0  0
  -27.5382  -23.4967   18.9533 H   0  0  0  0  0  0
  -27.1315  -20.3066   19.3920 H   0  0  0  0  0  0
  -32.1806  -16.5117   19.5387 H   0  0  0  0  0  0
  1 25  1  0  0  0
  1 30  2  0  0  0
  1 82  1  0  0  0
  2  3  1  0  0  0
  2 25  1  0  0  0
  2 85  1  0  0  0
  2 86  1  0  0  0
  3  4  1  0  0  0
  3 87  1  0  0  0
  3 88  1  0  0  0
  4  5  1  0  0  0
  4 89  1  0  0  0
  4 90  1  0  0  0
  5  6  1  0  0  0
  5 26  1  0  0  0
  5 91  1  0  0  0
  6 25  1  0  0  0
  6 92  1  0  0  0
  6 93  1  0  0  0
  7  8  2  0  0  0
  7 26  1  0  0  0
  7 29  1  0  0  0
  8  9  1  0  0  0
  8 22  1  0  0  0
  9 10  1  0  0  0
  9 27  2  0  0  0
 10 11  2  0  0  0
 10 15  1  0  0  0
 11 12  1  0  0  0
 11 94  1  0  0  0
 12 13  2  0  0  0
 12 95  1  0  0  0
 13 14  1  0  0  0
 13 31  1  0  0  0
 14 15  2  0  0  0
 14 96  1  0  0  0
 15 97  1  0  0  0
 16 17  2  0  0  0
 16 21  1  0  0  0
 16 31  1  0  0  0
 17 18  1  0  0  0
 17 98  1  0  0  0
 18 19  2  0  0  0
 18 99  1  0  0  0
 19 20  1  0  0  0
 19 24  1  0  0  0
 20 21  2  0  0  0
 20100  1  0  0  0
 21 23  1  0  0  0
 22 28  1  0  0  0
 22 32  2  0  0  0
 26 27  1  0  0  0
 28101  1  0  0  0
 28102  1  0  0  0
 29103  1  0  0  0
 29104  1  0  0  0
 33 34  1  0  0  0
 33 66  1  0  0  0
 33 70  2  0  0  0
 34 36  1  0  0  0
 34 59  1  0  0  0
 34105  1  0  0  0
 35 44  2  0  0  0
 35 45  1  0  0  0
 35 68  1  0  0  0
 36 56  1  0  0  0
 36106  1  0  0  0
 37 39  1  0  0  0
 37 47  1  0  0  0
 37 66  1  0  0  0
 37107  1  0  0  0
 38 43  2  0  0  0
 38 46  1  0  0  0
 38 47  1  0  0  0
 39 64  1  0  0  0
 39 67  2  0  0  0
 40 52  1  0  0  0
 40 53  2  0  0  0
 40 58  1  0  0  0
 41108  1  0  0  0
 41109  1  0  0  0
 41110  1  0  0  0
 41 48  1  0  0  0
 42 43  1  0  0  0
 42 66  1  0  0  0
 42111  1  0  0  0
 42112  1  0  0  0
 43 44  1  0  0  0
 44113  1  0  0  0
 45 46  2  0  0  0
 45114  1  0  0  0
 46115  1  0  0  0
 47116  1  0  0  0
 47117  1  0  0  0
 48 56  1  0  0  0
 48 65  1  0  0  0
 48118  1  0  0  0
 49 50  1  0  0  0
 49 53  1  0  0  0
 49 64  1  0  0  0
 49119  1  0  0  0
 50 51  1  0  0  0
 50120  1  0  0  0
 50121  1  0  0  0
 51 52  1  0  0  0
 51122  1  0  0  0
 51123  1  0  0  0
 52124  1  0  0  0
 52125  1  0  0  0
 53 54  1  0  0  0
 54 55  2  0  0  0
 54126  1  0  0  0
 55 57  1  0  0  0
 55127  1  0  0  0
 56 69  2  0  0  0
 57 58  2  0  0  0
 57128  1  0  0  0
 58129  1  0  0  0
 59 60  1  0  0  0
 59 61  1  0  0  0
 59 62  1  0  0  0
 60130  1  0  0  0
 60131  1  0  0  0
 60132  1  0  0  0
 61133  1  0  0  0
 61134  1  0  0  0
 61135  1  0  0  0
 62136  1  0  0  0
 62137  1  0  0  0
 62138  1  0  0  0
 63 65  1  0  0  0
 63139  1  0  0  0
 63140  1  0  0  0
 63141  1  0  0  0
 64142  1  0  0  0
 65143  1  0  0  0
 68 80  1  0  0  0
 71 72  2  0  0  0
 71 74  1  0  0  0
 71144  1  0  0  0
 72 76  1  0  0  0
 72145  1  0  0  0
 73 75  1  0  0  0
 73 76  2  0  0  0
 73146  1  0  0  0
 74 75  2  0  0  0
 74 78  1  0  0  0
 75 79  1  0  0  0
 76 84  1  0  0  0
 77 80  1  0  0  0
 77 81  1  0  0  0
 77 83  2  0  0  0
 78 81  1  0  0  0
 78147  1  0  0  0
 78148  1  0  0  0
 79 82  1  0  0  0
 79149  1  0  0  0
 79150  1  0  0  0
 80151  1  0  0  0
 80152  1  0  0  0
 81153  1  0  0  0
 82154  1  0  0  0
M  ISO  4   1 100  68 101  80 101  82 100
M  END
> <chiral flag>
0

> <version>
0

> <s_m_source_file>
/data/baiqing/PycharmProjects/Reinvent-master-3.2/result/LINK_invent/BTK/process_docking_weight1_custom_product_contain_oxygen_bond_distance_aromatic_linkinvent_7_9_3/rearranged_h_0052.sdf

> <i_m_source_file_index>
88

> <r_mmod_Potential_Energy-OPLS-2005>
11874.068359375

> <r_mmod_Stretch_Energy-OPLS-2005>
6691.9599609375

> <r_mmod_Bend_Energy-OPLS-2005>
942.109436035156

> <r_mmod_Torsional_Energy-OPLS-2005>
397.165344238281

> <r_mmod_Improper_Torsional_Energy-OPLS-2005>
25.7563610076904

> <r_mmod_Van_der_Waal_Energy-OPLS-2005>
2825.84765625

> <r_mmod_Electrostatic_Energy-OPLS-2005>
-445.141998291016

> <r_mmod_Solvation_Energy-OPLS-2005>
-267.770080566406

> <b_mmod_Minimization_Converged-OPLS-2005>
0

> <r_mmod_RMS_Derivative-OPLS-2005>
1.78271949291229

$$$$
88
                    3D
 Structure written by MMmdl.
167176  0  0  1  0            999 V2000
  -30.7034  -14.5091   20.6150 C   0  0  0  0  0  0
  -30.4358  -12.3416   19.4366 C   0  0  0  0  0  0
  -29.5083  -12.5190   18.2159 C   0  0  0  0  0  0
  -28.0310  -12.3474   18.6207 C   0  0  0  0  0  0
  -27.6622  -13.1942   19.8640 C   0  0  2  0  0  0
  -28.7008  -13.0049   20.9965 C   0  0  0  0  0  0
  -25.2517  -13.8079   20.5536 C   0  0  0  0  0  0
  -24.1816  -13.0376   20.9179 C   0  0  0  0  0  0
  -24.6392  -11.6859   20.8750 C   0  0  0  0  0  0
  -23.9057  -10.4262   21.0420 C   0  0  0  0  0  0
  -24.3608   -9.4177   21.9197 C   0  0  0  0  0  0
  -23.6268   -8.2225   22.0767 C   0  0  0  0  0  0
  -22.4254   -8.0276   21.3554 C   0  0  0  0  0  0
  -21.9885   -9.0253   20.4659 C   0  0  0  0  0  0
  -22.7233  -10.2118   20.3061 C   0  0  0  0  0  0
  -21.6848   -6.0719   22.5268 C   0  0  0  0  0  0
  -21.4013   -6.5622   23.8204 C   0  0  0  0  0  0
  -21.3661   -5.6780   24.9166 C   0  0  0  0  0  0
  -21.6039   -4.3042   24.7217 C   0  0  0  0  0  0
  -21.8823   -3.8136   23.4340 C   0  0  0  0  0  0
  -21.9193   -4.6949   22.3393 C   0  0  0  0  0  0
  -22.7843  -13.5193   21.1843 C   0  0  0  0  0  0
  -22.1661   -4.2134   21.0970 F   0  0  0  0  0  0
  -21.5632   -3.4527   25.7730 F   0  0  0  0  0  0
  -30.0422  -13.3210   20.4680 N   0  0  0  0  0  0
  -26.2999  -12.9264   20.3250 N   0  0  0  0  0  0
  -25.9312  -11.6442   20.5745 N   0  0  0  0  0  0
  -22.0463  -12.8235   22.0417 N   0  0  0  0  0  0
  -25.4011  -15.1772   20.3691 N   0  0  0  0  0  0
  -31.7704  -14.7462   20.0415 O   0  0  0  0  0  0
  -21.6626   -6.8866   21.4235 O   0  0  0  0  0  0
  -22.3533  -14.5502   20.6681 O   0  0  0  0  0  0
  -24.6168  -31.8673   23.2097 C   0  0  0  0  0  0
  -25.9054  -32.4822   23.8401 C   0  0  1  0  0  0
  -27.2385  -27.4126   20.1151 C   0  0  0  0  0  0
  -25.5907  -33.8615   24.2332 N   0  0  0  0  0  0
  -23.4078  -30.4896   21.5489 C   0  0  2  0  0  0
  -24.8602  -28.9507   20.1198 C   0  0  0  0  0  0
  -22.7428  -29.4653   22.4968 C   0  0  0  0  0  0
  -18.0282  -28.1384   22.8487 C   0  0  0  0  0  0
  -24.1487  -36.7311   23.2638 C   0  0  0  0  0  0
  -25.9386  -30.8232   21.3710 C   0  0  0  0  0  0
  -26.0189  -29.4516   20.7296 C   0  0  0  0  0  0
  -27.2121  -28.6859   20.7379 C   0  0  0  0  0  0
  -26.0703  -26.9385   19.4883 C   0  0  0  0  0  0
  -24.8799  -27.6901   19.4994 C   0  0  0  0  0  0
  -23.6222  -29.8206   20.1646 C   0  0  0  0  0  0
  -25.4101  -36.3109   24.0343 C   0  0  1  0  0  0
  -20.5875  -28.3678   23.1306 C   0  0  2  0  0  0
  -20.6774  -26.9405   22.5421 C   0  0  0  0  0  0
  -19.5749  -26.6386   21.5216 C   0  0  0  0  0  0
  -18.1924  -26.7931   22.1622 C   0  0  0  0  0  0
  -19.1531  -28.8846   23.2896 C   0  0  0  0  0  0
  -18.9460  -30.1451   23.8910 C   0  0  0  0  0  0
  -17.6459  -30.6584   24.0569 C   0  0  0  0  0  0
  -25.9031  -34.9472   23.5131 C   0  0  0  0  0  0
  -16.5352  -29.9088   23.6327 C   0  0  0  0  0  0
  -16.7269  -28.6507   23.0344 C   0  0  0  0  0  0
  -26.4480  -31.6595   25.0728 C   0  0  0  0  0  0
  -25.3756  -31.3722   26.1490 C   0  0  0  0  0  0
  -27.0294  -30.3026   24.6113 C   0  0  0  0  0  0
  -27.6067  -32.4308   25.7480 C   0  0  0  0  0  0
  -27.5576  -37.1806   24.8458 C   0  0  0  0  0  0
  -21.4150  -29.3039   22.3700 N   0  0  0  0  0  0
  -26.4289  -37.3792   23.9409 N   0  0  0  0  0  0
  -24.6721  -31.0752   22.1011 N   0  0  0  0  0  0
  -23.4179  -28.8194   23.3024 O   0  0  0  0  0  0
  -28.3564  -26.6054   20.0413 O   0  0  0  0  0  0
  -26.5585  -34.8927   22.4689 O   0  0  0  0  0  0
  -23.5357  -32.1432   23.7479 O   0  0  0  0  0  0
  -27.8636  -18.1551   20.3505 C   0  0  0  0  0  0
  -28.6372  -19.3110   20.5202 C   0  0  0  0  0  0
  -28.4055  -16.8988   20.6571 C   0  0  0  0  0  0
  -29.9593  -19.2315   21.0116 C   0  0  0  0  0  0
  -30.5246  -17.9333   21.2760 C   0  0  0  0  0  0
  -29.7360  -16.7517   21.0864 C   0  0  0  0  0  0
  -29.2031  -22.3146   22.1149 C   0  0  0  0  0  0
  -28.5932  -23.7321   22.0044 C   0  0  0  0  0  0
  -29.8548  -24.1300   19.9160 C   0  0  0  0  0  0
  -30.5177  -22.7285   20.0421 C   0  0  0  0  0  0
  -29.5142  -24.7385   21.2863 C   0  0  1  0  0  0
  -32.0185  -17.7327   23.3264 C   0  0  0  0  0  0
  -31.9532  -17.8038   21.7967 C   0  0  0  0  0  0
  -30.7444  -20.5459   21.2541 C   0  0  0  0  0  0
  -28.9851  -26.2178   21.2686 C   0  0  0  0  0  0
  -30.0353  -21.8588   21.1406 N   0  0  0  0  0  0
  -30.1263  -15.4121   21.4397 N   0  0  0  0  0  0
  -28.9039  -21.6309   23.0980 O   0  0  0  0  0  0
  -31.4796  -12.4517   19.1368 H   0  0  0  0  0  0
  -30.3508  -11.3293   19.8340 H   0  0  0  0  0  0
  -29.7687  -11.7995   17.4382 H   0  0  0  0  0  0
  -29.6585  -13.5087   17.7810 H   0  0  0  0  0  0
  -27.8622  -11.2901   18.8275 H   0  0  0  0  0  0
  -27.3813  -12.6028   17.7829 H   0  0  0  0  0  0
  -27.6980  -14.2267   19.5279 H   0  0  0  0  0  0
  -28.6876  -11.9718   21.3478 H   0  0  0  0  0  0
  -28.4287  -13.6046   21.8654 H   0  0  0  0  0  0
  -25.2755   -9.5638   22.4770 H   0  0  0  0  0  0
  -23.9972   -7.4609   22.7483 H   0  0  0  0  0  0
  -21.0814   -8.8778   19.8965 H   0  0  0  0  0  0
  -22.3709  -10.9658   19.6164 H   0  0  0  0  0  0
  -21.2005   -7.6129   23.9696 H   0  0  0  0  0  0
  -21.1481   -6.0513   25.9069 H   0  0  0  0  0  0
  -22.0605   -2.7595   23.2846 H   0  0  0  0  0  0
  -22.4033  -11.9895   22.4836 H   0  0  0  0  0  0
  -21.1092  -13.1316   22.2597 H   0  0  0  0  0  0
  -24.6062  -15.8036   20.4341 H   0  0  0  0  0  0
  -26.1883  -15.5939   19.8928 H   0  0  0  0  0  0
  -26.7126  -32.5540   23.1166 H   0  0  0  0  0  0
  -25.0087  -33.9771   25.0502 H   0  0  0  0  0  0
  -22.6975  -31.3065   21.4073 H   0  0  0  0  0  0
  -23.3745  -35.9649   23.3307 H   0  0  0  0  0  0
  -24.3590  -36.8912   22.2050 H   0  0  0  0  0  0
  -23.7245  -37.6522   23.6646 H   0  0  0  0  0  0
  -26.0525  -31.5832   20.5969 H   0  0  0  0  0  0
  -26.8263  -30.8843   21.9883 H   0  0  0  0  0  0
  -28.1056  -29.0707   21.2091 H   0  0  0  0  0  0
  -26.0827  -25.9745   18.9998 H   0  0  0  0  0  0
  -23.9920  -27.2971   19.0236 H   0  0  0  0  0  0
  -23.7343  -30.5947   19.4044 H   0  0  0  0  0  0
  -22.7460  -29.2425   19.8658 H   0  0  0  0  0  0
  -25.1277  -36.1977   25.0838 H   0  0  0  0  0  0
  -20.9973  -28.3264   24.1424 H   0  0  0  0  0  0
  -20.5681  -26.2284   23.3616 H   0  0  0  0  0  0
  -21.6648  -26.7448   22.1217 H   0  0  0  0  0  0
  -19.6909  -25.6301   21.1235 H   0  0  0  0  0  0
  -19.6684  -27.3203   20.6751 H   0  0  0  0  0  0
  -17.4199  -26.6690   21.4019 H   0  0  0  0  0  0
  -18.0307  -26.0069   22.9010 H   0  0  0  0  0  0
  -19.7937  -30.7265   24.2281 H   0  0  0  0  0  0
  -17.5017  -31.6264   24.5172 H   0  0  0  0  0  0
  -15.5353  -30.2994   23.7642 H   0  0  0  0  0  0
  -15.8670  -28.0831   22.7048 H   0  0  0  0  0  0
  -24.5904  -30.7087   25.7845 H   0  0  0  0  0  0
  -24.8984  -32.2891   26.4959 H   0  0  0  0  0  0
  -25.8126  -30.8879   27.0233 H   0  0  0  0  0  0
  -26.2826  -29.6792   24.1182 H   0  0  0  0  0  0
  -27.4057  -29.7261   25.4574 H   0  0  0  0  0  0
  -27.8672  -30.4314   23.9257 H   0  0  0  0  0  0
  -27.2700  -33.3604   26.2078 H   0  0  0  0  0  0
  -28.3867  -32.6870   25.0299 H   0  0  0  0  0  0
  -28.0743  -31.8417   26.5379 H   0  0  0  0  0  0
  -28.2608  -38.0092   24.7507 H   0  0  0  0  0  0
  -28.1061  -36.2628   24.6279 H   0  0  0  0  0  0
  -27.2303  -37.1458   25.8865 H   0  0  0  0  0  0
  -20.9313  -29.8755   21.6916 H   0  0  0  0  0  0
  -26.0177  -38.2871   24.1421 H   0  0  0  0  0  0
  -26.8409  -18.2342   20.0088 H   0  0  0  0  0  0
  -28.1830  -20.2645   20.2918 H   0  0  0  0  0  0
  -27.7768  -16.0341   20.5791 H   0  0  0  0  0  0
  -28.3706  -24.0930   23.0094 H   0  0  0  0  0  0
  -27.6383  -23.6588   21.4833 H   0  0  0  0  0  0
  -28.9402  -24.0433   19.3271 H   0  0  0  0  0  0
  -30.5099  -24.7979   19.3551 H   0  0  0  0  0  0
  -31.5884  -22.8736   20.1911 H   0  0  0  0  0  0
  -30.4151  -22.1944   19.0962 H   0  0  0  0  0  0
  -30.4376  -24.7699   21.8671 H   0  0  0  0  0  0
  -33.0521  -17.6561   23.6647 H   0  0  0  0  0  0
  -31.4840  -16.8603   23.7017 H   0  0  0  0  0  0
  -31.5823  -18.6196   23.7864 H   0  0  0  0  0  0
  -32.5666  -18.6294   21.4390 H   0  0  0  0  0  0
  -32.4161  -16.9141   21.3721 H   0  0  0  0  0  0
  -31.5872  -20.5403   20.5619 H   0  0  0  0  0  0
  -31.1907  -20.4948   22.2485 H   0  0  0  0  0  0
  -29.8263  -26.8959   21.4175 H   0  0  0  0  0  0
  -28.3223  -26.3831   22.1211 H   0  0  0  0  0  0
  -29.4213  -14.9451   21.9900 H   0  0  0  0  0  0
  1 25  1  0  0  0
  1 30  2  0  0  0
  1 87  1  0  0  0
  2  3  1  0  0  0
  2 25  1  0  0  0
  2 89  1  0  0  0
  2 90  1  0  0  0
  3  4  1  0  0  0
  3 91  1  0  0  0
  3 92  1  0  0  0
  4  5  1  0  0  0
  4 93  1  0  0  0
  4 94  1  0  0  0
  5  6  1  0  0  0
  5 26  1  0  0  0
  5 95  1  0  0  0
  6 25  1  0  0  0
  6 96  1  0  0  0
  6 97  1  0  0  0
  7  8  2  0  0  0
  7 26  1  0  0  0
  7 29  1  0  0  0
  8  9  1  0  0  0
  8 22  1  0  0  0
  9 10  1  0  0  0
  9 27  2  0  0  0
 10 11  2  0  0  0
 10 15  1  0  0  0
 11 12  1  0  0  0
 11 98  1  0  0  0
 12 13  2  0  0  0
 12 99  1  0  0  0
 13 14  1  0  0  0
 13 31  1  0  0  0
 14 15  2  0  0  0
 14100  1  0  0  0
 15101  1  0  0  0
 16 17  2  0  0  0
 16 21  1  0  0  0
 16 31  1  0  0  0
 17 18  1  0  0  0
 17102  1  0  0  0
 18 19  2  0  0  0
 18103  1  0  0  0
 19 20  1  0  0  0
 19 24  1  0  0  0
 20 21  2  0  0  0
 20104  1  0  0  0
 21 23  1  0  0  0
 22 28  1  0  0  0
 22 32  2  0  0  0
 26 27  1  0  0  0
 28105  1  0  0  0
 28106  1  0  0  0
 29107  1  0  0  0
 29108  1  0  0  0
 33 34  1  0  0  0
 33 66  1  0  0  0
 33 70  2  0  0  0
 34 36  1  0  0  0
 34 59  1  0  0  0
 34109  1  0  0  0
 35 44  2  0  0  0
 35 45  1  0  0  0
 35 68  1  0  0  0
 36 56  1  0  0  0
 36110  1  0  0  0
 37 39  1  0  0  0
 37 47  1  0  0  0
 37 66  1  0  0  0
 37111  1  0  0  0
 38 43  2  0  0  0
 38 46  1  0  0  0
 38 47  1  0  0  0
 39 64  1  0  0  0
 39 67  2  0  0  0
 40 52  1  0  0  0
 40 53  2  0  0  0
 40 58  1  0  0  0
 41112  1  0  0  0
 41113  1  0  0  0
 41114  1  0  0  0
 41 48  1  0  0  0
 42 43  1  0  0  0
 42 66  1  0  0  0
 42115  1  0  0  0
 42116  1  0  0  0
 43 44  1  0  0  0
 44117  1  0  0  0
 45 46  2  0  0  0
 45118  1  0  0  0
 46119  1  0  0  0
 47120  1  0  0  0
 47121  1  0  0  0
 48 56  1  0  0  0
 48 65  1  0  0  0
 48122  1  0  0  0
 49 50  1  0  0  0
 49 53  1  0  0  0
 49 64  1  0  0  0
 49123  1  0  0  0
 50 51  1  0  0  0
 50124  1  0  0  0
 50125  1  0  0  0
 51 52  1  0  0  0
 51126  1  0  0  0
 51127  1  0  0  0
 52128  1  0  0  0
 52129  1  0  0  0
 53 54  1  0  0  0
 54 55  2  0  0  0
 54130  1  0  0  0
 55 57  1  0  0  0
 55131  1  0  0  0
 56 69  2  0  0  0
 57 58  2  0  0  0
 57132  1  0  0  0
 58133  1  0  0  0
 59 60  1  0  0  0
 59 61  1  0  0  0
 59 62  1  0  0  0
 60134  1  0  0  0
 60135  1  0  0  0
 60136  1  0  0  0
 61137  1  0  0  0
 61138  1  0  0  0
 61139  1  0  0  0
 62140  1  0  0  0
 62141  1  0  0  0
 62142  1  0  0  0
 63 65  1  0  0  0
 63143  1  0  0  0
 63144  1  0  0  0
 63145  1  0  0  0
 64146  1  0  0  0
 65147  1  0  0  0
 68 85  1  0  0  0
 71 72  2  0  0  0
 71 73  1  0  0  0
 71148  1  0  0  0
 72 74  1  0  0  0
 72149  1  0  0  0
 73 76  2  0  0  0
 73150  1  0  0  0
 74 75  2  0  0  0
 74 84  1  0  0  0
 75 76  1  0  0  0
 75 83  1  0  0  0
 76 87  1  0  0  0
 77 78  1  0  0  0
 77 86  1  0  0  0
 77 88  2  0  0  0
 78 81  1  0  0  0
 78151  1  0  0  0
 78152  1  0  0  0
 79 80  1  0  0  0
 79 81  1  0  0  0
 79153  1  0  0  0
 79154  1  0  0  0
 80 86  1  0  0  0
 80155  1  0  0  0
 80156  1  0  0  0
 81 85  1  0  0  0
 81157  1  0  0  0
 82 83  1  0  0  0
 82158  1  0  0  0
 82159  1  0  0  0
 82160  1  0  0  0
 83161  1  0  0  0
 83162  1  0  0  0
 84 86  1  0  0  0
 84163  1  0  0  0
 84164  1  0  0  0
 85165  1  0  0  0
 85166  1  0  0  0
 87167  1  0  0  0
M  ISO  4   1 100  68 101  85 101  87 100
M  END
> <chiral flag>
0

> <version>
0

> <s_m_source_file>
/data/baiqing/PycharmProjects/Reinvent-master-3.2/result/LINK_invent/BTK/process_docking_weight1_custom_product_contain_oxygen_bond_distance_aromatic_linkinvent_7_9_3/rearranged_h_0052.sdf

> <i_m_source_file_index>
89

> <r_mmod_Potential_Energy-OPLS-2005>
16.6660270690918

> <r_mmod_Stretch_Energy-OPLS-2005>
52.8511505126953

> <r_mmod_Bend_Energy-OPLS-2005>
122.327095031738

> <r_mmod_Torsional_Energy-OPLS-2005>
289.677642822266

> <r_mmod_Improper_Torsional_Energy-OPLS-2005>
7.82296562194824

> <r_mmod_Van_der_Waal_Energy-OPLS-2005>
149.595184326172

> <r_mmod_Electrostatic_Energy-OPLS-2005>
-400.053894042969

> <r_mmod_Solvation_Energy-OPLS-2005>
-222.476623535156

> <b_mmod_Minimization_Converged-OPLS-2005>
0

> <r_mmod_RMS_Derivative-OPLS-2005>
1.4958028793335

$$$$
89
                    3D
 Structure written by MMmdl.
160168  0  0  1  0            999 V2000
  -30.5975  -14.7283   20.4654 C   0  0  0  0  0  0
  -30.4327  -12.4407   19.4811 C   0  0  0  0  0  0
  -29.5168  -12.5278   18.2386 C   0  0  0  0  0  0
  -28.0361  -12.3650   18.6381 C   0  0  0  0  0  0
  -27.6490  -13.2387   19.8620 C   0  0  2  0  0  0
  -28.6883  -13.1320   20.9994 C   0  0  0  0  0  0
  -25.2533  -13.8224   20.5712 C   0  0  0  0  0  0
  -24.1820  -13.0460   20.9206 C   0  0  0  0  0  0
  -24.6420  -11.6938   20.8721 C   0  0  0  0  0  0
  -23.9097  -10.4313   21.0387 C   0  0  0  0  0  0
  -24.3641   -9.4231   21.9171 C   0  0  0  0  0  0
  -23.6321   -8.2260   22.0749 C   0  0  0  0  0  0
  -22.4303   -8.0293   21.3541 C   0  0  0  0  0  0
  -21.9933   -9.0269   20.4650 C   0  0  0  0  0  0
  -22.7263  -10.2151   20.3045 C   0  0  0  0  0  0
  -21.6871   -6.0743   22.5284 C   0  0  0  0  0  0
  -21.4026   -6.5642   23.8216 C   0  0  0  0  0  0
  -21.3655   -5.6786   24.9171 C   0  0  0  0  0  0
  -21.6037   -4.3048   24.7215 C   0  0  0  0  0  0
  -21.8825   -3.8150   23.4335 C   0  0  0  0  0  0
  -21.9206   -4.6972   22.3395 C   0  0  0  0  0  0
  -22.7828  -13.5230   21.1856 C   0  0  0  0  0  0
  -22.1675   -4.2159   21.0973 F   0  0  0  0  0  0
  -21.5619   -3.4526   25.7723 F   0  0  0  0  0  0
  -29.9969  -13.4875   20.4366 N   0  0  0  0  0  0
  -26.2976  -12.9451   20.3304 N   0  0  0  0  0  0
  -25.9363  -11.6581   20.5747 N   0  0  0  0  0  0
  -22.0477  -12.8219   22.0412 N   0  0  0  0  0  0
  -25.4217  -15.1948   20.4149 N   0  0  0  0  0  0
  -31.7574  -14.8554   20.0597 O   0  0  0  0  0  0
  -21.6665   -6.8891   21.4248 O   0  0  0  0  0  0
  -22.3496  -14.5525   20.6697 O   0  0  0  0  0  0
  -24.6333  -31.8551   23.2001 C   0  0  0  0  0  0
  -25.9158  -32.4748   23.8343 C   0  0  1  0  0  0
  -27.2090  -27.2516   20.1231 C   0  0  0  0  0  0
  -25.5940  -33.8553   24.2253 N   0  0  0  0  0  0
  -23.4290  -30.4809   21.5440 C   0  0  2  0  0  0
  -24.8741  -28.9322   20.1082 C   0  0  0  0  0  0
  -22.7506  -29.4615   22.4915 C   0  0  0  0  0  0
  -18.0286  -28.1398   22.8480 C   0  0  0  0  0  0
  -24.1476  -36.7270   23.2646 C   0  0  0  0  0  0
  -25.9777  -30.7636   21.3843 C   0  0  0  0  0  0
  -26.0475  -29.3875   20.7233 C   0  0  0  0  0  0
  -27.2175  -28.5585   20.7236 C   0  0  0  0  0  0
  -26.0137  -26.8807   19.4620 C   0  0  0  0  0  0
  -24.8630  -27.6880   19.4668 C   0  0  0  0  0  0
  -23.6459  -29.8190   20.1591 C   0  0  0  0  0  0
  -25.4106  -36.3062   24.0328 C   0  0  1  0  0  0
  -20.5889  -28.3703   23.1260 C   0  0  2  0  0  0
  -20.6763  -26.9416   22.5405 C   0  0  0  0  0  0
  -19.5743  -26.6383   21.5207 C   0  0  0  0  0  0
  -18.1925  -26.7936   22.1624 C   0  0  0  0  0  0
  -19.1541  -28.8868   23.2861 C   0  0  0  0  0  0
  -18.9468  -30.1468   23.8877 C   0  0  0  0  0  0
  -17.6464  -30.6599   24.0558 C   0  0  0  0  0  0
  -25.9061  -34.9435   23.5096 C   0  0  0  0  0  0
  -16.5351  -29.9091   23.6341 C   0  0  0  0  0  0
  -16.7270  -28.6512   23.0357 C   0  0  0  0  0  0
  -26.4506  -31.6589   25.0750 C   0  0  0  0  0  0
  -25.3705  -31.3753   26.1454 C   0  0  0  0  0  0
  -27.0375  -30.2997   24.6287 C   0  0  0  0  0  0
  -27.6048  -32.4340   25.7521 C   0  0  0  0  0  0
  -27.5567  -37.1788   24.8465 C   0  0  0  0  0  0
  -21.4214  -29.3048   22.3650 N   0  0  0  0  0  0
  -26.4269  -37.3770   23.9425 N   0  0  0  0  0  0
  -24.6989  -31.0509   22.0980 N   0  0  0  0  0  0
  -23.4204  -28.8159   23.3024 O   0  0  0  0  0  0
  -28.2799  -26.3236   20.1987 O   0  0  0  0  0  0
  -26.5637  -34.8913   22.4670 O   0  0  0  0  0  0
  -23.5481  -32.1379   23.7286 O   0  0  0  0  0  0
  -29.5030  -17.1036   18.7515 C   0  0  0  0  0  0
  -29.6271  -18.4553   20.7517 C   0  0  0  0  0  0
  -29.2508  -18.2668   17.9929 C   0  0  0  0  0  0
  -29.3863  -19.6923   20.0156 C   0  0  0  0  0  0
  -29.1940  -19.5562   18.6067 C   0  0  0  0  0  0
  -29.7064  -17.1384   20.1415 C   0  0  0  0  0  0
  -28.9792  -23.7263   20.4400 C   0  0  0  0  0  0
  -28.9333  -20.7932   17.7502 C   0  0  0  0  0  0
  -27.5544  -18.1030   16.1023 C   0  0  0  0  0  0
  -29.0360  -18.0569   16.4957 C   0  0  0  0  0  0
  -29.4407  -21.1321   20.7310 C   0  0  0  0  0  0
  -27.9721  -24.8663   19.9380 C   0  0  0  0  0  0
  -29.8493  -15.8347   20.8372 N   0  0  0  0  0  0
  -28.6892  -22.3796   20.2534 N   0  0  0  0  0  0
  -30.0185  -24.0663   21.0098 O   0  0  0  0  0  0
  -31.4781  -12.5570   19.1874 H   0  0  0  0  0  0
  -30.3649  -11.4534   19.9394 H   0  0  0  0  0  0
  -29.7964  -11.7702   17.5055 H   0  0  0  0  0  0
  -29.6616  -13.4897   17.7441 H   0  0  0  0  0  0
  -27.8653  -11.3133   18.8652 H   0  0  0  0  0  0
  -27.3899  -12.6008   17.7916 H   0  0  0  0  0  0
  -27.6576  -14.2711   19.5105 H   0  0  0  0  0  0
  -28.7110  -12.1195   21.4041 H   0  0  0  0  0  0
  -28.4234  -13.7871   21.8311 H   0  0  0  0  0  0
  -25.2787   -9.5719   22.4746 H   0  0  0  0  0  0
  -24.0041   -7.4652   22.7462 H   0  0  0  0  0  0
  -21.0869   -8.8792   19.8958 H   0  0  0  0  0  0
  -22.3722  -10.9684   19.6149 H   0  0  0  0  0  0
  -21.2030   -7.6153   23.9730 H   0  0  0  0  0  0
  -21.1463   -6.0506   25.9077 H   0  0  0  0  0  0
  -22.0610   -2.7617   23.2828 H   0  0  0  0  0  0
  -22.4106  -11.9886   22.4804 H   0  0  0  0  0  0
  -21.1090  -13.1233   22.2601 H   0  0  0  0  0  0
  -24.6538  -15.8472   20.5289 H   0  0  0  0  0  0
  -26.2708  -15.6366   20.0852 H   0  0  0  0  0  0
  -26.7231  -32.5393   23.1088 H   0  0  0  0  0  0
  -25.0044  -33.9677   25.0365 H   0  0  0  0  0  0
  -22.7262  -31.3045   21.4006 H   0  0  0  0  0  0
  -23.3746  -35.9594   23.3299 H   0  0  0  0  0  0
  -24.3557  -36.8907   22.2060 H   0  0  0  0  0  0
  -23.7209  -37.6458   23.6681 H   0  0  0  0  0  0
  -26.1213  -31.5245   20.6160 H   0  0  0  0  0  0
  -26.8533  -30.8079   22.0204 H   0  0  0  0  0  0
  -28.1095  -28.8962   21.2323 H   0  0  0  0  0  0
  -25.9246  -25.9377   18.9447 H   0  0  0  0  0  0
  -23.9673  -27.3377   18.9715 H   0  0  0  0  0  0
  -23.7677  -30.5948   19.4025 H   0  0  0  0  0  0
  -22.7640  -29.2515   19.8561 H   0  0  0  0  0  0
  -25.1279  -36.1899   25.0815 H   0  0  0  0  0  0
  -20.9971  -28.3282   24.1386 H   0  0  0  0  0  0
  -20.5653  -26.2317   23.3619 H   0  0  0  0  0  0
  -21.6637  -26.7437   22.1213 H   0  0  0  0  0  0
  -19.6905  -25.6289   21.1257 H   0  0  0  0  0  0
  -19.6683  -27.3176   20.6726 H   0  0  0  0  0  0
  -17.4188  -26.6666   21.4033 H   0  0  0  0  0  0
  -18.0337  -26.0086   22.9036 H   0  0  0  0  0  0
  -19.7942  -30.7287   24.2237 H   0  0  0  0  0  0
  -17.5025  -31.6276   24.5169 H   0  0  0  0  0  0
  -15.5354  -30.2991   23.7696 H   0  0  0  0  0  0
  -15.8664  -28.0839   22.7079 H   0  0  0  0  0  0
  -24.5852  -30.7149   25.7754 H   0  0  0  0  0  0
  -24.8934  -32.2940   26.4885 H   0  0  0  0  0  0
  -25.7988  -30.8894   27.0230 H   0  0  0  0  0  0
  -26.2997  -29.6722   24.1279 H   0  0  0  0  0  0
  -27.3993  -29.7288   25.4850 H   0  0  0  0  0  0
  -27.8894  -30.4254   23.9599 H   0  0  0  0  0  0
  -27.2647  -33.3642   26.2083 H   0  0  0  0  0  0
  -28.3861  -32.6901   25.0352 H   0  0  0  0  0  0
  -28.0721  -31.8484   26.5446 H   0  0  0  0  0  0
  -28.2576  -38.0094   24.7528 H   0  0  0  0  0  0
  -28.1067  -36.2625   24.6261 H   0  0  0  0  0  0
  -27.2297  -37.1403   25.8870 H   0  0  0  0  0  0
  -20.9413  -29.8749   21.6823 H   0  0  0  0  0  0
  -26.0142  -38.2838   24.1442 H   0  0  0  0  0  0
  -29.5085  -16.1477   18.2463 H   0  0  0  0  0  0
  -29.7688  -18.5282   21.8201 H   0  0  0  0  0  0
  -28.9904  -20.6258   16.6789 H   0  0  0  0  0  0
  -29.6645  -21.5713   17.9652 H   0  0  0  0  0  0
  -27.9323  -21.1777   17.9465 H   0  0  0  0  0  0
  -27.4347  -17.9230   15.0334 H   0  0  0  0  0  0
  -27.1081  -19.0710   16.3271 H   0  0  0  0  0  0
  -26.9827  -17.3429   16.6367 H   0  0  0  0  0  0
  -29.4355  -17.0845   16.2070 H   0  0  0  0  0  0
  -29.6220  -18.7651   15.9109 H   0  0  0  0  0  0
  -30.4982  -21.3974   20.7636 H   0  0  0  0  0  0
  -29.1589  -20.9823   21.7738 H   0  0  0  0  0  0
  -27.0155  -24.6180   20.4001 H   0  0  0  0  0  0
  -27.8534  -24.7319   18.8622 H   0  0  0  0  0  0
  -29.0600  -15.5998   21.4215 H   0  0  0  0  0  0
  -27.8110  -22.1915   19.7902 H   0  0  0  0  0  0
  1 25  1  0  0  0
  1 30  2  0  0  0
  1 83  1  0  0  0
  2  3  1  0  0  0
  2 25  1  0  0  0
  2 86  1  0  0  0
  2 87  1  0  0  0
  3  4  1  0  0  0
  3 88  1  0  0  0
  3 89  1  0  0  0
  4  5  1  0  0  0
  4 90  1  0  0  0
  4 91  1  0  0  0
  5  6  1  0  0  0
  5 26  1  0  0  0
  5 92  1  0  0  0
  6 25  1  0  0  0
  6 93  1  0  0  0
  6 94  1  0  0  0
  7  8  2  0  0  0
  7 26  1  0  0  0
  7 29  1  0  0  0
  8  9  1  0  0  0
  8 22  1  0  0  0
  9 10  1  0  0  0
  9 27  2  0  0  0
 10 11  2  0  0  0
 10 15  1  0  0  0
 11 12  1  0  0  0
 11 95  1  0  0  0
 12 13  2  0  0  0
 12 96  1  0  0  0
 13 14  1  0  0  0
 13 31  1  0  0  0
 14 15  2  0  0  0
 14 97  1  0  0  0
 15 98  1  0  0  0
 16 17  2  0  0  0
 16 21  1  0  0  0
 16 31  1  0  0  0
 17 18  1  0  0  0
 17 99  1  0  0  0
 18 19  2  0  0  0
 18100  1  0  0  0
 19 20  1  0  0  0
 19 24  1  0  0  0
 20 21  2  0  0  0
 20101  1  0  0  0
 21 23  1  0  0  0
 22 28  1  0  0  0
 22 32  2  0  0  0
 26 27  1  0  0  0
 28102  1  0  0  0
 28103  1  0  0  0
 29104  1  0  0  0
 29105  1  0  0  0
 33 34  1  0  0  0
 33 66  1  0  0  0
 33 70  2  0  0  0
 34 36  1  0  0  0
 34 59  1  0  0  0
 34106  1  0  0  0
 35 44  2  0  0  0
 35 45  1  0  0  0
 35 68  1  0  0  0
 36 56  1  0  0  0
 36107  1  0  0  0
 37 39  1  0  0  0
 37 47  1  0  0  0
 37 66  1  0  0  0
 37108  1  0  0  0
 38 43  2  0  0  0
 38 46  1  0  0  0
 38 47  1  0  0  0
 39 64  1  0  0  0
 39 67  2  0  0  0
 40 52  1  0  0  0
 40 53  2  0  0  0
 40 58  1  0  0  0
 41109  1  0  0  0
 41110  1  0  0  0
 41111  1  0  0  0
 41 48  1  0  0  0
 42 43  1  0  0  0
 42 66  1  0  0  0
 42112  1  0  0  0
 42113  1  0  0  0
 43 44  1  0  0  0
 44114  1  0  0  0
 45 46  2  0  0  0
 45115  1  0  0  0
 46116  1  0  0  0
 47117  1  0  0  0
 47118  1  0  0  0
 48 56  1  0  0  0
 48 65  1  0  0  0
 48119  1  0  0  0
 49 50  1  0  0  0
 49 53  1  0  0  0
 49 64  1  0  0  0
 49120  1  0  0  0
 50 51  1  0  0  0
 50121  1  0  0  0
 50122  1  0  0  0
 51 52  1  0  0  0
 51123  1  0  0  0
 51124  1  0  0  0
 52125  1  0  0  0
 52126  1  0  0  0
 53 54  1  0  0  0
 54 55  2  0  0  0
 54127  1  0  0  0
 55 57  1  0  0  0
 55128  1  0  0  0
 56 69  2  0  0  0
 57 58  2  0  0  0
 57129  1  0  0  0
 58130  1  0  0  0
 59 60  1  0  0  0
 59 61  1  0  0  0
 59 62  1  0  0  0
 60131  1  0  0  0
 60132  1  0  0  0
 60133  1  0  0  0
 61134  1  0  0  0
 61135  1  0  0  0
 61136  1  0  0  0
 62137  1  0  0  0
 62138  1  0  0  0
 62139  1  0  0  0
 63 65  1  0  0  0
 63140  1  0  0  0
 63141  1  0  0  0
 63142  1  0  0  0
 64143  1  0  0  0
 65144  1  0  0  0
 68 82  1  0  0  0
 71 73  2  0  0  0
 71 76  1  0  0  0
 71145  1  0  0  0
 72 74  1  0  0  0
 72 76  2  0  0  0
 72146  1  0  0  0
 73 75  1  0  0  0
 73 80  1  0  0  0
 74 75  2  0  0  0
 74 81  1  0  0  0
 75 78  1  0  0  0
 76 83  1  0  0  0
 77 82  1  0  0  0
 77 84  1  0  0  0
 77 85  2  0  0  0
 78147  1  0  0  0
 78148  1  0  0  0
 78149  1  0  0  0
 79 80  1  0  0  0
 79150  1  0  0  0
 79151  1  0  0  0
 79152  1  0  0  0
 80153  1  0  0  0
 80154  1  0  0  0
 81 84  1  0  0  0
 81155  1  0  0  0
 81156  1  0  0  0
 82157  1  0  0  0
 82158  1  0  0  0
 83159  1  0  0  0
 84160  1  0  0  0
M  ISO  4   1 100  68 101  82 101  83 100
M  END
> <chiral flag>
0

> <version>
0

> <s_m_source_file>
/data/baiqing/PycharmProjects/Reinvent-master-3.2/result/LINK_invent/BTK/process_docking_weight1_custom_product_contain_oxygen_bond_distance_aromatic_linkinvent_7_9_3/rearranged_h_0052.sdf

> <i_m_source_file_index>
90

> <r_mmod_Potential_Energy-OPLS-2005>
104.652290344238

> <r_mmod_Stretch_Energy-OPLS-2005>
128.278793334961

> <r_mmod_Bend_Energy-OPLS-2005>
162.594833374023

> <r_mmod_Torsional_Energy-OPLS-2005>
240.494934082031

> <r_mmod_Improper_Torsional_Energy-OPLS-2005>
5.31254386901855

> <r_mmod_Van_der_Waal_Energy-OPLS-2005>
146.95964050293

> <r_mmod_Electrostatic_Energy-OPLS-2005>
-416.95556640625

> <r_mmod_Solvation_Energy-OPLS-2005>
-248.037780761719

> <b_mmod_Minimization_Converged-OPLS-2005>
0

> <r_mmod_RMS_Derivative-OPLS-2005>
2.02040338516235

$$$$
90
                    3D
 Structure written by MMmdl.
154162  0  0  1  0            999 V2000
  -30.6179  -14.6523   20.4798 C   0  0  0  0  0  0
  -30.4374  -12.3976   19.4499 C   0  0  0  0  0  0
  -29.5158  -12.5283   18.2186 C   0  0  0  0  0  0
  -28.0300  -12.3863   18.6145 C   0  0  0  0  0  0
  -27.6528  -13.2285   19.8652 C   0  0  2  0  0  0
  -28.7006  -13.0787   20.9919 C   0  0  0  0  0  0
  -25.2535  -13.8193   20.5699 C   0  0  0  0  0  0
  -24.1827  -13.0421   20.9222 C   0  0  0  0  0  0
  -24.6411  -11.6908   20.8727 C   0  0  0  0  0  0
  -23.9086  -10.4276   21.0389 C   0  0  0  0  0  0
  -24.3627   -9.4203   21.9184 C   0  0  0  0  0  0
  -23.6292   -8.2244   22.0770 C   0  0  0  0  0  0
  -22.4272   -8.0278   21.3566 C   0  0  0  0  0  0
  -21.9907   -9.0245   20.4670 C   0  0  0  0  0  0
  -22.7238  -10.2122   20.3056 C   0  0  0  0  0  0
  -21.6850   -6.0745   22.5286 C   0  0  0  0  0  0
  -21.4011   -6.5644   23.8219 C   0  0  0  0  0  0
  -21.3661   -5.6791   24.9174 C   0  0  0  0  0  0
  -21.6056   -4.3057   24.7219 C   0  0  0  0  0  0
  -21.8808   -3.8161   23.4327 C   0  0  0  0  0  0
  -21.9187   -4.6979   22.3394 C   0  0  0  0  0  0
  -22.7834  -13.5208   21.1890 C   0  0  0  0  0  0
  -22.1662   -4.2177   21.0964 F   0  0  0  0  0  0
  -21.5636   -3.4525   25.7726 F   0  0  0  0  0  0
  -30.0139  -13.4232   20.4234 N   0  0  0  0  0  0
  -26.2984  -12.9398   20.3290 N   0  0  0  0  0  0
  -25.9343  -11.6542   20.5715 N   0  0  0  0  0  0
  -22.0465  -12.8192   22.0451 N   0  0  0  0  0  0
  -25.4113  -15.1922   20.4097 N   0  0  0  0  0  0
  -31.7922  -14.7992   20.1265 O   0  0  0  0  0  0
  -21.6638   -6.8872   21.4249 O   0  0  0  0  0  0
  -22.3501  -14.5500   20.6730 O   0  0  0  0  0  0
  -24.6262  -31.8587   23.2056 C   0  0  0  0  0  0
  -25.9137  -32.4763   23.8342 C   0  0  1  0  0  0
  -27.2324  -27.3335   20.1167 C   0  0  0  0  0  0
  -25.5983  -33.8567   24.2289 N   0  0  0  0  0  0
  -23.4187  -30.4859   21.5463 C   0  0  2  0  0  0
  -24.8685  -28.9516   20.1097 C   0  0  0  0  0  0
  -22.7465  -29.4626   22.4927 C   0  0  0  0  0  0
  -18.0289  -28.1384   22.8488 C   0  0  0  0  0  0
  -24.1510  -36.7264   23.2636 C   0  0  0  0  0  0
  -25.9583  -30.8032   21.3706 C   0  0  0  0  0  0
  -26.0370  -29.4328   20.7099 C   0  0  0  0  0  0
  -27.2199  -28.6363   20.7037 C   0  0  0  0  0  0
  -26.0378  -26.9122   19.4823 C   0  0  0  0  0  0
  -24.8707  -27.6971   19.4848 C   0  0  0  0  0  0
  -23.6331  -29.8248   20.1602 C   0  0  0  0  0  0
  -25.4128  -36.3064   24.0332 C   0  0  1  0  0  0
  -20.5892  -28.3690   23.1295 C   0  0  2  0  0  0
  -20.6788  -26.9412   22.5436 C   0  0  0  0  0  0
  -19.5751  -26.6386   21.5238 C   0  0  0  0  0  0
  -18.1929  -26.7937   22.1618 C   0  0  0  0  0  0
  -19.1539  -28.8851   23.2889 C   0  0  0  0  0  0
  -18.9459  -30.1458   23.8895 C   0  0  0  0  0  0
  -17.6458  -30.6587   24.0560 C   0  0  0  0  0  0
  -25.9070  -34.9447   23.5099 C   0  0  0  0  0  0
  -16.5347  -29.9075   23.6341 C   0  0  0  0  0  0
  -16.7278  -28.6502   23.0352 C   0  0  0  0  0  0
  -26.4547  -31.6535   25.0678 C   0  0  0  0  0  0
  -25.3788  -31.3631   26.1391 C   0  0  0  0  0  0
  -27.0399  -30.2963   24.6099 C   0  0  0  0  0  0
  -27.6118  -32.4245   25.7444 C   0  0  0  0  0  0
  -27.5579  -37.1778   24.8452 C   0  0  0  0  0  0
  -21.4181  -29.3033   22.3666 N   0  0  0  0  0  0
  -26.4278  -37.3774   23.9425 N   0  0  0  0  0  0
  -24.6857  -31.0643   22.0977 N   0  0  0  0  0  0
  -23.4191  -28.8153   23.3002 O   0  0  0  0  0  0
  -28.3560  -26.4889   20.1862 O   0  0  0  0  0  0
  -26.5589  -34.8912   22.4631 O   0  0  0  0  0  0
  -23.5443  -32.1357   23.7430 O   0  0  0  0  0  0
  -28.9054  -19.4369   20.9429 C   0  0  0  0  0  0
  -28.8459  -18.0099   21.0145 C   0  0  0  0  0  0
  -31.0802  -17.8518   20.1419 C   0  0  0  0  0  0
  -30.0613  -20.1142   20.4796 C   0  0  0  0  0  0
  -29.9339  -17.1721   20.6352 C   0  0  0  0  0  0
  -31.1402  -19.2762   20.0688 C   0  0  0  0  0  0
  -29.2200  -24.0246   20.4449 C   0  0  0  0  0  0
  -28.3645  -22.2489   18.9583 C   0  0  0  0  0  0
  -30.2369  -21.6837   20.5556 C   0  0  0  0  0  0
  -28.1812  -25.0557   19.8406 C   0  0  0  0  0  0
  -29.7922  -15.7133   20.7588 N   0  0  0  0  0  0
  -29.2212  -22.6906   20.0605 N   0  0  0  0  0  0
  -30.0208  -24.4420   21.2866 O   0  0  0  0  0  0
  -32.2815  -19.8422   19.6063 F   0  0  0  0  0  0
  -31.4815  -12.5164   19.1563 H   0  0  0  0  0  0
  -30.3597  -11.4004   19.8859 H   0  0  0  0  0  0
  -29.7824  -11.7852   17.4664 H   0  0  0  0  0  0
  -29.6770  -13.4996   17.7479 H   0  0  0  0  0  0
  -27.8302  -11.3300   18.7945 H   0  0  0  0  0  0
  -27.3963  -12.6738   17.7738 H   0  0  0  0  0  0
  -27.6664  -14.2714   19.5474 H   0  0  0  0  0  0
  -28.7163  -12.0579   21.3786 H   0  0  0  0  0  0
  -28.4545  -13.7161   21.8445 H   0  0  0  0  0  0
  -25.2764   -9.5686   22.4775 H   0  0  0  0  0  0
  -24.0001   -7.4641   22.7487 H   0  0  0  0  0  0
  -21.0836   -8.8731   19.8996 H   0  0  0  0  0  0
  -22.3665  -10.9646   19.6164 H   0  0  0  0  0  0
  -21.2002   -7.6157   23.9709 H   0  0  0  0  0  0
  -21.1514   -6.0544   25.9071 H   0  0  0  0  0  0
  -22.0597   -2.7633   23.2819 H   0  0  0  0  0  0
  -22.4030  -11.9810   22.4798 H   0  0  0  0  0  0
  -21.1096  -13.1257   22.2673 H   0  0  0  0  0  0
  -24.6259  -15.8222   20.5289 H   0  0  0  0  0  0
  -26.2039  -15.6395   19.9669 H   0  0  0  0  0  0
  -26.7184  -32.5453   23.1072 H   0  0  0  0  0  0
  -25.0254  -33.9711   25.0518 H   0  0  0  0  0  0
  -22.7117  -31.3061   21.4046 H   0  0  0  0  0  0
  -23.3812  -35.9557   23.3247 H   0  0  0  0  0  0
  -24.3628  -36.8925   22.2062 H   0  0  0  0  0  0
  -23.7212  -37.6433   23.6675 H   0  0  0  0  0  0
  -26.0868  -31.5770   20.6122 H   0  0  0  0  0  0
  -26.8395  -30.8462   21.9996 H   0  0  0  0  0  0
  -28.1178  -29.0100   21.1763 H   0  0  0  0  0  0
  -25.9648  -25.9595   18.9819 H   0  0  0  0  0  0
  -23.9756  -27.3273   19.0050 H   0  0  0  0  0  0
  -23.7413  -30.6003   19.4002 H   0  0  0  0  0  0
  -22.7555  -29.2462   19.8662 H   0  0  0  0  0  0
  -25.1313  -36.1898   25.0820 H   0  0  0  0  0  0
  -20.9979  -28.3275   24.1421 H   0  0  0  0  0  0
  -20.5751  -26.2278   23.3636 H   0  0  0  0  0  0
  -21.6645  -26.7483   22.1182 H   0  0  0  0  0  0
  -19.6927  -25.6309   21.1239 H   0  0  0  0  0  0
  -19.6698  -27.3226   20.6794 H   0  0  0  0  0  0
  -17.4220  -26.6736   21.3983 H   0  0  0  0  0  0
  -18.0272  -26.0061   22.8987 H   0  0  0  0  0  0
  -19.7936  -30.7285   24.2245 H   0  0  0  0  0  0
  -17.5012  -31.6280   24.5145 H   0  0  0  0  0  0
  -15.5349  -30.2969   23.7686 H   0  0  0  0  0  0
  -15.8676  -28.0834   22.7045 H   0  0  0  0  0  0
  -24.6097  -30.6810   25.7727 H   0  0  0  0  0  0
  -24.8840  -32.2767   26.4681 H   0  0  0  0  0  0
  -25.8165  -30.8947   27.0212 H   0  0  0  0  0  0
  -26.2962  -29.6656   24.1209 H   0  0  0  0  0  0
  -27.4205  -29.7244   25.4569 H   0  0  0  0  0  0
  -27.8770  -30.4242   23.9240 H   0  0  0  0  0  0
  -27.2780  -33.3607   26.1913 H   0  0  0  0  0  0
  -28.3999  -32.6658   25.0302 H   0  0  0  0  0  0
  -28.0675  -31.8392   26.5433 H   0  0  0  0  0  0
  -28.2544  -38.0133   24.7618 H   0  0  0  0  0  0
  -28.1137  -36.2674   24.6156 H   0  0  0  0  0  0
  -27.2299  -37.1256   25.8849 H   0  0  0  0  0  0
  -20.9345  -29.8711   21.6846 H   0  0  0  0  0  0
  -26.0154  -38.2824   24.1506 H   0  0  0  0  0  0
  -28.0601  -20.0243   21.2762 H   0  0  0  0  0  0
  -27.9381  -17.5594   21.3920 H   0  0  0  0  0  0
  -31.9477  -17.2931   19.8260 H   0  0  0  0  0  0
  -28.6768  -22.7186   18.0236 H   0  0  0  0  0  0
  -27.3248  -22.5159   19.1460 H   0  0  0  0  0  0
  -28.3923  -21.1743   18.7926 H   0  0  0  0  0  0
  -31.1658  -21.9349   20.0433 H   0  0  0  0  0  0
  -30.4305  -21.8926   21.6094 H   0  0  0  0  0  0
  -27.2122  -24.6991   20.1891 H   0  0  0  0  0  0
  -28.1966  -24.9777   18.7536 H   0  0  0  0  0  0
  -28.8657  -15.4113   21.0218 H   0  0  0  0  0  0
  1 25  1  0  0  0
  1 30  2  0  0  0
  1 81  1  0  0  0
  2  3  1  0  0  0
  2 25  1  0  0  0
  2 85  1  0  0  0
  2 86  1  0  0  0
  3  4  1  0  0  0
  3 87  1  0  0  0
  3 88  1  0  0  0
  4  5  1  0  0  0
  4 89  1  0  0  0
  4 90  1  0  0  0
  5  6  1  0  0  0
  5 26  1  0  0  0
  5 91  1  0  0  0
  6 25  1  0  0  0
  6 92  1  0  0  0
  6 93  1  0  0  0
  7  8  2  0  0  0
  7 26  1  0  0  0
  7 29  1  0  0  0
  8  9  1  0  0  0
  8 22  1  0  0  0
  9 10  1  0  0  0
  9 27  2  0  0  0
 10 11  2  0  0  0
 10 15  1  0  0  0
 11 12  1  0  0  0
 11 94  1  0  0  0
 12 13  2  0  0  0
 12 95  1  0  0  0
 13 14  1  0  0  0
 13 31  1  0  0  0
 14 15  2  0  0  0
 14 96  1  0  0  0
 15 97  1  0  0  0
 16 17  2  0  0  0
 16 21  1  0  0  0
 16 31  1  0  0  0
 17 18  1  0  0  0
 17 98  1  0  0  0
 18 19  2  0  0  0
 18 99  1  0  0  0
 19 20  1  0  0  0
 19 24  1  0  0  0
 20 21  2  0  0  0
 20100  1  0  0  0
 21 23  1  0  0  0
 22 28  1  0  0  0
 22 32  2  0  0  0
 26 27  1  0  0  0
 28101  1  0  0  0
 28102  1  0  0  0
 29103  1  0  0  0
 29104  1  0  0  0
 33 34  1  0  0  0
 33 66  1  0  0  0
 33 70  2  0  0  0
 34 36  1  0  0  0
 34 59  1  0  0  0
 34105  1  0  0  0
 35 44  2  0  0  0
 35 45  1  0  0  0
 35 68  1  0  0  0
 36 56  1  0  0  0
 36106  1  0  0  0
 37 39  1  0  0  0
 37 47  1  0  0  0
 37 66  1  0  0  0
 37107  1  0  0  0
 38 43  2  0  0  0
 38 46  1  0  0  0
 38 47  1  0  0  0
 39 64  1  0  0  0
 39 67  2  0  0  0
 40 52  1  0  0  0
 40 53  2  0  0  0
 40 58  1  0  0  0
 41108  1  0  0  0
 41109  1  0  0  0
 41110  1  0  0  0
 41 48  1  0  0  0
 42 43  1  0  0  0
 42 66  1  0  0  0
 42111  1  0  0  0
 42112  1  0  0  0
 43 44  1  0  0  0
 44113  1  0  0  0
 45 46  2  0  0  0
 45114  1  0  0  0
 46115  1  0  0  0
 47116  1  0  0  0
 47117  1  0  0  0
 48 56  1  0  0  0
 48 65  1  0  0  0
 48118  1  0  0  0
 49 50  1  0  0  0
 49 53  1  0  0  0
 49 64  1  0  0  0
 49119  1  0  0  0
 50 51  1  0  0  0
 50120  1  0  0  0
 50121  1  0  0  0
 51 52  1  0  0  0
 51122  1  0  0  0
 51123  1  0  0  0
 52124  1  0  0  0
 52125  1  0  0  0
 53 54  1  0  0  0
 54 55  2  0  0  0
 54126  1  0  0  0
 55 57  1  0  0  0
 55127  1  0  0  0
 56 69  2  0  0  0
 57 58  2  0  0  0
 57128  1  0  0  0
 58129  1  0  0  0
 59 60  1  0  0  0
 59 61  1  0  0  0
 59 62  1  0  0  0
 60130  1  0  0  0
 60131  1  0  0  0
 60132  1  0  0  0
 61133  1  0  0  0
 61134  1  0  0  0
 61135  1  0  0  0
 62136  1  0  0  0
 62137  1  0  0  0
 62138  1  0  0  0
 63 65  1  0  0  0
 63139  1  0  0  0
 63140  1  0  0  0
 63141  1  0  0  0
 64142  1  0  0  0
 65143  1  0  0  0
 68 80  1  0  0  0
 71 72  2  0  0  0
 71 74  1  0  0  0
 71144  1  0  0  0
 72 75  1  0  0  0
 72145  1  0  0  0
 73 75  2  0  0  0
 73 76  1  0  0  0
 73146  1  0  0  0
 74 76  2  0  0  0
 74 79  1  0  0  0
 75 81  1  0  0  0
 76 84  1  0  0  0
 77 80  1  0  0  0
 77 82  1  0  0  0
 77 83  2  0  0  0
 78 82  1  0  0  0
 78147  1  0  0  0
 78148  1  0  0  0
 78149  1  0  0  0
 79 82  1  0  0  0
 79150  1  0  0  0
 79151  1  0  0  0
 80152  1  0  0  0
 80153  1  0  0  0
 81154  1  0  0  0
M  ISO  4   1 100  68 101  80 101  81 100
M  END
> <chiral flag>
0

> <version>
0

> <s_m_source_file>
/data/baiqing/PycharmProjects/Reinvent-master-3.2/result/LINK_invent/BTK/process_docking_weight1_custom_product_contain_oxygen_bond_distance_aromatic_linkinvent_7_9_3/rearranged_h_0052.sdf

> <i_m_source_file_index>
91

> <r_mmod_Potential_Energy-OPLS-2005>
91.5552597045898

> <r_mmod_Stretch_Energy-OPLS-2005>
86.0524749755859

> <r_mmod_Bend_Energy-OPLS-2005>
144.418182373047

> <r_mmod_Torsional_Energy-OPLS-2005>
223.218185424805

> <r_mmod_Improper_Torsional_Energy-OPLS-2005>
5.78272294998169

> <r_mmod_Van_der_Waal_Energy-OPLS-2005>
154.181411743164

> <r_mmod_Electrostatic_Energy-OPLS-2005>
-329.850646972656

> <r_mmod_Solvation_Energy-OPLS-2005>
-240.583358764648

> <b_mmod_Minimization_Converged-OPLS-2005>
0

> <r_mmod_RMS_Derivative-OPLS-2005>
3.8045711517334

$$$$
91
                    3D
 Structure written by MMmdl.
167175  0  0  1  0            999 V2000
  -30.6867  -14.3880   20.6496 C   0  0  0  0  0  0
  -30.4338  -12.2806   19.3927 C   0  0  0  0  0  0
  -29.4930  -12.5215   18.1928 C   0  0  0  0  0  0
  -28.0122  -12.3807   18.6020 C   0  0  0  0  0  0
  -27.6717  -13.1845   19.8828 C   0  0  2  0  0  0
  -28.7063  -12.8782   20.9873 C   0  0  0  0  0  0
  -25.2693  -13.8086   20.5705 C   0  0  0  0  0  0
  -24.1896  -13.0420   20.9179 C   0  0  0  0  0  0
  -24.6379  -11.6869   20.8691 C   0  0  0  0  0  0
  -23.9041  -10.4281   21.0380 C   0  0  0  0  0  0
  -24.3598   -9.4203   21.9163 C   0  0  0  0  0  0
  -23.6276   -8.2236   22.0740 C   0  0  0  0  0  0
  -22.4258   -8.0276   21.3533 C   0  0  0  0  0  0
  -21.9882   -9.0252   20.4640 C   0  0  0  0  0  0
  -22.7212  -10.2130   20.3038 C   0  0  0  0  0  0
  -21.6845   -6.0734   22.5279 C   0  0  0  0  0  0
  -21.4016   -6.5635   23.8217 C   0  0  0  0  0  0
  -21.3650   -5.6777   24.9171 C   0  0  0  0  0  0
  -21.6035   -4.3044   24.7213 C   0  0  0  0  0  0
  -21.8819   -3.8146   23.4333 C   0  0  0  0  0  0
  -21.9191   -4.6964   22.3396 C   0  0  0  0  0  0
  -22.7940  -13.5283   21.1848 C   0  0  0  0  0  0
  -22.1656   -4.2154   21.0969 F   0  0  0  0  0  0
  -21.5620   -3.4529   25.7725 F   0  0  0  0  0  0
  -30.0493  -13.2033   20.4687 N   0  0  0  0  0  0
  -26.3070  -12.9213   20.3328 N   0  0  0  0  0  0
  -25.9299  -11.6412   20.5715 N   0  0  0  0  0  0
  -22.0542  -12.8294   22.0387 N   0  0  0  0  0  0
  -25.4658  -15.1811   20.4424 N   0  0  0  0  0  0
  -31.7422  -14.6925   20.0822 O   0  0  0  0  0  0
  -21.6619   -6.8879   21.4240 O   0  0  0  0  0  0
  -22.3709  -14.5630   20.6721 O   0  0  0  0  0  0
  -24.6093  -31.8709   23.2130 C   0  0  0  0  0  0
  -25.9004  -32.4844   23.8409 C   0  0  1  0  0  0
  -27.2428  -27.4810   20.0958 C   0  0  0  0  0  0
  -25.5882  -33.8643   24.2348 N   0  0  0  0  0  0
  -23.3962  -30.4923   21.5525 C   0  0  2  0  0  0
  -24.8460  -28.9593   20.1195 C   0  0  0  0  0  0
  -22.7382  -29.4664   22.5014 C   0  0  0  0  0  0
  -18.0264  -28.1372   22.8494 C   0  0  0  0  0  0
  -24.1485  -36.7328   23.2637 C   0  0  0  0  0  0
  -25.9190  -30.8493   21.3602 C   0  0  0  0  0  0
  -25.9996  -29.4835   20.7173 C   0  0  0  0  0  0
  -27.2012  -28.7481   20.7104 C   0  0  0  0  0  0
  -26.0813  -26.9592   19.4929 C   0  0  0  0  0  0
  -24.8784  -27.6917   19.5083 C   0  0  0  0  0  0
  -23.6040  -29.8195   20.1683 C   0  0  0  0  0  0
  -25.4105  -36.3129   24.0340 C   0  0  1  0  0  0
  -20.5853  -28.3650   23.1341 C   0  0  2  0  0  0
  -20.6762  -26.9388   22.5435 C   0  0  0  0  0  0
  -19.5742  -26.6381   21.5223 C   0  0  0  0  0  0
  -18.1918  -26.7917   22.1626 C   0  0  0  0  0  0
  -19.1510  -28.8830   23.2908 C   0  0  0  0  0  0
  -18.9439  -30.1440   23.8910 C   0  0  0  0  0  0
  -17.6444  -30.6585   24.0561 C   0  0  0  0  0  0
  -25.9025  -34.9491   23.5142 C   0  0  0  0  0  0
  -16.5336  -29.9087   23.6324 C   0  0  0  0  0  0
  -16.7253  -28.6502   23.0345 C   0  0  0  0  0  0
  -26.4453  -31.6608   25.0720 C   0  0  0  0  0  0
  -25.3739  -31.3695   26.1480 C   0  0  0  0  0  0
  -27.0273  -30.3056   24.6059 C   0  0  0  0  0  0
  -27.6035  -32.4324   25.7473 C   0  0  0  0  0  0
  -27.5582  -37.1820   24.8464 C   0  0  0  0  0  0
  -21.4117  -29.3018   22.3746 N   0  0  0  0  0  0
  -26.4300  -37.3809   23.9407 N   0  0  0  0  0  0
  -24.6594  -31.0840   22.1015 N   0  0  0  0  0  0
  -23.4171  -28.8219   23.3050 O   0  0  0  0  0  0
  -28.4099  -26.7656   20.0420 O   0  0  0  0  0  0
  -26.5584  -34.8926   22.4699 O   0  0  0  0  0  0
  -23.5296  -32.1438   23.7552 O   0  0  0  0  0  0
  -27.8715  -18.2731   21.6445 C   0  0  0  0  0  0
  -29.8759  -17.1961   20.0193 C   0  0  0  0  0  0
  -28.4461  -17.0337   22.0007 C   0  0  0  0  0  0
  -28.2318  -18.9396   20.4590 C   0  0  0  0  0  0
  -29.4713  -16.4806   21.1754 C   0  0  0  0  0  0
  -29.2591  -18.4061   19.6529 C   0  0  0  0  0  0
  -28.5104  -23.5896   21.1121 C   0  0  0  0  0  0
  -27.9857  -24.8022   21.3632 C   0  0  0  0  0  0
  -27.6762  -22.4080   21.1779 C   0  0  0  0  0  0
  -26.4509  -14.5051   23.9664 C   0  0  0  0  0  0
  -25.4610  -16.6513   23.3641 C   0  0  0  0  0  0
  -27.4752  -20.1972   20.0632 C   0  0  0  0  0  0
  -27.9377  -16.3599   23.2826 C   0  0  0  0  0  0
  -28.7524  -26.1012   21.2523 C   0  0  0  0  0  0
  -30.0514  -15.2142   21.4992 N   0  0  0  0  0  0
  -28.1738  -21.4238   20.4245 N   0  0  0  0  0  0
  -26.5956  -15.7237   23.1343 N   0  3  0  0  0  0
  -26.6123  -22.3159   21.7939 O   0  0  0  0  0  0
  -29.7746  -19.2067   18.2100 Cl  0  0  0  0  0  0
  -31.4740  -12.4088   19.0887 H   0  0  0  0  0  0
  -30.3543  -11.2498   19.7425 H   0  0  0  0  0  0
  -29.7266  -11.8228   17.3879 H   0  0  0  0  0  0
  -29.6638  -13.5213   17.7891 H   0  0  0  0  0  0
  -27.8074  -11.3215   18.7635 H   0  0  0  0  0  0
  -27.3635  -12.6929   17.7827 H   0  0  0  0  0  0
  -27.7438  -14.2434   19.6326 H   0  0  0  0  0  0
  -28.6714  -11.8190   21.2493 H   0  0  0  0  0  0
  -28.4568  -13.3975   21.9085 H   0  0  0  0  0  0
  -25.2754   -9.5672   22.4727 H   0  0  0  0  0  0
  -23.9989   -7.4628   22.7453 H   0  0  0  0  0  0
  -21.0811   -8.8769   19.8951 H   0  0  0  0  0  0
  -22.3679  -10.9655   19.6133 H   0  0  0  0  0  0
  -21.2018   -7.6144   23.9732 H   0  0  0  0  0  0
  -21.1465   -6.0496   25.9075 H   0  0  0  0  0  0
  -22.0617   -2.7610   23.2825 H   0  0  0  0  0  0
  -22.4067  -11.9885   22.4704 H   0  0  0  0  0  0
  -21.1172  -13.1358   22.2590 H   0  0  0  0  0  0
  -24.6051  -15.7075   20.3241 H   0  0  0  0  0  0
  -26.1464  -15.4695   19.7482 H   0  0  0  0  0  0
  -26.7083  -32.5580   23.1189 H   0  0  0  0  0  0
  -25.0048  -33.9816   25.0500 H   0  0  0  0  0  0
  -22.6830  -31.3071   21.4136 H   0  0  0  0  0  0
  -23.3741  -35.9669   23.3320 H   0  0  0  0  0  0
  -24.3574  -36.8918   22.2047 H   0  0  0  0  0  0
  -23.7242  -37.6545   23.6629 H   0  0  0  0  0  0
  -26.0200  -31.6121   20.5864 H   0  0  0  0  0  0
  -26.8110  -30.9109   21.9713 H   0  0  0  0  0  0
  -28.0948  -29.1547   21.1624 H   0  0  0  0  0  0
  -26.1114  -25.9898   19.0146 H   0  0  0  0  0  0
  -23.9917  -27.2817   19.0449 H   0  0  0  0  0  0
  -23.7046  -30.5914   19.4045 H   0  0  0  0  0  0
  -22.7301  -29.2326   19.8788 H   0  0  0  0  0  0
  -25.1284  -36.2009   25.0837 H   0  0  0  0  0  0
  -20.9935  -28.3223   24.1465 H   0  0  0  0  0  0
  -20.5672  -26.2251   23.3616 H   0  0  0  0  0  0
  -21.6637  -26.7451   22.1227 H   0  0  0  0  0  0
  -19.6900  -25.6293   21.1243 H   0  0  0  0  0  0
  -19.6681  -27.3206   20.6764 H   0  0  0  0  0  0
  -17.4187  -26.6665   21.4027 H   0  0  0  0  0  0
  -18.0307  -26.0053   22.9013 H   0  0  0  0  0  0
  -19.7915  -30.7251   24.2286 H   0  0  0  0  0  0
  -17.5004  -31.6270   24.5160 H   0  0  0  0  0  0
  -15.5340  -30.3000   23.7637 H   0  0  0  0  0  0
  -15.8646  -28.0830   22.7052 H   0  0  0  0  0  0
  -24.5902  -30.7054   25.7819 H   0  0  0  0  0  0
  -24.8939  -32.2846   26.4961 H   0  0  0  0  0  0
  -25.8109  -30.8841   27.0215 H   0  0  0  0  0  0
  -26.2802  -29.6834   24.1118 H   0  0  0  0  0  0
  -27.4061  -29.7273   25.4497 H   0  0  0  0  0  0
  -27.8629  -30.4385   23.9181 H   0  0  0  0  0  0
  -27.2652  -33.3604   26.2094 H   0  0  0  0  0  0
  -28.3813  -32.6923   25.0281 H   0  0  0  0  0  0
  -28.0738  -31.8428   26.5350 H   0  0  0  0  0  0
  -28.2621  -38.0099   24.7506 H   0  0  0  0  0  0
  -28.1060  -36.2634   24.6306 H   0  0  0  0  0  0
  -27.2295  -37.1494   25.8866 H   0  0  0  0  0  0
  -20.9261  -29.8746   21.6984 H   0  0  0  0  0  0
  -26.0195  -38.2894   24.1399 H   0  0  0  0  0  0
  -27.1205  -18.7235   22.2769 H   0  0  0  0  0  0
  -30.6536  -16.8229   19.3706 H   0  0  0  0  0  0
  -29.5544  -23.5051   20.8426 H   0  0  0  0  0  0
  -26.9431  -24.8989   21.6358 H   0  0  0  0  0  0
  -25.5003  -14.0088   23.7678 H   0  0  0  0  0  0
  -26.4893  -14.7483   25.0292 H   0  0  0  0  0  0
  -27.2348  -13.7773   23.7644 H   0  0  0  0  0  0
  -24.5106  -16.1198   23.3060 H   0  0  0  0  0  0
  -25.4175  -17.4301   22.6060 H   0  0  0  0  0  0
  -25.5191  -17.1212   24.3464 H   0  0  0  0  0  0
  -26.4759  -20.1608   20.5008 H   0  0  0  0  0  0
  -27.3088  -20.1983   18.9855 H   0  0  0  0  0  0
  -27.9178  -17.0922   24.0910 H   0  0  0  0  0  0
  -28.6663  -15.6179   23.6072 H   0  0  0  0  0  0
  -29.8231  -25.8949   21.2359 H   0  0  0  0  0  0
  -28.5659  -26.7205   22.1316 H   0  0  0  0  0  0
  -29.5349  -14.6860   22.1829 H   0  0  0  0  0  0
  -29.0521  -21.5963   19.9575 H   0  0  0  0  0  0
  -26.4904  -15.4312   22.1663 H   0  0  0  0  0  0
  1 25  1  0  0  0
  1 30  2  0  0  0
  1 85  1  0  0  0
  2  3  1  0  0  0
  2 25  1  0  0  0
  2 90  1  0  0  0
  2 91  1  0  0  0
  3  4  1  0  0  0
  3 92  1  0  0  0
  3 93  1  0  0  0
  4  5  1  0  0  0
  4 94  1  0  0  0
  4 95  1  0  0  0
  5  6  1  0  0  0
  5 26  1  0  0  0
  5 96  1  0  0  0
  6 25  1  0  0  0
  6 97  1  0  0  0
  6 98  1  0  0  0
  7  8  2  0  0  0
  7 26  1  0  0  0
  7 29  1  0  0  0
  8  9  1  0  0  0
  8 22  1  0  0  0
  9 10  1  0  0  0
  9 27  2  0  0  0
 10 11  2  0  0  0
 10 15  1  0  0  0
 11 12  1  0  0  0
 11 99  1  0  0  0
 12 13  2  0  0  0
 12100  1  0  0  0
 13 14  1  0  0  0
 13 31  1  0  0  0
 14 15  2  0  0  0
 14101  1  0  0  0
 15102  1  0  0  0
 16 17  2  0  0  0
 16 21  1  0  0  0
 16 31  1  0  0  0
 17 18  1  0  0  0
 17103  1  0  0  0
 18 19  2  0  0  0
 18104  1  0  0  0
 19 20  1  0  0  0
 19 24  1  0  0  0
 20 21  2  0  0  0
 20105  1  0  0  0
 21 23  1  0  0  0
 22 28  1  0  0  0
 22 32  2  0  0  0
 26 27  1  0  0  0
 28106  1  0  0  0
 28107  1  0  0  0
 29108  1  0  0  0
 29109  1  0  0  0
 33 34  1  0  0  0
 33 66  1  0  0  0
 33 70  2  0  0  0
 34 36  1  0  0  0
 34 59  1  0  0  0
 34110  1  0  0  0
 35 44  2  0  0  0
 35 45  1  0  0  0
 35 68  1  0  0  0
 36 56  1  0  0  0
 36111  1  0  0  0
 37 39  1  0  0  0
 37 47  1  0  0  0
 37 66  1  0  0  0
 37112  1  0  0  0
 38 43  2  0  0  0
 38 46  1  0  0  0
 38 47  1  0  0  0
 39 64  1  0  0  0
 39 67  2  0  0  0
 40 52  1  0  0  0
 40 53  2  0  0  0
 40 58  1  0  0  0
 41113  1  0  0  0
 41114  1  0  0  0
 41115  1  0  0  0
 41 48  1  0  0  0
 42 43  1  0  0  0
 42 66  1  0  0  0
 42116  1  0  0  0
 42117  1  0  0  0
 43 44  1  0  0  0
 44118  1  0  0  0
 45 46  2  0  0  0
 45119  1  0  0  0
 46120  1  0  0  0
 47121  1  0  0  0
 47122  1  0  0  0
 48 56  1  0  0  0
 48 65  1  0  0  0
 48123  1  0  0  0
 49 50  1  0  0  0
 49 53  1  0  0  0
 49 64  1  0  0  0
 49124  1  0  0  0
 50 51  1  0  0  0
 50125  1  0  0  0
 50126  1  0  0  0
 51 52  1  0  0  0
 51127  1  0  0  0
 51128  1  0  0  0
 52129  1  0  0  0
 52130  1  0  0  0
 53 54  1  0  0  0
 54 55  2  0  0  0
 54131  1  0  0  0
 55 57  1  0  0  0
 55132  1  0  0  0
 56 69  2  0  0  0
 57 58  2  0  0  0
 57133  1  0  0  0
 58134  1  0  0  0
 59 60  1  0  0  0
 59 61  1  0  0  0
 59 62  1  0  0  0
 60135  1  0  0  0
 60136  1  0  0  0
 60137  1  0  0  0
 61138  1  0  0  0
 61139  1  0  0  0
 61140  1  0  0  0
 62141  1  0  0  0
 62142  1  0  0  0
 62143  1  0  0  0
 63 65  1  0  0  0
 63144  1  0  0  0
 63145  1  0  0  0
 63146  1  0  0  0
 64147  1  0  0  0
 65148  1  0  0  0
 68 84  1  0  0  0
 71 73  2  0  0  0
 71 74  1  0  0  0
 71149  1  0  0  0
 72 75  2  0  0  0
 72 76  1  0  0  0
 72150  1  0  0  0
 73 75  1  0  0  0
 73 83  1  0  0  0
 74 76  2  0  0  0
 74 82  1  0  0  0
 75 85  1  0  0  0
 76 89  1  0  0  0
 77 78  2  0  0  0
 77 79  1  0  0  0
 77151  1  0  0  0
 78 84  1  0  0  0
 78152  1  0  0  0
 79 86  1  0  0  0
 79 88  2  0  0  0
 80153  1  0  0  0
 80154  1  0  0  0
 80155  1  0  0  0
 80 87  1  0  0  0
 81 87  1  0  0  0
 81156  1  0  0  0
 81157  1  0  0  0
 81158  1  0  0  0
 82 86  1  0  0  0
 82159  1  0  0  0
 82160  1  0  0  0
 83 87  1  0  0  0
 83161  1  0  0  0
 83162  1  0  0  0
 84163  1  0  0  0
 84164  1  0  0  0
 85165  1  0  0  0
 86166  1  0  0  0
 87167  1  0  0  0
M  CHG  1  87   1
M  ISO  4   1 100  68 101  84 101  85 100
M  END
> <chiral flag>
0

> <version>
0

> <s_m_source_file>
/data/baiqing/PycharmProjects/Reinvent-master-3.2/result/LINK_invent/BTK/process_docking_weight1_custom_product_contain_oxygen_bond_distance_aromatic_linkinvent_7_9_3/rearranged_h_0052.sdf

> <i_m_source_file_index>
92

> <r_mmod_Potential_Energy-OPLS-2005>
-293.782440185547

> <r_mmod_Stretch_Energy-OPLS-2005>
34.6829605102539

> <r_mmod_Bend_Energy-OPLS-2005>
88.0077743530273

> <r_mmod_Torsional_Energy-OPLS-2005>
262.741149902344

> <r_mmod_Improper_Torsional_Energy-OPLS-2005>
10.5988349914551

> <r_mmod_Van_der_Waal_Energy-OPLS-2005>
144.604202270508

> <r_mmod_Electrostatic_Energy-OPLS-2005>
-364.874420166016

> <r_mmod_Solvation_Energy-OPLS-2005>
-477.326019287109

> <b_mmod_Minimization_Converged-OPLS-2005>
0

> <r_mmod_RMS_Derivative-OPLS-2005>
1.11285424232483

$$$$
92
                    3D
 Structure written by MMmdl.
154162  0  0  1  0            999 V2000
  -30.5432  -15.0482   20.4085 C   0  0  0  0  0  0
  -30.4339  -12.6609   19.5143 C   0  0  0  0  0  0
  -29.5317  -12.5522   18.2632 C   0  0  0  0  0  0
  -28.0680  -12.3131   18.6793 C   0  0  0  0  0  0
  -27.6198  -13.2625   19.8208 C   0  0  2  0  0  0
  -28.6563  -13.3633   20.9610 C   0  0  0  0  0  0
  -25.2452  -13.8216   20.5687 C   0  0  0  0  0  0
  -24.1781  -13.0408   20.9185 C   0  0  0  0  0  0
  -24.6425  -11.6921   20.8720 C   0  0  0  0  0  0
  -23.9102  -10.4295   21.0410 C   0  0  0  0  0  0
  -24.3643   -9.4199   21.9176 C   0  0  0  0  0  0
  -23.6277   -8.2255   22.0766 C   0  0  0  0  0  0
  -22.4260   -8.0295   21.3562 C   0  0  0  0  0  0
  -21.9919   -9.0274   20.4666 C   0  0  0  0  0  0
  -22.7276  -10.2139   20.3057 C   0  0  0  0  0  0
  -21.6850   -6.0747   22.5284 C   0  0  0  0  0  0
  -21.4039   -6.5658   23.8222 C   0  0  0  0  0  0
  -21.3646   -5.6801   24.9174 C   0  0  0  0  0  0
  -21.6021   -4.3066   24.7233 C   0  0  0  0  0  0
  -21.8811   -3.8162   23.4363 C   0  0  0  0  0  0
  -21.9195   -4.6974   22.3415 C   0  0  0  0  0  0
  -22.7817  -13.5198   21.1823 C   0  0  0  0  0  0
  -22.1664   -4.2165   21.0989 F   0  0  0  0  0  0
  -21.5590   -3.4541   25.7748 F   0  0  0  0  0  0
  -29.9201  -13.7925   20.3497 N   0  0  0  0  0  0
  -26.2862  -12.9462   20.3162 N   0  0  0  0  0  0
  -25.9355  -11.6588   20.5686 N   0  0  0  0  0  0
  -22.0464  -12.8212   22.0421 N   0  0  0  0  0  0
  -25.4022  -15.1936   20.4121 N   0  0  0  0  0  0
  -31.7600  -15.0398   20.1890 O   0  0  0  0  0  0
  -21.6613   -6.8895   21.4254 O   0  0  0  0  0  0
  -22.3510  -14.5483   20.6634 O   0  0  0  0  0  0
  -24.6478  -31.8384   23.1842 C   0  0  0  0  0  0
  -25.9233  -32.4644   23.8250 C   0  0  1  0  0  0
  -27.2069  -27.0519   20.1702 C   0  0  0  0  0  0
  -25.5955  -33.8457   24.2129 N   0  0  0  0  0  0
  -23.4591  -30.4536   21.5296 C   0  0  2  0  0  0
  -24.9146  -28.8750   20.1058 C   0  0  0  0  0  0
  -22.7604  -29.4484   22.4808 C   0  0  0  0  0  0
  -18.0309  -28.1425   22.8475 C   0  0  0  0  0  0
  -24.1490  -36.7238   23.2641 C   0  0  0  0  0  0
  -26.0229  -30.6781   21.4073 C   0  0  0  0  0  0
  -26.0906  -29.2832   20.7499 C   0  0  0  0  0  0
  -27.2351  -28.3846   20.7750 C   0  0  0  0  0  0
  -26.0142  -26.7840   19.4595 C   0  0  0  0  0  0
  -24.8931  -27.6412   19.4440 C   0  0  0  0  0  0
  -23.6964  -29.7872   20.1473 C   0  0  0  0  0  0
  -25.4130  -36.2991   24.0289 C   0  0  1  0  0  0
  -20.5929  -28.3761   23.1206 C   0  0  2  0  0  0
  -20.6812  -26.9439   22.5416 C   0  0  0  0  0  0
  -19.5778  -26.6387   21.5236 C   0  0  0  0  0  0
  -18.1951  -26.7949   22.1630 C   0  0  0  0  0  0
  -19.1572  -28.8907   23.2844 C   0  0  0  0  0  0
  -18.9479  -30.1500   23.8866 C   0  0  0  0  0  0
  -17.6473  -30.6621   24.0558 C   0  0  0  0  0  0
  -25.9068  -34.9374   23.5020 C   0  0  0  0  0  0
  -16.5365  -29.9113   23.6348 C   0  0  0  0  0  0
  -16.7286  -28.6540   23.0354 C   0  0  0  0  0  0
  -26.4547  -31.6547   25.0735 C   0  0  0  0  0  0
  -25.3689  -31.3836   26.1407 C   0  0  0  0  0  0
  -27.0421  -30.2894   24.6421 C   0  0  0  0  0  0
  -27.6029  -32.4380   25.7561 C   0  0  0  0  0  0
  -27.5561  -37.1772   24.8458 C   0  0  0  0  0  0
  -21.4285  -29.3062   22.3557 N   0  0  0  0  0  0
  -26.4273  -37.3724   23.9394 N   0  0  0  0  0  0
  -24.7302  -31.0136   22.0944 N   0  0  0  0  0  0
  -23.4198  -28.8012   23.2974 O   0  0  0  0  0  0
  -28.1853  -25.9618   20.2335 O   0  0  0  0  0  0
  -26.5686  -34.8884   22.4608 O   0  0  0  0  0  0
  -23.5572  -32.1314   23.6960 O   0  0  0  0  0  0
  -30.4075  -22.4021   19.8329 C   0  0  0  0  0  0
  -31.4922  -21.5224   19.7215 C   0  0  0  0  0  0
  -29.1600  -21.9658   20.2901 C   0  0  0  0  0  0
  -31.4274  -20.1396   20.0183 C   0  0  0  0  0  0
  -29.0778  -20.4520   20.5151 C   0  0  0  0  0  0
  -30.2015  -19.4499   20.3456 C   0  0  0  0  0  0
  -28.0757  -23.1600   20.5099 C   0  0  0  0  0  0
  -27.7230  -24.5699   20.4932 C   0  0  0  0  0  0
  -32.8140  -19.4800   19.9988 C   0  0  0  0  0  0
  -27.7678  -19.8826   21.0310 C   0  0  0  0  0  0
  -30.4774  -17.7794   20.6325 C   0  0  0  0  0  0
  -29.8442  -16.3103   20.5186 N   0  0  0  0  0  0
  -31.4740  -12.8038   19.2165 H   0  0  0  0  0  0
  -30.4236  -11.7291   20.0821 H   0  0  0  0  0  0
  -29.8768  -11.7528   17.6056 H   0  0  0  0  0  0
  -29.6023  -13.4748   17.6865 H   0  0  0  0  0  0
  -27.9880  -11.2762   19.0089 H   0  0  0  0  0  0
  -27.4079  -12.4146   17.8182 H   0  0  0  0  0  0
  -27.5544  -14.2471   19.3566 H   0  0  0  0  0  0
  -28.7698  -12.4124   21.4853 H   0  0  0  0  0  0
  -28.3358  -14.0948   21.7052 H   0  0  0  0  0  0
  -25.2813   -9.5628   22.4727 H   0  0  0  0  0  0
  -23.9955   -7.4653   22.7512 H   0  0  0  0  0  0
  -21.0828   -8.8827   19.9005 H   0  0  0  0  0  0
  -22.3757  -10.9663   19.6148 H   0  0  0  0  0  0
  -21.2079   -7.6177   23.9729 H   0  0  0  0  0  0
  -21.1437   -6.0542   25.9067 H   0  0  0  0  0  0
  -22.0603   -2.7625   23.2864 H   0  0  0  0  0  0
  -22.4083  -11.9901   22.4856 H   0  0  0  0  0  0
  -21.1079  -13.1276   22.2570 H   0  0  0  0  0  0
  -24.6200  -15.8330   20.5065 H   0  0  0  0  0  0
  -26.2377  -15.6471   20.0677 H   0  0  0  0  0  0
  -26.7278  -32.5222   23.0958 H   0  0  0  0  0  0
  -25.0099  -33.9604   25.0267 H   0  0  0  0  0  0
  -22.7661  -31.2833   21.3694 H   0  0  0  0  0  0
  -23.3735  -35.9584   23.3303 H   0  0  0  0  0  0
  -24.3564  -36.8881   22.2054 H   0  0  0  0  0  0
  -23.7262  -37.6428   23.6709 H   0  0  0  0  0  0
  -26.1933  -31.4244   20.6313 H   0  0  0  0  0  0
  -26.8878  -30.7276   22.0572 H   0  0  0  0  0  0
  -28.1173  -28.6837   21.3219 H   0  0  0  0  0  0
  -25.9170  -25.8448   18.9367 H   0  0  0  0  0  0
  -24.0056  -27.3335   18.9101 H   0  0  0  0  0  0
  -23.8438  -30.5683   19.4001 H   0  0  0  0  0  0
  -22.8139  -29.2340   19.8219 H   0  0  0  0  0  0
  -25.1306  -36.1816   25.0776 H   0  0  0  0  0  0
  -21.0007  -28.3388   24.1340 H   0  0  0  0  0  0
  -20.5749  -26.2365   23.3654 H   0  0  0  0  0  0
  -21.6675  -26.7483   22.1186 H   0  0  0  0  0  0
  -19.6965  -25.6293   21.1298 H   0  0  0  0  0  0
  -19.6741  -27.3185   20.6747 H   0  0  0  0  0  0
  -17.4231  -26.6678   21.4029 H   0  0  0  0  0  0
  -18.0353  -26.0119   22.9044 H   0  0  0  0  0  0
  -19.7966  -30.7326   24.2218 H   0  0  0  0  0  0
  -17.5042  -31.6289   24.5180 H   0  0  0  0  0  0
  -15.5374  -30.3013   23.7706 H   0  0  0  0  0  0
  -15.8678  -28.0858   22.7086 H   0  0  0  0  0  0
  -24.5843  -30.7210   25.7745 H   0  0  0  0  0  0
  -24.8940  -32.3084   26.4707 H   0  0  0  0  0  0
  -25.7938  -30.9095   27.0257 H   0  0  0  0  0  0
  -26.3064  -29.6605   24.1385 H   0  0  0  0  0  0
  -27.3899  -29.7242   25.5081 H   0  0  0  0  0  0
  -27.9056  -30.4062   23.9857 H   0  0  0  0  0  0
  -27.2507  -33.3669   26.2073 H   0  0  0  0  0  0
  -28.3891  -32.6949   25.0447 H   0  0  0  0  0  0
  -28.0630  -31.8554   26.5552 H   0  0  0  0  0  0
  -28.2542  -38.0088   24.7454 H   0  0  0  0  0  0
  -28.1068  -36.2602   24.6327 H   0  0  0  0  0  0
  -27.2273  -37.1467   25.8856 H   0  0  0  0  0  0
  -20.9500  -29.8744   21.6698 H   0  0  0  0  0  0
  -26.0114  -38.2768   24.1426 H   0  0  0  0  0  0
  -30.5620  -23.4489   19.6018 H   0  0  0  0  0  0
  -32.4422  -21.9526   19.4340 H   0  0  0  0  0  0
  -27.1766  -22.6548   20.8217 H   0  0  0  0  0  0
  -26.6955  -24.6820   20.8146 H   0  0  0  0  0  0
  -33.5424  -20.1532   20.4653 H   0  0  0  0  0  0
  -33.1493  -19.3197   18.9677 H   0  0  0  0  0  0
  -32.9096  -18.5485   20.5615 H   0  0  0  0  0  0
  -27.6048  -18.8848   20.6144 H   0  0  0  0  0  0
  -26.9030  -20.4945   20.7578 H   0  0  0  0  0  0
  -27.8075  -19.7979   22.1231 H   0  0  0  0  0  0
  -31.0665  -17.7469   21.5505 H   0  0  0  0  0  0
  -31.1745  -17.6021   19.8166 H   0  0  0  0  0  0
  -28.8427  -16.2450   20.6254 H   0  0  0  0  0  0
  1 25  1  0  0  0
  1 30  2  0  0  0
  1 82  1  0  0  0
  2  3  1  0  0  0
  2 25  1  0  0  0
  2 83  1  0  0  0
  2 84  1  0  0  0
  3  4  1  0  0  0
  3 85  1  0  0  0
  3 86  1  0  0  0
  4  5  1  0  0  0
  4 87  1  0  0  0
  4 88  1  0  0  0
  5  6  1  0  0  0
  5 26  1  0  0  0
  5 89  1  0  0  0
  6 25  1  0  0  0
  6 90  1  0  0  0
  6 91  1  0  0  0
  7  8  2  0  0  0
  7 26  1  0  0  0
  7 29  1  0  0  0
  8  9  1  0  0  0
  8 22  1  0  0  0
  9 10  1  0  0  0
  9 27  2  0  0  0
 10 11  2  0  0  0
 10 15  1  0  0  0
 11 12  1  0  0  0
 11 92  1  0  0  0
 12 13  2  0  0  0
 12 93  1  0  0  0
 13 14  1  0  0  0
 13 31  1  0  0  0
 14 15  2  0  0  0
 14 94  1  0  0  0
 15 95  1  0  0  0
 16 17  2  0  0  0
 16 21  1  0  0  0
 16 31  1  0  0  0
 17 18  1  0  0  0
 17 96  1  0  0  0
 18 19  2  0  0  0
 18 97  1  0  0  0
 19 20  1  0  0  0
 19 24  1  0  0  0
 20 21  2  0  0  0
 20 98  1  0  0  0
 21 23  1  0  0  0
 22 28  1  0  0  0
 22 32  2  0  0  0
 26 27  1  0  0  0
 28 99  1  0  0  0
 28100  1  0  0  0
 29101  1  0  0  0
 29102  1  0  0  0
 33 34  1  0  0  0
 33 66  1  0  0  0
 33 70  2  0  0  0
 34 36  1  0  0  0
 34 59  1  0  0  0
 34103  1  0  0  0
 35 44  2  0  0  0
 35 45  1  0  0  0
 35 68  1  0  0  0
 36 56  1  0  0  0
 36104  1  0  0  0
 37 39  1  0  0  0
 37 47  1  0  0  0
 37 66  1  0  0  0
 37105  1  0  0  0
 38 43  2  0  0  0
 38 46  1  0  0  0
 38 47  1  0  0  0
 39 64  1  0  0  0
 39 67  2  0  0  0
 40 52  1  0  0  0
 40 53  2  0  0  0
 40 58  1  0  0  0
 41106  1  0  0  0
 41107  1  0  0  0
 41108  1  0  0  0
 41 48  1  0  0  0
 42 43  1  0  0  0
 42 66  1  0  0  0
 42109  1  0  0  0
 42110  1  0  0  0
 43 44  1  0  0  0
 44111  1  0  0  0
 45 46  2  0  0  0
 45112  1  0  0  0
 46113  1  0  0  0
 47114  1  0  0  0
 47115  1  0  0  0
 48 56  1  0  0  0
 48 65  1  0  0  0
 48116  1  0  0  0
 49 50  1  0  0  0
 49 53  1  0  0  0
 49 64  1  0  0  0
 49117  1  0  0  0
 50 51  1  0  0  0
 50118  1  0  0  0
 50119  1  0  0  0
 51 52  1  0  0  0
 51120  1  0  0  0
 51121  1  0  0  0
 52122  1  0  0  0
 52123  1  0  0  0
 53 54  1  0  0  0
 54 55  2  0  0  0
 54124  1  0  0  0
 55 57  1  0  0  0
 55125  1  0  0  0
 56 69  2  0  0  0
 57 58  2  0  0  0
 57126  1  0  0  0
 58127  1  0  0  0
 59 60  1  0  0  0
 59 61  1  0  0  0
 59 62  1  0  0  0
 60128  1  0  0  0
 60129  1  0  0  0
 60130  1  0  0  0
 61131  1  0  0  0
 61132  1  0  0  0
 61133  1  0  0  0
 62134  1  0  0  0
 62135  1  0  0  0
 62136  1  0  0  0
 63 65  1  0  0  0
 63137  1  0  0  0
 63138  1  0  0  0
 63139  1  0  0  0
 64140  1  0  0  0
 65141  1  0  0  0
 68 78  1  0  0  0
 71 72  2  0  0  0
 71 73  1  0  0  0
 71142  1  0  0  0
 72 74  1  0  0  0
 72143  1  0  0  0
 73 75  2  0  0  0
 73 77  1  0  0  0
 74 76  2  0  0  0
 74 79  1  0  0  0
 75 76  1  0  0  0
 75 80  1  0  0  0
 76 81  1  0  0  0
 77 78  2  0  0  0
 77144  1  0  0  0
 78145  1  0  0  0
 79146  1  0  0  0
 79147  1  0  0  0
 79148  1  0  0  0
 80149  1  0  0  0
 80150  1  0  0  0
 80151  1  0  0  0
 81 82  1  0  0  0
 81152  1  0  0  0
 81153  1  0  0  0
 82154  1  0  0  0
M  ISO  4   1 100  68 101  78 101  82 100
M  END
> <chiral flag>
0

> <version>
0

> <s_m_source_file>
/data/baiqing/PycharmProjects/Reinvent-master-3.2/result/LINK_invent/BTK/process_docking_weight1_custom_product_contain_oxygen_bond_distance_aromatic_linkinvent_7_9_3/rearranged_h_0052.sdf

> <i_m_source_file_index>
93

> <r_mmod_Potential_Energy-OPLS-2005>
879.88720703125

> <r_mmod_Stretch_Energy-OPLS-2005>
358.984771728516

> <r_mmod_Bend_Energy-OPLS-2005>
490.525512695312

> <r_mmod_Torsional_Energy-OPLS-2005>
210.437850952148

> <r_mmod_Improper_Torsional_Energy-OPLS-2005>
5.22942543029785

> <r_mmod_Van_der_Waal_Energy-OPLS-2005>
146.227767944336

> <r_mmod_Electrostatic_Energy-OPLS-2005>
-407.197814941406

> <r_mmod_Solvation_Energy-OPLS-2005>
-208.484039306641

> <b_mmod_Minimization_Converged-OPLS-2005>
0

> <r_mmod_RMS_Derivative-OPLS-2005>
5.12093305587769

$$$$
93
                    3D
 Structure written by MMmdl.
146154  0  0  1  0            999 V2000
  -30.2779  -15.7304   20.3301 C   0  0  0  0  0  0
  -30.4139  -13.1553   19.5340 C   0  0  0  0  0  0
  -29.5477  -12.6723   18.3336 C   0  0  0  0  0  0
  -28.1351  -12.2890   18.7952 C   0  0  0  0  0  0
  -27.5914  -13.3134   19.8137 C   0  0  2  0  0  0
  -28.6028  -13.6977   20.9215 C   0  0  0  0  0  0
  -25.2307  -13.8285   20.5829 C   0  0  0  0  0  0
  -24.1695  -13.0430   20.9302 C   0  0  0  0  0  0
  -24.6397  -11.6941   20.8769 C   0  0  0  0  0  0
  -23.9102  -10.4287   21.0394 C   0  0  0  0  0  0
  -24.3639   -9.4201   21.9178 C   0  0  0  0  0  0
  -23.6305   -8.2238   22.0749 C   0  0  0  0  0  0
  -22.4285   -8.0282   21.3543 C   0  0  0  0  0  0
  -21.9933   -9.0254   20.4641 C   0  0  0  0  0  0
  -22.7269  -10.2127   20.3051 C   0  0  0  0  0  0
  -21.6858   -6.0737   22.5278 C   0  0  0  0  0  0
  -21.4021   -6.5642   23.8211 C   0  0  0  0  0  0
  -21.3660   -5.6795   24.9175 C   0  0  0  0  0  0
  -21.6045   -4.3056   24.7227 C   0  0  0  0  0  0
  -21.8817   -3.8146   23.4347 C   0  0  0  0  0  0
  -21.9201   -4.6964   22.3402 C   0  0  0  0  0  0
  -22.7709  -13.5157   21.1936 C   0  0  0  0  0  0
  -22.1665   -4.2152   21.0980 F   0  0  0  0  0  0
  -21.5627   -3.4539   25.7739 F   0  0  0  0  0  0
  -29.7558  -14.3517   20.2491 N   0  0  0  0  0  0
  -26.2763  -12.9621   20.3291 N   0  0  0  0  0  0
  -25.9349  -11.6683   20.5719 N   0  0  0  0  0  0
  -22.0387  -12.8129   22.0490 N   0  0  0  0  0  0
  -25.3891  -15.2027   20.4255 N   0  0  0  0  0  0
  -31.5145  -15.6198   20.2021 O   0  0  0  0  0  0
  -21.6646   -6.8879   21.4238 O   0  0  0  0  0  0
  -22.3383  -14.5457   20.6777 O   0  0  0  0  0  0
  -24.6890  -31.7924   23.1463 C   0  0  0  0  0  0
  -25.9454  -32.4423   23.8031 C   0  0  1  0  0  0
  -27.2292  -26.6287   20.2342 C   0  0  0  0  0  0
  -25.6000  -33.8246   24.1904 N   0  0  0  0  0  0
  -23.5176  -30.3891   21.5037 C   0  0  2  0  0  0
  -24.9758  -28.7091   20.1287 C   0  0  0  0  0  0
  -22.7783  -29.4274   22.4733 C   0  0  0  0  0  0
  -18.0326  -28.1434   22.8467 C   0  0  0  0  0  0
  -24.1477  -36.7103   23.2655 C   0  0  0  0  0  0
  -26.1003  -30.4983   21.4255 C   0  0  0  0  0  0
  -26.1639  -29.0519   20.7855 C   0  0  0  0  0  0
  -27.2708  -28.0401   20.8068 C   0  0  0  0  0  0
  -26.0114  -26.5156   19.5144 C   0  0  0  0  0  0
  -24.9413  -27.4668   19.4702 C   0  0  0  0  0  0
  -23.7742  -29.6722   20.1454 C   0  0  0  0  0  0
  -25.4134  -36.2858   24.0277 C   0  0  1  0  0  0
  -20.5965  -28.3770   23.1153 C   0  0  2  0  0  0
  -20.6784  -26.9433   22.5414 C   0  0  0  0  0  0
  -19.5748  -26.6388   21.5225 C   0  0  0  0  0  0
  -18.1941  -26.7961   22.1640 C   0  0  0  0  0  0
  -19.1599  -28.8941   23.2774 C   0  0  0  0  0  0
  -18.9506  -30.1532   23.8805 C   0  0  0  0  0  0
  -17.6492  -30.6616   24.0562 C   0  0  0  0  0  0
  -25.9131  -34.9259   23.4928 C   0  0  0  0  0  0
  -16.5380  -29.9094   23.6375 C   0  0  0  0  0  0
  -16.7309  -28.6523   23.0385 C   0  0  0  0  0  0
  -26.4601  -31.6488   25.0685 C   0  0  0  0  0  0
  -25.3652  -31.3844   26.1295 C   0  0  0  0  0  0
  -27.0554  -30.2817   24.6654 C   0  0  0  0  0  0
  -27.6030  -32.4373   25.7512 C   0  0  0  0  0  0
  -27.5545  -37.1705   24.8472 C   0  0  0  0  0  0
  -21.4431  -29.2994   22.3468 N   0  0  0  0  0  0
  -26.4249  -37.3637   23.9420 N   0  0  0  0  0  0
  -24.7931  -30.9298   22.0759 N   0  0  0  0  0  0
  -23.4195  -28.7911   23.3129 O   0  0  0  0  0  0
  -28.2256  -25.4100   20.2165 O   0  0  0  0  0  0
  -26.5790  -34.8857   22.4560 O   0  0  0  0  0  0
  -23.5898  -32.1050   23.6374 O   0  0  0  0  0  0
  -29.2198  -20.0811   22.9031 C   0  0  0  0  0  0
  -28.3010  -20.3303   21.8592 C   0  0  0  0  0  0
  -30.5192  -19.6131   22.6034 C   0  0  0  0  0  0
  -28.8198  -20.2840   20.5533 C   0  0  0  0  0  0
  -29.7156  -18.8739   20.4547 C   0  0  0  0  0  0
  -30.8038  -19.0629   21.3362 C   0  0  0  0  0  0
  -28.8982  -22.1397   20.1407 C   0  0  0  0  0  0
  -29.5268  -17.1305   20.3259 N   0  0  0  0  0  0
  -27.9171  -23.5786   20.4182 N   0  0  0  0  0  0
  -32.3651  -18.3788   21.0643 Cl  0  0  0  0  0  0
  -31.3966  -13.4310   19.1510 H   0  0  0  0  0  0
  -30.6023  -12.3347   20.2291 H   0  0  0  0  0  0
  -30.0224  -11.8286   17.8305 H   0  0  0  0  0  0
  -29.4798  -13.4733   17.5965 H   0  0  0  0  0  0
  -28.1953  -11.3073   19.2682 H   0  0  0  0  0  0
  -27.4601  -12.1844   17.9454 H   0  0  0  0  0  0
  -27.4376  -14.2152   19.2190 H   0  0  0  0  0  0
  -28.8906  -12.8362   21.5259 H   0  0  0  0  0  0
  -28.1516  -14.4154   21.6081 H   0  0  0  0  0  0
  -25.2778   -9.5690   22.4765 H   0  0  0  0  0  0
  -24.0020   -7.4631   22.7471 H   0  0  0  0  0  0
  -21.0869   -8.8768   19.8946 H   0  0  0  0  0  0
  -22.3717  -10.9663   19.6167 H   0  0  0  0  0  0
  -21.2004   -7.6151   23.9715 H   0  0  0  0  0  0
  -21.1489   -6.0527   25.9080 H   0  0  0  0  0  0
  -22.0595   -2.7612   23.2846 H   0  0  0  0  0  0
  -22.4047  -11.9801   22.4858 H   0  0  0  0  0  0
  -21.0996  -13.1114   22.2710 H   0  0  0  0  0  0
  -24.6135  -15.8488   20.5268 H   0  0  0  0  0  0
  -26.2323  -15.6456   20.0864 H   0  0  0  0  0  0
  -26.7548  -32.4889   23.0752 H   0  0  0  0  0  0
  -25.0009  -33.9261   24.9963 H   0  0  0  0  0  0
  -22.8440  -31.2257   21.3065 H   0  0  0  0  0  0
  -23.3769  -35.9405   23.3280 H   0  0  0  0  0  0
  -24.3525  -36.8805   22.2075 H   0  0  0  0  0  0
  -23.7218  -37.6258   23.6762 H   0  0  0  0  0  0
  -26.3127  -31.2150   20.6306 H   0  0  0  0  0  0
  -26.9478  -30.5724   22.0951 H   0  0  0  0  0  0
  -28.1710  -28.3174   21.3378 H   0  0  0  0  0  0
  -25.8498  -25.5825   18.9940 H   0  0  0  0  0  0
  -24.0494  -27.1939   18.9226 H   0  0  0  0  0  0
  -23.9445  -30.4231   19.3731 H   0  0  0  0  0  0
  -22.8784  -29.1346   19.8301 H   0  0  0  0  0  0
  -25.1351  -36.1585   25.0767 H   0  0  0  0  0  0
  -21.0040  -28.3401   24.1283 H   0  0  0  0  0  0
  -20.5617  -26.2404   23.3679 H   0  0  0  0  0  0
  -21.6642  -26.7344   22.1248 H   0  0  0  0  0  0
  -19.6879  -25.6284   21.1292 H   0  0  0  0  0  0
  -19.6691  -27.3170   20.6738 H   0  0  0  0  0  0
  -17.4203  -26.6709   21.4053 H   0  0  0  0  0  0
  -18.0314  -26.0120   22.9053 H   0  0  0  0  0  0
  -19.7974  -30.7389   24.2118 H   0  0  0  0  0  0
  -17.5037  -31.6287   24.5175 H   0  0  0  0  0  0
  -15.5373  -30.2968   23.7762 H   0  0  0  0  0  0
  -15.8706  -28.0820   22.7152 H   0  0  0  0  0  0
  -24.5852  -30.7154   25.7623 H   0  0  0  0  0  0
  -24.8818  -32.3083   26.4483 H   0  0  0  0  0  0
  -25.7828  -30.9178   27.0227 H   0  0  0  0  0  0
  -26.3291  -29.6411   24.1638 H   0  0  0  0  0  0
  -27.3934  -29.7282   25.5426 H   0  0  0  0  0  0
  -27.9295  -30.3921   24.0236 H   0  0  0  0  0  0
  -27.2547  -33.3757   26.1843 H   0  0  0  0  0  0
  -28.3983  -32.6802   25.0450 H   0  0  0  0  0  0
  -28.0545  -31.8662   26.5637 H   0  0  0  0  0  0
  -28.2544  -38.0016   24.7530 H   0  0  0  0  0  0
  -28.1060  -36.2546   24.6292 H   0  0  0  0  0  0
  -27.2260  -37.1334   25.8872 H   0  0  0  0  0  0
  -20.9771  -29.8582   21.6456 H   0  0  0  0  0  0
  -26.0056  -38.2672   24.1451 H   0  0  0  0  0  0
  -28.9821  -20.3994   23.9092 H   0  0  0  0  0  0
  -27.4904  -21.0023   22.1067 H   0  0  0  0  0  0
  -31.2794  -19.5994   23.3713 H   0  0  0  0  0  0
  -29.1049  -22.1574   19.0704 H   0  0  0  0  0  0
  -29.8501  -22.4210   20.5915 H   0  0  0  0  0  0
  -28.5438  -16.9142   20.2496 H   0  0  0  0  0  0
  -27.3945  -23.4757   21.2837 H   0  0  0  0  0  0
  1 25  1  0  0  0
  1 30  2  0  0  0
  1 78  1  0  0  0
  2  3  1  0  0  0
  2 25  1  0  0  0
  2 81  1  0  0  0
  2 82  1  0  0  0
  3  4  1  0  0  0
  3 83  1  0  0  0
  3 84  1  0  0  0
  4  5  1  0  0  0
  4 85  1  0  0  0
  4 86  1  0  0  0
  5  6  1  0  0  0
  5 26  1  0  0  0
  5 87  1  0  0  0
  6 25  1  0  0  0
  6 88  1  0  0  0
  6 89  1  0  0  0
  7  8  2  0  0  0
  7 26  1  0  0  0
  7 29  1  0  0  0
  8  9  1  0  0  0
  8 22  1  0  0  0
  9 10  1  0  0  0
  9 27  2  0  0  0
 10 11  2  0  0  0
 10 15  1  0  0  0
 11 12  1  0  0  0
 11 90  1  0  0  0
 12 13  2  0  0  0
 12 91  1  0  0  0
 13 14  1  0  0  0
 13 31  1  0  0  0
 14 15  2  0  0  0
 14 92  1  0  0  0
 15 93  1  0  0  0
 16 17  2  0  0  0
 16 21  1  0  0  0
 16 31  1  0  0  0
 17 18  1  0  0  0
 17 94  1  0  0  0
 18 19  2  0  0  0
 18 95  1  0  0  0
 19 20  1  0  0  0
 19 24  1  0  0  0
 20 21  2  0  0  0
 20 96  1  0  0  0
 21 23  1  0  0  0
 22 28  1  0  0  0
 22 32  2  0  0  0
 26 27  1  0  0  0
 28 97  1  0  0  0
 28 98  1  0  0  0
 29 99  1  0  0  0
 29100  1  0  0  0
 33 34  1  0  0  0
 33 66  1  0  0  0
 33 70  2  0  0  0
 34 36  1  0  0  0
 34 59  1  0  0  0
 34101  1  0  0  0
 35 44  2  0  0  0
 35 45  1  0  0  0
 35 68  1  0  0  0
 36 56  1  0  0  0
 36102  1  0  0  0
 37 39  1  0  0  0
 37 47  1  0  0  0
 37 66  1  0  0  0
 37103  1  0  0  0
 38 43  2  0  0  0
 38 46  1  0  0  0
 38 47  1  0  0  0
 39 64  1  0  0  0
 39 67  2  0  0  0
 40 52  1  0  0  0
 40 53  2  0  0  0
 40 58  1  0  0  0
 41104  1  0  0  0
 41105  1  0  0  0
 41106  1  0  0  0
 41 48  1  0  0  0
 42 43  1  0  0  0
 42 66  1  0  0  0
 42107  1  0  0  0
 42108  1  0  0  0
 43 44  1  0  0  0
 44109  1  0  0  0
 45 46  2  0  0  0
 45110  1  0  0  0
 46111  1  0  0  0
 47112  1  0  0  0
 47113  1  0  0  0
 48 56  1  0  0  0
 48 65  1  0  0  0
 48114  1  0  0  0
 49 50  1  0  0  0
 49 53  1  0  0  0
 49 64  1  0  0  0
 49115  1  0  0  0
 50 51  1  0  0  0
 50116  1  0  0  0
 50117  1  0  0  0
 51 52  1  0  0  0
 51118  1  0  0  0
 51119  1  0  0  0
 52120  1  0  0  0
 52121  1  0  0  0
 53 54  1  0  0  0
 54 55  2  0  0  0
 54122  1  0  0  0
 55 57  1  0  0  0
 55123  1  0  0  0
 56 69  2  0  0  0
 57 58  2  0  0  0
 57124  1  0  0  0
 58125  1  0  0  0
 59 60  1  0  0  0
 59 61  1  0  0  0
 59 62  1  0  0  0
 60126  1  0  0  0
 60127  1  0  0  0
 60128  1  0  0  0
 61129  1  0  0  0
 61130  1  0  0  0
 61131  1  0  0  0
 62132  1  0  0  0
 62133  1  0  0  0
 62134  1  0  0  0
 63 65  1  0  0  0
 63135  1  0  0  0
 63136  1  0  0  0
 63137  1  0  0  0
 64138  1  0  0  0
 65139  1  0  0  0
 68 79  1  0  0  0
 71 72  2  0  0  0
 71 73  1  0  0  0
 71140  1  0  0  0
 72 74  1  0  0  0
 72141  1  0  0  0
 73 76  2  0  0  0
 73142  1  0  0  0
 74 75  2  0  0  0
 74 77  1  0  0  0
 75 76  1  0  0  0
 75 78  1  0  0  0
 76 80  1  0  0  0
 77 79  1  0  0  0
 77143  1  0  0  0
 77144  1  0  0  0
 78145  1  0  0  0
 79146  1  0  0  0
M  ISO  4   1 100  68 101  78 100  79 101
M  END
> <chiral flag>
0

> <version>
0

> <s_m_source_file>
/data/baiqing/PycharmProjects/Reinvent-master-3.2/result/LINK_invent/BTK/process_docking_weight1_custom_product_contain_oxygen_bond_distance_aromatic_linkinvent_7_9_3/rearranged_h_0052.sdf

> <i_m_source_file_index>
94

> <r_mmod_Potential_Energy-OPLS-2005>
3079.60229492188

> <r_mmod_Stretch_Energy-OPLS-2005>
1289.654296875

> <r_mmod_Bend_Energy-OPLS-2005>
723.774719238281

> <r_mmod_Torsional_Energy-OPLS-2005>
453.7783203125

> <r_mmod_Improper_Torsional_Energy-OPLS-2005>
40.1140632629395

> <r_mmod_Van_der_Waal_Energy-OPLS-2005>
134.073776245117

> <r_mmod_Electrostatic_Energy-OPLS-2005>
-370.026336669922

> <r_mmod_Solvation_Energy-OPLS-2005>
-229.935317993164

> <b_mmod_Minimization_Converged-OPLS-2005>
0

> <r_mmod_RMS_Derivative-OPLS-2005>
1.85932731628418

$$$$
