0
                    3D
 Structure written by MMmdl.
156164  0  0  1  0            999 V2000
  -30.7067  -14.5761   20.5491 C   0  0  0  0  0  0
  -30.4148  -12.3741   19.4390 C   0  0  0  0  0  0
  -29.4912  -12.5004   18.2120 C   0  0  0  0  0  0
  -28.0172  -12.3457   18.6313 C   0  0  0  0  0  0
  -27.6470  -13.2230   19.8578 C   0  0  2  0  0  0
  -28.6935  -13.0976   20.9864 C   0  0  0  0  0  0
  -25.2528  -13.8191   20.5693 C   0  0  0  0  0  0
  -24.1807  -13.0445   20.9200 C   0  0  0  0  0  0
  -24.6386  -11.6919   20.8749 C   0  0  0  0  0  0
  -23.9062  -10.4295   21.0407 C   0  0  0  0  0  0
  -24.3615   -9.4211   21.9184 C   0  0  0  0  0  0
  -23.6291   -8.2245   22.0754 C   0  0  0  0  0  0
  -22.4276   -8.0280   21.3544 C   0  0  0  0  0  0
  -21.9909   -9.0253   20.4647 C   0  0  0  0  0  0
  -22.7236  -10.2133   20.3056 C   0  0  0  0  0  0
  -21.6854   -6.0735   22.5279 C   0  0  0  0  0  0
  -21.4014   -6.5639   23.8212 C   0  0  0  0  0  0
  -21.3660   -5.6793   24.9175 C   0  0  0  0  0  0
  -21.6045   -4.3056   24.7225 C   0  0  0  0  0  0
  -21.8819   -3.8146   23.4347 C   0  0  0  0  0  0
  -21.9193   -4.6962   22.3403 C   0  0  0  0  0  0
  -22.7829  -13.5230   21.1860 C   0  0  0  0  0  0
  -22.1662   -4.2147   21.0980 F   0  0  0  0  0  0
  -21.5629   -3.4540   25.7738 F   0  0  0  0  0  0
  -30.0054  -13.4114   20.4060 N   0  0  0  0  0  0
  -26.2958  -12.9386   20.3321 N   0  0  0  0  0  0
  -25.9315  -11.6535   20.5771 N   0  0  0  0  0  0
  -22.0473  -12.8220   22.0415 N   0  0  0  0  0  0
  -25.4230  -15.1912   20.4099 N   0  0  0  0  0  0
  -31.8575  -14.6849   20.1182 O   0  0  0  0  0  0
  -21.6641   -6.8877   21.4240 O   0  0  0  0  0  0
  -22.3513  -14.5536   20.6707 O   0  0  0  0  0  0
  -24.6221  -31.8627   23.2041 C   0  0  0  0  0  0
  -25.9082  -32.4795   23.8366 C   0  0  1  0  0  0
  -27.2222  -27.3578   20.1198 C   0  0  0  0  0  0
  -25.5914  -33.8595   24.2295 N   0  0  0  0  0  0
  -23.4139  -30.4856   21.5460 C   0  0  2  0  0  0
  -24.8607  -28.9433   20.1114 C   0  0  0  0  0  0
  -22.7453  -29.4638   22.4955 C   0  0  0  0  0  0
  -18.0285  -28.1384   22.8489 C   0  0  0  0  0  0
  -24.1489  -36.7302   23.2641 C   0  0  0  0  0  0
  -25.9502  -30.8071   21.3673 C   0  0  0  0  0  0
  -26.0266  -29.4361   20.7127 C   0  0  0  0  0  0
  -27.2143  -28.6545   20.7063 C   0  0  0  0  0  0
  -26.0412  -26.9033   19.4976 C   0  0  0  0  0  0
  -24.8674  -27.6807   19.4955 C   0  0  0  0  0  0
  -23.6265  -29.8186   20.1611 C   0  0  0  0  0  0
  -25.4111  -36.3096   24.0333 C   0  0  1  0  0  0
  -20.5883  -28.3681   23.1300 C   0  0  2  0  0  0
  -20.6771  -26.9406   22.5417 C   0  0  0  0  0  0
  -19.5746  -26.6384   21.5220 C   0  0  0  0  0  0
  -18.1927  -26.7927   22.1628 C   0  0  0  0  0  0
  -19.1536  -28.8847   23.2892 C   0  0  0  0  0  0
  -18.9459  -30.1454   23.8901 C   0  0  0  0  0  0
  -17.6459  -30.6584   24.0565 C   0  0  0  0  0  0
  -25.9045  -34.9462   23.5113 C   0  0  0  0  0  0
  -16.5352  -29.9081   23.6332 C   0  0  0  0  0  0
  -16.7273  -28.6503   23.0345 C   0  0  0  0  0  0
  -26.4484  -31.6591   25.0718 C   0  0  0  0  0  0
  -25.3731  -31.3712   26.1454 C   0  0  0  0  0  0
  -27.0325  -30.3026   24.6137 C   0  0  0  0  0  0
  -27.6054  -32.4319   25.7483 C   0  0  0  0  0  0
  -27.5578  -37.1803   24.8467 C   0  0  0  0  0  0
  -21.4169  -29.3042   22.3696 N   0  0  0  0  0  0
  -26.4292  -37.3785   23.9410 N   0  0  0  0  0  0
  -24.6806  -31.0677   22.0968 N   0  0  0  0  0  0
  -23.4194  -28.8180   23.3021 O   0  0  0  0  0  0
  -28.3380  -26.5261   20.1371 O   0  0  0  0  0  0
  -26.5617  -34.8921   22.4681 O   0  0  0  0  0  0
  -23.5393  -32.1403   23.7394 O   0  0  0  0  0  0
  -31.5324  -16.1425   22.9059 C   0  0  0  0  0  0
  -32.2137  -18.3438   23.6391 C   0  0  0  0  0  0
  -30.7203  -16.6763   21.8683 C   0  0  0  0  0  0
  -30.5995  -18.1216   21.7757 C   0  0  0  0  0  0
  -32.2671  -16.9558   23.7793 C   0  0  0  0  0  0
  -31.4024  -18.9167   22.6497 C   0  0  0  0  0  0
  -29.0488  -21.2220   20.2532 C   0  0  0  0  0  0
  -29.0219  -19.9304   21.1890 C   0  0  0  0  0  0
  -28.5453  -22.5767   20.8667 C   0  0  0  0  0  0
  -28.6968  -23.9236   20.0419 C   0  0  0  0  0  0
  -28.1566  -25.2152   20.7729 C   0  0  0  0  0  0
  -29.8114  -18.8759   20.8223 N   0  0  0  0  0  0
  -30.0678  -15.6809   21.0407 N   0  0  0  0  0  0
  -29.4636  -21.1712   19.0897 O   0  0  0  0  0  0
  -28.3171  -19.8991   22.2041 O   0  0  0  0  0  0
  -33.0385  -16.3972   24.7428 F   0  0  0  0  0  0
  -31.4287  -20.2691   22.5330 F   0  0  0  0  0  0
  -31.4585  -12.4676   19.1341 H   0  0  0  0  0  0
  -30.3254  -11.3836   19.8880 H   0  0  0  0  0  0
  -29.7483  -11.7471   17.4659 H   0  0  0  0  0  0
  -29.6395  -13.4697   17.7337 H   0  0  0  0  0  0
  -27.8519  -11.2937   18.8664 H   0  0  0  0  0  0
  -27.3597  -12.5747   17.7918 H   0  0  0  0  0  0
  -27.6621  -14.2563   19.5101 H   0  0  0  0  0  0
  -28.6977  -12.0879   21.3987 H   0  0  0  0  0  0
  -28.4485  -13.7611   21.8171 H   0  0  0  0  0  0
  -25.2760   -9.5690   22.4760 H   0  0  0  0  0  0
  -24.0003   -7.4637   22.7472 H   0  0  0  0  0  0
  -21.0844   -8.8769   19.8949 H   0  0  0  0  0  0
  -22.3692  -10.9672   19.6165 H   0  0  0  0  0  0
  -21.2006   -7.6147   23.9715 H   0  0  0  0  0  0
  -21.1482   -6.0523   25.9078 H   0  0  0  0  0  0
  -22.0598   -2.7608   23.2848 H   0  0  0  0  0  0
  -22.4090  -11.9880   22.4803 H   0  0  0  0  0  0
  -21.1087  -13.1237   22.2617 H   0  0  0  0  0  0
  -24.6552  -15.8456   20.5161 H   0  0  0  0  0  0
  -26.2719  -15.6306   20.0770 H   0  0  0  0  0  0
  -26.7144  -32.5484   23.1116 H   0  0  0  0  0  0
  -25.0065  -33.9744   25.0442 H   0  0  0  0  0  0
  -22.7065  -31.3049   21.4029 H   0  0  0  0  0  0
  -23.3751  -35.9637   23.3313 H   0  0  0  0  0  0
  -24.3583  -36.8911   22.2055 H   0  0  0  0  0  0
  -23.7237  -37.6503   23.6655 H   0  0  0  0  0  0
  -26.0742  -31.5713   20.5986 H   0  0  0  0  0  0
  -26.8334  -30.8585   21.9924 H   0  0  0  0  0  0
  -28.1118  -29.0272   21.1800 H   0  0  0  0  0  0
  -26.0242  -25.9321   19.0230 H   0  0  0  0  0  0
  -23.9735  -27.2970   19.0231 H   0  0  0  0  0  0
  -23.7420  -30.5939   19.4029 H   0  0  0  0  0  0
  -22.7473  -29.2448   19.8618 H   0  0  0  0  0  0
  -25.1290  -36.1957   25.0826 H   0  0  0  0  0  0
  -20.9980  -28.3249   24.1418 H   0  0  0  0  0  0
  -20.5683  -26.2288   23.3611 H   0  0  0  0  0  0
  -21.6637  -26.7444   22.1199 H   0  0  0  0  0  0
  -19.6909  -25.6299   21.1236 H   0  0  0  0  0  0
  -19.6679  -27.3207   20.6761 H   0  0  0  0  0  0
  -17.4197  -26.6689   21.4027 H   0  0  0  0  0  0
  -18.0313  -26.0069   22.9021 H   0  0  0  0  0  0
  -19.7938  -30.7272   24.2263 H   0  0  0  0  0  0
  -17.5014  -31.6264   24.5168 H   0  0  0  0  0  0
  -15.5350  -30.2980   23.7653 H   0  0  0  0  0  0
  -15.8678  -28.0823   22.7049 H   0  0  0  0  0  0
  -24.5911  -30.7056   25.7787 H   0  0  0  0  0  0
  -24.8917  -32.2873   26.4891 H   0  0  0  0  0  0
  -25.8067  -30.8884   27.0223 H   0  0  0  0  0  0
  -26.2886  -29.6774   24.1186 H   0  0  0  0  0  0
  -27.4075  -29.7279   25.4618 H   0  0  0  0  0  0
  -27.8728  -30.4333   23.9315 H   0  0  0  0  0  0
  -27.2673  -33.3623   26.2061 H   0  0  0  0  0  0
  -28.3857  -32.6875   25.0302 H   0  0  0  0  0  0
  -28.0728  -31.8444   26.5393 H   0  0  0  0  0  0
  -28.2601  -38.0096   24.7514 H   0  0  0  0  0  0
  -28.1064  -36.2628   24.6290 H   0  0  0  0  0  0
  -27.2298  -37.1456   25.8870 H   0  0  0  0  0  0
  -20.9339  -29.8761   21.6910 H   0  0  0  0  0  0
  -26.0179  -38.2863   24.1407 H   0  0  0  0  0  0
  -31.6179  -15.0753   23.0493 H   0  0  0  0  0  0
  -32.7996  -18.9758   24.2890 H   0  0  0  0  0  0
  -29.0558  -22.6944   21.8227 H   0  0  0  0  0  0
  -27.4928  -22.4344   21.1118 H   0  0  0  0  0  0
  -28.1808  -23.8181   19.0868 H   0  0  0  0  0  0
  -29.7495  -24.0706   19.7999 H   0  0  0  0  0  0
  -28.6636  -25.2845   21.7359 H   0  0  0  0  0  0
  -27.1097  -25.0446   21.0292 H   0  0  0  0  0  0
  -30.1991  -18.9487   19.8916 H   0  0  0  0  0  0
  -29.0615  -15.6418   21.0986 H   0  0  0  0  0  0
  1 25  1  0  0  0
  1 30  2  0  0  0
  1 83  1  0  0  0
  2  3  1  0  0  0
  2 25  1  0  0  0
  2 88  1  0  0  0
  2 89  1  0  0  0
  3  4  1  0  0  0
  3 90  1  0  0  0
  3 91  1  0  0  0
  4  5  1  0  0  0
  4 92  1  0  0  0
  4 93  1  0  0  0
  5  6  1  0  0  0
  5 26  1  0  0  0
  5 94  1  0  0  0
  6 25  1  0  0  0
  6 95  1  0  0  0
  6 96  1  0  0  0
  7  8  2  0  0  0
  7 26  1  0  0  0
  7 29  1  0  0  0
  8  9  1  0  0  0
  8 22  1  0  0  0
  9 10  1  0  0  0
  9 27  2  0  0  0
 10 11  2  0  0  0
 10 15  1  0  0  0
 11 12  1  0  0  0
 11 97  1  0  0  0
 12 13  2  0  0  0
 12 98  1  0  0  0
 13 14  1  0  0  0
 13 31  1  0  0  0
 14 15  2  0  0  0
 14 99  1  0  0  0
 15100  1  0  0  0
 16 17  2  0  0  0
 16 21  1  0  0  0
 16 31  1  0  0  0
 17 18  1  0  0  0
 17101  1  0  0  0
 18 19  2  0  0  0
 18102  1  0  0  0
 19 20  1  0  0  0
 19 24  1  0  0  0
 20 21  2  0  0  0
 20103  1  0  0  0
 21 23  1  0  0  0
 22 28  1  0  0  0
 22 32  2  0  0  0
 26 27  1  0  0  0
 28104  1  0  0  0
 28105  1  0  0  0
 29106  1  0  0  0
 29107  1  0  0  0
 33 34  1  0  0  0
 33 66  1  0  0  0
 33 70  2  0  0  0
 34 36  1  0  0  0
 34 59  1  0  0  0
 34108  1  0  0  0
 35 44  2  0  0  0
 35 45  1  0  0  0
 35 68  1  0  0  0
 36 56  1  0  0  0
 36109  1  0  0  0
 37 39  1  0  0  0
 37 47  1  0  0  0
 37 66  1  0  0  0
 37110  1  0  0  0
 38 43  2  0  0  0
 38 46  1  0  0  0
 38 47  1  0  0  0
 39 64  1  0  0  0
 39 67  2  0  0  0
 40 52  1  0  0  0
 40 53  2  0  0  0
 40 58  1  0  0  0
 41111  1  0  0  0
 41112  1  0  0  0
 41113  1  0  0  0
 41 48  1  0  0  0
 42 43  1  0  0  0
 42 66  1  0  0  0
 42114  1  0  0  0
 42115  1  0  0  0
 43 44  1  0  0  0
 44116  1  0  0  0
 45 46  2  0  0  0
 45117  1  0  0  0
 46118  1  0  0  0
 47119  1  0  0  0
 47120  1  0  0  0
 48 56  1  0  0  0
 48 65  1  0  0  0
 48121  1  0  0  0
 49 50  1  0  0  0
 49 53  1  0  0  0
 49 64  1  0  0  0
 49122  1  0  0  0
 50 51  1  0  0  0
 50123  1  0  0  0
 50124  1  0  0  0
 51 52  1  0  0  0
 51125  1  0  0  0
 51126  1  0  0  0
 52127  1  0  0  0
 52128  1  0  0  0
 53 54  1  0  0  0
 54 55  2  0  0  0
 54129  1  0  0  0
 55 57  1  0  0  0
 55130  1  0  0  0
 56 69  2  0  0  0
 57 58  2  0  0  0
 57131  1  0  0  0
 58132  1  0  0  0
 59 60  1  0  0  0
 59 61  1  0  0  0
 59 62  1  0  0  0
 60133  1  0  0  0
 60134  1  0  0  0
 60135  1  0  0  0
 61136  1  0  0  0
 61137  1  0  0  0
 61138  1  0  0  0
 62139  1  0  0  0
 62140  1  0  0  0
 62141  1  0  0  0
 63 65  1  0  0  0
 63142  1  0  0  0
 63143  1  0  0  0
 63144  1  0  0  0
 64145  1  0  0  0
 65146  1  0  0  0
 68 81  1  0  0  0
 71 73  2  0  0  0
 71 75  1  0  0  0
 71147  1  0  0  0
 72 75  2  0  0  0
 72 76  1  0  0  0
 72148  1  0  0  0
 73 74  1  0  0  0
 73 83  1  0  0  0
 74 76  2  0  0  0
 74 82  1  0  0  0
 75 86  1  0  0  0
 76 87  1  0  0  0
 77 78  1  0  0  0
 77 79  1  0  0  0
 77 84  2  0  0  0
 78 82  1  0  0  0
 78 85  2  0  0  0
 79 80  1  0  0  0
 79149  1  0  0  0
 79150  1  0  0  0
 80 81  1  0  0  0
 80151  1  0  0  0
 80152  1  0  0  0
 81153  1  0  0  0
 81154  1  0  0  0
 82155  1  0  0  0
 83156  1  0  0  0
M  ISO  4   1 100  68 101  81 101  83 100
M  END
> <chiral flag>
0

> <version>
0

> <s_m_source_file>
/data/baiqing/PycharmProjects/Reinvent-master-3.2/result/LINK_invent/BTK/process_docking_weight1_custom_product_contain_oxygen_bond_distance_aromatic_linkinvent_7_9_3/rearranged_h_0178.sdf

> <i_m_source_file_index>
1

> <r_mmod_Potential_Energy-OPLS-2005>
20.3563213348389

> <r_mmod_Stretch_Energy-OPLS-2005>
71.5170822143555

> <r_mmod_Bend_Energy-OPLS-2005>
130.36360168457

> <r_mmod_Torsional_Energy-OPLS-2005>
301.251556396484

> <r_mmod_Improper_Torsional_Energy-OPLS-2005>
6.55096769332886

> <r_mmod_Van_der_Waal_Energy-OPLS-2005>
154.487442016602

> <r_mmod_Electrostatic_Energy-OPLS-2005>
-451.728942871094

> <r_mmod_Solvation_Energy-OPLS-2005>
-226.360168457031

> <b_mmod_Minimization_Converged-OPLS-2005>
0

> <r_mmod_RMS_Derivative-OPLS-2005>
0.657277703285217

$$$$
1
                    3D
 Structure written by MMmdl.
153161  0  0  1  0            999 V2000
  -30.6606  -14.5403   20.4748 C   0  0  0  0  0  0
  -30.4244  -12.3236   19.4423 C   0  0  0  0  0  0
  -29.4999  -12.4842   18.2161 C   0  0  0  0  0  0
  -28.0208  -12.3422   18.6270 C   0  0  0  0  0  0
  -27.6539  -13.2090   19.8616 C   0  0  2  0  0  0
  -28.6964  -13.0451   20.9910 C   0  0  0  0  0  0
  -25.2571  -13.8162   20.5671 C   0  0  0  0  0  0
  -24.1830  -13.0439   20.9180 C   0  0  0  0  0  0
  -24.6383  -11.6905   20.8736 C   0  0  0  0  0  0
  -23.9049  -10.4292   21.0408 C   0  0  0  0  0  0
  -24.3607   -9.4210   21.9185 C   0  0  0  0  0  0
  -23.6287   -8.2244   22.0754 C   0  0  0  0  0  0
  -22.4270   -8.0280   21.3543 C   0  0  0  0  0  0
  -21.9899   -9.0253   20.4647 C   0  0  0  0  0  0
  -22.7222  -10.2135   20.3058 C   0  0  0  0  0  0
  -21.6853   -6.0734   22.5277 C   0  0  0  0  0  0
  -21.4014   -6.5639   23.8210 C   0  0  0  0  0  0
  -21.3656   -5.6791   24.9174 C   0  0  0  0  0  0
  -21.6044   -4.3054   24.7223 C   0  0  0  0  0  0
  -21.8820   -3.8145   23.4344 C   0  0  0  0  0  0
  -21.9192   -4.6961   22.3400 C   0  0  0  0  0  0
  -22.7856  -13.5242   21.1847 C   0  0  0  0  0  0
  -22.1663   -4.2148   21.0978 F   0  0  0  0  0  0
  -21.5626   -3.4535   25.7734 F   0  0  0  0  0  0
  -30.0220  -13.3390   20.4286 N   0  0  0  0  0  0
  -26.2987  -12.9327   20.3304 N   0  0  0  0  0  0
  -25.9306  -11.6490   20.5752 N   0  0  0  0  0  0
  -22.0495  -12.8240   22.0406 N   0  0  0  0  0  0
  -25.4305  -15.1881   20.4082 N   0  0  0  0  0  0
  -31.8529  -14.6644   20.1840 O   0  0  0  0  0  0
  -21.6638   -6.8876   21.4239 O   0  0  0  0  0  0
  -22.3545  -14.5550   20.6697 O   0  0  0  0  0  0
  -24.6184  -31.8655   23.2074 C   0  0  0  0  0  0
  -25.9064  -32.4807   23.8377 C   0  0  1  0  0  0
  -27.2293  -27.3929   20.0978 C   0  0  0  0  0  0
  -25.5911  -33.8607   24.2311 N   0  0  0  0  0  0
  -23.4067  -30.4902   21.5495 C   0  0  2  0  0  0
  -24.8493  -28.9498   20.1168 C   0  0  0  0  0  0
  -22.7425  -29.4655   22.4979 C   0  0  0  0  0  0
  -18.0276  -28.1377   22.8490 C   0  0  0  0  0  0
  -24.1490  -36.7312   23.2639 C   0  0  0  0  0  0
  -25.9397  -30.8192   21.3648 C   0  0  0  0  0  0
  -26.0133  -29.4506   20.7108 C   0  0  0  0  0  0
  -27.2034  -28.6816   20.6933 C   0  0  0  0  0  0
  -26.0354  -26.9112   19.5104 C   0  0  0  0  0  0
  -24.8575  -27.6815   19.5148 C   0  0  0  0  0  0
  -23.6153  -29.8233   20.1644 C   0  0  0  0  0  0
  -25.4112  -36.3104   24.0335 C   0  0  1  0  0  0
  -20.5868  -28.3670   23.1309 C   0  0  2  0  0  0
  -20.6768  -26.9404   22.5416 C   0  0  0  0  0  0
  -19.5746  -26.6384   21.5213 C   0  0  0  0  0  0
  -18.1924  -26.7924   22.1623 C   0  0  0  0  0  0
  -19.1526  -28.8840   23.2897 C   0  0  0  0  0  0
  -18.9453  -30.1445   23.8910 C   0  0  0  0  0  0
  -17.6456  -30.6582   24.0565 C   0  0  0  0  0  0
  -25.9041  -34.9468   23.5121 C   0  0  0  0  0  0
  -16.5347  -29.9085   23.6325 C   0  0  0  0  0  0
  -16.7265  -28.6502   23.0346 C   0  0  0  0  0  0
  -26.4478  -31.6595   25.0718 C   0  0  0  0  0  0
  -25.3738  -31.3709   26.1464 C   0  0  0  0  0  0
  -27.0309  -30.3032   24.6112 C   0  0  0  0  0  0
  -27.6054  -32.4314   25.7480 C   0  0  0  0  0  0
  -27.5581  -37.1813   24.8466 C   0  0  0  0  0  0
  -21.4150  -29.3037   22.3715 N   0  0  0  0  0  0
  -26.4298  -37.3789   23.9404 N   0  0  0  0  0  0
  -24.6737  -31.0732   22.0987 N   0  0  0  0  0  0
  -23.4185  -28.8196   23.3030 O   0  0  0  0  0  0
  -28.4155  -26.6699   20.1059 O   0  0  0  0  0  0
  -26.5604  -34.8925   22.4684 O   0  0  0  0  0  0
  -23.5371  -32.1422   23.7456 O   0  0  0  0  0  0
  -29.3762  -18.0772   20.5504 C   0  0  0  0  0  0
  -30.5646  -18.2391   18.0158 C   0  0  0  0  0  0
  -29.4109  -19.3357   19.8726 C   0  0  0  0  0  0
  -29.9507  -16.8981   19.9796 C   0  0  0  0  0  0
  -30.0169  -19.3935   18.5945 C   0  0  0  0  0  0
  -30.5149  -17.0024   18.6791 C   0  0  0  0  0  0
  -27.9501  -22.8154   20.5212 C   0  0  0  0  0  0
  -29.1274  -21.7927   20.3292 C   0  0  0  0  0  0
  -28.2625  -24.2842   20.9066 C   0  0  0  0  0  0
  -28.4604  -25.2707   19.7198 C   0  0  0  0  0  0
  -28.7331  -20.4952   20.3936 N   0  0  0  0  0  0
  -29.8629  -15.6236   20.6619 N   0  0  0  0  0  0
  -26.7723  -22.4603   20.3885 O   0  0  0  0  0  0
  -30.2988  -22.1577   20.1814 O   0  0  0  0  0  0
  -30.0148  -20.5391   17.8699 F   0  0  0  0  0  0
  -30.9577  -15.9130   18.0064 F   0  0  0  0  0  0
  -31.4694  -12.4240   19.1433 H   0  0  0  0  0  0
  -30.3295  -11.3245   19.8703 H   0  0  0  0  0  0
  -29.7486  -11.7407   17.4578 H   0  0  0  0  0  0
  -29.6614  -13.4591   17.7528 H   0  0  0  0  0  0
  -27.8432  -11.2894   18.8504 H   0  0  0  0  0  0
  -27.3701  -12.5866   17.7867 H   0  0  0  0  0  0
  -27.6789  -14.2458   19.5264 H   0  0  0  0  0  0
  -28.6799  -12.0275   21.3842 H   0  0  0  0  0  0
  -28.4646  -13.6962   21.8355 H   0  0  0  0  0  0
  -25.2755   -9.5686   22.4754 H   0  0  0  0  0  0
  -23.9997   -7.4635   22.7471 H   0  0  0  0  0  0
  -21.0830   -8.8770   19.8955 H   0  0  0  0  0  0
  -22.3681  -10.9674   19.6166 H   0  0  0  0  0  0
  -21.2014   -7.6148   23.9714 H   0  0  0  0  0  0
  -21.1475   -6.0523   25.9076 H   0  0  0  0  0  0
  -22.0603   -2.7607   23.2846 H   0  0  0  0  0  0
  -22.4103  -11.9901   22.4800 H   0  0  0  0  0  0
  -21.1118  -13.1279   22.2612 H   0  0  0  0  0  0
  -24.6636  -15.8433   20.5145 H   0  0  0  0  0  0
  -26.2780  -15.6243   20.0685 H   0  0  0  0  0  0
  -26.7132  -32.5500   23.1134 H   0  0  0  0  0  0
  -25.0064  -33.9761   25.0459 H   0  0  0  0  0  0
  -22.6971  -31.3085   21.4104 H   0  0  0  0  0  0
  -23.3744  -35.9653   23.3316 H   0  0  0  0  0  0
  -24.3581  -36.8912   22.2050 H   0  0  0  0  0  0
  -23.7252  -37.6525   23.6645 H   0  0  0  0  0  0
  -26.0581  -31.5843   20.5963 H   0  0  0  0  0  0
  -26.8258  -30.8703   21.9860 H   0  0  0  0  0  0
  -28.1040  -29.0699   21.1484 H   0  0  0  0  0  0
  -25.9736  -25.9421   19.0421 H   0  0  0  0  0  0
  -23.9600  -27.2875   19.0579 H   0  0  0  0  0  0
  -23.7291  -30.5984   19.4057 H   0  0  0  0  0  0
  -22.7366  -29.2484   19.8662 H   0  0  0  0  0  0
  -25.1290  -36.1970   25.0828 H   0  0  0  0  0  0
  -20.9961  -28.3239   24.1430 H   0  0  0  0  0  0
  -20.5671  -26.2280   23.3605 H   0  0  0  0  0  0
  -21.6640  -26.7443   22.1211 H   0  0  0  0  0  0
  -19.6909  -25.6298   21.1235 H   0  0  0  0  0  0
  -19.6684  -27.3202   20.6749 H   0  0  0  0  0  0
  -17.4195  -26.6671   21.4024 H   0  0  0  0  0  0
  -18.0323  -26.0061   22.9014 H   0  0  0  0  0  0
  -19.7931  -30.7255   24.2285 H   0  0  0  0  0  0
  -17.5012  -31.6264   24.5165 H   0  0  0  0  0  0
  -15.5348  -30.2992   23.7640 H   0  0  0  0  0  0
  -15.8666  -28.0826   22.7052 H   0  0  0  0  0  0
  -24.5909  -30.7058   25.7802 H   0  0  0  0  0  0
  -24.8934  -32.2869   26.4914 H   0  0  0  0  0  0
  -25.8089  -30.8875   27.0221 H   0  0  0  0  0  0
  -26.2857  -29.6791   24.1164 H   0  0  0  0  0  0
  -27.4069  -29.7270   25.4577 H   0  0  0  0  0  0
  -27.8698  -30.4342   23.9272 H   0  0  0  0  0  0
  -27.2672  -33.3602   26.2087 H   0  0  0  0  0  0
  -28.3846  -32.6893   25.0296 H   0  0  0  0  0  0
  -28.0741  -31.8420   26.5371 H   0  0  0  0  0  0
  -28.2614  -38.0095   24.7496 H   0  0  0  0  0  0
  -28.1061  -36.2627   24.6313 H   0  0  0  0  0  0
  -27.2297  -37.1491   25.8869 H   0  0  0  0  0  0
  -20.9312  -29.8765   21.6941 H   0  0  0  0  0  0
  -26.0187  -38.2871   24.1389 H   0  0  0  0  0  0
  -28.8930  -18.0151   21.5146 H   0  0  0  0  0  0
  -30.9877  -18.2932   17.0248 H   0  0  0  0  0  0
  -29.1381  -24.3021   21.5550 H   0  0  0  0  0  0
  -27.4279  -24.6314   21.5145 H   0  0  0  0  0  0
  -27.8097  -25.0346   18.8801 H   0  0  0  0  0  0
  -29.4624  -25.1032   19.3236 H   0  0  0  0  0  0
  -27.7760  -20.3673   20.6952 H   0  0  0  0  0  0
  -28.9837  -15.4333   21.1161 H   0  0  0  0  0  0
  1 25  1  0  0  0
  1 30  2  0  0  0
  1 82  1  0  0  0
  2  3  1  0  0  0
  2 25  1  0  0  0
  2 87  1  0  0  0
  2 88  1  0  0  0
  3  4  1  0  0  0
  3 89  1  0  0  0
  3 90  1  0  0  0
  4  5  1  0  0  0
  4 91  1  0  0  0
  4 92  1  0  0  0
  5  6  1  0  0  0
  5 26  1  0  0  0
  5 93  1  0  0  0
  6 25  1  0  0  0
  6 94  1  0  0  0
  6 95  1  0  0  0
  7  8  2  0  0  0
  7 26  1  0  0  0
  7 29  1  0  0  0
  8  9  1  0  0  0
  8 22  1  0  0  0
  9 10  1  0  0  0
  9 27  2  0  0  0
 10 11  2  0  0  0
 10 15  1  0  0  0
 11 12  1  0  0  0
 11 96  1  0  0  0
 12 13  2  0  0  0
 12 97  1  0  0  0
 13 14  1  0  0  0
 13 31  1  0  0  0
 14 15  2  0  0  0
 14 98  1  0  0  0
 15 99  1  0  0  0
 16 17  2  0  0  0
 16 21  1  0  0  0
 16 31  1  0  0  0
 17 18  1  0  0  0
 17100  1  0  0  0
 18 19  2  0  0  0
 18101  1  0  0  0
 19 20  1  0  0  0
 19 24  1  0  0  0
 20 21  2  0  0  0
 20102  1  0  0  0
 21 23  1  0  0  0
 22 28  1  0  0  0
 22 32  2  0  0  0
 26 27  1  0  0  0
 28103  1  0  0  0
 28104  1  0  0  0
 29105  1  0  0  0
 29106  1  0  0  0
 33 34  1  0  0  0
 33 66  1  0  0  0
 33 70  2  0  0  0
 34 36  1  0  0  0
 34 59  1  0  0  0
 34107  1  0  0  0
 35 44  2  0  0  0
 35 45  1  0  0  0
 35 68  1  0  0  0
 36 56  1  0  0  0
 36108  1  0  0  0
 37 39  1  0  0  0
 37 47  1  0  0  0
 37 66  1  0  0  0
 37109  1  0  0  0
 38 43  2  0  0  0
 38 46  1  0  0  0
 38 47  1  0  0  0
 39 64  1  0  0  0
 39 67  2  0  0  0
 40 52  1  0  0  0
 40 53  2  0  0  0
 40 58  1  0  0  0
 41110  1  0  0  0
 41111  1  0  0  0
 41112  1  0  0  0
 41 48  1  0  0  0
 42 43  1  0  0  0
 42 66  1  0  0  0
 42113  1  0  0  0
 42114  1  0  0  0
 43 44  1  0  0  0
 44115  1  0  0  0
 45 46  2  0  0  0
 45116  1  0  0  0
 46117  1  0  0  0
 47118  1  0  0  0
 47119  1  0  0  0
 48 56  1  0  0  0
 48 65  1  0  0  0
 48120  1  0  0  0
 49 50  1  0  0  0
 49 53  1  0  0  0
 49 64  1  0  0  0
 49121  1  0  0  0
 50 51  1  0  0  0
 50122  1  0  0  0
 50123  1  0  0  0
 51 52  1  0  0  0
 51124  1  0  0  0
 51125  1  0  0  0
 52126  1  0  0  0
 52127  1  0  0  0
 53 54  1  0  0  0
 54 55  2  0  0  0
 54128  1  0  0  0
 55 57  1  0  0  0
 55129  1  0  0  0
 56 69  2  0  0  0
 57 58  2  0  0  0
 57130  1  0  0  0
 58131  1  0  0  0
 59 60  1  0  0  0
 59 61  1  0  0  0
 59 62  1  0  0  0
 60132  1  0  0  0
 60133  1  0  0  0
 60134  1  0  0  0
 61135  1  0  0  0
 61136  1  0  0  0
 61137  1  0  0  0
 62138  1  0  0  0
 62139  1  0  0  0
 62140  1  0  0  0
 63 65  1  0  0  0
 63141  1  0  0  0
 63142  1  0  0  0
 63143  1  0  0  0
 64144  1  0  0  0
 65145  1  0  0  0
 68 80  1  0  0  0
 71 73  2  0  0  0
 71 74  1  0  0  0
 71146  1  0  0  0
 72 75  2  0  0  0
 72 76  1  0  0  0
 72147  1  0  0  0
 73 75  1  0  0  0
 73 81  1  0  0  0
 74 76  2  0  0  0
 74 82  1  0  0  0
 75 85  1  0  0  0
 76 86  1  0  0  0
 77 78  1  0  0  0
 77 79  1  0  0  0
 77 83  2  0  0  0
 78 81  1  0  0  0
 78 84  2  0  0  0
 79 80  1  0  0  0
 79148  1  0  0  0
 79149  1  0  0  0
 80150  1  0  0  0
 80151  1  0  0  0
 81152  1  0  0  0
 82153  1  0  0  0
M  ISO  4   1 100  68 101  80 101  82 100
M  END
> <chiral flag>
0

> <version>
0

> <s_m_source_file>
/data/baiqing/PycharmProjects/Reinvent-master-3.2/result/LINK_invent/BTK/process_docking_weight1_custom_product_contain_oxygen_bond_distance_aromatic_linkinvent_7_9_3/rearranged_h_0178.sdf

> <i_m_source_file_index>
2

> <r_mmod_Potential_Energy-OPLS-2005>
-77.7408981323242

> <r_mmod_Stretch_Energy-OPLS-2005>
50.2679824829102

> <r_mmod_Bend_Energy-OPLS-2005>
111.250816345215

> <r_mmod_Torsional_Energy-OPLS-2005>
263.570770263672

> <r_mmod_Improper_Torsional_Energy-OPLS-2005>
6.91260242462158

> <r_mmod_Van_der_Waal_Energy-OPLS-2005>
155.918548583984

> <r_mmod_Electrostatic_Energy-OPLS-2005>
-447.126342773438

> <r_mmod_Solvation_Energy-OPLS-2005>
-243.547943115234

> <b_mmod_Minimization_Converged-OPLS-2005>
0

> <r_mmod_RMS_Derivative-OPLS-2005>
0.439579457044601

$$$$
2
                    3D
 Structure written by MMmdl.
154162  0  0  1  0            999 V2000
  -30.4718  -15.0264   20.4263 C   0  0  0  0  0  0
  -30.4561  -12.6396   19.5061 C   0  0  0  0  0  0
  -29.5328  -12.5510   18.2658 C   0  0  0  0  0  0
  -28.0648  -12.3252   18.6778 C   0  0  0  0  0  0
  -27.6333  -13.2505   19.8443 C   0  0  2  0  0  0
  -28.6757  -13.2730   20.9835 C   0  0  0  0  0  0
  -25.2473  -13.8216   20.5712 C   0  0  0  0  0  0
  -24.1789  -13.0436   20.9225 C   0  0  0  0  0  0
  -24.6408  -11.6923   20.8746 C   0  0  0  0  0  0
  -23.9094  -10.4291   21.0402 C   0  0  0  0  0  0
  -24.3637   -9.4203   21.9179 C   0  0  0  0  0  0
  -23.6302   -8.2244   22.0750 C   0  0  0  0  0  0
  -22.4281   -8.0286   21.3546 C   0  0  0  0  0  0
  -21.9923   -9.0262   20.4647 C   0  0  0  0  0  0
  -22.7262  -10.2134   20.3055 C   0  0  0  0  0  0
  -21.6851   -6.0741   22.5280 C   0  0  0  0  0  0
  -21.4014   -6.5642   23.8215 C   0  0  0  0  0  0
  -21.3658   -5.6791   24.9174 C   0  0  0  0  0  0
  -21.6042   -4.3056   24.7223 C   0  0  0  0  0  0
  -21.8821   -3.8151   23.4344 C   0  0  0  0  0  0
  -21.9192   -4.6969   22.3401 C   0  0  0  0  0  0
  -22.7805  -13.5202   21.1882 C   0  0  0  0  0  0
  -22.1659   -4.2157   21.0975 F   0  0  0  0  0  0
  -21.5629   -3.4538   25.7735 F   0  0  0  0  0  0
  -29.9454  -13.7266   20.3955 N   0  0  0  0  0  0
  -26.2906  -12.9450   20.3258 N   0  0  0  0  0  0
  -25.9342  -11.6578   20.5729 N   0  0  0  0  0  0
  -22.0458  -12.8192   22.0442 N   0  0  0  0  0  0
  -25.4124  -15.1952   20.4145 N   0  0  0  0  0  0
  -31.6622  -15.1476   20.1077 O   0  0  0  0  0  0
  -21.6640   -6.8888   21.4245 O   0  0  0  0  0  0
  -22.3480  -14.5502   20.6720 O   0  0  0  0  0  0
  -24.6489  -31.8389   23.1861 C   0  0  0  0  0  0
  -25.9239  -32.4667   23.8260 C   0  0  1  0  0  0
  -27.2144  -27.0762   20.1615 C   0  0  0  0  0  0
  -25.5972  -33.8477   24.2166 N   0  0  0  0  0  0
  -23.4568  -30.4575   21.5324 C   0  0  2  0  0  0
  -24.9118  -28.8818   20.1066 C   0  0  0  0  0  0
  -22.7611  -29.4512   22.4839 C   0  0  0  0  0  0
  -18.0321  -28.1390   22.8477 C   0  0  0  0  0  0
  -24.1490  -36.7239   23.2642 C   0  0  0  0  0  0
  -26.0184  -30.6902   21.4009 C   0  0  0  0  0  0
  -26.0901  -29.2968   20.7421 C   0  0  0  0  0  0
  -27.2414  -28.4082   20.7616 C   0  0  0  0  0  0
  -26.0217  -26.7995   19.4544 C   0  0  0  0  0  0
  -24.8939  -27.6469   19.4454 C   0  0  0  0  0  0
  -23.6895  -29.7887   20.1514 C   0  0  0  0  0  0
  -25.4127  -36.3017   24.0308 C   0  0  1  0  0  0
  -20.5941  -28.3723   23.1229 C   0  0  2  0  0  0
  -20.6810  -26.9426   22.5400 C   0  0  0  0  0  0
  -19.5780  -26.6389   21.5208 C   0  0  0  0  0  0
  -18.1962  -26.7931   22.1617 C   0  0  0  0  0  0
  -19.1580  -28.8874   23.2844 C   0  0  0  0  0  0
  -18.9488  -30.1470   23.8866 C   0  0  0  0  0  0
  -17.6481  -30.6581   24.0565 C   0  0  0  0  0  0
  -25.9084  -34.9392   23.5046 C   0  0  0  0  0  0
  -16.5375  -29.9073   23.6336 C   0  0  0  0  0  0
  -16.7305  -28.6494   23.0354 C   0  0  0  0  0  0
  -26.4541  -31.6554   25.0724 C   0  0  0  0  0  0
  -25.3706  -31.3760   26.1405 C   0  0  0  0  0  0
  -27.0423  -30.2938   24.6365 C   0  0  0  0  0  0
  -27.6049  -32.4341   25.7519 C   0  0  0  0  0  0
  -27.5569  -37.1783   24.8468 C   0  0  0  0  0  0
  -21.4293  -29.3048   22.3597 N   0  0  0  0  0  0
  -26.4286  -37.3735   23.9402 N   0  0  0  0  0  0
  -24.7276  -31.0185   22.0938 N   0  0  0  0  0  0
  -23.4227  -28.8049   23.3003 O   0  0  0  0  0  0
  -28.1833  -25.9829   20.2362 O   0  0  0  0  0  0
  -26.5671  -34.8900   22.4627 O   0  0  0  0  0  0
  -23.5592  -32.1298   23.7042 O   0  0  0  0  0  0
  -28.9939  -20.4482   20.5815 C   0  0  0  0  0  0
  -28.1524  -19.6168   21.3424 C   0  0  0  0  0  0
  -29.4429  -17.6784   20.6829 C   0  0  0  0  0  0
  -27.6787  -24.6286   20.5638 C   0  0  0  0  0  0
  -29.0583  -22.0614   20.2841 C   0  0  0  0  0  0
  -27.9312  -23.1986   20.6014 C   0  0  0  0  0  0
  -26.3747  -19.6540   23.1078 C   0  0  0  0  0  0
  -25.6678  -21.4851   24.7145 C   0  0  0  0  0  0
  -25.2191  -20.5237   23.6041 C   0  0  0  0  0  0
  -28.3870  -18.1881   21.3511 N   0  0  0  0  0  0
  -27.0673  -20.1539   22.0724 N   0  0  0  0  0  0
  -29.5895  -16.1265   20.6839 N   0  0  0  0  0  0
  -30.0939  -22.4521   19.7397 O   0  0  0  0  0  0
  -26.6211  -18.5887   23.6781 O   0  0  0  0  0  0
  -26.8215  -22.5828   21.0272 O   0  0  0  0  0  0
  -30.2168  -19.1954   19.9218 S   0  0  0  0  0  0
  -31.4821  -12.8308   19.1878 H   0  0  0  0  0  0
  -30.4824  -11.6877   20.0382 H   0  0  0  0  0  0
  -29.8648  -11.7492   17.6055 H   0  0  0  0  0  0
  -29.6108  -13.4742   17.6896 H   0  0  0  0  0  0
  -27.9619  -11.2825   18.9791 H   0  0  0  0  0  0
  -27.4040  -12.4605   17.8202 H   0  0  0  0  0  0
  -27.5951  -14.2543   19.4205 H   0  0  0  0  0  0
  -28.7792  -12.2870   21.4389 H   0  0  0  0  0  0
  -28.3584  -13.9443   21.7830 H   0  0  0  0  0  0
  -25.2778   -9.5678   22.4758 H   0  0  0  0  0  0
  -24.0009   -7.4634   22.7467 H   0  0  0  0  0  0
  -21.0853   -8.8794   19.8951 H   0  0  0  0  0  0
  -22.3725  -10.9681   19.6173 H   0  0  0  0  0  0
  -21.2006   -7.6150   23.9724 H   0  0  0  0  0  0
  -21.1478   -6.0517   25.9079 H   0  0  0  0  0  0
  -22.0600   -2.7614   23.2838 H   0  0  0  0  0  0
  -22.4076  -11.9861   22.4846 H   0  0  0  0  0  0
  -21.1080  -13.1222   22.2644 H   0  0  0  0  0  0
  -24.6442  -15.8445   20.5436 H   0  0  0  0  0  0
  -26.2561  -15.6472   20.0868 H   0  0  0  0  0  0
  -26.7306  -32.5258   23.0984 H   0  0  0  0  0  0
  -25.0100  -33.9582   25.0303 H   0  0  0  0  0  0
  -22.7618  -31.2851   21.3758 H   0  0  0  0  0  0
  -23.3758  -35.9568   23.3302 H   0  0  0  0  0  0
  -24.3567  -36.8871   22.2055 H   0  0  0  0  0  0
  -23.7240  -37.6431   23.6685 H   0  0  0  0  0  0
  -26.1861  -31.4415   20.6283 H   0  0  0  0  0  0
  -26.8844  -30.7402   22.0488 H   0  0  0  0  0  0
  -28.1283  -28.7130   21.2996 H   0  0  0  0  0  0
  -25.9291  -25.8551   18.9371 H   0  0  0  0  0  0
  -24.0008  -27.3271   18.9257 H   0  0  0  0  0  0
  -23.8306  -30.5646   19.3983 H   0  0  0  0  0  0
  -22.8034  -29.2341   19.8372 H   0  0  0  0  0  0
  -25.1322  -36.1836   25.0801 H   0  0  0  0  0  0
  -21.0031  -28.3307   24.1354 H   0  0  0  0  0  0
  -20.5704  -26.2330   23.3615 H   0  0  0  0  0  0
  -21.6673  -26.7431   22.1187 H   0  0  0  0  0  0
  -19.6943  -25.6303   21.1232 H   0  0  0  0  0  0
  -19.6710  -27.3207   20.6746 H   0  0  0  0  0  0
  -17.4236  -26.6683   21.4012 H   0  0  0  0  0  0
  -18.0361  -26.0070   22.9009 H   0  0  0  0  0  0
  -19.7961  -30.7308   24.2206 H   0  0  0  0  0  0
  -17.5029  -31.6256   24.5177 H   0  0  0  0  0  0
  -15.5371  -30.2961   23.7677 H   0  0  0  0  0  0
  -15.8709  -28.0805   22.7075 H   0  0  0  0  0  0
  -24.5900  -30.7094   25.7721 H   0  0  0  0  0  0
  -24.8891  -32.2953   26.4750 H   0  0  0  0  0  0
  -25.7980  -30.8984   27.0231 H   0  0  0  0  0  0
  -26.3071  -29.6642   24.1343 H   0  0  0  0  0  0
  -27.3969  -29.7257   25.4975 H   0  0  0  0  0  0
  -27.9008  -30.4146   23.9754 H   0  0  0  0  0  0
  -27.2620  -33.3662   26.2024 H   0  0  0  0  0  0
  -28.3905  -32.6866   25.0385 H   0  0  0  0  0  0
  -28.0674  -31.8519   26.5497 H   0  0  0  0  0  0
  -28.2595  -38.0072   24.7502 H   0  0  0  0  0  0
  -28.1056  -36.2601   24.6321 H   0  0  0  0  0  0
  -27.2284  -37.1463   25.8871 H   0  0  0  0  0  0
  -20.9512  -29.8769   21.6781 H   0  0  0  0  0  0
  -26.0144  -38.2801   24.1405 H   0  0  0  0  0  0
  -26.6891  -24.8378   20.9464 H   0  0  0  0  0  0
  -24.8376  -22.1079   25.0477 H   0  0  0  0  0  0
  -26.4592  -22.1501   24.3656 H   0  0  0  0  0  0
  -26.0443  -20.9433   25.5831 H   0  0  0  0  0  0
  -24.4224  -19.8759   23.9732 H   0  0  0  0  0  0
  -24.7917  -21.0843   22.7716 H   0  0  0  0  0  0
  -26.7898  -21.0867   21.7820 H   0  0  0  0  0  0
  -28.7222  -15.7217   20.9950 H   0  0  0  0  0  0
  -26.1602  -23.2504   21.1556 H   0  0  0  0  0  0
  1 25  1  0  0  0
  1 30  2  0  0  0
  1 82  1  0  0  0
  2  3  1  0  0  0
  2 25  1  0  0  0
  2 87  1  0  0  0
  2 88  1  0  0  0
  3  4  1  0  0  0
  3 89  1  0  0  0
  3 90  1  0  0  0
  4  5  1  0  0  0
  4 91  1  0  0  0
  4 92  1  0  0  0
  5  6  1  0  0  0
  5 26  1  0  0  0
  5 93  1  0  0  0
  6 25  1  0  0  0
  6 94  1  0  0  0
  6 95  1  0  0  0
  7  8  2  0  0  0
  7 26  1  0  0  0
  7 29  1  0  0  0
  8  9  1  0  0  0
  8 22  1  0  0  0
  9 10  1  0  0  0
  9 27  2  0  0  0
 10 11  2  0  0  0
 10 15  1  0  0  0
 11 12  1  0  0  0
 11 96  1  0  0  0
 12 13  2  0  0  0
 12 97  1  0  0  0
 13 14  1  0  0  0
 13 31  1  0  0  0
 14 15  2  0  0  0
 14 98  1  0  0  0
 15 99  1  0  0  0
 16 17  2  0  0  0
 16 21  1  0  0  0
 16 31  1  0  0  0
 17 18  1  0  0  0
 17100  1  0  0  0
 18 19  2  0  0  0
 18101  1  0  0  0
 19 20  1  0  0  0
 19 24  1  0  0  0
 20 21  2  0  0  0
 20102  1  0  0  0
 21 23  1  0  0  0
 22 28  1  0  0  0
 22 32  2  0  0  0
 26 27  1  0  0  0
 28103  1  0  0  0
 28104  1  0  0  0
 29105  1  0  0  0
 29106  1  0  0  0
 33 34  1  0  0  0
 33 66  1  0  0  0
 33 70  2  0  0  0
 34 36  1  0  0  0
 34 59  1  0  0  0
 34107  1  0  0  0
 35 44  2  0  0  0
 35 45  1  0  0  0
 35 68  1  0  0  0
 36 56  1  0  0  0
 36108  1  0  0  0
 37 39  1  0  0  0
 37 47  1  0  0  0
 37 66  1  0  0  0
 37109  1  0  0  0
 38 43  2  0  0  0
 38 46  1  0  0  0
 38 47  1  0  0  0
 39 64  1  0  0  0
 39 67  2  0  0  0
 40 52  1  0  0  0
 40 53  2  0  0  0
 40 58  1  0  0  0
 41110  1  0  0  0
 41111  1  0  0  0
 41112  1  0  0  0
 41 48  1  0  0  0
 42 43  1  0  0  0
 42 66  1  0  0  0
 42113  1  0  0  0
 42114  1  0  0  0
 43 44  1  0  0  0
 44115  1  0  0  0
 45 46  2  0  0  0
 45116  1  0  0  0
 46117  1  0  0  0
 47118  1  0  0  0
 47119  1  0  0  0
 48 56  1  0  0  0
 48 65  1  0  0  0
 48120  1  0  0  0
 49 50  1  0  0  0
 49 53  1  0  0  0
 49 64  1  0  0  0
 49121  1  0  0  0
 50 51  1  0  0  0
 50122  1  0  0  0
 50123  1  0  0  0
 51 52  1  0  0  0
 51124  1  0  0  0
 51125  1  0  0  0
 52126  1  0  0  0
 52127  1  0  0  0
 53 54  1  0  0  0
 54 55  2  0  0  0
 54128  1  0  0  0
 55 57  1  0  0  0
 55129  1  0  0  0
 56 69  2  0  0  0
 57 58  2  0  0  0
 57130  1  0  0  0
 58131  1  0  0  0
 59 60  1  0  0  0
 59 61  1  0  0  0
 59 62  1  0  0  0
 60132  1  0  0  0
 60133  1  0  0  0
 60134  1  0  0  0
 61135  1  0  0  0
 61136  1  0  0  0
 61137  1  0  0  0
 62138  1  0  0  0
 62139  1  0  0  0
 62140  1  0  0  0
 63 65  1  0  0  0
 63141  1  0  0  0
 63142  1  0  0  0
 63143  1  0  0  0
 64144  1  0  0  0
 65145  1  0  0  0
 68 74  1  0  0  0
 71 72  2  0  0  0
 71 75  1  0  0  0
 71 86  1  0  0  0
 72 80  1  0  0  0
 72 81  1  0  0  0
 73 80  2  0  0  0
 73 82  1  0  0  0
 73 86  1  0  0  0
 74 76  2  0  0  0
 74146  1  0  0  0
 75 76  1  0  0  0
 75 83  2  0  0  0
 76 85  1  0  0  0
 77 79  1  0  0  0
 77 81  1  0  0  0
 77 84  2  0  0  0
 78 79  1  0  0  0
 78147  1  0  0  0
 78148  1  0  0  0
 78149  1  0  0  0
 79150  1  0  0  0
 79151  1  0  0  0
 81152  1  0  0  0
 82153  1  0  0  0
 85154  1  0  0  0
M  ISO  4   1 100  68 101  74 101  82 100
M  END
> <chiral flag>
0

> <version>
0

> <s_m_source_file>
/data/baiqing/PycharmProjects/Reinvent-master-3.2/result/LINK_invent/BTK/process_docking_weight1_custom_product_contain_oxygen_bond_distance_aromatic_linkinvent_7_9_3/rearranged_h_0178.sdf

> <i_m_source_file_index>
3

> <r_mmod_Potential_Energy-OPLS-2005>
678.976196289062

> <r_mmod_Stretch_Energy-OPLS-2005>
315.370025634766

> <r_mmod_Bend_Energy-OPLS-2005>
445.419860839844

> <r_mmod_Torsional_Energy-OPLS-2005>
205.559051513672

> <r_mmod_Improper_Torsional_Energy-OPLS-2005>
3.56315207481384

> <r_mmod_Van_der_Waal_Energy-OPLS-2005>
127.203659057617

> <r_mmod_Electrostatic_Energy-OPLS-2005>
-422.652526855469

> <r_mmod_Solvation_Energy-OPLS-2005>
-260.548797607422

> <b_mmod_Minimization_Converged-OPLS-2005>
0

> <r_mmod_RMS_Derivative-OPLS-2005>
0.933972179889679

$$$$
3
                    3D
 Structure written by MMmdl.
160168  0  0  1  0            999 V2000
  -30.7039  -14.4489   20.6252 C   0  0  0  0  0  0
  -30.4252  -12.3126   19.4155 C   0  0  0  0  0  0
  -29.4938  -12.5283   18.2052 C   0  0  0  0  0  0
  -28.0171  -12.3769   18.6190 C   0  0  0  0  0  0
  -27.6661  -13.2072   19.8828 C   0  0  2  0  0  0
  -28.7058  -12.9695   21.0007 C   0  0  0  0  0  0
  -25.2603  -13.8160   20.5709 C   0  0  0  0  0  0
  -24.1852  -13.0428   20.9186 C   0  0  0  0  0  0
  -24.6398  -11.6903   20.8747 C   0  0  0  0  0  0
  -23.9069  -10.4298   21.0409 C   0  0  0  0  0  0
  -24.3622   -9.4215   21.9182 C   0  0  0  0  0  0
  -23.6288   -8.2259   22.0758 C   0  0  0  0  0  0
  -22.4270   -8.0292   21.3540 C   0  0  0  0  0  0
  -21.9909   -9.0285   20.4650 C   0  0  0  0  0  0
  -22.7244  -10.2154   20.3056 C   0  0  0  0  0  0
  -21.6846   -6.0755   22.5304 C   0  0  0  0  0  0
  -21.3993   -6.5650   23.8231 C   0  0  0  0  0  0
  -21.3668   -5.6800   24.9195 C   0  0  0  0  0  0
  -21.6049   -4.3069   24.7231 C   0  0  0  0  0  0
  -21.8811   -3.8159   23.4350 C   0  0  0  0  0  0
  -21.9180   -4.6988   22.3405 C   0  0  0  0  0  0
  -22.7856  -13.5235   21.1848 C   0  0  0  0  0  0
  -22.1652   -4.2166   21.0983 F   0  0  0  0  0  0
  -21.5645   -3.4543   25.7741 F   0  0  0  0  0  0
  -30.0372  -13.2755   20.4561 N   0  0  0  0  0  0
  -26.3047  -12.9329   20.3406 N   0  0  0  0  0  0
  -25.9323  -11.6487   20.5796 N   0  0  0  0  0  0
  -22.0486  -12.8267   22.0417 N   0  0  0  0  0  0
  -25.4289  -15.1890   20.4141 N   0  0  0  0  0  0
  -31.7925  -14.6520   20.0750 O   0  0  0  0  0  0
  -21.6623   -6.8900   21.4250 O   0  0  0  0  0  0
  -22.3563  -14.5550   20.6720 O   0  0  0  0  0  0
  -24.6147  -31.8695   23.2079 C   0  0  0  0  0  0
  -25.9051  -32.4813   23.8402 C   0  0  1  0  0  0
  -27.2225  -27.4368   20.0998 C   0  0  0  0  0  0
  -25.5921  -33.8611   24.2342 N   0  0  0  0  0  0
  -23.4015  -30.4970   21.5472 C   0  0  2  0  0  0
  -24.8450  -28.9697   20.1078 C   0  0  0  0  0  0
  -22.7398  -29.4684   22.4953 C   0  0  0  0  0  0
  -18.0282  -28.1369   22.8538 C   0  0  0  0  0  0
  -24.1438  -36.7283   23.2665 C   0  0  0  0  0  0
  -25.9332  -30.8350   21.3631 C   0  0  0  0  0  0
  -26.0066  -29.4723   20.7111 C   0  0  0  0  0  0
  -27.1961  -28.7095   20.7147 C   0  0  0  0  0  0
  -26.0556  -26.9735   19.4562 C   0  0  0  0  0  0
  -24.8647  -27.7167   19.4807 C   0  0  0  0  0  0
  -23.6087  -29.8381   20.1591 C   0  0  0  0  0  0
  -25.4062  -36.3116   24.0390 C   0  0  1  0  0  0
  -20.5882  -28.3643   23.1297 C   0  0  2  0  0  0
  -20.6730  -26.9361   22.5398 C   0  0  0  0  0  0
  -19.5699  -26.6368   21.5224 C   0  0  0  0  0  0
  -18.1900  -26.7932   22.1662 C   0  0  0  0  0  0
  -19.1547  -28.8838   23.2917 C   0  0  0  0  0  0
  -18.9490  -30.1456   23.8918 C   0  0  0  0  0  0
  -17.6501  -30.6591   24.0597 C   0  0  0  0  0  0
  -25.9024  -34.9501   23.5156 C   0  0  0  0  0  0
  -16.5391  -29.9091   23.6334 C   0  0  0  0  0  0
  -16.7281  -28.6498   23.0370 C   0  0  0  0  0  0
  -26.4435  -31.6594   25.0763 C   0  0  0  0  0  0
  -25.3694  -31.3692   26.1504 C   0  0  0  0  0  0
  -27.0264  -30.3046   24.6101 C   0  0  0  0  0  0
  -27.6031  -32.4270   25.7542 C   0  0  0  0  0  0
  -27.5511  -37.1793   24.8493 C   0  0  0  0  0  0
  -21.4120  -29.3046   22.3704 N   0  0  0  0  0  0
  -26.4230  -37.3822   23.9455 N   0  0  0  0  0  0
  -24.6669  -31.0803   22.0975 N   0  0  0  0  0  0
  -23.4166  -28.8223   23.2987 O   0  0  0  0  0  0
  -28.3629  -26.6602   20.1371 O   0  0  0  0  0  0
  -26.5584  -34.8973   22.4697 O   0  0  0  0  0  0
  -23.5324  -32.1448   23.7454 O   0  0  0  0  0  0
  -30.0051  -22.4920   24.0790 C   0  0  0  0  0  0
  -30.3073  -21.0922   24.1212 C   0  0  0  0  0  0
  -30.6655  -20.6038   22.8762 C   0  0  0  0  0  0
  -30.0354  -23.0578   22.8271 C   0  0  0  0  0  0
  -30.3077  -18.1942   21.9075 C   0  0  0  0  0  0
  -29.5824  -24.8447   21.2795 C   0  0  0  0  0  0
  -27.5068  -24.2940   20.0733 C   0  0  0  0  0  0
  -31.2526  -19.2681   22.4771 C   0  0  0  0  0  0
  -30.0552  -15.6027   21.4269 C   0  0  0  0  0  0
  -30.9797  -16.8459   21.5717 C   0  0  2  0  0  0
  -28.2154  -25.4167   20.8636 C   0  0  2  0  0  0
  -30.2267  -20.3383   25.4336 C   0  0  0  0  0  0
  -29.6401  -24.3225   22.5179 N   0  0  0  0  0  0
  -29.1143  -18.4194   21.6664 O   0  0  0  0  0  0
  -30.5350  -24.8458   20.4962 O   0  0  0  0  0  0
  -31.9297  -16.5653   22.4712 F   0  0  0  0  0  0
  -30.9148  -20.9657   26.3872 F   0  0  0  0  0  0
  -28.9623  -20.2485   25.8451 F   0  0  0  0  0  0
  -30.7011  -19.0949   25.3544 F   0  0  0  0  0  0
  -30.5400  -21.8526   21.6591 S   0  0  0  0  0  0
  -31.4692  -12.4150   19.1123 H   0  0  0  0  0  0
  -30.3333  -11.2924   19.7939 H   0  0  0  0  0  0
  -29.7387  -11.8273   17.4063 H   0  0  0  0  0  0
  -29.6562  -13.5254   17.7972 H   0  0  0  0  0  0
  -27.8365  -11.3183   18.8102 H   0  0  0  0  0  0
  -27.3613  -12.6537   17.7930 H   0  0  0  0  0  0
  -27.7164  -14.2595   19.6012 H   0  0  0  0  0  0
  -28.6814  -11.9265   21.3248 H   0  0  0  0  0  0
  -28.4616  -13.5566   21.8846 H   0  0  0  0  0  0
  -25.2780   -9.5685   22.4747 H   0  0  0  0  0  0
  -24.0008   -7.4637   22.7474 H   0  0  0  0  0  0
  -21.0840   -8.8797   19.8951 H   0  0  0  0  0  0
  -22.3714  -10.9688   19.6161 H   0  0  0  0  0  0
  -21.1958   -7.6149   23.9739 H   0  0  0  0  0  0
  -21.1505   -6.0526   25.9101 H   0  0  0  0  0  0
  -22.0571   -2.7613   23.2842 H   0  0  0  0  0  0
  -22.4079  -11.9913   22.4822 H   0  0  0  0  0  0
  -21.1106  -13.1318   22.2618 H   0  0  0  0  0  0
  -24.6586  -15.8391   20.5346 H   0  0  0  0  0  0
  -26.2896  -15.6404   20.1302 H   0  0  0  0  0  0
  -26.7141  -32.5576   23.1176 H   0  0  0  0  0  0
  -25.0167  -33.9787   25.0552 H   0  0  0  0  0  0
  -22.6940  -31.3189   21.4072 H   0  0  0  0  0  0
  -23.3755  -35.9568   23.3367 H   0  0  0  0  0  0
  -24.3518  -36.8820   22.2065 H   0  0  0  0  0  0
  -23.7115  -37.6495   23.6593 H   0  0  0  0  0  0
  -26.0557  -31.5974   20.5937 H   0  0  0  0  0  0
  -26.8176  -30.8846   21.9882 H   0  0  0  0  0  0
  -28.0861  -29.0898   21.1953 H   0  0  0  0  0  0
  -26.0493  -26.0465   18.9105 H   0  0  0  0  0  0
  -23.9770  -27.3272   19.0016 H   0  0  0  0  0  0
  -23.7292  -30.6172   19.4028 H   0  0  0  0  0  0
  -22.7274  -29.2722   19.8480 H   0  0  0  0  0  0
  -25.1205  -36.1972   25.0870 H   0  0  0  0  0  0
  -21.0077  -28.3195   24.1374 H   0  0  0  0  0  0
  -20.5622  -26.2264   23.3592 H   0  0  0  0  0  0
  -21.6602  -26.7349   22.1210 H   0  0  0  0  0  0
  -19.6851  -25.6289   21.1210 H   0  0  0  0  0  0
  -19.6636  -27.3217   20.6778 H   0  0  0  0  0  0
  -17.4148  -26.6768   21.4035 H   0  0  0  0  0  0
  -18.0262  -26.0041   22.9014 H   0  0  0  0  0  0
  -19.7973  -30.7291   24.2245 H   0  0  0  0  0  0
  -17.5052  -31.6294   24.5167 H   0  0  0  0  0  0
  -15.5382  -30.3037   23.7606 H   0  0  0  0  0  0
  -15.8687  -28.0837   22.7059 H   0  0  0  0  0  0
  -24.5870  -30.7012   25.7840 H   0  0  0  0  0  0
  -24.8892  -32.2866   26.4913 H   0  0  0  0  0  0
  -25.8084  -30.8841   27.0246 H   0  0  0  0  0  0
  -26.2799  -29.6842   24.1178 H   0  0  0  0  0  0
  -27.4085  -29.7211   25.4504 H   0  0  0  0  0  0
  -27.8594  -30.4429   23.9238 H   0  0  0  0  0  0
  -27.2650  -33.3547   26.2139 H   0  0  0  0  0  0
  -28.3830  -32.6822   25.0361 H   0  0  0  0  0  0
  -28.0727  -31.8385   26.5407 H   0  0  0  0  0  0
  -28.2623  -38.0024   24.7547 H   0  0  0  0  0  0
  -28.0922  -36.2571   24.6301 H   0  0  0  0  0  0
  -27.2265  -37.1448   25.8922 H   0  0  0  0  0  0
  -20.9244  -29.8764   21.6948 H   0  0  0  0  0  0
  -26.0145  -38.2875   24.1525 H   0  0  0  0  0  0
  -29.7429  -23.0205   24.9857 H   0  0  0  0  0  0
  -27.7295  -23.3044   20.4824 H   0  0  0  0  0  0
  -27.8099  -24.2894   19.0258 H   0  0  0  0  0  0
  -26.4242  -24.3811   20.1269 H   0  0  0  0  0  0
  -31.7859  -18.8321   23.3177 H   0  0  0  0  0  0
  -32.0090  -19.4414   21.7120 H   0  0  0  0  0  0
  -29.1235  -15.8719   20.9278 H   0  0  0  0  0  0
  -29.7890  -15.2492   22.4231 H   0  0  0  0  0  0
  -31.5050  -17.0161   20.6312 H   0  0  0  0  0  0
  -27.6471  -25.6146   21.7749 H   0  0  0  0  0  0
  -28.9751  -24.7196   23.1660 H   0  0  0  0  0  0
  1 25  1  0  0  0
  1 30  2  0  0  0
  1 79  1  0  0  0
  2  3  1  0  0  0
  2 25  1  0  0  0
  2 91  1  0  0  0
  2 92  1  0  0  0
  3  4  1  0  0  0
  3 93  1  0  0  0
  3 94  1  0  0  0
  4  5  1  0  0  0
  4 95  1  0  0  0
  4 96  1  0  0  0
  5  6  1  0  0  0
  5 26  1  0  0  0
  5 97  1  0  0  0
  6 25  1  0  0  0
  6 98  1  0  0  0
  6 99  1  0  0  0
  7  8  2  0  0  0
  7 26  1  0  0  0
  7 29  1  0  0  0
  8  9  1  0  0  0
  8 22  1  0  0  0
  9 10  1  0  0  0
  9 27  2  0  0  0
 10 11  2  0  0  0
 10 15  1  0  0  0
 11 12  1  0  0  0
 11100  1  0  0  0
 12 13  2  0  0  0
 12101  1  0  0  0
 13 14  1  0  0  0
 13 31  1  0  0  0
 14 15  2  0  0  0
 14102  1  0  0  0
 15103  1  0  0  0
 16 17  2  0  0  0
 16 21  1  0  0  0
 16 31  1  0  0  0
 17 18  1  0  0  0
 17104  1  0  0  0
 18 19  2  0  0  0
 18105  1  0  0  0
 19 20  1  0  0  0
 19 24  1  0  0  0
 20 21  2  0  0  0
 20106  1  0  0  0
 21 23  1  0  0  0
 22 28  1  0  0  0
 22 32  2  0  0  0
 26 27  1  0  0  0
 28107  1  0  0  0
 28108  1  0  0  0
 29109  1  0  0  0
 29110  1  0  0  0
 33 34  1  0  0  0
 33 66  1  0  0  0
 33 70  2  0  0  0
 34 36  1  0  0  0
 34 59  1  0  0  0
 34111  1  0  0  0
 35 44  2  0  0  0
 35 45  1  0  0  0
 35 68  1  0  0  0
 36 56  1  0  0  0
 36112  1  0  0  0
 37 39  1  0  0  0
 37 47  1  0  0  0
 37 66  1  0  0  0
 37113  1  0  0  0
 38 43  2  0  0  0
 38 46  1  0  0  0
 38 47  1  0  0  0
 39 64  1  0  0  0
 39 67  2  0  0  0
 40 52  1  0  0  0
 40 53  2  0  0  0
 40 58  1  0  0  0
 41114  1  0  0  0
 41115  1  0  0  0
 41116  1  0  0  0
 41 48  1  0  0  0
 42 43  1  0  0  0
 42 66  1  0  0  0
 42117  1  0  0  0
 42118  1  0  0  0
 43 44  1  0  0  0
 44119  1  0  0  0
 45 46  2  0  0  0
 45120  1  0  0  0
 46121  1  0  0  0
 47122  1  0  0  0
 47123  1  0  0  0
 48 56  1  0  0  0
 48 65  1  0  0  0
 48124  1  0  0  0
 49 50  1  0  0  0
 49 53  1  0  0  0
 49 64  1  0  0  0
 49125  1  0  0  0
 50 51  1  0  0  0
 50126  1  0  0  0
 50127  1  0  0  0
 51 52  1  0  0  0
 51128  1  0  0  0
 51129  1  0  0  0
 52130  1  0  0  0
 52131  1  0  0  0
 53 54  1  0  0  0
 54 55  2  0  0  0
 54132  1  0  0  0
 55 57  1  0  0  0
 55133  1  0  0  0
 56 69  2  0  0  0
 57 58  2  0  0  0
 57134  1  0  0  0
 58135  1  0  0  0
 59 60  1  0  0  0
 59 61  1  0  0  0
 59 62  1  0  0  0
 60136  1  0  0  0
 60137  1  0  0  0
 60138  1  0  0  0
 61139  1  0  0  0
 61140  1  0  0  0
 61141  1  0  0  0
 62142  1  0  0  0
 62143  1  0  0  0
 62144  1  0  0  0
 63 65  1  0  0  0
 63145  1  0  0  0
 63146  1  0  0  0
 63147  1  0  0  0
 64148  1  0  0  0
 65149  1  0  0  0
 68 81  1  0  0  0
 71 72  1  0  0  0
 71 74  2  0  0  0
 71150  1  0  0  0
 72 73  2  0  0  0
 72 82  1  0  0  0
 73 78  1  0  0  0
 73 90  1  0  0  0
 74 83  1  0  0  0
 74 90  1  0  0  0
 75 78  1  0  0  0
 75 80  1  0  0  0
 75 84  2  0  0  0
 76 81  1  0  0  0
 76 83  1  0  0  0
 76 85  2  0  0  0
 77151  1  0  0  0
 77152  1  0  0  0
 77153  1  0  0  0
 77 81  1  0  0  0
 78154  1  0  0  0
 78155  1  0  0  0
 79 80  1  0  0  0
 79156  1  0  0  0
 79157  1  0  0  0
 80 86  1  0  0  0
 80158  1  0  0  0
 81159  1  0  0  0
 82 87  1  0  0  0
 82 88  1  0  0  0
 82 89  1  0  0  0
 83160  1  0  0  0
M  ISO  4   1 100  68 101  79 100  81 101
M  END
> <chiral flag>
0

> <version>
0

> <s_m_source_file>
/data/baiqing/PycharmProjects/Reinvent-master-3.2/result/LINK_invent/BTK/process_docking_weight1_custom_product_contain_oxygen_bond_distance_aromatic_linkinvent_7_9_3/rearranged_h_0178.sdf

> <i_m_source_file_index>
4

> <r_mmod_Potential_Energy-OPLS-2005>
-50.8891830444336

> <r_mmod_Stretch_Energy-OPLS-2005>
37.9772148132324

> <r_mmod_Bend_Energy-OPLS-2005>
112.969024658203

> <r_mmod_Torsional_Energy-OPLS-2005>
228.383499145508

> <r_mmod_Improper_Torsional_Energy-OPLS-2005>
5.42743921279907

> <r_mmod_Van_der_Waal_Energy-OPLS-2005>
137.924468994141

> <r_mmod_Electrostatic_Energy-OPLS-2005>
-358.369445800781

> <r_mmod_Solvation_Energy-OPLS-2005>
-227.562927246094

> <b_mmod_Minimization_Converged-OPLS-2005>
0

> <r_mmod_RMS_Derivative-OPLS-2005>
6.23836088180542

$$$$
4
                    3D
 Structure written by MMmdl.
153161  0  0  1  0            999 V2000
  -30.7276  -14.3965   20.6665 C   0  0  0  0  0  0
  -30.4246  -12.3026   19.3937 C   0  0  0  0  0  0
  -29.4859  -12.5191   18.1895 C   0  0  0  0  0  0
  -28.0085  -12.3735   18.6072 C   0  0  0  0  0  0
  -27.6636  -13.1969   19.8765 C   0  0  2  0  0  0
  -28.7003  -12.9289   20.9879 C   0  0  0  0  0  0
  -25.2612  -13.8140   20.5671 C   0  0  0  0  0  0
  -24.1850  -13.0433   20.9175 C   0  0  0  0  0  0
  -24.6374  -11.6892   20.8717 C   0  0  0  0  0  0
  -23.9034  -10.4286   21.0396 C   0  0  0  0  0  0
  -24.3598   -9.4207   21.9174 C   0  0  0  0  0  0
  -23.6282   -8.2238   22.0747 C   0  0  0  0  0  0
  -22.4268   -8.0269   21.3536 C   0  0  0  0  0  0
  -21.9892   -9.0241   20.4640 C   0  0  0  0  0  0
  -22.7210  -10.2124   20.3047 C   0  0  0  0  0  0
  -21.6850   -6.0733   22.5281 C   0  0  0  0  0  0
  -21.4009   -6.5639   23.8210 C   0  0  0  0  0  0
  -21.3657   -5.6797   24.9172 C   0  0  0  0  0  0
  -21.6042   -4.3059   24.7227 C   0  0  0  0  0  0
  -21.8821   -3.8146   23.4351 C   0  0  0  0  0  0
  -21.9192   -4.6961   22.3404 C   0  0  0  0  0  0
  -22.7874  -13.5241   21.1844 C   0  0  0  0  0  0
  -22.1668   -4.2144   21.0977 F   0  0  0  0  0  0
  -21.5623   -3.4542   25.7738 F   0  0  0  0  0  0
  -30.0381  -13.2449   20.4523 N   0  0  0  0  0  0
  -26.3027  -12.9282   20.3349 N   0  0  0  0  0  0
  -25.9291  -11.6452   20.5732 N   0  0  0  0  0  0
  -22.0515  -12.8233   22.0397 N   0  0  0  0  0  0
  -25.4382  -15.1859   20.4110 N   0  0  0  0  0  0
  -31.8007  -14.6522   20.1070 O   0  0  0  0  0  0
  -21.6640   -6.8864   21.4237 O   0  0  0  0  0  0
  -22.3567  -14.5552   20.6694 O   0  0  0  0  0  0
  -24.6136  -31.8695   23.2089 C   0  0  0  0  0  0
  -25.9036  -32.4827   23.8373 C   0  0  1  0  0  0
  -27.2229  -27.4509   20.0895 C   0  0  0  0  0  0
  -25.5921  -33.8617   24.2326 N   0  0  0  0  0  0
  -23.3974  -30.4970   21.5486 C   0  0  2  0  0  0
  -24.8406  -28.9627   20.1112 C   0  0  0  0  0  0
  -22.7387  -29.4692   22.4972 C   0  0  0  0  0  0
  -18.0275  -28.1383   22.8509 C   0  0  0  0  0  0
  -24.1494  -36.7317   23.2640 C   0  0  0  0  0  0
  -25.9238  -30.8422   21.3532 C   0  0  0  0  0  0
  -26.0003  -29.4767   20.7044 C   0  0  0  0  0  0
  -27.1995  -28.7299   20.6868 C   0  0  0  0  0  0
  -26.0494  -26.9469   19.4898 C   0  0  0  0  0  0
  -24.8594  -27.6979   19.4998 C   0  0  0  0  0  0
  -23.6028  -29.8303   20.1627 C   0  0  0  0  0  0
  -25.4114  -36.3116   24.0338 C   0  0  1  0  0  0
  -20.5871  -28.3663   23.1333 C   0  0  2  0  0  0
  -20.6767  -26.9407   22.5422 C   0  0  0  0  0  0
  -19.5739  -26.6401   21.5238 C   0  0  0  0  0  0
  -18.1918  -26.7949   22.1627 C   0  0  0  0  0  0
  -19.1528  -28.8832   23.2929 C   0  0  0  0  0  0
  -18.9453  -30.1451   23.8920 C   0  0  0  0  0  0
  -17.6456  -30.6589   24.0576 C   0  0  0  0  0  0
  -25.9045  -34.9474   23.5126 C   0  0  0  0  0  0
  -16.5353  -29.9082   23.6330 C   0  0  0  0  0  0
  -16.7268  -28.6503   23.0349 C   0  0  0  0  0  0
  -26.4481  -31.6570   25.0681 C   0  0  0  0  0  0
  -25.3763  -31.3652   26.1432 C   0  0  0  0  0  0
  -27.0275  -30.3021   24.5982 C   0  0  0  0  0  0
  -27.6094  -32.4260   25.7420 C   0  0  0  0  0  0
  -27.5573  -37.1808   24.8475 C   0  0  0  0  0  0
  -21.4119  -29.3039   22.3729 N   0  0  0  0  0  0
  -26.4289  -37.3804   23.9412 N   0  0  0  0  0  0
  -24.6632  -31.0845   22.0959 N   0  0  0  0  0  0
  -23.4194  -28.8225   23.2983 O   0  0  0  0  0  0
  -28.3789  -26.7099   20.0893 O   0  0  0  0  0  0
  -26.5607  -34.8939   22.4687 O   0  0  0  0  0  0
  -23.5334  -32.1424   23.7524 O   0  0  0  0  0  0
  -30.7297  -18.9858   22.3159 C   0  0  0  0  0  0
  -31.8388  -18.2135   22.6030 C   0  0  0  0  0  0
  -30.5191  -16.5722   21.8066 C   0  0  0  0  0  0
  -30.4965  -20.4401   22.4569 C   0  0  0  0  0  0
  -28.5003  -24.2874   19.6553 C   0  0  0  0  0  0
  -28.2496  -25.4102   20.6784 C   0  0  0  0  0  0
  -28.4341  -22.8338   20.1338 C   0  0  0  0  0  0
  -31.7183  -16.8482   22.3243 N   0  0  0  0  0  0
  -29.5797  -20.9733   21.7060 N   0  0  0  0  0  0
  -31.2947  -21.0461   23.4141 N   0  0  0  0  0  0
  -30.1117  -15.2615   21.4848 N   0  0  0  0  0  0
  -28.6939  -24.5394   18.4589 O   0  0  0  0  0  0
  -28.1962  -22.8516   22.8058 O   0  0  0  0  0  0
  -30.4668  -23.4027   21.8154 O   0  0  0  0  0  0
  -32.9441  -18.7029   23.1200 F   0  0  0  0  0  0
  -29.4543  -17.9663   21.6694 S   0  0  0  0  0  0
  -29.2240  -22.6116   21.7773 S   0  0  0  0  0  0
  -31.4647  -12.4228   19.0860 H   0  0  0  0  0  0
  -30.3423  -11.2786   19.7617 H   0  0  0  0  0  0
  -29.7204  -11.8048   17.3986 H   0  0  0  0  0  0
  -29.6508  -13.5103   17.7637 H   0  0  0  0  0  0
  -27.8171  -11.3145   18.7888 H   0  0  0  0  0  0
  -27.3546  -12.6598   17.7824 H   0  0  0  0  0  0
  -27.7228  -14.2500   19.6048 H   0  0  0  0  0  0
  -28.6722  -11.8766   21.2768 H   0  0  0  0  0  0
  -28.4440  -13.4733   21.8966 H   0  0  0  0  0  0
  -25.2745   -9.5691   22.4750 H   0  0  0  0  0  0
  -24.0000   -7.4626   22.7458 H   0  0  0  0  0  0
  -21.0826   -8.8741   19.8944 H   0  0  0  0  0  0
  -22.3658  -10.9654   19.6159 H   0  0  0  0  0  0
  -21.2004   -7.6146   23.9706 H   0  0  0  0  0  0
  -21.1477   -6.0528   25.9069 H   0  0  0  0  0  0
  -22.0604   -2.7607   23.2851 H   0  0  0  0  0  0
  -22.4133  -11.9898   22.4795 H   0  0  0  0  0  0
  -21.1117  -13.1229   22.2566 H   0  0  0  0  0  0
  -24.6768  -15.8468   20.5230 H   0  0  0  0  0  0
  -26.2920  -15.6189   20.0816 H   0  0  0  0  0  0
  -26.7089  -32.5540   23.1129 H   0  0  0  0  0  0
  -25.0057  -33.9769   25.0464 H   0  0  0  0  0  0
  -22.6850  -31.3138   21.4092 H   0  0  0  0  0  0
  -23.3750  -35.9656   23.3340 H   0  0  0  0  0  0
  -24.3598  -36.8907   22.2057 H   0  0  0  0  0  0
  -23.7260  -37.6542   23.6622 H   0  0  0  0  0  0
  -26.0285  -31.6048   20.5801 H   0  0  0  0  0  0
  -26.8192  -30.9057   21.9589 H   0  0  0  0  0  0
  -28.0983  -29.1238   21.1373 H   0  0  0  0  0  0
  -26.0562  -25.9807   19.0045 H   0  0  0  0  0  0
  -23.9674  -27.2999   19.0359 H   0  0  0  0  0  0
  -23.7084  -30.6047   19.4020 H   0  0  0  0  0  0
  -22.7244  -29.2555   19.8650 H   0  0  0  0  0  0
  -25.1281  -36.1969   25.0836 H   0  0  0  0  0  0
  -20.9985  -28.3215   24.1442 H   0  0  0  0  0  0
  -20.5719  -26.2258   23.3587 H   0  0  0  0  0  0
  -21.6616  -26.7452   22.1172 H   0  0  0  0  0  0
  -19.6900  -25.6338   21.1201 H   0  0  0  0  0  0
  -19.6681  -27.3254   20.6809 H   0  0  0  0  0  0
  -17.4200  -26.6749   21.4016 H   0  0  0  0  0  0
  -18.0271  -26.0075   22.8988 H   0  0  0  0  0  0
  -19.7932  -30.7272   24.2282 H   0  0  0  0  0  0
  -17.5010  -31.6268   24.5184 H   0  0  0  0  0  0
  -15.5358  -30.2995   23.7656 H   0  0  0  0  0  0
  -15.8672  -28.0843   22.7050 H   0  0  0  0  0  0
  -24.5978  -30.6937   25.7792 H   0  0  0  0  0  0
  -24.8889  -32.2783   26.4849 H   0  0  0  0  0  0
  -25.8154  -30.8857   27.0193 H   0  0  0  0  0  0
  -26.2735  -29.6786   24.1151 H   0  0  0  0  0  0
  -27.4220  -29.7246   25.4364 H   0  0  0  0  0  0
  -27.8511  -30.4382   23.8973 H   0  0  0  0  0  0
  -27.2755  -33.3573   26.1986 H   0  0  0  0  0  0
  -28.3891  -32.6777   25.0229 H   0  0  0  0  0  0
  -28.0742  -31.8357   26.5329 H   0  0  0  0  0  0
  -28.2621  -38.0077   24.7490 H   0  0  0  0  0  0
  -28.1032  -36.2614   24.6313 H   0  0  0  0  0  0
  -27.2285  -37.1486   25.8877 H   0  0  0  0  0  0
  -20.9259  -29.8776   21.6981 H   0  0  0  0  0  0
  -26.0183  -38.2875   24.1431 H   0  0  0  0  0  0
  -28.9887  -25.3485   21.4739 H   0  0  0  0  0  0
  -27.2756  -25.2645   21.1477 H   0  0  0  0  0  0
  -28.9614  -22.2025   19.4259 H   0  0  0  0  0  0
  -27.4061  -22.4835   20.1970 H   0  0  0  0  0  0
  -32.0249  -20.5678   23.9293 H   0  0  0  0  0  0
  -31.3547  -22.0431   23.5847 H   0  0  0  0  0  0
  -29.1827  -14.9991   21.7753 H   0  0  0  0  0  0
  1 25  1  0  0  0
  1 30  2  0  0  0
  1 81  1  0  0  0
  2  3  1  0  0  0
  2 25  1  0  0  0
  2 88  1  0  0  0
  2 89  1  0  0  0
  3  4  1  0  0  0
  3 90  1  0  0  0
  3 91  1  0  0  0
  4  5  1  0  0  0
  4 92  1  0  0  0
  4 93  1  0  0  0
  5  6  1  0  0  0
  5 26  1  0  0  0
  5 94  1  0  0  0
  6 25  1  0  0  0
  6 95  1  0  0  0
  6 96  1  0  0  0
  7  8  2  0  0  0
  7 26  1  0  0  0
  7 29  1  0  0  0
  8  9  1  0  0  0
  8 22  1  0  0  0
  9 10  1  0  0  0
  9 27  2  0  0  0
 10 11  2  0  0  0
 10 15  1  0  0  0
 11 12  1  0  0  0
 11 97  1  0  0  0
 12 13  2  0  0  0
 12 98  1  0  0  0
 13 14  1  0  0  0
 13 31  1  0  0  0
 14 15  2  0  0  0
 14 99  1  0  0  0
 15100  1  0  0  0
 16 17  2  0  0  0
 16 21  1  0  0  0
 16 31  1  0  0  0
 17 18  1  0  0  0
 17101  1  0  0  0
 18 19  2  0  0  0
 18102  1  0  0  0
 19 20  1  0  0  0
 19 24  1  0  0  0
 20 21  2  0  0  0
 20103  1  0  0  0
 21 23  1  0  0  0
 22 28  1  0  0  0
 22 32  2  0  0  0
 26 27  1  0  0  0
 28104  1  0  0  0
 28105  1  0  0  0
 29106  1  0  0  0
 29107  1  0  0  0
 33 34  1  0  0  0
 33 66  1  0  0  0
 33 70  2  0  0  0
 34 36  1  0  0  0
 34 59  1  0  0  0
 34108  1  0  0  0
 35 44  2  0  0  0
 35 45  1  0  0  0
 35 68  1  0  0  0
 36 56  1  0  0  0
 36109  1  0  0  0
 37 39  1  0  0  0
 37 47  1  0  0  0
 37 66  1  0  0  0
 37110  1  0  0  0
 38 43  2  0  0  0
 38 46  1  0  0  0
 38 47  1  0  0  0
 39 64  1  0  0  0
 39 67  2  0  0  0
 40 52  1  0  0  0
 40 53  2  0  0  0
 40 58  1  0  0  0
 41111  1  0  0  0
 41112  1  0  0  0
 41113  1  0  0  0
 41 48  1  0  0  0
 42 43  1  0  0  0
 42 66  1  0  0  0
 42114  1  0  0  0
 42115  1  0  0  0
 43 44  1  0  0  0
 44116  1  0  0  0
 45 46  2  0  0  0
 45117  1  0  0  0
 46118  1  0  0  0
 47119  1  0  0  0
 47120  1  0  0  0
 48 56  1  0  0  0
 48 65  1  0  0  0
 48121  1  0  0  0
 49 50  1  0  0  0
 49 53  1  0  0  0
 49 64  1  0  0  0
 49122  1  0  0  0
 50 51  1  0  0  0
 50123  1  0  0  0
 50124  1  0  0  0
 51 52  1  0  0  0
 51125  1  0  0  0
 51126  1  0  0  0
 52127  1  0  0  0
 52128  1  0  0  0
 53 54  1  0  0  0
 54 55  2  0  0  0
 54129  1  0  0  0
 55 57  1  0  0  0
 55130  1  0  0  0
 56 69  2  0  0  0
 57 58  2  0  0  0
 57131  1  0  0  0
 58132  1  0  0  0
 59 60  1  0  0  0
 59 61  1  0  0  0
 59 62  1  0  0  0
 60133  1  0  0  0
 60134  1  0  0  0
 60135  1  0  0  0
 61136  1  0  0  0
 61137  1  0  0  0
 61138  1  0  0  0
 62139  1  0  0  0
 62140  1  0  0  0
 62141  1  0  0  0
 63 65  1  0  0  0
 63142  1  0  0  0
 63143  1  0  0  0
 63144  1  0  0  0
 64145  1  0  0  0
 65146  1  0  0  0
 68 76  1  0  0  0
 71 72  2  0  0  0
 71 74  1  0  0  0
 71 86  1  0  0  0
 72 78  1  0  0  0
 72 85  1  0  0  0
 73 78  2  0  0  0
 73 81  1  0  0  0
 73 86  1  0  0  0
 74 79  2  0  0  0
 74 80  1  0  0  0
 75 76  1  0  0  0
 75 77  1  0  0  0
 75 82  2  0  0  0
 76147  1  0  0  0
 76148  1  0  0  0
 77149  1  0  0  0
 77150  1  0  0  0
 77 87  1  0  0  0
 79 87  1  0  0  0
 80151  1  0  0  0
 80152  1  0  0  0
 81153  1  0  0  0
 83 87  2  0  0  0
 84 87  2  0  0  0
M  ISO  4   1 100  68 101  76 101  81 100
M  END
> <chiral flag>
0

> <version>
0

> <s_m_source_file>
/data/baiqing/PycharmProjects/Reinvent-master-3.2/result/LINK_invent/BTK/process_docking_weight1_custom_product_contain_oxygen_bond_distance_aromatic_linkinvent_7_9_3/rearranged_h_0178.sdf

> <i_m_source_file_index>
5

> <r_mmod_Potential_Energy-OPLS-2005>
-235.231369018555

> <r_mmod_Stretch_Energy-OPLS-2005>
33.0098762512207

> <r_mmod_Bend_Energy-OPLS-2005>
99.0807952880859

> <r_mmod_Torsional_Energy-OPLS-2005>
241.384643554688

> <r_mmod_Improper_Torsional_Energy-OPLS-2005>
3.14219069480896

> <r_mmod_Van_der_Waal_Energy-OPLS-2005>
136.409164428711

> <r_mmod_Electrostatic_Energy-OPLS-2005>
-476.614440917969

> <r_mmod_Solvation_Energy-OPLS-2005>
-280.207672119141

> <b_mmod_Minimization_Converged-OPLS-2005>
0

> <r_mmod_RMS_Derivative-OPLS-2005>
3.17634153366089

$$$$
5
                    3D
 Structure written by MMmdl.
162170  0  0  1  0            999 V2000
  -30.6820  -14.4933   20.5248 C   0  0  0  0  0  0
  -30.4214  -12.3039   19.4413 C   0  0  0  0  0  0
  -29.5056  -12.5089   18.2173 C   0  0  0  0  0  0
  -28.0212  -12.3765   18.6156 C   0  0  0  0  0  0
  -27.6611  -13.2173   19.8697 C   0  0  2  0  0  0
  -28.6990  -13.0087   20.9994 C   0  0  0  0  0  0
  -25.2534  -13.8203   20.5618 C   0  0  0  0  0  0
  -24.1803  -13.0463   20.9138 C   0  0  0  0  0  0
  -24.6382  -11.6936   20.8701 C   0  0  0  0  0  0
  -23.9062  -10.4301   21.0379 C   0  0  0  0  0  0
  -24.3627   -9.4229   21.9155 C   0  0  0  0  0  0
  -23.6307   -8.2255   22.0724 C   0  0  0  0  0  0
  -22.4301   -8.0274   21.3509 C   0  0  0  0  0  0
  -21.9924   -9.0260   20.4640 C   0  0  0  0  0  0
  -22.7233  -10.2152   20.3036 C   0  0  0  0  0  0
  -21.6853   -6.0742   22.5274 C   0  0  0  0  0  0
  -21.4020   -6.5642   23.8226 C   0  0  0  0  0  0
  -21.3655   -5.6784   24.9173 C   0  0  0  0  0  0
  -21.6049   -4.3049   24.7209 C   0  0  0  0  0  0
  -21.8813   -3.8139   23.4323 C   0  0  0  0  0  0
  -21.9187   -4.6960   22.3395 C   0  0  0  0  0  0
  -22.7800  -13.5230   21.1832 C   0  0  0  0  0  0
  -22.1639   -4.2158   21.0963 F   0  0  0  0  0  0
  -21.5652   -3.4526   25.7722 F   0  0  0  0  0  0
  -30.0313  -13.3001   20.4495 N   0  0  0  0  0  0
  -26.2997  -12.9410   20.3294 N   0  0  0  0  0  0
  -25.9334  -11.6567   20.5727 N   0  0  0  0  0  0
  -22.0435  -12.8244   22.0402 N   0  0  0  0  0  0
  -25.4206  -15.1918   20.3998 N   0  0  0  0  0  0
  -31.8262  -14.6591   20.0875 O   0  0  0  0  0  0
  -21.6636   -6.8875   21.4241 O   0  0  0  0  0  0
  -22.3470  -14.5501   20.6664 O   0  0  0  0  0  0
  -24.6169  -31.8628   23.2032 C   0  0  0  0  0  0
  -25.9056  -32.4790   23.8326 C   0  0  1  0  0  0
  -27.2457  -27.4129   20.1109 C   0  0  0  0  0  0
  -25.5907  -33.8582   24.2286 N   0  0  0  0  0  0
  -23.4080  -30.4850   21.5417 C   0  0  2  0  0  0
  -24.8582  -28.9387   20.1169 C   0  0  0  0  0  0
  -22.7412  -29.4645   22.4938 C   0  0  0  0  0  0
  -18.0259  -28.1403   22.8451 C   0  0  0  0  0  0
  -24.1489  -36.7323   23.2642 C   0  0  0  0  0  0
  -25.9364  -30.8276   21.3511 C   0  0  0  0  0  0
  -26.0180  -29.4540   20.7111 C   0  0  0  0  0  0
  -27.2162  -28.7019   20.6929 C   0  0  0  0  0  0
  -26.0696  -26.9077   19.5168 C   0  0  0  0  0  0
  -24.8815  -27.6687   19.5114 C   0  0  0  0  0  0
  -23.6172  -29.8052   20.1611 C   0  0  0  0  0  0
  -25.4105  -36.3093   24.0334 C   0  0  1  0  0  0
  -20.5862  -28.3684   23.1304 C   0  0  2  0  0  0
  -20.6755  -26.9412   22.5419 C   0  0  0  0  0  0
  -19.5749  -26.6397   21.5195 C   0  0  0  0  0  0
  -18.1923  -26.7945   22.1599 C   0  0  0  0  0  0
  -19.1517  -28.8855   23.2877 C   0  0  0  0  0  0
  -18.9441  -30.1455   23.8893 C   0  0  0  0  0  0
  -17.6451  -30.6597   24.0568 C   0  0  0  0  0  0
  -25.9025  -34.9456   23.5108 C   0  0  0  0  0  0
  -16.5334  -29.9101   23.6327 C   0  0  0  0  0  0
  -16.7254  -28.6535   23.0307 C   0  0  0  0  0  0
  -26.4479  -31.6579   25.0671 C   0  0  0  0  0  0
  -25.3755  -31.3685   26.1426 C   0  0  0  0  0  0
  -27.0315  -30.3026   24.6062 C   0  0  0  0  0  0
  -27.6064  -32.4275   25.7439 C   0  0  0  0  0  0
  -27.5574  -37.1802   24.8448 C   0  0  0  0  0  0
  -21.4132  -29.3048   22.3692 N   0  0  0  0  0  0
  -26.4291  -37.3779   23.9394 N   0  0  0  0  0  0
  -24.6734  -31.0733   22.0915 N   0  0  0  0  0  0
  -23.4176  -28.8194   23.2996 O   0  0  0  0  0  0
  -28.4268  -26.7013   20.0324 O   0  0  0  0  0  0
  -26.5576  -34.8927   22.4664 O   0  0  0  0  0  0
  -23.5355  -32.1348   23.7431 O   0  0  0  0  0  0
  -29.9486  -19.1079   20.1773 C   0  0  0  0  0  0
  -29.8031  -18.7395   18.8618 C   0  0  0  0  0  0
  -29.9276  -16.8030   20.3321 C   0  0  0  0  0  0
  -31.5697  -20.5221   22.7571 C   0  0  0  0  0  0
  -31.7205  -19.7972   24.0896 C   0  0  0  0  0  0
  -27.6324  -21.1010   20.8599 C   0  0  0  0  0  0
  -28.5795  -24.1832   20.1184 C   0  0  0  0  0  0
  -29.3251  -23.0193   20.8586 C   0  0  0  0  0  0
  -28.5901  -25.5435   20.8787 C   0  0  0  0  0  0
  -30.1431  -20.5258   20.7206 C   0  0  1  0  0  0
  -29.0194  -21.5648   20.3648 C   0  0  1  0  0  0
  -29.9559  -17.9615   21.0191 N   0  0  0  0  0  0
  -29.9578  -15.5353   20.9767 N   0  0  0  0  0  0
  -30.3698  -20.4524   22.1660 N   0  0  0  0  0  0
  -32.5479  -21.0693   22.2482 O   0  0  0  0  0  0
  -29.7424  -19.6193   17.8324 F   0  0  0  0  0  0
  -29.7643  -17.0194   18.5890 S   0  0  0  0  0  0
  -31.4687  -12.3855   19.1488 H   0  0  0  0  0  0
  -30.3001  -11.2959   19.8420 H   0  0  0  0  0  0
  -29.7580  -11.7864   17.4408 H   0  0  0  0  0  0
  -29.6803  -13.4956   17.7792 H   0  0  0  0  0  0
  -27.8201  -11.3217   18.8063 H   0  0  0  0  0  0
  -27.3825  -12.6539   17.7749 H   0  0  0  0  0  0
  -27.7064  -14.2646   19.5678 H   0  0  0  0  0  0
  -28.6668  -11.9786   21.3618 H   0  0  0  0  0  0
  -28.4665  -13.6350   21.8615 H   0  0  0  0  0  0
  -25.2785   -9.5736   22.4703 H   0  0  0  0  0  0
  -24.0041   -7.4657   22.7464 H   0  0  0  0  0  0
  -21.0833   -8.8768   19.8976 H   0  0  0  0  0  0
  -22.3656  -10.9675   19.6127 H   0  0  0  0  0  0
  -21.2016   -7.6158   23.9730 H   0  0  0  0  0  0
  -21.1483   -6.0505   25.9084 H   0  0  0  0  0  0
  -22.0599   -2.7594   23.2807 H   0  0  0  0  0  0
  -22.4033  -11.9959   22.4915 H   0  0  0  0  0  0
  -21.1031  -13.1287   22.2560 H   0  0  0  0  0  0
  -24.6476  -15.8381   20.5117 H   0  0  0  0  0  0
  -26.2753  -15.6392   20.0967 H   0  0  0  0  0  0
  -26.7143  -32.5502   23.1089 H   0  0  0  0  0  0
  -25.0055  -33.9694   25.0431 H   0  0  0  0  0  0
  -22.6988  -31.3013   21.3942 H   0  0  0  0  0  0
  -23.3739  -35.9669   23.3300 H   0  0  0  0  0  0
  -24.3588  -36.8942   22.2062 H   0  0  0  0  0  0
  -23.7259  -37.6539   23.6649 H   0  0  0  0  0  0
  -26.0360  -31.5852   20.5723 H   0  0  0  0  0  0
  -26.8315  -30.8972   21.9574 H   0  0  0  0  0  0
  -28.1246  -29.1063   21.1195 H   0  0  0  0  0  0
  -26.0759  -25.9383   19.0396 H   0  0  0  0  0  0
  -23.9965  -27.2718   19.0324 H   0  0  0  0  0  0
  -23.7065  -30.5688   19.3863 H   0  0  0  0  0  0
  -22.7452  -29.2113   19.8827 H   0  0  0  0  0  0
  -25.1285  -36.1954   25.0830 H   0  0  0  0  0  0
  -20.9957  -28.3269   24.1417 H   0  0  0  0  0  0
  -20.5644  -26.2282   23.3597 H   0  0  0  0  0  0
  -21.6629  -26.7426   22.1222 H   0  0  0  0  0  0
  -19.6911  -25.6299   21.1230 H   0  0  0  0  0  0
  -19.6744  -27.3196   20.6721 H   0  0  0  0  0  0
  -17.4190  -26.6653   21.4007 H   0  0  0  0  0  0
  -18.0343  -26.0110   22.9026 H   0  0  0  0  0  0
  -19.7924  -30.7266   24.2278 H   0  0  0  0  0  0
  -17.5005  -31.6273   24.5182 H   0  0  0  0  0  0
  -15.5337  -30.3007   23.7677 H   0  0  0  0  0  0
  -15.8642  -28.0896   22.6978 H   0  0  0  0  0  0
  -24.5913  -30.7054   25.7758 H   0  0  0  0  0  0
  -24.8955  -32.2842   26.4900 H   0  0  0  0  0  0
  -25.8115  -30.8822   27.0164 H   0  0  0  0  0  0
  -26.2845  -29.6755   24.1191 H   0  0  0  0  0  0
  -27.4171  -29.7305   25.4515 H   0  0  0  0  0  0
  -27.8634  -30.4350   23.9138 H   0  0  0  0  0  0
  -27.2722  -33.3584   26.2026 H   0  0  0  0  0  0
  -28.3886  -32.6815   25.0272 H   0  0  0  0  0  0
  -28.0722  -31.8375   26.5341 H   0  0  0  0  0  0
  -28.2584  -38.0106   24.7487 H   0  0  0  0  0  0
  -28.1076  -36.2633   24.6275 H   0  0  0  0  0  0
  -27.2280  -37.1457   25.8849 H   0  0  0  0  0  0
  -20.9276  -29.8784   21.6932 H   0  0  0  0  0  0
  -26.0185  -38.2855   24.1409 H   0  0  0  0  0  0
  -30.7647  -19.4399   24.4714 H   0  0  0  0  0  0
  -32.1882  -20.4363   24.8374 H   0  0  0  0  0  0
  -32.3587  -18.9249   23.9473 H   0  0  0  0  0  0
  -26.8932  -21.9008   20.8076 H   0  0  0  0  0  0
  -27.6628  -20.7691   21.8991 H   0  0  0  0  0  0
  -27.2529  -20.2732   20.2608 H   0  0  0  0  0  0
  -27.5429  -23.9194   19.9216 H   0  0  0  0  0  0
  -29.0327  -24.3139   19.1351 H   0  0  0  0  0  0
  -29.1168  -23.0764   21.9276 H   0  0  0  0  0  0
  -30.3980  -23.2007   20.7708 H   0  0  0  0  0  0
  -29.5591  -25.6631   21.3661 H   0  0  0  0  0  0
  -27.8606  -25.5309   21.6891 H   0  0  0  0  0  0
  -31.0500  -20.9081   20.2474 H   0  0  0  0  0  0
  -28.9817  -21.6158   19.2740 H   0  0  0  0  0  0
  -29.1193  -15.2969   21.4810 H   0  0  0  0  0  0
  -29.6413  -19.9763   22.6774 H   0  0  0  0  0  0
  1 25  1  0  0  0
  1 30  2  0  0  0
  1 83  1  0  0  0
  2  3  1  0  0  0
  2 25  1  0  0  0
  2 88  1  0  0  0
  2 89  1  0  0  0
  3  4  1  0  0  0
  3 90  1  0  0  0
  3 91  1  0  0  0
  4  5  1  0  0  0
  4 92  1  0  0  0
  4 93  1  0  0  0
  5  6  1  0  0  0
  5 26  1  0  0  0
  5 94  1  0  0  0
  6 25  1  0  0  0
  6 95  1  0  0  0
  6 96  1  0  0  0
  7  8  2  0  0  0
  7 26  1  0  0  0
  7 29  1  0  0  0
  8  9  1  0  0  0
  8 22  1  0  0  0
  9 10  1  0  0  0
  9 27  2  0  0  0
 10 11  2  0  0  0
 10 15  1  0  0  0
 11 12  1  0  0  0
 11 97  1  0  0  0
 12 13  2  0  0  0
 12 98  1  0  0  0
 13 14  1  0  0  0
 13 31  1  0  0  0
 14 15  2  0  0  0
 14 99  1  0  0  0
 15100  1  0  0  0
 16 17  2  0  0  0
 16 21  1  0  0  0
 16 31  1  0  0  0
 17 18  1  0  0  0
 17101  1  0  0  0
 18 19  2  0  0  0
 18102  1  0  0  0
 19 20  1  0  0  0
 19 24  1  0  0  0
 20 21  2  0  0  0
 20103  1  0  0  0
 21 23  1  0  0  0
 22 28  1  0  0  0
 22 32  2  0  0  0
 26 27  1  0  0  0
 28104  1  0  0  0
 28105  1  0  0  0
 29106  1  0  0  0
 29107  1  0  0  0
 33 34  1  0  0  0
 33 66  1  0  0  0
 33 70  2  0  0  0
 34 36  1  0  0  0
 34 59  1  0  0  0
 34108  1  0  0  0
 35 44  2  0  0  0
 35 45  1  0  0  0
 35 68  1  0  0  0
 36 56  1  0  0  0
 36109  1  0  0  0
 37 39  1  0  0  0
 37 47  1  0  0  0
 37 66  1  0  0  0
 37110  1  0  0  0
 38 43  2  0  0  0
 38 46  1  0  0  0
 38 47  1  0  0  0
 39 64  1  0  0  0
 39 67  2  0  0  0
 40 52  1  0  0  0
 40 53  2  0  0  0
 40 58  1  0  0  0
 41111  1  0  0  0
 41112  1  0  0  0
 41113  1  0  0  0
 41 48  1  0  0  0
 42 43  1  0  0  0
 42 66  1  0  0  0
 42114  1  0  0  0
 42115  1  0  0  0
 43 44  1  0  0  0
 44116  1  0  0  0
 45 46  2  0  0  0
 45117  1  0  0  0
 46118  1  0  0  0
 47119  1  0  0  0
 47120  1  0  0  0
 48 56  1  0  0  0
 48 65  1  0  0  0
 48121  1  0  0  0
 49 50  1  0  0  0
 49 53  1  0  0  0
 49 64  1  0  0  0
 49122  1  0  0  0
 50 51  1  0  0  0
 50123  1  0  0  0
 50124  1  0  0  0
 51 52  1  0  0  0
 51125  1  0  0  0
 51126  1  0  0  0
 52127  1  0  0  0
 52128  1  0  0  0
 53 54  1  0  0  0
 54 55  2  0  0  0
 54129  1  0  0  0
 55 57  1  0  0  0
 55130  1  0  0  0
 56 69  2  0  0  0
 57 58  2  0  0  0
 57131  1  0  0  0
 58132  1  0  0  0
 59 60  1  0  0  0
 59 61  1  0  0  0
 59 62  1  0  0  0
 60133  1  0  0  0
 60134  1  0  0  0
 60135  1  0  0  0
 61136  1  0  0  0
 61137  1  0  0  0
 61138  1  0  0  0
 62139  1  0  0  0
 62140  1  0  0  0
 62141  1  0  0  0
 63 65  1  0  0  0
 63142  1  0  0  0
 63143  1  0  0  0
 63144  1  0  0  0
 64145  1  0  0  0
 65146  1  0  0  0
 68 79  1  0  0  0
 71 72  2  0  0  0
 71 80  1  0  0  0
 71 82  1  0  0  0
 72 86  1  0  0  0
 72 87  1  0  0  0
 73 82  2  0  0  0
 73 83  1  0  0  0
 73 87  1  0  0  0
 74 75  1  0  0  0
 74 84  1  0  0  0
 74 85  2  0  0  0
 75147  1  0  0  0
 75148  1  0  0  0
 75149  1  0  0  0
 76150  1  0  0  0
 76151  1  0  0  0
 76152  1  0  0  0
 76 81  1  0  0  0
 77 78  1  0  0  0
 77 79  1  0  0  0
 77153  1  0  0  0
 77154  1  0  0  0
 78 81  1  0  0  0
 78155  1  0  0  0
 78156  1  0  0  0
 79157  1  0  0  0
 79158  1  0  0  0
 80 81  1  0  0  0
 80 84  1  0  0  0
 80159  1  0  0  0
 81160  1  0  0  0
 83161  1  0  0  0
 84162  1  0  0  0
M  ISO  4   1 100  68 101  79 101  83 100
M  END
> <chiral flag>
0

> <version>
0

> <s_m_source_file>
/data/baiqing/PycharmProjects/Reinvent-master-3.2/result/LINK_invent/BTK/process_docking_weight1_custom_product_contain_oxygen_bond_distance_aromatic_linkinvent_7_9_3/rearranged_h_0178.sdf

> <i_m_source_file_index>
6

> <r_mmod_Potential_Energy-OPLS-2005>
-152.960998535156

> <r_mmod_Stretch_Energy-OPLS-2005>
43.66845703125

> <r_mmod_Bend_Energy-OPLS-2005>
107.661933898926

> <r_mmod_Torsional_Energy-OPLS-2005>
282.198974609375

> <r_mmod_Improper_Torsional_Energy-OPLS-2005>
7.60407018661499

> <r_mmod_Van_der_Waal_Energy-OPLS-2005>
117.152786254883

> <r_mmod_Electrostatic_Energy-OPLS-2005>
-496.589233398438

> <r_mmod_Solvation_Energy-OPLS-2005>
-229.778961181641

> <b_mmod_Minimization_Converged-OPLS-2005>
0

> <r_mmod_RMS_Derivative-OPLS-2005>
4.93567323684692

$$$$
6
                    3D
 Structure written by MMmdl.
151159  0  0  1  0            999 V2000
  -30.7076  -14.4436   20.5853 C   0  0  0  0  0  0
  -30.4234  -12.2928   19.4164 C   0  0  0  0  0  0
  -29.4925  -12.5074   18.2049 C   0  0  0  0  0  0
  -28.0131  -12.3717   18.6175 C   0  0  0  0  0  0
  -27.6636  -13.2036   19.8807 C   0  0  2  0  0  0
  -28.7052  -12.9628   20.9978 C   0  0  0  0  0  0
  -25.2569  -13.8135   20.5669 C   0  0  0  0  0  0
  -24.1816  -13.0413   20.9134 C   0  0  0  0  0  0
  -24.6385  -11.6888   20.8718 C   0  0  0  0  0  0
  -23.9056  -10.4279   21.0398 C   0  0  0  0  0  0
  -24.3611   -9.4203   21.9183 C   0  0  0  0  0  0
  -23.6288   -8.2239   22.0757 C   0  0  0  0  0  0
  -22.4270   -8.0277   21.3545 C   0  0  0  0  0  0
  -21.9900   -9.0248   20.4648 C   0  0  0  0  0  0
  -22.7229  -10.2124   20.3051 C   0  0  0  0  0  0
  -21.6849   -6.0736   22.5280 C   0  0  0  0  0  0
  -21.4012   -6.5639   23.8215 C   0  0  0  0  0  0
  -21.3659   -5.6792   24.9177 C   0  0  0  0  0  0
  -21.6044   -4.3055   24.7228 C   0  0  0  0  0  0
  -21.8819   -3.8147   23.4348 C   0  0  0  0  0  0
  -21.9191   -4.6964   22.3403 C   0  0  0  0  0  0
  -22.7844  -13.5220   21.1820 C   0  0  0  0  0  0
  -22.1658   -4.2150   21.0980 F   0  0  0  0  0  0
  -21.5630   -3.4540   25.7741 F   0  0  0  0  0  0
  -30.0417  -13.2648   20.4518 N   0  0  0  0  0  0
  -26.3032  -12.9318   20.3405 N   0  0  0  0  0  0
  -25.9320  -11.6477   20.5783 N   0  0  0  0  0  0
  -22.0498  -12.8216   22.0392 N   0  0  0  0  0  0
  -25.4241  -15.1853   20.4140 N   0  0  0  0  0  0
  -31.8236  -14.6395   20.0944 O   0  0  0  0  0  0
  -21.6632   -6.8877   21.4242 O   0  0  0  0  0  0
  -22.3526  -14.5535   20.6690 O   0  0  0  0  0  0
  -24.6129  -31.8683   23.2109 C   0  0  0  0  0  0
  -25.9029  -32.4824   23.8395 C   0  0  1  0  0  0
  -27.2420  -27.4479   20.0801 C   0  0  0  0  0  0
  -25.5890  -33.8624   24.2324 N   0  0  0  0  0  0
  -23.3995  -30.4920   21.5509 C   0  0  2  0  0  0
  -24.8445  -28.9559   20.1164 C   0  0  0  0  0  0
  -22.7389  -29.4667   22.4999 C   0  0  0  0  0  0
  -18.0260  -28.1376   22.8498 C   0  0  0  0  0  0
  -24.1484  -36.7319   23.2639 C   0  0  0  0  0  0
  -25.9262  -30.8359   21.3615 C   0  0  0  0  0  0
  -26.0021  -29.4694   20.7117 C   0  0  0  0  0  0
  -27.1975  -28.7190   20.6969 C   0  0  0  0  0  0
  -26.0569  -26.9352   19.5006 C   0  0  0  0  0  0
  -24.8652  -27.6858   19.5145 C   0  0  0  0  0  0
  -23.6065  -29.8224   20.1656 C   0  0  0  0  0  0
  -25.4104  -36.3116   24.0336 C   0  0  1  0  0  0
  -20.5850  -28.3662   23.1327 C   0  0  2  0  0  0
  -20.6755  -26.9401   22.5423 C   0  0  0  0  0  0
  -19.5735  -26.6387   21.5219 C   0  0  0  0  0  0
  -18.1911  -26.7922   22.1628 C   0  0  0  0  0  0
  -19.1511  -28.8834   23.2912 C   0  0  0  0  0  0
  -18.9444  -30.1442   23.8922 C   0  0  0  0  0  0
  -17.6449  -30.6587   24.0571 C   0  0  0  0  0  0
  -25.9033  -34.9480   23.5129 C   0  0  0  0  0  0
  -16.5339  -29.9095   23.6326 C   0  0  0  0  0  0
  -16.7252  -28.6510   23.0349 C   0  0  0  0  0  0
  -26.4463  -31.6601   25.0719 C   0  0  0  0  0  0
  -25.3740  -31.3697   26.1475 C   0  0  0  0  0  0
  -27.0289  -30.3046   24.6084 C   0  0  0  0  0  0
  -27.6041  -32.4316   25.7478 C   0  0  0  0  0  0
  -27.5581  -37.1806   24.8460 C   0  0  0  0  0  0
  -21.4119  -29.3036   22.3738 N   0  0  0  0  0  0
  -26.4287  -37.3802   23.9416 N   0  0  0  0  0  0
  -24.6645  -31.0797   22.1000 N   0  0  0  0  0  0
  -23.4167  -28.8212   23.3038 O   0  0  0  0  0  0
  -28.4467  -26.7737   20.0856 O   0  0  0  0  0  0
  -26.5604  -34.8930   22.4696 O   0  0  0  0  0  0
  -23.5328  -32.1431   23.7515 O   0  0  0  0  0  0
  -29.8595  -19.4884   20.4329 C   0  0  0  0  0  0
  -30.0776  -16.8061   20.9553 C   0  0  0  0  0  0
  -31.1119  -18.8218   20.4594 C   0  0  0  0  0  0
  -28.8301  -17.4778   20.9597 C   0  0  0  0  0  0
  -28.6873  -24.3244   20.0359 C   0  0  0  0  0  0
  -28.9258  -21.7398   19.8266 C   0  0  0  0  0  0
  -29.3591  -23.1315   19.3272 C   0  0  0  0  0  0
  -28.6504  -25.6372   19.2344 C   0  0  0  0  0  0
  -28.7172  -18.8020   20.6993 N   0  0  0  0  0  0
  -31.2242  -17.4957   20.7187 N   0  0  0  0  0  0
  -29.9190  -20.8694   20.0933 N   0  0  0  0  0  0
  -30.0098  -15.4089   21.2021 N   0  0  0  0  0  0
  -28.2618  -24.2656   21.1967 O   0  0  0  0  0  0
  -27.7266  -21.4555   19.9075 O   0  0  0  0  0  0
  -32.2409  -19.5251   20.1982 F   0  0  0  0  0  0
  -27.7035  -16.7665   21.2018 F   0  0  0  0  0  0
  -31.4677  -12.3895   19.1138 H   0  0  0  0  0  0
  -30.3213  -11.2776   19.8026 H   0  0  0  0  0  0
  -29.7272  -11.7884   17.4190 H   0  0  0  0  0  0
  -29.6655  -13.4955   17.7756 H   0  0  0  0  0  0
  -27.8185  -11.3152   18.8062 H   0  0  0  0  0  0
  -27.3631  -12.6556   17.7889 H   0  0  0  0  0  0
  -27.7113  -14.2543   19.5939 H   0  0  0  0  0  0
  -28.6755  -11.9212   21.3218 H   0  0  0  0  0  0
  -28.4647  -13.5436   21.8893 H   0  0  0  0  0  0
  -25.2759   -9.5678   22.4752 H   0  0  0  0  0  0
  -23.9998   -7.4631   22.7476 H   0  0  0  0  0  0
  -21.0831   -8.8768   19.8954 H   0  0  0  0  0  0
  -22.3696  -10.9662   19.6156 H   0  0  0  0  0  0
  -21.2002   -7.6147   23.9718 H   0  0  0  0  0  0
  -21.1479   -6.0524   25.9079 H   0  0  0  0  0  0
  -22.0598   -2.7608   23.2850 H   0  0  0  0  0  0
  -22.4113  -11.9867   22.4760 H   0  0  0  0  0  0
  -21.1127  -13.1255   22.2627 H   0  0  0  0  0  0
  -24.6644  -15.8371   20.5713 H   0  0  0  0  0  0
  -26.3119  -15.6498   20.2646 H   0  0  0  0  0  0
  -26.7102  -32.5534   23.1162 H   0  0  0  0  0  0
  -25.0032  -33.9788   25.0462 H   0  0  0  0  0  0
  -22.6885  -31.3090   21.4115 H   0  0  0  0  0  0
  -23.3746  -35.9650   23.3296 H   0  0  0  0  0  0
  -24.3585  -36.8942   22.2055 H   0  0  0  0  0  0
  -23.7229  -37.6520   23.6658 H   0  0  0  0  0  0
  -26.0355  -31.6008   20.5914 H   0  0  0  0  0  0
  -26.8158  -30.8915   21.9770 H   0  0  0  0  0  0
  -28.0936  -29.1178   21.1519 H   0  0  0  0  0  0
  -26.0225  -25.9572   19.0449 H   0  0  0  0  0  0
  -23.9701  -27.2791   19.0640 H   0  0  0  0  0  0
  -23.7147  -30.5966   19.4051 H   0  0  0  0  0  0
  -22.7302  -29.2427   19.8700 H   0  0  0  0  0  0
  -25.1278  -36.1980   25.0828 H   0  0  0  0  0  0
  -20.9944  -28.3228   24.1446 H   0  0  0  0  0  0
  -20.5663  -26.2271   23.3610 H   0  0  0  0  0  0
  -21.6627  -26.7451   22.1214 H   0  0  0  0  0  0
  -19.6904  -25.6306   21.1230 H   0  0  0  0  0  0
  -19.6670  -27.3217   20.6765 H   0  0  0  0  0  0
  -17.4182  -26.6673   21.4028 H   0  0  0  0  0  0
  -18.0312  -26.0052   22.9013 H   0  0  0  0  0  0
  -19.7922  -30.7248   24.2301 H   0  0  0  0  0  0
  -17.5008  -31.6268   24.5171 H   0  0  0  0  0  0
  -15.5346  -30.3012   23.7635 H   0  0  0  0  0  0
  -15.8647  -28.0846   22.7051 H   0  0  0  0  0  0
  -24.5919  -30.7030   25.7826 H   0  0  0  0  0  0
  -24.8924  -32.2845   26.4938 H   0  0  0  0  0  0
  -25.8109  -30.8868   27.0225 H   0  0  0  0  0  0
  -26.2824  -29.6808   24.1150 H   0  0  0  0  0  0
  -27.4079  -29.7280   25.4533 H   0  0  0  0  0  0
  -27.8650  -30.4372   23.9211 H   0  0  0  0  0  0
  -27.2668  -33.3612   26.2072 H   0  0  0  0  0  0
  -28.3842  -32.6877   25.0297 H   0  0  0  0  0  0
  -28.0715  -31.8424   26.5377 H   0  0  0  0  0  0
  -28.2588  -38.0118   24.7539 H   0  0  0  0  0  0
  -28.1086  -36.2650   24.6240 H   0  0  0  0  0  0
  -27.2306  -37.1406   25.8865 H   0  0  0  0  0  0
  -20.9273  -29.8764   21.6969 H   0  0  0  0  0  0
  -26.0173  -38.2874   24.1440 H   0  0  0  0  0  0
  -30.4380  -23.2502   19.4277 H   0  0  0  0  0  0
  -29.1397  -23.1901   18.2610 H   0  0  0  0  0  0
  -27.9352  -25.5680   18.4171 H   0  0  0  0  0  0
  -29.6247  -25.7591   18.7608 H   0  0  0  0  0  0
  -30.8628  -21.2117   19.9700 H   0  0  0  0  0  0
  -29.1214  -15.1026   21.5686 H   0  0  0  0  0  0
  1 25  1  0  0  0
  1 30  2  0  0  0
  1 82  1  0  0  0
  2  3  1  0  0  0
  2 25  1  0  0  0
  2 87  1  0  0  0
  2 88  1  0  0  0
  3  4  1  0  0  0
  3 89  1  0  0  0
  3 90  1  0  0  0
  4  5  1  0  0  0
  4 91  1  0  0  0
  4 92  1  0  0  0
  5  6  1  0  0  0
  5 26  1  0  0  0
  5 93  1  0  0  0
  6 25  1  0  0  0
  6 94  1  0  0  0
  6 95  1  0  0  0
  7  8  2  0  0  0
  7 26  1  0  0  0
  7 29  1  0  0  0
  8  9  1  0  0  0
  8 22  1  0  0  0
  9 10  1  0  0  0
  9 27  2  0  0  0
 10 11  2  0  0  0
 10 15  1  0  0  0
 11 12  1  0  0  0
 11 96  1  0  0  0
 12 13  2  0  0  0
 12 97  1  0  0  0
 13 14  1  0  0  0
 13 31  1  0  0  0
 14 15  2  0  0  0
 14 98  1  0  0  0
 15 99  1  0  0  0
 16 17  2  0  0  0
 16 21  1  0  0  0
 16 31  1  0  0  0
 17 18  1  0  0  0
 17100  1  0  0  0
 18 19  2  0  0  0
 18101  1  0  0  0
 19 20  1  0  0  0
 19 24  1  0  0  0
 20 21  2  0  0  0
 20102  1  0  0  0
 21 23  1  0  0  0
 22 28  1  0  0  0
 22 32  2  0  0  0
 26 27  1  0  0  0
 28103  1  0  0  0
 28104  1  0  0  0
 29105  1  0  0  0
 29106  1  0  0  0
 33 34  1  0  0  0
 33 66  1  0  0  0
 33 70  2  0  0  0
 34 36  1  0  0  0
 34 59  1  0  0  0
 34107  1  0  0  0
 35 44  2  0  0  0
 35 45  1  0  0  0
 35 68  1  0  0  0
 36 56  1  0  0  0
 36108  1  0  0  0
 37 39  1  0  0  0
 37 47  1  0  0  0
 37 66  1  0  0  0
 37109  1  0  0  0
 38 43  2  0  0  0
 38 46  1  0  0  0
 38 47  1  0  0  0
 39 64  1  0  0  0
 39 67  2  0  0  0
 40 52  1  0  0  0
 40 53  2  0  0  0
 40 58  1  0  0  0
 41110  1  0  0  0
 41111  1  0  0  0
 41112  1  0  0  0
 41 48  1  0  0  0
 42 43  1  0  0  0
 42 66  1  0  0  0
 42113  1  0  0  0
 42114  1  0  0  0
 43 44  1  0  0  0
 44115  1  0  0  0
 45 46  2  0  0  0
 45116  1  0  0  0
 46117  1  0  0  0
 47118  1  0  0  0
 47119  1  0  0  0
 48 56  1  0  0  0
 48 65  1  0  0  0
 48120  1  0  0  0
 49 50  1  0  0  0
 49 53  1  0  0  0
 49 64  1  0  0  0
 49121  1  0  0  0
 50 51  1  0  0  0
 50122  1  0  0  0
 50123  1  0  0  0
 51 52  1  0  0  0
 51124  1  0  0  0
 51125  1  0  0  0
 52126  1  0  0  0
 52127  1  0  0  0
 53 54  1  0  0  0
 54 55  2  0  0  0
 54128  1  0  0  0
 55 57  1  0  0  0
 55129  1  0  0  0
 56 69  2  0  0  0
 57 58  2  0  0  0
 57130  1  0  0  0
 58131  1  0  0  0
 59 60  1  0  0  0
 59 61  1  0  0  0
 59 62  1  0  0  0
 60132  1  0  0  0
 60133  1  0  0  0
 60134  1  0  0  0
 61135  1  0  0  0
 61136  1  0  0  0
 61137  1  0  0  0
 62138  1  0  0  0
 62139  1  0  0  0
 62140  1  0  0  0
 63 65  1  0  0  0
 63141  1  0  0  0
 63142  1  0  0  0
 63143  1  0  0  0
 64144  1  0  0  0
 65145  1  0  0  0
 68 78  1  0  0  0
 71 73  2  0  0  0
 71 79  1  0  0  0
 71 81  1  0  0  0
 72 74  1  0  0  0
 72 80  2  0  0  0
 72 82  1  0  0  0
 73 80  1  0  0  0
 73 85  1  0  0  0
 74 79  2  0  0  0
 74 86  1  0  0  0
 75 77  1  0  0  0
 75 78  1  0  0  0
 75 83  2  0  0  0
 76 77  1  0  0  0
 76 81  1  0  0  0
 76 84  2  0  0  0
 77146  1  0  0  0
 77147  1  0  0  0
 78148  1  0  0  0
 78149  1  0  0  0
 81150  1  0  0  0
 82151  1  0  0  0
M  ISO  4   1 100  68 101  78 101  82 100
M  END
> <chiral flag>
0

> <version>
0

> <s_m_source_file>
/data/baiqing/PycharmProjects/Reinvent-master-3.2/result/LINK_invent/BTK/process_docking_weight1_custom_product_contain_oxygen_bond_distance_aromatic_linkinvent_7_9_3/rearranged_h_0178.sdf

> <i_m_source_file_index>
7

> <r_mmod_Potential_Energy-OPLS-2005>
-121.934921264648

> <r_mmod_Stretch_Energy-OPLS-2005>
37.3543701171875

> <r_mmod_Bend_Energy-OPLS-2005>
113.975395202637

> <r_mmod_Torsional_Energy-OPLS-2005>
205.347183227539

> <r_mmod_Improper_Torsional_Energy-OPLS-2005>
5.13885927200317

> <r_mmod_Van_der_Waal_Energy-OPLS-2005>
164.365905761719

> <r_mmod_Electrostatic_Energy-OPLS-2005>
-381.688201904297

> <r_mmod_Solvation_Energy-OPLS-2005>
-276.851959228516

> <b_mmod_Minimization_Converged-OPLS-2005>
0

> <r_mmod_RMS_Derivative-OPLS-2005>
0.499533593654633

$$$$
7
                    3D
 Structure written by MMmdl.
152160  0  0  1  0            999 V2000
  -30.6549  -14.5937   20.4547 C   0  0  0  0  0  0
  -30.4237  -12.3527   19.4564 C   0  0  0  0  0  0
  -29.5060  -12.4916   18.2224 C   0  0  0  0  0  0
  -28.0283  -12.3409   18.6312 C   0  0  0  0  0  0
  -27.6524  -13.2176   19.8571 C   0  0  2  0  0  0
  -28.6943  -13.0850   20.9918 C   0  0  0  0  0  0
  -25.2566  -13.8178   20.5689 C   0  0  0  0  0  0
  -24.1839  -13.0442   20.9183 C   0  0  0  0  0  0
  -24.6403  -11.6915   20.8713 C   0  0  0  0  0  0
  -23.9068  -10.4296   21.0392 C   0  0  0  0  0  0
  -24.3623   -9.4217   21.9175 C   0  0  0  0  0  0
  -23.6301   -8.2247   22.0751 C   0  0  0  0  0  0
  -22.4279   -8.0291   21.3544 C   0  0  0  0  0  0
  -21.9900   -9.0260   20.4647 C   0  0  0  0  0  0
  -22.7225  -10.2140   20.3060 C   0  0  0  0  0  0
  -21.6859   -6.0725   22.5266 C   0  0  0  0  0  0
  -21.4006   -6.5620   23.8196 C   0  0  0  0  0  0
  -21.3660   -5.6782   24.9163 C   0  0  0  0  0  0
  -21.6061   -4.3045   24.7218 C   0  0  0  0  0  0
  -21.8824   -3.8137   23.4337 C   0  0  0  0  0  0
  -21.9182   -4.6955   22.3390 C   0  0  0  0  0  0
  -22.7850  -13.5243   21.1853 C   0  0  0  0  0  0
  -22.1661   -4.2145   21.0965 F   0  0  0  0  0  0
  -21.5643   -3.4525   25.7726 F   0  0  0  0  0  0
  -30.0150  -13.3865   20.4260 N   0  0  0  0  0  0
  -26.2989  -12.9365   20.3271 N   0  0  0  0  0  0
  -25.9330  -11.6512   20.5712 N   0  0  0  0  0  0
  -22.0478  -12.8252   22.0414 N   0  0  0  0  0  0
  -25.4299  -15.1894   20.4124 N   0  0  0  0  0  0
  -31.8358  -14.7000   20.1132 O   0  0  0  0  0  0
  -21.6653   -6.8880   21.4230 O   0  0  0  0  0  0
  -22.3550  -14.5530   20.6676 O   0  0  0  0  0  0
  -24.6212  -31.8641   23.2058 C   0  0  0  0  0  0
  -25.9085  -32.4800   23.8366 C   0  0  1  0  0  0
  -27.2236  -27.3642   20.0856 C   0  0  0  0  0  0
  -25.5917  -33.8597   24.2297 N   0  0  0  0  0  0
  -23.4108  -30.4883   21.5489 C   0  0  2  0  0  0
  -24.8514  -28.9470   20.1124 C   0  0  0  0  0  0
  -22.7447  -29.4642   22.4962 C   0  0  0  0  0  0
  -18.0283  -28.1395   22.8488 C   0  0  0  0  0  0
  -24.1483  -36.7303   23.2634 C   0  0  0  0  0  0
  -25.9469  -30.8052   21.3689 C   0  0  0  0  0  0
  -26.0182  -29.4352   20.7107 C   0  0  0  0  0  0
  -27.2024  -28.6506   20.6962 C   0  0  0  0  0  0
  -26.0243  -26.9015   19.4946 C   0  0  0  0  0  0
  -24.8517  -27.6816   19.5043 C   0  0  0  0  0  0
  -23.6206  -29.8261   20.1619 C   0  0  0  0  0  0
  -25.4105  -36.3097   24.0331 C   0  0  1  0  0  0
  -20.5882  -28.3684   23.1307 C   0  0  2  0  0  0
  -20.6769  -26.9408   22.5420 C   0  0  0  0  0  0
  -19.5745  -26.6389   21.5217 C   0  0  0  0  0  0
  -18.1924  -26.7937   22.1625 C   0  0  0  0  0  0
  -19.1537  -28.8853   23.2896 C   0  0  0  0  0  0
  -18.9459  -30.1455   23.8915 C   0  0  0  0  0  0
  -17.6463  -30.6590   24.0573 C   0  0  0  0  0  0
  -25.9043  -34.9464   23.5115 C   0  0  0  0  0  0
  -16.5353  -29.9095   23.6326 C   0  0  0  0  0  0
  -16.7276  -28.6514   23.0339 C   0  0  0  0  0  0
  -26.4485  -31.6603   25.0727 C   0  0  0  0  0  0
  -25.3741  -31.3740   26.1475 C   0  0  0  0  0  0
  -27.0309  -30.3034   24.6140 C   0  0  0  0  0  0
  -27.6056  -32.4329   25.7488 C   0  0  0  0  0  0
  -27.5583  -37.1800   24.8455 C   0  0  0  0  0  0
  -21.4165  -29.3041   22.3708 N   0  0  0  0  0  0
  -26.4282  -37.3793   23.9419 N   0  0  0  0  0  0
  -24.6789  -31.0670   22.0992 N   0  0  0  0  0  0
  -23.4184  -28.8179   23.3030 O   0  0  0  0  0  0
  -28.3880  -26.5958   20.1139 O   0  0  0  0  0  0
  -26.5604  -34.8931   22.4680 O   0  0  0  0  0  0
  -23.5394  -32.1424   23.7422 O   0  0  0  0  0  0
  -30.1242  -18.5831   18.0574 C   0  0  0  0  0  0
  -29.6306  -19.1144   19.2300 C   0  0  0  0  0  0
  -29.9475  -16.9065   19.8792 C   0  0  0  0  0  0
  -28.8701  -22.8143   19.4665 C   0  0  0  0  0  0
  -28.5697  -24.0124   20.0590 C   0  0  0  0  0  0
  -28.9615  -21.4757   20.1015 C   0  0  0  0  0  0
  -30.3728  -19.2703   16.7494 C   0  0  0  0  0  0
  -28.5336  -25.3803   19.3139 C   0  0  0  0  0  0
  -29.5027  -18.1376   20.2665 N   0  0  0  0  0  0
  -29.3178  -20.5277   19.1995 N   0  0  0  0  0  0
  -29.8935  -15.7031   20.6796 N   0  0  0  0  0  0
  -28.7499  -21.2419   21.2938 O   0  0  0  0  0  0
  -28.2883  -24.1647   21.3630 O   0  0  0  0  0  0
  -30.5020  -16.8881   18.2066 S   0  0  0  0  0  0
  -31.4720  -12.4434   19.1617 H   0  0  0  0  0  0
  -30.3254  -11.3615   19.9004 H   0  0  0  0  0  0
  -29.7603  -11.7404   17.4735 H   0  0  0  0  0  0
  -29.6605  -13.4618   17.7474 H   0  0  0  0  0  0
  -27.8552  -11.2889   18.8616 H   0  0  0  0  0  0
  -27.3832  -12.5783   17.7850 H   0  0  0  0  0  0
  -27.6692  -14.2499   19.5086 H   0  0  0  0  0  0
  -28.6882  -12.0760   21.4075 H   0  0  0  0  0  0
  -28.4535  -13.7536   21.8203 H   0  0  0  0  0  0
  -25.2767   -9.5687   22.4749 H   0  0  0  0  0  0
  -24.0008   -7.4651   22.7493 H   0  0  0  0  0  0
  -21.0814   -8.8788   19.8968 H   0  0  0  0  0  0
  -22.3685  -10.9687   19.6183 H   0  0  0  0  0  0
  -21.1995   -7.6124   23.9695 H   0  0  0  0  0  0
  -21.1484   -6.0511   25.9065 H   0  0  0  0  0  0
  -22.0599   -2.7596   23.2856 H   0  0  0  0  0  0
  -22.4090  -11.9920   22.4807 H   0  0  0  0  0  0
  -21.1106  -13.1303   22.2620 H   0  0  0  0  0  0
  -24.6657  -15.8429   20.5465 H   0  0  0  0  0  0
  -26.2680  -15.6253   20.0467 H   0  0  0  0  0  0
  -26.7147  -32.5486   23.1109 H   0  0  0  0  0  0
  -25.0093  -33.9740   25.0463 H   0  0  0  0  0  0
  -22.7044  -31.3095   21.4116 H   0  0  0  0  0  0
  -23.3748  -35.9631   23.3288 H   0  0  0  0  0  0
  -24.3575  -36.8934   22.2049 H   0  0  0  0  0  0
  -23.7233  -37.6502   23.6663 H   0  0  0  0  0  0
  -26.0691  -31.5718   20.6022 H   0  0  0  0  0  0
  -26.8307  -30.8556   21.9931 H   0  0  0  0  0  0
  -28.1023  -29.0243   21.1648 H   0  0  0  0  0  0
  -25.9507  -25.9250   19.0409 H   0  0  0  0  0  0
  -23.9493  -27.2967   19.0499 H   0  0  0  0  0  0
  -23.7437  -30.6057   19.4095 H   0  0  0  0  0  0
  -22.7383  -29.2616   19.8553 H   0  0  0  0  0  0
  -25.1280  -36.1952   25.0821 H   0  0  0  0  0  0
  -20.9964  -28.3256   24.1432 H   0  0  0  0  0  0
  -20.5674  -26.2290   23.3617 H   0  0  0  0  0  0
  -21.6647  -26.7447   22.1226 H   0  0  0  0  0  0
  -19.6909  -25.6301   21.1242 H   0  0  0  0  0  0
  -19.6684  -27.3204   20.6750 H   0  0  0  0  0  0
  -17.4196  -26.6694   21.4022 H   0  0  0  0  0  0
  -18.0311  -26.0076   22.9017 H   0  0  0  0  0  0
  -19.7937  -30.7262   24.2294 H   0  0  0  0  0  0
  -17.5021  -31.6266   24.5183 H   0  0  0  0  0  0
  -15.5359  -30.3001   23.7640 H   0  0  0  0  0  0
  -15.8673  -28.0841   22.7039 H   0  0  0  0  0  0
  -24.5894  -30.7098   25.7834 H   0  0  0  0  0  0
  -24.8956  -32.2910   26.4923 H   0  0  0  0  0  0
  -25.8090  -30.8915   27.0235 H   0  0  0  0  0  0
  -26.2856  -29.6801   24.1180 H   0  0  0  0  0  0
  -27.4045  -29.7272   25.4617 H   0  0  0  0  0  0
  -27.8716  -30.4337   23.9318 H   0  0  0  0  0  0
  -27.2667  -33.3612   26.2097 H   0  0  0  0  0  0
  -28.3843  -32.6915   25.0302 H   0  0  0  0  0  0
  -28.0745  -31.8439   26.5380 H   0  0  0  0  0  0
  -28.2587  -38.0113   24.7533 H   0  0  0  0  0  0
  -28.1095  -36.2650   24.6232 H   0  0  0  0  0  0
  -27.2314  -37.1395   25.8860 H   0  0  0  0  0  0
  -20.9333  -29.8777   21.6938 H   0  0  0  0  0  0
  -26.0167  -38.2865   24.1452 H   0  0  0  0  0  0
  -29.0702  -22.8652   18.4044 H   0  0  0  0  0  0
  -31.4081  -19.6050   16.6834 H   0  0  0  0  0  0
  -29.7260  -20.1357   16.6088 H   0  0  0  0  0  0
  -30.1880  -18.5956   15.9124 H   0  0  0  0  0  0
  -27.8483  -25.3238   18.4688 H   0  0  0  0  0  0
  -29.5077  -25.4782   18.8342 H   0  0  0  0  0  0
  -29.4451  -20.9263   18.2829 H   0  0  0  0  0  0
  -29.0344  -15.5587   21.1839 H   0  0  0  0  0  0
  -28.3399  -23.3043   21.7684 H   0  0  0  0  0  0
  1 25  1  0  0  0
  1 30  2  0  0  0
  1 81  1  0  0  0
  2  3  1  0  0  0
  2 25  1  0  0  0
  2 85  1  0  0  0
  2 86  1  0  0  0
  3  4  1  0  0  0
  3 87  1  0  0  0
  3 88  1  0  0  0
  4  5  1  0  0  0
  4 89  1  0  0  0
  4 90  1  0  0  0
  5  6  1  0  0  0
  5 26  1  0  0  0
  5 91  1  0  0  0
  6 25  1  0  0  0
  6 92  1  0  0  0
  6 93  1  0  0  0
  7  8  2  0  0  0
  7 26  1  0  0  0
  7 29  1  0  0  0
  8  9  1  0  0  0
  8 22  1  0  0  0
  9 10  1  0  0  0
  9 27  2  0  0  0
 10 11  2  0  0  0
 10 15  1  0  0  0
 11 12  1  0  0  0
 11 94  1  0  0  0
 12 13  2  0  0  0
 12 95  1  0  0  0
 13 14  1  0  0  0
 13 31  1  0  0  0
 14 15  2  0  0  0
 14 96  1  0  0  0
 15 97  1  0  0  0
 16 17  2  0  0  0
 16 21  1  0  0  0
 16 31  1  0  0  0
 17 18  1  0  0  0
 17 98  1  0  0  0
 18 19  2  0  0  0
 18 99  1  0  0  0
 19 20  1  0  0  0
 19 24  1  0  0  0
 20 21  2  0  0  0
 20100  1  0  0  0
 21 23  1  0  0  0
 22 28  1  0  0  0
 22 32  2  0  0  0
 26 27  1  0  0  0
 28101  1  0  0  0
 28102  1  0  0  0
 29103  1  0  0  0
 29104  1  0  0  0
 33 34  1  0  0  0
 33 66  1  0  0  0
 33 70  2  0  0  0
 34 36  1  0  0  0
 34 59  1  0  0  0
 34105  1  0  0  0
 35 44  2  0  0  0
 35 45  1  0  0  0
 35 68  1  0  0  0
 36 56  1  0  0  0
 36106  1  0  0  0
 37 39  1  0  0  0
 37 47  1  0  0  0
 37 66  1  0  0  0
 37107  1  0  0  0
 38 43  2  0  0  0
 38 46  1  0  0  0
 38 47  1  0  0  0
 39 64  1  0  0  0
 39 67  2  0  0  0
 40 52  1  0  0  0
 40 53  2  0  0  0
 40 58  1  0  0  0
 41108  1  0  0  0
 41109  1  0  0  0
 41110  1  0  0  0
 41 48  1  0  0  0
 42 43  1  0  0  0
 42 66  1  0  0  0
 42111  1  0  0  0
 42112  1  0  0  0
 43 44  1  0  0  0
 44113  1  0  0  0
 45 46  2  0  0  0
 45114  1  0  0  0
 46115  1  0  0  0
 47116  1  0  0  0
 47117  1  0  0  0
 48 56  1  0  0  0
 48 65  1  0  0  0
 48118  1  0  0  0
 49 50  1  0  0  0
 49 53  1  0  0  0
 49 64  1  0  0  0
 49119  1  0  0  0
 50 51  1  0  0  0
 50120  1  0  0  0
 50121  1  0  0  0
 51 52  1  0  0  0
 51122  1  0  0  0
 51123  1  0  0  0
 52124  1  0  0  0
 52125  1  0  0  0
 53 54  1  0  0  0
 54 55  2  0  0  0
 54126  1  0  0  0
 55 57  1  0  0  0
 55127  1  0  0  0
 56 69  2  0  0  0
 57 58  2  0  0  0
 57128  1  0  0  0
 58129  1  0  0  0
 59 60  1  0  0  0
 59 61  1  0  0  0
 59 62  1  0  0  0
 60130  1  0  0  0
 60131  1  0  0  0
 60132  1  0  0  0
 61133  1  0  0  0
 61134  1  0  0  0
 61135  1  0  0  0
 62136  1  0  0  0
 62137  1  0  0  0
 62138  1  0  0  0
 63 65  1  0  0  0
 63139  1  0  0  0
 63140  1  0  0  0
 63141  1  0  0  0
 64142  1  0  0  0
 65143  1  0  0  0
 68 78  1  0  0  0
 71 72  2  0  0  0
 71 77  1  0  0  0
 71 84  1  0  0  0
 72 79  1  0  0  0
 72 80  1  0  0  0
 73 79  2  0  0  0
 73 81  1  0  0  0
 73 84  1  0  0  0
 74 75  2  0  0  0
 74 76  1  0  0  0
 74144  1  0  0  0
 75 78  1  0  0  0
 75 83  1  0  0  0
 76 80  1  0  0  0
 76 82  2  0  0  0
 77145  1  0  0  0
 77146  1  0  0  0
 77147  1  0  0  0
 78148  1  0  0  0
 78149  1  0  0  0
 80150  1  0  0  0
 81151  1  0  0  0
 83152  1  0  0  0
M  ISO  4   1 100  68 101  78 101  81 100
M  END
> <chiral flag>
0

> <version>
0

> <s_m_source_file>
/data/baiqing/PycharmProjects/Reinvent-master-3.2/result/LINK_invent/BTK/process_docking_weight1_custom_product_contain_oxygen_bond_distance_aromatic_linkinvent_7_9_3/rearranged_h_0178.sdf

> <i_m_source_file_index>
8

> <r_mmod_Potential_Energy-OPLS-2005>
-83.3103637695312

> <r_mmod_Stretch_Energy-OPLS-2005>
58.3306541442871

> <r_mmod_Bend_Energy-OPLS-2005>
155.76123046875

> <r_mmod_Torsional_Energy-OPLS-2005>
207.118789672852

> <r_mmod_Improper_Torsional_Energy-OPLS-2005>
6.18108034133911

> <r_mmod_Van_der_Waal_Energy-OPLS-2005>
126.353843688965

> <r_mmod_Electrostatic_Energy-OPLS-2005>
-417.760040283203

> <r_mmod_Solvation_Energy-OPLS-2005>
-253.529724121094

> <b_mmod_Minimization_Converged-OPLS-2005>
0

> <r_mmod_RMS_Derivative-OPLS-2005>
2.70992994308472

$$$$
8
                    3D
 Structure written by MMmdl.
147155  0  0  1  0            999 V2000
  -30.6135  -14.7608   20.4509 C   0  0  0  0  0  0
  -30.4368  -12.4623   19.4838 C   0  0  0  0  0  0
  -29.5148  -12.5090   18.2444 C   0  0  0  0  0  0
  -28.0411  -12.3294   18.6580 C   0  0  0  0  0  0
  -27.6449  -13.2332   19.8558 C   0  0  2  0  0  0
  -28.6895  -13.1721   20.9929 C   0  0  0  0  0  0
  -25.2513  -13.8195   20.5691 C   0  0  0  0  0  0
  -24.1804  -13.0441   20.9213 C   0  0  0  0  0  0
  -24.6403  -11.6920   20.8760 C   0  0  0  0  0  0
  -23.9072  -10.4298   21.0410 C   0  0  0  0  0  0
  -24.3624   -9.4209   21.9181 C   0  0  0  0  0  0
  -23.6306   -8.2242   22.0745 C   0  0  0  0  0  0
  -22.4280   -8.0289   21.3545 C   0  0  0  0  0  0
  -21.9911   -9.0259   20.4649 C   0  0  0  0  0  0
  -22.7245  -10.2140   20.3061 C   0  0  0  0  0  0
  -21.6849   -6.0746   22.5287 C   0  0  0  0  0  0
  -21.4008   -6.5638   23.8226 C   0  0  0  0  0  0
  -21.3662   -5.6786   24.9187 C   0  0  0  0  0  0
  -21.6050   -4.3049   24.7229 C   0  0  0  0  0  0
  -21.8817   -3.8150   23.4346 C   0  0  0  0  0  0
  -21.9184   -4.6975   22.3409 C   0  0  0  0  0  0
  -22.7832  -13.5229   21.1879 C   0  0  0  0  0  0
  -22.1655   -4.2158   21.0992 F   0  0  0  0  0  0
  -21.5642   -3.4528   25.7738 F   0  0  0  0  0  0
  -29.9945  -13.5271   20.4178 N   0  0  0  0  0  0
  -26.2957  -12.9409   20.3305 N   0  0  0  0  0  0
  -25.9342  -11.6546   20.5782 N   0  0  0  0  0  0
  -22.0479  -12.8232   22.0448 N   0  0  0  0  0  0
  -25.4175  -15.1917   20.4063 N   0  0  0  0  0  0
  -31.7927  -14.8508   20.0941 O   0  0  0  0  0  0
  -21.6642   -6.8889   21.4248 O   0  0  0  0  0  0
  -22.3523  -14.5538   20.6730 O   0  0  0  0  0  0
  -24.6327  -31.8554   23.1987 C   0  0  0  0  0  0
  -25.9154  -32.4743   23.8345 C   0  0  1  0  0  0
  -27.2161  -27.2458   20.1306 C   0  0  0  0  0  0
  -25.5951  -33.8548   24.2264 N   0  0  0  0  0  0
  -23.4295  -30.4787   21.5419 C   0  0  2  0  0  0
  -24.8765  -28.9273   20.1081 C   0  0  0  0  0  0
  -22.7515  -29.4603   22.4906 C   0  0  0  0  0  0
  -18.0296  -28.1381   22.8492 C   0  0  0  0  0  0
  -24.1490  -36.7278   23.2630 C   0  0  0  0  0  0
  -25.9776  -30.7609   21.3836 C   0  0  0  0  0  0
  -26.0481  -29.3836   20.7245 C   0  0  0  0  0  0
  -27.2167  -28.5539   20.7294 C   0  0  0  0  0  0
  -26.0252  -26.8731   19.4645 C   0  0  0  0  0  0
  -24.8716  -27.6809   19.4671 C   0  0  0  0  0  0
  -23.6487  -29.8159   20.1571 C   0  0  0  0  0  0
  -25.4108  -36.3061   24.0326 C   0  0  1  0  0  0
  -20.5903  -28.3699   23.1259 C   0  0  2  0  0  0
  -20.6786  -26.9418   22.5396 C   0  0  0  0  0  0
  -19.5751  -26.6380   21.5214 C   0  0  0  0  0  0
  -18.1941  -26.7918   22.1645 C   0  0  0  0  0  0
  -19.1553  -28.8858   23.2864 C   0  0  0  0  0  0
  -18.9468  -30.1458   23.8880 C   0  0  0  0  0  0
  -17.6467  -30.6586   24.0556 C   0  0  0  0  0  0
  -25.9064  -34.9432   23.5096 C   0  0  0  0  0  0
  -16.5358  -29.9083   23.6331 C   0  0  0  0  0  0
  -16.7278  -28.6498   23.0357 C   0  0  0  0  0  0
  -26.4518  -31.6566   25.0737 C   0  0  0  0  0  0
  -25.3763  -31.3767   26.1496 C   0  0  0  0  0  0
  -27.0330  -30.2958   24.6244 C   0  0  0  0  0  0
  -27.6102  -32.4292   25.7475 C   0  0  0  0  0  0
  -27.5595  -37.1756   24.8436 C   0  0  0  0  0  0
  -21.4220  -29.3045   22.3647 N   0  0  0  0  0  0
  -26.4259  -37.3784   23.9455 N   0  0  0  0  0  0
  -24.6990  -31.0507   22.0971 N   0  0  0  0  0  0
  -23.4212  -28.8146   23.3014 O   0  0  0  0  0  0
  -28.3044  -26.3387   20.2264 O   0  0  0  0  0  0
  -26.5638  -34.8911   22.4667 O   0  0  0  0  0  0
  -23.5470  -32.1397   23.7260 O   0  0  0  0  0  0
  -30.7148  -17.7085   19.2157 C   0  0  0  0  0  0
  -30.0242  -17.3226   20.3419 C   0  0  0  0  0  0
  -29.6460  -19.7014   20.3466 C   0  0  0  0  0  0
  -29.1326  -22.2996   20.1426 C   0  0  0  0  0  0
  -29.2352  -21.0980   20.8467 C   0  0  0  0  0  0
  -28.8708  -23.7410   20.6807 C   0  0  0  0  0  0
  -28.1478  -24.8872   19.8197 C   0  0  0  0  0  0
  -29.4278  -18.4868   20.9679 N   0  0  0  0  0  0
  -29.8580  -15.8956   20.7413 N   0  0  0  0  0  0
  -29.2345  -24.0609   21.8174 O   0  0  0  0  0  0
  -29.0161  -21.0652   22.1684 O   0  0  0  0  0  0
  -30.6042  -19.4410   18.8857 S   0  0  0  0  0  0
  -31.4779  -12.5842   19.1775 H   0  0  0  0  0  0
  -30.3856  -11.4859   19.9685 H   0  0  0  0  0  0
  -29.8013  -11.7337   17.5323 H   0  0  0  0  0  0
  -29.6382  -13.4627   17.7284 H   0  0  0  0  0  0
  -27.9022  -11.2817   18.9288 H   0  0  0  0  0  0
  -27.3811  -12.5121   17.8089 H   0  0  0  0  0  0
  -27.6380  -14.2537   19.4722 H   0  0  0  0  0  0
  -28.7287  -12.1754   21.4334 H   0  0  0  0  0  0
  -28.4192  -13.8502   21.8036 H   0  0  0  0  0  0
  -25.2766   -9.5685   22.4750 H   0  0  0  0  0  0
  -24.0022   -7.4614   22.7439 H   0  0  0  0  0  0
  -21.0844   -8.8780   19.8946 H   0  0  0  0  0  0
  -22.3699  -10.9682   19.6177 H   0  0  0  0  0  0
  -21.1993   -7.6137   23.9738 H   0  0  0  0  0  0
  -21.1493   -6.0510   25.9093 H   0  0  0  0  0  0
  -22.0591   -2.7611   23.2840 H   0  0  0  0  0  0
  -22.4084  -11.9914   22.4865 H   0  0  0  0  0  0
  -21.1101  -13.1268   22.2650 H   0  0  0  0  0  0
  -24.6425  -15.8386   20.5093 H   0  0  0  0  0  0
  -26.2589  -15.6337   20.0589 H   0  0  0  0  0  0
  -26.7217  -32.5391   23.1082 H   0  0  0  0  0  0
  -25.0086  -33.9676   25.0400 H   0  0  0  0  0  0
  -22.7265  -31.3022   21.3980 H   0  0  0  0  0  0
  -23.3791  -35.9561   23.3171 H   0  0  0  0  0  0
  -24.3627  -36.9029   22.2073 H   0  0  0  0  0  0
  -23.7166  -37.6405   23.6742 H   0  0  0  0  0  0
  -26.1218  -31.5200   20.6142 H   0  0  0  0  0  0
  -26.8537  -30.8069   22.0186 H   0  0  0  0  0  0
  -28.1083  -28.8954   21.2375 H   0  0  0  0  0  0
  -25.9407  -25.9353   18.9396 H   0  0  0  0  0  0
  -23.9771  -27.3327   18.9690 H   0  0  0  0  0  0
  -23.7749  -30.5950   19.4043 H   0  0  0  0  0  0
  -22.7663  -29.2512   19.8501 H   0  0  0  0  0  0
  -25.1269  -36.1883   25.0808 H   0  0  0  0  0  0
  -20.9988  -28.3267   24.1384 H   0  0  0  0  0  0
  -20.5713  -26.2303   23.3600 H   0  0  0  0  0  0
  -21.6646  -26.7456   22.1168 H   0  0  0  0  0  0
  -19.6915  -25.6292   21.1244 H   0  0  0  0  0  0
  -19.6669  -27.3187   20.6744 H   0  0  0  0  0  0
  -17.4197  -26.6634   21.4064 H   0  0  0  0  0  0
  -18.0364  -26.0071   22.9061 H   0  0  0  0  0  0
  -19.7943  -30.7278   24.2238 H   0  0  0  0  0  0
  -17.5023  -31.6266   24.5155 H   0  0  0  0  0  0
  -15.5359  -30.2978   23.7665 H   0  0  0  0  0  0
  -15.8678  -28.0808   22.7082 H   0  0  0  0  0  0
  -24.5672  -30.7479   25.7762 H   0  0  0  0  0  0
  -24.9317  -32.2997   26.5233 H   0  0  0  0  0  0
  -25.8021  -30.8568   27.0089 H   0  0  0  0  0  0
  -26.2892  -29.6700   24.1295 H   0  0  0  0  0  0
  -27.4000  -29.7237   25.4778 H   0  0  0  0  0  0
  -27.8802  -30.4187   23.9492 H   0  0  0  0  0  0
  -27.2738  -33.3601   26.2057 H   0  0  0  0  0  0
  -28.3898  -32.6837   25.0280 H   0  0  0  0  0  0
  -28.0791  -31.8415   26.5378 H   0  0  0  0  0  0
  -28.2485  -38.0179   24.7685 H   0  0  0  0  0  0
  -28.1226  -36.2732   24.6002 H   0  0  0  0  0  0
  -27.2364  -37.1066   25.8837 H   0  0  0  0  0  0
  -20.9414  -29.8753   21.6832 H   0  0  0  0  0  0
  -26.0124  -38.2824   24.1588 H   0  0  0  0  0  0
  -31.2638  -17.0791   18.5265 H   0  0  0  0  0  0
  -29.2813  -22.2485   19.0736 H   0  0  0  0  0  0
  -27.1002  -24.6010   19.8671 H   0  0  0  0  0  0
  -28.4519  -24.7877   18.7778 H   0  0  0  0  0  0
  -28.9777  -15.6931   21.1881 H   0  0  0  0  0  0
  -29.1405  -20.1579   22.4314 H   0  0  0  0  0  0
  1 25  1  0  0  0
  1 30  2  0  0  0
  1 79  1  0  0  0
  2  3  1  0  0  0
  2 25  1  0  0  0
  2 83  1  0  0  0
  2 84  1  0  0  0
  3  4  1  0  0  0
  3 85  1  0  0  0
  3 86  1  0  0  0
  4  5  1  0  0  0
  4 87  1  0  0  0
  4 88  1  0  0  0
  5  6  1  0  0  0
  5 26  1  0  0  0
  5 89  1  0  0  0
  6 25  1  0  0  0
  6 90  1  0  0  0
  6 91  1  0  0  0
  7  8  2  0  0  0
  7 26  1  0  0  0
  7 29  1  0  0  0
  8  9  1  0  0  0
  8 22  1  0  0  0
  9 10  1  0  0  0
  9 27  2  0  0  0
 10 11  2  0  0  0
 10 15  1  0  0  0
 11 12  1  0  0  0
 11 92  1  0  0  0
 12 13  2  0  0  0
 12 93  1  0  0  0
 13 14  1  0  0  0
 13 31  1  0  0  0
 14 15  2  0  0  0
 14 94  1  0  0  0
 15 95  1  0  0  0
 16 17  2  0  0  0
 16 21  1  0  0  0
 16 31  1  0  0  0
 17 18  1  0  0  0
 17 96  1  0  0  0
 18 19  2  0  0  0
 18 97  1  0  0  0
 19 20  1  0  0  0
 19 24  1  0  0  0
 20 21  2  0  0  0
 20 98  1  0  0  0
 21 23  1  0  0  0
 22 28  1  0  0  0
 22 32  2  0  0  0
 26 27  1  0  0  0
 28 99  1  0  0  0
 28100  1  0  0  0
 29101  1  0  0  0
 29102  1  0  0  0
 33 34  1  0  0  0
 33 66  1  0  0  0
 33 70  2  0  0  0
 34 36  1  0  0  0
 34 59  1  0  0  0
 34103  1  0  0  0
 35 44  2  0  0  0
 35 45  1  0  0  0
 35 68  1  0  0  0
 36 56  1  0  0  0
 36104  1  0  0  0
 37 39  1  0  0  0
 37 47  1  0  0  0
 37 66  1  0  0  0
 37105  1  0  0  0
 38 43  2  0  0  0
 38 46  1  0  0  0
 38 47  1  0  0  0
 39 64  1  0  0  0
 39 67  2  0  0  0
 40 52  1  0  0  0
 40 53  2  0  0  0
 40 58  1  0  0  0
 41106  1  0  0  0
 41107  1  0  0  0
 41108  1  0  0  0
 41 48  1  0  0  0
 42 43  1  0  0  0
 42 66  1  0  0  0
 42109  1  0  0  0
 42110  1  0  0  0
 43 44  1  0  0  0
 44111  1  0  0  0
 45 46  2  0  0  0
 45112  1  0  0  0
 46113  1  0  0  0
 47114  1  0  0  0
 47115  1  0  0  0
 48 56  1  0  0  0
 48 65  1  0  0  0
 48116  1  0  0  0
 49 50  1  0  0  0
 49 53  1  0  0  0
 49 64  1  0  0  0
 49117  1  0  0  0
 50 51  1  0  0  0
 50118  1  0  0  0
 50119  1  0  0  0
 51 52  1  0  0  0
 51120  1  0  0  0
 51121  1  0  0  0
 52122  1  0  0  0
 52123  1  0  0  0
 53 54  1  0  0  0
 54 55  2  0  0  0
 54124  1  0  0  0
 55 57  1  0  0  0
 55125  1  0  0  0
 56 69  2  0  0  0
 57 58  2  0  0  0
 57126  1  0  0  0
 58127  1  0  0  0
 59 60  1  0  0  0
 59 61  1  0  0  0
 59 62  1  0  0  0
 60128  1  0  0  0
 60129  1  0  0  0
 60130  1  0  0  0
 61131  1  0  0  0
 61132  1  0  0  0
 61133  1  0  0  0
 62134  1  0  0  0
 62135  1  0  0  0
 62136  1  0  0  0
 63 65  1  0  0  0
 63137  1  0  0  0
 63138  1  0  0  0
 63139  1  0  0  0
 64140  1  0  0  0
 65141  1  0  0  0
 68 77  1  0  0  0
 71 72  2  0  0  0
 71 82  1  0  0  0
 71142  1  0  0  0
 72 78  1  0  0  0
 72 79  1  0  0  0
 73 75  1  0  0  0
 73 78  2  0  0  0
 73 82  1  0  0  0
 74 75  2  0  0  0
 74 76  1  0  0  0
 74143  1  0  0  0
 75 81  1  0  0  0
 76 77  1  0  0  0
 76 80  2  0  0  0
 77144  1  0  0  0
 77145  1  0  0  0
 79146  1  0  0  0
 81147  1  0  0  0
M  ISO  4   1 100  68 101  77 101  79 100
M  END
> <chiral flag>
0

> <version>
0

> <s_m_source_file>
/data/baiqing/PycharmProjects/Reinvent-master-3.2/result/LINK_invent/BTK/process_docking_weight1_custom_product_contain_oxygen_bond_distance_aromatic_linkinvent_7_9_3/rearranged_h_0178.sdf

> <i_m_source_file_index>
9

> <r_mmod_Potential_Energy-OPLS-2005>
121.980331420898

> <r_mmod_Stretch_Energy-OPLS-2005>
130.547164916992

> <r_mmod_Bend_Energy-OPLS-2005>
162.866806030273

> <r_mmod_Torsional_Energy-OPLS-2005>
223.919525146484

> <r_mmod_Improper_Torsional_Energy-OPLS-2005>
4.48696041107178

> <r_mmod_Van_der_Waal_Energy-OPLS-2005>
122.099655151367

> <r_mmod_Electrostatic_Energy-OPLS-2005>
-363.600219726562

> <r_mmod_Solvation_Energy-OPLS-2005>
-252.690399169922

> <b_mmod_Minimization_Converged-OPLS-2005>
0

> <r_mmod_RMS_Derivative-OPLS-2005>
1.96031165122986

$$$$
9
                    3D
 Structure written by MMmdl.
147155  0  0  1  0            999 V2000
  -30.5721  -14.7376   20.4584 C   0  0  0  0  0  0
  -30.4467  -12.4479   19.4600 C   0  0  0  0  0  0
  -29.5118  -12.5041   18.2297 C   0  0  0  0  0  0
  -28.0376  -12.3232   18.6466 C   0  0  0  0  0  0
  -27.6456  -13.2180   19.8516 C   0  0  2  0  0  0
  -28.6934  -13.1234   20.9839 C   0  0  0  0  0  0
  -25.2539  -13.8169   20.5679 C   0  0  0  0  0  0
  -24.1820  -13.0428   20.9202 C   0  0  0  0  0  0
  -24.6395  -11.6903   20.8754 C   0  0  0  0  0  0
  -23.9065  -10.4286   21.0413 C   0  0  0  0  0  0
  -24.3617   -9.4200   21.9186 C   0  0  0  0  0  0
  -23.6289   -8.2237   22.0757 C   0  0  0  0  0  0
  -22.4272   -8.0280   21.3544 C   0  0  0  0  0  0
  -21.9909   -9.0255   20.4649 C   0  0  0  0  0  0
  -22.7240  -10.2132   20.3058 C   0  0  0  0  0  0
  -21.6852   -6.0733   22.5279 C   0  0  0  0  0  0
  -21.4015   -6.5640   23.8212 C   0  0  0  0  0  0
  -21.3655   -5.6793   24.9174 C   0  0  0  0  0  0
  -21.6044   -4.3055   24.7226 C   0  0  0  0  0  0
  -21.8818   -3.8145   23.4346 C   0  0  0  0  0  0
  -21.9194   -4.6962   22.3403 C   0  0  0  0  0  0
  -22.7845  -13.5220   21.1861 C   0  0  0  0  0  0
  -22.1661   -4.2150   21.0978 F   0  0  0  0  0  0
  -21.5627   -3.4539   25.7735 F   0  0  0  0  0  0
  -29.9958  -13.4893   20.4081 N   0  0  0  0  0  0
  -26.2954  -12.9346   20.3272 N   0  0  0  0  0  0
  -25.9318  -11.6505   20.5752 N   0  0  0  0  0  0
  -22.0488  -12.8218   22.0420 N   0  0  0  0  0  0
  -25.4230  -15.1892   20.4073 N   0  0  0  0  0  0
  -31.7570  -14.8935   20.1502 O   0  0  0  0  0  0
  -21.6638   -6.8876   21.4238 O   0  0  0  0  0  0
  -22.3533  -14.5525   20.6703 O   0  0  0  0  0  0
  -24.6286  -31.8556   23.1974 C   0  0  0  0  0  0
  -25.9112  -32.4763   23.8325 C   0  0  1  0  0  0
  -27.2295  -27.2808   20.1377 C   0  0  0  0  0  0
  -25.5918  -33.8564   24.2258 N   0  0  0  0  0  0
  -23.4263  -30.4756   21.5399 C   0  0  2  0  0  0
  -24.8758  -28.9161   20.1170 C   0  0  0  0  0  0
  -22.7490  -29.4602   22.4915 C   0  0  0  0  0  0
  -18.0293  -28.1393   22.8491 C   0  0  0  0  0  0
  -24.1485  -36.7280   23.2639 C   0  0  0  0  0  0
  -25.9687  -30.7764   21.3710 C   0  0  0  0  0  0
  -26.0459  -29.3966   20.7199 C   0  0  0  0  0  0
  -27.2282  -28.5933   20.7137 C   0  0  0  0  0  0
  -26.0383  -26.8530   19.5177 C   0  0  0  0  0  0
  -24.8749  -27.6510   19.5058 C   0  0  0  0  0  0
  -23.6453  -29.8021   20.1590 C   0  0  0  0  0  0
  -25.4114  -36.3075   24.0328 C   0  0  1  0  0  0
  -20.5893  -28.3697   23.1277 C   0  0  2  0  0  0
  -20.6776  -26.9414   22.5414 C   0  0  0  0  0  0
  -19.5749  -26.6385   21.5218 C   0  0  0  0  0  0
  -18.1929  -26.7941   22.1624 C   0  0  0  0  0  0
  -19.1545  -28.8862   23.2882 C   0  0  0  0  0  0
  -18.9470  -30.1465   23.8897 C   0  0  0  0  0  0
  -17.6466  -30.6597   24.0568 C   0  0  0  0  0  0
  -25.9047  -34.9445   23.5096 C   0  0  0  0  0  0
  -16.5355  -29.9097   23.6332 C   0  0  0  0  0  0
  -16.7278  -28.6513   23.0354 C   0  0  0  0  0  0
  -26.4494  -31.6582   25.0699 C   0  0  0  0  0  0
  -25.3721  -31.3747   26.1424 C   0  0  0  0  0  0
  -27.0322  -30.3002   24.6160 C   0  0  0  0  0  0
  -27.6058  -32.4312   25.7473 C   0  0  0  0  0  0
  -27.5583  -37.1791   24.8466 C   0  0  0  0  0  0
  -21.4197  -29.3043   22.3665 N   0  0  0  0  0  0
  -26.4293  -37.3770   23.9410 N   0  0  0  0  0  0
  -24.6936  -31.0539   22.0934 N   0  0  0  0  0  0
  -23.4195  -28.8147   23.3010 O   0  0  0  0  0  0
  -28.3413  -26.4181   20.1290 O   0  0  0  0  0  0
  -26.5619  -34.8923   22.4663 O   0  0  0  0  0  0
  -23.5442  -32.1361   23.7283 O   0  0  0  0  0  0
  -30.8210  -18.0720   20.8699 C   0  0  0  0  0  0
  -29.8060  -17.1921   20.5272 C   0  0  0  0  0  0
  -29.3492  -19.7683   20.2254 C   0  0  0  0  0  0
  -29.0137  -22.4047   20.3775 C   0  0  0  0  0  0
  -28.8455  -21.1536   19.7915 C   0  0  0  0  0  0
  -28.5844  -23.7858   19.8032 C   0  0  0  0  0  0
  -28.2033  -25.0421   20.7133 C   0  0  0  0  0  0
  -30.5635  -19.4696   20.7201 N   0  0  0  0  0  0
  -29.6948  -15.7947   20.6242 N   0  0  0  0  0  0
  -28.5340  -23.9718   18.5830 O   0  0  0  0  0  0
  -28.1996  -21.0660   18.6189 O   0  0  0  0  0  0
  -31.9648  -17.6566   21.3613 F   0  0  0  0  0  0
  -28.4481  -18.2211   19.9857 S   0  0  0  0  0  0
  -31.4831  -12.5968   19.1529 H   0  0  0  0  0  0
  -30.4112  -11.4639   19.9306 H   0  0  0  0  0  0
  -29.7924  -11.7364   17.5071 H   0  0  0  0  0  0
  -29.6326  -13.4609   17.7198 H   0  0  0  0  0  0
  -27.8964  -11.2736   18.9079 H   0  0  0  0  0  0
  -27.3778  -12.5155   17.7999 H   0  0  0  0  0  0
  -27.6446  -14.2408   19.4752 H   0  0  0  0  0  0
  -28.7302  -12.1129   21.3937 H   0  0  0  0  0  0
  -28.4291  -13.7775   21.8168 H   0  0  0  0  0  0
  -25.2765   -9.5673   22.4758 H   0  0  0  0  0  0
  -23.9999   -7.4628   22.7477 H   0  0  0  0  0  0
  -21.0838   -8.8770   19.8957 H   0  0  0  0  0  0
  -22.3698  -10.9667   19.6165 H   0  0  0  0  0  0
  -21.2008   -7.6150   23.9714 H   0  0  0  0  0  0
  -21.1478   -6.0524   25.9076 H   0  0  0  0  0  0
  -22.0601   -2.7611   23.2845 H   0  0  0  0  0  0
  -22.4100  -11.9867   22.4792 H   0  0  0  0  0  0
  -21.1111  -13.1250   22.2640 H   0  0  0  0  0  0
  -24.6474  -15.8344   20.5123 H   0  0  0  0  0  0
  -26.2515  -15.6304   20.0317 H   0  0  0  0  0  0
  -26.7175  -32.5423   23.1068 H   0  0  0  0  0  0
  -25.0076  -33.9708   25.0415 H   0  0  0  0  0  0
  -22.7232  -31.2974   21.3898 H   0  0  0  0  0  0
  -23.3755  -35.9602   23.3296 H   0  0  0  0  0  0
  -24.3585  -36.8903   22.2055 H   0  0  0  0  0  0
  -23.7228  -37.6478   23.6662 H   0  0  0  0  0  0
  -26.0981  -31.5350   20.5979 H   0  0  0  0  0  0
  -26.8505  -30.8337   21.9983 H   0  0  0  0  0  0
  -28.1294  -28.9638   21.1824 H   0  0  0  0  0  0
  -26.0062  -25.8829   19.0423 H   0  0  0  0  0  0
  -23.9780  -27.2772   19.0307 H   0  0  0  0  0  0
  -23.7718  -30.5743   19.3993 H   0  0  0  0  0  0
  -22.7648  -29.2326   19.8553 H   0  0  0  0  0  0
  -25.1299  -36.1920   25.0822 H   0  0  0  0  0  0
  -20.9994  -28.3268   24.1390 H   0  0  0  0  0  0
  -20.5672  -26.2303   23.3614 H   0  0  0  0  0  0
  -21.6645  -26.7434   22.1203 H   0  0  0  0  0  0
  -19.6908  -25.6296   21.1246 H   0  0  0  0  0  0
  -19.6697  -27.3201   20.6752 H   0  0  0  0  0  0
  -17.4203  -26.6692   21.4020 H   0  0  0  0  0  0
  -18.0322  -26.0097   22.9027 H   0  0  0  0  0  0
  -19.7945  -30.7285   24.2259 H   0  0  0  0  0  0
  -17.5026  -31.6280   24.5166 H   0  0  0  0  0  0
  -15.5358  -30.2999   23.7672 H   0  0  0  0  0  0
  -15.8674  -28.0842   22.7056 H   0  0  0  0  0  0
  -24.5905  -30.7080   25.7762 H   0  0  0  0  0  0
  -24.8900  -32.2923   26.4804 H   0  0  0  0  0  0
  -25.8039  -30.8962   27.0222 H   0  0  0  0  0  0
  -26.2889  -29.6761   24.1186 H   0  0  0  0  0  0
  -27.4018  -29.7252   25.4660 H   0  0  0  0  0  0
  -27.8761  -30.4282   23.9378 H   0  0  0  0  0  0
  -27.2687  -33.3629   26.2029 H   0  0  0  0  0  0
  -28.3889  -32.6838   25.0307 H   0  0  0  0  0  0
  -28.0702  -31.8437   26.5407 H   0  0  0  0  0  0
  -28.2593  -38.0095   24.7521 H   0  0  0  0  0  0
  -28.1084  -36.2628   24.6277 H   0  0  0  0  0  0
  -27.2307  -37.1423   25.8871 H   0  0  0  0  0  0
  -20.9373  -29.8775   21.6886 H   0  0  0  0  0  0
  -26.0169  -38.2837   24.1432 H   0  0  0  0  0  0
  -29.5208  -22.4416   21.3299 H   0  0  0  0  0  0
  -28.8316  -25.0021   21.6031 H   0  0  0  0  0  0
  -27.1820  -24.8985   21.0654 H   0  0  0  0  0  0
  -28.7473  -15.4722   20.7374 H   0  0  0  0  0  0
  -28.2445  -20.1613   18.3351 H   0  0  0  0  0  0
  1 25  1  0  0  0
  1 30  2  0  0  0
  1 79  1  0  0  0
  2  3  1  0  0  0
  2 25  1  0  0  0
  2 84  1  0  0  0
  2 85  1  0  0  0
  3  4  1  0  0  0
  3 86  1  0  0  0
  3 87  1  0  0  0
  4  5  1  0  0  0
  4 88  1  0  0  0
  4 89  1  0  0  0
  5  6  1  0  0  0
  5 26  1  0  0  0
  5 90  1  0  0  0
  6 25  1  0  0  0
  6 91  1  0  0  0
  6 92  1  0  0  0
  7  8  2  0  0  0
  7 26  1  0  0  0
  7 29  1  0  0  0
  8  9  1  0  0  0
  8 22  1  0  0  0
  9 10  1  0  0  0
  9 27  2  0  0  0
 10 11  2  0  0  0
 10 15  1  0  0  0
 11 12  1  0  0  0
 11 93  1  0  0  0
 12 13  2  0  0  0
 12 94  1  0  0  0
 13 14  1  0  0  0
 13 31  1  0  0  0
 14 15  2  0  0  0
 14 95  1  0  0  0
 15 96  1  0  0  0
 16 17  2  0  0  0
 16 21  1  0  0  0
 16 31  1  0  0  0
 17 18  1  0  0  0
 17 97  1  0  0  0
 18 19  2  0  0  0
 18 98  1  0  0  0
 19 20  1  0  0  0
 19 24  1  0  0  0
 20 21  2  0  0  0
 20 99  1  0  0  0
 21 23  1  0  0  0
 22 28  1  0  0  0
 22 32  2  0  0  0
 26 27  1  0  0  0
 28100  1  0  0  0
 28101  1  0  0  0
 29102  1  0  0  0
 29103  1  0  0  0
 33 34  1  0  0  0
 33 66  1  0  0  0
 33 70  2  0  0  0
 34 36  1  0  0  0
 34 59  1  0  0  0
 34104  1  0  0  0
 35 44  2  0  0  0
 35 45  1  0  0  0
 35 68  1  0  0  0
 36 56  1  0  0  0
 36105  1  0  0  0
 37 39  1  0  0  0
 37 47  1  0  0  0
 37 66  1  0  0  0
 37106  1  0  0  0
 38 43  2  0  0  0
 38 46  1  0  0  0
 38 47  1  0  0  0
 39 64  1  0  0  0
 39 67  2  0  0  0
 40 52  1  0  0  0
 40 53  2  0  0  0
 40 58  1  0  0  0
 41107  1  0  0  0
 41108  1  0  0  0
 41109  1  0  0  0
 41 48  1  0  0  0
 42 43  1  0  0  0
 42 66  1  0  0  0
 42110  1  0  0  0
 42111  1  0  0  0
 43 44  1  0  0  0
 44112  1  0  0  0
 45 46  2  0  0  0
 45113  1  0  0  0
 46114  1  0  0  0
 47115  1  0  0  0
 47116  1  0  0  0
 48 56  1  0  0  0
 48 65  1  0  0  0
 48117  1  0  0  0
 49 50  1  0  0  0
 49 53  1  0  0  0
 49 64  1  0  0  0
 49118  1  0  0  0
 50 51  1  0  0  0
 50119  1  0  0  0
 50120  1  0  0  0
 51 52  1  0  0  0
 51121  1  0  0  0
 51122  1  0  0  0
 52123  1  0  0  0
 52124  1  0  0  0
 53 54  1  0  0  0
 54 55  2  0  0  0
 54125  1  0  0  0
 55 57  1  0  0  0
 55126  1  0  0  0
 56 69  2  0  0  0
 57 58  2  0  0  0
 57127  1  0  0  0
 58128  1  0  0  0
 59 60  1  0  0  0
 59 61  1  0  0  0
 59 62  1  0  0  0
 60129  1  0  0  0
 60130  1  0  0  0
 60131  1  0  0  0
 61132  1  0  0  0
 61133  1  0  0  0
 61134  1  0  0  0
 62135  1  0  0  0
 62136  1  0  0  0
 62137  1  0  0  0
 63 65  1  0  0  0
 63138  1  0  0  0
 63139  1  0  0  0
 63140  1  0  0  0
 64141  1  0  0  0
 65142  1  0  0  0
 68 77  1  0  0  0
 71 72  2  0  0  0
 71 78  1  0  0  0
 71 82  1  0  0  0
 72 79  1  0  0  0
 72 83  1  0  0  0
 73 75  1  0  0  0
 73 78  2  0  0  0
 73 83  1  0  0  0
 74 75  2  0  0  0
 74 76  1  0  0  0
 74143  1  0  0  0
 75 81  1  0  0  0
 76 77  1  0  0  0
 76 80  2  0  0  0
 77144  1  0  0  0
 77145  1  0  0  0
 79146  1  0  0  0
 81147  1  0  0  0
M  ISO  4   1 100  68 101  77 101  79 100
M  END
> <chiral flag>
0

> <version>
0

> <s_m_source_file>
/data/baiqing/PycharmProjects/Reinvent-master-3.2/result/LINK_invent/BTK/process_docking_weight1_custom_product_contain_oxygen_bond_distance_aromatic_linkinvent_7_9_3/rearranged_h_0178.sdf

> <i_m_source_file_index>
10

> <r_mmod_Potential_Energy-OPLS-2005>
67.238655090332

> <r_mmod_Stretch_Energy-OPLS-2005>
106.251708984375

> <r_mmod_Bend_Energy-OPLS-2005>
155.878646850586

> <r_mmod_Torsional_Energy-OPLS-2005>
249.004821777344

> <r_mmod_Improper_Torsional_Energy-OPLS-2005>
6.9555778503418

> <r_mmod_Van_der_Waal_Energy-OPLS-2005>
112.972152709961

> <r_mmod_Electrostatic_Energy-OPLS-2005>
-384.773712158203

> <r_mmod_Solvation_Energy-OPLS-2005>
-255.952270507812

> <b_mmod_Minimization_Converged-OPLS-2005>
0

> <r_mmod_RMS_Derivative-OPLS-2005>
1.12082266807556

$$$$
10
                    3D
 Structure written by MMmdl.
157165  0  0  1  0            999 V2000
  -30.7285  -14.4271   20.5217 C   0  0  0  0  0  0
  -30.4078  -12.2598   19.4365 C   0  0  0  0  0  0
  -29.4971  -12.4828   18.2124 C   0  0  0  0  0  0
  -28.0148  -12.3616   18.6176 C   0  0  0  0  0  0
  -27.6601  -13.2087   19.8699 C   0  0  2  0  0  0
  -28.6985  -13.0074   20.9979 C   0  0  0  0  0  0
  -25.2581  -13.8167   20.5672 C   0  0  0  0  0  0
  -24.1829  -13.0443   20.9170 C   0  0  0  0  0  0
  -24.6377  -11.6905   20.8710 C   0  0  0  0  0  0
  -23.9034  -10.4291   21.0380 C   0  0  0  0  0  0
  -24.3589   -9.4218   21.9168 C   0  0  0  0  0  0
  -23.6279   -8.2244   22.0746 C   0  0  0  0  0  0
  -22.4262   -8.0268   21.3538 C   0  0  0  0  0  0
  -21.9887   -9.0234   20.4637 C   0  0  0  0  0  0
  -22.7202  -10.2122   20.3036 C   0  0  0  0  0  0
  -21.6853   -6.0724   22.5276 C   0  0  0  0  0  0
  -21.4014   -6.5628   23.8208 C   0  0  0  0  0  0
  -21.3662   -5.6785   24.9171 C   0  0  0  0  0  0
  -21.6047   -4.3049   24.7222 C   0  0  0  0  0  0
  -21.8820   -3.8137   23.4344 C   0  0  0  0  0  0
  -21.9196   -4.6953   22.3401 C   0  0  0  0  0  0
  -22.7851  -13.5251   21.1847 C   0  0  0  0  0  0
  -22.1666   -4.2136   21.0977 F   0  0  0  0  0  0
  -21.5631   -3.4537   25.7742 F   0  0  0  0  0  0
  -30.0359  -13.2632   20.4429 N   0  0  0  0  0  0
  -26.3012  -12.9343   20.3328 N   0  0  0  0  0  0
  -25.9303  -11.6497   20.5721 N   0  0  0  0  0  0
  -22.0479  -12.8235   22.0388 N   0  0  0  0  0  0
  -25.4331  -15.1881   20.4107 N   0  0  0  0  0  0
  -31.9027  -14.5314   20.1569 O   0  0  0  0  0  0
  -21.6635   -6.8862   21.4235 O   0  0  0  0  0  0
  -22.3542  -14.5568   20.6712 O   0  0  0  0  0  0
  -24.6125  -31.8707   23.2135 C   0  0  0  0  0  0
  -25.9030  -32.4842   23.8414 C   0  0  1  0  0  0
  -27.2323  -27.4547   20.0794 C   0  0  0  0  0  0
  -25.5898  -33.8641   24.2340 N   0  0  0  0  0  0
  -23.3990  -30.4974   21.5523 C   0  0  2  0  0  0
  -24.8421  -28.9671   20.1163 C   0  0  0  0  0  0
  -22.7397  -29.4684   22.4982 C   0  0  0  0  0  0
  -18.0279  -28.1392   22.8496 C   0  0  0  0  0  0
  -24.1483  -36.7317   23.2636 C   0  0  0  0  0  0
  -25.9266  -30.8400   21.3653 C   0  0  0  0  0  0
  -26.0001  -29.4745   20.7165 C   0  0  0  0  0  0
  -27.1926  -28.7191   20.7072 C   0  0  0  0  0  0
  -26.0489  -26.9580   19.4790 C   0  0  0  0  0  0
  -24.8587  -27.7052   19.5023 C   0  0  0  0  0  0
  -23.6074  -29.8355   20.1647 C   0  0  0  0  0  0
  -25.4107  -36.3125   24.0339 C   0  0  1  0  0  0
  -20.5867  -28.3671   23.1328 C   0  0  2  0  0  0
  -20.6775  -26.9412   22.5421 C   0  0  0  0  0  0
  -19.5752  -26.6401   21.5217 C   0  0  0  0  0  0
  -18.1930  -26.7943   22.1623 C   0  0  0  0  0  0
  -19.1527  -28.8843   23.2918 C   0  0  0  0  0  0
  -18.9458  -30.1448   23.8930 C   0  0  0  0  0  0
  -17.6462  -30.6599   24.0573 C   0  0  0  0  0  0
  -25.9031  -34.9486   23.5133 C   0  0  0  0  0  0
  -16.5353  -29.9108   23.6325 C   0  0  0  0  0  0
  -16.7270  -28.6524   23.0349 C   0  0  0  0  0  0
  -26.4465  -31.6618   25.0729 C   0  0  0  0  0  0
  -25.3739  -31.3724   26.1481 C   0  0  0  0  0  0
  -27.0293  -30.3072   24.6079 C   0  0  0  0  0  0
  -27.6042  -32.4331   25.7496 C   0  0  0  0  0  0
  -27.5580  -37.1821   24.8465 C   0  0  0  0  0  0
  -21.4125  -29.3046   22.3728 N   0  0  0  0  0  0
  -26.4292  -37.3809   23.9407 N   0  0  0  0  0  0
  -24.6646  -31.0829   22.1026 N   0  0  0  0  0  0
  -23.4180  -28.8209   23.3006 O   0  0  0  0  0  0
  -28.4229  -26.7587   20.0979 O   0  0  0  0  0  0
  -26.5587  -34.8928   22.4690 O   0  0  0  0  0  0
  -23.5323  -32.1445   23.7539 O   0  0  0  0  0  0
  -29.5599  -18.0058   20.5596 C   0  0  0  0  0  0
  -30.8654  -16.9816   18.9943 C   0  0  0  0  0  0
  -30.1624  -16.7769   20.1565 C   0  0  0  0  0  0
  -29.9383  -18.9124   19.6015 C   0  0  0  0  0  0
  -29.1449  -22.5120   19.7746 C   0  0  0  0  0  0
  -29.4014  -21.1392   20.4396 C   0  0  0  0  0  0
  -31.3055  -18.9266   17.4604 C   0  0  0  0  0  0
  -29.7820  -23.7469   20.4307 C   0  0  0  0  0  0
  -29.9226  -24.9582   19.4742 C   0  0  0  0  0  0
  -28.6038  -25.6921   19.1704 C   0  0  0  0  0  0
  -30.7245  -18.3060   18.6382 N   0  0  0  0  0  0
  -30.0022  -15.5202   20.8143 N   0  0  0  0  0  0
  -29.5798  -20.2130   19.4888 N   0  0  0  0  0  0
  -28.5021  -22.6011   18.7202 O   0  0  0  0  0  0
  -29.4419  -20.9561   21.6622 O   0  0  0  0  0  0
  -31.4583  -12.3188   19.1450 H   0  0  0  0  0  0
  -30.2668  -11.2556   19.8401 H   0  0  0  0  0  0
  -29.7321  -11.7568   17.4330 H   0  0  0  0  0  0
  -29.6857  -13.4666   17.7796 H   0  0  0  0  0  0
  -27.8115  -11.3084   18.8145 H   0  0  0  0  0  0
  -27.3722  -12.6421   17.7816 H   0  0  0  0  0  0
  -27.7022  -14.2528   19.5607 H   0  0  0  0  0  0
  -28.6520  -11.9869   21.3808 H   0  0  0  0  0  0
  -28.4784  -13.6544   21.8478 H   0  0  0  0  0  0
  -25.2725   -9.5725   22.4746 H   0  0  0  0  0  0
  -24.0000   -7.4643   22.7459 H   0  0  0  0  0  0
  -21.0825   -8.8734   19.8942 H   0  0  0  0  0  0
  -22.3637  -10.9652   19.6142 H   0  0  0  0  0  0
  -21.1998   -7.6138   23.9712 H   0  0  0  0  0  0
  -21.1490   -6.0510   25.9078 H   0  0  0  0  0  0
  -22.0600   -2.7597   23.2846 H   0  0  0  0  0  0
  -22.4081  -11.9894   22.4783 H   0  0  0  0  0  0
  -21.1091  -13.1261   22.2581 H   0  0  0  0  0  0
  -24.6677  -15.8460   20.5133 H   0  0  0  0  0  0
  -26.2902  -15.6254   20.0966 H   0  0  0  0  0  0
  -26.7100  -32.5559   23.1178 H   0  0  0  0  0  0
  -25.0075  -33.9815   25.0504 H   0  0  0  0  0  0
  -22.6875  -31.3148   21.4167 H   0  0  0  0  0  0
  -23.3743  -35.9653   23.3320 H   0  0  0  0  0  0
  -24.3573  -36.8908   22.2045 H   0  0  0  0  0  0
  -23.7233  -37.6531   23.6629 H   0  0  0  0  0  0
  -26.0345  -31.6040   20.5939 H   0  0  0  0  0  0
  -26.8185  -30.8964   21.9781 H   0  0  0  0  0  0
  -28.0874  -29.1072   21.1731 H   0  0  0  0  0  0
  -26.0040  -25.9978   18.9899 H   0  0  0  0  0  0
  -23.9652  -27.3074   19.0405 H   0  0  0  0  0  0
  -23.7244  -30.6136   19.4089 H   0  0  0  0  0  0
  -22.7302  -29.2603   19.8621 H   0  0  0  0  0  0
  -25.1285  -36.1993   25.0834 H   0  0  0  0  0  0
  -20.9978  -28.3237   24.1439 H   0  0  0  0  0  0
  -20.5692  -26.2273   23.3601 H   0  0  0  0  0  0
  -21.6647  -26.7474   22.1203 H   0  0  0  0  0  0
  -19.6913  -25.6315   21.1241 H   0  0  0  0  0  0
  -19.6698  -27.3220   20.6753 H   0  0  0  0  0  0
  -17.4202  -26.6695   21.4023 H   0  0  0  0  0  0
  -18.0329  -26.0086   22.9019 H   0  0  0  0  0  0
  -19.7932  -30.7255   24.2321 H   0  0  0  0  0  0
  -17.5021  -31.6280   24.5175 H   0  0  0  0  0  0
  -15.5357  -30.3027   23.7633 H   0  0  0  0  0  0
  -15.8667  -28.0858   22.7052 H   0  0  0  0  0  0
  -24.5903  -30.7081   25.7817 H   0  0  0  0  0  0
  -24.8938  -32.2886   26.4935 H   0  0  0  0  0  0
  -25.8100  -30.8887   27.0230 H   0  0  0  0  0  0
  -26.2832  -29.6851   24.1118 H   0  0  0  0  0  0
  -27.4070  -29.7287   25.4519 H   0  0  0  0  0  0
  -27.8662  -30.4411   23.9218 H   0  0  0  0  0  0
  -27.2663  -33.3618   26.2105 H   0  0  0  0  0  0
  -28.3846  -32.6914   25.0326 H   0  0  0  0  0  0
  -28.0714  -31.8433   26.5391 H   0  0  0  0  0  0
  -28.2614  -38.0104   24.7513 H   0  0  0  0  0  0
  -28.1064  -36.2641   24.6301 H   0  0  0  0  0  0
  -27.2296  -37.1488   25.8868 H   0  0  0  0  0  0
  -20.9265  -29.8765   21.6964 H   0  0  0  0  0  0
  -26.0184  -38.2887   24.1415 H   0  0  0  0  0  0
  -28.9268  -18.1969   21.4161 H   0  0  0  0  0  0
  -31.4428  -16.3093   18.3729 H   0  0  0  0  0  0
  -31.9684  -18.2288   16.9486 H   0  0  0  0  0  0
  -31.8823  -19.8048   17.7518 H   0  0  0  0  0  0
  -30.5146  -19.2290   16.7733 H   0  0  0  0  0  0
  -30.7701  -23.4525   20.7861 H   0  0  0  0  0  0
  -29.2041  -24.0175   21.3147 H   0  0  0  0  0  0
  -30.3490  -24.6070   18.5328 H   0  0  0  0  0  0
  -30.6530  -25.6651   19.8690 H   0  0  0  0  0  0
  -27.7839  -24.9787   19.2029 H   0  0  0  0  0  0
  -28.6357  -26.1107   18.1630 H   0  0  0  0  0  0
  -29.1271  -15.3666   21.2922 H   0  0  0  0  0  0
  -29.5389  -20.5991   18.5545 H   0  0  0  0  0  0
  1 25  1  0  0  0
  1 30  2  0  0  0
  1 82  1  0  0  0
  2  3  1  0  0  0
  2 25  1  0  0  0
  2 86  1  0  0  0
  2 87  1  0  0  0
  3  4  1  0  0  0
  3 88  1  0  0  0
  3 89  1  0  0  0
  4  5  1  0  0  0
  4 90  1  0  0  0
  4 91  1  0  0  0
  5  6  1  0  0  0
  5 26  1  0  0  0
  5 92  1  0  0  0
  6 25  1  0  0  0
  6 93  1  0  0  0
  6 94  1  0  0  0
  7  8  2  0  0  0
  7 26  1  0  0  0
  7 29  1  0  0  0
  8  9  1  0  0  0
  8 22  1  0  0  0
  9 10  1  0  0  0
  9 27  2  0  0  0
 10 11  2  0  0  0
 10 15  1  0  0  0
 11 12  1  0  0  0
 11 95  1  0  0  0
 12 13  2  0  0  0
 12 96  1  0  0  0
 13 14  1  0  0  0
 13 31  1  0  0  0
 14 15  2  0  0  0
 14 97  1  0  0  0
 15 98  1  0  0  0
 16 17  2  0  0  0
 16 21  1  0  0  0
 16 31  1  0  0  0
 17 18  1  0  0  0
 17 99  1  0  0  0
 18 19  2  0  0  0
 18100  1  0  0  0
 19 20  1  0  0  0
 19 24  1  0  0  0
 20 21  2  0  0  0
 20101  1  0  0  0
 21 23  1  0  0  0
 22 28  1  0  0  0
 22 32  2  0  0  0
 26 27  1  0  0  0
 28102  1  0  0  0
 28103  1  0  0  0
 29104  1  0  0  0
 29105  1  0  0  0
 33 34  1  0  0  0
 33 66  1  0  0  0
 33 70  2  0  0  0
 34 36  1  0  0  0
 34 59  1  0  0  0
 34106  1  0  0  0
 35 44  2  0  0  0
 35 45  1  0  0  0
 35 68  1  0  0  0
 36 56  1  0  0  0
 36107  1  0  0  0
 37 39  1  0  0  0
 37 47  1  0  0  0
 37 66  1  0  0  0
 37108  1  0  0  0
 38 43  2  0  0  0
 38 46  1  0  0  0
 38 47  1  0  0  0
 39 64  1  0  0  0
 39 67  2  0  0  0
 40 52  1  0  0  0
 40 53  2  0  0  0
 40 58  1  0  0  0
 41109  1  0  0  0
 41110  1  0  0  0
 41111  1  0  0  0
 41 48  1  0  0  0
 42 43  1  0  0  0
 42 66  1  0  0  0
 42112  1  0  0  0
 42113  1  0  0  0
 43 44  1  0  0  0
 44114  1  0  0  0
 45 46  2  0  0  0
 45115  1  0  0  0
 46116  1  0  0  0
 47117  1  0  0  0
 47118  1  0  0  0
 48 56  1  0  0  0
 48 65  1  0  0  0
 48119  1  0  0  0
 49 50  1  0  0  0
 49 53  1  0  0  0
 49 64  1  0  0  0
 49120  1  0  0  0
 50 51  1  0  0  0
 50121  1  0  0  0
 50122  1  0  0  0
 51 52  1  0  0  0
 51123  1  0  0  0
 51124  1  0  0  0
 52125  1  0  0  0
 52126  1  0  0  0
 53 54  1  0  0  0
 54 55  2  0  0  0
 54127  1  0  0  0
 55 57  1  0  0  0
 55128  1  0  0  0
 56 69  2  0  0  0
 57 58  2  0  0  0
 57129  1  0  0  0
 58130  1  0  0  0
 59 60  1  0  0  0
 59 61  1  0  0  0
 59 62  1  0  0  0
 60131  1  0  0  0
 60132  1  0  0  0
 60133  1  0  0  0
 61134  1  0  0  0
 61135  1  0  0  0
 61136  1  0  0  0
 62137  1  0  0  0
 62138  1  0  0  0
 62139  1  0  0  0
 63 65  1  0  0  0
 63140  1  0  0  0
 63141  1  0  0  0
 63142  1  0  0  0
 64143  1  0  0  0
 65144  1  0  0  0
 68 80  1  0  0  0
 71 73  1  0  0  0
 71 74  2  0  0  0
 71145  1  0  0  0
 72 73  2  0  0  0
 72 81  1  0  0  0
 72146  1  0  0  0
 73 82  1  0  0  0
 74 81  1  0  0  0
 74 83  1  0  0  0
 75 76  1  0  0  0
 75 78  1  0  0  0
 75 84  2  0  0  0
 76 83  1  0  0  0
 76 85  2  0  0  0
 77 81  1  0  0  0
 77147  1  0  0  0
 77148  1  0  0  0
 77149  1  0  0  0
 78 79  1  0  0  0
 78150  1  0  0  0
 78151  1  0  0  0
 79 80  1  0  0  0
 79152  1  0  0  0
 79153  1  0  0  0
 80154  1  0  0  0
 80155  1  0  0  0
 82156  1  0  0  0
 83157  1  0  0  0
M  ISO  4   1 100  68 101  80 101  82 100
M  END
> <chiral flag>
0

> <version>
0

> <s_m_source_file>
/data/baiqing/PycharmProjects/Reinvent-master-3.2/result/LINK_invent/BTK/process_docking_weight1_custom_product_contain_oxygen_bond_distance_aromatic_linkinvent_7_9_3/rearranged_h_0178.sdf

> <i_m_source_file_index>
11

> <r_mmod_Potential_Energy-OPLS-2005>
-38.0845031738281

> <r_mmod_Stretch_Energy-OPLS-2005>
32.1752815246582

> <r_mmod_Bend_Energy-OPLS-2005>
117.538139343262

> <r_mmod_Torsional_Energy-OPLS-2005>
242.075454711914

> <r_mmod_Improper_Torsional_Energy-OPLS-2005>
6.59395217895508

> <r_mmod_Van_der_Waal_Energy-OPLS-2005>
145.98844909668

> <r_mmod_Electrostatic_Energy-OPLS-2005>
-361.556945800781

> <r_mmod_Solvation_Energy-OPLS-2005>
-236.934341430664

> <b_mmod_Minimization_Converged-OPLS-2005>
0

> <r_mmod_RMS_Derivative-OPLS-2005>
1.35558104515076

$$$$
11
                    3D
 Structure written by MMmdl.
152160  0  0  1  0            999 V2000
  -30.6017  -14.7416   20.4728 C   0  0  0  0  0  0
  -30.4366  -12.4483   19.4863 C   0  0  0  0  0  0
  -29.5170  -12.5160   18.2459 C   0  0  0  0  0  0
  -28.0408  -12.3433   18.6513 C   0  0  0  0  0  0
  -27.6476  -13.2321   19.8607 C   0  0  2  0  0  0
  -28.6890  -13.1450   20.9998 C   0  0  0  0  0  0
  -25.2525  -13.8200   20.5699 C   0  0  0  0  0  0
  -24.1810  -13.0442   20.9195 C   0  0  0  0  0  0
  -24.6402  -11.6924   20.8732 C   0  0  0  0  0  0
  -23.9083  -10.4293   21.0405 C   0  0  0  0  0  0
  -24.3629   -9.4204   21.9184 C   0  0  0  0  0  0
  -23.6295   -8.2244   22.0750 C   0  0  0  0  0  0
  -22.4274   -8.0285   21.3548 C   0  0  0  0  0  0
  -21.9923   -9.0257   20.4642 C   0  0  0  0  0  0
  -22.7256  -10.2135   20.3051 C   0  0  0  0  0  0
  -21.6857   -6.0732   22.5272 C   0  0  0  0  0  0
  -21.4017   -6.5635   23.8205 C   0  0  0  0  0  0
  -21.3660   -5.6791   24.9171 C   0  0  0  0  0  0
  -21.6046   -4.3051   24.7221 C   0  0  0  0  0  0
  -21.8824   -3.8143   23.4340 C   0  0  0  0  0  0
  -21.9190   -4.6959   22.3398 C   0  0  0  0  0  0
  -22.7820  -13.5212   21.1845 C   0  0  0  0  0  0
  -22.1661   -4.2148   21.0974 F   0  0  0  0  0  0
  -21.5629   -3.4532   25.7731 F   0  0  0  0  0  0
  -29.9975  -13.5011   20.4352 N   0  0  0  0  0  0
  -26.2961  -12.9413   20.3301 N   0  0  0  0  0  0
  -25.9343  -11.6560   20.5769 N   0  0  0  0  0  0
  -22.0469  -12.8194   22.0402 N   0  0  0  0  0  0
  -25.4229  -15.1927   20.4108 N   0  0  0  0  0  0
  -31.7696  -14.8531   20.0831 O   0  0  0  0  0  0
  -21.6643   -6.8879   21.4238 O   0  0  0  0  0  0
  -22.3503  -14.5525   20.6708 O   0  0  0  0  0  0
  -24.6318  -31.8548   23.1999 C   0  0  0  0  0  0
  -25.9142  -32.4756   23.8333 C   0  0  1  0  0  0
  -27.2111  -27.2497   20.1278 C   0  0  0  0  0  0
  -25.5937  -33.8559   24.2266 N   0  0  0  0  0  0
  -23.4277  -30.4802   21.5429 C   0  0  2  0  0  0
  -24.8748  -28.9319   20.1051 C   0  0  0  0  0  0
  -22.7513  -29.4591   22.4901 C   0  0  0  0  0  0
  -18.0298  -28.1387   22.8480 C   0  0  0  0  0  0
  -24.1487  -36.7290   23.2644 C   0  0  0  0  0  0
  -25.9750  -30.7644   21.3827 C   0  0  0  0  0  0
  -26.0449  -29.3859   20.7254 C   0  0  0  0  0  0
  -27.2120  -28.5550   20.7313 C   0  0  0  0  0  0
  -26.0231  -26.8823   19.4519 C   0  0  0  0  0  0
  -24.8708  -27.6897   19.4579 C   0  0  0  0  0  0
  -23.6467  -29.8203   20.1565 C   0  0  0  0  0  0
  -25.4119  -36.3071   24.0323 C   0  0  1  0  0  0
  -20.5904  -28.3694   23.1269 C   0  0  2  0  0  0
  -20.6790  -26.9410   22.5412 C   0  0  0  0  0  0
  -19.5762  -26.6384   21.5215 C   0  0  0  0  0  0
  -18.1935  -26.7928   22.1617 C   0  0  0  0  0  0
  -19.1553  -28.8860   23.2856 C   0  0  0  0  0  0
  -18.9475  -30.1457   23.8877 C   0  0  0  0  0  0
  -17.6473  -30.6583   24.0568 C   0  0  0  0  0  0
  -25.9062  -34.9438   23.5100 C   0  0  0  0  0  0
  -16.5362  -29.9085   23.6333 C   0  0  0  0  0  0
  -16.7280  -28.6509   23.0339 C   0  0  0  0  0  0
  -26.4497  -31.6585   25.0727 C   0  0  0  0  0  0
  -25.3706  -31.3751   26.1442 C   0  0  0  0  0  0
  -27.0344  -30.3001   24.6212 C   0  0  0  0  0  0
  -27.6044  -32.4329   25.7502 C   0  0  0  0  0  0
  -27.5575  -37.1799   24.8468 C   0  0  0  0  0  0
  -21.4218  -29.3032   22.3646 N   0  0  0  0  0  0
  -26.4294  -37.3767   23.9406 N   0  0  0  0  0  0
  -24.6976  -31.0504   22.0982 N   0  0  0  0  0  0
  -23.4209  -28.8125   23.2994 O   0  0  0  0  0  0
  -28.3023  -26.3496   20.2261 O   0  0  0  0  0  0
  -26.5624  -34.8905   22.4661 O   0  0  0  0  0  0
  -23.5465  -32.1377   23.7291 O   0  0  0  0  0  0
  -30.1682  -19.1185   19.2801 C   0  0  0  0  0  0
  -29.5334  -19.5192   20.4341 C   0  0  0  0  0  0
  -29.9189  -17.2633   20.4649 C   0  0  0  0  0  0
  -28.7785  -23.7390   20.6694 C   0  0  0  0  0  0
  -29.3906  -20.8200   23.3618 C   0  0  0  0  0  0
  -28.1929  -24.9165   19.7573 C   0  0  0  0  0  0
  -29.0911  -20.9380   20.9906 C   0  0  1  0  0  0
  -29.0839  -22.2756   20.0544 C   0  0  0  0  0  0
  -30.4081  -17.7296   19.3098 N   0  0  0  0  0  0
  -29.8442  -15.8392   20.8551 N   0  0  0  0  0  0
  -29.0074  -23.9740   21.8612 O   0  0  0  0  0  0
  -29.3558  -18.3214   21.1820 O   0  0  0  0  0  0
  -29.9612  -21.1574   22.1025 O   0  0  0  0  0  0
  -30.2675  -22.3319   19.4416 F   0  0  0  0  0  0
  -28.1670  -22.0417   19.1144 F   0  0  0  0  0  0
  -31.4787  -12.5668   19.1853 H   0  0  0  0  0  0
  -30.3776  -11.4661   19.9577 H   0  0  0  0  0  0
  -29.7983  -11.7452   17.5274 H   0  0  0  0  0  0
  -29.6524  -13.4726   17.7388 H   0  0  0  0  0  0
  -27.8908  -11.2927   18.9021 H   0  0  0  0  0  0
  -27.3886  -12.5508   17.8020 H   0  0  0  0  0  0
  -27.6491  -14.2578   19.4930 H   0  0  0  0  0  0
  -28.7189  -12.1405   21.4232 H   0  0  0  0  0  0
  -28.4173  -13.8075   21.8229 H   0  0  0  0  0  0
  -25.2782   -9.5669   22.4754 H   0  0  0  0  0  0
  -23.9994   -7.4644   22.7479 H   0  0  0  0  0  0
  -21.0848   -8.8782   19.8956 H   0  0  0  0  0  0
  -22.3721  -10.9672   19.6148 H   0  0  0  0  0  0
  -21.2018   -7.6148   23.9709 H   0  0  0  0  0  0
  -21.1476   -6.0521   25.9077 H   0  0  0  0  0  0
  -22.0603   -2.7605   23.2837 H   0  0  0  0  0  0
  -22.4091  -11.9860   22.4796 H   0  0  0  0  0  0
  -21.1089  -13.1231   22.2613 H   0  0  0  0  0  0
  -24.6548  -15.8466   20.5187 H   0  0  0  0  0  0
  -26.2645  -15.6301   20.0579 H   0  0  0  0  0  0
  -26.7200  -32.5394   23.1066 H   0  0  0  0  0  0
  -25.0063  -33.9699   25.0396 H   0  0  0  0  0  0
  -22.7239  -31.3037   21.4004 H   0  0  0  0  0  0
  -23.3745  -35.9626   23.3316 H   0  0  0  0  0  0
  -24.3583  -36.8914   22.2061 H   0  0  0  0  0  0
  -23.7244  -37.6493   23.6665 H   0  0  0  0  0  0
  -26.1131  -31.5240   20.6119 H   0  0  0  0  0  0
  -26.8542  -30.8139   22.0141 H   0  0  0  0  0  0
  -28.1041  -28.8946   21.2385 H   0  0  0  0  0  0
  -25.9286  -25.9545   18.9125 H   0  0  0  0  0  0
  -23.9798  -27.3424   18.9542 H   0  0  0  0  0  0
  -23.7727  -30.6009   19.4052 H   0  0  0  0  0  0
  -22.7645  -29.2565   19.8487 H   0  0  0  0  0  0
  -25.1294  -36.1936   25.0813 H   0  0  0  0  0  0
  -20.9973  -28.3278   24.1402 H   0  0  0  0  0  0
  -20.5716  -26.2286   23.3606 H   0  0  0  0  0  0
  -21.6652  -26.7445   22.1186 H   0  0  0  0  0  0
  -19.6923  -25.6295   21.1250 H   0  0  0  0  0  0
  -19.6715  -27.3197   20.6747 H   0  0  0  0  0  0
  -17.4210  -26.6679   21.4020 H   0  0  0  0  0  0
  -18.0332  -26.0079   22.9022 H   0  0  0  0  0  0
  -19.7950  -30.7277   24.2231 H   0  0  0  0  0  0
  -17.5031  -31.6265   24.5161 H   0  0  0  0  0  0
  -15.5359  -30.2972   23.7679 H   0  0  0  0  0  0
  -15.8684  -28.0828   22.7040 H   0  0  0  0  0  0
  -24.5903  -30.7071   25.7774 H   0  0  0  0  0  0
  -24.8853  -32.2915   26.4806 H   0  0  0  0  0  0
  -25.8012  -30.8985   27.0259 H   0  0  0  0  0  0
  -26.2931  -29.6760   24.1211 H   0  0  0  0  0  0
  -27.3997  -29.7269   25.4740 H   0  0  0  0  0  0
  -27.8817  -30.4279   23.9479 H   0  0  0  0  0  0
  -27.2660  -33.3658   26.2029 H   0  0  0  0  0  0
  -28.3877  -32.6855   25.0337 H   0  0  0  0  0  0
  -28.0672  -31.8480   26.5457 H   0  0  0  0  0  0
  -28.2584  -38.0100   24.7497 H   0  0  0  0  0  0
  -28.1071  -36.2625   24.6311 H   0  0  0  0  0  0
  -27.2287  -37.1470   25.8868 H   0  0  0  0  0  0
  -20.9409  -29.8775   21.6877 H   0  0  0  0  0  0
  -26.0185  -38.2840   24.1415 H   0  0  0  0  0  0
  -30.4839  -19.7207   18.4396 H   0  0  0  0  0  0
  -30.1294  -20.9609   24.1503 H   0  0  0  0  0  0
  -29.0620  -19.7801   23.3908 H   0  0  0  0  0  0
  -28.5382  -21.4616   23.5919 H   0  0  0  0  0  0
  -27.1559  -24.6251   19.6304 H   0  0  0  0  0  0
  -28.6543  -24.8426   18.7731 H   0  0  0  0  0  0
  -28.0637  -20.8390   21.3451 H   0  0  0  0  0  0
  -29.0161  -15.6059   21.3768 H   0  0  0  0  0  0
  1 25  1  0  0  0
  1 30  2  0  0  0
  1 80  1  0  0  0
  2  3  1  0  0  0
  2 25  1  0  0  0
  2 86  1  0  0  0
  2 87  1  0  0  0
  3  4  1  0  0  0
  3 88  1  0  0  0
  3 89  1  0  0  0
  4  5  1  0  0  0
  4 90  1  0  0  0
  4 91  1  0  0  0
  5  6  1  0  0  0
  5 26  1  0  0  0
  5 92  1  0  0  0
  6 25  1  0  0  0
  6 93  1  0  0  0
  6 94  1  0  0  0
  7  8  2  0  0  0
  7 26  1  0  0  0
  7 29  1  0  0  0
  8  9  1  0  0  0
  8 22  1  0  0  0
  9 10  1  0  0  0
  9 27  2  0  0  0
 10 11  2  0  0  0
 10 15  1  0  0  0
 11 12  1  0  0  0
 11 95  1  0  0  0
 12 13  2  0  0  0
 12 96  1  0  0  0
 13 14  1  0  0  0
 13 31  1  0  0  0
 14 15  2  0  0  0
 14 97  1  0  0  0
 15 98  1  0  0  0
 16 17  2  0  0  0
 16 21  1  0  0  0
 16 31  1  0  0  0
 17 18  1  0  0  0
 17 99  1  0  0  0
 18 19  2  0  0  0
 18100  1  0  0  0
 19 20  1  0  0  0
 19 24  1  0  0  0
 20 21  2  0  0  0
 20101  1  0  0  0
 21 23  1  0  0  0
 22 28  1  0  0  0
 22 32  2  0  0  0
 26 27  1  0  0  0
 28102  1  0  0  0
 28103  1  0  0  0
 29104  1  0  0  0
 29105  1  0  0  0
 33 34  1  0  0  0
 33 66  1  0  0  0
 33 70  2  0  0  0
 34 36  1  0  0  0
 34 59  1  0  0  0
 34106  1  0  0  0
 35 44  2  0  0  0
 35 45  1  0  0  0
 35 68  1  0  0  0
 36 56  1  0  0  0
 36107  1  0  0  0
 37 39  1  0  0  0
 37 47  1  0  0  0
 37 66  1  0  0  0
 37108  1  0  0  0
 38 43  2  0  0  0
 38 46  1  0  0  0
 38 47  1  0  0  0
 39 64  1  0  0  0
 39 67  2  0  0  0
 40 52  1  0  0  0
 40 53  2  0  0  0
 40 58  1  0  0  0
 41109  1  0  0  0
 41110  1  0  0  0
 41111  1  0  0  0
 41 48  1  0  0  0
 42 43  1  0  0  0
 42 66  1  0  0  0
 42112  1  0  0  0
 42113  1  0  0  0
 43 44  1  0  0  0
 44114  1  0  0  0
 45 46  2  0  0  0
 45115  1  0  0  0
 46116  1  0  0  0
 47117  1  0  0  0
 47118  1  0  0  0
 48 56  1  0  0  0
 48 65  1  0  0  0
 48119  1  0  0  0
 49 50  1  0  0  0
 49 53  1  0  0  0
 49 64  1  0  0  0
 49120  1  0  0  0
 50 51  1  0  0  0
 50121  1  0  0  0
 50122  1  0  0  0
 51 52  1  0  0  0
 51123  1  0  0  0
 51124  1  0  0  0
 52125  1  0  0  0
 52126  1  0  0  0
 53 54  1  0  0  0
 54 55  2  0  0  0
 54127  1  0  0  0
 55 57  1  0  0  0
 55128  1  0  0  0
 56 69  2  0  0  0
 57 58  2  0  0  0
 57129  1  0  0  0
 58130  1  0  0  0
 59 60  1  0  0  0
 59 61  1  0  0  0
 59 62  1  0  0  0
 60131  1  0  0  0
 60132  1  0  0  0
 60133  1  0  0  0
 61134  1  0  0  0
 61135  1  0  0  0
 61136  1  0  0  0
 62137  1  0  0  0
 62138  1  0  0  0
 62139  1  0  0  0
 63 65  1  0  0  0
 63140  1  0  0  0
 63141  1  0  0  0
 63142  1  0  0  0
 64143  1  0  0  0
 65144  1  0  0  0
 68 76  1  0  0  0
 71 72  2  0  0  0
 71 79  1  0  0  0
 71145  1  0  0  0
 72 77  1  0  0  0
 72 82  1  0  0  0
 73 79  2  0  0  0
 73 80  1  0  0  0
 73 82  1  0  0  0
 74 76  1  0  0  0
 74 78  1  0  0  0
 74 81  2  0  0  0
 75 83  1  0  0  0
 75146  1  0  0  0
 75147  1  0  0  0
 75148  1  0  0  0
 76149  1  0  0  0
 76150  1  0  0  0
 77 78  1  0  0  0
 77 83  1  0  0  0
 77151  1  0  0  0
 78 84  1  0  0  0
 78 85  1  0  0  0
 80152  1  0  0  0
M  ISO  4   1 100  68 101  76 101  80 100
M  END
> <chiral flag>
0

> <version>
0

> <s_m_source_file>
/data/baiqing/PycharmProjects/Reinvent-master-3.2/result/LINK_invent/BTK/process_docking_weight1_custom_product_contain_oxygen_bond_distance_aromatic_linkinvent_7_9_3/rearranged_h_0178.sdf

> <i_m_source_file_index>
12

> <r_mmod_Potential_Energy-OPLS-2005>
166.718368530273

> <r_mmod_Stretch_Energy-OPLS-2005>
126.564765930176

> <r_mmod_Bend_Energy-OPLS-2005>
169.872573852539

> <r_mmod_Torsional_Energy-OPLS-2005>
234.063888549805

> <r_mmod_Improper_Torsional_Energy-OPLS-2005>
3.5041286945343

> <r_mmod_Van_der_Waal_Energy-OPLS-2005>
118.956680297852

> <r_mmod_Electrostatic_Energy-OPLS-2005>
-323.497406005859

> <r_mmod_Solvation_Energy-OPLS-2005>
-249.963592529297

> <b_mmod_Minimization_Converged-OPLS-2005>
0

> <r_mmod_RMS_Derivative-OPLS-2005>
2.06139612197876

$$$$
12
                    3D
 Structure written by MMmdl.
149157  0  0  1  0            999 V2000
  -30.7500  -14.4773   20.5660 C   0  0  0  0  0  0
  -30.4072  -12.3097   19.4340 C   0  0  0  0  0  0
  -29.4902  -12.5065   18.2103 C   0  0  0  0  0  0
  -28.0129  -12.3670   18.6243 C   0  0  0  0  0  0
  -27.6566  -13.2201   19.8724 C   0  0  2  0  0  0
  -28.7034  -13.0433   20.9977 C   0  0  0  0  0  0
  -25.2540  -13.8171   20.5739 C   0  0  0  0  0  0
  -24.1804  -13.0419   20.9161 C   0  0  0  0  0  0
  -24.6389  -11.6896   20.8711 C   0  0  0  0  0  0
  -23.9056  -10.4285   21.0377 C   0  0  0  0  0  0
  -24.3613   -9.4214   21.9160 C   0  0  0  0  0  0
  -23.6295   -8.2246   22.0745 C   0  0  0  0  0  0
  -22.4271   -8.0276   21.3547 C   0  0  0  0  0  0
  -21.9899   -9.0234   20.4640 C   0  0  0  0  0  0
  -22.7220  -10.2116   20.3038 C   0  0  0  0  0  0
  -21.6856   -6.0732   22.5280 C   0  0  0  0  0  0
  -21.4010   -6.5633   23.8210 C   0  0  0  0  0  0
  -21.3667   -5.6793   24.9176 C   0  0  0  0  0  0
  -21.6049   -4.3053   24.7229 C   0  0  0  0  0  0
  -21.8815   -3.8145   23.4348 C   0  0  0  0  0  0
  -21.9188   -4.6960   22.3406 C   0  0  0  0  0  0
  -22.7827  -13.5210   21.1849 C   0  0  0  0  0  0
  -22.1652   -4.2147   21.0976 F   0  0  0  0  0  0
  -21.5647   -3.4537   25.7744 F   0  0  0  0  0  0
  -30.0337  -13.3236   20.4350 N   0  0  0  0  0  0
  -26.3013  -12.9384   20.3413 N   0  0  0  0  0  0
  -25.9335  -11.6517   20.5772 N   0  0  0  0  0  0
  -22.0479  -12.8200   22.0410 N   0  0  0  0  0  0
  -25.4199  -15.1896   20.4313 N   0  0  0  0  0  0
  -31.8797  -14.6065   20.0927 O   0  0  0  0  0  0
  -21.6642   -6.8867   21.4240 O   0  0  0  0  0  0
  -22.3497  -14.5526   20.6718 O   0  0  0  0  0  0
  -24.6196  -31.8689   23.2103 C   0  0  0  0  0  0
  -25.9082  -32.4820   23.8406 C   0  0  1  0  0  0
  -27.2166  -27.3898   20.0973 C   0  0  0  0  0  0
  -25.5929  -33.8620   24.2335 N   0  0  0  0  0  0
  -23.4076  -30.4970   21.5540 C   0  0  2  0  0  0
  -24.8501  -28.9699   20.1093 C   0  0  0  0  0  0
  -22.7426  -29.4688   22.4986 C   0  0  0  0  0  0
  -18.0280  -28.1371   22.8507 C   0  0  0  0  0  0
  -24.1489  -36.7309   23.2632 C   0  0  0  0  0  0
  -25.9447  -30.8186   21.3737 C   0  0  0  0  0  0
  -26.0175  -29.4548   20.7124 C   0  0  0  0  0  0
  -27.2041  -28.6745   20.7029 C   0  0  0  0  0  0
  -26.0275  -26.9548   19.4574 C   0  0  0  0  0  0
  -24.8538  -27.7214   19.4753 C   0  0  0  0  0  0
  -23.6148  -29.8394   20.1661 C   0  0  0  0  0  0
  -25.4107  -36.3113   24.0340 C   0  0  1  0  0  0
  -20.5876  -28.3689   23.1289 C   0  0  2  0  0  0
  -20.6780  -26.9429   22.5395 C   0  0  0  0  0  0
  -19.5737  -26.6389   21.5220 C   0  0  0  0  0  0
  -18.1926  -26.7909   22.1653 C   0  0  0  0  0  0
  -19.1531  -28.8844   23.2893 C   0  0  0  0  0  0
  -18.9457  -30.1449   23.8906 C   0  0  0  0  0  0
  -17.6459  -30.6586   24.0565 C   0  0  0  0  0  0
  -25.9047  -34.9478   23.5135 C   0  0  0  0  0  0
  -16.5351  -29.9087   23.6328 C   0  0  0  0  0  0
  -16.7269  -28.6495   23.0368 C   0  0  0  0  0  0
  -26.4485  -31.6591   25.0739 C   0  0  0  0  0  0
  -25.3757  -31.3786   26.1523 C   0  0  0  0  0  0
  -27.0242  -30.2982   24.6159 C   0  0  0  0  0  0
  -27.6114  -32.4270   25.7451 C   0  0  0  0  0  0
  -27.5585  -37.1801   24.8461 C   0  0  0  0  0  0
  -21.4155  -29.3062   22.3700 N   0  0  0  0  0  0
  -26.4287  -37.3801   23.9422 N   0  0  0  0  0  0
  -24.6765  -31.0750   22.1037 N   0  0  0  0  0  0
  -23.4179  -28.8221   23.3035 O   0  0  0  0  0  0
  -28.3397  -26.5669   20.1583 O   0  0  0  0  0  0
  -26.5608  -34.8930   22.4696 O   0  0  0  0  0  0
  -23.5377  -32.1490   23.7459 O   0  0  0  0  0  0
  -29.7194  -18.0432   21.0505 C   0  0  0  0  0  0
  -28.3514  -17.9695   20.9727 C   0  0  0  0  0  0
  -29.1513  -20.2766   20.8303 C   0  0  0  0  0  0
  -29.0751  -24.1384   20.5344 C   0  0  0  0  0  0
  -28.5040  -22.6919   20.7838 C   0  0  0  0  0  0
  -30.7035  -16.8964   21.2243 C   0  0  0  0  0  0
  -28.0527  -25.1507   19.9585 C   0  0  0  0  0  0
  -30.1606  -19.3870   20.9527 N   0  0  0  0  0  0
  -29.4085  -21.6850   20.7174 N   0  0  0  0  0  0
  -30.1303  -15.5335   21.1241 N   0  0  0  0  0  0
  -30.2525  -24.4439   20.7632 O   0  0  0  0  0  0
  -27.3052  -22.5262   21.0359 O   0  0  0  0  0  0
  -27.6501  -16.8104   21.0295 F   0  0  0  0  0  0
  -27.5555  -19.5041   20.7976 S   0  0  0  0  0  0
  -31.4565  -12.3685   19.1400 H   0  0  0  0  0  0
  -30.2739  -11.3096   19.8483 H   0  0  0  0  0  0
  -29.7327  -11.7775   17.4355 H   0  0  0  0  0  0
  -29.6612  -13.4900   17.7690 H   0  0  0  0  0  0
  -27.8306  -11.3126   18.8331 H   0  0  0  0  0  0
  -27.3599  -12.6268   17.7902 H   0  0  0  0  0  0
  -27.6857  -14.2633   19.5570 H   0  0  0  0  0  0
  -28.6783  -12.0237   21.3851 H   0  0  0  0  0  0
  -28.4710  -13.6870   21.8473 H   0  0  0  0  0  0
  -25.2754   -9.5705   22.4731 H   0  0  0  0  0  0
  -24.0016   -7.4644   22.7468 H   0  0  0  0  0  0
  -21.0826   -8.8730   19.8955 H   0  0  0  0  0  0
  -22.3658  -10.9642   19.6146 H   0  0  0  0  0  0
  -21.1987   -7.6142   23.9712 H   0  0  0  0  0  0
  -21.1503   -6.0525   25.9078 H   0  0  0  0  0  0
  -22.0588   -2.7609   23.2850 H   0  0  0  0  0  0
  -22.4097  -11.9856   22.4789 H   0  0  0  0  0  0
  -21.1097  -13.1221   22.2614 H   0  0  0  0  0  0
  -24.6647  -15.8361   20.6294 H   0  0  0  0  0  0
  -26.3211  -15.6537   20.3597 H   0  0  0  0  0  0
  -26.7148  -32.5501   23.1158 H   0  0  0  0  0  0
  -25.0065  -33.9776   25.0466 H   0  0  0  0  0  0
  -22.6992  -31.3174   21.4193 H   0  0  0  0  0  0
  -23.3788  -35.9600   23.3216 H   0  0  0  0  0  0
  -24.3617  -36.9008   22.2068 H   0  0  0  0  0  0
  -23.7181  -37.6462   23.6696 H   0  0  0  0  0  0
  -26.0686  -31.5877   20.6104 H   0  0  0  0  0  0
  -26.8279  -30.8627   21.9988 H   0  0  0  0  0  0
  -28.0984  -29.0424   21.1862 H   0  0  0  0  0  0
  -25.9654  -26.0115   18.9362 H   0  0  0  0  0  0
  -23.9607  -27.3463   18.9951 H   0  0  0  0  0  0
  -23.7221  -30.6203   19.4123 H   0  0  0  0  0  0
  -22.7358  -29.2644   19.8681 H   0  0  0  0  0  0
  -25.1277  -36.1981   25.0831 H   0  0  0  0  0  0
  -20.9969  -28.3263   24.1407 H   0  0  0  0  0  0
  -20.5732  -26.2307   23.3592 H   0  0  0  0  0  0
  -21.6639  -26.7499   22.1148 H   0  0  0  0  0  0
  -19.6910  -25.6308   21.1232 H   0  0  0  0  0  0
  -19.6630  -27.3216   20.6761 H   0  0  0  0  0  0
  -17.4185  -26.6654   21.4069 H   0  0  0  0  0  0
  -18.0344  -26.0046   22.9047 H   0  0  0  0  0  0
  -19.7939  -30.7266   24.2266 H   0  0  0  0  0  0
  -17.5022  -31.6269   24.5159 H   0  0  0  0  0  0
  -15.5356  -30.2999   23.7637 H   0  0  0  0  0  0
  -15.8666  -28.0810   22.7089 H   0  0  0  0  0  0
  -24.5649  -30.7515   25.7803 H   0  0  0  0  0  0
  -24.9333  -32.3023   26.5268 H   0  0  0  0  0  0
  -25.8026  -30.8578   27.0102 H   0  0  0  0  0  0
  -26.2752  -29.6760   24.1243 H   0  0  0  0  0  0
  -27.3976  -29.7223   25.4637 H   0  0  0  0  0  0
  -27.8640  -30.4213   23.9317 H   0  0  0  0  0  0
  -27.2822  -33.3639   26.1953 H   0  0  0  0  0  0
  -28.3942  -32.6697   25.0251 H   0  0  0  0  0  0
  -28.0734  -31.8412   26.5405 H   0  0  0  0  0  0
  -28.2586  -38.0117   24.7555 H   0  0  0  0  0  0
  -28.1100  -36.2658   24.6222 H   0  0  0  0  0  0
  -27.2315  -37.1370   25.8865 H   0  0  0  0  0  0
  -20.9330  -29.8783   21.6912 H   0  0  0  0  0  0
  -26.0180  -38.2876   24.1442 H   0  0  0  0  0  0
  -31.1877  -16.9758   22.1980 H   0  0  0  0  0  0
  -31.5067  -17.0214   20.4959 H   0  0  0  0  0  0
  -27.1017  -24.9137   20.4361 H   0  0  0  0  0  0
  -27.9432  -24.9498   18.8925 H   0  0  0  0  0  0
  -30.3665  -21.9682   20.5675 H   0  0  0  0  0  0
  -29.1769  -15.4177   21.4343 H   0  0  0  0  0  0
  1 25  1  0  0  0
  1 30  2  0  0  0
  1 80  1  0  0  0
  2  3  1  0  0  0
  2 25  1  0  0  0
  2 85  1  0  0  0
  2 86  1  0  0  0
  3  4  1  0  0  0
  3 87  1  0  0  0
  3 88  1  0  0  0
  4  5  1  0  0  0
  4 89  1  0  0  0
  4 90  1  0  0  0
  5  6  1  0  0  0
  5 26  1  0  0  0
  5 91  1  0  0  0
  6 25  1  0  0  0
  6 92  1  0  0  0
  6 93  1  0  0  0
  7  8  2  0  0  0
  7 26  1  0  0  0
  7 29  1  0  0  0
  8  9  1  0  0  0
  8 22  1  0  0  0
  9 10  1  0  0  0
  9 27  2  0  0  0
 10 11  2  0  0  0
 10 15  1  0  0  0
 11 12  1  0  0  0
 11 94  1  0  0  0
 12 13  2  0  0  0
 12 95  1  0  0  0
 13 14  1  0  0  0
 13 31  1  0  0  0
 14 15  2  0  0  0
 14 96  1  0  0  0
 15 97  1  0  0  0
 16 17  2  0  0  0
 16 21  1  0  0  0
 16 31  1  0  0  0
 17 18  1  0  0  0
 17 98  1  0  0  0
 18 19  2  0  0  0
 18 99  1  0  0  0
 19 20  1  0  0  0
 19 24  1  0  0  0
 20 21  2  0  0  0
 20100  1  0  0  0
 21 23  1  0  0  0
 22 28  1  0  0  0
 22 32  2  0  0  0
 26 27  1  0  0  0
 28101  1  0  0  0
 28102  1  0  0  0
 29103  1  0  0  0
 29104  1  0  0  0
 33 34  1  0  0  0
 33 66  1  0  0  0
 33 70  2  0  0  0
 34 36  1  0  0  0
 34 59  1  0  0  0
 34105  1  0  0  0
 35 44  2  0  0  0
 35 45  1  0  0  0
 35 68  1  0  0  0
 36 56  1  0  0  0
 36106  1  0  0  0
 37 39  1  0  0  0
 37 47  1  0  0  0
 37 66  1  0  0  0
 37107  1  0  0  0
 38 43  2  0  0  0
 38 46  1  0  0  0
 38 47  1  0  0  0
 39 64  1  0  0  0
 39 67  2  0  0  0
 40 52  1  0  0  0
 40 53  2  0  0  0
 40 58  1  0  0  0
 41108  1  0  0  0
 41109  1  0  0  0
 41110  1  0  0  0
 41 48  1  0  0  0
 42 43  1  0  0  0
 42 66  1  0  0  0
 42111  1  0  0  0
 42112  1  0  0  0
 43 44  1  0  0  0
 44113  1  0  0  0
 45 46  2  0  0  0
 45114  1  0  0  0
 46115  1  0  0  0
 47116  1  0  0  0
 47117  1  0  0  0
 48 56  1  0  0  0
 48 65  1  0  0  0
 48118  1  0  0  0
 49 50  1  0  0  0
 49 53  1  0  0  0
 49 64  1  0  0  0
 49119  1  0  0  0
 50 51  1  0  0  0
 50120  1  0  0  0
 50121  1  0  0  0
 51 52  1  0  0  0
 51122  1  0  0  0
 51123  1  0  0  0
 52124  1  0  0  0
 52125  1  0  0  0
 53 54  1  0  0  0
 54 55  2  0  0  0
 54126  1  0  0  0
 55 57  1  0  0  0
 55127  1  0  0  0
 56 69  2  0  0  0
 57 58  2  0  0  0
 57128  1  0  0  0
 58129  1  0  0  0
 59 60  1  0  0  0
 59 61  1  0  0  0
 59 62  1  0  0  0
 60130  1  0  0  0
 60131  1  0  0  0
 60132  1  0  0  0
 61133  1  0  0  0
 61134  1  0  0  0
 61135  1  0  0  0
 62136  1  0  0  0
 62137  1  0  0  0
 62138  1  0  0  0
 63 65  1  0  0  0
 63139  1  0  0  0
 63140  1  0  0  0
 63141  1  0  0  0
 64142  1  0  0  0
 65143  1  0  0  0
 68 77  1  0  0  0
 71 72  2  0  0  0
 71 76  1  0  0  0
 71 78  1  0  0  0
 72 83  1  0  0  0
 72 84  1  0  0  0
 73 78  2  0  0  0
 73 79  1  0  0  0
 73 84  1  0  0  0
 74 75  1  0  0  0
 74 77  1  0  0  0
 74 81  2  0  0  0
 75 79  1  0  0  0
 75 82  2  0  0  0
 76 80  1  0  0  0
 76144  1  0  0  0
 76145  1  0  0  0
 77146  1  0  0  0
 77147  1  0  0  0
 79148  1  0  0  0
 80149  1  0  0  0
M  ISO  4   1 100  68 101  77 101  80 100
M  END
> <chiral flag>
0

> <version>
0

> <s_m_source_file>
/data/baiqing/PycharmProjects/Reinvent-master-3.2/result/LINK_invent/BTK/process_docking_weight1_custom_product_contain_oxygen_bond_distance_aromatic_linkinvent_7_9_3/rearranged_h_0178.sdf

> <i_m_source_file_index>
13

> <r_mmod_Potential_Energy-OPLS-2005>
-162.136276245117

> <r_mmod_Stretch_Energy-OPLS-2005>
46.3864898681641

> <r_mmod_Bend_Energy-OPLS-2005>
107.056663513184

> <r_mmod_Torsional_Energy-OPLS-2005>
194.367858886719

> <r_mmod_Improper_Torsional_Energy-OPLS-2005>
3.36046504974365

> <r_mmod_Van_der_Waal_Energy-OPLS-2005>
144.331680297852

> <r_mmod_Electrostatic_Energy-OPLS-2005>
-447.622222900391

> <r_mmod_Solvation_Energy-OPLS-2005>
-232.633209228516

> <b_mmod_Minimization_Converged-OPLS-2005>
0

> <r_mmod_RMS_Derivative-OPLS-2005>
1.63604974746704

$$$$
13
                    3D
 Structure written by MMmdl.
152160  0  0  1  0            999 V2000
  -30.6838  -14.5112   20.4652 C   0  0  0  0  0  0
  -30.4095  -12.3071   19.4299 C   0  0  0  0  0  0
  -29.4863  -12.4902   18.2070 C   0  0  0  0  0  0
  -28.0093  -12.3423   18.6214 C   0  0  0  0  0  0
  -27.6481  -13.2078   19.8590 C   0  0  2  0  0  0
  -28.6925  -13.0381   20.9856 C   0  0  0  0  0  0
  -25.2533  -13.8156   20.5684 C   0  0  0  0  0  0
  -24.1795  -13.0437   20.9182 C   0  0  0  0  0  0
  -24.6347  -11.6896   20.8732 C   0  0  0  0  0  0
  -23.9024  -10.4291   21.0401 C   0  0  0  0  0  0
  -24.3585   -9.4215   21.9190 C   0  0  0  0  0  0
  -23.6278   -8.2239   22.0753 C   0  0  0  0  0  0
  -22.4267   -8.0261   21.3540 C   0  0  0  0  0  0
  -21.9900   -9.0220   20.4629 C   0  0  0  0  0  0
  -22.7207  -10.2105   20.3043 C   0  0  0  0  0  0
  -21.6851   -6.0727   22.5287 C   0  0  0  0  0  0
  -21.4011   -6.5632   23.8213 C   0  0  0  0  0  0
  -21.3654   -5.6791   24.9177 C   0  0  0  0  0  0
  -21.6048   -4.3060   24.7248 C   0  0  0  0  0  0
  -21.8810   -3.8139   23.4366 C   0  0  0  0  0  0
  -21.9188   -4.6950   22.3416 C   0  0  0  0  0  0
  -22.7820  -13.5213   21.1888 C   0  0  0  0  0  0
  -22.1662   -4.2132   21.0997 F   0  0  0  0  0  0
  -21.5625   -3.4557   25.7762 F   0  0  0  0  0  0
  -30.0189  -13.3239   20.4175 N   0  0  0  0  0  0
  -26.2937  -12.9320   20.3283 N   0  0  0  0  0  0
  -25.9266  -11.6486   20.5723 N   0  0  0  0  0  0
  -22.0486  -12.8143   22.0410 N   0  0  0  0  0  0
  -25.4319  -15.1871   20.4108 N   0  0  0  0  0  0
  -31.8753  -14.5951   20.1541 O   0  0  0  0  0  0
  -21.6630   -6.8858   21.4235 O   0  0  0  0  0  0
  -22.3506  -14.5564   20.6791 O   0  0  0  0  0  0
  -24.6212  -31.8645   23.2055 C   0  0  0  0  0  0
  -25.9098  -32.4804   23.8362 C   0  0  1  0  0  0
  -27.2395  -27.4232   20.0852 C   0  0  0  0  0  0
  -25.5972  -33.8599   24.2323 N   0  0  0  0  0  0
  -23.4076  -30.4899   21.5445 C   0  0  2  0  0  0
  -24.8518  -28.9530   20.1142 C   0  0  0  0  0  0
  -22.7450  -29.4635   22.4945 C   0  0  0  0  0  0
  -18.0284  -28.1366   22.8465 C   0  0  0  0  0  0
  -24.1498  -36.7278   23.2622 C   0  0  0  0  0  0
  -25.9358  -30.8356   21.3498 C   0  0  0  0  0  0
  -26.0130  -29.4673   20.6990 C   0  0  0  0  0  0
  -27.2065  -28.7114   20.6724 C   0  0  0  0  0  0
  -26.0409  -26.9023   19.5421 C   0  0  0  0  0  0
  -24.8605  -27.6717   19.5390 C   0  0  0  0  0  0
  -23.6164  -29.8233   20.1592 C   0  0  0  0  0  0
  -25.4105  -36.3072   24.0335 C   0  0  1  0  0  0
  -20.5891  -28.3639   23.1307 C   0  0  2  0  0  0
  -20.6778  -26.9367   22.5392 C   0  0  0  0  0  0
  -19.5754  -26.6370   21.5186 C   0  0  0  0  0  0
  -18.1929  -26.7916   22.1575 C   0  0  0  0  0  0
  -19.1539  -28.8818   23.2879 C   0  0  0  0  0  0
  -18.9473  -30.1432   23.8879 C   0  0  0  0  0  0
  -17.6480  -30.6558   24.0563 C   0  0  0  0  0  0
  -25.9045  -34.9455   23.5105 C   0  0  0  0  0  0
  -16.5370  -29.9051   23.6333 C   0  0  0  0  0  0
  -16.7279  -28.6488   23.0301 C   0  0  0  0  0  0
  -26.4521  -31.6575   25.0684 C   0  0  0  0  0  0
  -25.3785  -31.3650   26.1419 C   0  0  0  0  0  0
  -27.0376  -30.3053   24.5985 C   0  0  0  0  0  0
  -27.6068  -32.4293   25.7521 C   0  0  0  0  0  0
  -27.5593  -37.1778   24.8436 C   0  0  0  0  0  0
  -21.4166  -29.3048   22.3762 N   0  0  0  0  0  0
  -26.4259  -37.3779   23.9447 N   0  0  0  0  0  0
  -24.6733  -31.0768   22.0938 N   0  0  0  0  0  0
  -23.4242  -28.8145   23.2939 O   0  0  0  0  0  0
  -28.4474  -26.7502   20.0926 O   0  0  0  0  0  0
  -26.5560  -34.8920   22.4650 O   0  0  0  0  0  0
  -23.5405  -32.1383   23.7459 O   0  0  0  0  0  0
  -31.3531  -18.7443   19.4388 C   0  0  0  0  0  0
  -30.2545  -19.4415   19.8924 C   0  0  0  0  0  0
  -30.1929  -16.9719   20.3121 C   0  0  0  0  0  0
  -29.5824  -23.1204   19.7900 C   0  0  0  0  0  0
  -29.2367  -21.6737   20.2723 C   0  0  0  0  0  0
  -32.5665  -19.3245   18.7685 C   0  0  0  0  0  0
  -28.8376  -24.3209   20.4082 C   0  0  0  0  0  0
  -28.6422  -25.5007   19.4063 C   0  0  0  0  0  0
  -31.3027  -17.3659   19.6761 N   0  0  0  0  0  0
  -30.1175  -20.7940   19.7590 N   0  0  0  0  0  0
  -29.9101  -15.6066   20.6591 N   0  0  0  0  0  0
  -30.4736  -23.3057   18.9494 O   0  0  0  0  0  0
  -28.2919  -21.4001   21.0218 O   0  0  0  0  0  0
  -29.0975  -18.3261   20.6272 S   0  0  0  0  0  0
  -31.4557  -12.3910   19.1296 H   0  0  0  0  0  0
  -30.3001  -11.3081   19.8527 H   0  0  0  0  0  0
  -29.7359  -11.7637   17.4331 H   0  0  0  0  0  0
  -29.6420  -13.4749   17.7629 H   0  0  0  0  0  0
  -27.8335  -11.2882   18.8437 H   0  0  0  0  0  0
  -27.3532  -12.5894   17.7847 H   0  0  0  0  0  0
  -27.6748  -14.2451   19.5282 H   0  0  0  0  0  0
  -28.6679  -12.0169   21.3700 H   0  0  0  0  0  0
  -28.4635  -13.6823   21.8353 H   0  0  0  0  0  0
  -25.2717   -9.5701   22.4753 H   0  0  0  0  0  0
  -23.9999   -7.4643   22.7465 H   0  0  0  0  0  0
  -21.0841   -8.8698   19.8924 H   0  0  0  0  0  0
  -22.3661  -10.9623   19.6132 H   0  0  0  0  0  0
  -21.1999   -7.6143   23.9710 H   0  0  0  0  0  0
  -21.1483   -6.0529   25.9064 H   0  0  0  0  0  0
  -22.0590   -2.7606   23.2885 H   0  0  0  0  0  0
  -22.4107  -11.9733   22.4644 H   0  0  0  0  0  0
  -21.1095  -13.1097   22.2669 H   0  0  0  0  0  0
  -24.6731  -15.8494   20.5197 H   0  0  0  0  0  0
  -26.2818  -15.6160   20.0690 H   0  0  0  0  0  0
  -26.7183  -32.5521   23.1140 H   0  0  0  0  0  0
  -25.0310  -33.9775   25.0594 H   0  0  0  0  0  0
  -22.6959  -31.3057   21.4000 H   0  0  0  0  0  0
  -23.3794  -35.9563   23.3163 H   0  0  0  0  0  0
  -24.3648  -36.8997   22.2066 H   0  0  0  0  0  0
  -23.7189  -37.6424   23.6702 H   0  0  0  0  0  0
  -26.0367  -31.6014   20.5787 H   0  0  0  0  0  0
  -26.8316  -30.9042   21.9552 H   0  0  0  0  0  0
  -28.1149  -29.1132   21.1009 H   0  0  0  0  0  0
  -25.9779  -25.9005   19.1432 H   0  0  0  0  0  0
  -23.9533  -27.2644   19.1126 H   0  0  0  0  0  0
  -23.7249  -30.5943   19.3961 H   0  0  0  0  0  0
  -22.7424  -29.2427   19.8605 H   0  0  0  0  0  0
  -25.1261  -36.1908   25.0816 H   0  0  0  0  0  0
  -20.9979  -28.3159   24.1414 H   0  0  0  0  0  0
  -20.5675  -26.2211   23.3557 H   0  0  0  0  0  0
  -21.6645  -26.7385   22.1181 H   0  0  0  0  0  0
  -19.6917  -25.6277   21.1185 H   0  0  0  0  0  0
  -19.6721  -27.3196   20.6741 H   0  0  0  0  0  0
  -17.4211  -26.6705   21.3952 H   0  0  0  0  0  0
  -18.0279  -26.0015   22.8932 H   0  0  0  0  0  0
  -19.7955  -30.7273   24.2195 H   0  0  0  0  0  0
  -17.5025  -31.6227   24.5161 H   0  0  0  0  0  0
  -15.5366  -30.2953   23.7674 H   0  0  0  0  0  0
  -15.8672  -28.0854   22.6958 H   0  0  0  0  0  0
  -24.6073  -30.6843   25.7793 H   0  0  0  0  0  0
  -24.8845  -32.2776   26.4758 H   0  0  0  0  0  0
  -25.8171  -30.8965   27.0240 H   0  0  0  0  0  0
  -26.2906  -29.6803   24.1072 H   0  0  0  0  0  0
  -27.4290  -29.7269   25.4368 H   0  0  0  0  0  0
  -27.8645  -30.4454   23.9017 H   0  0  0  0  0  0
  -27.2697  -33.3661   26.1978 H   0  0  0  0  0  0
  -28.4003  -32.6728   25.0441 H   0  0  0  0  0  0
  -28.0561  -31.8451   26.5563 H   0  0  0  0  0  0
  -28.2441  -38.0235   24.7690 H   0  0  0  0  0  0
  -28.1257  -36.2785   24.5984 H   0  0  0  0  0  0
  -27.2351  -37.1075   25.8830 H   0  0  0  0  0  0
  -20.9312  -29.8906   21.7112 H   0  0  0  0  0  0
  -26.0117  -38.2810   24.1560 H   0  0  0  0  0  0
  -33.2501  -19.7538   19.5017 H   0  0  0  0  0  0
  -32.3045  -20.1182   18.0662 H   0  0  0  0  0  0
  -33.1232  -18.5703   18.2138 H   0  0  0  0  0  0
  -29.4523  -24.6501   21.2490 H   0  0  0  0  0  0
  -27.8851  -24.0021   20.8316 H   0  0  0  0  0  0
  -27.8863  -25.2635   18.6563 H   0  0  0  0  0  0
  -29.5478  -25.6520   18.8148 H   0  0  0  0  0  0
  -30.8114  -21.2652   19.1902 H   0  0  0  0  0  0
  -28.9635  -15.4262   20.9550 H   0  0  0  0  0  0
  1 25  1  0  0  0
  1 30  2  0  0  0
  1 81  1  0  0  0
  2  3  1  0  0  0
  2 25  1  0  0  0
  2 85  1  0  0  0
  2 86  1  0  0  0
  3  4  1  0  0  0
  3 87  1  0  0  0
  3 88  1  0  0  0
  4  5  1  0  0  0
  4 89  1  0  0  0
  4 90  1  0  0  0
  5  6  1  0  0  0
  5 26  1  0  0  0
  5 91  1  0  0  0
  6 25  1  0  0  0
  6 92  1  0  0  0
  6 93  1  0  0  0
  7  8  2  0  0  0
  7 26  1  0  0  0
  7 29  1  0  0  0
  8  9  1  0  0  0
  8 22  1  0  0  0
  9 10  1  0  0  0
  9 27  2  0  0  0
 10 11  2  0  0  0
 10 15  1  0  0  0
 11 12  1  0  0  0
 11 94  1  0  0  0
 12 13  2  0  0  0
 12 95  1  0  0  0
 13 14  1  0  0  0
 13 31  1  0  0  0
 14 15  2  0  0  0
 14 96  1  0  0  0
 15 97  1  0  0  0
 16 17  2  0  0  0
 16 21  1  0  0  0
 16 31  1  0  0  0
 17 18  1  0  0  0
 17 98  1  0  0  0
 18 19  2  0  0  0
 18 99  1  0  0  0
 19 20  1  0  0  0
 19 24  1  0  0  0
 20 21  2  0  0  0
 20100  1  0  0  0
 21 23  1  0  0  0
 22 28  1  0  0  0
 22 32  2  0  0  0
 26 27  1  0  0  0
 28101  1  0  0  0
 28102  1  0  0  0
 29103  1  0  0  0
 29104  1  0  0  0
 33 34  1  0  0  0
 33 66  1  0  0  0
 33 70  2  0  0  0
 34 36  1  0  0  0
 34 59  1  0  0  0
 34105  1  0  0  0
 35 44  2  0  0  0
 35 45  1  0  0  0
 35 68  1  0  0  0
 36 56  1  0  0  0
 36106  1  0  0  0
 37 39  1  0  0  0
 37 47  1  0  0  0
 37 66  1  0  0  0
 37107  1  0  0  0
 38 43  2  0  0  0
 38 46  1  0  0  0
 38 47  1  0  0  0
 39 64  1  0  0  0
 39 67  2  0  0  0
 40 52  1  0  0  0
 40 53  2  0  0  0
 40 58  1  0  0  0
 41108  1  0  0  0
 41109  1  0  0  0
 41110  1  0  0  0
 41 48  1  0  0  0
 42 43  1  0  0  0
 42 66  1  0  0  0
 42111  1  0  0  0
 42112  1  0  0  0
 43 44  1  0  0  0
 44113  1  0  0  0
 45 46  2  0  0  0
 45114  1  0  0  0
 46115  1  0  0  0
 47116  1  0  0  0
 47117  1  0  0  0
 48 56  1  0  0  0
 48 65  1  0  0  0
 48118  1  0  0  0
 49 50  1  0  0  0
 49 53  1  0  0  0
 49 64  1  0  0  0
 49119  1  0  0  0
 50 51  1  0  0  0
 50120  1  0  0  0
 50121  1  0  0  0
 51 52  1  0  0  0
 51122  1  0  0  0
 51123  1  0  0  0
 52124  1  0  0  0
 52125  1  0  0  0
 53 54  1  0  0  0
 54 55  2  0  0  0
 54126  1  0  0  0
 55 57  1  0  0  0
 55127  1  0  0  0
 56 69  2  0  0  0
 57 58  2  0  0  0
 57128  1  0  0  0
 58129  1  0  0  0
 59 60  1  0  0  0
 59 61  1  0  0  0
 59 62  1  0  0  0
 60130  1  0  0  0
 60131  1  0  0  0
 60132  1  0  0  0
 61133  1  0  0  0
 61134  1  0  0  0
 61135  1  0  0  0
 62136  1  0  0  0
 62137  1  0  0  0
 62138  1  0  0  0
 63 65  1  0  0  0
 63139  1  0  0  0
 63140  1  0  0  0
 63141  1  0  0  0
 64142  1  0  0  0
 65143  1  0  0  0
 68 78  1  0  0  0
 71 72  2  0  0  0
 71 76  1  0  0  0
 71 79  1  0  0  0
 72 80  1  0  0  0
 72 84  1  0  0  0
 73 79  2  0  0  0
 73 81  1  0  0  0
 73 84  1  0  0  0
 74 75  1  0  0  0
 74 77  1  0  0  0
 74 82  2  0  0  0
 75 80  1  0  0  0
 75 83  2  0  0  0
 76144  1  0  0  0
 76145  1  0  0  0
 76146  1  0  0  0
 77 78  1  0  0  0
 77147  1  0  0  0
 77148  1  0  0  0
 78149  1  0  0  0
 78150  1  0  0  0
 80151  1  0  0  0
 81152  1  0  0  0
M  ISO  4   1 100  68 101  78 101  81 100
M  END
> <chiral flag>
0

> <version>
0

> <s_m_source_file>
/data/baiqing/PycharmProjects/Reinvent-master-3.2/result/LINK_invent/BTK/process_docking_weight1_custom_product_contain_oxygen_bond_distance_aromatic_linkinvent_7_9_3/rearranged_h_0178.sdf

> <i_m_source_file_index>
14

> <r_mmod_Potential_Energy-OPLS-2005>
-116.76343536377

> <r_mmod_Stretch_Energy-OPLS-2005>
39.5165672302246

> <r_mmod_Bend_Energy-OPLS-2005>
129.074554443359

> <r_mmod_Torsional_Energy-OPLS-2005>
204.365692138672

> <r_mmod_Improper_Torsional_Energy-OPLS-2005>
5.3976263999939

> <r_mmod_Van_der_Waal_Energy-OPLS-2005>
138.119812011719

> <r_mmod_Electrostatic_Energy-OPLS-2005>
-406.936767578125

> <r_mmod_Solvation_Energy-OPLS-2005>
-248.408920288086

> <b_mmod_Minimization_Converged-OPLS-2005>
0

> <r_mmod_RMS_Derivative-OPLS-2005>
4.1563196182251

$$$$
14
                    3D
 Structure written by MMmdl.
157165  0  0  1  0            999 V2000
  -30.7032  -14.4508   20.6045 C   0  0  0  0  0  0
  -30.4262  -12.3053   19.4109 C   0  0  0  0  0  0
  -29.4929  -12.5107   18.2002 C   0  0  0  0  0  0
  -28.0144  -12.3687   18.6147 C   0  0  0  0  0  0
  -27.6631  -13.2016   19.8764 C   0  0  2  0  0  0
  -28.7040  -12.9618   20.9930 C   0  0  0  0  0  0
  -25.2602  -13.8150   20.5665 C   0  0  0  0  0  0
  -24.1849  -13.0436   20.9172 C   0  0  0  0  0  0
  -24.6394  -11.6899   20.8736 C   0  0  0  0  0  0
  -23.9056  -10.4286   21.0405 C   0  0  0  0  0  0
  -24.3612   -9.4203   21.9183 C   0  0  0  0  0  0
  -23.6287   -8.2240   22.0755 C   0  0  0  0  0  0
  -22.4270   -8.0277   21.3544 C   0  0  0  0  0  0
  -21.9901   -9.0250   20.4648 C   0  0  0  0  0  0
  -22.7229  -10.2130   20.3056 C   0  0  0  0  0  0
  -21.6853   -6.0734   22.5279 C   0  0  0  0  0  0
  -21.4009   -6.5641   23.8212 C   0  0  0  0  0  0
  -21.3661   -5.6793   24.9175 C   0  0  0  0  0  0
  -21.6046   -4.3055   24.7224 C   0  0  0  0  0  0
  -21.8822   -3.8147   23.4346 C   0  0  0  0  0  0
  -21.9191   -4.6962   22.3403 C   0  0  0  0  0  0
  -22.7873  -13.5238   21.1834 C   0  0  0  0  0  0
  -22.1662   -4.2150   21.0978 F   0  0  0  0  0  0
  -21.5630   -3.4535   25.7735 F   0  0  0  0  0  0
  -30.0359  -13.2760   20.4448 N   0  0  0  0  0  0
  -26.3031  -12.9309   20.3361 N   0  0  0  0  0  0
  -25.9317  -11.6473   20.5764 N   0  0  0  0  0  0
  -22.0511  -12.8236   22.0394 N   0  0  0  0  0  0
  -25.4336  -15.1866   20.4064 N   0  0  0  0  0  0
  -31.8196  -14.6557   20.1158 O   0  0  0  0  0  0
  -21.6638   -6.8873   21.4238 O   0  0  0  0  0  0
  -22.3563  -14.5550   20.6688 O   0  0  0  0  0  0
  -24.6128  -31.8690   23.2110 C   0  0  0  0  0  0
  -25.9028  -32.4827   23.8407 C   0  0  1  0  0  0
  -27.2390  -27.4460   20.1033 C   0  0  0  0  0  0
  -25.5893  -33.8624   24.2338 N   0  0  0  0  0  0
  -23.4014  -30.4912   21.5497 C   0  0  2  0  0  0
  -24.8512  -28.9517   20.1228 C   0  0  0  0  0  0
  -22.7400  -29.4665   22.4994 C   0  0  0  0  0  0
  -18.0270  -28.1381   22.8498 C   0  0  0  0  0  0
  -24.1487  -36.7317   23.2640 C   0  0  0  0  0  0
  -25.9283  -30.8354   21.3652 C   0  0  0  0  0  0
  -26.0076  -29.4655   20.7247 C   0  0  0  0  0  0
  -27.2051  -28.7164   20.7218 C   0  0  0  0  0  0
  -26.0729  -26.9436   19.4941 C   0  0  0  0  0  0
  -24.8757  -27.6861   19.5095 C   0  0  0  0  0  0
  -23.6124  -29.8181   20.1662 C   0  0  0  0  0  0
  -25.4107  -36.3111   24.0340 C   0  0  1  0  0  0
  -20.5860  -28.3659   23.1328 C   0  0  2  0  0  0
  -20.6762  -26.9399   22.5422 C   0  0  0  0  0  0
  -19.5740  -26.6390   21.5217 C   0  0  0  0  0  0
  -18.1918  -26.7931   22.1628 C   0  0  0  0  0  0
  -19.1519  -28.8839   23.2912 C   0  0  0  0  0  0
  -18.9448  -30.1448   23.8915 C   0  0  0  0  0  0
  -17.6448  -30.6589   24.0566 C   0  0  0  0  0  0
  -25.9029  -34.9478   23.5135 C   0  0  0  0  0  0
  -16.5338  -29.9089   23.6332 C   0  0  0  0  0  0
  -16.7258  -28.6508   23.0347 C   0  0  0  0  0  0
  -26.4465  -31.6598   25.0725 C   0  0  0  0  0  0
  -25.3739  -31.3703   26.1479 C   0  0  0  0  0  0
  -27.0289  -30.3044   24.6087 C   0  0  0  0  0  0
  -27.6053  -32.4310   25.7477 C   0  0  0  0  0  0
  -27.5582  -37.1810   24.8464 C   0  0  0  0  0  0
  -21.4131  -29.3025   22.3731 N   0  0  0  0  0  0
  -26.4293  -37.3794   23.9408 N   0  0  0  0  0  0
  -24.6653  -31.0804   22.1003 N   0  0  0  0  0  0
  -23.4183  -28.8225   23.3041 O   0  0  0  0  0  0
  -28.3961  -26.7116   20.0089 O   0  0  0  0  0  0
  -26.5584  -34.8928   22.4691 O   0  0  0  0  0  0
  -23.5325  -32.1434   23.7511 O   0  0  0  0  0  0
  -31.5790  -17.2946   21.5810 C   0  0  0  0  0  0
  -31.5567  -18.6914   21.8905 C   0  0  0  0  0  0
  -30.3373  -16.7208   21.4413 C   0  0  0  0  0  0
  -30.2855  -19.2109   21.9652 C   0  0  0  0  0  0
  -28.9376  -21.2471   21.9295 C   0  0  0  0  0  0
  -32.8008  -19.4981   22.1222 C   0  0  0  0  0  0
  -28.4715  -24.5898   21.2495 C   0  0  0  0  0  0
  -29.1585  -23.8418   22.4179 C   0  0  0  0  0  0
  -28.8562  -26.0883   21.2069 C   0  0  0  0  0  0
  -28.5842  -22.4584   22.8221 C   0  0  1  0  0  0
  -29.9638  -20.4795   22.3435 N   0  0  0  0  0  0
  -29.9957  -15.4194   21.2195 N   0  0  0  0  0  0
  -28.2889  -21.0130   20.9047 O   0  0  0  0  0  0
  -27.2571  -22.5492   22.9441 F   0  0  0  0  0  0
  -29.1056  -17.9478   21.6488 S   0  0  0  0  0  0
  -31.4691  -12.4137   19.1073 H   0  0  0  0  0  0
  -30.3341  -11.2889   19.7976 H   0  0  0  0  0  0
  -29.7313  -11.7925   17.4146 H   0  0  0  0  0  0
  -29.6607  -13.4998   17.7708 H   0  0  0  0  0  0
  -27.8238  -11.3117   18.8057 H   0  0  0  0  0  0
  -27.3626  -12.6478   17.7862 H   0  0  0  0  0  0
  -27.7136  -14.2520   19.5897 H   0  0  0  0  0  0
  -28.6804  -11.9184   21.3125 H   0  0  0  0  0  0
  -28.4614  -13.5380   21.8871 H   0  0  0  0  0  0
  -25.2761   -9.5681   22.4747 H   0  0  0  0  0  0
  -24.0002   -7.4631   22.7475 H   0  0  0  0  0  0
  -21.0832   -8.8765   19.8951 H   0  0  0  0  0  0
  -22.3689  -10.9666   19.6163 H   0  0  0  0  0  0
  -21.2003   -7.6150   23.9715 H   0  0  0  0  0  0
  -21.1481   -6.0524   25.9079 H   0  0  0  0  0  0
  -22.0600   -2.7610   23.2843 H   0  0  0  0  0  0
  -22.4127  -11.9898   22.4783 H   0  0  0  0  0  0
  -21.1134  -13.1270   22.2601 H   0  0  0  0  0  0
  -24.6646  -15.8408   20.5055 H   0  0  0  0  0  0
  -26.2847  -15.6236   20.0755 H   0  0  0  0  0  0
  -26.7104  -32.5549   23.1180 H   0  0  0  0  0  0
  -25.0051  -33.9794   25.0489 H   0  0  0  0  0  0
  -22.6890  -31.3070   21.4081 H   0  0  0  0  0  0
  -23.3743  -35.9654   23.3306 H   0  0  0  0  0  0
  -24.3590  -36.8922   22.2053 H   0  0  0  0  0  0
  -23.7250  -37.6532   23.6643 H   0  0  0  0  0  0
  -26.0371  -31.5960   20.5909 H   0  0  0  0  0  0
  -26.8185  -30.8953   21.9796 H   0  0  0  0  0  0
  -28.1025  -29.1163   21.1739 H   0  0  0  0  0  0
  -26.0956  -25.9800   19.0048 H   0  0  0  0  0  0
  -23.9876  -27.2854   19.0403 H   0  0  0  0  0  0
  -23.7207  -30.5894   19.4026 H   0  0  0  0  0  0
  -22.7380  -29.2345   19.8723 H   0  0  0  0  0  0
  -25.1287  -36.1971   25.0835 H   0  0  0  0  0  0
  -20.9959  -28.3219   24.1444 H   0  0  0  0  0  0
  -20.5675  -26.2263   23.3606 H   0  0  0  0  0  0
  -21.6634  -26.7451   22.1209 H   0  0  0  0  0  0
  -19.6898  -25.6305   21.1238 H   0  0  0  0  0  0
  -19.6689  -27.3215   20.6758 H   0  0  0  0  0  0
  -17.4199  -26.6686   21.4019 H   0  0  0  0  0  0
  -18.0307  -26.0071   22.9020 H   0  0  0  0  0  0
  -19.7924  -30.7260   24.2288 H   0  0  0  0  0  0
  -17.5003  -31.6270   24.5164 H   0  0  0  0  0  0
  -15.5340  -30.2991   23.7650 H   0  0  0  0  0  0
  -15.8660  -28.0837   22.7036 H   0  0  0  0  0  0
  -24.5908  -30.7050   25.7821 H   0  0  0  0  0  0
  -24.8930  -32.2855   26.4938 H   0  0  0  0  0  0
  -25.8098  -30.8870   27.0231 H   0  0  0  0  0  0
  -26.2822  -29.6810   24.1149 H   0  0  0  0  0  0
  -27.4075  -29.7273   25.4535 H   0  0  0  0  0  0
  -27.8655  -30.4373   23.9222 H   0  0  0  0  0  0
  -27.2689  -33.3609   26.2074 H   0  0  0  0  0  0
  -28.3845  -32.6867   25.0285 H   0  0  0  0  0  0
  -28.0734  -31.8415   26.5371 H   0  0  0  0  0  0
  -28.2604  -38.0102   24.7503 H   0  0  0  0  0  0
  -28.1070  -36.2634   24.6291 H   0  0  0  0  0  0
  -27.2300  -37.1458   25.8867 H   0  0  0  0  0  0
  -20.9280  -29.8738   21.6954 H   0  0  0  0  0  0
  -26.0181  -38.2873   24.1404 H   0  0  0  0  0  0
  -32.5140  -16.7574   21.5023 H   0  0  0  0  0  0
  -33.6993  -18.9384   21.8612 H   0  0  0  0  0  0
  -32.8931  -19.7908   23.1680 H   0  0  0  0  0  0
  -32.8011  -20.4089   21.5226 H   0  0  0  0  0  0
  -27.3873  -24.5107   21.3351 H   0  0  0  0  0  0
  -28.7413  -24.1084   20.3091 H   0  0  0  0  0  0
  -29.0961  -24.4783   23.3014 H   0  0  0  0  0  0
  -30.2251  -23.7448   22.2108 H   0  0  0  0  0  0
  -29.9423  -26.1838   21.2266 H   0  0  0  0  0  0
  -28.4886  -26.6040   22.0963 H   0  0  0  0  0  0
  -28.9366  -22.2290   23.8289 H   0  0  0  0  0  0
  -30.5337  -20.8756   23.0785 H   0  0  0  0  0  0
  -29.0544  -15.1564   21.4705 H   0  0  0  0  0  0
  1 25  1  0  0  0
  1 30  2  0  0  0
  1 82  1  0  0  0
  2  3  1  0  0  0
  2 25  1  0  0  0
  2 86  1  0  0  0
  2 87  1  0  0  0
  3  4  1  0  0  0
  3 88  1  0  0  0
  3 89  1  0  0  0
  4  5  1  0  0  0
  4 90  1  0  0  0
  4 91  1  0  0  0
  5  6  1  0  0  0
  5 26  1  0  0  0
  5 92  1  0  0  0
  6 25  1  0  0  0
  6 93  1  0  0  0
  6 94  1  0  0  0
  7  8  2  0  0  0
  7 26  1  0  0  0
  7 29  1  0  0  0
  8  9  1  0  0  0
  8 22  1  0  0  0
  9 10  1  0  0  0
  9 27  2  0  0  0
 10 11  2  0  0  0
 10 15  1  0  0  0
 11 12  1  0  0  0
 11 95  1  0  0  0
 12 13  2  0  0  0
 12 96  1  0  0  0
 13 14  1  0  0  0
 13 31  1  0  0  0
 14 15  2  0  0  0
 14 97  1  0  0  0
 15 98  1  0  0  0
 16 17  2  0  0  0
 16 21  1  0  0  0
 16 31  1  0  0  0
 17 18  1  0  0  0
 17 99  1  0  0  0
 18 19  2  0  0  0
 18100  1  0  0  0
 19 20  1  0  0  0
 19 24  1  0  0  0
 20 21  2  0  0  0
 20101  1  0  0  0
 21 23  1  0  0  0
 22 28  1  0  0  0
 22 32  2  0  0  0
 26 27  1  0  0  0
 28102  1  0  0  0
 28103  1  0  0  0
 29104  1  0  0  0
 29105  1  0  0  0
 33 34  1  0  0  0
 33 66  1  0  0  0
 33 70  2  0  0  0
 34 36  1  0  0  0
 34 59  1  0  0  0
 34106  1  0  0  0
 35 44  2  0  0  0
 35 45  1  0  0  0
 35 68  1  0  0  0
 36 56  1  0  0  0
 36107  1  0  0  0
 37 39  1  0  0  0
 37 47  1  0  0  0
 37 66  1  0  0  0
 37108  1  0  0  0
 38 43  2  0  0  0
 38 46  1  0  0  0
 38 47  1  0  0  0
 39 64  1  0  0  0
 39 67  2  0  0  0
 40 52  1  0  0  0
 40 53  2  0  0  0
 40 58  1  0  0  0
 41109  1  0  0  0
 41110  1  0  0  0
 41111  1  0  0  0
 41 48  1  0  0  0
 42 43  1  0  0  0
 42 66  1  0  0  0
 42112  1  0  0  0
 42113  1  0  0  0
 43 44  1  0  0  0
 44114  1  0  0  0
 45 46  2  0  0  0
 45115  1  0  0  0
 46116  1  0  0  0
 47117  1  0  0  0
 47118  1  0  0  0
 48 56  1  0  0  0
 48 65  1  0  0  0
 48119  1  0  0  0
 49 50  1  0  0  0
 49 53  1  0  0  0
 49 64  1  0  0  0
 49120  1  0  0  0
 50 51  1  0  0  0
 50121  1  0  0  0
 50122  1  0  0  0
 51 52  1  0  0  0
 51123  1  0  0  0
 51124  1  0  0  0
 52125  1  0  0  0
 52126  1  0  0  0
 53 54  1  0  0  0
 54 55  2  0  0  0
 54127  1  0  0  0
 55 57  1  0  0  0
 55128  1  0  0  0
 56 69  2  0  0  0
 57 58  2  0  0  0
 57129  1  0  0  0
 58130  1  0  0  0
 59 60  1  0  0  0
 59 61  1  0  0  0
 59 62  1  0  0  0
 60131  1  0  0  0
 60132  1  0  0  0
 60133  1  0  0  0
 61134  1  0  0  0
 61135  1  0  0  0
 61136  1  0  0  0
 62137  1  0  0  0
 62138  1  0  0  0
 62139  1  0  0  0
 63 65  1  0  0  0
 63140  1  0  0  0
 63141  1  0  0  0
 63142  1  0  0  0
 64143  1  0  0  0
 65144  1  0  0  0
 68 79  1  0  0  0
 71 72  1  0  0  0
 71 73  2  0  0  0
 71145  1  0  0  0
 72 74  2  0  0  0
 72 76  1  0  0  0
 73 82  1  0  0  0
 73 85  1  0  0  0
 74 81  1  0  0  0
 74 85  1  0  0  0
 75 80  1  0  0  0
 75 81  1  0  0  0
 75 83  2  0  0  0
 76146  1  0  0  0
 76147  1  0  0  0
 76148  1  0  0  0
 77 78  1  0  0  0
 77 79  1  0  0  0
 77149  1  0  0  0
 77150  1  0  0  0
 78 80  1  0  0  0
 78151  1  0  0  0
 78152  1  0  0  0
 79153  1  0  0  0
 79154  1  0  0  0
 80 84  1  0  0  0
 80155  1  0  0  0
 81156  1  0  0  0
 82157  1  0  0  0
M  ISO  4   1 100  68 101  79 101  82 100
M  END
> <chiral flag>
0

> <version>
0

> <s_m_source_file>
/data/baiqing/PycharmProjects/Reinvent-master-3.2/result/LINK_invent/BTK/process_docking_weight1_custom_product_contain_oxygen_bond_distance_aromatic_linkinvent_7_9_3/rearranged_h_0178.sdf

> <i_m_source_file_index>
15

> <r_mmod_Potential_Energy-OPLS-2005>
-72.2803573608398

> <r_mmod_Stretch_Energy-OPLS-2005>
33.9160766601562

> <r_mmod_Bend_Energy-OPLS-2005>
108.458015441895

> <r_mmod_Torsional_Energy-OPLS-2005>
250.620910644531

> <r_mmod_Improper_Torsional_Energy-OPLS-2005>
3.64147043228149

> <r_mmod_Van_der_Waal_Energy-OPLS-2005>
126.550720214844

> <r_mmod_Electrostatic_Energy-OPLS-2005>
-368.558654785156

> <r_mmod_Solvation_Energy-OPLS-2005>
-236.407150268555

> <b_mmod_Minimization_Converged-OPLS-2005>
0

> <r_mmod_RMS_Derivative-OPLS-2005>
0.816669166088104

$$$$
15
                    3D
 Structure written by MMmdl.
155163  0  0  1  0            999 V2000
  -30.6920  -14.5303   20.5515 C   0  0  0  0  0  0
  -30.4444  -12.3446   19.4381 C   0  0  0  0  0  0
  -29.5187  -12.5282   18.2182 C   0  0  0  0  0  0
  -28.0370  -12.3831   18.6245 C   0  0  0  0  0  0
  -27.6696  -13.2166   19.8815 C   0  0  2  0  0  0
  -28.7148  -13.0234   21.0075 C   0  0  0  0  0  0
  -25.2638  -13.8162   20.5725 C   0  0  0  0  0  0
  -24.1892  -13.0429   20.9200 C   0  0  0  0  0  0
  -24.6435  -11.6891   20.8716 C   0  0  0  0  0  0
  -23.9100  -10.4279   21.0395 C   0  0  0  0  0  0
  -24.3615   -9.4201   21.9185 C   0  0  0  0  0  0
  -23.6276   -8.2243   22.0761 C   0  0  0  0  0  0
  -22.4269   -8.0259   21.3554 C   0  0  0  0  0  0
  -21.9921   -9.0262   20.4669 C   0  0  0  0  0  0
  -22.7249  -10.2129   20.3052 C   0  0  0  0  0  0
  -21.6867   -6.0703   22.5278 C   0  0  0  0  0  0
  -21.4020   -6.5619   23.8195 C   0  0  0  0  0  0
  -21.3676   -5.6773   24.9180 C   0  0  0  0  0  0
  -21.6038   -4.3028   24.7238 C   0  0  0  0  0  0
  -21.8820   -3.8119   23.4359 C   0  0  0  0  0  0
  -21.9215   -4.6936   22.3418 C   0  0  0  0  0  0
  -22.7911  -13.5259   21.1839 C   0  0  0  0  0  0
  -22.1678   -4.2114   21.0999 F   0  0  0  0  0  0
  -21.5647   -3.4523   25.7762 F   0  0  0  0  0  0
  -30.0479  -13.3304   20.4614 N   0  0  0  0  0  0
  -26.3100  -12.9342   20.3371 N   0  0  0  0  0  0
  -25.9378  -11.6496   20.5730 N   0  0  0  0  0  0
  -22.0475  -12.8292   22.0352 N   0  0  0  0  0  0
  -25.4319  -15.1904   20.4229 N   0  0  0  0  0  0
  -31.7970  -14.7250   20.0399 O   0  0  0  0  0  0
  -21.6636   -6.8849   21.4221 O   0  0  0  0  0  0
  -22.3626  -14.5573   20.6663 O   0  0  0  0  0  0
  -24.6180  -31.8676   23.2059 C   0  0  0  0  0  0
  -25.9068  -32.4834   23.8362 C   0  0  1  0  0  0
  -27.2222  -27.3957   20.1238 C   0  0  0  0  0  0
  -25.5907  -33.8640   24.2303 N   0  0  0  0  0  0
  -23.4086  -30.4858   21.5487 C   0  0  2  0  0  0
  -24.8548  -28.9455   20.1157 C   0  0  0  0  0  0
  -22.7453  -29.4643   22.5006 C   0  0  0  0  0  0
  -18.0275  -28.1426   22.8487 C   0  0  0  0  0  0
  -24.1488  -36.7310   23.2638 C   0  0  0  0  0  0
  -25.9378  -30.8241   21.3597 C   0  0  0  0  0  0
  -26.0166  -29.4535   20.7131 C   0  0  0  0  0  0
  -27.2086  -28.6869   20.7083 C   0  0  0  0  0  0
  -26.0497  -26.9093   19.5138 C   0  0  0  0  0  0
  -24.8696  -27.6779   19.5070 C   0  0  0  0  0  0
  -23.6177  -29.8138   20.1650 C   0  0  0  0  0  0
  -25.4119  -36.3128   24.0337 C   0  0  1  0  0  0
  -20.5868  -28.3697   23.1332 C   0  0  2  0  0  0
  -20.6775  -26.9435   22.5432 C   0  0  0  0  0  0
  -19.5740  -26.6412   21.5240 C   0  0  0  0  0  0
  -18.1915  -26.7962   22.1634 C   0  0  0  0  0  0
  -19.1526  -28.8876   23.2895 C   0  0  0  0  0  0
  -18.9444  -30.1474   23.8909 C   0  0  0  0  0  0
  -17.6449  -30.6621   24.0568 C   0  0  0  0  0  0
  -25.9042  -34.9500   23.5117 C   0  0  0  0  0  0
  -16.5338  -29.9117   23.6351 C   0  0  0  0  0  0
  -16.7261  -28.6546   23.0350 C   0  0  0  0  0  0
  -26.4460  -31.6629   25.0722 C   0  0  0  0  0  0
  -25.3703  -31.3750   26.1449 C   0  0  0  0  0  0
  -27.0278  -30.3068   24.6099 C   0  0  0  0  0  0
  -27.6050  -32.4335   25.7473 C   0  0  0  0  0  0
  -27.5599  -37.1802   24.8470 C   0  0  0  0  0  0
  -21.4176  -29.3052   22.3754 N   0  0  0  0  0  0
  -26.4300  -37.3818   23.9415 N   0  0  0  0  0  0
  -24.6733  -31.0737   22.0980 N   0  0  0  0  0  0
  -23.4219  -28.8233   23.3085 O   0  0  0  0  0  0
  -28.3592  -26.6115   20.1397 O   0  0  0  0  0  0
  -26.5604  -34.8956   22.4674 O   0  0  0  0  0  0
  -23.5356  -32.1449   23.7428 O   0  0  0  0  0  0
  -28.6274  -18.4542   18.9940 C   0  0  0  0  0  0
  -29.1014  -18.9694   20.1937 C   0  0  0  0  0  0
  -29.6497  -16.7399   20.4700 C   0  0  0  0  0  0
  -28.8016  -22.7782   20.8523 C   0  0  0  0  0  0
  -28.2955  -21.4001   20.2911 C   0  0  0  0  0  0
  -26.4032  -18.8564   17.8766 C   0  0  0  0  0  0
  -27.9244  -19.0839   17.8315 C   0  0  0  0  0  0
  -28.4707  -24.0710   20.0487 C   0  0  0  0  0  0
  -28.2614  -25.3711   20.8926 C   0  0  0  0  0  0
  -29.6635  -17.9690   21.0289 N   0  0  0  0  0  0
  -29.1231  -20.3594   20.5800 N   0  0  0  0  0  0
  -30.0195  -15.5382   21.1519 N   0  0  0  0  0  0
  -29.4677  -22.8305   21.8928 O   0  0  0  0  0  0
  -27.2144  -21.3219   19.7017 O   0  0  0  0  0  0
  -28.9533  -16.7374   18.8599 S   0  0  0  0  0  0
  -31.4857  -12.4590   19.1306 H   0  0  0  0  0  0
  -30.3633  -11.3306   19.8347 H   0  0  0  0  0  0
  -29.7693  -11.7990   17.4460 H   0  0  0  0  0  0
  -29.6892  -13.5105   17.7730 H   0  0  0  0  0  0
  -27.8506  -11.3242   18.8133 H   0  0  0  0  0  0
  -27.3941  -12.6665   17.7912 H   0  0  0  0  0  0
  -27.6991  -14.2619   19.5790 H   0  0  0  0  0  0
  -28.7076  -11.9947   21.3714 H   0  0  0  0  0  0
  -28.4685  -13.6414   21.8729 H   0  0  0  0  0  0
  -25.2753   -9.5701   22.4758 H   0  0  0  0  0  0
  -23.9982   -7.4660   22.7511 H   0  0  0  0  0  0
  -21.0841   -8.8822   19.9008 H   0  0  0  0  0  0
  -22.3721  -10.9670   19.6167 H   0  0  0  0  0  0
  -21.1950   -7.6107   23.9697 H   0  0  0  0  0  0
  -21.1530   -6.0495   25.9085 H   0  0  0  0  0  0
  -22.0584   -2.7572   23.2872 H   0  0  0  0  0  0
  -22.3991  -11.9952   22.4826 H   0  0  0  0  0  0
  -21.1112  -13.1442   22.2449 H   0  0  0  0  0  0
  -24.6605  -15.8346   20.5515 H   0  0  0  0  0  0
  -26.2763  -15.6479   20.1046 H   0  0  0  0  0  0
  -26.7152  -32.5545   23.1141 H   0  0  0  0  0  0
  -25.0090  -33.9804   25.0454 H   0  0  0  0  0  0
  -22.6969  -31.3026   21.4078 H   0  0  0  0  0  0
  -23.3792  -35.9598   23.3301 H   0  0  0  0  0  0
  -24.3560  -36.8933   22.2053 H   0  0  0  0  0  0
  -23.7203  -37.6496   23.6636 H   0  0  0  0  0  0
  -26.0426  -31.5841   20.5838 H   0  0  0  0  0  0
  -26.8276  -30.8887   21.9739 H   0  0  0  0  0  0
  -28.1047  -29.0715   21.1755 H   0  0  0  0  0  0
  -26.0466  -25.9301   19.0516 H   0  0  0  0  0  0
  -23.9767  -27.2852   19.0409 H   0  0  0  0  0  0
  -23.7260  -30.5839   19.4005 H   0  0  0  0  0  0
  -22.7429  -29.2291   19.8747 H   0  0  0  0  0  0
  -25.1293  -36.1994   25.0824 H   0  0  0  0  0  0
  -20.9922  -28.3276   24.1465 H   0  0  0  0  0  0
  -20.5748  -26.2302   23.3625 H   0  0  0  0  0  0
  -21.6634  -26.7537   22.1182 H   0  0  0  0  0  0
  -19.6910  -25.6324   21.1278 H   0  0  0  0  0  0
  -19.6696  -27.3228   20.6774 H   0  0  0  0  0  0
  -17.4207  -26.6737   21.4017 H   0  0  0  0  0  0
  -18.0286  -26.0113   22.9031 H   0  0  0  0  0  0
  -19.7913  -30.7272   24.2315 H   0  0  0  0  0  0
  -17.5014  -31.6299   24.5160 H   0  0  0  0  0  0
  -15.5347  -30.3016   23.7676 H   0  0  0  0  0  0
  -15.8665  -28.0873   22.7053 H   0  0  0  0  0  0
  -24.5846  -30.7149   25.7755 H   0  0  0  0  0  0
  -24.8921  -32.2922   26.4902 H   0  0  0  0  0  0
  -25.8016  -30.8883   27.0212 H   0  0  0  0  0  0
  -26.2820  -29.6862   24.1135 H   0  0  0  0  0  0
  -27.4028  -29.7268   25.4545 H   0  0  0  0  0  0
  -27.8660  -30.4374   23.9256 H   0  0  0  0  0  0
  -27.2695  -33.3646   26.2036 H   0  0  0  0  0  0
  -28.3850  -32.6889   25.0296 H   0  0  0  0  0  0
  -28.0733  -31.8487   26.5392 H   0  0  0  0  0  0
  -28.2610  -38.0109   24.7553 H   0  0  0  0  0  0
  -28.1088  -36.2647   24.6235 H   0  0  0  0  0  0
  -27.2306  -37.1410   25.8865 H   0  0  0  0  0  0
  -20.9395  -29.8716   21.6895 H   0  0  0  0  0  0
  -26.0217  -38.2890   24.1426 H   0  0  0  0  0  0
  -25.9255  -19.2310   16.9729 H   0  0  0  0  0  0
  -25.9371  -19.3511   18.7288 H   0  0  0  0  0  0
  -26.1580  -17.7987   17.9615 H   0  0  0  0  0  0
  -28.3124  -18.6423   16.9122 H   0  0  0  0  0  0
  -28.1607  -20.1439   17.7456 H   0  0  0  0  0  0
  -27.6031  -23.8932   19.4139 H   0  0  0  0  0  0
  -29.3138  -24.2368   19.3812 H   0  0  0  0  0  0
  -29.0286  -25.4308   21.6658 H   0  0  0  0  0  0
  -27.3123  -25.3056   21.4332 H   0  0  0  0  0  0
  -29.8710  -20.6233   21.2093 H   0  0  0  0  0  0
  -29.3120  -15.2197   21.7937 H   0  0  0  0  0  0
  1 25  1  0  0  0
  1 30  2  0  0  0
  1 82  1  0  0  0
  2  3  1  0  0  0
  2 25  1  0  0  0
  2 86  1  0  0  0
  2 87  1  0  0  0
  3  4  1  0  0  0
  3 88  1  0  0  0
  3 89  1  0  0  0
  4  5  1  0  0  0
  4 90  1  0  0  0
  4 91  1  0  0  0
  5  6  1  0  0  0
  5 26  1  0  0  0
  5 92  1  0  0  0
  6 25  1  0  0  0
  6 93  1  0  0  0
  6 94  1  0  0  0
  7  8  2  0  0  0
  7 26  1  0  0  0
  7 29  1  0  0  0
  8  9  1  0  0  0
  8 22  1  0  0  0
  9 10  1  0  0  0
  9 27  2  0  0  0
 10 11  2  0  0  0
 10 15  1  0  0  0
 11 12  1  0  0  0
 11 95  1  0  0  0
 12 13  2  0  0  0
 12 96  1  0  0  0
 13 14  1  0  0  0
 13 31  1  0  0  0
 14 15  2  0  0  0
 14 97  1  0  0  0
 15 98  1  0  0  0
 16 17  2  0  0  0
 16 21  1  0  0  0
 16 31  1  0  0  0
 17 18  1  0  0  0
 17 99  1  0  0  0
 18 19  2  0  0  0
 18100  1  0  0  0
 19 20  1  0  0  0
 19 24  1  0  0  0
 20 21  2  0  0  0
 20101  1  0  0  0
 21 23  1  0  0  0
 22 28  1  0  0  0
 22 32  2  0  0  0
 26 27  1  0  0  0
 28102  1  0  0  0
 28103  1  0  0  0
 29104  1  0  0  0
 29105  1  0  0  0
 33 34  1  0  0  0
 33 66  1  0  0  0
 33 70  2  0  0  0
 34 36  1  0  0  0
 34 59  1  0  0  0
 34106  1  0  0  0
 35 44  2  0  0  0
 35 45  1  0  0  0
 35 68  1  0  0  0
 36 56  1  0  0  0
 36107  1  0  0  0
 37 39  1  0  0  0
 37 47  1  0  0  0
 37 66  1  0  0  0
 37108  1  0  0  0
 38 43  2  0  0  0
 38 46  1  0  0  0
 38 47  1  0  0  0
 39 64  1  0  0  0
 39 67  2  0  0  0
 40 52  1  0  0  0
 40 53  2  0  0  0
 40 58  1  0  0  0
 41109  1  0  0  0
 41110  1  0  0  0
 41111  1  0  0  0
 41 48  1  0  0  0
 42 43  1  0  0  0
 42 66  1  0  0  0
 42112  1  0  0  0
 42113  1  0  0  0
 43 44  1  0  0  0
 44114  1  0  0  0
 45 46  2  0  0  0
 45115  1  0  0  0
 46116  1  0  0  0
 47117  1  0  0  0
 47118  1  0  0  0
 48 56  1  0  0  0
 48 65  1  0  0  0
 48119  1  0  0  0
 49 50  1  0  0  0
 49 53  1  0  0  0
 49 64  1  0  0  0
 49120  1  0  0  0
 50 51  1  0  0  0
 50121  1  0  0  0
 50122  1  0  0  0
 51 52  1  0  0  0
 51123  1  0  0  0
 51124  1  0  0  0
 52125  1  0  0  0
 52126  1  0  0  0
 53 54  1  0  0  0
 54 55  2  0  0  0
 54127  1  0  0  0
 55 57  1  0  0  0
 55128  1  0  0  0
 56 69  2  0  0  0
 57 58  2  0  0  0
 57129  1  0  0  0
 58130  1  0  0  0
 59 60  1  0  0  0
 59 61  1  0  0  0
 59 62  1  0  0  0
 60131  1  0  0  0
 60132  1  0  0  0
 60133  1  0  0  0
 61134  1  0  0  0
 61135  1  0  0  0
 61136  1  0  0  0
 62137  1  0  0  0
 62138  1  0  0  0
 62139  1  0  0  0
 63 65  1  0  0  0
 63140  1  0  0  0
 63141  1  0  0  0
 63142  1  0  0  0
 64143  1  0  0  0
 65144  1  0  0  0
 68 79  1  0  0  0
 71 72  2  0  0  0
 71 77  1  0  0  0
 71 85  1  0  0  0
 72 80  1  0  0  0
 72 81  1  0  0  0
 73 80  2  0  0  0
 73 82  1  0  0  0
 73 85  1  0  0  0
 74 75  1  0  0  0
 74 78  1  0  0  0
 74 83  2  0  0  0
 75 81  1  0  0  0
 75 84  2  0  0  0
 76 77  1  0  0  0
 76145  1  0  0  0
 76146  1  0  0  0
 76147  1  0  0  0
 77148  1  0  0  0
 77149  1  0  0  0
 78 79  1  0  0  0
 78150  1  0  0  0
 78151  1  0  0  0
 79152  1  0  0  0
 79153  1  0  0  0
 81154  1  0  0  0
 82155  1  0  0  0
M  ISO  4   1 100  68 101  79 101  82 100
M  END
> <chiral flag>
0

> <version>
0

> <s_m_source_file>
/data/baiqing/PycharmProjects/Reinvent-master-3.2/result/LINK_invent/BTK/process_docking_weight1_custom_product_contain_oxygen_bond_distance_aromatic_linkinvent_7_9_3/rearranged_h_0178.sdf

> <i_m_source_file_index>
16

> <r_mmod_Potential_Energy-OPLS-2005>
-114.397193908691

> <r_mmod_Stretch_Energy-OPLS-2005>
48.0131721496582

> <r_mmod_Bend_Energy-OPLS-2005>
118.404357910156

> <r_mmod_Torsional_Energy-OPLS-2005>
268.749298095703

> <r_mmod_Improper_Torsional_Energy-OPLS-2005>
6.71983814239502

> <r_mmod_Van_der_Waal_Energy-OPLS-2005>
116.352394104004

> <r_mmod_Electrostatic_Energy-OPLS-2005>
-463.842803955078

> <r_mmod_Solvation_Energy-OPLS-2005>
-229.714828491211

> <b_mmod_Minimization_Converged-OPLS-2005>
0

> <r_mmod_RMS_Derivative-OPLS-2005>
4.65878677368164

$$$$
16
                    3D
 Structure written by MMmdl.
157165  0  0  1  0            999 V2000
  -30.7236  -14.4019   20.6421 C   0  0  0  0  0  0
  -30.4178  -12.2896   19.3988 C   0  0  0  0  0  0
  -29.4838  -12.5250   18.1936 C   0  0  0  0  0  0
  -28.0071  -12.3799   18.6114 C   0  0  0  0  0  0
  -27.6649  -13.1980   19.8833 C   0  0  2  0  0  0
  -28.7043  -12.9293   20.9940 C   0  0  0  0  0  0
  -25.2597  -13.8152   20.5680 C   0  0  0  0  0  0
  -24.1840  -13.0421   20.9148 C   0  0  0  0  0  0
  -24.6375  -11.6899   20.8717 C   0  0  0  0  0  0
  -23.9043  -10.4281   21.0392 C   0  0  0  0  0  0
  -24.3606   -9.4204   21.9174 C   0  0  0  0  0  0
  -23.6288   -8.2231   22.0754 C   0  0  0  0  0  0
  -22.4264   -8.0261   21.3547 C   0  0  0  0  0  0
  -21.9889   -9.0218   20.4651 C   0  0  0  0  0  0
  -22.7210  -10.2103   20.3038 C   0  0  0  0  0  0
  -21.6839   -6.0726   22.5281 C   0  0  0  0  0  0
  -21.3998   -6.5634   23.8215 C   0  0  0  0  0  0
  -21.3668   -5.6787   24.9182 C   0  0  0  0  0  0
  -21.6058   -4.3053   24.7233 C   0  0  0  0  0  0
  -21.8815   -3.8148   23.4348 C   0  0  0  0  0  0
  -21.9186   -4.6965   22.3405 C   0  0  0  0  0  0
  -22.7871  -13.5231   21.1836 C   0  0  0  0  0  0
  -22.1653   -4.2154   21.0989 F   0  0  0  0  0  0
  -21.5652   -3.4525   25.7738 F   0  0  0  0  0  0
  -30.0462  -13.2364   20.4605 N   0  0  0  0  0  0
  -26.3033  -12.9306   20.3398 N   0  0  0  0  0  0
  -25.9302  -11.6480   20.5780 N   0  0  0  0  0  0
  -22.0509  -12.8218   22.0396 N   0  0  0  0  0  0
  -25.4297  -15.1868   20.4120 N   0  0  0  0  0  0
  -31.7715  -14.6710   20.0430 O   0  0  0  0  0  0
  -21.6645   -6.8845   21.4238 O   0  0  0  0  0  0
  -22.3563  -14.5543   20.6722 O   0  0  0  0  0  0
  -24.6159  -31.8673   23.2084 C   0  0  0  0  0  0
  -25.9054  -32.4810   23.8384 C   0  0  1  0  0  0
  -27.2251  -27.4184   20.1038 C   0  0  0  0  0  0
  -25.5914  -33.8617   24.2318 N   0  0  0  0  0  0
  -23.4034  -30.4900   21.5511 C   0  0  2  0  0  0
  -24.8484  -28.9561   20.1112 C   0  0  0  0  0  0
  -22.7417  -29.4650   22.5000 C   0  0  0  0  0  0
  -18.0270  -28.1364   22.8491 C   0  0  0  0  0  0
  -24.1481  -36.7304   23.2628 C   0  0  0  0  0  0
  -25.9337  -30.8284   21.3622 C   0  0  0  0  0  0
  -26.0101  -29.4631   20.7068 C   0  0  0  0  0  0
  -27.2051  -28.7049   20.6933 C   0  0  0  0  0  0
  -26.0485  -26.9304   19.4955 C   0  0  0  0  0  0
  -24.8637  -27.6911   19.4989 C   0  0  0  0  0  0
  -23.6092  -29.8220   20.1645 C   0  0  0  0  0  0
  -25.4104  -36.3111   24.0335 C   0  0  1  0  0  0
  -20.5867  -28.3647   23.1327 C   0  0  2  0  0  0
  -20.6773  -26.9386   22.5421 C   0  0  0  0  0  0
  -19.5750  -26.6375   21.5224 C   0  0  0  0  0  0
  -18.1919  -26.7909   22.1623 C   0  0  0  0  0  0
  -19.1516  -28.8825   23.2903 C   0  0  0  0  0  0
  -18.9446  -30.1435   23.8904 C   0  0  0  0  0  0
  -17.6450  -30.6580   24.0550 C   0  0  0  0  0  0
  -25.9048  -34.9477   23.5129 C   0  0  0  0  0  0
  -16.5342  -29.9076   23.6324 C   0  0  0  0  0  0
  -16.7258  -28.6491   23.0346 C   0  0  0  0  0  0
  -26.4481  -31.6583   25.0714 C   0  0  0  0  0  0
  -25.3759  -31.3708   26.1479 C   0  0  0  0  0  0
  -27.0283  -30.3010   24.6091 C   0  0  0  0  0  0
  -27.6082  -32.4280   25.7458 C   0  0  0  0  0  0
  -27.5595  -37.1782   24.8443 C   0  0  0  0  0  0
  -21.4145  -29.3015   22.3740 N   0  0  0  0  0  0
  -26.4275  -37.3813   23.9439 N   0  0  0  0  0  0
  -24.6694  -31.0769   22.0984 N   0  0  0  0  0  0
  -23.4190  -28.8195   23.3042 O   0  0  0  0  0  0
  -28.3715  -26.6518   20.1125 O   0  0  0  0  0  0
  -26.5615  -34.8938   22.4691 O   0  0  0  0  0  0
  -23.5355  -32.1435   23.7484 O   0  0  0  0  0  0
  -30.9265  -18.7754   21.2610 C   0  0  0  0  0  0
  -31.0219  -18.8176   22.6405 C   0  0  0  0  0  0
  -30.4912  -16.5863   21.7738 C   0  0  0  0  0  0
  -28.6822  -24.1905   19.8234 C   0  0  0  0  0  0
  -29.7871  -22.0004   20.6463 C   0  0  0  0  0  0
  -28.4701  -22.7464   20.3419 C   0  0  0  0  0  0
  -28.2283  -25.3544   20.7352 C   0  0  0  0  0  0
  -31.1549  -19.9219   20.2838 C   0  0  1  0  0  0
  -31.7013  -19.4474   18.9208 C   0  0  0  0  0  0
  -30.5722  -17.4963   20.7924 N   0  0  0  0  0  0
  -31.3298  -19.8926   23.4700 N   0  0  0  0  0  0
  -30.1828  -15.2246   21.5521 N   0  0  0  0  0  0
  -29.9768  -20.7853   20.0944 N   0  0  0  0  0  0
  -29.1490  -24.4013   18.6981 O   0  0  0  0  0  0
  -30.6069  -22.4973   21.4216 O   0  0  0  0  0  0
  -32.2292  -20.4706   18.2501 F   0  0  0  0  0  0
  -30.7490  -18.8877   18.1705 F   0  0  0  0  0  0
  -30.6950  -17.2667   23.3756 S   0  0  0  0  0  0
  -31.4614  -12.3876   19.0977 H   0  0  0  0  0  0
  -30.3162  -11.2659   19.7621 H   0  0  0  0  0  0
  -29.7143  -11.8237   17.3900 H   0  0  0  0  0  0
  -29.6485  -13.5237   17.7855 H   0  0  0  0  0  0
  -27.8143  -11.3231   18.7921 H   0  0  0  0  0  0
  -27.3468  -12.6682   17.7932 H   0  0  0  0  0  0
  -27.7236  -14.2526   19.6177 H   0  0  0  0  0  0
  -28.6698  -11.8784   21.2880 H   0  0  0  0  0  0
  -28.4506  -13.4829   21.8982 H   0  0  0  0  0  0
  -25.2761   -9.5681   22.4722 H   0  0  0  0  0  0
  -24.0013   -7.4613   22.7465 H   0  0  0  0  0  0
  -21.0815   -8.8700   19.8946 H   0  0  0  0  0  0
  -22.3669  -10.9610   19.6115 H   0  0  0  0  0  0
  -21.1972   -7.6136   23.9721 H   0  0  0  0  0  0
  -21.1503   -6.0521   25.9084 H   0  0  0  0  0  0
  -22.0596   -2.7611   23.2849 H   0  0  0  0  0  0
  -22.4144  -11.9881   22.4763 H   0  0  0  0  0  0
  -21.1124  -13.1241   22.2605 H   0  0  0  0  0  0
  -24.6575  -15.8358   20.5176 H   0  0  0  0  0  0
  -26.2895  -15.6341   20.1195 H   0  0  0  0  0  0
  -26.7124  -32.5512   23.1144 H   0  0  0  0  0  0
  -25.0062  -33.9769   25.0466 H   0  0  0  0  0  0
  -22.6921  -31.3069   21.4137 H   0  0  0  0  0  0
  -23.3778  -35.9594   23.3233 H   0  0  0  0  0  0
  -24.3604  -36.8985   22.2058 H   0  0  0  0  0  0
  -23.7173  -37.6467   23.6684 H   0  0  0  0  0  0
  -26.0545  -31.5972   20.5970 H   0  0  0  0  0  0
  -26.8187  -30.8753   21.9848 H   0  0  0  0  0  0
  -28.1038  -29.0923   21.1526 H   0  0  0  0  0  0
  -26.0437  -25.9613   19.0157 H   0  0  0  0  0  0
  -23.9711  -27.2988   19.0303 H   0  0  0  0  0  0
  -23.7091  -30.5963   19.4024 H   0  0  0  0  0  0
  -22.7320  -29.2380   19.8770 H   0  0  0  0  0  0
  -25.1268  -36.1964   25.0824 H   0  0  0  0  0  0
  -20.9944  -28.3200   24.1454 H   0  0  0  0  0  0
  -20.5690  -26.2245   23.3594 H   0  0  0  0  0  0
  -21.6633  -26.7450   22.1194 H   0  0  0  0  0  0
  -19.6909  -25.6291   21.1232 H   0  0  0  0  0  0
  -19.6696  -27.3200   20.6758 H   0  0  0  0  0  0
  -17.4199  -26.6656   21.4018 H   0  0  0  0  0  0
  -18.0316  -26.0051   22.9012 H   0  0  0  0  0  0
  -19.7922  -30.7244   24.2273 H   0  0  0  0  0  0
  -17.5007  -31.6263   24.5130 H   0  0  0  0  0  0
  -15.5340  -30.2980   23.7655 H   0  0  0  0  0  0
  -15.8652  -28.0818   22.7062 H   0  0  0  0  0  0
  -24.5847  -30.7164   25.7799 H   0  0  0  0  0  0
  -24.9066  -32.2885   26.5042 H   0  0  0  0  0  0
  -25.8102  -30.8749   27.0167 H   0  0  0  0  0  0
  -26.2801  -29.6769   24.1185 H   0  0  0  0  0  0
  -27.4078  -29.7257   25.4545 H   0  0  0  0  0  0
  -27.8643  -30.4304   23.9213 H   0  0  0  0  0  0
  -27.2740  -33.3599   26.2033 H   0  0  0  0  0  0
  -28.3898  -32.6791   25.0273 H   0  0  0  0  0  0
  -28.0733  -31.8386   26.5371 H   0  0  0  0  0  0
  -28.2538  -38.0156   24.7644 H   0  0  0  0  0  0
  -28.1174  -36.2713   24.6074 H   0  0  0  0  0  0
  -27.2349  -37.1179   25.8844 H   0  0  0  0  0  0
  -20.9303  -29.8732   21.6962 H   0  0  0  0  0  0
  -26.0162  -38.2868   24.1543 H   0  0  0  0  0  0
  -27.8662  -22.1921   19.6233 H   0  0  0  0  0  0
  -27.8888  -22.7801   21.2634 H   0  0  0  0  0  0
  -28.8326  -25.3365   21.6423 H   0  0  0  0  0  0
  -27.1992  -25.1720   21.0491 H   0  0  0  0  0  0
  -31.9582  -20.5268   20.7090 H   0  0  0  0  0  0
  -32.4970  -18.7124   19.0574 H   0  0  0  0  0  0
  -31.3680  -20.8544   23.1428 H   0  0  0  0  0  0
  -31.2979  -19.8336   24.4843 H   0  0  0  0  0  0
  -29.4737  -14.8208   22.1431 H   0  0  0  0  0  0
  -29.2777  -20.4218   19.4640 H   0  0  0  0  0  0
  1 25  1  0  0  0
  1 30  2  0  0  0
  1 82  1  0  0  0
  2  3  1  0  0  0
  2 25  1  0  0  0
  2 89  1  0  0  0
  2 90  1  0  0  0
  3  4  1  0  0  0
  3 91  1  0  0  0
  3 92  1  0  0  0
  4  5  1  0  0  0
  4 93  1  0  0  0
  4 94  1  0  0  0
  5  6  1  0  0  0
  5 26  1  0  0  0
  5 95  1  0  0  0
  6 25  1  0  0  0
  6 96  1  0  0  0
  6 97  1  0  0  0
  7  8  2  0  0  0
  7 26  1  0  0  0
  7 29  1  0  0  0
  8  9  1  0  0  0
  8 22  1  0  0  0
  9 10  1  0  0  0
  9 27  2  0  0  0
 10 11  2  0  0  0
 10 15  1  0  0  0
 11 12  1  0  0  0
 11 98  1  0  0  0
 12 13  2  0  0  0
 12 99  1  0  0  0
 13 14  1  0  0  0
 13 31  1  0  0  0
 14 15  2  0  0  0
 14100  1  0  0  0
 15101  1  0  0  0
 16 17  2  0  0  0
 16 21  1  0  0  0
 16 31  1  0  0  0
 17 18  1  0  0  0
 17102  1  0  0  0
 18 19  2  0  0  0
 18103  1  0  0  0
 19 20  1  0  0  0
 19 24  1  0  0  0
 20 21  2  0  0  0
 20104  1  0  0  0
 21 23  1  0  0  0
 22 28  1  0  0  0
 22 32  2  0  0  0
 26 27  1  0  0  0
 28105  1  0  0  0
 28106  1  0  0  0
 29107  1  0  0  0
 29108  1  0  0  0
 33 34  1  0  0  0
 33 66  1  0  0  0
 33 70  2  0  0  0
 34 36  1  0  0  0
 34 59  1  0  0  0
 34109  1  0  0  0
 35 44  2  0  0  0
 35 45  1  0  0  0
 35 68  1  0  0  0
 36 56  1  0  0  0
 36110  1  0  0  0
 37 39  1  0  0  0
 37 47  1  0  0  0
 37 66  1  0  0  0
 37111  1  0  0  0
 38 43  2  0  0  0
 38 46  1  0  0  0
 38 47  1  0  0  0
 39 64  1  0  0  0
 39 67  2  0  0  0
 40 52  1  0  0  0
 40 53  2  0  0  0
 40 58  1  0  0  0
 41112  1  0  0  0
 41113  1  0  0  0
 41114  1  0  0  0
 41 48  1  0  0  0
 42 43  1  0  0  0
 42 66  1  0  0  0
 42115  1  0  0  0
 42116  1  0  0  0
 43 44  1  0  0  0
 44117  1  0  0  0
 45 46  2  0  0  0
 45118  1  0  0  0
 46119  1  0  0  0
 47120  1  0  0  0
 47121  1  0  0  0
 48 56  1  0  0  0
 48 65  1  0  0  0
 48122  1  0  0  0
 49 50  1  0  0  0
 49 53  1  0  0  0
 49 64  1  0  0  0
 49123  1  0  0  0
 50 51  1  0  0  0
 50124  1  0  0  0
 50125  1  0  0  0
 51 52  1  0  0  0
 51126  1  0  0  0
 51127  1  0  0  0
 52128  1  0  0  0
 52129  1  0  0  0
 53 54  1  0  0  0
 54 55  2  0  0  0
 54130  1  0  0  0
 55 57  1  0  0  0
 55131  1  0  0  0
 56 69  2  0  0  0
 57 58  2  0  0  0
 57132  1  0  0  0
 58133  1  0  0  0
 59 60  1  0  0  0
 59 61  1  0  0  0
 59 62  1  0  0  0
 60134  1  0  0  0
 60135  1  0  0  0
 60136  1  0  0  0
 61137  1  0  0  0
 61138  1  0  0  0
 61139  1  0  0  0
 62140  1  0  0  0
 62141  1  0  0  0
 62142  1  0  0  0
 63 65  1  0  0  0
 63143  1  0  0  0
 63144  1  0  0  0
 63145  1  0  0  0
 64146  1  0  0  0
 65147  1  0  0  0
 68 77  1  0  0  0
 71 72  2  0  0  0
 71 78  1  0  0  0
 71 80  1  0  0  0
 72 81  1  0  0  0
 72 88  1  0  0  0
 73 80  2  0  0  0
 73 82  1  0  0  0
 73 88  1  0  0  0
 74 76  1  0  0  0
 74 77  1  0  0  0
 74 84  2  0  0  0
 75 76  1  0  0  0
 75 83  1  0  0  0
 75 85  2  0  0  0
 76148  1  0  0  0
 76149  1  0  0  0
 77150  1  0  0  0
 77151  1  0  0  0
 78 79  1  0  0  0
 78 83  1  0  0  0
 78152  1  0  0  0
 79 86  1  0  0  0
 79 87  1  0  0  0
 79153  1  0  0  0
 81154  1  0  0  0
 81155  1  0  0  0
 82156  1  0  0  0
 83157  1  0  0  0
M  ISO  4   1 100  68 101  77 101  82 100
M  END
> <chiral flag>
0

> <version>
0

> <s_m_source_file>
/data/baiqing/PycharmProjects/Reinvent-master-3.2/result/LINK_invent/BTK/process_docking_weight1_custom_product_contain_oxygen_bond_distance_aromatic_linkinvent_7_9_3/rearranged_h_0178.sdf

> <i_m_source_file_index>
17

> <r_mmod_Potential_Energy-OPLS-2005>
-136.880432128906

> <r_mmod_Stretch_Energy-OPLS-2005>
38.305347442627

> <r_mmod_Bend_Energy-OPLS-2005>
100.867210388184

> <r_mmod_Torsional_Energy-OPLS-2005>
246.30387878418

> <r_mmod_Improper_Torsional_Energy-OPLS-2005>
3.23223066329956

> <r_mmod_Van_der_Waal_Energy-OPLS-2005>
125.634536743164

> <r_mmod_Electrostatic_Energy-OPLS-2005>
-400.348236083984

> <r_mmod_Solvation_Energy-OPLS-2005>
-261.211273193359

> <b_mmod_Minimization_Converged-OPLS-2005>
0

> <r_mmod_RMS_Derivative-OPLS-2005>
3.09072971343994

$$$$
17
                    3D
 Structure written by MMmdl.
154162  0  0  1  0            999 V2000
  -30.7302  -14.5330   20.5133 C   0  0  0  0  0  0
  -30.4207  -12.3426   19.4270 C   0  0  0  0  0  0
  -29.5043  -12.5162   18.2022 C   0  0  0  0  0  0
  -28.0281  -12.3600   18.6126 C   0  0  0  0  0  0
  -27.6551  -13.2225   19.8514 C   0  0  2  0  0  0
  -28.7010  -13.0868   20.9809 C   0  0  0  0  0  0
  -25.2549  -13.8177   20.5608 C   0  0  0  0  0  0
  -24.1837  -13.0439   20.9158 C   0  0  0  0  0  0
  -24.6424  -11.6918   20.8659 C   0  0  0  0  0  0
  -23.9048  -10.4321   21.0383 C   0  0  0  0  0  0
  -24.3589   -9.4229   21.9164 C   0  0  0  0  0  0
  -23.6312   -8.2225   22.0722 C   0  0  0  0  0  0
  -22.4278   -8.0271   21.3514 C   0  0  0  0  0  0
  -21.9893   -9.0245   20.4602 C   0  0  0  0  0  0
  -22.7221  -10.2136   20.3025 C   0  0  0  0  0  0
  -21.6835   -6.0745   22.5306 C   0  0  0  0  0  0
  -21.4055   -6.5638   23.8236 C   0  0  0  0  0  0
  -21.3626   -5.6764   24.9182 C   0  0  0  0  0  0
  -21.6042   -4.3052   24.7211 C   0  0  0  0  0  0
  -21.8849   -3.8137   23.4333 C   0  0  0  0  0  0
  -21.9172   -4.6961   22.3415 C   0  0  0  0  0  0
  -22.7858  -13.5254   21.1838 C   0  0  0  0  0  0
  -22.1664   -4.2156   21.0979 F   0  0  0  0  0  0
  -21.5606   -3.4521   25.7730 F   0  0  0  0  0  0
  -30.0309  -13.3663   20.4176 N   0  0  0  0  0  0
  -26.3010  -12.9382   20.3234 N   0  0  0  0  0  0
  -25.9345  -11.6523   20.5670 N   0  0  0  0  0  0
  -22.0449  -12.8278   22.0376 N   0  0  0  0  0  0
  -25.4193  -15.1870   20.3982 N   0  0  0  0  0  0
  -31.8912  -14.6332   20.1056 O   0  0  0  0  0  0
  -21.6625   -6.8878   21.4266 O   0  0  0  0  0  0
  -22.3602  -14.5584   20.6707 O   0  0  0  0  0  0
  -24.6223  -31.8673   23.2208 C   0  0  0  0  0  0
  -25.9140  -32.4803   23.8474 C   0  0  1  0  0  0
  -27.2097  -27.3915   20.0939 C   0  0  0  0  0  0
  -25.6026  -33.8606   24.2360 N   0  0  0  0  0  0
  -23.4088  -30.4975   21.5625 C   0  0  2  0  0  0
  -24.8469  -28.9659   20.1211 C   0  0  0  0  0  0
  -22.7456  -29.4663   22.5041 C   0  0  0  0  0  0
  -18.0294  -28.1410   22.8475 C   0  0  0  0  0  0
  -24.1457  -36.7279   23.2510 C   0  0  0  0  0  0
  -25.9440  -30.8175   21.3819 C   0  0  0  0  0  0
  -26.0139  -29.4501   20.7261 C   0  0  0  0  0  0
  -27.1964  -28.6662   20.7202 C   0  0  0  0  0  0
  -26.0227  -26.9556   19.4536 C   0  0  0  0  0  0
  -24.8477  -27.7193   19.4842 C   0  0  0  0  0  0
  -23.6177  -29.8429   20.1728 C   0  0  0  0  0  0
  -25.3959  -36.3024   24.0350 C   0  0  1  0  0  0
  -20.5888  -28.3683   23.1319 C   0  0  2  0  0  0
  -20.6789  -26.9432   22.5393 C   0  0  0  0  0  0
  -19.5753  -26.6411   21.5210 C   0  0  0  0  0  0
  -18.1937  -26.7959   22.1610 C   0  0  0  0  0  0
  -19.1541  -28.8849   23.2896 C   0  0  0  0  0  0
  -18.9470  -30.1472   23.8868 C   0  0  0  0  0  0
  -17.6472  -30.6595   24.0567 C   0  0  0  0  0  0
  -25.9080  -34.9474   23.5130 C   0  0  0  0  0  0
  -16.5357  -29.9074   23.6366 C   0  0  0  0  0  0
  -16.7286  -28.6532   23.0317 C   0  0  0  0  0  0
  -26.4543  -31.6570   25.0811 C   0  0  0  0  0  0
  -25.3834  -31.3748   26.1612 C   0  0  0  0  0  0
  -27.0335  -30.2982   24.6210 C   0  0  0  0  0  0
  -27.6155  -32.4244   25.7548 C   0  0  0  0  0  0
  -27.5809  -37.1313   24.8046 C   0  0  0  0  0  0
  -21.4180  -29.3072   22.3752 N   0  0  0  0  0  0
  -26.3896  -37.3965   24.0077 N   0  0  0  0  0  0
  -24.6778  -31.0723   22.1147 N   0  0  0  0  0  0
  -23.4229  -28.8166   23.3053 O   0  0  0  0  0  0
  -28.3427  -26.5881   20.1324 O   0  0  0  0  0  0
  -26.5650  -34.8976   22.4698 O   0  0  0  0  0  0
  -23.5401  -32.1439   23.7588 O   0  0  0  0  0  0
  -28.7886  -18.3313   22.2199 C   0  0  0  0  0  0
  -29.7917  -18.2032   21.2623 C   0  0  0  0  0  0
  -29.4002  -20.4814   21.1593 C   0  0  0  0  0  0
  -28.1276  -17.3565   23.1069 C   0  0  0  0  0  0
  -29.1479  -24.1973   20.4010 C   0  0  0  0  0  0
  -28.8199  -22.6735   20.1904 C   0  0  0  0  0  0
  -27.3776  -17.8167   24.3724 C   0  0  0  0  0  0
  -30.6537  -17.0041   20.8327 C   0  0  0  0  0  0
  -28.1284  -25.1891   19.7904 C   0  0  0  0  0  0
  -30.1260  -19.4561   20.6874 N   0  0  0  0  0  0
  -29.6619  -21.8400   20.8330 N   0  0  0  0  0  0
  -30.0701  -15.6481   20.8928 N   0  0  0  0  0  0
  -28.1580  -16.1508   22.8705 O   0  0  0  0  0  0
  -30.1336  -24.5793   21.0463 O   0  0  0  0  0  0
  -27.8857  -22.2884   19.4755 O   0  0  0  0  0  0
  -28.2227  -19.9913   22.3583 S   0  0  0  0  0  0
  -31.4659  -12.4261   19.1235 H   0  0  0  0  0  0
  -30.3099  -11.3434   19.8490 H   0  0  0  0  0  0
  -29.7624  -11.7887   17.4314 H   0  0  0  0  0  0
  -29.6633  -13.4979   17.7556 H   0  0  0  0  0  0
  -27.8514  -11.3076   18.8257 H   0  0  0  0  0  0
  -27.3780  -12.6127   17.7755 H   0  0  0  0  0  0
  -27.6720  -14.2603   19.5173 H   0  0  0  0  0  0
  -28.6830  -12.0836   21.4074 H   0  0  0  0  0  0
  -28.4610  -13.7649   21.8009 H   0  0  0  0  0  0
  -25.2746   -9.5720   22.4726 H   0  0  0  0  0  0
  -24.0032   -7.4626   22.7453 H   0  0  0  0  0  0
  -21.0788   -8.8728   19.8935 H   0  0  0  0  0  0
  -22.3643  -10.9655   19.6099 H   0  0  0  0  0  0
  -21.2060   -7.6161   23.9748 H   0  0  0  0  0  0
  -21.1450   -6.0484   25.9080 H   0  0  0  0  0  0
  -22.0622   -2.7615   23.2778 H   0  0  0  0  0  0
  -22.3961  -11.9946   22.4868 H   0  0  0  0  0  0
  -21.1059  -13.1362   22.2502 H   0  0  0  0  0  0
  -24.6378  -15.8243   20.5033 H   0  0  0  0  0  0
  -26.2587  -15.6431   20.0632 H   0  0  0  0  0  0
  -26.7213  -32.5495   23.1239 H   0  0  0  0  0  0
  -25.0192  -33.9795   25.0512 H   0  0  0  0  0  0
  -22.6984  -31.3175   21.4336 H   0  0  0  0  0  0
  -23.4176  -35.9165   23.1866 H   0  0  0  0  0  0
  -24.3940  -37.0225   22.2300 H   0  0  0  0  0  0
  -23.6459  -37.5700   23.7303 H   0  0  0  0  0  0
  -26.0513  -31.5856   20.6150 H   0  0  0  0  0  0
  -26.8345  -30.8711   21.9971 H   0  0  0  0  0  0
  -28.0886  -29.0211   21.2168 H   0  0  0  0  0  0
  -25.9626  -26.0220   18.9139 H   0  0  0  0  0  0
  -23.9531  -27.3482   19.0027 H   0  0  0  0  0  0
  -23.7465  -30.6252   19.4237 H   0  0  0  0  0  0
  -22.7361  -29.2781   19.8639 H   0  0  0  0  0  0
  -25.0864  -36.1566   25.0719 H   0  0  0  0  0  0
  -20.9970  -28.3269   24.1451 H   0  0  0  0  0  0
  -20.5754  -26.2326   23.3603 H   0  0  0  0  0  0
  -21.6663  -26.7535   22.1166 H   0  0  0  0  0  0
  -19.6929  -25.6322   21.1254 H   0  0  0  0  0  0
  -19.6695  -27.3212   20.6727 H   0  0  0  0  0  0
  -17.4246  -26.6735   21.3978 H   0  0  0  0  0  0
  -18.0306  -26.0091   22.8992 H   0  0  0  0  0  0
  -19.7934  -30.7306   24.2233 H   0  0  0  0  0  0
  -17.5008  -31.6271   24.5177 H   0  0  0  0  0  0
  -15.5341  -30.2933   23.7723 H   0  0  0  0  0  0
  -15.8707  -28.0852   22.6958 H   0  0  0  0  0  0
  -24.5865  -30.7247   25.8003 H   0  0  0  0  0  0
  -24.9232  -32.2952   26.5206 H   0  0  0  0  0  0
  -25.8186  -30.8788   27.0298 H   0  0  0  0  0  0
  -26.2870  -29.6733   24.1295 H   0  0  0  0  0  0
  -27.4101  -29.7231   25.4685 H   0  0  0  0  0  0
  -27.8731  -30.4264   23.9374 H   0  0  0  0  0  0
  -27.2828  -33.3523   26.2206 H   0  0  0  0  0  0
  -28.3944  -32.6797   25.0358 H   0  0  0  0  0  0
  -28.0853  -31.8306   26.5400 H   0  0  0  0  0  0
  -28.1070  -38.0654   24.9962 H   0  0  0  0  0  0
  -28.2653  -36.4718   24.2700 H   0  0  0  0  0  0
  -27.3475  -36.6732   25.7665 H   0  0  0  0  0  0
  -20.9374  -29.8835   21.6972 H   0  0  0  0  0  0
  -25.9676  -38.2496   24.3633 H   0  0  0  0  0  0
  -27.9516  -18.5372   24.9549 H   0  0  0  0  0  0
  -27.1885  -16.9735   25.0342 H   0  0  0  0  0  0
  -26.4094  -18.2546   24.1346 H   0  0  0  0  0  0
  -31.5620  -16.9967   21.4436 H   0  0  0  0  0  0
  -31.0239  -17.1648   19.8120 H   0  0  0  0  0  0
  -27.1616  -24.8526   20.1687 H   0  0  0  0  0  0
  -28.1196  -25.0736   18.7054 H   0  0  0  0  0  0
  -30.4011  -22.3059   21.3458 H   0  0  0  0  0  0
  -29.1182  -15.5702   21.2279 H   0  0  0  0  0  0
  1 25  1  0  0  0
  1 30  2  0  0  0
  1 82  1  0  0  0
  2  3  1  0  0  0
  2 25  1  0  0  0
  2 87  1  0  0  0
  2 88  1  0  0  0
  3  4  1  0  0  0
  3 89  1  0  0  0
  3 90  1  0  0  0
  4  5  1  0  0  0
  4 91  1  0  0  0
  4 92  1  0  0  0
  5  6  1  0  0  0
  5 26  1  0  0  0
  5 93  1  0  0  0
  6 25  1  0  0  0
  6 94  1  0  0  0
  6 95  1  0  0  0
  7  8  2  0  0  0
  7 26  1  0  0  0
  7 29  1  0  0  0
  8  9  1  0  0  0
  8 22  1  0  0  0
  9 10  1  0  0  0
  9 27  2  0  0  0
 10 11  2  0  0  0
 10 15  1  0  0  0
 11 12  1  0  0  0
 11 96  1  0  0  0
 12 13  2  0  0  0
 12 97  1  0  0  0
 13 14  1  0  0  0
 13 31  1  0  0  0
 14 15  2  0  0  0
 14 98  1  0  0  0
 15 99  1  0  0  0
 16 17  2  0  0  0
 16 21  1  0  0  0
 16 31  1  0  0  0
 17 18  1  0  0  0
 17100  1  0  0  0
 18 19  2  0  0  0
 18101  1  0  0  0
 19 20  1  0  0  0
 19 24  1  0  0  0
 20 21  2  0  0  0
 20102  1  0  0  0
 21 23  1  0  0  0
 22 28  1  0  0  0
 22 32  2  0  0  0
 26 27  1  0  0  0
 28103  1  0  0  0
 28104  1  0  0  0
 29105  1  0  0  0
 29106  1  0  0  0
 33 34  1  0  0  0
 33 66  1  0  0  0
 33 70  2  0  0  0
 34 36  1  0  0  0
 34 59  1  0  0  0
 34107  1  0  0  0
 35 44  2  0  0  0
 35 45  1  0  0  0
 35 68  1  0  0  0
 36 56  1  0  0  0
 36108  1  0  0  0
 37 39  1  0  0  0
 37 47  1  0  0  0
 37 66  1  0  0  0
 37109  1  0  0  0
 38 43  2  0  0  0
 38 46  1  0  0  0
 38 47  1  0  0  0
 39 64  1  0  0  0
 39 67  2  0  0  0
 40 52  1  0  0  0
 40 53  2  0  0  0
 40 58  1  0  0  0
 41110  1  0  0  0
 41111  1  0  0  0
 41112  1  0  0  0
 41 48  1  0  0  0
 42 43  1  0  0  0
 42 66  1  0  0  0
 42113  1  0  0  0
 42114  1  0  0  0
 43 44  1  0  0  0
 44115  1  0  0  0
 45 46  2  0  0  0
 45116  1  0  0  0
 46117  1  0  0  0
 47118  1  0  0  0
 47119  1  0  0  0
 48 56  1  0  0  0
 48 65  1  0  0  0
 48120  1  0  0  0
 49 50  1  0  0  0
 49 53  1  0  0  0
 49 64  1  0  0  0
 49121  1  0  0  0
 50 51  1  0  0  0
 50122  1  0  0  0
 50123  1  0  0  0
 51 52  1  0  0  0
 51124  1  0  0  0
 51125  1  0  0  0
 52126  1  0  0  0
 52127  1  0  0  0
 53 54  1  0  0  0
 54 55  2  0  0  0
 54128  1  0  0  0
 55 57  1  0  0  0
 55129  1  0  0  0
 56 69  2  0  0  0
 57 58  2  0  0  0
 57130  1  0  0  0
 58131  1  0  0  0
 59 60  1  0  0  0
 59 61  1  0  0  0
 59 62  1  0  0  0
 60132  1  0  0  0
 60133  1  0  0  0
 60134  1  0  0  0
 61135  1  0  0  0
 61136  1  0  0  0
 61137  1  0  0  0
 62138  1  0  0  0
 62139  1  0  0  0
 62140  1  0  0  0
 63 65  1  0  0  0
 63141  1  0  0  0
 63142  1  0  0  0
 63143  1  0  0  0
 64144  1  0  0  0
 65145  1  0  0  0
 68 79  1  0  0  0
 71 72  2  0  0  0
 71 74  1  0  0  0
 71 86  1  0  0  0
 72 78  1  0  0  0
 72 80  1  0  0  0
 73 80  2  0  0  0
 73 81  1  0  0  0
 73 86  1  0  0  0
 74 77  1  0  0  0
 74 83  2  0  0  0
 75 76  1  0  0  0
 75 79  1  0  0  0
 75 84  2  0  0  0
 76 81  1  0  0  0
 76 85  2  0  0  0
 77146  1  0  0  0
 77147  1  0  0  0
 77148  1  0  0  0
 78 82  1  0  0  0
 78149  1  0  0  0
 78150  1  0  0  0
 79151  1  0  0  0
 79152  1  0  0  0
 81153  1  0  0  0
 82154  1  0  0  0
M  ISO  4   1 100  68 101  79 101  82 100
M  END
> <chiral flag>
0

> <version>
0

> <s_m_source_file>
/data/baiqing/PycharmProjects/Reinvent-master-3.2/result/LINK_invent/BTK/process_docking_weight1_custom_product_contain_oxygen_bond_distance_aromatic_linkinvent_7_9_3/rearranged_h_0178.sdf

> <i_m_source_file_index>
18

> <r_mmod_Potential_Energy-OPLS-2005>
-223.111022949219

> <r_mmod_Stretch_Energy-OPLS-2005>
47.6343154907227

> <r_mmod_Bend_Energy-OPLS-2005>
113.766105651855

> <r_mmod_Torsional_Energy-OPLS-2005>
233.255249023438

> <r_mmod_Improper_Torsional_Energy-OPLS-2005>
5.82779693603516

> <r_mmod_Van_der_Waal_Energy-OPLS-2005>
133.711349487305

> <r_mmod_Electrostatic_Energy-OPLS-2005>
-547.565795898438

> <r_mmod_Solvation_Energy-OPLS-2005>
-239.823959350586

> <b_mmod_Minimization_Converged-OPLS-2005>
0

> <r_mmod_RMS_Derivative-OPLS-2005>
6.86333131790161

$$$$
18
                    3D
 Structure written by MMmdl.
152160  0  0  1  0            999 V2000
  -30.6891  -14.4959   20.5550 C   0  0  0  0  0  0
  -30.4245  -12.3151   19.4311 C   0  0  0  0  0  0
  -29.4968  -12.5009   18.2114 C   0  0  0  0  0  0
  -28.0171  -12.3619   18.6233 C   0  0  0  0  0  0
  -27.6606  -13.2080   19.8756 C   0  0  2  0  0  0
  -28.7026  -13.0014   20.9992 C   0  0  0  0  0  0
  -25.2584  -13.8174   20.5675 C   0  0  0  0  0  0
  -24.1838  -13.0447   20.9183 C   0  0  0  0  0  0
  -24.6394  -11.6913   20.8733 C   0  0  0  0  0  0
  -23.9066  -10.4293   21.0398 C   0  0  0  0  0  0
  -24.3617   -9.4208   21.9175 C   0  0  0  0  0  0
  -23.6288   -8.2248   22.0749 C   0  0  0  0  0  0
  -22.4271   -8.0289   21.3550 C   0  0  0  0  0  0
  -21.9915   -9.0255   20.4650 C   0  0  0  0  0  0
  -22.7242  -10.2130   20.3038 C   0  0  0  0  0  0
  -21.6854   -6.0742   22.5281 C   0  0  0  0  0  0
  -21.4012   -6.5642   23.8214 C   0  0  0  0  0  0
  -21.3659   -5.6799   24.9180 C   0  0  0  0  0  0
  -21.6044   -4.3058   24.7229 C   0  0  0  0  0  0
  -21.8816   -3.8155   23.4349 C   0  0  0  0  0  0
  -21.9193   -4.6975   22.3411 C   0  0  0  0  0  0
  -22.7858  -13.5237   21.1863 C   0  0  0  0  0  0
  -22.1669   -4.2155   21.0990 F   0  0  0  0  0  0
  -21.5626   -3.4543   25.7742 F   0  0  0  0  0  0
  -30.0320  -13.3081   20.4435 N   0  0  0  0  0  0
  -26.3019  -12.9339   20.3368 N   0  0  0  0  0  0
  -25.9320  -11.6503   20.5775 N   0  0  0  0  0  0
  -22.0513  -12.8189   22.0402 N   0  0  0  0  0  0
  -25.4323  -15.1889   20.4073 N   0  0  0  0  0  0
  -31.8326  -14.6590   20.1178 O   0  0  0  0  0  0
  -21.6648   -6.8880   21.4239 O   0  0  0  0  0  0
  -22.3529  -14.5549   20.6731 O   0  0  0  0  0  0
  -24.6174  -31.8666   23.2086 C   0  0  0  0  0  0
  -25.9068  -32.4812   23.8386 C   0  0  1  0  0  0
  -27.2348  -27.4106   20.0986 C   0  0  0  0  0  0
  -25.5929  -33.8609   24.2332 N   0  0  0  0  0  0
  -23.4055  -30.4906   21.5504 C   0  0  2  0  0  0
  -24.8490  -28.9507   20.1168 C   0  0  0  0  0  0
  -22.7420  -29.4658   22.4986 C   0  0  0  0  0  0
  -18.0284  -28.1367   22.8488 C   0  0  0  0  0  0
  -24.1498  -36.7301   23.2638 C   0  0  0  0  0  0
  -25.9358  -30.8255   21.3636 C   0  0  0  0  0  0
  -26.0098  -29.4571   20.7123 C   0  0  0  0  0  0
  -27.2009  -28.6936   20.7006 C   0  0  0  0  0  0
  -26.0452  -26.9165   19.5131 C   0  0  0  0  0  0
  -24.8623  -27.6797   19.5176 C   0  0  0  0  0  0
  -23.6137  -29.8219   20.1647 C   0  0  0  0  0  0
  -25.4120  -36.3105   24.0342 C   0  0  1  0  0  0
  -20.5871  -28.3657   23.1307 C   0  0  2  0  0  0
  -20.6774  -26.9396   22.5409 C   0  0  0  0  0  0
  -19.5754  -26.6378   21.5207 C   0  0  0  0  0  0
  -18.1932  -26.7914   22.1611 C   0  0  0  0  0  0
  -19.1533  -28.8832   23.2892 C   0  0  0  0  0  0
  -18.9456  -30.1441   23.8891 C   0  0  0  0  0  0
  -17.6455  -30.6572   24.0565 C   0  0  0  0  0  0
  -25.9047  -34.9469   23.5133 C   0  0  0  0  0  0
  -16.5350  -29.9068   23.6326 C   0  0  0  0  0  0
  -16.7270  -28.6490   23.0339 C   0  0  0  0  0  0
  -26.4495  -31.6576   25.0708 C   0  0  0  0  0  0
  -25.3763  -31.3641   26.1447 C   0  0  0  0  0  0
  -27.0328  -30.3029   24.6065 C   0  0  0  0  0  0
  -27.6090  -32.4267   25.7467 C   0  0  0  0  0  0
  -27.5586  -37.1810   24.8470 C   0  0  0  0  0  0
  -21.4149  -29.3027   22.3715 N   0  0  0  0  0  0
  -26.4303  -37.3791   23.9409 N   0  0  0  0  0  0
  -24.6714  -31.0756   22.0995 N   0  0  0  0  0  0
  -23.4185  -28.8204   23.3043 O   0  0  0  0  0  0
  -28.4269  -26.7042   20.1211 O   0  0  0  0  0  0
  -26.5600  -34.8921   22.4690 O   0  0  0  0  0  0
  -23.5366  -32.1425   23.7482 O   0  0  0  0  0  0
  -29.7231  -19.1659   20.7515 C   0  0  0  0  0  0
  -31.1108  -19.2338   20.8315 C   0  0  0  0  0  0
  -30.2409  -16.9167   20.9422 C   0  0  0  0  0  0
  -28.7645  -20.2759   20.5051 C   0  0  0  0  0  0
  -28.5395  -24.2344   20.5008 C   0  0  0  0  0  0
  -29.0791  -21.7040   21.0110 C   0  0  0  0  0  0
  -28.8354  -22.8229   19.9475 C   0  0  0  0  0  0
  -28.5501  -25.4085   19.4900 C   0  0  0  0  0  0
  -29.2627  -17.8270   20.8399 N   0  0  0  0  0  0
  -31.9932  -20.3134   20.7652 N   0  0  0  0  0  0
  -29.9374  -15.5231   21.0047 N   0  0  0  0  0  0
  -27.6660  -20.1053   19.9630 O   0  0  0  0  0  0
  -28.3164  -24.4177   21.7015 O   0  0  0  0  0  0
  -31.8389  -17.6478   21.0019 S   0  0  0  0  0  0
  -31.4692  -12.4124   19.1303 H   0  0  0  0  0  0
  -30.3282  -11.3083   19.8405 H   0  0  0  0  0  0
  -29.7445  -11.7685   17.4422 H   0  0  0  0  0  0
  -29.6630  -13.4815   17.7611 H   0  0  0  0  0  0
  -27.8305  -11.3064   18.8261 H   0  0  0  0  0  0
  -27.3655  -12.6313   17.7908 H   0  0  0  0  0  0
  -27.7003  -14.2545   19.5723 H   0  0  0  0  0  0
  -28.6832  -11.9694   21.3533 H   0  0  0  0  0  0
  -28.4638  -13.6114   21.8719 H   0  0  0  0  0  0
  -25.2762   -9.5676   22.4753 H   0  0  0  0  0  0
  -24.0003   -7.4635   22.7458 H   0  0  0  0  0  0
  -21.0853   -8.8762   19.8952 H   0  0  0  0  0  0
  -22.3708  -10.9657   19.6134 H   0  0  0  0  0  0
  -21.2001   -7.6154   23.9708 H   0  0  0  0  0  0
  -21.1482   -6.0542   25.9076 H   0  0  0  0  0  0
  -22.0591   -2.7618   23.2852 H   0  0  0  0  0  0
  -22.4140  -11.9826   22.4741 H   0  0  0  0  0  0
  -21.1124  -13.1185   22.2627 H   0  0  0  0  0  0
  -24.6687  -15.8471   20.5203 H   0  0  0  0  0  0
  -26.2853  -15.6288   20.0847 H   0  0  0  0  0  0
  -26.7135  -32.5514   23.1145 H   0  0  0  0  0  0
  -25.0154  -33.9777   25.0527 H   0  0  0  0  0  0
  -22.6967  -31.3093   21.4106 H   0  0  0  0  0  0
  -23.3765  -35.9627   23.3307 H   0  0  0  0  0  0
  -24.3594  -36.8907   22.2049 H   0  0  0  0  0  0
  -23.7240  -37.6507   23.6641 H   0  0  0  0  0  0
  -26.0528  -31.5894   20.5938 H   0  0  0  0  0  0
  -26.8233  -30.8776   21.9818 H   0  0  0  0  0  0
  -28.0977  -29.0851   21.1612 H   0  0  0  0  0  0
  -25.9908  -25.9385   19.0621 H   0  0  0  0  0  0
  -23.9655  -27.2754   19.0678 H   0  0  0  0  0  0
  -23.7280  -30.5980   19.4069 H   0  0  0  0  0  0
  -22.7354  -29.2462   19.8655 H   0  0  0  0  0  0
  -25.1296  -36.1982   25.0834 H   0  0  0  0  0  0
  -20.9964  -28.3221   24.1426 H   0  0  0  0  0  0
  -20.5678  -26.2268   23.3599 H   0  0  0  0  0  0
  -21.6645  -26.7446   22.1198 H   0  0  0  0  0  0
  -19.6925  -25.6291   21.1227 H   0  0  0  0  0  0
  -19.6693  -27.3195   20.6743 H   0  0  0  0  0  0
  -17.4210  -26.6680   21.4005 H   0  0  0  0  0  0
  -18.0325  -26.0044   22.8990 H   0  0  0  0  0  0
  -19.7936  -30.7267   24.2233 H   0  0  0  0  0  0
  -17.5012  -31.6247   24.5171 H   0  0  0  0  0  0
  -15.5347  -30.2967   23.7641 H   0  0  0  0  0  0
  -15.8677  -28.0812   22.7029 H   0  0  0  0  0  0
  -24.5981  -30.6946   25.7767 H   0  0  0  0  0  0
  -24.8894  -32.2762   26.4901 H   0  0  0  0  0  0
  -25.8124  -30.8811   27.0201 H   0  0  0  0  0  0
  -26.2857  -29.6772   24.1165 H   0  0  0  0  0  0
  -27.4176  -29.7278   25.4499 H   0  0  0  0  0  0
  -27.8661  -30.4375   23.9164 H   0  0  0  0  0  0
  -27.2762  -33.3586   26.2048 H   0  0  0  0  0  0
  -28.3898  -32.6775   25.0274 H   0  0  0  0  0  0
  -28.0754  -31.8365   26.5369 H   0  0  0  0  0  0
  -28.2607  -38.0104   24.7518 H   0  0  0  0  0  0
  -28.1080  -36.2635   24.6302 H   0  0  0  0  0  0
  -27.2298  -37.1465   25.8871 H   0  0  0  0  0  0
  -20.9316  -29.8738   21.6924 H   0  0  0  0  0  0
  -26.0198  -38.2877   24.1386 H   0  0  0  0  0  0
  -30.0889  -21.7714   21.4054 H   0  0  0  0  0  0
  -28.4253  -21.8659   21.8676 H   0  0  0  0  0  0
  -29.6970  -22.8873   19.2831 H   0  0  0  0  0  0
  -27.9889  -22.5526   19.3159 H   0  0  0  0  0  0
  -27.8272  -25.2360   18.6967 H   0  0  0  0  0  0
  -29.5205  -25.3924   18.9964 H   0  0  0  0  0  0
  -31.7341  -21.2891   20.6562 H   0  0  0  0  0  0
  -32.9968  -20.2005   20.8780 H   0  0  0  0  0  0
  -28.9955  -15.2836   21.2640 H   0  0  0  0  0  0
  1 25  1  0  0  0
  1 30  2  0  0  0
  1 81  1  0  0  0
  2  3  1  0  0  0
  2 25  1  0  0  0
  2 85  1  0  0  0
  2 86  1  0  0  0
  3  4  1  0  0  0
  3 87  1  0  0  0
  3 88  1  0  0  0
  4  5  1  0  0  0
  4 89  1  0  0  0
  4 90  1  0  0  0
  5  6  1  0  0  0
  5 26  1  0  0  0
  5 91  1  0  0  0
  6 25  1  0  0  0
  6 92  1  0  0  0
  6 93  1  0  0  0
  7  8  2  0  0  0
  7 26  1  0  0  0
  7 29  1  0  0  0
  8  9  1  0  0  0
  8 22  1  0  0  0
  9 10  1  0  0  0
  9 27  2  0  0  0
 10 11  2  0  0  0
 10 15  1  0  0  0
 11 12  1  0  0  0
 11 94  1  0  0  0
 12 13  2  0  0  0
 12 95  1  0  0  0
 13 14  1  0  0  0
 13 31  1  0  0  0
 14 15  2  0  0  0
 14 96  1  0  0  0
 15 97  1  0  0  0
 16 17  2  0  0  0
 16 21  1  0  0  0
 16 31  1  0  0  0
 17 18  1  0  0  0
 17 98  1  0  0  0
 18 19  2  0  0  0
 18 99  1  0  0  0
 19 20  1  0  0  0
 19 24  1  0  0  0
 20 21  2  0  0  0
 20100  1  0  0  0
 21 23  1  0  0  0
 22 28  1  0  0  0
 22 32  2  0  0  0
 26 27  1  0  0  0
 28101  1  0  0  0
 28102  1  0  0  0
 29103  1  0  0  0
 29104  1  0  0  0
 33 34  1  0  0  0
 33 66  1  0  0  0
 33 70  2  0  0  0
 34 36  1  0  0  0
 34 59  1  0  0  0
 34105  1  0  0  0
 35 44  2  0  0  0
 35 45  1  0  0  0
 35 68  1  0  0  0
 36 56  1  0  0  0
 36106  1  0  0  0
 37 39  1  0  0  0
 37 47  1  0  0  0
 37 66  1  0  0  0
 37107  1  0  0  0
 38 43  2  0  0  0
 38 46  1  0  0  0
 38 47  1  0  0  0
 39 64  1  0  0  0
 39 67  2  0  0  0
 40 52  1  0  0  0
 40 53  2  0  0  0
 40 58  1  0  0  0
 41108  1  0  0  0
 41109  1  0  0  0
 41110  1  0  0  0
 41 48  1  0  0  0
 42 43  1  0  0  0
 42 66  1  0  0  0
 42111  1  0  0  0
 42112  1  0  0  0
 43 44  1  0  0  0
 44113  1  0  0  0
 45 46  2  0  0  0
 45114  1  0  0  0
 46115  1  0  0  0
 47116  1  0  0  0
 47117  1  0  0  0
 48 56  1  0  0  0
 48 65  1  0  0  0
 48118  1  0  0  0
 49 50  1  0  0  0
 49 53  1  0  0  0
 49 64  1  0  0  0
 49119  1  0  0  0
 50 51  1  0  0  0
 50120  1  0  0  0
 50121  1  0  0  0
 51 52  1  0  0  0
 51122  1  0  0  0
 51123  1  0  0  0
 52124  1  0  0  0
 52125  1  0  0  0
 53 54  1  0  0  0
 54 55  2  0  0  0
 54126  1  0  0  0
 55 57  1  0  0  0
 55127  1  0  0  0
 56 69  2  0  0  0
 57 58  2  0  0  0
 57128  1  0  0  0
 58129  1  0  0  0
 59 60  1  0  0  0
 59 61  1  0  0  0
 59 62  1  0  0  0
 60130  1  0  0  0
 60131  1  0  0  0
 60132  1  0  0  0
 61133  1  0  0  0
 61134  1  0  0  0
 61135  1  0  0  0
 62136  1  0  0  0
 62137  1  0  0  0
 62138  1  0  0  0
 63 65  1  0  0  0
 63139  1  0  0  0
 63140  1  0  0  0
 63141  1  0  0  0
 64142  1  0  0  0
 65143  1  0  0  0
 68 78  1  0  0  0
 71 72  2  0  0  0
 71 74  1  0  0  0
 71 79  1  0  0  0
 72 80  1  0  0  0
 72 84  1  0  0  0
 73 79  2  0  0  0
 73 81  1  0  0  0
 73 84  1  0  0  0
 74 76  1  0  0  0
 74 82  2  0  0  0
 75 77  1  0  0  0
 75 78  1  0  0  0
 75 83  2  0  0  0
 76 77  1  0  0  0
 76144  1  0  0  0
 76145  1  0  0  0
 77146  1  0  0  0
 77147  1  0  0  0
 78148  1  0  0  0
 78149  1  0  0  0
 80150  1  0  0  0
 80151  1  0  0  0
 81152  1  0  0  0
M  ISO  4   1 100  68 101  78 101  81 100
M  END
> <chiral flag>
0

> <version>
0

> <s_m_source_file>
/data/baiqing/PycharmProjects/Reinvent-master-3.2/result/LINK_invent/BTK/process_docking_weight1_custom_product_contain_oxygen_bond_distance_aromatic_linkinvent_7_9_3/rearranged_h_0178.sdf

> <i_m_source_file_index>
19

> <r_mmod_Potential_Energy-OPLS-2005>
-5.64257383346558

> <r_mmod_Stretch_Energy-OPLS-2005>
43.03173828125

> <r_mmod_Bend_Energy-OPLS-2005>
119.918571472168

> <r_mmod_Torsional_Energy-OPLS-2005>
219.619216918945

> <r_mmod_Improper_Torsional_Energy-OPLS-2005>
4.90472936630249

> <r_mmod_Van_der_Waal_Energy-OPLS-2005>
132.957550048828

> <r_mmod_Electrostatic_Energy-OPLS-2005>
-292.066131591797

> <r_mmod_Solvation_Energy-OPLS-2005>
-249.92268371582

> <b_mmod_Minimization_Converged-OPLS-2005>
0

> <r_mmod_RMS_Derivative-OPLS-2005>
1.68061447143555

$$$$
19
                    3D
 Structure written by MMmdl.
153161  0  0  1  0            999 V2000
  -30.7365  -14.4415   20.5952 C   0  0  0  0  0  0
  -30.4132  -12.2980   19.4181 C   0  0  0  0  0  0
  -29.4902  -12.5106   18.2017 C   0  0  0  0  0  0
  -28.0124  -12.3732   18.6153 C   0  0  0  0  0  0
  -27.6600  -13.2135   19.8730 C   0  0  2  0  0  0
  -28.7016  -12.9958   20.9944 C   0  0  0  0  0  0
  -25.2586  -13.8177   20.5726 C   0  0  0  0  0  0
  -24.1845  -13.0430   20.9191 C   0  0  0  0  0  0
  -24.6405  -11.6898   20.8733 C   0  0  0  0  0  0
  -23.9067  -10.4278   21.0374 C   0  0  0  0  0  0
  -24.3608   -9.4195   21.9163 C   0  0  0  0  0  0
  -23.6286   -8.2230   22.0743 C   0  0  0  0  0  0
  -22.4272   -8.0263   21.3540 C   0  0  0  0  0  0
  -21.9902   -9.0232   20.4643 C   0  0  0  0  0  0
  -22.7226  -10.2110   20.3033 C   0  0  0  0  0  0
  -21.6856   -6.0716   22.5283 C   0  0  0  0  0  0
  -21.4017   -6.5628   23.8210 C   0  0  0  0  0  0
  -21.3660   -5.6780   24.9173 C   0  0  0  0  0  0
  -21.6046   -4.3042   24.7227 C   0  0  0  0  0  0
  -21.8822   -3.8133   23.4349 C   0  0  0  0  0  0
  -21.9194   -4.6946   22.3407 C   0  0  0  0  0  0
  -22.7856  -13.5229   21.1847 C   0  0  0  0  0  0
  -22.1660   -4.2129   21.0979 F   0  0  0  0  0  0
  -21.5629   -3.4529   25.7740 F   0  0  0  0  0  0
  -30.0368  -13.2841   20.4421 N   0  0  0  0  0  0
  -26.3013  -12.9362   20.3359 N   0  0  0  0  0  0
  -25.9332  -11.6505   20.5732 N   0  0  0  0  0  0
  -22.0516  -12.8197   22.0405 N   0  0  0  0  0  0
  -25.4313  -15.1906   20.4184 N   0  0  0  0  0  0
  -31.8413  -14.6276   20.0791 O   0  0  0  0  0  0
  -21.6642   -6.8855   21.4242 O   0  0  0  0  0  0
  -22.3514  -14.5527   20.6702 O   0  0  0  0  0  0
  -24.6144  -31.8671   23.2092 C   0  0  0  0  0  0
  -25.9043  -32.4815   23.8388 C   0  0  1  0  0  0
  -27.2351  -27.4224   20.0982 C   0  0  0  0  0  0
  -25.5898  -33.8613   24.2311 N   0  0  0  0  0  0
  -23.4005  -30.4899   21.5505 C   0  0  2  0  0  0
  -24.8459  -28.9516   20.1158 C   0  0  0  0  0  0
  -22.7414  -29.4651   22.5003 C   0  0  0  0  0  0
  -18.0265  -28.1369   22.8500 C   0  0  0  0  0  0
  -24.1485  -36.7315   23.2639 C   0  0  0  0  0  0
  -25.9296  -30.8290   21.3624 C   0  0  0  0  0  0
  -26.0053  -29.4613   20.7118 C   0  0  0  0  0  0
  -27.1981  -28.7040   20.6982 C   0  0  0  0  0  0
  -26.0522  -26.9228   19.5061 C   0  0  0  0  0  0
  -24.8658  -27.6824   19.5114 C   0  0  0  0  0  0
  -23.6085  -29.8201   20.1648 C   0  0  0  0  0  0
  -25.4102  -36.3110   24.0335 C   0  0  1  0  0  0
  -20.5863  -28.3650   23.1328 C   0  0  2  0  0  0
  -20.6753  -26.9389   22.5424 C   0  0  0  0  0  0
  -19.5730  -26.6382   21.5217 C   0  0  0  0  0  0
  -18.1911  -26.7912   22.1630 C   0  0  0  0  0  0
  -19.1514  -28.8826   23.2909 C   0  0  0  0  0  0
  -18.9445  -30.1437   23.8905 C   0  0  0  0  0  0
  -17.6451  -30.6579   24.0563 C   0  0  0  0  0  0
  -25.9032  -34.9470   23.5120 C   0  0  0  0  0  0
  -16.5336  -29.9085   23.6323 C   0  0  0  0  0  0
  -16.7256  -28.6495   23.0343 C   0  0  0  0  0  0
  -26.4473  -31.6589   25.0712 C   0  0  0  0  0  0
  -25.3750  -31.3680   26.1467 C   0  0  0  0  0  0
  -27.0281  -30.3028   24.6076 C   0  0  0  0  0  0
  -27.6043  -32.4321   25.7471 C   0  0  0  0  0  0
  -27.5574  -37.1814   24.8465 C   0  0  0  0  0  0
  -21.4141  -29.3019   22.3742 N   0  0  0  0  0  0
  -26.4294  -37.3794   23.9409 N   0  0  0  0  0  0
  -24.6665  -31.0768   22.0989 N   0  0  0  0  0  0
  -23.4185  -28.8203   23.3044 O   0  0  0  0  0  0
  -28.4327  -26.7310   20.1106 O   0  0  0  0  0  0
  -26.5613  -34.8931   22.4695 O   0  0  0  0  0  0
  -23.5345  -32.1433   23.7476 O   0  0  0  0  0  0
  -27.7973  -19.3103   21.7272 C   0  0  0  0  0  0
  -28.6046  -18.2186   22.1653 C   0  0  0  0  0  0
  -29.6224  -17.8758   21.3180 C   0  0  0  0  0  0
  -28.1965  -19.8259   20.5166 C   0  0  0  0  0  0
  -28.5413  -22.8945   20.4892 C   0  0  0  0  0  0
  -27.5787  -22.0540   19.5916 C   0  0  0  0  0  0
  -30.6463  -16.7815   21.4783 C   0  0  0  0  0  0
  -28.1062  -24.3469   20.7831 C   0  0  0  0  0  0
  -28.5165  -25.3597   19.6837 C   0  0  0  0  0  0
  -27.5192  -20.7096   19.7337 N   0  0  0  0  0  0
  -30.1185  -15.4228   21.2736 N   0  0  0  0  0  0
  -29.6102  -22.4581   20.9335 O   0  0  0  0  0  0
  -26.8613  -22.6196   18.7624 O   0  0  0  0  0  0
  -28.3612  -17.5821   23.2885 F   0  0  0  0  0  0
  -29.6188  -18.9640   19.9431 S   0  0  0  0  0  0
  -31.4601  -12.3745   19.1181 H   0  0  0  0  0  0
  -30.2970  -11.2882   19.8131 H   0  0  0  0  0  0
  -29.7241  -11.7858   17.4219 H   0  0  0  0  0  0
  -29.6648  -13.4974   17.7692 H   0  0  0  0  0  0
  -27.8224  -11.3175   18.8121 H   0  0  0  0  0  0
  -27.3591  -12.6449   17.7852 H   0  0  0  0  0  0
  -27.7028  -14.2618   19.5775 H   0  0  0  0  0  0
  -28.6707  -11.9639   21.3454 H   0  0  0  0  0  0
  -28.4610  -13.6058   21.8665 H   0  0  0  0  0  0
  -25.2745   -9.5665   22.4737 H   0  0  0  0  0  0
  -23.9996   -7.4614   22.7450 H   0  0  0  0  0  0
  -21.0833   -8.8733   19.8949 H   0  0  0  0  0  0
  -22.3675  -10.9636   19.6136 H   0  0  0  0  0  0
  -21.2016   -7.6134   23.9710 H   0  0  0  0  0  0
  -21.1489   -6.0509   25.9074 H   0  0  0  0  0  0
  -22.0612   -2.7591   23.2855 H   0  0  0  0  0  0
  -22.4120  -11.9854   22.4802 H   0  0  0  0  0  0
  -21.1133  -13.1198   22.2617 H   0  0  0  0  0  0
  -24.6714  -15.8493   20.5480 H   0  0  0  0  0  0
  -26.2939  -15.6319   20.1261 H   0  0  0  0  0  0
  -26.7102  -32.5510   23.1132 H   0  0  0  0  0  0
  -25.0023  -33.9779   25.0445 H   0  0  0  0  0  0
  -22.6880  -31.3069   21.4100 H   0  0  0  0  0  0
  -23.3743  -35.9658   23.3321 H   0  0  0  0  0  0
  -24.3574  -36.8916   22.2052 H   0  0  0  0  0  0
  -23.7246  -37.6526   23.6646 H   0  0  0  0  0  0
  -26.0426  -31.5929   20.5922 H   0  0  0  0  0  0
  -26.8181  -30.8824   21.9807 H   0  0  0  0  0  0
  -28.0939  -29.1002   21.1558 H   0  0  0  0  0  0
  -26.0211  -25.9518   19.0361 H   0  0  0  0  0  0
  -23.9746  -27.2838   19.0472 H   0  0  0  0  0  0
  -23.7150  -30.5934   19.4023 H   0  0  0  0  0  0
  -22.7330  -29.2405   19.8682 H   0  0  0  0  0  0
  -25.1281  -36.1971   25.0832 H   0  0  0  0  0  0
  -20.9938  -28.3207   24.1453 H   0  0  0  0  0  0
  -20.5638  -26.2268   23.3611 H   0  0  0  0  0  0
  -21.6630  -26.7425   22.1226 H   0  0  0  0  0  0
  -19.6890  -25.6299   21.1227 H   0  0  0  0  0  0
  -19.6656  -27.3212   20.6766 H   0  0  0  0  0  0
  -17.4185  -26.6668   21.4034 H   0  0  0  0  0  0
  -18.0309  -26.0045   22.9015 H   0  0  0  0  0  0
  -19.7929  -30.7259   24.2271 H   0  0  0  0  0  0
  -17.5003  -31.6255   24.5173 H   0  0  0  0  0  0
  -15.5342  -30.2983   23.7631 H   0  0  0  0  0  0
  -15.8663  -28.0818   22.7044 H   0  0  0  0  0  0
  -24.5924  -30.7025   25.7805 H   0  0  0  0  0  0
  -24.8943  -32.2823   26.4959 H   0  0  0  0  0  0
  -25.8127  -30.8818   27.0195 H   0  0  0  0  0  0
  -26.2790  -29.6809   24.1155 H   0  0  0  0  0  0
  -27.4060  -29.7251   25.4521 H   0  0  0  0  0  0
  -27.8640  -30.4330   23.9198 H   0  0  0  0  0  0
  -27.2644  -33.3603   26.2083 H   0  0  0  0  0  0
  -28.3832  -32.6923   25.0288 H   0  0  0  0  0  0
  -28.0737  -31.8429   26.5357 H   0  0  0  0  0  0
  -28.2611  -38.0098   24.7512 H   0  0  0  0  0  0
  -28.1055  -36.2629   24.6291 H   0  0  0  0  0  0
  -27.2296  -37.1471   25.8874 H   0  0  0  0  0  0
  -20.9303  -29.8763   21.6987 H   0  0  0  0  0  0
  -26.0176  -38.2875   24.1414 H   0  0  0  0  0  0
  -26.9367  -19.6357   22.2909 H   0  0  0  0  0  0
  -31.0706  -16.8326   22.4828 H   0  0  0  0  0  0
  -31.4827  -16.9833   20.8060 H   0  0  0  0  0  0
  -28.5600  -24.6345   21.7308 H   0  0  0  0  0  0
  -27.0275  -24.3717   20.9340 H   0  0  0  0  0  0
  -27.9804  -25.1854   18.7508 H   0  0  0  0  0  0
  -29.5638  -25.1913   19.4303 H   0  0  0  0  0  0
  -26.8414  -20.2873   19.1154 H   0  0  0  0  0  0
  -29.2170  -15.2047   21.6704 H   0  0  0  0  0  0
  1 25  1  0  0  0
  1 30  2  0  0  0
  1 81  1  0  0  0
  2  3  1  0  0  0
  2 25  1  0  0  0
  2 86  1  0  0  0
  2 87  1  0  0  0
  3  4  1  0  0  0
  3 88  1  0  0  0
  3 89  1  0  0  0
  4  5  1  0  0  0
  4 90  1  0  0  0
  4 91  1  0  0  0
  5  6  1  0  0  0
  5 26  1  0  0  0
  5 92  1  0  0  0
  6 25  1  0  0  0
  6 93  1  0  0  0
  6 94  1  0  0  0
  7  8  2  0  0  0
  7 26  1  0  0  0
  7 29  1  0  0  0
  8  9  1  0  0  0
  8 22  1  0  0  0
  9 10  1  0  0  0
  9 27  2  0  0  0
 10 11  2  0  0  0
 10 15  1  0  0  0
 11 12  1  0  0  0
 11 95  1  0  0  0
 12 13  2  0  0  0
 12 96  1  0  0  0
 13 14  1  0  0  0
 13 31  1  0  0  0
 14 15  2  0  0  0
 14 97  1  0  0  0
 15 98  1  0  0  0
 16 17  2  0  0  0
 16 21  1  0  0  0
 16 31  1  0  0  0
 17 18  1  0  0  0
 17 99  1  0  0  0
 18 19  2  0  0  0
 18100  1  0  0  0
 19 20  1  0  0  0
 19 24  1  0  0  0
 20 21  2  0  0  0
 20101  1  0  0  0
 21 23  1  0  0  0
 22 28  1  0  0  0
 22 32  2  0  0  0
 26 27  1  0  0  0
 28102  1  0  0  0
 28103  1  0  0  0
 29104  1  0  0  0
 29105  1  0  0  0
 33 34  1  0  0  0
 33 66  1  0  0  0
 33 70  2  0  0  0
 34 36  1  0  0  0
 34 59  1  0  0  0
 34106  1  0  0  0
 35 44  2  0  0  0
 35 45  1  0  0  0
 35 68  1  0  0  0
 36 56  1  0  0  0
 36107  1  0  0  0
 37 39  1  0  0  0
 37 47  1  0  0  0
 37 66  1  0  0  0
 37108  1  0  0  0
 38 43  2  0  0  0
 38 46  1  0  0  0
 38 47  1  0  0  0
 39 64  1  0  0  0
 39 67  2  0  0  0
 40 52  1  0  0  0
 40 53  2  0  0  0
 40 58  1  0  0  0
 41109  1  0  0  0
 41110  1  0  0  0
 41111  1  0  0  0
 41 48  1  0  0  0
 42 43  1  0  0  0
 42 66  1  0  0  0
 42112  1  0  0  0
 42113  1  0  0  0
 43 44  1  0  0  0
 44114  1  0  0  0
 45 46  2  0  0  0
 45115  1  0  0  0
 46116  1  0  0  0
 47117  1  0  0  0
 47118  1  0  0  0
 48 56  1  0  0  0
 48 65  1  0  0  0
 48119  1  0  0  0
 49 50  1  0  0  0
 49 53  1  0  0  0
 49 64  1  0  0  0
 49120  1  0  0  0
 50 51  1  0  0  0
 50121  1  0  0  0
 50122  1  0  0  0
 51 52  1  0  0  0
 51123  1  0  0  0
 51124  1  0  0  0
 52125  1  0  0  0
 52126  1  0  0  0
 53 54  1  0  0  0
 54 55  2  0  0  0
 54127  1  0  0  0
 55 57  1  0  0  0
 55128  1  0  0  0
 56 69  2  0  0  0
 57 58  2  0  0  0
 57129  1  0  0  0
 58130  1  0  0  0
 59 60  1  0  0  0
 59 61  1  0  0  0
 59 62  1  0  0  0
 60131  1  0  0  0
 60132  1  0  0  0
 60133  1  0  0  0
 61134  1  0  0  0
 61135  1  0  0  0
 61136  1  0  0  0
 62137  1  0  0  0
 62138  1  0  0  0
 62139  1  0  0  0
 63 65  1  0  0  0
 63140  1  0  0  0
 63141  1  0  0  0
 63142  1  0  0  0
 64143  1  0  0  0
 65144  1  0  0  0
 68 79  1  0  0  0
 71 72  1  0  0  0
 71 74  2  0  0  0
 71145  1  0  0  0
 72 73  2  0  0  0
 72 84  1  0  0  0
 73 77  1  0  0  0
 73 85  1  0  0  0
 74 80  1  0  0  0
 74 85  1  0  0  0
 75 76  1  0  0  0
 75 78  1  0  0  0
 75 82  2  0  0  0
 76 80  1  0  0  0
 76 83  2  0  0  0
 77 81  1  0  0  0
 77146  1  0  0  0
 77147  1  0  0  0
 78 79  1  0  0  0
 78148  1  0  0  0
 78149  1  0  0  0
 79150  1  0  0  0
 79151  1  0  0  0
 80152  1  0  0  0
 81153  1  0  0  0
M  ISO  4   1 100  68 101  79 101  81 100
M  END
> <chiral flag>
0

> <version>
0

> <s_m_source_file>
/data/baiqing/PycharmProjects/Reinvent-master-3.2/result/LINK_invent/BTK/process_docking_weight1_custom_product_contain_oxygen_bond_distance_aromatic_linkinvent_7_9_3/rearranged_h_0178.sdf

> <i_m_source_file_index>
20

> <r_mmod_Potential_Energy-OPLS-2005>
-75.2745666503906

> <r_mmod_Stretch_Energy-OPLS-2005>
37.0319442749023

> <r_mmod_Bend_Energy-OPLS-2005>
126.821090698242

> <r_mmod_Torsional_Energy-OPLS-2005>
235.425445556641

> <r_mmod_Improper_Torsional_Energy-OPLS-2005>
3.20872926712036

> <r_mmod_Van_der_Waal_Energy-OPLS-2005>
123.957633972168

> <r_mmod_Electrostatic_Energy-OPLS-2005>
-387.092102050781

> <r_mmod_Solvation_Energy-OPLS-2005>
-226.228805541992

> <b_mmod_Minimization_Converged-OPLS-2005>
0

> <r_mmod_RMS_Derivative-OPLS-2005>
2.76452398300171

$$$$
20
                    3D
 Structure written by MMmdl.
153161  0  0  1  0            999 V2000
  -30.6469  -14.7300   20.4350 C   0  0  0  0  0  0
  -30.4148  -12.4414   19.4729 C   0  0  0  0  0  0
  -29.5018  -12.4961   18.2308 C   0  0  0  0  0  0
  -28.0284  -12.3295   18.6457 C   0  0  0  0  0  0
  -27.6348  -13.2378   19.8421 C   0  0  2  0  0  0
  -28.6801  -13.1963   20.9779 C   0  0  0  0  0  0
  -25.2479  -13.8216   20.5699 C   0  0  0  0  0  0
  -24.1786  -13.0448   20.9226 C   0  0  0  0  0  0
  -24.6386  -11.6929   20.8756 C   0  0  0  0  0  0
  -23.9070  -10.4297   21.0413 C   0  0  0  0  0  0
  -24.3624   -9.4208   21.9184 C   0  0  0  0  0  0
  -23.6298   -8.2242   22.0754 C   0  0  0  0  0  0
  -22.4278   -8.0281   21.3548 C   0  0  0  0  0  0
  -21.9914   -9.0257   20.4649 C   0  0  0  0  0  0
  -22.7244  -10.2136   20.3057 C   0  0  0  0  0  0
  -21.6857   -6.0732   22.5278 C   0  0  0  0  0  0
  -21.4017   -6.5637   23.8212 C   0  0  0  0  0  0
  -21.3660   -5.6791   24.9175 C   0  0  0  0  0  0
  -21.6043   -4.3054   24.7227 C   0  0  0  0  0  0
  -21.8819   -3.8144   23.4349 C   0  0  0  0  0  0
  -21.9194   -4.6958   22.3404 C   0  0  0  0  0  0
  -22.7805  -13.5221   21.1880 C   0  0  0  0  0  0
  -22.1660   -4.2143   21.0982 F   0  0  0  0  0  0
  -21.5628   -3.4538   25.7741 F   0  0  0  0  0  0
  -29.9800  -13.5258   20.3860 N   0  0  0  0  0  0
  -26.2902  -12.9434   20.3254 N   0  0  0  0  0  0
  -25.9314  -11.6572   20.5747 N   0  0  0  0  0  0
  -22.0453  -12.8209   22.0435 N   0  0  0  0  0  0
  -25.4150  -15.1942   20.4095 N   0  0  0  0  0  0
  -31.8511  -14.7235   20.1658 O   0  0  0  0  0  0
  -21.6644   -6.8877   21.4241 O   0  0  0  0  0  0
  -22.3490  -14.5525   20.6722 O   0  0  0  0  0  0
  -24.6290  -31.8546   23.1961 C   0  0  0  0  0  0
  -25.9120  -32.4745   23.8308 C   0  0  1  0  0  0
  -27.2236  -27.2758   20.1206 C   0  0  0  0  0  0
  -25.5918  -33.8547   24.2243 N   0  0  0  0  0  0
  -23.4234  -30.4753   21.5399 C   0  0  2  0  0  0
  -24.8671  -28.9161   20.1092 C   0  0  0  0  0  0
  -22.7481  -29.4596   22.4926 C   0  0  0  0  0  0
  -18.0285  -28.1389   22.8488 C   0  0  0  0  0  0
  -24.1487  -36.7278   23.2642 C   0  0  0  0  0  0
  -25.9651  -30.7737   21.3675 C   0  0  0  0  0  0
  -26.0360  -29.3964   20.7096 C   0  0  0  0  0  0
  -27.2121  -28.5879   20.6999 C   0  0  0  0  0  0
  -26.0223  -26.8378   19.5259 C   0  0  0  0  0  0
  -24.8641  -27.6448   19.5091 C   0  0  0  0  0  0
  -23.6378  -29.8029   20.1569 C   0  0  0  0  0  0
  -25.4114  -36.3065   24.0328 C   0  0  1  0  0  0
  -20.5884  -28.3689   23.1285 C   0  0  2  0  0  0
  -20.6769  -26.9411   22.5416 C   0  0  0  0  0  0
  -19.5748  -26.6389   21.5214 C   0  0  0  0  0  0
  -18.1928  -26.7932   22.1628 C   0  0  0  0  0  0
  -19.1538  -28.8859   23.2881 C   0  0  0  0  0  0
  -18.9461  -30.1459   23.8901 C   0  0  0  0  0  0
  -17.6459  -30.6591   24.0564 C   0  0  0  0  0  0
  -25.9054  -34.9435   23.5096 C   0  0  0  0  0  0
  -16.5351  -29.9088   23.6330 C   0  0  0  0  0  0
  -16.7271  -28.6504   23.0353 C   0  0  0  0  0  0
  -26.4497  -31.6567   25.0694 C   0  0  0  0  0  0
  -25.3725  -31.3706   26.1418 C   0  0  0  0  0  0
  -27.0340  -30.2990   24.6161 C   0  0  0  0  0  0
  -27.6055  -32.4300   25.7469 C   0  0  0  0  0  0
  -27.5578  -37.1793   24.8468 C   0  0  0  0  0  0
  -21.4192  -29.3032   22.3674 N   0  0  0  0  0  0
  -26.4288  -37.3765   23.9413 N   0  0  0  0  0  0
  -24.6920  -31.0525   22.0917 N   0  0  0  0  0  0
  -23.4192  -28.8150   23.3028 O   0  0  0  0  0  0
  -28.3777  -26.4726   20.2071 O   0  0  0  0  0  0
  -26.5636  -34.8911   22.4670 O   0  0  0  0  0  0
  -23.5449  -32.1356   23.7278 O   0  0  0  0  0  0
  -28.3180  -18.9019   20.9839 C   0  0  0  0  0  0
  -29.5371  -18.5137   20.4515 C   0  0  0  0  0  0
  -28.9237  -21.0437   20.2653 C   0  0  0  0  0  0
  -30.3992  -17.2224   20.4260 C   0  0  0  0  0  0
  -28.3909  -25.0612   18.1367 C   0  0  0  0  0  0
  -30.1927  -25.1433   19.8348 C   0  0  0  0  0  0
  -28.1514  -23.7370   20.3644 C   0  0  0  0  0  0
  -28.6610  -25.1058   19.6542 C   0  0  0  0  0  0
  -27.9908  -20.2952   20.8766 N   0  0  0  0  0  0
  -28.9031  -22.4653   20.0193 N   0  0  0  0  0  0
  -29.9227  -15.9189   20.5605 N   0  0  0  0  0  0
  -31.6047  -17.4315   20.2491 O   0  0  0  0  0  0
  -30.2914  -19.9939   19.7817 S   0  0  0  0  0  0
  -31.4591  -12.5318   19.1697 H   0  0  0  0  0  0
  -30.3346  -11.4719   19.9670 H   0  0  0  0  0  0
  -29.7800  -11.7151   17.5214 H   0  0  0  0  0  0
  -29.6361  -13.4460   17.7108 H   0  0  0  0  0  0
  -27.8826  -11.2830   18.9151 H   0  0  0  0  0  0
  -27.3714  -12.5162   17.7953 H   0  0  0  0  0  0
  -27.6227  -14.2547   19.4496 H   0  0  0  0  0  0
  -28.7112  -12.2112   21.4459 H   0  0  0  0  0  0
  -28.4227  -13.9051   21.7669 H   0  0  0  0  0  0
  -25.2768   -9.5683   22.4759 H   0  0  0  0  0  0
  -24.0004   -7.4636   22.7477 H   0  0  0  0  0  0
  -21.0842   -8.8777   19.8958 H   0  0  0  0  0  0
  -22.3701  -10.9675   19.6164 H   0  0  0  0  0  0
  -21.2009   -7.6146   23.9714 H   0  0  0  0  0  0
  -21.1482   -6.0521   25.9078 H   0  0  0  0  0  0
  -22.0598   -2.7604   23.2853 H   0  0  0  0  0  0
  -22.4071  -11.9873   22.4830 H   0  0  0  0  0  0
  -21.1068  -13.1225   22.2637 H   0  0  0  0  0  0
  -24.6391  -15.8406   20.5069 H   0  0  0  0  0  0
  -26.2439  -15.6291   20.0268 H   0  0  0  0  0  0
  -26.7182  -32.5397   23.1043 H   0  0  0  0  0  0
  -25.0039  -33.9674   25.0372 H   0  0  0  0  0  0
  -22.7190  -31.2968   21.3929 H   0  0  0  0  0  0
  -23.3751  -35.9609   23.3305 H   0  0  0  0  0  0
  -24.3578  -36.8901   22.2057 H   0  0  0  0  0  0
  -23.7235  -37.6476   23.6666 H   0  0  0  0  0  0
  -26.0988  -31.5353   20.5980 H   0  0  0  0  0  0
  -26.8449  -30.8244   21.9976 H   0  0  0  0  0  0
  -28.1118  -28.9545   21.1741 H   0  0  0  0  0  0
  -25.9398  -25.8470   19.1122 H   0  0  0  0  0  0
  -23.9599  -27.2625   19.0554 H   0  0  0  0  0  0
  -23.7590  -30.5758   19.3969 H   0  0  0  0  0  0
  -22.7561  -29.2339   19.8570 H   0  0  0  0  0  0
  -25.1296  -36.1914   25.0821 H   0  0  0  0  0  0
  -20.9978  -28.3268   24.1404 H   0  0  0  0  0  0
  -20.5663  -26.2299   23.3616 H   0  0  0  0  0  0
  -21.6638  -26.7434   22.1215 H   0  0  0  0  0  0
  -19.6907  -25.6301   21.1238 H   0  0  0  0  0  0
  -19.6690  -27.3204   20.6748 H   0  0  0  0  0  0
  -17.4197  -26.6681   21.4030 H   0  0  0  0  0  0
  -18.0330  -26.0076   22.9027 H   0  0  0  0  0  0
  -19.7934  -30.7274   24.2278 H   0  0  0  0  0  0
  -17.5010  -31.6271   24.5166 H   0  0  0  0  0  0
  -15.5351  -30.2991   23.7650 H   0  0  0  0  0  0
  -15.8670  -28.0822   22.7070 H   0  0  0  0  0  0
  -24.5917  -30.7033   25.7747 H   0  0  0  0  0  0
  -24.8889  -32.2864   26.4824 H   0  0  0  0  0  0
  -25.8048  -30.8900   27.0203 H   0  0  0  0  0  0
  -26.2913  -29.6737   24.1190 H   0  0  0  0  0  0
  -27.4043  -29.7251   25.4667 H   0  0  0  0  0  0
  -27.8778  -30.4272   23.9378 H   0  0  0  0  0  0
  -27.2673  -33.3607   26.2034 H   0  0  0  0  0  0
  -28.3873  -32.6845   25.0301 H   0  0  0  0  0  0
  -28.0712  -31.8425   26.5392 H   0  0  0  0  0  0
  -28.2598  -38.0088   24.7514 H   0  0  0  0  0  0
  -28.1073  -36.2620   24.6298 H   0  0  0  0  0  0
  -27.2298  -37.1448   25.8871 H   0  0  0  0  0  0
  -20.9381  -29.8740   21.6866 H   0  0  0  0  0  0
  -26.0170  -38.2841   24.1412 H   0  0  0  0  0  0
  -27.6234  -18.2559   21.5019 H   0  0  0  0  0  0
  -28.9191  -24.2282   17.6720 H   0  0  0  0  0  0
  -28.7281  -25.9741   17.6457 H   0  0  0  0  0  0
  -27.3413  -24.9176   17.8934 H   0  0  0  0  0  0
  -30.6954  -24.3026   19.3580 H   0  0  0  0  0  0
  -30.4640  -25.1306   20.8909 H   0  0  0  0  0  0
  -30.6220  -26.0467   19.3987 H   0  0  0  0  0  0
  -27.0916  -23.5896   20.1521 H   0  0  0  0  0  0
  -28.2200  -23.8641   21.4457 H   0  0  0  0  0  0
  -29.7247  -22.7157   19.4800 H   0  0  0  0  0  0
  -28.9338  -15.8226   20.7104 H   0  0  0  0  0  0
  1 25  1  0  0  0
  1 30  2  0  0  0
  1 81  1  0  0  0
  2  3  1  0  0  0
  2 25  1  0  0  0
  2 84  1  0  0  0
  2 85  1  0  0  0
  3  4  1  0  0  0
  3 86  1  0  0  0
  3 87  1  0  0  0
  4  5  1  0  0  0
  4 88  1  0  0  0
  4 89  1  0  0  0
  5  6  1  0  0  0
  5 26  1  0  0  0
  5 90  1  0  0  0
  6 25  1  0  0  0
  6 91  1  0  0  0
  6 92  1  0  0  0
  7  8  2  0  0  0
  7 26  1  0  0  0
  7 29  1  0  0  0
  8  9  1  0  0  0
  8 22  1  0  0  0
  9 10  1  0  0  0
  9 27  2  0  0  0
 10 11  2  0  0  0
 10 15  1  0  0  0
 11 12  1  0  0  0
 11 93  1  0  0  0
 12 13  2  0  0  0
 12 94  1  0  0  0
 13 14  1  0  0  0
 13 31  1  0  0  0
 14 15  2  0  0  0
 14 95  1  0  0  0
 15 96  1  0  0  0
 16 17  2  0  0  0
 16 21  1  0  0  0
 16 31  1  0  0  0
 17 18  1  0  0  0
 17 97  1  0  0  0
 18 19  2  0  0  0
 18 98  1  0  0  0
 19 20  1  0  0  0
 19 24  1  0  0  0
 20 21  2  0  0  0
 20 99  1  0  0  0
 21 23  1  0  0  0
 22 28  1  0  0  0
 22 32  2  0  0  0
 26 27  1  0  0  0
 28100  1  0  0  0
 28101  1  0  0  0
 29102  1  0  0  0
 29103  1  0  0  0
 33 34  1  0  0  0
 33 66  1  0  0  0
 33 70  2  0  0  0
 34 36  1  0  0  0
 34 59  1  0  0  0
 34104  1  0  0  0
 35 44  2  0  0  0
 35 45  1  0  0  0
 35 68  1  0  0  0
 36 56  1  0  0  0
 36105  1  0  0  0
 37 39  1  0  0  0
 37 47  1  0  0  0
 37 66  1  0  0  0
 37106  1  0  0  0
 38 43  2  0  0  0
 38 46  1  0  0  0
 38 47  1  0  0  0
 39 64  1  0  0  0
 39 67  2  0  0  0
 40 52  1  0  0  0
 40 53  2  0  0  0
 40 58  1  0  0  0
 41107  1  0  0  0
 41108  1  0  0  0
 41109  1  0  0  0
 41 48  1  0  0  0
 42 43  1  0  0  0
 42 66  1  0  0  0
 42110  1  0  0  0
 42111  1  0  0  0
 43 44  1  0  0  0
 44112  1  0  0  0
 45 46  2  0  0  0
 45113  1  0  0  0
 46114  1  0  0  0
 47115  1  0  0  0
 47116  1  0  0  0
 48 56  1  0  0  0
 48 65  1  0  0  0
 48117  1  0  0  0
 49 50  1  0  0  0
 49 53  1  0  0  0
 49 64  1  0  0  0
 49118  1  0  0  0
 50 51  1  0  0  0
 50119  1  0  0  0
 50120  1  0  0  0
 51 52  1  0  0  0
 51121  1  0  0  0
 51122  1  0  0  0
 52123  1  0  0  0
 52124  1  0  0  0
 53 54  1  0  0  0
 54 55  2  0  0  0
 54125  1  0  0  0
 55 57  1  0  0  0
 55126  1  0  0  0
 56 69  2  0  0  0
 57 58  2  0  0  0
 57127  1  0  0  0
 58128  1  0  0  0
 59 60  1  0  0  0
 59 61  1  0  0  0
 59 62  1  0  0  0
 60129  1  0  0  0
 60130  1  0  0  0
 60131  1  0  0  0
 61132  1  0  0  0
 61133  1  0  0  0
 61134  1  0  0  0
 62135  1  0  0  0
 62136  1  0  0  0
 62137  1  0  0  0
 63 65  1  0  0  0
 63138  1  0  0  0
 63139  1  0  0  0
 63140  1  0  0  0
 64141  1  0  0  0
 65142  1  0  0  0
 68 78  1  0  0  0
 71 72  2  0  0  0
 71 79  1  0  0  0
 71143  1  0  0  0
 72 74  1  0  0  0
 72 83  1  0  0  0
 73 79  2  0  0  0
 73 80  1  0  0  0
 73 83  1  0  0  0
 74 81  1  0  0  0
 74 82  2  0  0  0
 75144  1  0  0  0
 75145  1  0  0  0
 75146  1  0  0  0
 75 78  1  0  0  0
 76 78  1  0  0  0
 76147  1  0  0  0
 76148  1  0  0  0
 76149  1  0  0  0
 77 78  1  0  0  0
 77 80  1  0  0  0
 77150  1  0  0  0
 77151  1  0  0  0
 80152  1  0  0  0
 81153  1  0  0  0
M  ISO  4   1 100  68 101  78 101  81 100
M  END
> <chiral flag>
0

> <version>
0

> <s_m_source_file>
/data/baiqing/PycharmProjects/Reinvent-master-3.2/result/LINK_invent/BTK/process_docking_weight1_custom_product_contain_oxygen_bond_distance_aromatic_linkinvent_7_9_3/rearranged_h_0178.sdf

> <i_m_source_file_index>
21

> <r_mmod_Potential_Energy-OPLS-2005>
-58.4901008605957

> <r_mmod_Stretch_Energy-OPLS-2005>
108.396614074707

> <r_mmod_Bend_Energy-OPLS-2005>
207.719299316406

> <r_mmod_Torsional_Energy-OPLS-2005>
210.331146240234

> <r_mmod_Improper_Torsional_Energy-OPLS-2005>
5.69344663619995

> <r_mmod_Van_der_Waal_Energy-OPLS-2005>
129.077774047852

> <r_mmod_Electrostatic_Energy-OPLS-2005>
-553.753601074219

> <r_mmod_Solvation_Energy-OPLS-2005>
-242.721176147461

> <b_mmod_Minimization_Converged-OPLS-2005>
0

> <r_mmod_RMS_Derivative-OPLS-2005>
0.748091757297516

$$$$
21
                    3D
 Structure written by MMmdl.
153161  0  0  1  0            999 V2000
  -30.6705  -14.5487   20.4598 C   0  0  0  0  0  0
  -30.4243  -12.3286   19.4433 C   0  0  0  0  0  0
  -29.4976  -12.4689   18.2172 C   0  0  0  0  0  0
  -28.0252  -12.3129   18.6415 C   0  0  0  0  0  0
  -27.6524  -13.2053   19.8555 C   0  0  2  0  0  0
  -28.6956  -13.0715   20.9882 C   0  0  0  0  0  0
  -25.2585  -13.8147   20.5639 C   0  0  0  0  0  0
  -24.1829  -13.0444   20.9162 C   0  0  0  0  0  0
  -24.6373  -11.6907   20.8718 C   0  0  0  0  0  0
  -23.9021  -10.4296   21.0402 C   0  0  0  0  0  0
  -24.3586   -9.4217   21.9178 C   0  0  0  0  0  0
  -23.6286   -8.2242   22.0745 C   0  0  0  0  0  0
  -22.4260   -8.0276   21.3542 C   0  0  0  0  0  0
  -21.9865   -9.0250   20.4656 C   0  0  0  0  0  0
  -22.7180  -10.2138   20.3074 C   0  0  0  0  0  0
  -21.6853   -6.0724   22.5264 C   0  0  0  0  0  0
  -21.4018   -6.5630   23.8194 C   0  0  0  0  0  0
  -21.3657   -5.6784   24.9164 C   0  0  0  0  0  0
  -21.6047   -4.3044   24.7209 C   0  0  0  0  0  0
  -21.8831   -3.8137   23.4330 C   0  0  0  0  0  0
  -21.9189   -4.6955   22.3384 C   0  0  0  0  0  0
  -22.7868  -13.5267   21.1845 C   0  0  0  0  0  0
  -22.1656   -4.2149   21.0966 F   0  0  0  0  0  0
  -21.5633   -3.4524   25.7714 F   0  0  0  0  0  0
  -30.0193  -13.3552   20.4186 N   0  0  0  0  0  0
  -26.2978  -12.9299   20.3278 N   0  0  0  0  0  0
  -25.9292  -11.6468   20.5744 N   0  0  0  0  0  0
  -22.0507  -12.8290   22.0416 N   0  0  0  0  0  0
  -25.4364  -15.1858   20.4030 N   0  0  0  0  0  0
  -31.8661  -14.6426   20.1763 O   0  0  0  0  0  0
  -21.6647   -6.8860   21.4220 O   0  0  0  0  0  0
  -22.3555  -14.5586   20.6702 O   0  0  0  0  0  0
  -24.6187  -31.8671   23.2086 C   0  0  0  0  0  0
  -25.9067  -32.4817   23.8388 C   0  0  1  0  0  0
  -27.2265  -27.3962   20.0965 C   0  0  0  0  0  0
  -25.5917  -33.8618   24.2329 N   0  0  0  0  0  0
  -23.4076  -30.4902   21.5513 C   0  0  2  0  0  0
  -24.8489  -28.9521   20.1141 C   0  0  0  0  0  0
  -22.7443  -29.4659   22.5007 C   0  0  0  0  0  0
  -18.0284  -28.1383   22.8462 C   0  0  0  0  0  0
  -24.1495  -36.7318   23.2633 C   0  0  0  0  0  0
  -25.9398  -30.8195   21.3674 C   0  0  0  0  0  0
  -26.0119  -29.4518   20.7111 C   0  0  0  0  0  0
  -27.2015  -28.6840   20.6925 C   0  0  0  0  0  0
  -26.0349  -26.9135   19.5065 C   0  0  0  0  0  0
  -24.8570  -27.6844   19.5090 C   0  0  0  0  0  0
  -23.6152  -29.8252   20.1640 C   0  0  0  0  0  0
  -25.4112  -36.3118   24.0337 C   0  0  1  0  0  0
  -20.5867  -28.3681   23.1310 C   0  0  2  0  0  0
  -20.6775  -26.9413   22.5440 C   0  0  0  0  0  0
  -19.5773  -26.6379   21.5219 C   0  0  0  0  0  0
  -18.1930  -26.7933   22.1587 C   0  0  0  0  0  0
  -19.1529  -28.8850   23.2875 C   0  0  0  0  0  0
  -18.9460  -30.1446   23.8906 C   0  0  0  0  0  0
  -17.6458  -30.6579   24.0571 C   0  0  0  0  0  0
  -25.9042  -34.9481   23.5130 C   0  0  0  0  0  0
  -16.5352  -29.9082   23.6316 C   0  0  0  0  0  0
  -16.7273  -28.6503   23.0329 C   0  0  0  0  0  0
  -26.4479  -31.6597   25.0724 C   0  0  0  0  0  0
  -25.3741  -31.3748   26.1482 C   0  0  0  0  0  0
  -27.0266  -30.3013   24.6127 C   0  0  0  0  0  0
  -27.6099  -32.4298   25.7434 C   0  0  0  0  0  0
  -27.5614  -37.1786   24.8445 C   0  0  0  0  0  0
  -21.4174  -29.3029   22.3718 N   0  0  0  0  0  0
  -26.4296  -37.3802   23.9427 N   0  0  0  0  0  0
  -24.6736  -31.0743   22.1001 N   0  0  0  0  0  0
  -23.4200  -28.8210   23.3071 O   0  0  0  0  0  0
  -28.4091  -26.6705   20.1075 O   0  0  0  0  0  0
  -26.5612  -34.8933   22.4696 O   0  0  0  0  0  0
  -23.5371  -32.1458   23.7458 O   0  0  0  0  0  0
  -29.3409  -18.1037   20.4847 C   0  0  0  0  0  0
  -30.9949  -17.1793   18.9576 C   0  0  0  0  0  0
  -30.0941  -16.9732   20.0327 C   0  0  0  0  0  0
  -29.5132  -19.4012   19.9085 C   0  0  0  0  0  0
  -31.1658  -18.4458   18.3751 C   0  0  0  0  0  0
  -30.4303  -19.5492   18.8386 C   0  0  0  0  0  0
  -27.8565  -22.8179   20.4721 C   0  0  0  0  0  0
  -29.0689  -21.8223   20.4234 C   0  0  0  0  0  0
  -28.1028  -24.2925   20.8800 C   0  0  0  0  0  0
  -28.4449  -25.2734   19.7216 C   0  0  0  0  0  0
  -28.7002  -20.5199   20.3185 N   0  0  0  0  0  0
  -29.8865  -15.6530   20.6028 N   0  0  0  0  0  0
  -26.7070  -22.4385   20.2169 O   0  0  0  0  0  0
  -30.2384  -22.2117   20.5178 O   0  0  0  0  0  0
  -32.0280  -18.5989   17.3414 F   0  0  0  0  0  0
  -30.5813  -20.7364   18.2035 F   0  0  0  0  0  0
  -31.4674  -12.4266   19.1358 H   0  0  0  0  0  0
  -30.3384  -11.3368   19.8866 H   0  0  0  0  0  0
  -29.7490  -11.7138   17.4692 H   0  0  0  0  0  0
  -29.6474  -13.4374   17.7403 H   0  0  0  0  0  0
  -27.8744  -11.2638   18.8984 H   0  0  0  0  0  0
  -27.3661  -12.5170   17.7979 H   0  0  0  0  0  0
  -27.6696  -14.2342   19.4960 H   0  0  0  0  0  0
  -28.6823  -12.0658   21.4097 H   0  0  0  0  0  0
  -28.4649  -13.7457   21.8154 H   0  0  0  0  0  0
  -25.2734   -9.5706   22.4740 H   0  0  0  0  0  0
  -24.0008   -7.4629   22.7454 H   0  0  0  0  0  0
  -21.0787   -8.8774   19.8959 H   0  0  0  0  0  0
  -22.3631  -10.9685   19.6198 H   0  0  0  0  0  0
  -21.2026   -7.6135   23.9700 H   0  0  0  0  0  0
  -21.1465   -6.0514   25.9065 H   0  0  0  0  0  0
  -22.0613   -2.7597   23.2837 H   0  0  0  0  0  0
  -22.4113  -11.9967   22.4847 H   0  0  0  0  0  0
  -21.1154  -13.1372   22.2645 H   0  0  0  0  0  0
  -24.6802  -15.8510   20.5159 H   0  0  0  0  0  0
  -26.2893  -15.6088   20.0596 H   0  0  0  0  0  0
  -26.7133  -32.5511   23.1147 H   0  0  0  0  0  0
  -25.0090  -33.9778   25.0490 H   0  0  0  0  0  0
  -22.6960  -31.3075   21.4138 H   0  0  0  0  0  0
  -23.3773  -35.9631   23.3255 H   0  0  0  0  0  0
  -24.3616  -36.8979   22.2059 H   0  0  0  0  0  0
  -23.7217  -37.6495   23.6680 H   0  0  0  0  0  0
  -26.0594  -31.5870   20.6018 H   0  0  0  0  0  0
  -26.8244  -30.8695   21.9897 H   0  0  0  0  0  0
  -28.1028  -29.0727   21.1449 H   0  0  0  0  0  0
  -25.9821  -25.9446   19.0371 H   0  0  0  0  0  0
  -23.9614  -27.2933   19.0467 H   0  0  0  0  0  0
  -23.7308  -30.6024   19.4079 H   0  0  0  0  0  0
  -22.7355  -29.2518   19.8657 H   0  0  0  0  0  0
  -25.1271  -36.1984   25.0826 H   0  0  0  0  0  0
  -20.9930  -28.3269   24.1445 H   0  0  0  0  0  0
  -20.5652  -26.2313   23.3648 H   0  0  0  0  0  0
  -21.6660  -26.7440   22.1276 H   0  0  0  0  0  0
  -19.6939  -25.6287   21.1265 H   0  0  0  0  0  0
  -19.6716  -27.3182   20.6744 H   0  0  0  0  0  0
  -17.4227  -26.6708   21.3962 H   0  0  0  0  0  0
  -18.0278  -26.0072   22.8965 H   0  0  0  0  0  0
  -19.7935  -30.7253   24.2291 H   0  0  0  0  0  0
  -17.5013  -31.6251   24.5180 H   0  0  0  0  0  0
  -15.5355  -30.2976   23.7633 H   0  0  0  0  0  0
  -15.8679  -28.0822   22.7032 H   0  0  0  0  0  0
  -24.5925  -30.7060   25.7857 H   0  0  0  0  0  0
  -24.8910  -32.2915   26.4877 H   0  0  0  0  0  0
  -25.8089  -30.8981   27.0276 H   0  0  0  0  0  0
  -26.2784  -29.6787   24.1205 H   0  0  0  0  0  0
  -27.4022  -29.7248   25.4593 H   0  0  0  0  0  0
  -27.8645  -30.4292   23.9272 H   0  0  0  0  0  0
  -27.2768  -33.3581   26.2090 H   0  0  0  0  0  0
  -28.3827  -32.6887   25.0182 H   0  0  0  0  0  0
  -28.0862  -31.8378   26.5263 H   0  0  0  0  0  0
  -28.2598  -38.0120   24.7569 H   0  0  0  0  0  0
  -28.1143  -36.2667   24.6136 H   0  0  0  0  0  0
  -27.2376  -37.1287   25.8856 H   0  0  0  0  0  0
  -20.9370  -29.8745   21.6912 H   0  0  0  0  0  0
  -26.0194  -38.2876   24.1469 H   0  0  0  0  0  0
  -28.6245  -17.9775   21.2835 H   0  0  0  0  0  0
  -31.5652  -16.3701   18.5296 H   0  0  0  0  0  0
  -28.8904  -24.3201   21.6312 H   0  0  0  0  0  0
  -27.1983  -24.6372   21.3782 H   0  0  0  0  0  0
  -27.8627  -25.0721   18.8232 H   0  0  0  0  0  0
  -29.4755  -25.0802   19.4218 H   0  0  0  0  0  0
  -27.7076  -20.3557   20.4236 H   0  0  0  0  0  0
  -28.9658  -15.4749   20.9744 H   0  0  0  0  0  0
  1 25  1  0  0  0
  1 30  2  0  0  0
  1 82  1  0  0  0
  2  3  1  0  0  0
  2 25  1  0  0  0
  2 87  1  0  0  0
  2 88  1  0  0  0
  3  4  1  0  0  0
  3 89  1  0  0  0
  3 90  1  0  0  0
  4  5  1  0  0  0
  4 91  1  0  0  0
  4 92  1  0  0  0
  5  6  1  0  0  0
  5 26  1  0  0  0
  5 93  1  0  0  0
  6 25  1  0  0  0
  6 94  1  0  0  0
  6 95  1  0  0  0
  7  8  2  0  0  0
  7 26  1  0  0  0
  7 29  1  0  0  0
  8  9  1  0  0  0
  8 22  1  0  0  0
  9 10  1  0  0  0
  9 27  2  0  0  0
 10 11  2  0  0  0
 10 15  1  0  0  0
 11 12  1  0  0  0
 11 96  1  0  0  0
 12 13  2  0  0  0
 12 97  1  0  0  0
 13 14  1  0  0  0
 13 31  1  0  0  0
 14 15  2  0  0  0
 14 98  1  0  0  0
 15 99  1  0  0  0
 16 17  2  0  0  0
 16 21  1  0  0  0
 16 31  1  0  0  0
 17 18  1  0  0  0
 17100  1  0  0  0
 18 19  2  0  0  0
 18101  1  0  0  0
 19 20  1  0  0  0
 19 24  1  0  0  0
 20 21  2  0  0  0
 20102  1  0  0  0
 21 23  1  0  0  0
 22 28  1  0  0  0
 22 32  2  0  0  0
 26 27  1  0  0  0
 28103  1  0  0  0
 28104  1  0  0  0
 29105  1  0  0  0
 29106  1  0  0  0
 33 34  1  0  0  0
 33 66  1  0  0  0
 33 70  2  0  0  0
 34 36  1  0  0  0
 34 59  1  0  0  0
 34107  1  0  0  0
 35 44  2  0  0  0
 35 45  1  0  0  0
 35 68  1  0  0  0
 36 56  1  0  0  0
 36108  1  0  0  0
 37 39  1  0  0  0
 37 47  1  0  0  0
 37 66  1  0  0  0
 37109  1  0  0  0
 38 43  2  0  0  0
 38 46  1  0  0  0
 38 47  1  0  0  0
 39 64  1  0  0  0
 39 67  2  0  0  0
 40 52  1  0  0  0
 40 53  2  0  0  0
 40 58  1  0  0  0
 41110  1  0  0  0
 41111  1  0  0  0
 41112  1  0  0  0
 41 48  1  0  0  0
 42 43  1  0  0  0
 42 66  1  0  0  0
 42113  1  0  0  0
 42114  1  0  0  0
 43 44  1  0  0  0
 44115  1  0  0  0
 45 46  2  0  0  0
 45116  1  0  0  0
 46117  1  0  0  0
 47118  1  0  0  0
 47119  1  0  0  0
 48 56  1  0  0  0
 48 65  1  0  0  0
 48120  1  0  0  0
 49 50  1  0  0  0
 49 53  1  0  0  0
 49 64  1  0  0  0
 49121  1  0  0  0
 50 51  1  0  0  0
 50122  1  0  0  0
 50123  1  0  0  0
 51 52  1  0  0  0
 51124  1  0  0  0
 51125  1  0  0  0
 52126  1  0  0  0
 52127  1  0  0  0
 53 54  1  0  0  0
 54 55  2  0  0  0
 54128  1  0  0  0
 55 57  1  0  0  0
 55129  1  0  0  0
 56 69  2  0  0  0
 57 58  2  0  0  0
 57130  1  0  0  0
 58131  1  0  0  0
 59 60  1  0  0  0
 59 61  1  0  0  0
 59 62  1  0  0  0
 60132  1  0  0  0
 60133  1  0  0  0
 60134  1  0  0  0
 61135  1  0  0  0
 61136  1  0  0  0
 61137  1  0  0  0
 62138  1  0  0  0
 62139  1  0  0  0
 62140  1  0  0  0
 63 65  1  0  0  0
 63141  1  0  0  0
 63142  1  0  0  0
 63143  1  0  0  0
 64144  1  0  0  0
 65145  1  0  0  0
 68 80  1  0  0  0
 71 73  2  0  0  0
 71 74  1  0  0  0
 71146  1  0  0  0
 72 73  1  0  0  0
 72 75  2  0  0  0
 72147  1  0  0  0
 73 82  1  0  0  0
 74 76  2  0  0  0
 74 81  1  0  0  0
 75 76  1  0  0  0
 75 85  1  0  0  0
 76 86  1  0  0  0
 77 78  1  0  0  0
 77 79  1  0  0  0
 77 83  2  0  0  0
 78 81  1  0  0  0
 78 84  2  0  0  0
 79 80  1  0  0  0
 79148  1  0  0  0
 79149  1  0  0  0
 80150  1  0  0  0
 80151  1  0  0  0
 81152  1  0  0  0
 82153  1  0  0  0
M  ISO  4   1 100  68 101  80 101  82 100
M  END
> <chiral flag>
0

> <version>
0

> <s_m_source_file>
/data/baiqing/PycharmProjects/Reinvent-master-3.2/result/LINK_invent/BTK/process_docking_weight1_custom_product_contain_oxygen_bond_distance_aromatic_linkinvent_7_9_3/rearranged_h_0178.sdf

> <i_m_source_file_index>
22

> <r_mmod_Potential_Energy-OPLS-2005>
9.92996215820312

> <r_mmod_Stretch_Energy-OPLS-2005>
50.53125

> <r_mmod_Bend_Energy-OPLS-2005>
110.789436340332

> <r_mmod_Torsional_Energy-OPLS-2005>
248.929946899414

> <r_mmod_Improper_Torsional_Energy-OPLS-2005>
6.6077766418457

> <r_mmod_Van_der_Waal_Energy-OPLS-2005>
156.657775878906

> <r_mmod_Electrostatic_Energy-OPLS-2005>
-358.189819335938

> <r_mmod_Solvation_Energy-OPLS-2005>
-233.344955444336

> <b_mmod_Minimization_Converged-OPLS-2005>
0

> <r_mmod_RMS_Derivative-OPLS-2005>
2.91417384147644

$$$$
22
                    3D
 Structure written by MMmdl.
152160  0  0  1  0            999 V2000
  -30.6807  -14.4877   20.6088 C   0  0  0  0  0  0
  -30.4386  -12.3291   19.4194 C   0  0  0  0  0  0
  -29.4969  -12.5103   18.2092 C   0  0  0  0  0  0
  -28.0200  -12.3621   18.6255 C   0  0  0  0  0  0
  -27.6659  -13.2010   19.8807 C   0  0  2  0  0  0
  -28.7059  -12.9623   20.9978 C   0  0  0  0  0  0
  -25.2599  -13.8147   20.5685 C   0  0  0  0  0  0
  -24.1841  -13.0430   20.9179 C   0  0  0  0  0  0
  -24.6389  -11.6895   20.8746 C   0  0  0  0  0  0
  -23.9056  -10.4285   21.0415 C   0  0  0  0  0  0
  -24.3607   -9.4203   21.9187 C   0  0  0  0  0  0
  -23.6291   -8.2236   22.0757 C   0  0  0  0  0  0
  -22.4272   -8.0275   21.3550 C   0  0  0  0  0  0
  -21.9907   -9.0245   20.4654 C   0  0  0  0  0  0
  -22.7232  -10.2127   20.3066 C   0  0  0  0  0  0
  -21.6842   -6.0738   22.5277 C   0  0  0  0  0  0
  -21.4006   -6.5645   23.8209 C   0  0  0  0  0  0
  -21.3658   -5.6798   24.9175 C   0  0  0  0  0  0
  -21.6047   -4.3058   24.7222 C   0  0  0  0  0  0
  -21.8816   -3.8148   23.4341 C   0  0  0  0  0  0
  -21.9193   -4.6970   22.3401 C   0  0  0  0  0  0
  -22.7868  -13.5239   21.1847 C   0  0  0  0  0  0
  -22.1662   -4.2156   21.0981 F   0  0  0  0  0  0
  -21.5632   -3.4540   25.7734 F   0  0  0  0  0  0
  -30.0411  -13.2905   20.4619 N   0  0  0  0  0  0
  -26.3033  -12.9305   20.3384 N   0  0  0  0  0  0
  -25.9312  -11.6469   20.5781 N   0  0  0  0  0  0
  -22.0501  -12.8236   22.0408 N   0  0  0  0  0  0
  -25.4331  -15.1862   20.4052 N   0  0  0  0  0  0
  -31.7600  -14.7329   20.0572 O   0  0  0  0  0  0
  -21.6635   -6.8873   21.4239 O   0  0  0  0  0  0
  -22.3557  -14.5548   20.6701 O   0  0  0  0  0  0
  -24.6125  -31.8671   23.2104 C   0  0  0  0  0  0
  -25.9020  -32.4825   23.8386 C   0  0  1  0  0  0
  -27.2277  -27.4343   20.0853 C   0  0  0  0  0  0
  -25.5876  -33.8618   24.2317 N   0  0  0  0  0  0
  -23.3992  -30.4937   21.5518 C   0  0  2  0  0  0
  -24.8429  -28.9623   20.1118 C   0  0  0  0  0  0
  -22.7405  -29.4647   22.4993 C   0  0  0  0  0  0
  -18.0274  -28.1366   22.8512 C   0  0  0  0  0  0
  -24.1486  -36.7306   23.2642 C   0  0  0  0  0  0
  -25.9265  -30.8347   21.3601 C   0  0  0  0  0  0
  -26.0030  -29.4685   20.7093 C   0  0  0  0  0  0
  -27.1956  -28.7102   20.6969 C   0  0  0  0  0  0
  -26.0468  -26.9489   19.4730 C   0  0  0  0  0  0
  -24.8591  -27.7022   19.4928 C   0  0  0  0  0  0
  -23.6040  -29.8281   20.1642 C   0  0  0  0  0  0
  -25.4104  -36.3107   24.0345 C   0  0  1  0  0  0
  -20.5864  -28.3630   23.1341 C   0  0  2  0  0  0
  -20.6759  -26.9370   22.5430 C   0  0  0  0  0  0
  -19.5735  -26.6370   21.5220 C   0  0  0  0  0  0
  -18.1913  -26.7922   22.1630 C   0  0  0  0  0  0
  -19.1519  -28.8818   23.2928 C   0  0  0  0  0  0
  -18.9456  -30.1439   23.8917 C   0  0  0  0  0  0
  -17.6455  -30.6579   24.0571 C   0  0  0  0  0  0
  -25.9013  -34.9470   23.5125 C   0  0  0  0  0  0
  -16.5343  -29.9092   23.6334 C   0  0  0  0  0  0
  -16.7259  -28.6508   23.0349 C   0  0  0  0  0  0
  -26.4457  -31.6605   25.0705 C   0  0  0  0  0  0
  -25.3738  -31.3732   26.1472 C   0  0  0  0  0  0
  -27.0267  -30.3054   24.6030 C   0  0  0  0  0  0
  -27.6040  -32.4311   25.7460 C   0  0  0  0  0  0
  -27.5579  -37.1803   24.8467 C   0  0  0  0  0  0
  -21.4132  -29.3012   22.3757 N   0  0  0  0  0  0
  -26.4286  -37.3791   23.9421 N   0  0  0  0  0  0
  -24.6652  -31.0785   22.0999 N   0  0  0  0  0  0
  -23.4202  -28.8170   23.2991 O   0  0  0  0  0  0
  -28.4050  -26.7120   20.0967 O   0  0  0  0  0  0
  -26.5591  -34.8934   22.4692 O   0  0  0  0  0  0
  -23.5326  -32.1400   23.7535 O   0  0  0  0  0  0
  -30.2566  -18.9481   20.5032 C   0  0  0  0  0  0
  -29.7523  -19.5819   21.6627 C   0  0  0  0  0  0
  -29.4164  -18.7489   22.7444 C   0  0  0  0  0  0
  -29.5436  -17.3503   22.6257 C   0  0  0  0  0  0
  -30.0487  -16.7972   21.4302 C   0  0  0  0  0  0
  -29.4705  -24.5726   20.6150 C   0  0  0  0  0  0
  -29.4285  -21.9787   20.9271 C   0  0  0  0  0  0
  -28.3150  -25.2888   19.8937 C   0  0  0  0  0  0
  -29.1168  -23.3742   21.5250 C   0  0  1  0  0  0
  -30.4053  -17.6000   20.3906 N   0  0  0  0  0  0
  -29.5759  -20.9924   21.8353 N   0  0  0  0  0  0
  -30.0458  -15.3696   21.4041 N   0  0  0  0  0  0
  -30.6343  -24.9889   20.5115 O   0  0  0  0  0  0
  -29.4888  -21.7812   19.7101 O   0  0  0  0  0  0
  -28.9457  -19.2987   23.8950 F   0  0  0  0  0  0
  -29.1703  -16.5365   23.6472 F   0  0  0  0  0  0
  -29.7539  -23.4941   22.6975 F   0  0  0  0  0  0
  -31.4762  -12.4592   19.1082 H   0  0  0  0  0  0
  -30.3745  -11.3107   19.8063 H   0  0  0  0  0  0
  -29.7395  -11.7806   17.4349 H   0  0  0  0  0  0
  -29.6539  -13.4932   17.7622 H   0  0  0  0  0  0
  -27.8400  -11.3059   18.8283 H   0  0  0  0  0  0
  -27.3634  -12.6260   17.7956 H   0  0  0  0  0  0
  -27.7171  -14.2516   19.5919 H   0  0  0  0  0  0
  -28.6870  -11.9168   21.3097 H   0  0  0  0  0  0
  -28.4435  -13.5271   21.8928 H   0  0  0  0  0  0
  -25.2742   -9.5679   22.4773 H   0  0  0  0  0  0
  -23.9996   -7.4626   22.7466 H   0  0  0  0  0  0
  -21.0839   -8.8759   19.8956 H   0  0  0  0  0  0
  -22.3677  -10.9672   19.6184 H   0  0  0  0  0  0
  -21.1986   -7.6155   23.9717 H   0  0  0  0  0  0
  -21.1490   -6.0529   25.9082 H   0  0  0  0  0  0
  -22.0600   -2.7611   23.2834 H   0  0  0  0  0  0
  -22.4098  -11.9875   22.4781 H   0  0  0  0  0  0
  -21.1136  -13.1279   22.2633 H   0  0  0  0  0  0
  -24.6626  -15.8393   20.4992 H   0  0  0  0  0  0
  -26.2798  -15.6205   20.0603 H   0  0  0  0  0  0
  -26.7075  -32.5525   23.1140 H   0  0  0  0  0  0
  -25.0029  -33.9780   25.0471 H   0  0  0  0  0  0
  -22.6882  -31.3108   21.4153 H   0  0  0  0  0  0
  -23.3743  -35.9638   23.3292 H   0  0  0  0  0  0
  -24.3580  -36.8921   22.2055 H   0  0  0  0  0  0
  -23.7241  -37.6515   23.6656 H   0  0  0  0  0  0
  -26.0279  -31.6023   20.5917 H   0  0  0  0  0  0
  -26.8207  -30.8943   21.9688 H   0  0  0  0  0  0
  -28.0913  -29.0957   21.1641 H   0  0  0  0  0  0
  -26.0232  -25.9980   18.9602 H   0  0  0  0  0  0
  -23.9665  -27.3146   19.0201 H   0  0  0  0  0  0
  -23.7069  -30.6041   19.4033 H   0  0  0  0  0  0
  -22.7296  -29.2449   19.8710 H   0  0  0  0  0  0
  -25.1289  -36.1955   25.0837 H   0  0  0  0  0  0
  -20.9952  -28.3158   24.1457 H   0  0  0  0  0  0
  -20.5644  -26.2222   23.3601 H   0  0  0  0  0  0
  -21.6622  -26.7397   22.1209 H   0  0  0  0  0  0
  -19.6896  -25.6291   21.1219 H   0  0  0  0  0  0
  -19.6692  -27.3215   20.6777 H   0  0  0  0  0  0
  -17.4193  -26.6678   21.4029 H   0  0  0  0  0  0
  -18.0301  -26.0066   22.9017 H   0  0  0  0  0  0
  -19.7932  -30.7258   24.2264 H   0  0  0  0  0  0
  -17.5016  -31.6268   24.5164 H   0  0  0  0  0  0
  -15.5348  -30.3006   23.7652 H   0  0  0  0  0  0
  -15.8650  -28.0850   22.7030 H   0  0  0  0  0  0
  -24.5857  -30.7138   25.7814 H   0  0  0  0  0  0
  -24.9000  -32.2915   26.4958 H   0  0  0  0  0  0
  -25.8090  -30.8857   27.0202 H   0  0  0  0  0  0
  -26.2781  -29.6834   24.1105 H   0  0  0  0  0  0
  -27.4096  -29.7272   25.4445 H   0  0  0  0  0  0
  -27.8592  -30.4398   23.9115 H   0  0  0  0  0  0
  -27.2665  -33.3617   26.2033 H   0  0  0  0  0  0
  -28.3857  -32.6841   25.0286 H   0  0  0  0  0  0
  -28.0684  -31.8424   26.5385 H   0  0  0  0  0  0
  -28.2588  -38.0108   24.7508 H   0  0  0  0  0  0
  -28.1079  -36.2637   24.6283 H   0  0  0  0  0  0
  -27.2297  -37.1432   25.8869 H   0  0  0  0  0  0
  -20.9268  -29.8771   21.7029 H   0  0  0  0  0  0
  -26.0170  -38.2856   24.1449 H   0  0  0  0  0  0
  -30.5613  -19.5221   19.6419 H   0  0  0  0  0  0
  -27.3696  -24.8917   20.2626 H   0  0  0  0  0  0
  -28.3701  -25.0708   18.8263 H   0  0  0  0  0  0
  -28.0533  -23.4086   21.7588 H   0  0  0  0  0  0
  -29.4447  -21.2975   22.7940 H   0  0  0  0  0  0
  -29.3390  -14.9665   21.9982 H   0  0  0  0  0  0
  1 25  1  0  0  0
  1 30  2  0  0  0
  1 82  1  0  0  0
  2  3  1  0  0  0
  2 25  1  0  0  0
  2 88  1  0  0  0
  2 89  1  0  0  0
  3  4  1  0  0  0
  3 90  1  0  0  0
  3 91  1  0  0  0
  4  5  1  0  0  0
  4 92  1  0  0  0
  4 93  1  0  0  0
  5  6  1  0  0  0
  5 26  1  0  0  0
  5 94  1  0  0  0
  6 25  1  0  0  0
  6 95  1  0  0  0
  6 96  1  0  0  0
  7  8  2  0  0  0
  7 26  1  0  0  0
  7 29  1  0  0  0
  8  9  1  0  0  0
  8 22  1  0  0  0
  9 10  1  0  0  0
  9 27  2  0  0  0
 10 11  2  0  0  0
 10 15  1  0  0  0
 11 12  1  0  0  0
 11 97  1  0  0  0
 12 13  2  0  0  0
 12 98  1  0  0  0
 13 14  1  0  0  0
 13 31  1  0  0  0
 14 15  2  0  0  0
 14 99  1  0  0  0
 15100  1  0  0  0
 16 17  2  0  0  0
 16 21  1  0  0  0
 16 31  1  0  0  0
 17 18  1  0  0  0
 17101  1  0  0  0
 18 19  2  0  0  0
 18102  1  0  0  0
 19 20  1  0  0  0
 19 24  1  0  0  0
 20 21  2  0  0  0
 20103  1  0  0  0
 21 23  1  0  0  0
 22 28  1  0  0  0
 22 32  2  0  0  0
 26 27  1  0  0  0
 28104  1  0  0  0
 28105  1  0  0  0
 29106  1  0  0  0
 29107  1  0  0  0
 33 34  1  0  0  0
 33 66  1  0  0  0
 33 70  2  0  0  0
 34 36  1  0  0  0
 34 59  1  0  0  0
 34108  1  0  0  0
 35 44  2  0  0  0
 35 45  1  0  0  0
 35 68  1  0  0  0
 36 56  1  0  0  0
 36109  1  0  0  0
 37 39  1  0  0  0
 37 47  1  0  0  0
 37 66  1  0  0  0
 37110  1  0  0  0
 38 43  2  0  0  0
 38 46  1  0  0  0
 38 47  1  0  0  0
 39 64  1  0  0  0
 39 67  2  0  0  0
 40 52  1  0  0  0
 40 53  2  0  0  0
 40 58  1  0  0  0
 41111  1  0  0  0
 41112  1  0  0  0
 41113  1  0  0  0
 41 48  1  0  0  0
 42 43  1  0  0  0
 42 66  1  0  0  0
 42114  1  0  0  0
 42115  1  0  0  0
 43 44  1  0  0  0
 44116  1  0  0  0
 45 46  2  0  0  0
 45117  1  0  0  0
 46118  1  0  0  0
 47119  1  0  0  0
 47120  1  0  0  0
 48 56  1  0  0  0
 48 65  1  0  0  0
 48121  1  0  0  0
 49 50  1  0  0  0
 49 53  1  0  0  0
 49 64  1  0  0  0
 49122  1  0  0  0
 50 51  1  0  0  0
 50123  1  0  0  0
 50124  1  0  0  0
 51 52  1  0  0  0
 51125  1  0  0  0
 51126  1  0  0  0
 52127  1  0  0  0
 52128  1  0  0  0
 53 54  1  0  0  0
 54 55  2  0  0  0
 54129  1  0  0  0
 55 57  1  0  0  0
 55130  1  0  0  0
 56 69  2  0  0  0
 57 58  2  0  0  0
 57131  1  0  0  0
 58132  1  0  0  0
 59 60  1  0  0  0
 59 61  1  0  0  0
 59 62  1  0  0  0
 60133  1  0  0  0
 60134  1  0  0  0
 60135  1  0  0  0
 61136  1  0  0  0
 61137  1  0  0  0
 61138  1  0  0  0
 62139  1  0  0  0
 62140  1  0  0  0
 62141  1  0  0  0
 63 65  1  0  0  0
 63142  1  0  0  0
 63143  1  0  0  0
 63144  1  0  0  0
 64145  1  0  0  0
 65146  1  0  0  0
 68 78  1  0  0  0
 71 72  2  0  0  0
 71 80  1  0  0  0
 71147  1  0  0  0
 72 73  1  0  0  0
 72 81  1  0  0  0
 73 74  2  0  0  0
 73 85  1  0  0  0
 74 75  1  0  0  0
 74 86  1  0  0  0
 75 80  2  0  0  0
 75 82  1  0  0  0
 76 78  1  0  0  0
 76 79  1  0  0  0
 76 83  2  0  0  0
 77 79  1  0  0  0
 77 81  1  0  0  0
 77 84  2  0  0  0
 78148  1  0  0  0
 78149  1  0  0  0
 79 87  1  0  0  0
 79150  1  0  0  0
 81151  1  0  0  0
 82152  1  0  0  0
M  ISO  4   1 100  68 101  78 101  82 100
M  END
> <chiral flag>
0

> <version>
0

> <s_m_source_file>
/data/baiqing/PycharmProjects/Reinvent-master-3.2/result/LINK_invent/BTK/process_docking_weight1_custom_product_contain_oxygen_bond_distance_aromatic_linkinvent_7_9_3/rearranged_h_0178.sdf

> <i_m_source_file_index>
23

> <r_mmod_Potential_Energy-OPLS-2005>
-192.53498840332

> <r_mmod_Stretch_Energy-OPLS-2005>
40.0494384765625

> <r_mmod_Bend_Energy-OPLS-2005>
115.283508300781

> <r_mmod_Torsional_Energy-OPLS-2005>
231.418472290039

> <r_mmod_Improper_Torsional_Energy-OPLS-2005>
3.21317219734192

> <r_mmod_Van_der_Waal_Energy-OPLS-2005>
161.250244140625

> <r_mmod_Electrostatic_Energy-OPLS-2005>
-494.894409179688

> <r_mmod_Solvation_Energy-OPLS-2005>
-261.835235595703

> <b_mmod_Minimization_Converged-OPLS-2005>
0

> <r_mmod_RMS_Derivative-OPLS-2005>
2.33841490745544

$$$$
23
                    3D
 Structure written by MMmdl.
152160  0  0  1  0            999 V2000
  -30.6891  -14.4959   20.5550 C   0  0  0  0  0  0
  -30.4245  -12.3151   19.4311 C   0  0  0  0  0  0
  -29.4968  -12.5009   18.2114 C   0  0  0  0  0  0
  -28.0171  -12.3619   18.6233 C   0  0  0  0  0  0
  -27.6606  -13.2080   19.8756 C   0  0  2  0  0  0
  -28.7026  -13.0014   20.9992 C   0  0  0  0  0  0
  -25.2584  -13.8174   20.5675 C   0  0  0  0  0  0
  -24.1838  -13.0447   20.9183 C   0  0  0  0  0  0
  -24.6394  -11.6913   20.8733 C   0  0  0  0  0  0
  -23.9066  -10.4293   21.0398 C   0  0  0  0  0  0
  -24.3617   -9.4208   21.9175 C   0  0  0  0  0  0
  -23.6288   -8.2248   22.0749 C   0  0  0  0  0  0
  -22.4271   -8.0289   21.3550 C   0  0  0  0  0  0
  -21.9915   -9.0255   20.4650 C   0  0  0  0  0  0
  -22.7242  -10.2130   20.3038 C   0  0  0  0  0  0
  -21.6854   -6.0742   22.5281 C   0  0  0  0  0  0
  -21.4012   -6.5642   23.8214 C   0  0  0  0  0  0
  -21.3659   -5.6799   24.9180 C   0  0  0  0  0  0
  -21.6044   -4.3058   24.7229 C   0  0  0  0  0  0
  -21.8816   -3.8155   23.4349 C   0  0  0  0  0  0
  -21.9193   -4.6975   22.3411 C   0  0  0  0  0  0
  -22.7858  -13.5237   21.1863 C   0  0  0  0  0  0
  -22.1669   -4.2155   21.0990 F   0  0  0  0  0  0
  -21.5626   -3.4543   25.7742 F   0  0  0  0  0  0
  -30.0320  -13.3081   20.4435 N   0  0  0  0  0  0
  -26.3019  -12.9339   20.3368 N   0  0  0  0  0  0
  -25.9320  -11.6503   20.5775 N   0  0  0  0  0  0
  -22.0513  -12.8189   22.0402 N   0  0  0  0  0  0
  -25.4323  -15.1889   20.4073 N   0  0  0  0  0  0
  -31.8326  -14.6590   20.1178 O   0  0  0  0  0  0
  -21.6648   -6.8880   21.4239 O   0  0  0  0  0  0
  -22.3529  -14.5549   20.6731 O   0  0  0  0  0  0
  -24.6174  -31.8666   23.2086 C   0  0  0  0  0  0
  -25.9068  -32.4812   23.8386 C   0  0  1  0  0  0
  -27.2348  -27.4106   20.0986 C   0  0  0  0  0  0
  -25.5929  -33.8609   24.2332 N   0  0  0  0  0  0
  -23.4055  -30.4906   21.5504 C   0  0  2  0  0  0
  -24.8490  -28.9507   20.1168 C   0  0  0  0  0  0
  -22.7420  -29.4658   22.4986 C   0  0  0  0  0  0
  -18.0284  -28.1367   22.8488 C   0  0  0  0  0  0
  -24.1498  -36.7301   23.2638 C   0  0  0  0  0  0
  -25.9358  -30.8255   21.3636 C   0  0  0  0  0  0
  -26.0098  -29.4571   20.7123 C   0  0  0  0  0  0
  -27.2009  -28.6936   20.7006 C   0  0  0  0  0  0
  -26.0452  -26.9165   19.5131 C   0  0  0  0  0  0
  -24.8623  -27.6797   19.5176 C   0  0  0  0  0  0
  -23.6137  -29.8219   20.1647 C   0  0  0  0  0  0
  -25.4120  -36.3105   24.0342 C   0  0  1  0  0  0
  -20.5871  -28.3657   23.1307 C   0  0  2  0  0  0
  -20.6774  -26.9396   22.5409 C   0  0  0  0  0  0
  -19.5754  -26.6378   21.5207 C   0  0  0  0  0  0
  -18.1932  -26.7914   22.1611 C   0  0  0  0  0  0
  -19.1533  -28.8832   23.2892 C   0  0  0  0  0  0
  -18.9456  -30.1441   23.8891 C   0  0  0  0  0  0
  -17.6455  -30.6572   24.0565 C   0  0  0  0  0  0
  -25.9047  -34.9469   23.5133 C   0  0  0  0  0  0
  -16.5350  -29.9068   23.6326 C   0  0  0  0  0  0
  -16.7270  -28.6490   23.0339 C   0  0  0  0  0  0
  -26.4495  -31.6576   25.0708 C   0  0  0  0  0  0
  -25.3763  -31.3641   26.1447 C   0  0  0  0  0  0
  -27.0328  -30.3029   24.6065 C   0  0  0  0  0  0
  -27.6090  -32.4267   25.7467 C   0  0  0  0  0  0
  -27.5586  -37.1810   24.8470 C   0  0  0  0  0  0
  -21.4149  -29.3027   22.3715 N   0  0  0  0  0  0
  -26.4303  -37.3791   23.9409 N   0  0  0  0  0  0
  -24.6714  -31.0756   22.0995 N   0  0  0  0  0  0
  -23.4185  -28.8204   23.3043 O   0  0  0  0  0  0
  -28.4269  -26.7042   20.1211 O   0  0  0  0  0  0
  -26.5600  -34.8921   22.4690 O   0  0  0  0  0  0
  -23.5366  -32.1425   23.7482 O   0  0  0  0  0  0
  -29.7231  -19.1659   20.7515 C   0  0  0  0  0  0
  -31.1108  -19.2338   20.8315 C   0  0  0  0  0  0
  -30.2409  -16.9167   20.9422 C   0  0  0  0  0  0
  -28.7645  -20.2759   20.5051 C   0  0  0  0  0  0
  -28.5395  -24.2344   20.5008 C   0  0  0  0  0  0
  -29.0791  -21.7040   21.0110 C   0  0  0  0  0  0
  -28.8354  -22.8229   19.9475 C   0  0  0  0  0  0
  -28.5501  -25.4085   19.4900 C   0  0  0  0  0  0
  -29.2627  -17.8270   20.8399 N   0  0  0  0  0  0
  -31.9932  -20.3134   20.7652 N   0  0  0  0  0  0
  -29.9374  -15.5231   21.0047 N   0  0  0  0  0  0
  -27.6660  -20.1053   19.9630 O   0  0  0  0  0  0
  -28.3164  -24.4177   21.7015 O   0  0  0  0  0  0
  -31.8389  -17.6478   21.0019 S   0  0  0  0  0  0
  -31.4692  -12.4124   19.1303 H   0  0  0  0  0  0
  -30.3282  -11.3083   19.8405 H   0  0  0  0  0  0
  -29.7445  -11.7685   17.4422 H   0  0  0  0  0  0
  -29.6630  -13.4815   17.7611 H   0  0  0  0  0  0
  -27.8305  -11.3064   18.8261 H   0  0  0  0  0  0
  -27.3655  -12.6313   17.7908 H   0  0  0  0  0  0
  -27.7003  -14.2545   19.5723 H   0  0  0  0  0  0
  -28.6832  -11.9694   21.3533 H   0  0  0  0  0  0
  -28.4638  -13.6114   21.8719 H   0  0  0  0  0  0
  -25.2762   -9.5676   22.4753 H   0  0  0  0  0  0
  -24.0003   -7.4635   22.7458 H   0  0  0  0  0  0
  -21.0853   -8.8762   19.8952 H   0  0  0  0  0  0
  -22.3708  -10.9657   19.6134 H   0  0  0  0  0  0
  -21.2001   -7.6154   23.9708 H   0  0  0  0  0  0
  -21.1482   -6.0542   25.9076 H   0  0  0  0  0  0
  -22.0591   -2.7618   23.2852 H   0  0  0  0  0  0
  -22.4140  -11.9826   22.4741 H   0  0  0  0  0  0
  -21.1124  -13.1185   22.2627 H   0  0  0  0  0  0
  -24.6687  -15.8471   20.5203 H   0  0  0  0  0  0
  -26.2853  -15.6288   20.0847 H   0  0  0  0  0  0
  -26.7135  -32.5514   23.1145 H   0  0  0  0  0  0
  -25.0154  -33.9777   25.0527 H   0  0  0  0  0  0
  -22.6967  -31.3093   21.4106 H   0  0  0  0  0  0
  -23.3765  -35.9627   23.3307 H   0  0  0  0  0  0
  -24.3594  -36.8907   22.2049 H   0  0  0  0  0  0
  -23.7240  -37.6507   23.6641 H   0  0  0  0  0  0
  -26.0528  -31.5894   20.5938 H   0  0  0  0  0  0
  -26.8233  -30.8776   21.9818 H   0  0  0  0  0  0
  -28.0977  -29.0851   21.1612 H   0  0  0  0  0  0
  -25.9908  -25.9385   19.0621 H   0  0  0  0  0  0
  -23.9655  -27.2754   19.0678 H   0  0  0  0  0  0
  -23.7280  -30.5980   19.4069 H   0  0  0  0  0  0
  -22.7354  -29.2462   19.8655 H   0  0  0  0  0  0
  -25.1296  -36.1982   25.0834 H   0  0  0  0  0  0
  -20.9964  -28.3221   24.1426 H   0  0  0  0  0  0
  -20.5678  -26.2268   23.3599 H   0  0  0  0  0  0
  -21.6645  -26.7446   22.1198 H   0  0  0  0  0  0
  -19.6925  -25.6291   21.1227 H   0  0  0  0  0  0
  -19.6693  -27.3195   20.6743 H   0  0  0  0  0  0
  -17.4210  -26.6680   21.4005 H   0  0  0  0  0  0
  -18.0325  -26.0044   22.8990 H   0  0  0  0  0  0
  -19.7936  -30.7267   24.2233 H   0  0  0  0  0  0
  -17.5012  -31.6247   24.5171 H   0  0  0  0  0  0
  -15.5347  -30.2967   23.7641 H   0  0  0  0  0  0
  -15.8677  -28.0812   22.7029 H   0  0  0  0  0  0
  -24.5981  -30.6946   25.7767 H   0  0  0  0  0  0
  -24.8894  -32.2762   26.4901 H   0  0  0  0  0  0
  -25.8124  -30.8811   27.0201 H   0  0  0  0  0  0
  -26.2857  -29.6772   24.1165 H   0  0  0  0  0  0
  -27.4176  -29.7278   25.4499 H   0  0  0  0  0  0
  -27.8661  -30.4375   23.9164 H   0  0  0  0  0  0
  -27.2762  -33.3586   26.2048 H   0  0  0  0  0  0
  -28.3898  -32.6775   25.0274 H   0  0  0  0  0  0
  -28.0754  -31.8365   26.5369 H   0  0  0  0  0  0
  -28.2607  -38.0104   24.7518 H   0  0  0  0  0  0
  -28.1080  -36.2635   24.6302 H   0  0  0  0  0  0
  -27.2298  -37.1465   25.8871 H   0  0  0  0  0  0
  -20.9316  -29.8738   21.6924 H   0  0  0  0  0  0
  -26.0198  -38.2877   24.1386 H   0  0  0  0  0  0
  -30.0889  -21.7714   21.4054 H   0  0  0  0  0  0
  -28.4253  -21.8659   21.8676 H   0  0  0  0  0  0
  -29.6970  -22.8873   19.2831 H   0  0  0  0  0  0
  -27.9889  -22.5526   19.3159 H   0  0  0  0  0  0
  -27.8272  -25.2360   18.6967 H   0  0  0  0  0  0
  -29.5205  -25.3924   18.9964 H   0  0  0  0  0  0
  -31.7341  -21.2891   20.6562 H   0  0  0  0  0  0
  -32.9968  -20.2005   20.8780 H   0  0  0  0  0  0
  -28.9955  -15.2836   21.2640 H   0  0  0  0  0  0
  1 25  1  0  0  0
  1 30  2  0  0  0
  1 81  1  0  0  0
  2  3  1  0  0  0
  2 25  1  0  0  0
  2 85  1  0  0  0
  2 86  1  0  0  0
  3  4  1  0  0  0
  3 87  1  0  0  0
  3 88  1  0  0  0
  4  5  1  0  0  0
  4 89  1  0  0  0
  4 90  1  0  0  0
  5  6  1  0  0  0
  5 26  1  0  0  0
  5 91  1  0  0  0
  6 25  1  0  0  0
  6 92  1  0  0  0
  6 93  1  0  0  0
  7  8  2  0  0  0
  7 26  1  0  0  0
  7 29  1  0  0  0
  8  9  1  0  0  0
  8 22  1  0  0  0
  9 10  1  0  0  0
  9 27  2  0  0  0
 10 11  2  0  0  0
 10 15  1  0  0  0
 11 12  1  0  0  0
 11 94  1  0  0  0
 12 13  2  0  0  0
 12 95  1  0  0  0
 13 14  1  0  0  0
 13 31  1  0  0  0
 14 15  2  0  0  0
 14 96  1  0  0  0
 15 97  1  0  0  0
 16 17  2  0  0  0
 16 21  1  0  0  0
 16 31  1  0  0  0
 17 18  1  0  0  0
 17 98  1  0  0  0
 18 19  2  0  0  0
 18 99  1  0  0  0
 19 20  1  0  0  0
 19 24  1  0  0  0
 20 21  2  0  0  0
 20100  1  0  0  0
 21 23  1  0  0  0
 22 28  1  0  0  0
 22 32  2  0  0  0
 26 27  1  0  0  0
 28101  1  0  0  0
 28102  1  0  0  0
 29103  1  0  0  0
 29104  1  0  0  0
 33 34  1  0  0  0
 33 66  1  0  0  0
 33 70  2  0  0  0
 34 36  1  0  0  0
 34 59  1  0  0  0
 34105  1  0  0  0
 35 44  2  0  0  0
 35 45  1  0  0  0
 35 68  1  0  0  0
 36 56  1  0  0  0
 36106  1  0  0  0
 37 39  1  0  0  0
 37 47  1  0  0  0
 37 66  1  0  0  0
 37107  1  0  0  0
 38 43  2  0  0  0
 38 46  1  0  0  0
 38 47  1  0  0  0
 39 64  1  0  0  0
 39 67  2  0  0  0
 40 52  1  0  0  0
 40 53  2  0  0  0
 40 58  1  0  0  0
 41108  1  0  0  0
 41109  1  0  0  0
 41110  1  0  0  0
 41 48  1  0  0  0
 42 43  1  0  0  0
 42 66  1  0  0  0
 42111  1  0  0  0
 42112  1  0  0  0
 43 44  1  0  0  0
 44113  1  0  0  0
 45 46  2  0  0  0
 45114  1  0  0  0
 46115  1  0  0  0
 47116  1  0  0  0
 47117  1  0  0  0
 48 56  1  0  0  0
 48 65  1  0  0  0
 48118  1  0  0  0
 49 50  1  0  0  0
 49 53  1  0  0  0
 49 64  1  0  0  0
 49119  1  0  0  0
 50 51  1  0  0  0
 50120  1  0  0  0
 50121  1  0  0  0
 51 52  1  0  0  0
 51122  1  0  0  0
 51123  1  0  0  0
 52124  1  0  0  0
 52125  1  0  0  0
 53 54  1  0  0  0
 54 55  2  0  0  0
 54126  1  0  0  0
 55 57  1  0  0  0
 55127  1  0  0  0
 56 69  2  0  0  0
 57 58  2  0  0  0
 57128  1  0  0  0
 58129  1  0  0  0
 59 60  1  0  0  0
 59 61  1  0  0  0
 59 62  1  0  0  0
 60130  1  0  0  0
 60131  1  0  0  0
 60132  1  0  0  0
 61133  1  0  0  0
 61134  1  0  0  0
 61135  1  0  0  0
 62136  1  0  0  0
 62137  1  0  0  0
 62138  1  0  0  0
 63 65  1  0  0  0
 63139  1  0  0  0
 63140  1  0  0  0
 63141  1  0  0  0
 64142  1  0  0  0
 65143  1  0  0  0
 68 78  1  0  0  0
 71 72  2  0  0  0
 71 74  1  0  0  0
 71 79  1  0  0  0
 72 80  1  0  0  0
 72 84  1  0  0  0
 73 79  2  0  0  0
 73 81  1  0  0  0
 73 84  1  0  0  0
 74 76  1  0  0  0
 74 82  2  0  0  0
 75 77  1  0  0  0
 75 78  1  0  0  0
 75 83  2  0  0  0
 76 77  1  0  0  0
 76144  1  0  0  0
 76145  1  0  0  0
 77146  1  0  0  0
 77147  1  0  0  0
 78148  1  0  0  0
 78149  1  0  0  0
 80150  1  0  0  0
 80151  1  0  0  0
 81152  1  0  0  0
M  ISO  4   1 100  68 101  78 101  81 100
M  END
> <chiral flag>
0

> <version>
0

> <s_m_source_file>
/data/baiqing/PycharmProjects/Reinvent-master-3.2/result/LINK_invent/BTK/process_docking_weight1_custom_product_contain_oxygen_bond_distance_aromatic_linkinvent_7_9_3/rearranged_h_0178.sdf

> <i_m_source_file_index>
24

> <r_mmod_Potential_Energy-OPLS-2005>
-5.64257383346558

> <r_mmod_Stretch_Energy-OPLS-2005>
43.03173828125

> <r_mmod_Bend_Energy-OPLS-2005>
119.918571472168

> <r_mmod_Torsional_Energy-OPLS-2005>
219.619216918945

> <r_mmod_Improper_Torsional_Energy-OPLS-2005>
4.90472936630249

> <r_mmod_Van_der_Waal_Energy-OPLS-2005>
132.957550048828

> <r_mmod_Electrostatic_Energy-OPLS-2005>
-292.066131591797

> <r_mmod_Solvation_Energy-OPLS-2005>
-249.92268371582

> <b_mmod_Minimization_Converged-OPLS-2005>
0

> <r_mmod_RMS_Derivative-OPLS-2005>
1.68061447143555

$$$$
24
                    3D
 Structure written by MMmdl.
152160  0  0  1  0            999 V2000
  -30.5812  -14.7924   20.4679 C   0  0  0  0  0  0
  -30.4395  -12.4858   19.4764 C   0  0  0  0  0  0
  -29.5131  -12.5145   18.2390 C   0  0  0  0  0  0
  -28.0419  -12.3227   18.6566 C   0  0  0  0  0  0
  -27.6404  -13.2291   19.8494 C   0  0  2  0  0  0
  -28.6852  -13.1715   20.9850 C   0  0  0  0  0  0
  -25.2516  -13.8181   20.5697 C   0  0  0  0  0  0
  -24.1809  -13.0430   20.9212 C   0  0  0  0  0  0
  -24.6393  -11.6910   20.8753 C   0  0  0  0  0  0
  -23.9075  -10.4293   21.0421 C   0  0  0  0  0  0
  -24.3624   -9.4203   21.9192 C   0  0  0  0  0  0
  -23.6295   -8.2243   22.0755 C   0  0  0  0  0  0
  -22.4285   -8.0279   21.3545 C   0  0  0  0  0  0
  -21.9925   -9.0254   20.4655 C   0  0  0  0  0  0
  -22.7255  -10.2131   20.3064 C   0  0  0  0  0  0
  -21.6851   -6.0735   22.5283 C   0  0  0  0  0  0
  -21.4008   -6.5640   23.8212 C   0  0  0  0  0  0
  -21.3656   -5.6798   24.9177 C   0  0  0  0  0  0
  -21.6049   -4.3061   24.7232 C   0  0  0  0  0  0
  -21.8817   -3.8150   23.4353 C   0  0  0  0  0  0
  -21.9190   -4.6963   22.3405 C   0  0  0  0  0  0
  -22.7833  -13.5215   21.1878 C   0  0  0  0  0  0
  -22.1664   -4.2151   21.0981 F   0  0  0  0  0  0
  -21.5629   -3.4539   25.7740 F   0  0  0  0  0  0
  -29.9813  -13.5488   20.4049 N   0  0  0  0  0  0
  -26.2935  -12.9382   20.3279 N   0  0  0  0  0  0
  -25.9319  -11.6533   20.5755 N   0  0  0  0  0  0
  -22.0487  -12.8185   22.0427 N   0  0  0  0  0  0
  -25.4206  -15.1895   20.4068 N   0  0  0  0  0  0
  -31.7721  -14.8953   20.1529 O   0  0  0  0  0  0
  -21.6641   -6.8879   21.4248 O   0  0  0  0  0  0
  -22.3517  -14.5535   20.6744 O   0  0  0  0  0  0
  -24.6347  -31.8529   23.1937 C   0  0  0  0  0  0
  -25.9151  -32.4750   23.8308 C   0  0  1  0  0  0
  -27.2181  -27.2201   20.1510 C   0  0  0  0  0  0
  -25.5922  -33.8553   24.2241 N   0  0  0  0  0  0
  -23.4347  -30.4738   21.5374 C   0  0  2  0  0  0
  -24.8830  -28.9102   20.1115 C   0  0  0  0  0  0
  -22.7509  -29.4600   22.4887 C   0  0  0  0  0  0
  -18.0309  -28.1404   22.8507 C   0  0  0  0  0  0
  -24.1487  -36.7281   23.2641 C   0  0  0  0  0  0
  -25.9817  -30.7512   21.3806 C   0  0  0  0  0  0
  -26.0546  -29.3668   20.7308 C   0  0  0  0  0  0
  -27.2236  -28.5331   20.7441 C   0  0  0  0  0  0
  -26.0304  -26.8493   19.4820 C   0  0  0  0  0  0
  -24.8777  -27.6612   19.4724 C   0  0  0  0  0  0
  -23.6572  -29.8039   20.1555 C   0  0  0  0  0  0
  -25.4115  -36.3060   24.0329 C   0  0  1  0  0  0
  -20.5912  -28.3719   23.1270 C   0  0  2  0  0  0
  -20.6792  -26.9441   22.5405 C   0  0  0  0  0  0
  -19.5758  -26.6405   21.5216 C   0  0  0  0  0  0
  -18.1946  -26.7952   22.1631 C   0  0  0  0  0  0
  -19.1566  -28.8879   23.2888 C   0  0  0  0  0  0
  -18.9487  -30.1477   23.8907 C   0  0  0  0  0  0
  -17.6483  -30.6607   24.0589 C   0  0  0  0  0  0
  -25.9054  -34.9437   23.5092 C   0  0  0  0  0  0
  -16.5379  -29.9107   23.6349 C   0  0  0  0  0  0
  -16.7299  -28.6521   23.0377 C   0  0  0  0  0  0
  -26.4505  -31.6582   25.0707 C   0  0  0  0  0  0
  -25.3706  -31.3776   26.1413 C   0  0  0  0  0  0
  -27.0360  -30.2996   24.6199 C   0  0  0  0  0  0
  -27.6039  -32.4333   25.7492 C   0  0  0  0  0  0
  -27.5576  -37.1810   24.8481 C   0  0  0  0  0  0
  -21.4213  -29.3062   22.3634 N   0  0  0  0  0  0
  -26.4295  -37.3752   23.9414 N   0  0  0  0  0  0
  -24.7029  -31.0460   22.0930 N   0  0  0  0  0  0
  -23.4191  -28.8160   23.3013 O   0  0  0  0  0  0
  -28.2955  -26.2902   20.1976 O   0  0  0  0  0  0
  -26.5625  -34.8926   22.4658 O   0  0  0  0  0  0
  -23.5484  -32.1372   23.7203 O   0  0  0  0  0  0
  -31.1105  -19.4196   20.6422 C   0  0  0  0  0  0
  -29.8628  -20.0394   20.5599 C   0  0  0  0  0  0
  -29.9550  -17.3838   20.6381 C   0  0  0  0  0  0
  -28.0570  -24.8762   20.3646 C   0  0  0  0  0  0
  -28.9669  -23.8176   20.3133 C   0  0  0  0  0  0
  -28.6171  -22.3402   20.4905 C   0  0  0  0  0  0
  -33.2667  -19.9193   19.4241 C   0  0  0  0  0  0
  -32.4413  -20.1199   20.7020 C   0  0  0  0  0  0
  -31.1468  -17.9937   20.6830 N   0  0  0  0  0  0
  -29.6776  -21.4446   20.4666 N   0  0  0  0  0  0
  -29.7594  -15.9018   20.6819 N   0  0  0  0  0  0
  -27.4656  -21.9330   20.6566 O   0  0  0  0  0  0
  -30.2555  -24.1141   20.0859 O   0  0  0  0  0  0
  -28.6721  -18.6825   20.5747 S   0  0  0  0  0  0
  -31.4792  -12.6232   19.1728 H   0  0  0  0  0  0
  -30.3974  -11.5104   19.9645 H   0  0  0  0  0  0
  -29.8034  -11.7365   17.5321 H   0  0  0  0  0  0
  -29.6262  -13.4626   17.7119 H   0  0  0  0  0  0
  -27.9149  -11.2756   18.9351 H   0  0  0  0  0  0
  -27.3789  -12.4945   17.8078 H   0  0  0  0  0  0
  -27.6322  -14.2469   19.4598 H   0  0  0  0  0  0
  -28.7343  -12.1719   21.4196 H   0  0  0  0  0  0
  -28.4105  -13.8412   21.8011 H   0  0  0  0  0  0
  -25.2767   -9.5670   22.4764 H   0  0  0  0  0  0
  -24.0002   -7.4632   22.7463 H   0  0  0  0  0  0
  -21.0858   -8.8778   19.8958 H   0  0  0  0  0  0
  -22.3719  -10.9667   19.6168 H   0  0  0  0  0  0
  -21.2001   -7.6146   23.9715 H   0  0  0  0  0  0
  -21.1481   -6.0527   25.9077 H   0  0  0  0  0  0
  -22.0599   -2.7615   23.2853 H   0  0  0  0  0  0
  -22.4095  -11.9814   22.4771 H   0  0  0  0  0  0
  -21.1114  -13.1211   22.2678 H   0  0  0  0  0  0
  -24.6459  -15.8377   20.4992 H   0  0  0  0  0  0
  -26.2458  -15.6221   20.0136 H   0  0  0  0  0  0
  -26.7223  -32.5405   23.1053 H   0  0  0  0  0  0
  -25.0085  -33.9694   25.0405 H   0  0  0  0  0  0
  -22.7342  -31.2979   21.3865 H   0  0  0  0  0  0
  -23.3730  -35.9636   23.3337 H   0  0  0  0  0  0
  -24.3552  -36.8847   22.2040 H   0  0  0  0  0  0
  -23.7273  -37.6513   23.6637 H   0  0  0  0  0  0
  -26.1211  -31.5053   20.6047 H   0  0  0  0  0  0
  -26.8597  -30.8069   22.0127 H   0  0  0  0  0  0
  -28.1170  -28.8745   21.2487 H   0  0  0  0  0  0
  -25.9739  -25.8956   18.9789 H   0  0  0  0  0  0
  -23.9859  -27.3103   18.9717 H   0  0  0  0  0  0
  -23.7917  -30.5786   19.3983 H   0  0  0  0  0  0
  -22.7742  -29.2398   19.8504 H   0  0  0  0  0  0
  -25.1306  -36.1890   25.0822 H   0  0  0  0  0  0
  -21.0046  -28.3294   24.1379 H   0  0  0  0  0  0
  -20.5690  -26.2346   23.3618 H   0  0  0  0  0  0
  -21.6658  -26.7471   22.1199 H   0  0  0  0  0  0
  -19.6908  -25.6308   21.1270 H   0  0  0  0  0  0
  -19.6674  -27.3212   20.6740 H   0  0  0  0  0  0
  -17.4216  -26.6746   21.4031 H   0  0  0  0  0  0
  -18.0334  -26.0094   22.9024 H   0  0  0  0  0  0
  -19.7954  -30.7324   24.2259 H   0  0  0  0  0  0
  -17.5034  -31.6287   24.5195 H   0  0  0  0  0  0
  -15.5381  -30.3022   23.7646 H   0  0  0  0  0  0
  -15.8706  -28.0846   22.7084 H   0  0  0  0  0  0
  -24.5864  -30.7136   25.7763 H   0  0  0  0  0  0
  -24.8921  -32.2974   26.4782 H   0  0  0  0  0  0
  -25.7982  -30.8992   27.0229 H   0  0  0  0  0  0
  -26.2962  -29.6723   24.1200 H   0  0  0  0  0  0
  -27.4040  -29.7257   25.4712 H   0  0  0  0  0  0
  -27.8841  -30.4293   23.9467 H   0  0  0  0  0  0
  -27.2635  -33.3655   26.2017 H   0  0  0  0  0  0
  -28.3877  -32.6837   25.0333 H   0  0  0  0  0  0
  -28.0677  -31.8480   26.5437 H   0  0  0  0  0  0
  -28.2628  -38.0068   24.7456 H   0  0  0  0  0  0
  -28.1023  -36.2588   24.6396 H   0  0  0  0  0  0
  -27.2290  -37.1593   25.8884 H   0  0  0  0  0  0
  -20.9392  -29.8799   21.6858 H   0  0  0  0  0  0
  -26.0157  -38.2837   24.1344 H   0  0  0  0  0  0
  -27.0130  -24.6690   20.5624 H   0  0  0  0  0  0
  -34.2184  -20.4480   19.4863 H   0  0  0  0  0  0
  -32.7359  -20.2913   18.5474 H   0  0  0  0  0  0
  -33.4850  -18.8619   19.2650 H   0  0  0  0  0  0
  -33.0115  -19.7565   21.5574 H   0  0  0  0  0  0
  -32.3151  -21.1874   20.8797 H   0  0  0  0  0  0
  -30.5396  -21.9671   20.3697 H   0  0  0  0  0  0
  -28.8030  -15.6360   20.8494 H   0  0  0  0  0  0
  -30.3069  -25.0562   19.9874 H   0  0  0  0  0  0
  1 25  1  0  0  0
  1 30  2  0  0  0
  1 81  1  0  0  0
  2  3  1  0  0  0
  2 25  1  0  0  0
  2 85  1  0  0  0
  2 86  1  0  0  0
  3  4  1  0  0  0
  3 87  1  0  0  0
  3 88  1  0  0  0
  4  5  1  0  0  0
  4 89  1  0  0  0
  4 90  1  0  0  0
  5  6  1  0  0  0
  5 26  1  0  0  0
  5 91  1  0  0  0
  6 25  1  0  0  0
  6 92  1  0  0  0
  6 93  1  0  0  0
  7  8  2  0  0  0
  7 26  1  0  0  0
  7 29  1  0  0  0
  8  9  1  0  0  0
  8 22  1  0  0  0
  9 10  1  0  0  0
  9 27  2  0  0  0
 10 11  2  0  0  0
 10 15  1  0  0  0
 11 12  1  0  0  0
 11 94  1  0  0  0
 12 13  2  0  0  0
 12 95  1  0  0  0
 13 14  1  0  0  0
 13 31  1  0  0  0
 14 15  2  0  0  0
 14 96  1  0  0  0
 15 97  1  0  0  0
 16 17  2  0  0  0
 16 21  1  0  0  0
 16 31  1  0  0  0
 17 18  1  0  0  0
 17 98  1  0  0  0
 18 19  2  0  0  0
 18 99  1  0  0  0
 19 20  1  0  0  0
 19 24  1  0  0  0
 20 21  2  0  0  0
 20100  1  0  0  0
 21 23  1  0  0  0
 22 28  1  0  0  0
 22 32  2  0  0  0
 26 27  1  0  0  0
 28101  1  0  0  0
 28102  1  0  0  0
 29103  1  0  0  0
 29104  1  0  0  0
 33 34  1  0  0  0
 33 66  1  0  0  0
 33 70  2  0  0  0
 34 36  1  0  0  0
 34 59  1  0  0  0
 34105  1  0  0  0
 35 44  2  0  0  0
 35 45  1  0  0  0
 35 68  1  0  0  0
 36 56  1  0  0  0
 36106  1  0  0  0
 37 39  1  0  0  0
 37 47  1  0  0  0
 37 66  1  0  0  0
 37107  1  0  0  0
 38 43  2  0  0  0
 38 46  1  0  0  0
 38 47  1  0  0  0
 39 64  1  0  0  0
 39 67  2  0  0  0
 40 52  1  0  0  0
 40 53  2  0  0  0
 40 58  1  0  0  0
 41108  1  0  0  0
 41109  1  0  0  0
 41110  1  0  0  0
 41 48  1  0  0  0
 42 43  1  0  0  0
 42 66  1  0  0  0
 42111  1  0  0  0
 42112  1  0  0  0
 43 44  1  0  0  0
 44113  1  0  0  0
 45 46  2  0  0  0
 45114  1  0  0  0
 46115  1  0  0  0
 47116  1  0  0  0
 47117  1  0  0  0
 48 56  1  0  0  0
 48 65  1  0  0  0
 48118  1  0  0  0
 49 50  1  0  0  0
 49 53  1  0  0  0
 49 64  1  0  0  0
 49119  1  0  0  0
 50 51  1  0  0  0
 50120  1  0  0  0
 50121  1  0  0  0
 51 52  1  0  0  0
 51122  1  0  0  0
 51123  1  0  0  0
 52124  1  0  0  0
 52125  1  0  0  0
 53 54  1  0  0  0
 54 55  2  0  0  0
 54126  1  0  0  0
 55 57  1  0  0  0
 55127  1  0  0  0
 56 69  2  0  0  0
 57 58  2  0  0  0
 57128  1  0  0  0
 58129  1  0  0  0
 59 60  1  0  0  0
 59 61  1  0  0  0
 59 62  1  0  0  0
 60130  1  0  0  0
 60131  1  0  0  0
 60132  1  0  0  0
 61133  1  0  0  0
 61134  1  0  0  0
 61135  1  0  0  0
 62136  1  0  0  0
 62137  1  0  0  0
 62138  1  0  0  0
 63 65  1  0  0  0
 63139  1  0  0  0
 63140  1  0  0  0
 63141  1  0  0  0
 64142  1  0  0  0
 65143  1  0  0  0
 68 74  1  0  0  0
 71 72  2  0  0  0
 71 78  1  0  0  0
 71 79  1  0  0  0
 72 80  1  0  0  0
 72 84  1  0  0  0
 73 79  2  0  0  0
 73 81  1  0  0  0
 73 84  1  0  0  0
 74 75  2  0  0  0
 74144  1  0  0  0
 75 76  1  0  0  0
 75 83  1  0  0  0
 76 80  1  0  0  0
 76 82  2  0  0  0
 77 78  1  0  0  0
 77145  1  0  0  0
 77146  1  0  0  0
 77147  1  0  0  0
 78148  1  0  0  0
 78149  1  0  0  0
 80150  1  0  0  0
 81151  1  0  0  0
 83152  1  0  0  0
M  ISO  4   1 100  68 101  74 101  81 100
M  END
> <chiral flag>
0

> <version>
0

> <s_m_source_file>
/data/baiqing/PycharmProjects/Reinvent-master-3.2/result/LINK_invent/BTK/process_docking_weight1_custom_product_contain_oxygen_bond_distance_aromatic_linkinvent_7_9_3/rearranged_h_0178.sdf

> <i_m_source_file_index>
25

> <r_mmod_Potential_Energy-OPLS-2005>
46.1207656860352

> <r_mmod_Stretch_Energy-OPLS-2005>
129.167709350586

> <r_mmod_Bend_Energy-OPLS-2005>
189.315200805664

> <r_mmod_Torsional_Energy-OPLS-2005>
183.872985839844

> <r_mmod_Improper_Torsional_Energy-OPLS-2005>
4.8954062461853

> <r_mmod_Van_der_Waal_Energy-OPLS-2005>
116.767524719238

> <r_mmod_Electrostatic_Energy-OPLS-2005>
-448.010070800781

> <r_mmod_Solvation_Energy-OPLS-2005>
-239.542678833008

> <b_mmod_Minimization_Converged-OPLS-2005>
0

> <r_mmod_RMS_Derivative-OPLS-2005>
2.3470823764801

$$$$
25
                    3D
 Structure written by MMmdl.
166174  0  0  1  0            999 V2000
  -30.6996  -14.5625   20.4745 C   0  0  0  0  0  0
  -30.4250  -12.3370   19.4388 C   0  0  0  0  0  0
  -29.5039  -12.4920   18.2104 C   0  0  0  0  0  0
  -28.0249  -12.3565   18.6206 C   0  0  0  0  0  0
  -27.6591  -13.2201   19.8587 C   0  0  2  0  0  0
  -28.7089  -13.0801   20.9868 C   0  0  0  0  0  0
  -25.2625  -13.8175   20.5679 C   0  0  0  0  0  0
  -24.1901  -13.0436   20.9194 C   0  0  0  0  0  0
  -24.6460  -11.6908   20.8725 C   0  0  0  0  0  0
  -23.9117  -10.4293   21.0392 C   0  0  0  0  0  0
  -24.3658   -9.4208   21.9176 C   0  0  0  0  0  0
  -23.6325   -8.2255   22.0752 C   0  0  0  0  0  0
  -22.4298   -8.0298   21.3548 C   0  0  0  0  0  0
  -21.9953   -9.0278   20.4651 C   0  0  0  0  0  0
  -22.7292  -10.2148   20.3052 C   0  0  0  0  0  0
  -21.6869   -6.0760   22.5297 C   0  0  0  0  0  0
  -21.4019   -6.5657   23.8221 C   0  0  0  0  0  0
  -21.3651   -5.6797   24.9177 C   0  0  0  0  0  0
  -21.6043   -4.3073   24.7217 C   0  0  0  0  0  0
  -21.8822   -3.8160   23.4342 C   0  0  0  0  0  0
  -21.9202   -4.6985   22.3407 C   0  0  0  0  0  0
  -22.7913  -13.5230   21.1829 C   0  0  0  0  0  0
  -22.1673   -4.2183   21.0988 F   0  0  0  0  0  0
  -21.5614   -3.4539   25.7718 F   0  0  0  0  0  0
  -30.0313  -13.3724   20.4127 N   0  0  0  0  0  0
  -26.3055  -12.9360   20.3300 N   0  0  0  0  0  0
  -25.9388  -11.6510   20.5732 N   0  0  0  0  0  0
  -22.0549  -12.8230   22.0371 N   0  0  0  0  0  0
  -25.4287  -15.1887   20.4040 N   0  0  0  0  0  0
  -31.8800  -14.6462   20.1276 O   0  0  0  0  0  0
  -21.6654   -6.8904   21.4253 O   0  0  0  0  0  0
  -22.3606  -14.5560   20.6697 O   0  0  0  0  0  0
  -24.6258  -31.8648   23.2012 C   0  0  0  0  0  0
  -25.9135  -32.4802   23.8335 C   0  0  1  0  0  0
  -27.2192  -27.3561   20.0934 C   0  0  0  0  0  0
  -25.5998  -33.8598   24.2265 N   0  0  0  0  0  0
  -23.4158  -30.4858   21.5473 C   0  0  2  0  0  0
  -24.8647  -28.9601   20.0954 C   0  0  0  0  0  0
  -22.7472  -29.4641   22.4938 C   0  0  0  0  0  0
  -18.0281  -28.1403   22.8458 C   0  0  0  0  0  0
  -24.1494  -36.7282   23.2621 C   0  0  0  0  0  0
  -25.9541  -30.7997   21.3723 C   0  0  0  0  0  0
  -26.0336  -29.4351   20.7077 C   0  0  0  0  0  0
  -27.2184  -28.6406   20.7107 C   0  0  0  0  0  0
  -26.0386  -26.9442   19.4322 C   0  0  0  0  0  0
  -24.8654  -27.7162   19.4501 C   0  0  0  0  0  0
  -23.6264  -29.8307   20.1591 C   0  0  0  0  0  0
  -25.4104  -36.3070   24.0309 C   0  0  1  0  0  0
  -20.5873  -28.3711   23.1267 C   0  0  2  0  0  0
  -20.6761  -26.9430   22.5400 C   0  0  0  0  0  0
  -19.5743  -26.6389   21.5188 C   0  0  0  0  0  0
  -18.1927  -26.7941   22.1603 C   0  0  0  0  0  0
  -19.1534  -28.8865   23.2853 C   0  0  0  0  0  0
  -18.9452  -30.1470   23.8887 C   0  0  0  0  0  0
  -17.6462  -30.6610   24.0572 C   0  0  0  0  0  0
  -25.9054  -34.9467   23.5058 C   0  0  0  0  0  0
  -16.5338  -29.9097   23.6355 C   0  0  0  0  0  0
  -16.7275  -28.6527   23.0365 C   0  0  0  0  0  0
  -26.4530  -31.6592   25.0700 C   0  0  0  0  0  0
  -25.3777  -31.3759   26.1439 C   0  0  0  0  0  0
  -27.0337  -30.3003   24.6138 C   0  0  0  0  0  0
  -27.6094  -32.4327   25.7494 C   0  0  0  0  0  0
  -27.5580  -37.1762   24.8441 C   0  0  0  0  0  0
  -21.4192  -29.3041   22.3680 N   0  0  0  0  0  0
  -26.4266  -37.3777   23.9442 N   0  0  0  0  0  0
  -24.6840  -31.0629   22.0983 N   0  0  0  0  0  0
  -23.4179  -28.8163   23.3027 O   0  0  0  0  0  0
  -28.2473  -26.4150   20.2199 O   0  0  0  0  0  0
  -26.5612  -34.8945   22.4621 O   0  0  0  0  0  0
  -23.5429  -32.1478   23.7352 O   0  0  0  0  0  0
  -30.4029  -19.5922   20.6618 C   0  0  0  0  0  0
  -31.5053  -18.9491   20.1219 C   0  0  0  0  0  0
  -30.2589  -17.0690   20.5760 C   0  0  0  0  0  0
  -27.7752  -25.2171   20.7786 C   0  0  0  0  0  0
  -28.1751  -23.9079   20.7775 C   0  0  0  0  0  0
  -29.4070  -23.2916   20.2407 C   0  0  0  0  0  0
  -32.1646  -21.0323   23.6302 C   0  0  0  0  0  0
  -30.1220  -21.2911   25.0715 C   0  0  0  0  0  0
  -30.5116  -19.1434   23.9132 C   0  0  0  0  0  0
  -29.8390  -21.2442   22.5885 C   0  0  0  0  0  0
  -30.2775  -21.0715   21.0950 C   0  0  2  0  0  0
  -30.6747  -20.6677   23.7693 C   0  0  0  0  0  0
  -31.4184  -17.5484   20.0946 N   0  0  0  0  0  0
  -32.6806  -19.5443   19.6608 N   0  0  0  0  0  0
  -29.9517  -15.6642   20.7410 N   0  0  0  0  0  0
  -29.3513  -21.9286   20.3081 N   0  0  0  0  0  0
  -30.4295  -23.8926   19.9028 O   0  0  0  0  0  0
  -27.3241  -23.0570   21.3842 O   0  0  0  0  0  0
  -29.1371  -18.3907   20.9690 S   0  0  0  0  0  0
  -31.4702  -12.4219   19.1355 H   0  0  0  0  0  0
  -30.3182  -11.3416   19.8735 H   0  0  0  0  0  0
  -29.7491  -11.7385   17.4609 H   0  0  0  0  0  0
  -29.6719  -13.4609   17.7358 H   0  0  0  0  0  0
  -27.8398  -11.3027   18.8298 H   0  0  0  0  0  0
  -27.3810  -12.6164   17.7804 H   0  0  0  0  0  0
  -27.6769  -14.2558   19.5205 H   0  0  0  0  0  0
  -28.6985  -12.0721   21.4050 H   0  0  0  0  0  0
  -28.4756  -13.7512   21.8156 H   0  0  0  0  0  0
  -25.2801   -9.5681   22.4755 H   0  0  0  0  0  0
  -24.0041   -7.4636   22.7464 H   0  0  0  0  0  0
  -21.0893   -8.8815   19.8942 H   0  0  0  0  0  0
  -22.3772  -10.9700   19.6169 H   0  0  0  0  0  0
  -21.2011   -7.6161   23.9751 H   0  0  0  0  0  0
  -21.1465   -6.0513   25.9086 H   0  0  0  0  0  0
  -22.0606   -2.7629   23.2829 H   0  0  0  0  0  0
  -22.4160  -11.9879   22.4754 H   0  0  0  0  0  0
  -21.1154  -13.1254   22.2541 H   0  0  0  0  0  0
  -24.6444  -15.8258   20.4879 H   0  0  0  0  0  0
  -26.2533  -15.6305   20.0184 H   0  0  0  0  0  0
  -26.7197  -32.5513   23.1077 H   0  0  0  0  0  0
  -25.0202  -33.9726   25.0453 H   0  0  0  0  0  0
  -22.7041  -31.3028   21.4094 H   0  0  0  0  0  0
  -23.3791  -35.9582   23.3252 H   0  0  0  0  0  0
  -24.3563  -36.8926   22.2033 H   0  0  0  0  0  0
  -23.7207  -37.6459   23.6672 H   0  0  0  0  0  0
  -26.0705  -31.5655   20.6045 H   0  0  0  0  0  0
  -26.8372  -30.8492   21.9974 H   0  0  0  0  0  0
  -28.1056  -28.9714   21.2304 H   0  0  0  0  0  0
  -26.0056  -25.9783   18.9476 H   0  0  0  0  0  0
  -23.9734  -27.3479   18.9609 H   0  0  0  0  0  0
  -23.7280  -30.6139   19.4075 H   0  0  0  0  0  0
  -22.7459  -29.2568   19.8673 H   0  0  0  0  0  0
  -25.1248  -36.1888   25.0784 H   0  0  0  0  0  0
  -20.9900  -28.3322   24.1420 H   0  0  0  0  0  0
  -20.5658  -26.2332   23.3610 H   0  0  0  0  0  0
  -21.6621  -26.7476   22.1178 H   0  0  0  0  0  0
  -19.6924  -25.6296   21.1220 H   0  0  0  0  0  0
  -19.6685  -27.3211   20.6723 H   0  0  0  0  0  0
  -17.4167  -26.6699   21.4046 H   0  0  0  0  0  0
  -18.0343  -26.0099   22.9012 H   0  0  0  0  0  0
  -19.7940  -30.7283   24.2259 H   0  0  0  0  0  0
  -17.5021  -31.6295   24.5168 H   0  0  0  0  0  0
  -15.5338  -30.3006   23.7691 H   0  0  0  0  0  0
  -15.8670  -28.0849   22.7078 H   0  0  0  0  0  0
  -24.5933  -30.7106   25.7798 H   0  0  0  0  0  0
  -24.9018  -32.2954   26.4873 H   0  0  0  0  0  0
  -25.8114  -30.8952   27.0215 H   0  0  0  0  0  0
  -26.2879  -29.6771   24.1178 H   0  0  0  0  0  0
  -27.4033  -29.7232   25.4622 H   0  0  0  0  0  0
  -27.8756  -30.4243   23.9317 H   0  0  0  0  0  0
  -27.2684  -33.3611   26.2079 H   0  0  0  0  0  0
  -28.3937  -32.6887   25.0365 H   0  0  0  0  0  0
  -28.0742  -31.8456   26.5415 H   0  0  0  0  0  0
  -28.2503  -38.0151   24.7603 H   0  0  0  0  0  0
  -28.1149  -36.2683   24.6094 H   0  0  0  0  0  0
  -27.2323  -37.1174   25.8842 H   0  0  0  0  0  0
  -20.9395  -29.8762   21.6876 H   0  0  0  0  0  0
  -26.0144  -38.2818   24.1601 H   0  0  0  0  0  0
  -26.8521  -25.4128   21.3165 H   0  0  0  0  0  0
  -32.7453  -20.6646   24.4775 H   0  0  0  0  0  0
  -32.3087  -22.1127   23.5806 H   0  0  0  0  0  0
  -32.6012  -20.5997   22.7291 H   0  0  0  0  0  0
  -30.6189  -20.8981   25.9604 H   0  0  0  0  0  0
  -29.0548  -21.0824   25.1802 H   0  0  0  0  0  0
  -30.2423  -22.3760   25.0897 H   0  0  0  0  0  0
  -30.8450  -18.7915   24.8895 H   0  0  0  0  0  0
  -31.0912  -18.5996   23.1699 H   0  0  0  0  0  0
  -29.4653  -18.8490   23.8160 H   0  0  0  0  0  0
  -28.8214  -20.8634   22.6788 H   0  0  0  0  0  0
  -29.7434  -22.3134   22.7844 H   0  0  0  0  0  0
  -31.2656  -21.5182   20.9906 H   0  0  0  0  0  0
  -32.6591  -20.5189   19.3819 H   0  0  0  0  0  0
  -33.3135  -18.9820   19.1031 H   0  0  0  0  0  0
  -29.0081  -15.4689   21.0367 H   0  0  0  0  0  0
  -28.3867  -21.6405   20.4187 H   0  0  0  0  0  0
  -26.5865  -23.5603   21.7020 H   0  0  0  0  0  0
  1 25  1  0  0  0
  1 30  2  0  0  0
  1 85  1  0  0  0
  2  3  1  0  0  0
  2 25  1  0  0  0
  2 90  1  0  0  0
  2 91  1  0  0  0
  3  4  1  0  0  0
  3 92  1  0  0  0
  3 93  1  0  0  0
  4  5  1  0  0  0
  4 94  1  0  0  0
  4 95  1  0  0  0
  5  6  1  0  0  0
  5 26  1  0  0  0
  5 96  1  0  0  0
  6 25  1  0  0  0
  6 97  1  0  0  0
  6 98  1  0  0  0
  7  8  2  0  0  0
  7 26  1  0  0  0
  7 29  1  0  0  0
  8  9  1  0  0  0
  8 22  1  0  0  0
  9 10  1  0  0  0
  9 27  2  0  0  0
 10 11  2  0  0  0
 10 15  1  0  0  0
 11 12  1  0  0  0
 11 99  1  0  0  0
 12 13  2  0  0  0
 12100  1  0  0  0
 13 14  1  0  0  0
 13 31  1  0  0  0
 14 15  2  0  0  0
 14101  1  0  0  0
 15102  1  0  0  0
 16 17  2  0  0  0
 16 21  1  0  0  0
 16 31  1  0  0  0
 17 18  1  0  0  0
 17103  1  0  0  0
 18 19  2  0  0  0
 18104  1  0  0  0
 19 20  1  0  0  0
 19 24  1  0  0  0
 20 21  2  0  0  0
 20105  1  0  0  0
 21 23  1  0  0  0
 22 28  1  0  0  0
 22 32  2  0  0  0
 26 27  1  0  0  0
 28106  1  0  0  0
 28107  1  0  0  0
 29108  1  0  0  0
 29109  1  0  0  0
 33 34  1  0  0  0
 33 66  1  0  0  0
 33 70  2  0  0  0
 34 36  1  0  0  0
 34 59  1  0  0  0
 34110  1  0  0  0
 35 44  2  0  0  0
 35 45  1  0  0  0
 35 68  1  0  0  0
 36 56  1  0  0  0
 36111  1  0  0  0
 37 39  1  0  0  0
 37 47  1  0  0  0
 37 66  1  0  0  0
 37112  1  0  0  0
 38 43  2  0  0  0
 38 46  1  0  0  0
 38 47  1  0  0  0
 39 64  1  0  0  0
 39 67  2  0  0  0
 40 52  1  0  0  0
 40 53  2  0  0  0
 40 58  1  0  0  0
 41113  1  0  0  0
 41114  1  0  0  0
 41115  1  0  0  0
 41 48  1  0  0  0
 42 43  1  0  0  0
 42 66  1  0  0  0
 42116  1  0  0  0
 42117  1  0  0  0
 43 44  1  0  0  0
 44118  1  0  0  0
 45 46  2  0  0  0
 45119  1  0  0  0
 46120  1  0  0  0
 47121  1  0  0  0
 47122  1  0  0  0
 48 56  1  0  0  0
 48 65  1  0  0  0
 48123  1  0  0  0
 49 50  1  0  0  0
 49 53  1  0  0  0
 49 64  1  0  0  0
 49124  1  0  0  0
 50 51  1  0  0  0
 50125  1  0  0  0
 50126  1  0  0  0
 51 52  1  0  0  0
 51127  1  0  0  0
 51128  1  0  0  0
 52129  1  0  0  0
 52130  1  0  0  0
 53 54  1  0  0  0
 54 55  2  0  0  0
 54131  1  0  0  0
 55 57  1  0  0  0
 55132  1  0  0  0
 56 69  2  0  0  0
 57 58  2  0  0  0
 57133  1  0  0  0
 58134  1  0  0  0
 59 60  1  0  0  0
 59 61  1  0  0  0
 59 62  1  0  0  0
 60135  1  0  0  0
 60136  1  0  0  0
 60137  1  0  0  0
 61138  1  0  0  0
 61139  1  0  0  0
 61140  1  0  0  0
 62141  1  0  0  0
 62142  1  0  0  0
 62143  1  0  0  0
 63 65  1  0  0  0
 63144  1  0  0  0
 63145  1  0  0  0
 63146  1  0  0  0
 64147  1  0  0  0
 65148  1  0  0  0
 68 74  1  0  0  0
 71 72  2  0  0  0
 71 81  1  0  0  0
 71 89  1  0  0  0
 72 83  1  0  0  0
 72 84  1  0  0  0
 73 83  2  0  0  0
 73 85  1  0  0  0
 73 89  1  0  0  0
 74 75  2  0  0  0
 74149  1  0  0  0
 75 76  1  0  0  0
 75 88  1  0  0  0
 76 86  1  0  0  0
 76 87  2  0  0  0
 77150  1  0  0  0
 77151  1  0  0  0
 77152  1  0  0  0
 77 82  1  0  0  0
 78 82  1  0  0  0
 78153  1  0  0  0
 78154  1  0  0  0
 78155  1  0  0  0
 79 82  1  0  0  0
 79156  1  0  0  0
 79157  1  0  0  0
 79158  1  0  0  0
 80 82  1  0  0  0
 80159  1  0  0  0
 80160  1  0  0  0
 80 81  1  0  0  0
 81 86  1  0  0  0
 81161  1  0  0  0
 84162  1  0  0  0
 84163  1  0  0  0
 85164  1  0  0  0
 86165  1  0  0  0
 88166  1  0  0  0
M  ISO  4   1 100  68 101  74 101  85 100
M  END
> <chiral flag>
0

> <version>
0

> <s_m_source_file>
/data/baiqing/PycharmProjects/Reinvent-master-3.2/result/LINK_invent/BTK/process_docking_weight1_custom_product_contain_oxygen_bond_distance_aromatic_linkinvent_7_9_3/rearranged_h_0178.sdf

> <i_m_source_file_index>
26

> <r_mmod_Potential_Energy-OPLS-2005>
-34.4989204406738

> <r_mmod_Stretch_Energy-OPLS-2005>
59.5259971618652

> <r_mmod_Bend_Energy-OPLS-2005>
178.38053894043

> <r_mmod_Torsional_Energy-OPLS-2005>
247.084945678711

> <r_mmod_Improper_Torsional_Energy-OPLS-2005>
14.2081384658813

> <r_mmod_Van_der_Waal_Energy-OPLS-2005>
140.469619750977

> <r_mmod_Electrostatic_Energy-OPLS-2005>
-460.568786621094

> <r_mmod_Solvation_Energy-OPLS-2005>
-259.681884765625

> <b_mmod_Minimization_Converged-OPLS-2005>
0

> <r_mmod_RMS_Derivative-OPLS-2005>
4.91221523284912

$$$$
26
                    3D
 Structure written by MMmdl.
147155  0  0  1  0            999 V2000
  -30.5615  -14.9007   20.4329 C   0  0  0  0  0  0
  -30.4372  -12.5569   19.4909 C   0  0  0  0  0  0
  -29.5150  -12.5147   18.2507 C   0  0  0  0  0  0
  -28.0466  -12.3127   18.6703 C   0  0  0  0  0  0
  -27.6300  -13.2434   19.8392 C   0  0  2  0  0  0
  -28.6740  -13.2525   20.9760 C   0  0  0  0  0  0
  -25.2461  -13.8209   20.5700 C   0  0  0  0  0  0
  -24.1776  -13.0441   20.9231 C   0  0  0  0  0  0
  -24.6388  -11.6923   20.8769 C   0  0  0  0  0  0
  -23.9075  -10.4291   21.0414 C   0  0  0  0  0  0
  -24.3626   -9.4200   21.9181 C   0  0  0  0  0  0
  -23.6295   -8.2244   22.0752 C   0  0  0  0  0  0
  -22.4276   -8.0284   21.3546 C   0  0  0  0  0  0
  -21.9918   -9.0258   20.4652 C   0  0  0  0  0  0
  -22.7253  -10.2133   20.3062 C   0  0  0  0  0  0
  -21.6855   -6.0733   22.5276 C   0  0  0  0  0  0
  -21.4016   -6.5638   23.8208 C   0  0  0  0  0  0
  -21.3657   -5.6793   24.9170 C   0  0  0  0  0  0
  -21.6046   -4.3056   24.7227 C   0  0  0  0  0  0
  -21.8821   -3.8145   23.4350 C   0  0  0  0  0  0
  -21.9192   -4.6960   22.3403 C   0  0  0  0  0  0
  -22.7798  -13.5212   21.1887 C   0  0  0  0  0  0
  -22.1665   -4.2140   21.0985 F   0  0  0  0  0  0
  -21.5625   -3.4546   25.7743 F   0  0  0  0  0  0
  -29.9550  -13.6502   20.3802 N   0  0  0  0  0  0
  -26.2882  -12.9436   20.3253 N   0  0  0  0  0  0
  -25.9316  -11.6572   20.5758 N   0  0  0  0  0  0
  -22.0460  -12.8192   22.0452 N   0  0  0  0  0  0
  -25.4126  -15.1937   20.4096 N   0  0  0  0  0  0
  -31.7660  -14.9529   20.1595 O   0  0  0  0  0  0
  -21.6644   -6.8879   21.4242 O   0  0  0  0  0  0
  -22.3472  -14.5504   20.6718 O   0  0  0  0  0  0
  -24.6392  -31.8466   23.1908 C   0  0  0  0  0  0
  -25.9174  -32.4714   23.8285 C   0  0  1  0  0  0
  -27.2193  -27.1638   20.1573 C   0  0  0  0  0  0
  -25.5930  -33.8520   24.2199 N   0  0  0  0  0  0
  -23.4416  -30.4654   21.5356 C   0  0  2  0  0  0
  -24.8931  -28.8946   20.1119 C   0  0  0  0  0  0
  -22.7546  -29.4553   22.4877 C   0  0  0  0  0  0
  -18.0297  -28.1393   22.8484 C   0  0  0  0  0  0
  -24.1491  -36.7270   23.2650 C   0  0  0  0  0  0
  -25.9948  -30.7280   21.3874 C   0  0  0  0  0  0
  -26.0669  -29.3401   20.7338 C   0  0  0  0  0  0
  -27.2308  -28.4885   20.7438 C   0  0  0  0  0  0
  -26.0254  -26.8152   19.4890 C   0  0  0  0  0  0
  -24.8831  -27.6437   19.4747 C   0  0  0  0  0  0
  -23.6676  -29.7933   20.1548 C   0  0  0  0  0  0
  -25.4127  -36.3047   24.0317 C   0  0  1  0  0  0
  -20.5905  -28.3710   23.1250 C   0  0  2  0  0  0
  -20.6780  -26.9416   22.5412 C   0  0  0  0  0  0
  -19.5756  -26.6377   21.5219 C   0  0  0  0  0  0
  -18.1938  -26.7929   22.1633 C   0  0  0  0  0  0
  -19.1553  -28.8872   23.2858 C   0  0  0  0  0  0
  -18.9473  -30.1471   23.8875 C   0  0  0  0  0  0
  -17.6469  -30.6592   24.0559 C   0  0  0  0  0  0
  -25.9063  -34.9418   23.5065 C   0  0  0  0  0  0
  -16.5358  -29.9085   23.6336 C   0  0  0  0  0  0
  -16.7281  -28.6503   23.0358 C   0  0  0  0  0  0
  -26.4509  -31.6580   25.0715 C   0  0  0  0  0  0
  -25.3695  -31.3759   26.1407 C   0  0  0  0  0  0
  -27.0390  -30.2985   24.6287 C   0  0  0  0  0  0
  -27.6025  -32.4362   25.7503 C   0  0  0  0  0  0
  -27.5560  -37.1816   24.8486 C   0  0  0  0  0  0
  -21.4242  -29.3040   22.3628 N   0  0  0  0  0  0
  -26.4309  -37.3737   23.9374 N   0  0  0  0  0  0
  -24.7111  -31.0344   22.0929 N   0  0  0  0  0  0
  -23.4204  -28.8103   23.3017 O   0  0  0  0  0  0
  -28.2818  -26.1990   20.1932 O   0  0  0  0  0  0
  -26.5652  -34.8906   22.4647 O   0  0  0  0  0  0
  -23.5519  -32.1327   23.7146 O   0  0  0  0  0  0
  -31.3495  -18.0086   20.4401 C   0  0  0  0  0  0
  -31.2280  -19.4389   20.3749 C   0  0  0  0  0  0
  -30.0817  -17.4816   20.5058 C   0  0  0  0  0  0
  -29.9201  -19.8471   20.4078 C   0  0  0  0  0  0
  -28.0397  -24.7679   20.3684 C   0  0  0  0  0  0
  -28.9213  -23.6716   20.2450 C   0  0  0  0  0  0
  -28.5890  -22.1731   20.4594 C   0  0  0  0  0  0
  -29.6315  -21.2499   20.3025 N   0  0  0  0  0  0
  -29.7797  -16.0775   20.5780 N   0  0  0  0  0  0
  -27.4621  -21.7780   20.7620 O   0  0  0  0  0  0
  -29.1642  -18.6206   20.4969 O   0  0  0  0  0  0
  -30.1889  -23.9501   19.9084 O   0  0  0  0  0  0
  -32.2809  -20.2873   20.2864 F   0  0  0  0  0  0
  -31.4704  -12.7101   19.1750 H   0  0  0  0  0  0
  -30.4259  -11.6013   20.0175 H   0  0  0  0  0  0
  -29.8250  -11.7158   17.5756 H   0  0  0  0  0  0
  -29.6109  -13.4460   17.6909 H   0  0  0  0  0  0
  -27.9347  -11.2713   18.9748 H   0  0  0  0  0  0
  -27.3810  -12.4518   17.8168 H   0  0  0  0  0  0
  -27.5983  -14.2481   19.4169 H   0  0  0  0  0  0
  -28.7499  -12.2717   21.4470 H   0  0  0  0  0  0
  -28.3809  -13.9506   21.7616 H   0  0  0  0  0  0
  -25.2769   -9.5673   22.4756 H   0  0  0  0  0  0
  -24.0001   -7.4636   22.7468 H   0  0  0  0  0  0
  -21.0848   -8.8787   19.8956 H   0  0  0  0  0  0
  -22.3712  -10.9677   19.6176 H   0  0  0  0  0  0
  -21.2013   -7.6144   23.9706 H   0  0  0  0  0  0
  -21.1474   -6.0523   25.9069 H   0  0  0  0  0  0
  -22.0599   -2.7608   23.2850 H   0  0  0  0  0  0
  -22.4106  -11.9871   22.4853 H   0  0  0  0  0  0
  -21.1075  -13.1200   22.2664 H   0  0  0  0  0  0
  -24.6412  -15.8429   20.5184 H   0  0  0  0  0  0
  -26.2456  -15.6338   20.0415 H   0  0  0  0  0  0
  -26.7239  -32.5331   23.1017 H   0  0  0  0  0  0
  -25.0041  -33.9642   25.0322 H   0  0  0  0  0  0
  -22.7418  -31.2893   21.3825 H   0  0  0  0  0  0
  -23.3716  -35.9650   23.3411 H   0  0  0  0  0  0
  -24.3540  -36.8794   22.2042 H   0  0  0  0  0  0
  -23.7311  -37.6528   23.6617 H   0  0  0  0  0  0
  -26.1463  -31.4819   20.6137 H   0  0  0  0  0  0
  -26.8669  -30.7803   22.0274 H   0  0  0  0  0  0
  -28.1270  -28.8242   21.2470 H   0  0  0  0  0  0
  -25.9587  -25.8584   18.9907 H   0  0  0  0  0  0
  -23.9888  -27.2998   18.9740 H   0  0  0  0  0  0
  -23.7989  -30.5670   19.3975 H   0  0  0  0  0  0
  -22.7839  -29.2312   19.8474 H   0  0  0  0  0  0
  -25.1331  -36.1895   25.0815 H   0  0  0  0  0  0
  -20.9998  -28.3296   24.1371 H   0  0  0  0  0  0
  -20.5673  -26.2320   23.3628 H   0  0  0  0  0  0
  -21.6645  -26.7422   22.1206 H   0  0  0  0  0  0
  -19.6910  -25.6281   21.1265 H   0  0  0  0  0  0
  -19.6695  -27.3171   20.6737 H   0  0  0  0  0  0
  -17.4204  -26.6669   21.4040 H   0  0  0  0  0  0
  -18.0340  -26.0077   22.9037 H   0  0  0  0  0  0
  -19.7950  -30.7298   24.2226 H   0  0  0  0  0  0
  -17.5022  -31.6269   24.5167 H   0  0  0  0  0  0
  -15.5358  -30.2982   23.7673 H   0  0  0  0  0  0
  -15.8679  -28.0815   22.7084 H   0  0  0  0  0  0
  -24.5902  -30.7073   25.7733 H   0  0  0  0  0  0
  -24.8845  -32.2935   26.4748 H   0  0  0  0  0  0
  -25.7979  -30.9004   27.0237 H   0  0  0  0  0  0
  -26.3018  -29.6705   24.1269 H   0  0  0  0  0  0
  -27.3990  -29.7282   25.4861 H   0  0  0  0  0  0
  -27.8922  -30.4241   23.9616 H   0  0  0  0  0  0
  -27.2588  -33.3659   26.2055 H   0  0  0  0  0  0
  -28.3843  -32.6944   25.0346 H   0  0  0  0  0  0
  -28.0692  -31.8519   26.5445 H   0  0  0  0  0  0
  -28.2668  -38.0017   24.7388 H   0  0  0  0  0  0
  -28.0963  -36.2543   24.6517 H   0  0  0  0  0  0
  -27.2246  -37.1710   25.8885 H   0  0  0  0  0  0
  -20.9444  -29.8749   21.6809 H   0  0  0  0  0  0
  -26.0190  -38.2831   24.1284 H   0  0  0  0  0  0
  -32.2727  -17.4490   20.4342 H   0  0  0  0  0  0
  -27.0105  -24.5861   20.6473 H   0  0  0  0  0  0
  -30.4726  -21.7709   20.0877 H   0  0  0  0  0  0
  -28.8023  -15.8785   20.7231 H   0  0  0  0  0  0
  -30.2456  -24.8928   19.8128 H   0  0  0  0  0  0
  1 25  1  0  0  0
  1 30  2  0  0  0
  1 79  1  0  0  0
  2  3  1  0  0  0
  2 25  1  0  0  0
  2 84  1  0  0  0
  2 85  1  0  0  0
  3  4  1  0  0  0
  3 86  1  0  0  0
  3 87  1  0  0  0
  4  5  1  0  0  0
  4 88  1  0  0  0
  4 89  1  0  0  0
  5  6  1  0  0  0
  5 26  1  0  0  0
  5 90  1  0  0  0
  6 25  1  0  0  0
  6 91  1  0  0  0
  6 92  1  0  0  0
  7  8  2  0  0  0
  7 26  1  0  0  0
  7 29  1  0  0  0
  8  9  1  0  0  0
  8 22  1  0  0  0
  9 10  1  0  0  0
  9 27  2  0  0  0
 10 11  2  0  0  0
 10 15  1  0  0  0
 11 12  1  0  0  0
 11 93  1  0  0  0
 12 13  2  0  0  0
 12 94  1  0  0  0
 13 14  1  0  0  0
 13 31  1  0  0  0
 14 15  2  0  0  0
 14 95  1  0  0  0
 15 96  1  0  0  0
 16 17  2  0  0  0
 16 21  1  0  0  0
 16 31  1  0  0  0
 17 18  1  0  0  0
 17 97  1  0  0  0
 18 19  2  0  0  0
 18 98  1  0  0  0
 19 20  1  0  0  0
 19 24  1  0  0  0
 20 21  2  0  0  0
 20 99  1  0  0  0
 21 23  1  0  0  0
 22 28  1  0  0  0
 22 32  2  0  0  0
 26 27  1  0  0  0
 28100  1  0  0  0
 28101  1  0  0  0
 29102  1  0  0  0
 29103  1  0  0  0
 33 34  1  0  0  0
 33 66  1  0  0  0
 33 70  2  0  0  0
 34 36  1  0  0  0
 34 59  1  0  0  0
 34104  1  0  0  0
 35 44  2  0  0  0
 35 45  1  0  0  0
 35 68  1  0  0  0
 36 56  1  0  0  0
 36105  1  0  0  0
 37 39  1  0  0  0
 37 47  1  0  0  0
 37 66  1  0  0  0
 37106  1  0  0  0
 38 43  2  0  0  0
 38 46  1  0  0  0
 38 47  1  0  0  0
 39 64  1  0  0  0
 39 67  2  0  0  0
 40 52  1  0  0  0
 40 53  2  0  0  0
 40 58  1  0  0  0
 41107  1  0  0  0
 41108  1  0  0  0
 41109  1  0  0  0
 41 48  1  0  0  0
 42 43  1  0  0  0
 42 66  1  0  0  0
 42110  1  0  0  0
 42111  1  0  0  0
 43 44  1  0  0  0
 44112  1  0  0  0
 45 46  2  0  0  0
 45113  1  0  0  0
 46114  1  0  0  0
 47115  1  0  0  0
 47116  1  0  0  0
 48 56  1  0  0  0
 48 65  1  0  0  0
 48117  1  0  0  0
 49 50  1  0  0  0
 49 53  1  0  0  0
 49 64  1  0  0  0
 49118  1  0  0  0
 50 51  1  0  0  0
 50119  1  0  0  0
 50120  1  0  0  0
 51 52  1  0  0  0
 51121  1  0  0  0
 51122  1  0  0  0
 52123  1  0  0  0
 52124  1  0  0  0
 53 54  1  0  0  0
 54 55  2  0  0  0
 54125  1  0  0  0
 55 57  1  0  0  0
 55126  1  0  0  0
 56 69  2  0  0  0
 57 58  2  0  0  0
 57127  1  0  0  0
 58128  1  0  0  0
 59 60  1  0  0  0
 59 61  1  0  0  0
 59 62  1  0  0  0
 60129  1  0  0  0
 60130  1  0  0  0
 60131  1  0  0  0
 61132  1  0  0  0
 61133  1  0  0  0
 61134  1  0  0  0
 62135  1  0  0  0
 62136  1  0  0  0
 62137  1  0  0  0
 63 65  1  0  0  0
 63138  1  0  0  0
 63139  1  0  0  0
 63140  1  0  0  0
 64141  1  0  0  0
 65142  1  0  0  0
 68 75  1  0  0  0
 71 72  1  0  0  0
 71 73  2  0  0  0
 71143  1  0  0  0
 72 74  2  0  0  0
 72 83  1  0  0  0
 73 79  1  0  0  0
 73 81  1  0  0  0
 74 78  1  0  0  0
 74 81  1  0  0  0
 75 76  2  0  0  0
 75144  1  0  0  0
 76 77  1  0  0  0
 76 82  1  0  0  0
 77 78  1  0  0  0
 77 80  2  0  0  0
 78145  1  0  0  0
 79146  1  0  0  0
 82147  1  0  0  0
M  ISO  4   1 100  68 101  75 101  79 100
M  END
> <chiral flag>
0

> <version>
0

> <s_m_source_file>
/data/baiqing/PycharmProjects/Reinvent-master-3.2/result/LINK_invent/BTK/process_docking_weight1_custom_product_contain_oxygen_bond_distance_aromatic_linkinvent_7_9_3/rearranged_h_0178.sdf

> <i_m_source_file_index>
27

> <r_mmod_Potential_Energy-OPLS-2005>
247.818283081055

> <r_mmod_Stretch_Energy-OPLS-2005>
189.707382202148

> <r_mmod_Bend_Energy-OPLS-2005>
255.003112792969

> <r_mmod_Torsional_Energy-OPLS-2005>
199.495193481445

> <r_mmod_Improper_Torsional_Energy-OPLS-2005>
4.738205909729

> <r_mmod_Van_der_Waal_Energy-OPLS-2005>
118.783226013184

> <r_mmod_Electrostatic_Energy-OPLS-2005>
-461.577758789062

> <r_mmod_Solvation_Energy-OPLS-2005>
-220.64778137207

> <b_mmod_Minimization_Converged-OPLS-2005>
0

> <r_mmod_RMS_Derivative-OPLS-2005>
1.13694095611572

$$$$
27
                    3D
 Structure written by MMmdl.
153161  0  0  1  0            999 V2000
  -30.6606  -14.5403   20.4748 C   0  0  0  0  0  0
  -30.4244  -12.3236   19.4423 C   0  0  0  0  0  0
  -29.4999  -12.4842   18.2161 C   0  0  0  0  0  0
  -28.0208  -12.3422   18.6270 C   0  0  0  0  0  0
  -27.6539  -13.2090   19.8616 C   0  0  2  0  0  0
  -28.6964  -13.0451   20.9910 C   0  0  0  0  0  0
  -25.2571  -13.8162   20.5671 C   0  0  0  0  0  0
  -24.1830  -13.0439   20.9180 C   0  0  0  0  0  0
  -24.6383  -11.6905   20.8736 C   0  0  0  0  0  0
  -23.9049  -10.4292   21.0408 C   0  0  0  0  0  0
  -24.3607   -9.4210   21.9185 C   0  0  0  0  0  0
  -23.6287   -8.2244   22.0754 C   0  0  0  0  0  0
  -22.4270   -8.0280   21.3543 C   0  0  0  0  0  0
  -21.9899   -9.0253   20.4647 C   0  0  0  0  0  0
  -22.7222  -10.2135   20.3058 C   0  0  0  0  0  0
  -21.6853   -6.0734   22.5277 C   0  0  0  0  0  0
  -21.4014   -6.5639   23.8210 C   0  0  0  0  0  0
  -21.3656   -5.6791   24.9174 C   0  0  0  0  0  0
  -21.6044   -4.3054   24.7223 C   0  0  0  0  0  0
  -21.8820   -3.8145   23.4344 C   0  0  0  0  0  0
  -21.9192   -4.6961   22.3400 C   0  0  0  0  0  0
  -22.7856  -13.5242   21.1847 C   0  0  0  0  0  0
  -22.1663   -4.2148   21.0978 F   0  0  0  0  0  0
  -21.5626   -3.4535   25.7734 F   0  0  0  0  0  0
  -30.0220  -13.3390   20.4286 N   0  0  0  0  0  0
  -26.2987  -12.9327   20.3304 N   0  0  0  0  0  0
  -25.9306  -11.6490   20.5752 N   0  0  0  0  0  0
  -22.0495  -12.8240   22.0406 N   0  0  0  0  0  0
  -25.4305  -15.1881   20.4082 N   0  0  0  0  0  0
  -31.8529  -14.6644   20.1840 O   0  0  0  0  0  0
  -21.6638   -6.8876   21.4239 O   0  0  0  0  0  0
  -22.3545  -14.5550   20.6697 O   0  0  0  0  0  0
  -24.6184  -31.8655   23.2074 C   0  0  0  0  0  0
  -25.9064  -32.4807   23.8377 C   0  0  1  0  0  0
  -27.2293  -27.3929   20.0978 C   0  0  0  0  0  0
  -25.5911  -33.8607   24.2311 N   0  0  0  0  0  0
  -23.4067  -30.4902   21.5495 C   0  0  2  0  0  0
  -24.8493  -28.9498   20.1168 C   0  0  0  0  0  0
  -22.7425  -29.4655   22.4979 C   0  0  0  0  0  0
  -18.0276  -28.1377   22.8490 C   0  0  0  0  0  0
  -24.1490  -36.7312   23.2639 C   0  0  0  0  0  0
  -25.9397  -30.8192   21.3648 C   0  0  0  0  0  0
  -26.0133  -29.4506   20.7108 C   0  0  0  0  0  0
  -27.2034  -28.6816   20.6933 C   0  0  0  0  0  0
  -26.0354  -26.9112   19.5104 C   0  0  0  0  0  0
  -24.8575  -27.6815   19.5148 C   0  0  0  0  0  0
  -23.6153  -29.8233   20.1644 C   0  0  0  0  0  0
  -25.4112  -36.3104   24.0335 C   0  0  1  0  0  0
  -20.5868  -28.3670   23.1309 C   0  0  2  0  0  0
  -20.6768  -26.9404   22.5416 C   0  0  0  0  0  0
  -19.5746  -26.6384   21.5213 C   0  0  0  0  0  0
  -18.1924  -26.7924   22.1623 C   0  0  0  0  0  0
  -19.1526  -28.8840   23.2897 C   0  0  0  0  0  0
  -18.9453  -30.1445   23.8910 C   0  0  0  0  0  0
  -17.6456  -30.6582   24.0565 C   0  0  0  0  0  0
  -25.9041  -34.9468   23.5121 C   0  0  0  0  0  0
  -16.5347  -29.9085   23.6325 C   0  0  0  0  0  0
  -16.7265  -28.6502   23.0346 C   0  0  0  0  0  0
  -26.4478  -31.6595   25.0718 C   0  0  0  0  0  0
  -25.3738  -31.3709   26.1464 C   0  0  0  0  0  0
  -27.0309  -30.3032   24.6112 C   0  0  0  0  0  0
  -27.6054  -32.4314   25.7480 C   0  0  0  0  0  0
  -27.5581  -37.1813   24.8466 C   0  0  0  0  0  0
  -21.4150  -29.3037   22.3715 N   0  0  0  0  0  0
  -26.4298  -37.3789   23.9404 N   0  0  0  0  0  0
  -24.6737  -31.0732   22.0987 N   0  0  0  0  0  0
  -23.4185  -28.8196   23.3030 O   0  0  0  0  0  0
  -28.4155  -26.6699   20.1059 O   0  0  0  0  0  0
  -26.5604  -34.8925   22.4684 O   0  0  0  0  0  0
  -23.5371  -32.1422   23.7456 O   0  0  0  0  0  0
  -29.3762  -18.0772   20.5504 C   0  0  0  0  0  0
  -30.5646  -18.2391   18.0158 C   0  0  0  0  0  0
  -29.4109  -19.3357   19.8726 C   0  0  0  0  0  0
  -29.9507  -16.8981   19.9796 C   0  0  0  0  0  0
  -30.0169  -19.3935   18.5945 C   0  0  0  0  0  0
  -30.5149  -17.0024   18.6791 C   0  0  0  0  0  0
  -27.9501  -22.8154   20.5212 C   0  0  0  0  0  0
  -29.1274  -21.7927   20.3292 C   0  0  0  0  0  0
  -28.2625  -24.2842   20.9066 C   0  0  0  0  0  0
  -28.4604  -25.2707   19.7198 C   0  0  0  0  0  0
  -28.7331  -20.4952   20.3936 N   0  0  0  0  0  0
  -29.8629  -15.6236   20.6619 N   0  0  0  0  0  0
  -26.7723  -22.4603   20.3885 O   0  0  0  0  0  0
  -30.2988  -22.1577   20.1814 O   0  0  0  0  0  0
  -30.0148  -20.5391   17.8699 F   0  0  0  0  0  0
  -30.9577  -15.9130   18.0064 F   0  0  0  0  0  0
  -31.4694  -12.4240   19.1433 H   0  0  0  0  0  0
  -30.3295  -11.3245   19.8703 H   0  0  0  0  0  0
  -29.7486  -11.7407   17.4578 H   0  0  0  0  0  0
  -29.6614  -13.4591   17.7528 H   0  0  0  0  0  0
  -27.8432  -11.2894   18.8504 H   0  0  0  0  0  0
  -27.3701  -12.5866   17.7867 H   0  0  0  0  0  0
  -27.6789  -14.2458   19.5264 H   0  0  0  0  0  0
  -28.6799  -12.0275   21.3842 H   0  0  0  0  0  0
  -28.4646  -13.6962   21.8355 H   0  0  0  0  0  0
  -25.2755   -9.5686   22.4754 H   0  0  0  0  0  0
  -23.9997   -7.4635   22.7471 H   0  0  0  0  0  0
  -21.0830   -8.8770   19.8955 H   0  0  0  0  0  0
  -22.3681  -10.9674   19.6166 H   0  0  0  0  0  0
  -21.2014   -7.6148   23.9714 H   0  0  0  0  0  0
  -21.1475   -6.0523   25.9076 H   0  0  0  0  0  0
  -22.0603   -2.7607   23.2846 H   0  0  0  0  0  0
  -22.4103  -11.9901   22.4800 H   0  0  0  0  0  0
  -21.1118  -13.1279   22.2612 H   0  0  0  0  0  0
  -24.6636  -15.8433   20.5145 H   0  0  0  0  0  0
  -26.2780  -15.6243   20.0685 H   0  0  0  0  0  0
  -26.7132  -32.5500   23.1134 H   0  0  0  0  0  0
  -25.0064  -33.9761   25.0459 H   0  0  0  0  0  0
  -22.6971  -31.3085   21.4104 H   0  0  0  0  0  0
  -23.3744  -35.9653   23.3316 H   0  0  0  0  0  0
  -24.3581  -36.8912   22.2050 H   0  0  0  0  0  0
  -23.7252  -37.6525   23.6645 H   0  0  0  0  0  0
  -26.0581  -31.5843   20.5963 H   0  0  0  0  0  0
  -26.8258  -30.8703   21.9860 H   0  0  0  0  0  0
  -28.1040  -29.0699   21.1484 H   0  0  0  0  0  0
  -25.9736  -25.9421   19.0421 H   0  0  0  0  0  0
  -23.9600  -27.2875   19.0579 H   0  0  0  0  0  0
  -23.7291  -30.5984   19.4057 H   0  0  0  0  0  0
  -22.7366  -29.2484   19.8662 H   0  0  0  0  0  0
  -25.1290  -36.1970   25.0828 H   0  0  0  0  0  0
  -20.9961  -28.3239   24.1430 H   0  0  0  0  0  0
  -20.5671  -26.2280   23.3605 H   0  0  0  0  0  0
  -21.6640  -26.7443   22.1211 H   0  0  0  0  0  0
  -19.6909  -25.6298   21.1235 H   0  0  0  0  0  0
  -19.6684  -27.3202   20.6749 H   0  0  0  0  0  0
  -17.4195  -26.6671   21.4024 H   0  0  0  0  0  0
  -18.0323  -26.0061   22.9014 H   0  0  0  0  0  0
  -19.7931  -30.7255   24.2285 H   0  0  0  0  0  0
  -17.5012  -31.6264   24.5165 H   0  0  0  0  0  0
  -15.5348  -30.2992   23.7640 H   0  0  0  0  0  0
  -15.8666  -28.0826   22.7052 H   0  0  0  0  0  0
  -24.5909  -30.7058   25.7802 H   0  0  0  0  0  0
  -24.8934  -32.2869   26.4914 H   0  0  0  0  0  0
  -25.8089  -30.8875   27.0221 H   0  0  0  0  0  0
  -26.2857  -29.6791   24.1164 H   0  0  0  0  0  0
  -27.4069  -29.7270   25.4577 H   0  0  0  0  0  0
  -27.8698  -30.4342   23.9272 H   0  0  0  0  0  0
  -27.2672  -33.3602   26.2087 H   0  0  0  0  0  0
  -28.3846  -32.6893   25.0296 H   0  0  0  0  0  0
  -28.0741  -31.8420   26.5371 H   0  0  0  0  0  0
  -28.2614  -38.0095   24.7496 H   0  0  0  0  0  0
  -28.1061  -36.2627   24.6313 H   0  0  0  0  0  0
  -27.2297  -37.1491   25.8869 H   0  0  0  0  0  0
  -20.9312  -29.8765   21.6941 H   0  0  0  0  0  0
  -26.0187  -38.2871   24.1389 H   0  0  0  0  0  0
  -28.8930  -18.0151   21.5146 H   0  0  0  0  0  0
  -30.9877  -18.2932   17.0248 H   0  0  0  0  0  0
  -29.1381  -24.3021   21.5550 H   0  0  0  0  0  0
  -27.4279  -24.6314   21.5145 H   0  0  0  0  0  0
  -27.8097  -25.0346   18.8801 H   0  0  0  0  0  0
  -29.4624  -25.1032   19.3236 H   0  0  0  0  0  0
  -27.7760  -20.3673   20.6952 H   0  0  0  0  0  0
  -28.9837  -15.4333   21.1161 H   0  0  0  0  0  0
  1 25  1  0  0  0
  1 30  2  0  0  0
  1 82  1  0  0  0
  2  3  1  0  0  0
  2 25  1  0  0  0
  2 87  1  0  0  0
  2 88  1  0  0  0
  3  4  1  0  0  0
  3 89  1  0  0  0
  3 90  1  0  0  0
  4  5  1  0  0  0
  4 91  1  0  0  0
  4 92  1  0  0  0
  5  6  1  0  0  0
  5 26  1  0  0  0
  5 93  1  0  0  0
  6 25  1  0  0  0
  6 94  1  0  0  0
  6 95  1  0  0  0
  7  8  2  0  0  0
  7 26  1  0  0  0
  7 29  1  0  0  0
  8  9  1  0  0  0
  8 22  1  0  0  0
  9 10  1  0  0  0
  9 27  2  0  0  0
 10 11  2  0  0  0
 10 15  1  0  0  0
 11 12  1  0  0  0
 11 96  1  0  0  0
 12 13  2  0  0  0
 12 97  1  0  0  0
 13 14  1  0  0  0
 13 31  1  0  0  0
 14 15  2  0  0  0
 14 98  1  0  0  0
 15 99  1  0  0  0
 16 17  2  0  0  0
 16 21  1  0  0  0
 16 31  1  0  0  0
 17 18  1  0  0  0
 17100  1  0  0  0
 18 19  2  0  0  0
 18101  1  0  0  0
 19 20  1  0  0  0
 19 24  1  0  0  0
 20 21  2  0  0  0
 20102  1  0  0  0
 21 23  1  0  0  0
 22 28  1  0  0  0
 22 32  2  0  0  0
 26 27  1  0  0  0
 28103  1  0  0  0
 28104  1  0  0  0
 29105  1  0  0  0
 29106  1  0  0  0
 33 34  1  0  0  0
 33 66  1  0  0  0
 33 70  2  0  0  0
 34 36  1  0  0  0
 34 59  1  0  0  0
 34107  1  0  0  0
 35 44  2  0  0  0
 35 45  1  0  0  0
 35 68  1  0  0  0
 36 56  1  0  0  0
 36108  1  0  0  0
 37 39  1  0  0  0
 37 47  1  0  0  0
 37 66  1  0  0  0
 37109  1  0  0  0
 38 43  2  0  0  0
 38 46  1  0  0  0
 38 47  1  0  0  0
 39 64  1  0  0  0
 39 67  2  0  0  0
 40 52  1  0  0  0
 40 53  2  0  0  0
 40 58  1  0  0  0
 41110  1  0  0  0
 41111  1  0  0  0
 41112  1  0  0  0
 41 48  1  0  0  0
 42 43  1  0  0  0
 42 66  1  0  0  0
 42113  1  0  0  0
 42114  1  0  0  0
 43 44  1  0  0  0
 44115  1  0  0  0
 45 46  2  0  0  0
 45116  1  0  0  0
 46117  1  0  0  0
 47118  1  0  0  0
 47119  1  0  0  0
 48 56  1  0  0  0
 48 65  1  0  0  0
 48120  1  0  0  0
 49 50  1  0  0  0
 49 53  1  0  0  0
 49 64  1  0  0  0
 49121  1  0  0  0
 50 51  1  0  0  0
 50122  1  0  0  0
 50123  1  0  0  0
 51 52  1  0  0  0
 51124  1  0  0  0
 51125  1  0  0  0
 52126  1  0  0  0
 52127  1  0  0  0
 53 54  1  0  0  0
 54 55  2  0  0  0
 54128  1  0  0  0
 55 57  1  0  0  0
 55129  1  0  0  0
 56 69  2  0  0  0
 57 58  2  0  0  0
 57130  1  0  0  0
 58131  1  0  0  0
 59 60  1  0  0  0
 59 61  1  0  0  0
 59 62  1  0  0  0
 60132  1  0  0  0
 60133  1  0  0  0
 60134  1  0  0  0
 61135  1  0  0  0
 61136  1  0  0  0
 61137  1  0  0  0
 62138  1  0  0  0
 62139  1  0  0  0
 62140  1  0  0  0
 63 65  1  0  0  0
 63141  1  0  0  0
 63142  1  0  0  0
 63143  1  0  0  0
 64144  1  0  0  0
 65145  1  0  0  0
 68 80  1  0  0  0
 71 73  2  0  0  0
 71 74  1  0  0  0
 71146  1  0  0  0
 72 75  2  0  0  0
 72 76  1  0  0  0
 72147  1  0  0  0
 73 75  1  0  0  0
 73 81  1  0  0  0
 74 76  2  0  0  0
 74 82  1  0  0  0
 75 85  1  0  0  0
 76 86  1  0  0  0
 77 78  1  0  0  0
 77 79  1  0  0  0
 77 83  2  0  0  0
 78 81  1  0  0  0
 78 84  2  0  0  0
 79 80  1  0  0  0
 79148  1  0  0  0
 79149  1  0  0  0
 80150  1  0  0  0
 80151  1  0  0  0
 81152  1  0  0  0
 82153  1  0  0  0
M  ISO  4   1 100  68 101  80 101  82 100
M  END
> <chiral flag>
0

> <version>
0

> <s_m_source_file>
/data/baiqing/PycharmProjects/Reinvent-master-3.2/result/LINK_invent/BTK/process_docking_weight1_custom_product_contain_oxygen_bond_distance_aromatic_linkinvent_7_9_3/rearranged_h_0178.sdf

> <i_m_source_file_index>
28

> <r_mmod_Potential_Energy-OPLS-2005>
-77.7408981323242

> <r_mmod_Stretch_Energy-OPLS-2005>
50.2679824829102

> <r_mmod_Bend_Energy-OPLS-2005>
111.250816345215

> <r_mmod_Torsional_Energy-OPLS-2005>
263.570770263672

> <r_mmod_Improper_Torsional_Energy-OPLS-2005>
6.91260242462158

> <r_mmod_Van_der_Waal_Energy-OPLS-2005>
155.918548583984

> <r_mmod_Electrostatic_Energy-OPLS-2005>
-447.126342773438

> <r_mmod_Solvation_Energy-OPLS-2005>
-243.547943115234

> <b_mmod_Minimization_Converged-OPLS-2005>
0

> <r_mmod_RMS_Derivative-OPLS-2005>
0.439579457044601

$$$$
28
                    3D
 Structure written by MMmdl.
153161  0  0  1  0            999 V2000
  -30.7142  -14.4469   20.6121 C   0  0  0  0  0  0
  -30.4198  -12.2994   19.4264 C   0  0  0  0  0  0
  -29.4935  -12.5029   18.2105 C   0  0  0  0  0  0
  -28.0158  -12.3592   18.6242 C   0  0  0  0  0  0
  -27.6613  -13.2073   19.8742 C   0  0  2  0  0  0
  -28.6999  -12.9976   20.9995 C   0  0  0  0  0  0
  -25.2590  -13.8173   20.5685 C   0  0  0  0  0  0
  -24.1837  -13.0450   20.9171 C   0  0  0  0  0  0
  -24.6391  -11.6911   20.8735 C   0  0  0  0  0  0
  -23.9062  -10.4296   21.0406 C   0  0  0  0  0  0
  -24.3616   -9.4211   21.9182 C   0  0  0  0  0  0
  -23.6291   -8.2245   22.0754 C   0  0  0  0  0  0
  -22.4271   -8.0280   21.3550 C   0  0  0  0  0  0
  -21.9906   -9.0254   20.4646 C   0  0  0  0  0  0
  -22.7238  -10.2137   20.3054 C   0  0  0  0  0  0
  -21.6850   -6.0733   22.5272 C   0  0  0  0  0  0
  -21.4016   -6.5640   23.8208 C   0  0  0  0  0  0
  -21.3657   -5.6794   24.9172 C   0  0  0  0  0  0
  -21.6039   -4.3057   24.7223 C   0  0  0  0  0  0
  -21.8821   -3.8147   23.4346 C   0  0  0  0  0  0
  -21.9196   -4.6961   22.3399 C   0  0  0  0  0  0
  -22.7863  -13.5239   21.1848 C   0  0  0  0  0  0
  -22.1660   -4.2152   21.0977 F   0  0  0  0  0  0
  -21.5630   -3.4536   25.7735 F   0  0  0  0  0  0
  -30.0342  -13.2807   20.4516 N   0  0  0  0  0  0
  -26.3022  -12.9339   20.3363 N   0  0  0  0  0  0
  -25.9318  -11.6495   20.5771 N   0  0  0  0  0  0
  -22.0504  -12.8227   22.0400 N   0  0  0  0  0  0
  -25.4342  -15.1892   20.4112 N   0  0  0  0  0  0
  -31.8283  -14.6206   20.1065 O   0  0  0  0  0  0
  -21.6635   -6.8877   21.4238 O   0  0  0  0  0  0
  -22.3543  -14.5547   20.6691 O   0  0  0  0  0  0
  -24.6158  -31.8659   23.2104 C   0  0  0  0  0  0
  -25.9050  -32.4800   23.8398 C   0  0  1  0  0  0
  -27.2234  -27.4279   20.0908 C   0  0  0  0  0  0
  -25.5911  -33.8591   24.2343 N   0  0  0  0  0  0
  -23.4030  -30.4950   21.5491 C   0  0  2  0  0  0
  -24.8437  -28.9626   20.1098 C   0  0  0  0  0  0
  -22.7403  -29.4682   22.4960 C   0  0  0  0  0  0
  -18.0278  -28.1381   22.8503 C   0  0  0  0  0  0
  -24.1466  -36.7305   23.2635 C   0  0  0  0  0  0
  -25.9329  -30.8333   21.3608 C   0  0  0  0  0  0
  -26.0056  -29.4690   20.7048 C   0  0  0  0  0  0
  -27.1976  -28.7099   20.6896 C   0  0  0  0  0  0
  -26.0385  -26.9359   19.4954 C   0  0  0  0  0  0
  -24.8562  -27.6973   19.5025 C   0  0  0  0  0  0
  -23.6081  -29.8308   20.1621 C   0  0  0  0  0  0
  -25.4079  -36.3103   24.0361 C   0  0  1  0  0  0
  -20.5875  -28.3668   23.1301 C   0  0  2  0  0  0
  -20.6761  -26.9400   22.5399 C   0  0  0  0  0  0
  -19.5735  -26.6396   21.5197 C   0  0  0  0  0  0
  -18.1920  -26.7932   22.1627 C   0  0  0  0  0  0
  -19.1530  -28.8841   23.2915 C   0  0  0  0  0  0
  -18.9447  -30.1449   23.8920 C   0  0  0  0  0  0
  -17.6448  -30.6587   24.0569 C   0  0  0  0  0  0
  -25.9033  -34.9463   23.5154 C   0  0  0  0  0  0
  -16.5346  -29.9090   23.6329 C   0  0  0  0  0  0
  -16.7265  -28.6510   23.0353 C   0  0  0  0  0  0
  -26.4487  -31.6564   25.0710 C   0  0  0  0  0  0
  -25.3793  -31.3647   26.1496 C   0  0  0  0  0  0
  -27.0287  -30.3000   24.6062 C   0  0  0  0  0  0
  -27.6091  -32.4246   25.7441 C   0  0  0  0  0  0
  -27.5591  -37.1779   24.8466 C   0  0  0  0  0  0
  -21.4133  -29.3041   22.3693 N   0  0  0  0  0  0
  -26.4264  -37.3798   23.9466 N   0  0  0  0  0  0
  -24.6691  -31.0793   22.0986 N   0  0  0  0  0  0
  -23.4166  -28.8213   23.3007 O   0  0  0  0  0  0
  -28.4055  -26.7113   20.1188 O   0  0  0  0  0  0
  -26.5593  -34.8927   22.4710 O   0  0  0  0  0  0
  -23.5355  -32.1390   23.7514 O   0  0  0  0  0  0
  -30.4477  -19.1796   22.3374 C   0  0  0  0  0  0
  -28.2373  -19.8636   20.7381 C   0  0  0  0  0  0
  -29.9878  -18.2641   21.3639 C   0  0  0  0  0  0
  -28.7339  -20.8035   21.6700 C   0  0  0  0  0  0
  -29.8282  -20.4374   22.4878 C   0  0  0  0  0  0
  -28.8627  -18.6085   20.5805 C   0  0  0  0  0  0
  -28.4117  -22.9660   20.9377 C   0  0  0  0  0  0
  -27.9499  -24.4109   20.9586 C   0  0  0  0  0  0
  -30.7751  -16.9875   21.0693 C   0  0  0  0  0  0
  -28.4160  -25.3058   19.7887 C   0  0  0  0  0  0
  -30.0443  -15.6431   21.3327 C   0  0  0  0  0  0
  -28.1464  -22.0698   21.8126 N   0  0  0  0  0  0
  -27.2350  -24.8606   21.8655 O   0  0  0  0  0  0
  -30.3082  -21.3115   23.4061 F   0  0  0  0  0  0
  -28.3977  -17.7461   19.6451 F   0  0  0  0  0  0
  -31.4647  -12.3917   19.1254 H   0  0  0  0  0  0
  -30.3146  -11.2890   19.8245 H   0  0  0  0  0  0
  -29.7342  -11.7795   17.4293 H   0  0  0  0  0  0
  -29.6624  -13.4903   17.7779 H   0  0  0  0  0  0
  -27.8327  -11.3039   18.8308 H   0  0  0  0  0  0
  -27.3625  -12.6220   17.7911 H   0  0  0  0  0  0
  -27.7040  -14.2527   19.5675 H   0  0  0  0  0  0
  -28.6681  -11.9688   21.3624 H   0  0  0  0  0  0
  -28.4628  -13.6196   21.8630 H   0  0  0  0  0  0
  -25.2758   -9.5682   22.4759 H   0  0  0  0  0  0
  -23.9998   -7.4634   22.7469 H   0  0  0  0  0  0
  -21.0842   -8.8774   19.8949 H   0  0  0  0  0  0
  -22.3696  -10.9676   19.6162 H   0  0  0  0  0  0
  -21.2003   -7.6150   23.9715 H   0  0  0  0  0  0
  -21.1477   -6.0521   25.9077 H   0  0  0  0  0  0
  -22.0602   -2.7607   23.2841 H   0  0  0  0  0  0
  -22.4119  -11.9882   22.4777 H   0  0  0  0  0  0
  -21.1128  -13.1256   22.2611 H   0  0  0  0  0  0
  -24.6748  -15.8507   20.5254 H   0  0  0  0  0  0
  -26.2991  -15.6280   20.1176 H   0  0  0  0  0  0
  -26.7117  -32.5507   23.1162 H   0  0  0  0  0  0
  -25.0045  -33.9725   25.0485 H   0  0  0  0  0  0
  -22.6950  -31.3153   21.4132 H   0  0  0  0  0  0
  -23.3752  -35.9614   23.3226 H   0  0  0  0  0  0
  -24.3602  -36.8981   22.2076 H   0  0  0  0  0  0
  -23.7164  -37.6469   23.6674 H   0  0  0  0  0  0
  -26.0483  -31.5998   20.5921 H   0  0  0  0  0  0
  -26.8204  -30.8816   21.9802 H   0  0  0  0  0  0
  -28.0964  -29.0960   21.1499 H   0  0  0  0  0  0
  -25.9923  -25.9666   19.0254 H   0  0  0  0  0  0
  -23.9613  -27.3002   19.0417 H   0  0  0  0  0  0
  -23.7176  -30.6052   19.4018 H   0  0  0  0  0  0
  -22.7304  -29.2531   19.8657 H   0  0  0  0  0  0
  -25.1224  -36.1968   25.0847 H   0  0  0  0  0  0
  -20.9995  -28.3226   24.1411 H   0  0  0  0  0  0
  -20.5643  -26.2264   23.3590 H   0  0  0  0  0  0
  -21.6633  -26.7429   22.1207 H   0  0  0  0  0  0
  -19.6886  -25.6308   21.1217 H   0  0  0  0  0  0
  -19.6672  -27.3213   20.6730 H   0  0  0  0  0  0
  -17.4182  -26.6682   21.4043 H   0  0  0  0  0  0
  -18.0342  -26.0068   22.9021 H   0  0  0  0  0  0
  -19.7919  -30.7271   24.2292 H   0  0  0  0  0  0
  -17.4999  -31.6269   24.5172 H   0  0  0  0  0  0
  -15.5347  -30.3001   23.7638 H   0  0  0  0  0  0
  -15.8669  -28.0842   22.7042 H   0  0  0  0  0  0
  -24.5910  -30.7064   25.7825 H   0  0  0  0  0  0
  -24.9081  -32.2803   26.5072 H   0  0  0  0  0  0
  -25.8193  -30.8696   27.0170 H   0  0  0  0  0  0
  -26.2780  -29.6738   24.1218 H   0  0  0  0  0  0
  -27.4162  -29.7252   25.4487 H   0  0  0  0  0  0
  -27.8587  -30.4301   23.9113 H   0  0  0  0  0  0
  -27.2767  -33.3569   26.2012 H   0  0  0  0  0  0
  -28.3902  -32.6739   25.0245 H   0  0  0  0  0  0
  -28.0752  -31.8353   26.5359 H   0  0  0  0  0  0
  -28.2539  -38.0141   24.7617 H   0  0  0  0  0  0
  -28.1152  -36.2684   24.6125 H   0  0  0  0  0  0
  -27.2357  -37.1241   25.8875 H   0  0  0  0  0  0
  -20.9262  -29.8782   21.6947 H   0  0  0  0  0  0
  -26.0151  -38.2862   24.1526 H   0  0  0  0  0  0
  -31.3054  -18.9447   22.9498 H   0  0  0  0  0  0
  -27.3866  -20.1068   20.1196 H   0  0  0  0  0  0
  -29.0390  -22.7012   20.0808 H   0  0  0  0  0  0
  -31.7099  -17.0020   21.6309 H   0  0  0  0  0  0
  -31.0622  -17.0547   20.0184 H   0  0  0  0  0  0
  -27.8448  -25.0875   18.8880 H   0  0  0  0  0  0
  -29.4457  -25.0368   19.5504 H   0  0  0  0  0  0
  -29.0238  -15.7231   20.9623 H   0  0  0  0  0  0
  -29.9790  -15.4475   22.4034 H   0  0  0  0  0  0
  1 25  1  0  0  0
  1 30  2  0  0  0
  1 81  1  0  0  0
  2  3  1  0  0  0
  2 25  1  0  0  0
  2 86  1  0  0  0
  2 87  1  0  0  0
  3  4  1  0  0  0
  3 88  1  0  0  0
  3 89  1  0  0  0
  4  5  1  0  0  0
  4 90  1  0  0  0
  4 91  1  0  0  0
  5  6  1  0  0  0
  5 26  1  0  0  0
  5 92  1  0  0  0
  6 25  1  0  0  0
  6 93  1  0  0  0
  6 94  1  0  0  0
  7  8  2  0  0  0
  7 26  1  0  0  0
  7 29  1  0  0  0
  8  9  1  0  0  0
  8 22  1  0  0  0
  9 10  1  0  0  0
  9 27  2  0  0  0
 10 11  2  0  0  0
 10 15  1  0  0  0
 11 12  1  0  0  0
 11 95  1  0  0  0
 12 13  2  0  0  0
 12 96  1  0  0  0
 13 14  1  0  0  0
 13 31  1  0  0  0
 14 15  2  0  0  0
 14 97  1  0  0  0
 15 98  1  0  0  0
 16 17  2  0  0  0
 16 21  1  0  0  0
 16 31  1  0  0  0
 17 18  1  0  0  0
 17 99  1  0  0  0
 18 19  2  0  0  0
 18100  1  0  0  0
 19 20  1  0  0  0
 19 24  1  0  0  0
 20 21  2  0  0  0
 20101  1  0  0  0
 21 23  1  0  0  0
 22 28  1  0  0  0
 22 32  2  0  0  0
 26 27  1  0  0  0
 28102  1  0  0  0
 28103  1  0  0  0
 29104  1  0  0  0
 29105  1  0  0  0
 33 34  1  0  0  0
 33 66  1  0  0  0
 33 70  2  0  0  0
 34 36  1  0  0  0
 34 59  1  0  0  0
 34106  1  0  0  0
 35 44  2  0  0  0
 35 45  1  0  0  0
 35 68  1  0  0  0
 36 56  1  0  0  0
 36107  1  0  0  0
 37 39  1  0  0  0
 37 47  1  0  0  0
 37 66  1  0  0  0
 37108  1  0  0  0
 38 43  2  0  0  0
 38 46  1  0  0  0
 38 47  1  0  0  0
 39 64  1  0  0  0
 39 67  2  0  0  0
 40 52  1  0  0  0
 40 53  2  0  0  0
 40 58  1  0  0  0
 41109  1  0  0  0
 41110  1  0  0  0
 41111  1  0  0  0
 41 48  1  0  0  0
 42 43  1  0  0  0
 42 66  1  0  0  0
 42112  1  0  0  0
 42113  1  0  0  0
 43 44  1  0  0  0
 44114  1  0  0  0
 45 46  2  0  0  0
 45115  1  0  0  0
 46116  1  0  0  0
 47117  1  0  0  0
 47118  1  0  0  0
 48 56  1  0  0  0
 48 65  1  0  0  0
 48119  1  0  0  0
 49 50  1  0  0  0
 49 53  1  0  0  0
 49 64  1  0  0  0
 49120  1  0  0  0
 50 51  1  0  0  0
 50121  1  0  0  0
 50122  1  0  0  0
 51 52  1  0  0  0
 51123  1  0  0  0
 51124  1  0  0  0
 52125  1  0  0  0
 52126  1  0  0  0
 53 54  1  0  0  0
 54 55  2  0  0  0
 54127  1  0  0  0
 55 57  1  0  0  0
 55128  1  0  0  0
 56 69  2  0  0  0
 57 58  2  0  0  0
 57129  1  0  0  0
 58130  1  0  0  0
 59 60  1  0  0  0
 59 61  1  0  0  0
 59 62  1  0  0  0
 60131  1  0  0  0
 60132  1  0  0  0
 60133  1  0  0  0
 61134  1  0  0  0
 61135  1  0  0  0
 61136  1  0  0  0
 62137  1  0  0  0
 62138  1  0  0  0
 62139  1  0  0  0
 63 65  1  0  0  0
 63140  1  0  0  0
 63141  1  0  0  0
 63142  1  0  0  0
 64143  1  0  0  0
 65144  1  0  0  0
 68 80  1  0  0  0
 71 73  2  0  0  0
 71 75  1  0  0  0
 71145  1  0  0  0
 72 74  1  0  0  0
 72 76  2  0  0  0
 72146  1  0  0  0
 73 76  1  0  0  0
 73 79  1  0  0  0
 74 75  2  0  0  0
 74 82  1  0  0  0
 75 84  1  0  0  0
 76 85  1  0  0  0
 77 78  1  0  0  0
 77 82  2  0  0  0
 77147  1  0  0  0
 78 80  1  0  0  0
 78 83  2  0  0  0
 79 81  1  0  0  0
 79148  1  0  0  0
 79149  1  0  0  0
 80150  1  0  0  0
 80151  1  0  0  0
 81152  1  0  0  0
 81153  1  0  0  0
M  ISO  4   1 100  68 101  80 101  81 100
M  END
> <chiral flag>
0

> <version>
0

> <s_m_source_file>
/data/baiqing/PycharmProjects/Reinvent-master-3.2/result/LINK_invent/BTK/process_docking_weight1_custom_product_contain_oxygen_bond_distance_aromatic_linkinvent_7_9_3/rearranged_h_0178.sdf

> <i_m_source_file_index>
29

> <r_mmod_Potential_Energy-OPLS-2005>
1.60472965240479

> <r_mmod_Stretch_Energy-OPLS-2005>
38.0371513366699

> <r_mmod_Bend_Energy-OPLS-2005>
94.9311676025391

> <r_mmod_Torsional_Energy-OPLS-2005>
182.344161987305

> <r_mmod_Improper_Torsional_Energy-OPLS-2005>
2.98134899139404

> <r_mmod_Van_der_Waal_Energy-OPLS-2005>
154.051452636719

> <r_mmod_Electrostatic_Energy-OPLS-2005>
-258.53466796875

> <r_mmod_Solvation_Energy-OPLS-2005>
-224.47607421875

> <b_mmod_Minimization_Converged-OPLS-2005>
0

> <r_mmod_RMS_Derivative-OPLS-2005>
2.13459801673889

$$$$
29
                    3D
 Structure written by MMmdl.
151159  0  0  1  0            999 V2000
  -30.6243  -14.6347   20.4908 C   0  0  0  0  0  0
  -30.4369  -12.3879   19.4499 C   0  0  0  0  0  0
  -29.5060  -12.5031   18.2224 C   0  0  0  0  0  0
  -28.0293  -12.3421   18.6356 C   0  0  0  0  0  0
  -27.6514  -13.2163   19.8615 C   0  0  2  0  0  0
  -28.6974  -13.0754   20.9906 C   0  0  0  0  0  0
  -25.2550  -13.8171   20.5681 C   0  0  0  0  0  0
  -24.1814  -13.0431   20.9163 C   0  0  0  0  0  0
  -24.6386  -11.6905   20.8719 C   0  0  0  0  0  0
  -23.9050  -10.4289   21.0396 C   0  0  0  0  0  0
  -24.3607   -9.4209   21.9177 C   0  0  0  0  0  0
  -23.6285   -8.2244   22.0749 C   0  0  0  0  0  0
  -22.4269   -8.0278   21.3539 C   0  0  0  0  0  0
  -21.9897   -9.0251   20.4643 C   0  0  0  0  0  0
  -22.7219  -10.2131   20.3050 C   0  0  0  0  0  0
  -21.6857   -6.0727   22.5274 C   0  0  0  0  0  0
  -21.4019   -6.5634   23.8207 C   0  0  0  0  0  0
  -21.3659   -5.6785   24.9170 C   0  0  0  0  0  0
  -21.6044   -4.3048   24.7224 C   0  0  0  0  0  0
  -21.8820   -3.8138   23.4346 C   0  0  0  0  0  0
  -21.9195   -4.6954   22.3398 C   0  0  0  0  0  0
  -22.7839  -13.5228   21.1842 C   0  0  0  0  0  0
  -22.1661   -4.2136   21.0977 F   0  0  0  0  0  0
  -21.5628   -3.4535   25.7739 F   0  0  0  0  0  0
  -30.0127  -13.4114   20.4242 N   0  0  0  0  0  0
  -26.2980  -12.9350   20.3314 N   0  0  0  0  0  0
  -25.9318  -11.6504   20.5753 N   0  0  0  0  0  0
  -22.0488  -12.8232   22.0410 N   0  0  0  0  0  0
  -25.4236  -15.1900   20.4161 N   0  0  0  0  0  0
  -31.7950  -14.7867   20.1301 O   0  0  0  0  0  0
  -21.6639   -6.8871   21.4235 O   0  0  0  0  0  0
  -22.3517  -14.5532   20.6694 O   0  0  0  0  0  0
  -24.6251  -31.8608   23.2036 C   0  0  0  0  0  0
  -25.9102  -32.4783   23.8359 C   0  0  1  0  0  0
  -27.2230  -27.3304   20.1110 C   0  0  0  0  0  0
  -25.5919  -33.8583   24.2281 N   0  0  0  0  0  0
  -23.4174  -30.4849   21.5467 C   0  0  2  0  0  0
  -24.8628  -28.9432   20.1108 C   0  0  0  0  0  0
  -22.7467  -29.4624   22.4942 C   0  0  0  0  0  0
  -18.0288  -28.1379   22.8490 C   0  0  0  0  0  0
  -24.1489  -36.7303   23.2638 C   0  0  0  0  0  0
  -25.9582  -30.7948   21.3730 C   0  0  0  0  0  0
  -26.0320  -29.4239   20.7141 C   0  0  0  0  0  0
  -27.2152  -28.6289   20.7052 C   0  0  0  0  0  0
  -26.0290  -26.9004   19.4854 C   0  0  0  0  0  0
  -24.8628  -27.6867   19.4881 C   0  0  0  0  0  0
  -23.6301  -29.8211   20.1614 C   0  0  0  0  0  0
  -25.4111  -36.3085   24.0327 C   0  0  1  0  0  0
  -20.5886  -28.3679   23.1288 C   0  0  2  0  0  0
  -20.6775  -26.9403   22.5407 C   0  0  0  0  0  0
  -19.5746  -26.6379   21.5213 C   0  0  0  0  0  0
  -18.1930  -26.7920   22.1632 C   0  0  0  0  0  0
  -19.1539  -28.8848   23.2884 C   0  0  0  0  0  0
  -18.9462  -30.1450   23.8898 C   0  0  0  0  0  0
  -17.6462  -30.6580   24.0565 C   0  0  0  0  0  0
  -25.9047  -34.9453   23.5103 C   0  0  0  0  0  0
  -16.5354  -29.9081   23.6329 C   0  0  0  0  0  0
  -16.7275  -28.6499   23.0352 C   0  0  0  0  0  0
  -26.4485  -31.6595   25.0728 C   0  0  0  0  0  0
  -25.3724  -31.3752   26.1465 C   0  0  0  0  0  0
  -27.0318  -30.3016   24.6181 C   0  0  0  0  0  0
  -27.6047  -32.4331   25.7494 C   0  0  0  0  0  0
  -27.5577  -37.1805   24.8461 C   0  0  0  0  0  0
  -21.4184  -29.3035   22.3685 N   0  0  0  0  0  0
  -26.4290  -37.3776   23.9404 N   0  0  0  0  0  0
  -24.6857  -31.0630   22.0981 N   0  0  0  0  0  0
  -23.4201  -28.8160   23.3012 O   0  0  0  0  0  0
  -28.3440  -26.4900   20.1576 O   0  0  0  0  0  0
  -26.5616  -34.8918   22.4670 O   0  0  0  0  0  0
  -23.5418  -32.1398   23.7376 O   0  0  0  0  0  0
  -28.8525  -19.3797   20.5986 C   0  0  0  0  0  0
  -31.1839  -17.8305   20.5255 C   0  0  0  0  0  0
  -30.0783  -20.0920   20.4876 C   0  0  0  0  0  0
  -29.9563  -17.1392   20.6530 C   0  0  0  0  0  0
  -28.7943  -17.9546   20.6807 C   0  0  0  0  0  0
  -31.2424  -19.2518   20.4441 C   0  0  0  0  0  0
  -29.1516  -22.5698   20.3746 C   0  0  0  0  0  0
  -30.1642  -21.6324   20.4386 C   0  0  0  0  0  0
  -29.3103  -24.0986   20.3747 C   0  0  0  0  0  0
  -28.1101  -25.0368   19.9900 C   0  0  0  0  0  0
  -29.8047  -15.6897   20.7853 N   0  0  0  0  0  0
  -30.3667  -24.6582   20.6906 O   0  0  0  0  0  0
  -31.4327  -22.0697   20.4778 O   0  0  0  0  0  0
  -27.5870  -17.3495   20.7883 F   0  0  0  0  0  0
  -32.4761  -19.8030   20.3317 F   0  0  0  0  0  0
  -31.4780  -12.5124   19.1467 H   0  0  0  0  0  0
  -30.3711  -11.3936   19.8942 H   0  0  0  0  0  0
  -29.7690  -11.7504   17.4780 H   0  0  0  0  0  0
  -29.6496  -13.4721   17.7407 H   0  0  0  0  0  0
  -27.8674  -11.2894   18.8706 H   0  0  0  0  0  0
  -27.3745  -12.5680   17.7933 H   0  0  0  0  0  0
  -27.6650  -14.2499   19.5154 H   0  0  0  0  0  0
  -28.7069  -12.0563   21.3803 H   0  0  0  0  0  0
  -28.4463  -13.7156   21.8380 H   0  0  0  0  0  0
  -25.2758   -9.5687   22.4748 H   0  0  0  0  0  0
  -23.9993   -7.4640   22.7477 H   0  0  0  0  0  0
  -21.0818   -8.8770   19.8960 H   0  0  0  0  0  0
  -22.3673  -10.9671   19.6159 H   0  0  0  0  0  0
  -21.2013   -7.6143   23.9708 H   0  0  0  0  0  0
  -21.1479   -6.0517   25.9072 H   0  0  0  0  0  0
  -22.0600   -2.7598   23.2854 H   0  0  0  0  0  0
  -22.4104  -11.9895   22.4801 H   0  0  0  0  0  0
  -21.1114  -13.1276   22.2628 H   0  0  0  0  0  0
  -24.6584  -15.8403   20.5533 H   0  0  0  0  0  0
  -26.2909  -15.6567   20.1797 H   0  0  0  0  0  0
  -26.7171  -32.5457   23.1112 H   0  0  0  0  0  0
  -25.0049  -33.9725   25.0414 H   0  0  0  0  0  0
  -22.7100  -31.3047   21.4056 H   0  0  0  0  0  0
  -23.3737  -35.9650   23.3309 H   0  0  0  0  0  0
  -24.3581  -36.8916   22.2051 H   0  0  0  0  0  0
  -23.7259  -37.6514   23.6655 H   0  0  0  0  0  0
  -26.0885  -31.5591   20.6056 H   0  0  0  0  0  0
  -26.8395  -30.8431   22.0011 H   0  0  0  0  0  0
  -28.1119  -28.9924   21.1873 H   0  0  0  0  0  0
  -25.9647  -25.9425   18.9914 H   0  0  0  0  0  0
  -23.9669  -27.3139   19.0105 H   0  0  0  0  0  0
  -23.7460  -30.5980   19.4050 H   0  0  0  0  0  0
  -22.7506  -29.2494   19.8598 H   0  0  0  0  0  0
  -25.1291  -36.1940   25.0820 H   0  0  0  0  0  0
  -20.9978  -28.3252   24.1409 H   0  0  0  0  0  0
  -20.5685  -26.2283   23.3603 H   0  0  0  0  0  0
  -21.6642  -26.7435   22.1195 H   0  0  0  0  0  0
  -19.6906  -25.6293   21.1233 H   0  0  0  0  0  0
  -19.6679  -27.3196   20.6749 H   0  0  0  0  0  0
  -17.4192  -26.6661   21.4044 H   0  0  0  0  0  0
  -18.0340  -26.0065   22.9034 H   0  0  0  0  0  0
  -19.7937  -30.7270   24.2265 H   0  0  0  0  0  0
  -17.5013  -31.6260   24.5165 H   0  0  0  0  0  0
  -15.5353  -30.2985   23.7645 H   0  0  0  0  0  0
  -15.8676  -28.0819   22.7067 H   0  0  0  0  0  0
  -24.5846  -30.7166   25.7791 H   0  0  0  0  0  0
  -24.8987  -32.2939   26.4935 H   0  0  0  0  0  0
  -25.8040  -30.8872   27.0213 H   0  0  0  0  0  0
  -26.2888  -29.6778   24.1196 H   0  0  0  0  0  0
  -27.4001  -29.7263   25.4686 H   0  0  0  0  0  0
  -27.8767  -30.4298   23.9410 H   0  0  0  0  0  0
  -27.2650  -33.3621   26.2085 H   0  0  0  0  0  0
  -28.3845  -32.6911   25.0317 H   0  0  0  0  0  0
  -28.0725  -31.8453   26.5403 H   0  0  0  0  0  0
  -28.2595  -38.0100   24.7498 H   0  0  0  0  0  0
  -28.1070  -36.2630   24.6295 H   0  0  0  0  0  0
  -27.2295  -37.1464   25.8864 H   0  0  0  0  0  0
  -20.9356  -29.8767   21.6907 H   0  0  0  0  0  0
  -26.0172  -38.2852   24.1402 H   0  0  0  0  0  0
  -27.9234  -19.9271   20.6358 H   0  0  0  0  0  0
  -32.1131  -17.2825   20.5021 H   0  0  0  0  0  0
  -28.1308  -22.2215   20.3268 H   0  0  0  0  0  0
  -27.2511  -24.7358   20.5907 H   0  0  0  0  0  0
  -27.8623  -24.8356   18.9474 H   0  0  0  0  0  0
  -28.8643  -15.4058   21.0150 H   0  0  0  0  0  0
  -32.0004  -21.3020   20.4629 H   0  0  0  0  0  0
  1 25  1  0  0  0
  1 30  2  0  0  0
  1 81  1  0  0  0
  2  3  1  0  0  0
  2 25  1  0  0  0
  2 86  1  0  0  0
  2 87  1  0  0  0
  3  4  1  0  0  0
  3 88  1  0  0  0
  3 89  1  0  0  0
  4  5  1  0  0  0
  4 90  1  0  0  0
  4 91  1  0  0  0
  5  6  1  0  0  0
  5 26  1  0  0  0
  5 92  1  0  0  0
  6 25  1  0  0  0
  6 93  1  0  0  0
  6 94  1  0  0  0
  7  8  2  0  0  0
  7 26  1  0  0  0
  7 29  1  0  0  0
  8  9  1  0  0  0
  8 22  1  0  0  0
  9 10  1  0  0  0
  9 27  2  0  0  0
 10 11  2  0  0  0
 10 15  1  0  0  0
 11 12  1  0  0  0
 11 95  1  0  0  0
 12 13  2  0  0  0
 12 96  1  0  0  0
 13 14  1  0  0  0
 13 31  1  0  0  0
 14 15  2  0  0  0
 14 97  1  0  0  0
 15 98  1  0  0  0
 16 17  2  0  0  0
 16 21  1  0  0  0
 16 31  1  0  0  0
 17 18  1  0  0  0
 17 99  1  0  0  0
 18 19  2  0  0  0
 18100  1  0  0  0
 19 20  1  0  0  0
 19 24  1  0  0  0
 20 21  2  0  0  0
 20101  1  0  0  0
 21 23  1  0  0  0
 22 28  1  0  0  0
 22 32  2  0  0  0
 26 27  1  0  0  0
 28102  1  0  0  0
 28103  1  0  0  0
 29104  1  0  0  0
 29105  1  0  0  0
 33 34  1  0  0  0
 33 66  1  0  0  0
 33 70  2  0  0  0
 34 36  1  0  0  0
 34 59  1  0  0  0
 34106  1  0  0  0
 35 44  2  0  0  0
 35 45  1  0  0  0
 35 68  1  0  0  0
 36 56  1  0  0  0
 36107  1  0  0  0
 37 39  1  0  0  0
 37 47  1  0  0  0
 37 66  1  0  0  0
 37108  1  0  0  0
 38 43  2  0  0  0
 38 46  1  0  0  0
 38 47  1  0  0  0
 39 64  1  0  0  0
 39 67  2  0  0  0
 40 52  1  0  0  0
 40 53  2  0  0  0
 40 58  1  0  0  0
 41109  1  0  0  0
 41110  1  0  0  0
 41111  1  0  0  0
 41 48  1  0  0  0
 42 43  1  0  0  0
 42 66  1  0  0  0
 42112  1  0  0  0
 42113  1  0  0  0
 43 44  1  0  0  0
 44114  1  0  0  0
 45 46  2  0  0  0
 45115  1  0  0  0
 46116  1  0  0  0
 47117  1  0  0  0
 47118  1  0  0  0
 48 56  1  0  0  0
 48 65  1  0  0  0
 48119  1  0  0  0
 49 50  1  0  0  0
 49 53  1  0  0  0
 49 64  1  0  0  0
 49120  1  0  0  0
 50 51  1  0  0  0
 50121  1  0  0  0
 50122  1  0  0  0
 51 52  1  0  0  0
 51123  1  0  0  0
 51124  1  0  0  0
 52125  1  0  0  0
 52126  1  0  0  0
 53 54  1  0  0  0
 54 55  2  0  0  0
 54127  1  0  0  0
 55 57  1  0  0  0
 55128  1  0  0  0
 56 69  2  0  0  0
 57 58  2  0  0  0
 57129  1  0  0  0
 58130  1  0  0  0
 59 60  1  0  0  0
 59 61  1  0  0  0
 59 62  1  0  0  0
 60131  1  0  0  0
 60132  1  0  0  0
 60133  1  0  0  0
 61134  1  0  0  0
 61135  1  0  0  0
 61136  1  0  0  0
 62137  1  0  0  0
 62138  1  0  0  0
 62139  1  0  0  0
 63 65  1  0  0  0
 63140  1  0  0  0
 63141  1  0  0  0
 63142  1  0  0  0
 64143  1  0  0  0
 65144  1  0  0  0
 68 80  1  0  0  0
 71 73  2  0  0  0
 71 75  1  0  0  0
 71145  1  0  0  0
 72 74  1  0  0  0
 72 76  2  0  0  0
 72146  1  0  0  0
 73 76  1  0  0  0
 73 78  1  0  0  0
 74 75  2  0  0  0
 74 81  1  0  0  0
 75 84  1  0  0  0
 76 85  1  0  0  0
 77 78  2  0  0  0
 77 79  1  0  0  0
 77147  1  0  0  0
 78 83  1  0  0  0
 79 80  1  0  0  0
 79 82  2  0  0  0
 80148  1  0  0  0
 80149  1  0  0  0
 81150  1  0  0  0
 83151  1  0  0  0
M  ISO  4   1 100  68 101  80 101  81 100
M  END
> <chiral flag>
0

> <version>
0

> <s_m_source_file>
/data/baiqing/PycharmProjects/Reinvent-master-3.2/result/LINK_invent/BTK/process_docking_weight1_custom_product_contain_oxygen_bond_distance_aromatic_linkinvent_7_9_3/rearranged_h_0178.sdf

> <i_m_source_file_index>
30

> <r_mmod_Potential_Energy-OPLS-2005>
29.7574825286865

> <r_mmod_Stretch_Energy-OPLS-2005>
82.5892791748047

> <r_mmod_Bend_Energy-OPLS-2005>
128.599807739258

> <r_mmod_Torsional_Energy-OPLS-2005>
205.422866821289

> <r_mmod_Improper_Torsional_Energy-OPLS-2005>
4.57472515106201

> <r_mmod_Van_der_Waal_Energy-OPLS-2005>
161.351348876953

> <r_mmod_Electrostatic_Energy-OPLS-2005>
-356.445953369141

> <r_mmod_Solvation_Energy-OPLS-2005>
-242.413452148438

> <b_mmod_Minimization_Converged-OPLS-2005>
0

> <r_mmod_RMS_Derivative-OPLS-2005>
0.865754663944244

$$$$
30
                    3D
 Structure written by MMmdl.
170178  0  0  1  0            999 V2000
  -30.7196  -14.3835   20.6197 C   0  0  0  0  0  0
  -30.4183  -12.2634   19.4185 C   0  0  0  0  0  0
  -29.4952  -12.5143   18.2082 C   0  0  0  0  0  0
  -28.0134  -12.3828   18.6119 C   0  0  0  0  0  0
  -27.6676  -13.1990   19.8858 C   0  0  2  0  0  0
  -28.7006  -12.9326   21.0051 C   0  0  0  0  0  0
  -25.2605  -13.8157   20.5658 C   0  0  0  0  0  0
  -24.1844  -13.0442   20.9153 C   0  0  0  0  0  0
  -24.6385  -11.6909   20.8725 C   0  0  0  0  0  0
  -23.9043  -10.4302   21.0406 C   0  0  0  0  0  0
  -24.3606   -9.4216   21.9180 C   0  0  0  0  0  0
  -23.6294   -8.2243   22.0748 C   0  0  0  0  0  0
  -22.4275   -8.0279   21.3540 C   0  0  0  0  0  0
  -21.9902   -9.0247   20.4641 C   0  0  0  0  0  0
  -22.7222  -10.2129   20.3051 C   0  0  0  0  0  0
  -21.6846   -6.0737   22.5286 C   0  0  0  0  0  0
  -21.4011   -6.5645   23.8219 C   0  0  0  0  0  0
  -21.3658   -5.6795   24.9182 C   0  0  0  0  0  0
  -21.6048   -4.3059   24.7227 C   0  0  0  0  0  0
  -21.8824   -3.8147   23.4350 C   0  0  0  0  0  0
  -21.9191   -4.6966   22.3407 C   0  0  0  0  0  0
  -22.7869  -13.5237   21.1829 C   0  0  0  0  0  0
  -22.1661   -4.2151   21.0985 F   0  0  0  0  0  0
  -21.5628   -3.4544   25.7742 F   0  0  0  0  0  0
  -30.0471  -13.2143   20.4753 N   0  0  0  0  0  0
  -26.3041  -12.9312   20.3383 N   0  0  0  0  0  0
  -25.9307  -11.6480   20.5757 N   0  0  0  0  0  0
  -22.0499  -12.8237   22.0392 N   0  0  0  0  0  0
  -25.4350  -15.1872   20.4068 N   0  0  0  0  0  0
  -31.8126  -14.6130   20.0887 O   0  0  0  0  0  0
  -21.6636   -6.8879   21.4244 O   0  0  0  0  0  0
  -22.3564  -14.5549   20.6690 O   0  0  0  0  0  0
  -24.6084  -31.8706   23.2134 C   0  0  0  0  0  0
  -25.9005  -32.4831   23.8405 C   0  0  1  0  0  0
  -27.2431  -27.4851   20.0752 C   0  0  0  0  0  0
  -25.5888  -33.8632   24.2334 N   0  0  0  0  0  0
  -23.3935  -30.4927   21.5531 C   0  0  2  0  0  0
  -24.8401  -28.9615   20.1162 C   0  0  0  0  0  0
  -22.7372  -29.4661   22.5026 C   0  0  0  0  0  0
  -18.0258  -28.1371   22.8494 C   0  0  0  0  0  0
  -24.1489  -36.7322   23.2638 C   0  0  0  0  0  0
  -25.9169  -30.8460   21.3627 C   0  0  0  0  0  0
  -25.9929  -29.4809   20.7171 C   0  0  0  0  0  0
  -27.1907  -28.7407   20.7105 C   0  0  0  0  0  0
  -26.0716  -26.9625   19.4806 C   0  0  0  0  0  0
  -24.8700  -27.6957   19.5041 C   0  0  0  0  0  0
  -23.5989  -29.8212   20.1673 C   0  0  0  0  0  0
  -25.4107  -36.3120   24.0341 C   0  0  1  0  0  0
  -20.5841  -28.3643   23.1351 C   0  0  2  0  0  0
  -20.6749  -26.9389   22.5434 C   0  0  0  0  0  0
  -19.5737  -26.6386   21.5221 C   0  0  0  0  0  0
  -18.1908  -26.7923   22.1620 C   0  0  0  0  0  0
  -19.1503  -28.8824   23.2918 C   0  0  0  0  0  0
  -18.9437  -30.1433   23.8923 C   0  0  0  0  0  0
  -17.6441  -30.6579   24.0564 C   0  0  0  0  0  0
  -25.9030  -34.9481   23.5134 C   0  0  0  0  0  0
  -16.5332  -29.9084   23.6328 C   0  0  0  0  0  0
  -16.7247  -28.6502   23.0348 C   0  0  0  0  0  0
  -26.4453  -31.6604   25.0716 C   0  0  0  0  0  0
  -25.3736  -31.3725   26.1486 C   0  0  0  0  0  0
  -27.0251  -30.3041   24.6068 C   0  0  0  0  0  0
  -27.6044  -32.4313   25.7464 C   0  0  0  0  0  0
  -27.5583  -37.1812   24.8458 C   0  0  0  0  0  0
  -21.4107  -29.3016   22.3764 N   0  0  0  0  0  0
  -26.4297  -37.3796   23.9404 N   0  0  0  0  0  0
  -24.6571  -31.0841   22.1017 N   0  0  0  0  0  0
  -23.4174  -28.8219   23.3054 O   0  0  0  0  0  0
  -28.4460  -26.8239   20.0718 O   0  0  0  0  0  0
  -26.5586  -34.8932   22.4692 O   0  0  0  0  0  0
  -23.5291  -32.1447   23.7559 O   0  0  0  0  0  0
  -29.2105  -18.7502   20.5346 C   0  0  0  0  0  0
  -29.2785  -18.4553   19.1906 C   0  0  0  0  0  0
  -29.7494  -16.5571   20.6644 C   0  0  0  0  0  0
  -28.7001  -24.5593   19.2688 C   0  0  0  0  0  0
  -30.6134  -21.3559   18.0871 C   0  0  0  0  0  0
  -32.5610  -18.4175   14.9780 C   0  0  0  0  0  0
  -30.1626  -19.0953   14.7852 C   0  0  0  0  0  0
  -31.9444  -20.8357   15.0505 C   0  0  0  0  0  0
  -29.1111  -19.3671   18.0153 C   0  0  0  0  0  0
  -29.8540  -23.6939   18.7799 C   0  0  0  0  0  0
  -28.7755  -26.0453   18.9270 C   0  0  0  0  0  0
  -29.4661  -22.2136   18.6284 C   0  0  0  0  0  0
  -31.3974  -19.2748   17.0187 C   0  0  0  0  0  0
  -31.5023  -19.4213   15.4723 C   0  0  0  0  0  0
  -29.4610  -17.6521   21.3708 N   0  0  0  0  0  0
  -30.0642  -15.3369   21.2886 N   0  0  0  0  0  0
  -30.3532  -20.0909   17.6749 N   0  0  0  0  0  0
  -27.7605  -24.0829   19.9147 O   0  0  0  0  0  0
  -31.7408  -21.8578   18.0167 O   0  0  0  0  0  0
  -29.6131  -16.7693   18.9239 S   0  0  0  0  0  0
  -31.4657  -12.3530   19.1241 H   0  0  0  0  0  0
  -30.3009  -11.2413   19.7832 H   0  0  0  0  0  0
  -29.7279  -11.8113   17.4071 H   0  0  0  0  0  0
  -29.6783  -13.5113   17.8036 H   0  0  0  0  0  0
  -27.8062  -11.3260   18.7825 H   0  0  0  0  0  0
  -27.3695  -12.6876   17.7865 H   0  0  0  0  0  0
  -27.7258  -14.2530   19.6153 H   0  0  0  0  0  0
  -28.6533  -11.8897   21.3212 H   0  0  0  0  0  0
  -28.4583  -13.5102   21.8979 H   0  0  0  0  0  0
  -25.2757   -9.5705   22.4746 H   0  0  0  0  0  0
  -24.0014   -7.4639   22.7470 H   0  0  0  0  0  0
  -21.0830   -8.8764   19.8952 H   0  0  0  0  0  0
  -22.3680  -10.9666   19.6158 H   0  0  0  0  0  0
  -21.1998   -7.6152   23.9728 H   0  0  0  0  0  0
  -21.1475   -6.0520   25.9086 H   0  0  0  0  0  0
  -22.0597   -2.7610   23.2845 H   0  0  0  0  0  0
  -22.4089  -11.9883   22.4782 H   0  0  0  0  0  0
  -21.1121  -13.1290   22.2586 H   0  0  0  0  0  0
  -24.6700  -15.8439   20.5163 H   0  0  0  0  0  0
  -26.2917  -15.6270   20.0963 H   0  0  0  0  0  0
  -26.7076  -32.5559   23.1178 H   0  0  0  0  0  0
  -25.0057  -33.9805   25.0492 H   0  0  0  0  0  0
  -22.6794  -31.3071   21.4159 H   0  0  0  0  0  0
  -23.3739  -35.9669   23.3327 H   0  0  0  0  0  0
  -24.3583  -36.8901   22.2047 H   0  0  0  0  0  0
  -23.7255  -37.6551   23.6620 H   0  0  0  0  0  0
  -26.0229  -31.6111   20.5921 H   0  0  0  0  0  0
  -26.8080  -30.9024   21.9761 H   0  0  0  0  0  0
  -28.0832  -29.1404   21.1717 H   0  0  0  0  0  0
  -26.0726  -25.9936   19.0027 H   0  0  0  0  0  0
  -23.9808  -27.2860   19.0445 H   0  0  0  0  0  0
  -23.6996  -30.5935   19.4040 H   0  0  0  0  0  0
  -22.7256  -29.2328   19.8790 H   0  0  0  0  0  0
  -25.1286  -36.1991   25.0839 H   0  0  0  0  0  0
  -20.9924  -28.3196   24.1476 H   0  0  0  0  0  0
  -20.5661  -26.2245   23.3606 H   0  0  0  0  0  0
  -21.6619  -26.7445   22.1222 H   0  0  0  0  0  0
  -19.6897  -25.6306   21.1235 H   0  0  0  0  0  0
  -19.6690  -27.3211   20.6764 H   0  0  0  0  0  0
  -17.4188  -26.6677   21.4009 H   0  0  0  0  0  0
  -18.0296  -26.0057   22.9005 H   0  0  0  0  0  0
  -19.7911  -30.7238   24.2310 H   0  0  0  0  0  0
  -17.4998  -31.6263   24.5157 H   0  0  0  0  0  0
  -15.5333  -30.2996   23.7647 H   0  0  0  0  0  0
  -15.8642  -28.0837   22.7052 H   0  0  0  0  0  0
  -24.5903  -30.7069   25.7846 H   0  0  0  0  0  0
  -24.8937  -32.2891   26.4926 H   0  0  0  0  0  0
  -25.8111  -30.8912   27.0242 H   0  0  0  0  0  0
  -26.2767  -29.6836   24.1124 H   0  0  0  0  0  0
  -27.4016  -29.7250   25.4508 H   0  0  0  0  0  0
  -27.8615  -30.4350   23.9198 H   0  0  0  0  0  0
  -27.2670  -33.3600   26.2081 H   0  0  0  0  0  0
  -28.3832  -32.6894   25.0274 H   0  0  0  0  0  0
  -28.0737  -31.8410   26.5347 H   0  0  0  0  0  0
  -28.2616  -38.0096   24.7497 H   0  0  0  0  0  0
  -28.1062  -36.2628   24.6285 H   0  0  0  0  0  0
  -27.2305  -37.1474   25.8863 H   0  0  0  0  0  0
  -20.9258  -29.8739   21.6995 H   0  0  0  0  0  0
  -26.0192  -38.2880   24.1396 H   0  0  0  0  0  0
  -29.0029  -19.7119   20.9830 H   0  0  0  0  0  0
  -32.6969  -18.4733   13.8972 H   0  0  0  0  0  0
  -32.2795  -17.3907   15.2155 H   0  0  0  0  0  0
  -33.5326  -18.6019   15.4384 H   0  0  0  0  0  0
  -30.2575  -19.1218   13.6994 H   0  0  0  0  0  0
  -29.3846  -19.8105   15.0538 H   0  0  0  0  0  0
  -29.8073  -18.0998   15.0539 H   0  0  0  0  0  0
  -32.1327  -20.8911   13.9777 H   0  0  0  0  0  0
  -32.8635  -21.1337   15.5563 H   0  0  0  0  0  0
  -31.1848  -21.5841   15.2761 H   0  0  0  0  0  0
  -28.2590  -20.0203   18.1938 H   0  0  0  0  0  0
  -28.8042  -18.7769   17.1537 H   0  0  0  0  0  0
  -30.6752  -23.7999   19.4881 H   0  0  0  0  0  0
  -30.2069  -24.0876   17.8265 H   0  0  0  0  0  0
  -28.1415  -26.2692   18.0687 H   0  0  0  0  0  0
  -29.7958  -26.2900   18.6314 H   0  0  0  0  0  0
  -29.1437  -21.8066   19.5873 H   0  0  0  0  0  0
  -28.6232  -22.1513   17.9393 H   0  0  0  0  0  0
  -32.3671  -19.4851   17.4754 H   0  0  0  0  0  0
  -31.2306  -18.2241   17.2460 H   0  0  0  0  0  0
  -29.3824  -15.0205   21.9595 H   0  0  0  0  0  0
  1 25  1  0  0  0
  1 30  2  0  0  0
  1 86  1  0  0  0
  2  3  1  0  0  0
  2 25  1  0  0  0
  2 91  1  0  0  0
  2 92  1  0  0  0
  3  4  1  0  0  0
  3 93  1  0  0  0
  3 94  1  0  0  0
  4  5  1  0  0  0
  4 95  1  0  0  0
  4 96  1  0  0  0
  5  6  1  0  0  0
  5 26  1  0  0  0
  5 97  1  0  0  0
  6 25  1  0  0  0
  6 98  1  0  0  0
  6 99  1  0  0  0
  7  8  2  0  0  0
  7 26  1  0  0  0
  7 29  1  0  0  0
  8  9  1  0  0  0
  8 22  1  0  0  0
  9 10  1  0  0  0
  9 27  2  0  0  0
 10 11  2  0  0  0
 10 15  1  0  0  0
 11 12  1  0  0  0
 11100  1  0  0  0
 12 13  2  0  0  0
 12101  1  0  0  0
 13 14  1  0  0  0
 13 31  1  0  0  0
 14 15  2  0  0  0
 14102  1  0  0  0
 15103  1  0  0  0
 16 17  2  0  0  0
 16 21  1  0  0  0
 16 31  1  0  0  0
 17 18  1  0  0  0
 17104  1  0  0  0
 18 19  2  0  0  0
 18105  1  0  0  0
 19 20  1  0  0  0
 19 24  1  0  0  0
 20 21  2  0  0  0
 20106  1  0  0  0
 21 23  1  0  0  0
 22 28  1  0  0  0
 22 32  2  0  0  0
 26 27  1  0  0  0
 28107  1  0  0  0
 28108  1  0  0  0
 29109  1  0  0  0
 29110  1  0  0  0
 33 34  1  0  0  0
 33 66  1  0  0  0
 33 70  2  0  0  0
 34 36  1  0  0  0
 34 59  1  0  0  0
 34111  1  0  0  0
 35 44  2  0  0  0
 35 45  1  0  0  0
 35 68  1  0  0  0
 36 56  1  0  0  0
 36112  1  0  0  0
 37 39  1  0  0  0
 37 47  1  0  0  0
 37 66  1  0  0  0
 37113  1  0  0  0
 38 43  2  0  0  0
 38 46  1  0  0  0
 38 47  1  0  0  0
 39 64  1  0  0  0
 39 67  2  0  0  0
 40 52  1  0  0  0
 40 53  2  0  0  0
 40 58  1  0  0  0
 41114  1  0  0  0
 41115  1  0  0  0
 41116  1  0  0  0
 41 48  1  0  0  0
 42 43  1  0  0  0
 42 66  1  0  0  0
 42117  1  0  0  0
 42118  1  0  0  0
 43 44  1  0  0  0
 44119  1  0  0  0
 45 46  2  0  0  0
 45120  1  0  0  0
 46121  1  0  0  0
 47122  1  0  0  0
 47123  1  0  0  0
 48 56  1  0  0  0
 48 65  1  0  0  0
 48124  1  0  0  0
 49 50  1  0  0  0
 49 53  1  0  0  0
 49 64  1  0  0  0
 49125  1  0  0  0
 50 51  1  0  0  0
 50126  1  0  0  0
 50127  1  0  0  0
 51 52  1  0  0  0
 51128  1  0  0  0
 51129  1  0  0  0
 52130  1  0  0  0
 52131  1  0  0  0
 53 54  1  0  0  0
 54 55  2  0  0  0
 54132  1  0  0  0
 55 57  1  0  0  0
 55133  1  0  0  0
 56 69  2  0  0  0
 57 58  2  0  0  0
 57134  1  0  0  0
 58135  1  0  0  0
 59 60  1  0  0  0
 59 61  1  0  0  0
 59 62  1  0  0  0
 60136  1  0  0  0
 60137  1  0  0  0
 60138  1  0  0  0
 61139  1  0  0  0
 61140  1  0  0  0
 61141  1  0  0  0
 62142  1  0  0  0
 62143  1  0  0  0
 62144  1  0  0  0
 63 65  1  0  0  0
 63145  1  0  0  0
 63146  1  0  0  0
 63147  1  0  0  0
 64148  1  0  0  0
 65149  1  0  0  0
 68 81  1  0  0  0
 71 72  2  0  0  0
 71 85  1  0  0  0
 71150  1  0  0  0
 72 79  1  0  0  0
 72 90  1  0  0  0
 73 85  2  0  0  0
 73 86  1  0  0  0
 73 90  1  0  0  0
 74 80  1  0  0  0
 74 81  1  0  0  0
 74 88  2  0  0  0
 75 82  1  0  0  0
 75 87  1  0  0  0
 75 89  2  0  0  0
 76151  1  0  0  0
 76152  1  0  0  0
 76153  1  0  0  0
 76 84  1  0  0  0
 77 84  1  0  0  0
 77154  1  0  0  0
 77155  1  0  0  0
 77156  1  0  0  0
 78 84  1  0  0  0
 78157  1  0  0  0
 78158  1  0  0  0
 78159  1  0  0  0
 79 87  1  0  0  0
 79160  1  0  0  0
 79161  1  0  0  0
 80 82  1  0  0  0
 80162  1  0  0  0
 80163  1  0  0  0
 81164  1  0  0  0
 81165  1  0  0  0
 82166  1  0  0  0
 82167  1  0  0  0
 83 84  1  0  0  0
 83 87  1  0  0  0
 83168  1  0  0  0
 83169  1  0  0  0
 86170  1  0  0  0
M  ISO  4   1 100  68 101  81 101  86 100
M  END
> <chiral flag>
0

> <version>
0

> <s_m_source_file>
/data/baiqing/PycharmProjects/Reinvent-master-3.2/result/LINK_invent/BTK/process_docking_weight1_custom_product_contain_oxygen_bond_distance_aromatic_linkinvent_7_9_3/rearranged_h_0178.sdf

> <i_m_source_file_index>
31

> <r_mmod_Potential_Energy-OPLS-2005>
-139.856811523438

> <r_mmod_Stretch_Energy-OPLS-2005>
33.7499160766602

> <r_mmod_Bend_Energy-OPLS-2005>
101.548347473145

> <r_mmod_Torsional_Energy-OPLS-2005>
270.060150146484

> <r_mmod_Improper_Torsional_Energy-OPLS-2005>
5.95395660400391

> <r_mmod_Van_der_Waal_Energy-OPLS-2005>
142.174453735352

> <r_mmod_Electrostatic_Energy-OPLS-2005>
-465.345062255859

> <r_mmod_Solvation_Energy-OPLS-2005>
-236.403335571289

> <b_mmod_Minimization_Converged-OPLS-2005>
0

> <r_mmod_RMS_Derivative-OPLS-2005>
1.3907276391983

$$$$
31
                    3D
 Structure written by MMmdl.
153161  0  0  1  0            999 V2000
  -30.6577  -14.5166   20.5801 C   0  0  0  0  0  0
  -30.4460  -12.3348   19.4188 C   0  0  0  0  0  0
  -29.5044  -12.5099   18.2064 C   0  0  0  0  0  0
  -28.0245  -12.3636   18.6169 C   0  0  0  0  0  0
  -27.6667  -13.1983   19.8753 C   0  0  2  0  0  0
  -28.7106  -12.9618   20.9908 C   0  0  0  0  0  0
  -25.2644  -13.8138   20.5703 C   0  0  0  0  0  0
  -24.1871  -13.0437   20.9167 C   0  0  0  0  0  0
  -24.6413  -11.6895   20.8719 C   0  0  0  0  0  0
  -23.9058  -10.4304   21.0409 C   0  0  0  0  0  0
  -24.3612   -9.4213   21.9189 C   0  0  0  0  0  0
  -23.6283   -8.2252   22.0755 C   0  0  0  0  0  0
  -22.4264   -8.0293   21.3551 C   0  0  0  0  0  0
  -21.9896   -9.0273   20.4651 C   0  0  0  0  0  0
  -22.7228  -10.2149   20.3067 C   0  0  0  0  0  0
  -21.6867   -6.0736   22.5279 C   0  0  0  0  0  0
  -21.4009   -6.5637   23.8211 C   0  0  0  0  0  0
  -21.3654   -5.6786   24.9171 C   0  0  0  0  0  0
  -21.6043   -4.3053   24.7220 C   0  0  0  0  0  0
  -21.8827   -3.8147   23.4338 C   0  0  0  0  0  0
  -21.9201   -4.6966   22.3396 C   0  0  0  0  0  0
  -22.7902  -13.5257   21.1829 C   0  0  0  0  0  0
  -22.1692   -4.2144   21.0983 F   0  0  0  0  0  0
  -21.5609   -3.4537   25.7736 F   0  0  0  0  0  0
  -30.0401  -13.3062   20.4498 N   0  0  0  0  0  0
  -26.3056  -12.9277   20.3346 N   0  0  0  0  0  0
  -25.9335  -11.6444   20.5735 N   0  0  0  0  0  0
  -22.0550  -12.8267   22.0403 N   0  0  0  0  0  0
  -25.4424  -15.1855   20.4146 N   0  0  0  0  0  0
  -31.7695  -14.7560   20.0976 O   0  0  0  0  0  0
  -21.6643   -6.8884   21.4242 O   0  0  0  0  0  0
  -22.3587  -14.5558   20.6671 O   0  0  0  0  0  0
  -24.6188  -31.8651   23.2068 C   0  0  0  0  0  0
  -25.9071  -32.4794   23.8384 C   0  0  1  0  0  0
  -27.2403  -27.3911   20.1015 C   0  0  0  0  0  0
  -25.5902  -33.8594   24.2304 N   0  0  0  0  0  0
  -23.4092  -30.4882   21.5473 C   0  0  2  0  0  0
  -24.8567  -28.9498   20.1122 C   0  0  0  0  0  0
  -22.7434  -29.4651   22.4970 C   0  0  0  0  0  0
  -18.0274  -28.1387   22.8490 C   0  0  0  0  0  0
  -24.1474  -36.7297   23.2643 C   0  0  0  0  0  0
  -25.9439  -30.8146   21.3705 C   0  0  0  0  0  0
  -26.0194  -29.4475   20.7135 C   0  0  0  0  0  0
  -27.2094  -28.6762   20.7047 C   0  0  0  0  0  0
  -26.0558  -26.9273   19.4788 C   0  0  0  0  0  0
  -24.8723  -27.6902   19.4917 C   0  0  0  0  0  0
  -23.6206  -29.8212   20.1621 C   0  0  0  0  0  0
  -25.4097  -36.3089   24.0337 C   0  0  1  0  0  0
  -20.5866  -28.3678   23.1302 C   0  0  2  0  0  0
  -20.6761  -26.9411   22.5412 C   0  0  0  0  0  0
  -19.5735  -26.6388   21.5214 C   0  0  0  0  0  0
  -18.1917  -26.7927   22.1632 C   0  0  0  0  0  0
  -19.1527  -28.8851   23.2883 C   0  0  0  0  0  0
  -18.9462  -30.1459   23.8897 C   0  0  0  0  0  0
  -17.6461  -30.6589   24.0569 C   0  0  0  0  0  0
  -25.9041  -34.9459   23.5124 C   0  0  0  0  0  0
  -16.5349  -29.9096   23.6327 C   0  0  0  0  0  0
  -16.7262  -28.6513   23.0346 C   0  0  0  0  0  0
  -26.4490  -31.6594   25.0734 C   0  0  0  0  0  0
  -25.3761  -31.3730   26.1494 C   0  0  0  0  0  0
  -27.0341  -30.3023   24.6172 C   0  0  0  0  0  0
  -27.6041  -32.4352   25.7488 C   0  0  0  0  0  0
  -27.5567  -37.1798   24.8472 C   0  0  0  0  0  0
  -21.4157  -29.3036   22.3704 N   0  0  0  0  0  0
  -26.4277  -37.3779   23.9418 N   0  0  0  0  0  0
  -24.6749  -31.0725   22.0981 N   0  0  0  0  0  0
  -23.4190  -28.8203   23.3032 O   0  0  0  0  0  0
  -28.4046  -26.6292   20.1525 O   0  0  0  0  0  0
  -26.5613  -34.8921   22.4690 O   0  0  0  0  0  0
  -23.5369  -32.1433   23.7436 O   0  0  0  0  0  0
  -28.9296  -18.9886   21.3405 C   0  0  0  0  0  0
  -28.8295  -17.5849   21.5850 C   0  0  0  0  0  0
  -30.0558  -19.3575   20.6568 C   0  0  0  0  0  0
  -29.8585  -16.8164   21.0948 C   0  0  0  0  0  0
  -30.5730  -20.6861   20.1960 C   0  0  0  0  0  0
  -29.4198  -24.3403   20.4458 C   0  0  0  0  0  0
  -29.8799  -23.1207   18.1633 C   0  0  0  0  0  0
  -28.3488  -25.2318   19.7465 C   0  0  0  0  0  0
  -30.0621  -23.1163   19.6946 C   0  0  2  0  0  0
  -29.9075  -15.4495   21.2069 N   0  0  0  0  0  0
  -29.7603  -21.7723   20.2616 N   0  0  0  0  0  0
  -31.7101  -20.7703   19.7258 O   0  0  0  0  0  0
  -29.7477  -24.6077   21.6065 O   0  0  0  0  0  0
  -28.0054  -19.8384   21.7358 F   0  0  0  0  0  0
  -27.8049  -17.0647   22.2227 F   0  0  0  0  0  0
  -31.0199  -17.9032   20.3212 S   0  0  0  0  0  0
  -31.4860  -12.4674   19.1116 H   0  0  0  0  0  0
  -30.3810  -11.3177   19.8107 H   0  0  0  0  0  0
  -29.7450  -11.7804   17.4309 H   0  0  0  0  0  0
  -29.6636  -13.4905   17.7573 H   0  0  0  0  0  0
  -27.8350  -11.3057   18.8072 H   0  0  0  0  0  0
  -27.3784  -12.6398   17.7836 H   0  0  0  0  0  0
  -27.7125  -14.2480   19.5850 H   0  0  0  0  0  0
  -28.7055  -11.9150   21.2978 H   0  0  0  0  0  0
  -28.4554  -13.5224   21.8911 H   0  0  0  0  0  0
  -25.2779   -9.5678   22.4733 H   0  0  0  0  0  0
  -24.0005   -7.4636   22.7463 H   0  0  0  0  0  0
  -21.0833   -8.8800   19.8964 H   0  0  0  0  0  0
  -22.3701  -10.9692   19.6169 H   0  0  0  0  0  0
  -21.2014   -7.6148   23.9705 H   0  0  0  0  0  0
  -21.1465   -6.0526   25.9066 H   0  0  0  0  0  0
  -22.0611   -2.7601   23.2852 H   0  0  0  0  0  0
  -22.4174  -11.9932   22.4786 H   0  0  0  0  0  0
  -21.1184  -13.1314   22.2627 H   0  0  0  0  0  0
  -24.6976  -15.8552   20.5773 H   0  0  0  0  0  0
  -26.3097  -15.6198   20.1296 H   0  0  0  0  0  0
  -26.7143  -32.5492   23.1142 H   0  0  0  0  0  0
  -25.0016  -33.9741   25.0424 H   0  0  0  0  0  0
  -22.6992  -31.3054   21.4056 H   0  0  0  0  0  0
  -23.3728  -35.9642   23.3329 H   0  0  0  0  0  0
  -24.3555  -36.8893   22.2054 H   0  0  0  0  0  0
  -23.7244  -37.6511   23.6651 H   0  0  0  0  0  0
  -26.0763  -31.5823   20.6069 H   0  0  0  0  0  0
  -26.8239  -30.8570   22.0003 H   0  0  0  0  0  0
  -28.1028  -29.0566   21.1799 H   0  0  0  0  0  0
  -26.0156  -25.9730   18.9753 H   0  0  0  0  0  0
  -23.9810  -27.3009   19.0181 H   0  0  0  0  0  0
  -23.7345  -30.5975   19.4045 H   0  0  0  0  0  0
  -22.7422  -29.2465   19.8622 H   0  0  0  0  0  0
  -25.1273  -36.1941   25.0831 H   0  0  0  0  0  0
  -20.9951  -28.3251   24.1424 H   0  0  0  0  0  0
  -20.5655  -26.2298   23.3607 H   0  0  0  0  0  0
  -21.6633  -26.7441   22.1212 H   0  0  0  0  0  0
  -19.6895  -25.6305   21.1231 H   0  0  0  0  0  0
  -19.6659  -27.3208   20.6751 H   0  0  0  0  0  0
  -17.4176  -26.6661   21.4046 H   0  0  0  0  0  0
  -18.0326  -26.0077   22.9039 H   0  0  0  0  0  0
  -19.7941  -30.7274   24.2260 H   0  0  0  0  0  0
  -17.5023  -31.6265   24.5181 H   0  0  0  0  0  0
  -15.5355  -30.3007   23.7651 H   0  0  0  0  0  0
  -15.8658  -28.0840   22.7058 H   0  0  0  0  0  0
  -24.5861  -30.7163   25.7837 H   0  0  0  0  0  0
  -24.9054  -32.2913   26.5018 H   0  0  0  0  0  0
  -25.8113  -30.8821   27.0207 H   0  0  0  0  0  0
  -26.2919  -29.6758   24.1211 H   0  0  0  0  0  0
  -27.4067  -29.7287   25.4670 H   0  0  0  0  0  0
  -27.8771  -30.4316   23.9379 H   0  0  0  0  0  0
  -27.2615  -33.3621   26.2102 H   0  0  0  0  0  0
  -28.3813  -32.6982   25.0299 H   0  0  0  0  0  0
  -28.0763  -31.8484   26.5376 H   0  0  0  0  0  0
  -28.2599  -38.0080   24.7492 H   0  0  0  0  0  0
  -28.1043  -36.2609   24.6317 H   0  0  0  0  0  0
  -27.2289  -37.1477   25.8877 H   0  0  0  0  0  0
  -20.9334  -29.8766   21.6921 H   0  0  0  0  0  0
  -26.0158  -38.2854   24.1418 H   0  0  0  0  0  0
  -30.1994  -24.0675   17.7269 H   0  0  0  0  0  0
  -28.8417  -22.9477   17.8795 H   0  0  0  0  0  0
  -30.4836  -22.3451   17.6913 H   0  0  0  0  0  0
  -27.3896  -24.7935   20.0178 H   0  0  0  0  0  0
  -28.4395  -25.1806   18.6631 H   0  0  0  0  0  0
  -31.1331  -23.2600   19.8450 H   0  0  0  0  0  0
  -29.0909  -15.0540   21.6509 H   0  0  0  0  0  0
  -28.8545  -21.6488   20.6984 H   0  0  0  0  0  0
  1 25  1  0  0  0
  1 30  2  0  0  0
  1 80  1  0  0  0
  2  3  1  0  0  0
  2 25  1  0  0  0
  2 87  1  0  0  0
  2 88  1  0  0  0
  3  4  1  0  0  0
  3 89  1  0  0  0
  3 90  1  0  0  0
  4  5  1  0  0  0
  4 91  1  0  0  0
  4 92  1  0  0  0
  5  6  1  0  0  0
  5 26  1  0  0  0
  5 93  1  0  0  0
  6 25  1  0  0  0
  6 94  1  0  0  0
  6 95  1  0  0  0
  7  8  2  0  0  0
  7 26  1  0  0  0
  7 29  1  0  0  0
  8  9  1  0  0  0
  8 22  1  0  0  0
  9 10  1  0  0  0
  9 27  2  0  0  0
 10 11  2  0  0  0
 10 15  1  0  0  0
 11 12  1  0  0  0
 11 96  1  0  0  0
 12 13  2  0  0  0
 12 97  1  0  0  0
 13 14  1  0  0  0
 13 31  1  0  0  0
 14 15  2  0  0  0
 14 98  1  0  0  0
 15 99  1  0  0  0
 16 17  2  0  0  0
 16 21  1  0  0  0
 16 31  1  0  0  0
 17 18  1  0  0  0
 17100  1  0  0  0
 18 19  2  0  0  0
 18101  1  0  0  0
 19 20  1  0  0  0
 19 24  1  0  0  0
 20 21  2  0  0  0
 20102  1  0  0  0
 21 23  1  0  0  0
 22 28  1  0  0  0
 22 32  2  0  0  0
 26 27  1  0  0  0
 28103  1  0  0  0
 28104  1  0  0  0
 29105  1  0  0  0
 29106  1  0  0  0
 33 34  1  0  0  0
 33 66  1  0  0  0
 33 70  2  0  0  0
 34 36  1  0  0  0
 34 59  1  0  0  0
 34107  1  0  0  0
 35 44  2  0  0  0
 35 45  1  0  0  0
 35 68  1  0  0  0
 36 56  1  0  0  0
 36108  1  0  0  0
 37 39  1  0  0  0
 37 47  1  0  0  0
 37 66  1  0  0  0
 37109  1  0  0  0
 38 43  2  0  0  0
 38 46  1  0  0  0
 38 47  1  0  0  0
 39 64  1  0  0  0
 39 67  2  0  0  0
 40 52  1  0  0  0
 40 53  2  0  0  0
 40 58  1  0  0  0
 41110  1  0  0  0
 41111  1  0  0  0
 41112  1  0  0  0
 41 48  1  0  0  0
 42 43  1  0  0  0
 42 66  1  0  0  0
 42113  1  0  0  0
 42114  1  0  0  0
 43 44  1  0  0  0
 44115  1  0  0  0
 45 46  2  0  0  0
 45116  1  0  0  0
 46117  1  0  0  0
 47118  1  0  0  0
 47119  1  0  0  0
 48 56  1  0  0  0
 48 65  1  0  0  0
 48120  1  0  0  0
 49 50  1  0  0  0
 49 53  1  0  0  0
 49 64  1  0  0  0
 49121  1  0  0  0
 50 51  1  0  0  0
 50122  1  0  0  0
 50123  1  0  0  0
 51 52  1  0  0  0
 51124  1  0  0  0
 51125  1  0  0  0
 52126  1  0  0  0
 52127  1  0  0  0
 53 54  1  0  0  0
 54 55  2  0  0  0
 54128  1  0  0  0
 55 57  1  0  0  0
 55129  1  0  0  0
 56 69  2  0  0  0
 57 58  2  0  0  0
 57130  1  0  0  0
 58131  1  0  0  0
 59 60  1  0  0  0
 59 61  1  0  0  0
 59 62  1  0  0  0
 60132  1  0  0  0
 60133  1  0  0  0
 60134  1  0  0  0
 61135  1  0  0  0
 61136  1  0  0  0
 61137  1  0  0  0
 62138  1  0  0  0
 62139  1  0  0  0
 62140  1  0  0  0
 63 65  1  0  0  0
 63141  1  0  0  0
 63142  1  0  0  0
 63143  1  0  0  0
 64144  1  0  0  0
 65145  1  0  0  0
 68 78  1  0  0  0
 71 72  1  0  0  0
 71 73  2  0  0  0
 71 84  1  0  0  0
 72 74  2  0  0  0
 72 85  1  0  0  0
 73 75  1  0  0  0
 73 86  1  0  0  0
 74 80  1  0  0  0
 74 86  1  0  0  0
 75 81  1  0  0  0
 75 82  2  0  0  0
 76 78  1  0  0  0
 76 79  1  0  0  0
 76 83  2  0  0  0
 77146  1  0  0  0
 77147  1  0  0  0
 77148  1  0  0  0
 77 79  1  0  0  0
 78149  1  0  0  0
 78150  1  0  0  0
 79 81  1  0  0  0
 79151  1  0  0  0
 80152  1  0  0  0
 81153  1  0  0  0
M  ISO  4   1 100  68 101  78 101  80 100
M  END
> <chiral flag>
0

> <version>
0

> <s_m_source_file>
/data/baiqing/PycharmProjects/Reinvent-master-3.2/result/LINK_invent/BTK/process_docking_weight1_custom_product_contain_oxygen_bond_distance_aromatic_linkinvent_7_9_3/rearranged_h_0178.sdf

> <i_m_source_file_index>
32

> <r_mmod_Potential_Energy-OPLS-2005>
-110.13013458252

> <r_mmod_Stretch_Energy-OPLS-2005>
49.6292419433594

> <r_mmod_Bend_Energy-OPLS-2005>
125.517906188965

> <r_mmod_Torsional_Energy-OPLS-2005>
215.661804199219

> <r_mmod_Improper_Torsional_Energy-OPLS-2005>
3.37476420402527

> <r_mmod_Van_der_Waal_Energy-OPLS-2005>
131.550521850586

> <r_mmod_Electrostatic_Energy-OPLS-2005>
-403.268188476562

> <r_mmod_Solvation_Energy-OPLS-2005>
-252.654769897461

> <b_mmod_Minimization_Converged-OPLS-2005>
0

> <r_mmod_RMS_Derivative-OPLS-2005>
2.42521357536316

$$$$
32
                    3D
 Structure written by MMmdl.
156164  0  0  1  0            999 V2000
  -30.6860  -14.5355   20.4550 C   0  0  0  0  0  0
  -30.4212  -12.3192   19.4433 C   0  0  0  0  0  0
  -29.5010  -12.4777   18.2149 C   0  0  0  0  0  0
  -28.0219  -12.3396   18.6262 C   0  0  0  0  0  0
  -27.6529  -13.2133   19.8559 C   0  0  2  0  0  0
  -28.6987  -13.0723   20.9859 C   0  0  0  0  0  0
  -25.2563  -13.8170   20.5670 C   0  0  0  0  0  0
  -24.1828  -13.0443   20.9184 C   0  0  0  0  0  0
  -24.6386  -11.6913   20.8729 C   0  0  0  0  0  0
  -23.9054  -10.4298   21.0395 C   0  0  0  0  0  0
  -24.3604   -9.4217   21.9175 C   0  0  0  0  0  0
  -23.6286   -8.2249   22.0749 C   0  0  0  0  0  0
  -22.4268   -8.0278   21.3541 C   0  0  0  0  0  0
  -21.9896   -9.0252   20.4646 C   0  0  0  0  0  0
  -22.7224  -10.2135   20.3051 C   0  0  0  0  0  0
  -21.6859   -6.0727   22.5275 C   0  0  0  0  0  0
  -21.4019   -6.5631   23.8208 C   0  0  0  0  0  0
  -21.3664   -5.6782   24.9169 C   0  0  0  0  0  0
  -21.6045   -4.3045   24.7225 C   0  0  0  0  0  0
  -21.8821   -3.8140   23.4347 C   0  0  0  0  0  0
  -21.9197   -4.6956   22.3401 C   0  0  0  0  0  0
  -22.7854  -13.5245   21.1853 C   0  0  0  0  0  0
  -22.1662   -4.2145   21.0979 F   0  0  0  0  0  0
  -21.5636   -3.4529   25.7738 F   0  0  0  0  0  0
  -30.0240  -13.3484   20.4154 N   0  0  0  0  0  0
  -26.2987  -12.9349   20.3287 N   0  0  0  0  0  0
  -25.9313  -11.6507   20.5738 N   0  0  0  0  0  0
  -22.0484  -12.8242   22.0406 N   0  0  0  0  0  0
  -25.4256  -15.1892   20.4085 N   0  0  0  0  0  0
  -31.8936  -14.6191   20.2247 O   0  0  0  0  0  0
  -21.6639   -6.8871   21.4235 O   0  0  0  0  0  0
  -22.3547  -14.5558   20.6708 O   0  0  0  0  0  0
  -24.6194  -31.8661   23.2083 C   0  0  0  0  0  0
  -25.9080  -32.4806   23.8378 C   0  0  1  0  0  0
  -27.2290  -27.3959   20.0834 C   0  0  0  0  0  0
  -25.5926  -33.8606   24.2310 N   0  0  0  0  0  0
  -23.4067  -30.4936   21.5502 C   0  0  2  0  0  0
  -24.8484  -28.9589   20.1131 C   0  0  0  0  0  0
  -22.7433  -29.4664   22.4966 C   0  0  0  0  0  0
  -18.0284  -28.1388   22.8489 C   0  0  0  0  0  0
  -24.1492  -36.7308   23.2629 C   0  0  0  0  0  0
  -25.9414  -30.8200   21.3661 C   0  0  0  0  0  0
  -26.0145  -29.4538   20.7078 C   0  0  0  0  0  0
  -27.2032  -28.6804   20.6895 C   0  0  0  0  0  0
  -26.0237  -26.9173   19.5119 C   0  0  0  0  0  0
  -24.8500  -27.6908   19.5154 C   0  0  0  0  0  0
  -23.6145  -29.8316   20.1634 C   0  0  0  0  0  0
  -25.4109  -36.3099   24.0329 C   0  0  1  0  0  0
  -20.5878  -28.3683   23.1301 C   0  0  2  0  0  0
  -20.6776  -26.9415   22.5408 C   0  0  0  0  0  0
  -19.5748  -26.6390   21.5212 C   0  0  0  0  0  0
  -18.1929  -26.7932   22.1626 C   0  0  0  0  0  0
  -19.1534  -28.8854   23.2894 C   0  0  0  0  0  0
  -18.9459  -30.1458   23.8908 C   0  0  0  0  0  0
  -17.6458  -30.6588   24.0570 C   0  0  0  0  0  0
  -25.9044  -34.9466   23.5114 C   0  0  0  0  0  0
  -16.5351  -29.9088   23.6326 C   0  0  0  0  0  0
  -16.7271  -28.6508   23.0342 C   0  0  0  0  0  0
  -26.4492  -31.6594   25.0718 C   0  0  0  0  0  0
  -25.3749  -31.3719   26.1461 C   0  0  0  0  0  0
  -27.0316  -30.3025   24.6120 C   0  0  0  0  0  0
  -27.6064  -32.4315   25.7483 C   0  0  0  0  0  0
  -27.5588  -37.1791   24.8452 C   0  0  0  0  0  0
  -21.4157  -29.3044   22.3703 N   0  0  0  0  0  0
  -26.4287  -37.3792   23.9418 N   0  0  0  0  0  0
  -24.6746  -31.0741   22.0996 N   0  0  0  0  0  0
  -23.4195  -28.8196   23.3009 O   0  0  0  0  0  0
  -28.4076  -26.6556   20.1132 O   0  0  0  0  0  0
  -26.5603  -34.8927   22.4675 O   0  0  0  0  0  0
  -23.5380  -32.1430   23.7467 O   0  0  0  0  0  0
  -29.5539  -18.1202   20.3805 C   0  0  0  0  0  0
  -30.5923  -19.4355   18.6026 C   0  0  0  0  0  0
  -29.7675  -19.3820   19.7466 C   0  0  0  0  0  0
  -30.1542  -16.9225   19.8782 C   0  0  0  0  0  0
  -31.1478  -18.2643   18.0682 C   0  0  0  0  0  0
  -30.9121  -17.0178   18.6756 C   0  0  0  0  0  0
  -28.9004  -22.9192   19.6323 C   0  0  0  0  0  0
  -29.1561  -24.2293   19.9570 C   0  0  0  0  0  0
  -29.6219  -21.7966   20.2858 C   0  0  0  0  0  0
  -27.9084  -22.5536   18.5246 C   0  0  0  0  0  0
  -28.5913  -25.4929   19.2632 C   0  0  0  0  0  0
  -29.0599  -20.5753   20.1173 N   0  0  0  0  0  0
  -29.9093  -15.6467   20.5233 N   0  0  0  0  0  0
  -30.6648  -21.9244   20.9346 O   0  0  0  0  0  0
  -29.9951  -24.6111   20.9368 O   0  0  0  0  0  0
  -31.8833  -18.3314   16.9319 F   0  0  0  0  0  0
  -31.3816  -15.9184   18.0383 F   0  0  0  0  0  0
  -31.4675  -12.4086   19.1447 H   0  0  0  0  0  0
  -30.3174  -11.3261   19.8829 H   0  0  0  0  0  0
  -29.7482  -11.7303   17.4594 H   0  0  0  0  0  0
  -29.6657  -13.4506   17.7490 H   0  0  0  0  0  0
  -27.8430  -11.2879   18.8526 H   0  0  0  0  0  0
  -27.3740  -12.5830   17.7836 H   0  0  0  0  0  0
  -27.6704  -14.2459   19.5079 H   0  0  0  0  0  0
  -28.6804  -12.0661   21.4067 H   0  0  0  0  0  0
  -28.4744  -13.7508   21.8107 H   0  0  0  0  0  0
  -25.2745   -9.5705   22.4751 H   0  0  0  0  0  0
  -24.0005   -7.4643   22.7468 H   0  0  0  0  0  0
  -21.0830   -8.8768   19.8951 H   0  0  0  0  0  0
  -22.3673  -10.9669   19.6166 H   0  0  0  0  0  0
  -21.1994   -7.6133   23.9710 H   0  0  0  0  0  0
  -21.1491   -6.0508   25.9072 H   0  0  0  0  0  0
  -22.0594   -2.7600   23.2847 H   0  0  0  0  0  0
  -22.4090  -11.9910   22.4814 H   0  0  0  0  0  0
  -21.1103  -13.1285   22.2591 H   0  0  0  0  0  0
  -24.6537  -15.8385   20.5168 H   0  0  0  0  0  0
  -26.2681  -15.6336   20.0674 H   0  0  0  0  0  0
  -26.7143  -32.5502   23.1127 H   0  0  0  0  0  0
  -25.0091  -33.9755   25.0466 H   0  0  0  0  0  0
  -22.6969  -31.3126   21.4139 H   0  0  0  0  0  0
  -23.3760  -35.9633   23.3270 H   0  0  0  0  0  0
  -24.3596  -36.8947   22.2047 H   0  0  0  0  0  0
  -23.7235  -37.6500   23.6664 H   0  0  0  0  0  0
  -26.0608  -31.5875   20.6002 H   0  0  0  0  0  0
  -26.8270  -30.8677   21.9883 H   0  0  0  0  0  0
  -28.1050  -29.0627   21.1476 H   0  0  0  0  0  0
  -25.9247  -25.9353   19.0805 H   0  0  0  0  0  0
  -23.9468  -27.2939   19.0725 H   0  0  0  0  0  0
  -23.7265  -30.6087   19.4060 H   0  0  0  0  0  0
  -22.7352  -29.2573   19.8653 H   0  0  0  0  0  0
  -25.1279  -36.1948   25.0819 H   0  0  0  0  0  0
  -20.9975  -28.3258   24.1421 H   0  0  0  0  0  0
  -20.5690  -26.2292   23.3601 H   0  0  0  0  0  0
  -21.6646  -26.7460   22.1196 H   0  0  0  0  0  0
  -19.6909  -25.6305   21.1233 H   0  0  0  0  0  0
  -19.6679  -27.3208   20.6748 H   0  0  0  0  0  0
  -17.4197  -26.6687   21.4030 H   0  0  0  0  0  0
  -18.0328  -26.0073   22.9020 H   0  0  0  0  0  0
  -19.7935  -30.7277   24.2277 H   0  0  0  0  0  0
  -17.5010  -31.6265   24.5178 H   0  0  0  0  0  0
  -15.5350  -30.2993   23.7643 H   0  0  0  0  0  0
  -15.8673  -28.0830   22.7042 H   0  0  0  0  0  0
  -24.5913  -30.7076   25.7797 H   0  0  0  0  0  0
  -24.8959  -32.2887   26.4910 H   0  0  0  0  0  0
  -25.8092  -30.8879   27.0217 H   0  0  0  0  0  0
  -26.2860  -29.6782   24.1179 H   0  0  0  0  0  0
  -27.4073  -29.7266   25.4587 H   0  0  0  0  0  0
  -27.8709  -30.4318   23.9280 H   0  0  0  0  0  0
  -27.2679  -33.3604   26.2086 H   0  0  0  0  0  0
  -28.3866  -32.6892   25.0308 H   0  0  0  0  0  0
  -28.0747  -31.8428   26.5379 H   0  0  0  0  0  0
  -28.2568  -38.0127   24.7566 H   0  0  0  0  0  0
  -28.1122  -36.2664   24.6188 H   0  0  0  0  0  0
  -27.2319  -37.1336   25.8855 H   0  0  0  0  0  0
  -20.9326  -29.8770   21.6923 H   0  0  0  0  0  0
  -26.0168  -38.2858   24.1464 H   0  0  0  0  0  0
  -28.9135  -18.0705   21.2494 H   0  0  0  0  0  0
  -30.7592  -20.3681   18.0824 H   0  0  0  0  0  0
  -26.9228  -22.3553   18.9468 H   0  0  0  0  0  0
  -28.2270  -21.6711   17.9685 H   0  0  0  0  0  0
  -27.8099  -23.3306   17.7700 H   0  0  0  0  0  0
  -27.7323  -25.2370   18.6603 H   0  0  0  0  0  0
  -29.3403  -25.7827   18.5250 H   0  0  0  0  0  0
  -28.0956  -20.6054   19.8153 H   0  0  0  0  0  0
  -28.9823  -15.5089   20.8933 H   0  0  0  0  0  0
  -30.3853  -23.8209   21.2995 H   0  0  0  0  0  0
  1 25  1  0  0  0
  1 30  2  0  0  0
  1 83  1  0  0  0
  2  3  1  0  0  0
  2 25  1  0  0  0
  2 88  1  0  0  0
  2 89  1  0  0  0
  3  4  1  0  0  0
  3 90  1  0  0  0
  3 91  1  0  0  0
  4  5  1  0  0  0
  4 92  1  0  0  0
  4 93  1  0  0  0
  5  6  1  0  0  0
  5 26  1  0  0  0
  5 94  1  0  0  0
  6 25  1  0  0  0
  6 95  1  0  0  0
  6 96  1  0  0  0
  7  8  2  0  0  0
  7 26  1  0  0  0
  7 29  1  0  0  0
  8  9  1  0  0  0
  8 22  1  0  0  0
  9 10  1  0  0  0
  9 27  2  0  0  0
 10 11  2  0  0  0
 10 15  1  0  0  0
 11 12  1  0  0  0
 11 97  1  0  0  0
 12 13  2  0  0  0
 12 98  1  0  0  0
 13 14  1  0  0  0
 13 31  1  0  0  0
 14 15  2  0  0  0
 14 99  1  0  0  0
 15100  1  0  0  0
 16 17  2  0  0  0
 16 21  1  0  0  0
 16 31  1  0  0  0
 17 18  1  0  0  0
 17101  1  0  0  0
 18 19  2  0  0  0
 18102  1  0  0  0
 19 20  1  0  0  0
 19 24  1  0  0  0
 20 21  2  0  0  0
 20103  1  0  0  0
 21 23  1  0  0  0
 22 28  1  0  0  0
 22 32  2  0  0  0
 26 27  1  0  0  0
 28104  1  0  0  0
 28105  1  0  0  0
 29106  1  0  0  0
 29107  1  0  0  0
 33 34  1  0  0  0
 33 66  1  0  0  0
 33 70  2  0  0  0
 34 36  1  0  0  0
 34 59  1  0  0  0
 34108  1  0  0  0
 35 44  2  0  0  0
 35 45  1  0  0  0
 35 68  1  0  0  0
 36 56  1  0  0  0
 36109  1  0  0  0
 37 39  1  0  0  0
 37 47  1  0  0  0
 37 66  1  0  0  0
 37110  1  0  0  0
 38 43  2  0  0  0
 38 46  1  0  0  0
 38 47  1  0  0  0
 39 64  1  0  0  0
 39 67  2  0  0  0
 40 52  1  0  0  0
 40 53  2  0  0  0
 40 58  1  0  0  0
 41111  1  0  0  0
 41112  1  0  0  0
 41113  1  0  0  0
 41 48  1  0  0  0
 42 43  1  0  0  0
 42 66  1  0  0  0
 42114  1  0  0  0
 42115  1  0  0  0
 43 44  1  0  0  0
 44116  1  0  0  0
 45 46  2  0  0  0
 45117  1  0  0  0
 46118  1  0  0  0
 47119  1  0  0  0
 47120  1  0  0  0
 48 56  1  0  0  0
 48 65  1  0  0  0
 48121  1  0  0  0
 49 50  1  0  0  0
 49 53  1  0  0  0
 49 64  1  0  0  0
 49122  1  0  0  0
 50 51  1  0  0  0
 50123  1  0  0  0
 50124  1  0  0  0
 51 52  1  0  0  0
 51125  1  0  0  0
 51126  1  0  0  0
 52127  1  0  0  0
 52128  1  0  0  0
 53 54  1  0  0  0
 54 55  2  0  0  0
 54129  1  0  0  0
 55 57  1  0  0  0
 55130  1  0  0  0
 56 69  2  0  0  0
 57 58  2  0  0  0
 57131  1  0  0  0
 58132  1  0  0  0
 59 60  1  0  0  0
 59 61  1  0  0  0
 59 62  1  0  0  0
 60133  1  0  0  0
 60134  1  0  0  0
 60135  1  0  0  0
 61136  1  0  0  0
 61137  1  0  0  0
 61138  1  0  0  0
 62139  1  0  0  0
 62140  1  0  0  0
 62141  1  0  0  0
 63 65  1  0  0  0
 63142  1  0  0  0
 63143  1  0  0  0
 63144  1  0  0  0
 64145  1  0  0  0
 65146  1  0  0  0
 68 81  1  0  0  0
 71 73  2  0  0  0
 71 74  1  0  0  0
 71147  1  0  0  0
 72 73  1  0  0  0
 72 75  2  0  0  0
 72148  1  0  0  0
 73 82  1  0  0  0
 74 76  2  0  0  0
 74 83  1  0  0  0
 75 76  1  0  0  0
 75 86  1  0  0  0
 76 87  1  0  0  0
 77 78  2  0  0  0
 77 79  1  0  0  0
 77 80  1  0  0  0
 78 81  1  0  0  0
 78 85  1  0  0  0
 79 82  1  0  0  0
 79 84  2  0  0  0
 80149  1  0  0  0
 80150  1  0  0  0
 80151  1  0  0  0
 81152  1  0  0  0
 81153  1  0  0  0
 82154  1  0  0  0
 83155  1  0  0  0
 85156  1  0  0  0
M  ISO  4   1 100  68 101  81 101  83 100
M  END
> <chiral flag>
0

> <version>
0

> <s_m_source_file>
/data/baiqing/PycharmProjects/Reinvent-master-3.2/result/LINK_invent/BTK/process_docking_weight1_custom_product_contain_oxygen_bond_distance_aromatic_linkinvent_7_9_3/rearranged_h_0178.sdf

> <i_m_source_file_index>
33

> <r_mmod_Potential_Energy-OPLS-2005>
78.3536758422852

> <r_mmod_Stretch_Energy-OPLS-2005>
54.0832366943359

> <r_mmod_Bend_Energy-OPLS-2005>
113.778289794922

> <r_mmod_Torsional_Energy-OPLS-2005>
289.374328613281

> <r_mmod_Improper_Torsional_Energy-OPLS-2005>
9.44833946228027

> <r_mmod_Van_der_Waal_Energy-OPLS-2005>
177.191909790039

> <r_mmod_Electrostatic_Energy-OPLS-2005>
-353.858703613281

> <r_mmod_Solvation_Energy-OPLS-2005>
-240.696044921875

> <b_mmod_Minimization_Converged-OPLS-2005>
0

> <r_mmod_RMS_Derivative-OPLS-2005>
1.09464132785797

$$$$
33
                    3D
 Structure written by MMmdl.
153161  0  0  1  0            999 V2000
  -30.6705  -14.5183   20.5350 C   0  0  0  0  0  0
  -30.4165  -12.3206   19.4323 C   0  0  0  0  0  0
  -29.4984  -12.5161   18.2077 C   0  0  0  0  0  0
  -28.0124  -12.3952   18.6049 C   0  0  0  0  0  0
  -27.6548  -13.2219   19.8698 C   0  0  2  0  0  0
  -28.6953  -13.0134   20.9921 C   0  0  0  0  0  0
  -25.2545  -13.8193   20.5708 C   0  0  0  0  0  0
  -24.1828  -13.0441   20.9188 C   0  0  0  0  0  0
  -24.6405  -11.6917   20.8727 C   0  0  0  0  0  0
  -23.9089  -10.4293   21.0396 C   0  0  0  0  0  0
  -24.3641   -9.4208   21.9171 C   0  0  0  0  0  0
  -23.6314   -8.2240   22.0739 C   0  0  0  0  0  0
  -22.4287   -8.0275   21.3536 C   0  0  0  0  0  0
  -21.9929   -9.0248   20.4630 C   0  0  0  0  0  0
  -22.7265  -10.2127   20.3040 C   0  0  0  0  0  0
  -21.6843   -6.0754   22.5285 C   0  0  0  0  0  0
  -21.4015   -6.5656   23.8224 C   0  0  0  0  0  0
  -21.3663   -5.6801   24.9177 C   0  0  0  0  0  0
  -21.6033   -4.3063   24.7223 C   0  0  0  0  0  0
  -21.8818   -3.8164   23.4345 C   0  0  0  0  0  0
  -21.9197   -4.6984   22.3410 C   0  0  0  0  0  0
  -22.7838  -13.5198   21.1878 C   0  0  0  0  0  0
  -22.1656   -4.2178   21.0981 F   0  0  0  0  0  0
  -21.5636   -3.4541   25.7737 F   0  0  0  0  0  0
  -30.0224  -13.3224   20.4395 N   0  0  0  0  0  0
  -26.2979  -12.9393   20.3325 N   0  0  0  0  0  0
  -25.9325  -11.6534   20.5710 N   0  0  0  0  0  0
  -22.0484  -12.8143   22.0405 N   0  0  0  0  0  0
  -25.4261  -15.1930   20.4200 N   0  0  0  0  0  0
  -31.8242  -14.6587   20.1182 O   0  0  0  0  0  0
  -21.6631   -6.8896   21.4248 O   0  0  0  0  0  0
  -22.3519  -14.5520   20.6746 O   0  0  0  0  0  0
  -24.6172  -31.8628   23.2050 C   0  0  0  0  0  0
  -25.9073  -32.4778   23.8333 C   0  0  1  0  0  0
  -27.2141  -27.3882   20.1180 C   0  0  0  0  0  0
  -25.5933  -33.8578   24.2299 N   0  0  0  0  0  0
  -23.4024  -30.4876   21.5472 C   0  0  2  0  0  0
  -24.8467  -28.9478   20.1101 C   0  0  0  0  0  0
  -22.7401  -29.4646   22.4979 C   0  0  0  0  0  0
  -18.0278  -28.1391   22.8488 C   0  0  0  0  0  0
  -24.1492  -36.7271   23.2630 C   0  0  0  0  0  0
  -25.9331  -30.8220   21.3555 C   0  0  0  0  0  0
  -26.0103  -29.4517   20.7061 C   0  0  0  0  0  0
  -27.1999  -28.6811   20.7028 C   0  0  0  0  0  0
  -26.0417  -26.9120   19.4985 C   0  0  0  0  0  0
  -24.8592  -27.6786   19.5022 C   0  0  0  0  0  0
  -23.6088  -29.8178   20.1616 C   0  0  0  0  0  0
  -25.4109  -36.3070   24.0336 C   0  0  1  0  0  0
  -20.5870  -28.3663   23.1324 C   0  0  2  0  0  0
  -20.6760  -26.9396   22.5435 C   0  0  0  0  0  0
  -19.5761  -26.6411   21.5196 C   0  0  0  0  0  0
  -18.1923  -26.7959   22.1579 C   0  0  0  0  0  0
  -19.1534  -28.8844   23.2910 C   0  0  0  0  0  0
  -18.9468  -30.1455   23.8916 C   0  0  0  0  0  0
  -17.6467  -30.6579   24.0590 C   0  0  0  0  0  0
  -25.9038  -34.9453   23.5104 C   0  0  0  0  0  0
  -16.5356  -29.9083   23.6351 C   0  0  0  0  0  0
  -16.7273  -28.6519   23.0339 C   0  0  0  0  0  0
  -26.4520  -31.6550   25.0659 C   0  0  0  0  0  0
  -25.3781  -31.3679   26.1399 C   0  0  0  0  0  0
  -27.0330  -30.2984   24.6009 C   0  0  0  0  0  0
  -27.6104  -32.4239   25.7432 C   0  0  0  0  0  0
  -27.5597  -37.1786   24.8457 C   0  0  0  0  0  0
  -21.4132  -29.3012   22.3721 N   0  0  0  0  0  0
  -26.4283  -37.3758   23.9436 N   0  0  0  0  0  0
  -24.6699  -31.0708   22.0948 N   0  0  0  0  0  0
  -23.4184  -28.8209   23.3041 O   0  0  0  0  0  0
  -28.3382  -26.5796   20.1835 O   0  0  0  0  0  0
  -26.5594  -34.8930   22.4655 O   0  0  0  0  0  0
  -23.5376  -32.1416   23.7461 O   0  0  0  0  0  0
  -31.2096  -17.5411   20.2316 C   0  0  0  0  0  0
  -30.9219  -18.9331   20.2849 C   0  0  0  0  0  0
  -30.1149  -16.9202   20.7933 C   0  0  0  0  0  0
  -29.6768  -19.0982   20.8240 C   0  0  0  0  0  0
  -28.6551  -22.7275   21.0910 C   0  0  0  0  0  0
  -29.0396  -21.4068   20.3222 C   0  0  0  0  0  0
  -27.2230  -25.4892   22.1635 C   0  0  0  0  0  0
  -28.2986  -24.0117   20.2685 C   0  0  0  0  0  0
  -28.2928  -25.3878   21.0414 C   0  0  1  0  0  0
  -29.0852  -20.3022   21.1113 N   0  0  0  0  0  0
  -29.9202  -15.5670   20.9700 N   0  0  0  0  0  0
  -28.6688  -22.7406   22.3277 O   0  0  0  0  0  0
  -29.2440  -21.3954   19.1034 O   0  0  0  0  0  0
  -29.1692  -17.8622   21.1816 O   0  0  0  0  0  0
  -31.7670  -19.9233   19.9056 F   0  0  0  0  0  0
  -31.4644  -12.4043   19.1383 H   0  0  0  0  0  0
  -30.3032  -11.3128   19.8309 H   0  0  0  0  0  0
  -29.7360  -11.7896   17.4296 H   0  0  0  0  0  0
  -29.6817  -13.4986   17.7691 H   0  0  0  0  0  0
  -27.7927  -11.3407   18.7715 H   0  0  0  0  0  0
  -27.3802  -12.7062   17.7719 H   0  0  0  0  0  0
  -27.6913  -14.2702   19.5729 H   0  0  0  0  0  0
  -28.6724  -11.9783   21.3364 H   0  0  0  0  0  0
  -28.4613  -13.6218   21.8674 H   0  0  0  0  0  0
  -25.2792   -9.5672   22.4737 H   0  0  0  0  0  0
  -24.0029   -7.4628   22.7438 H   0  0  0  0  0  0
  -21.0871   -8.8757   19.8926 H   0  0  0  0  0  0
  -22.3729  -10.9658   19.6138 H   0  0  0  0  0  0
  -21.1989   -7.6156   23.9739 H   0  0  0  0  0  0
  -21.1487   -6.0521   25.9083 H   0  0  0  0  0  0
  -22.0597   -2.7623   23.2828 H   0  0  0  0  0  0
  -22.4099  -11.9771   22.4730 H   0  0  0  0  0  0
  -21.1074  -13.1110   22.2592 H   0  0  0  0  0  0
  -24.6615  -15.8490   20.5399 H   0  0  0  0  0  0
  -26.2805  -15.6386   20.1106 H   0  0  0  0  0  0
  -26.7131  -32.5493   23.1086 H   0  0  0  0  0  0
  -25.0198  -33.9737   25.0527 H   0  0  0  0  0  0
  -22.6902  -31.3040   21.4074 H   0  0  0  0  0  0
  -23.3784  -35.9572   23.3220 H   0  0  0  0  0  0
  -24.3617  -36.8941   22.2059 H   0  0  0  0  0  0
  -23.7217  -37.6445   23.6678 H   0  0  0  0  0  0
  -26.0341  -31.5795   20.5775 H   0  0  0  0  0  0
  -26.8264  -30.8874   21.9639 H   0  0  0  0  0  0
  -28.0948  -29.0559   21.1798 H   0  0  0  0  0  0
  -26.0299  -25.9306   19.0472 H   0  0  0  0  0  0
  -23.9596  -27.2819   19.0507 H   0  0  0  0  0  0
  -23.7139  -30.5910   19.3993 H   0  0  0  0  0  0
  -22.7311  -29.2366   19.8698 H   0  0  0  0  0  0
  -25.1290  -36.1895   25.0831 H   0  0  0  0  0  0
  -20.9989  -28.3243   24.1429 H   0  0  0  0  0  0
  -20.5623  -26.2273   23.3631 H   0  0  0  0  0  0
  -21.6649  -26.7399   22.1254 H   0  0  0  0  0  0
  -19.6918  -25.6325   21.1203 H   0  0  0  0  0  0
  -19.6746  -27.3251   20.6749 H   0  0  0  0  0  0
  -17.4227  -26.6785   21.3930 H   0  0  0  0  0  0
  -18.0271  -26.0066   22.8921 H   0  0  0  0  0  0
  -19.7939  -30.7273   24.2317 H   0  0  0  0  0  0
  -17.5012  -31.6264   24.5163 H   0  0  0  0  0  0
  -15.5368  -30.2984   23.7662 H   0  0  0  0  0  0
  -15.8673  -28.0838   22.7035 H   0  0  0  0  0  0
  -24.6118  -30.6783   25.7824 H   0  0  0  0  0  0
  -24.8773  -32.2818   26.4595 H   0  0  0  0  0  0
  -25.8180  -30.9142   27.0288 H   0  0  0  0  0  0
  -26.2832  -29.6709   24.1161 H   0  0  0  0  0  0
  -27.4234  -29.7239   25.4423 H   0  0  0  0  0  0
  -27.8604  -30.4297   23.9032 H   0  0  0  0  0  0
  -27.2764  -33.3593   26.1936 H   0  0  0  0  0  0
  -28.3982  -32.6674   25.0284 H   0  0  0  0  0  0
  -28.0676  -31.8359   26.5412 H   0  0  0  0  0  0
  -28.2555  -38.0132   24.7548 H   0  0  0  0  0  0
  -28.1156  -36.2675   24.6194 H   0  0  0  0  0  0
  -27.2352  -37.1311   25.8865 H   0  0  0  0  0  0
  -20.9309  -29.8706   21.6903 H   0  0  0  0  0  0
  -26.0157  -38.2825   24.1472 H   0  0  0  0  0  0
  -32.1083  -17.0839   19.8488 H   0  0  0  0  0  0
  -27.3112  -24.6973   22.9038 H   0  0  0  0  0  0
  -26.2078  -25.4368   21.7722 H   0  0  0  0  0  0
  -27.3217  -26.4265   22.7135 H   0  0  0  0  0  0
  -27.3362  -23.8462   19.7841 H   0  0  0  0  0  0
  -29.0264  -24.0725   19.4604 H   0  0  0  0  0  0
  -29.2516  -25.4273   21.5592 H   0  0  0  0  0  0
  -28.7281  -20.4328   22.0485 H   0  0  0  0  0  0
  -29.0224  -15.3020   21.3474 H   0  0  0  0  0  0
  1 25  1  0  0  0
  1 30  2  0  0  0
  1 81  1  0  0  0
  2  3  1  0  0  0
  2 25  1  0  0  0
  2 86  1  0  0  0
  2 87  1  0  0  0
  3  4  1  0  0  0
  3 88  1  0  0  0
  3 89  1  0  0  0
  4  5  1  0  0  0
  4 90  1  0  0  0
  4 91  1  0  0  0
  5  6  1  0  0  0
  5 26  1  0  0  0
  5 92  1  0  0  0
  6 25  1  0  0  0
  6 93  1  0  0  0
  6 94  1  0  0  0
  7  8  2  0  0  0
  7 26  1  0  0  0
  7 29  1  0  0  0
  8  9  1  0  0  0
  8 22  1  0  0  0
  9 10  1  0  0  0
  9 27  2  0  0  0
 10 11  2  0  0  0
 10 15  1  0  0  0
 11 12  1  0  0  0
 11 95  1  0  0  0
 12 13  2  0  0  0
 12 96  1  0  0  0
 13 14  1  0  0  0
 13 31  1  0  0  0
 14 15  2  0  0  0
 14 97  1  0  0  0
 15 98  1  0  0  0
 16 17  2  0  0  0
 16 21  1  0  0  0
 16 31  1  0  0  0
 17 18  1  0  0  0
 17 99  1  0  0  0
 18 19  2  0  0  0
 18100  1  0  0  0
 19 20  1  0  0  0
 19 24  1  0  0  0
 20 21  2  0  0  0
 20101  1  0  0  0
 21 23  1  0  0  0
 22 28  1  0  0  0
 22 32  2  0  0  0
 26 27  1  0  0  0
 28102  1  0  0  0
 28103  1  0  0  0
 29104  1  0  0  0
 29105  1  0  0  0
 33 34  1  0  0  0
 33 66  1  0  0  0
 33 70  2  0  0  0
 34 36  1  0  0  0
 34 59  1  0  0  0
 34106  1  0  0  0
 35 44  2  0  0  0
 35 45  1  0  0  0
 35 68  1  0  0  0
 36 56  1  0  0  0
 36107  1  0  0  0
 37 39  1  0  0  0
 37 47  1  0  0  0
 37 66  1  0  0  0
 37108  1  0  0  0
 38 43  2  0  0  0
 38 46  1  0  0  0
 38 47  1  0  0  0
 39 64  1  0  0  0
 39 67  2  0  0  0
 40 52  1  0  0  0
 40 53  2  0  0  0
 40 58  1  0  0  0
 41109  1  0  0  0
 41110  1  0  0  0
 41111  1  0  0  0
 41 48  1  0  0  0
 42 43  1  0  0  0
 42 66  1  0  0  0
 42112  1  0  0  0
 42113  1  0  0  0
 43 44  1  0  0  0
 44114  1  0  0  0
 45 46  2  0  0  0
 45115  1  0  0  0
 46116  1  0  0  0
 47117  1  0  0  0
 47118  1  0  0  0
 48 56  1  0  0  0
 48 65  1  0  0  0
 48119  1  0  0  0
 49 50  1  0  0  0
 49 53  1  0  0  0
 49 64  1  0  0  0
 49120  1  0  0  0
 50 51  1  0  0  0
 50121  1  0  0  0
 50122  1  0  0  0
 51 52  1  0  0  0
 51123  1  0  0  0
 51124  1  0  0  0
 52125  1  0  0  0
 52126  1  0  0  0
 53 54  1  0  0  0
 54 55  2  0  0  0
 54127  1  0  0  0
 55 57  1  0  0  0
 55128  1  0  0  0
 56 69  2  0  0  0
 57 58  2  0  0  0
 57129  1  0  0  0
 58130  1  0  0  0
 59 60  1  0  0  0
 59 61  1  0  0  0
 59 62  1  0  0  0
 60131  1  0  0  0
 60132  1  0  0  0
 60133  1  0  0  0
 61134  1  0  0  0
 61135  1  0  0  0
 61136  1  0  0  0
 62137  1  0  0  0
 62138  1  0  0  0
 62139  1  0  0  0
 63 65  1  0  0  0
 63140  1  0  0  0
 63141  1  0  0  0
 63142  1  0  0  0
 64143  1  0  0  0
 65144  1  0  0  0
 68 79  1  0  0  0
 71 72  1  0  0  0
 71 73  2  0  0  0
 71145  1  0  0  0
 72 74  2  0  0  0
 72 85  1  0  0  0
 73 81  1  0  0  0
 73 84  1  0  0  0
 74 80  1  0  0  0
 74 84  1  0  0  0
 75 76  1  0  0  0
 75 78  1  0  0  0
 75 82  2  0  0  0
 76 80  1  0  0  0
 76 83  2  0  0  0
 77146  1  0  0  0
 77147  1  0  0  0
 77148  1  0  0  0
 77 79  1  0  0  0
 78 79  1  0  0  0
 78149  1  0  0  0
 78150  1  0  0  0
 79151  1  0  0  0
 80152  1  0  0  0
 81153  1  0  0  0
M  ISO  4   1 100  68 101  79 101  81 100
M  END
> <chiral flag>
0

> <version>
0

> <s_m_source_file>
/data/baiqing/PycharmProjects/Reinvent-master-3.2/result/LINK_invent/BTK/process_docking_weight1_custom_product_contain_oxygen_bond_distance_aromatic_linkinvent_7_9_3/rearranged_h_0178.sdf

> <i_m_source_file_index>
34

> <r_mmod_Potential_Energy-OPLS-2005>
-42.6982116699219

> <r_mmod_Stretch_Energy-OPLS-2005>
53.6790313720703

> <r_mmod_Bend_Energy-OPLS-2005>
133.511566162109

> <r_mmod_Torsional_Energy-OPLS-2005>
251.921508789062

> <r_mmod_Improper_Torsional_Energy-OPLS-2005>
4.55352878570557

> <r_mmod_Van_der_Waal_Energy-OPLS-2005>
139.19123840332

> <r_mmod_Electrostatic_Energy-OPLS-2005>
-423.065002441406

> <r_mmod_Solvation_Energy-OPLS-2005>
-225.704574584961

> <b_mmod_Minimization_Converged-OPLS-2005>
0

> <r_mmod_RMS_Derivative-OPLS-2005>
3.07285809516907

$$$$
34
                    3D
 Structure written by MMmdl.
152160  0  0  1  0            999 V2000
  -30.5674  -15.0329   20.3961 C   0  0  0  0  0  0
  -30.4179  -12.6594   19.4795 C   0  0  0  0  0  0
  -29.5068  -12.5253   18.2429 C   0  0  0  0  0  0
  -28.0420  -12.3143   18.6696 C   0  0  0  0  0  0
  -27.6087  -13.2560   19.8248 C   0  0  2  0  0  0
  -28.6578  -13.3708   20.9444 C   0  0  0  0  0  0
  -25.2414  -13.8257   20.5750 C   0  0  0  0  0  0
  -24.1687  -13.0477   20.9150 C   0  0  0  0  0  0
  -24.6319  -11.6961   20.8707 C   0  0  0  0  0  0
  -23.9018  -10.4326   21.0430 C   0  0  0  0  0  0
  -24.3580   -9.4259   21.9235 C   0  0  0  0  0  0
  -23.6263   -8.2287   22.0815 C   0  0  0  0  0  0
  -22.4264   -8.0314   21.3587 C   0  0  0  0  0  0
  -21.9865   -9.0293   20.4717 C   0  0  0  0  0  0
  -22.7168  -10.2180   20.3101 C   0  0  0  0  0  0
  -21.6863   -6.0721   22.5292 C   0  0  0  0  0  0
  -21.4010   -6.5617   23.8218 C   0  0  0  0  0  0
  -21.3635   -5.6776   24.9182 C   0  0  0  0  0  0
  -21.6007   -4.3025   24.7206 C   0  0  0  0  0  0
  -21.8805   -3.8134   23.4332 C   0  0  0  0  0  0
  -21.9233   -4.6964   22.3398 C   0  0  0  0  0  0
  -22.7708  -13.5267   21.1735 C   0  0  0  0  0  0
  -22.1756   -4.2175   21.0967 F   0  0  0  0  0  0
  -21.5605   -3.4489   25.7700 F   0  0  0  0  0  0
  -29.9053  -13.8005   20.3002 N   0  0  0  0  0  0
  -26.2799  -12.9465   20.3247 N   0  0  0  0  0  0
  -25.9248  -11.6595   20.5713 N   0  0  0  0  0  0
  -22.0356  -12.8362   22.0369 N   0  0  0  0  0  0
  -25.4163  -15.2001   20.4325 N   0  0  0  0  0  0
  -31.7847  -14.9837   20.1986 O   0  0  0  0  0  0
  -21.6643   -6.8901   21.4267 O   0  0  0  0  0  0
  -22.3377  -14.5493   20.6447 O   0  0  0  0  0  0
  -24.6454  -31.8403   23.1867 C   0  0  0  0  0  0
  -25.9170  -32.4684   23.8331 C   0  0  1  0  0  0
  -27.2153  -27.1136   20.1349 C   0  0  0  0  0  0
  -25.5855  -33.8513   24.2197 N   0  0  0  0  0  0
  -23.4512  -30.4601   21.5321 C   0  0  2  0  0  0
  -24.9031  -28.8892   20.1082 C   0  0  0  0  0  0
  -22.7607  -29.4522   22.4851 C   0  0  0  0  0  0
  -18.0290  -28.1371   22.8487 C   0  0  0  0  0  0
  -24.1509  -36.7268   23.2660 C   0  0  0  0  0  0
  -26.0137  -30.7108   21.3891 C   0  0  0  0  0  0
  -26.0855  -29.3214   20.7234 C   0  0  0  0  0  0
  -27.2426  -28.4505   20.7225 C   0  0  0  0  0  0
  -26.0096  -26.7956   19.4759 C   0  0  0  0  0  0
  -24.8805  -27.6401   19.4726 C   0  0  0  0  0  0
  -23.6802  -29.7949   20.1503 C   0  0  0  0  0  0
  -25.4149  -36.3052   24.0322 C   0  0  1  0  0  0
  -20.5924  -28.3700   23.1240 C   0  0  2  0  0  0
  -20.6779  -26.9376   22.5448 C   0  0  0  0  0  0
  -19.5753  -26.6344   21.5242 C   0  0  0  0  0  0
  -18.1930  -26.7900   22.1650 C   0  0  0  0  0  0
  -19.1558  -28.8842   23.2854 C   0  0  0  0  0  0
  -18.9475  -30.1446   23.8860 C   0  0  0  0  0  0
  -17.6470  -30.6563   24.0563 C   0  0  0  0  0  0
  -25.9095  -34.9408   23.5092 C   0  0  0  0  0  0
  -16.5363  -29.9068   23.6315 C   0  0  0  0  0  0
  -16.7276  -28.6486   23.0343 C   0  0  0  0  0  0
  -26.4452  -31.6577   25.0787 C   0  0  0  0  0  0
  -25.3642  -31.3751   26.1475 C   0  0  0  0  0  0
  -27.0371  -30.3006   24.6371 C   0  0  0  0  0  0
  -27.5995  -32.4374   25.7501 C   0  0  0  0  0  0
  -27.5604  -37.1807   24.8455 C   0  0  0  0  0  0
  -21.4283  -29.3032   22.3628 N   0  0  0  0  0  0
  -26.4315  -37.3757   23.9389 N   0  0  0  0  0  0
  -24.7226  -31.0283   22.0879 N   0  0  0  0  0  0
  -23.4253  -28.8025   23.2949 O   0  0  0  0  0  0
  -28.2505  -26.1018   20.2058 O   0  0  0  0  0  0
  -26.5767  -34.8851   22.4730 O   0  0  0  0  0  0
  -23.5568  -32.1233   23.7082 O   0  0  0  0  0  0
  -28.6461  -16.6741   18.6167 C   0  0  0  0  0  0
  -27.9409  -17.7296   18.0065 C   0  0  0  0  0  0
  -29.2571  -17.2482   19.7033 C   0  0  0  0  0  0
  -29.2576  -20.1248   20.3095 C   0  0  0  0  0  0
  -30.3809  -23.5170   19.8108 C   0  0  0  0  0  0
  -28.5543  -21.5938   19.8662 C   0  0  0  0  0  0
  -27.9829  -24.5719   19.9356 C   0  0  0  0  0  0
  -28.9498  -23.2058   20.2950 C   0  0  2  0  0  0
  -28.1030  -18.9034   18.5666 N   0  0  0  0  0  0
  -28.9426  -18.7421   19.6297 N   0  0  0  0  0  0
  -29.9564  -16.3343   20.5722 N   0  0  0  0  0  0
  -30.0883  -20.0893   21.2201 O   0  0  0  0  0  0
  -27.1431  -17.5761   16.9256 F   0  0  0  0  0  0
  -29.0142  -23.1895   21.6269 F   0  0  0  0  0  0
  -31.4479  -12.8012   19.1486 H   0  0  0  0  0  0
  -30.4162  -11.7314   20.0555 H   0  0  0  0  0  0
  -29.8340  -11.6942   17.6156 H   0  0  0  0  0  0
  -29.5948  -13.4200   17.6263 H   0  0  0  0  0  0
  -27.9454  -11.2740   18.9807 H   0  0  0  0  0  0
  -27.3761  -12.4367   17.8150 H   0  0  0  0  0  0
  -27.5249  -14.2380   19.3716 H   0  0  0  0  0  0
  -28.7754  -12.4208   21.4674 H   0  0  0  0  0  0
  -28.3511  -14.1085   21.6907 H   0  0  0  0  0  0
  -25.2707   -9.5743   22.4845 H   0  0  0  0  0  0
  -23.9998   -7.4670   22.7510 H   0  0  0  0  0  0
  -21.0811   -8.8743   19.9031 H   0  0  0  0  0  0
  -22.3600  -10.9723   19.6239 H   0  0  0  0  0  0
  -21.1991   -7.6130   23.9694 H   0  0  0  0  0  0
  -21.1486   -6.0527   25.9075 H   0  0  0  0  0  0
  -22.0600   -2.7585   23.2818 H   0  0  0  0  0  0
  -22.4145  -12.0272   22.5048 H   0  0  0  0  0  0
  -21.0894  -13.1284   22.2370 H   0  0  0  0  0  0
  -24.6569  -15.8565   20.5776 H   0  0  0  0  0  0
  -26.2988  -15.6490   20.2294 H   0  0  0  0  0  0
  -26.7295  -32.5237   23.1125 H   0  0  0  0  0  0
  -24.9756  -33.9691   25.0159 H   0  0  0  0  0  0
  -22.7500  -31.2851   21.3791 H   0  0  0  0  0  0
  -23.3754  -35.9615   23.3323 H   0  0  0  0  0  0
  -24.3653  -36.8895   22.2085 H   0  0  0  0  0  0
  -23.7232  -37.6446   23.6708 H   0  0  0  0  0  0
  -26.1923  -31.4658   20.6219 H   0  0  0  0  0  0
  -26.8825  -30.7583   22.0371 H   0  0  0  0  0  0
  -28.1419  -28.7808   21.2265 H   0  0  0  0  0  0
  -25.8998  -25.8479   18.9733 H   0  0  0  0  0  0
  -23.9776  -27.2933   18.9893 H   0  0  0  0  0  0
  -23.8206  -30.5700   19.3962 H   0  0  0  0  0  0
  -22.7930  -29.2457   19.8358 H   0  0  0  0  0  0
  -25.1349  -36.1929   25.0824 H   0  0  0  0  0  0
  -21.0063  -28.3253   24.1343 H   0  0  0  0  0  0
  -20.5639  -26.2281   23.3669 H   0  0  0  0  0  0
  -21.6632  -26.7311   22.1268 H   0  0  0  0  0  0
  -19.6902  -25.6250   21.1249 H   0  0  0  0  0  0
  -19.6693  -27.3166   20.6775 H   0  0  0  0  0  0
  -17.4209  -26.6618   21.4062 H   0  0  0  0  0  0
  -18.0336  -26.0058   22.9058 H   0  0  0  0  0  0
  -19.7951  -30.7293   24.2205 H   0  0  0  0  0  0
  -17.5003  -31.6232   24.5183 H   0  0  0  0  0  0
  -15.5363  -30.2984   23.7621 H   0  0  0  0  0  0
  -15.8676  -28.0819   22.7076 H   0  0  0  0  0  0
  -24.5864  -30.7045   25.7784 H   0  0  0  0  0  0
  -24.8767  -32.2917   26.4825 H   0  0  0  0  0  0
  -25.7944  -30.8980   27.0299 H   0  0  0  0  0  0
  -26.3051  -29.6672   24.1339 H   0  0  0  0  0  0
  -27.3964  -29.7331   25.4957 H   0  0  0  0  0  0
  -27.8924  -30.4280   23.9740 H   0  0  0  0  0  0
  -27.2592  -33.3685   26.2041 H   0  0  0  0  0  0
  -28.3727  -32.6926   25.0252 H   0  0  0  0  0  0
  -28.0728  -31.8539   26.5393 H   0  0  0  0  0  0
  -28.2579  -38.0147   24.7535 H   0  0  0  0  0  0
  -28.1136  -36.2663   24.6243 H   0  0  0  0  0  0
  -27.2353  -37.1418   25.8870 H   0  0  0  0  0  0
  -20.9481  -29.8760   21.6843 H   0  0  0  0  0  0
  -26.0164  -38.2828   24.1352 H   0  0  0  0  0  0
  -28.6698  -15.6480   18.2904 H   0  0  0  0  0  0
  -30.7695  -24.4362   20.2550 H   0  0  0  0  0  0
  -30.4229  -23.6421   18.7283 H   0  0  0  0  0  0
  -31.0756  -22.7181   20.0741 H   0  0  0  0  0  0
  -27.5015  -21.4724   20.1258 H   0  0  0  0  0  0
  -28.5558  -21.5829   18.7768 H   0  0  0  0  0  0
  -27.0167  -24.3456   20.3919 H   0  0  0  0  0  0
  -27.7998  -24.5239   18.8629 H   0  0  0  0  0  0
  -30.5083  -16.8649   21.2323 H   0  0  0  0  0  0
  1 25  1  0  0  0
  1 30  2  0  0  0
  1 81  1  0  0  0
  2  3  1  0  0  0
  2 25  1  0  0  0
  2 85  1  0  0  0
  2 86  1  0  0  0
  3  4  1  0  0  0
  3 87  1  0  0  0
  3 88  1  0  0  0
  4  5  1  0  0  0
  4 89  1  0  0  0
  4 90  1  0  0  0
  5  6  1  0  0  0
  5 26  1  0  0  0
  5 91  1  0  0  0
  6 25  1  0  0  0
  6 92  1  0  0  0
  6 93  1  0  0  0
  7  8  2  0  0  0
  7 26  1  0  0  0
  7 29  1  0  0  0
  8  9  1  0  0  0
  8 22  1  0  0  0
  9 10  1  0  0  0
  9 27  2  0  0  0
 10 11  2  0  0  0
 10 15  1  0  0  0
 11 12  1  0  0  0
 11 94  1  0  0  0
 12 13  2  0  0  0
 12 95  1  0  0  0
 13 14  1  0  0  0
 13 31  1  0  0  0
 14 15  2  0  0  0
 14 96  1  0  0  0
 15 97  1  0  0  0
 16 17  2  0  0  0
 16 21  1  0  0  0
 16 31  1  0  0  0
 17 18  1  0  0  0
 17 98  1  0  0  0
 18 19  2  0  0  0
 18 99  1  0  0  0
 19 20  1  0  0  0
 19 24  1  0  0  0
 20 21  2  0  0  0
 20100  1  0  0  0
 21 23  1  0  0  0
 22 28  1  0  0  0
 22 32  2  0  0  0
 26 27  1  0  0  0
 28101  1  0  0  0
 28102  1  0  0  0
 29103  1  0  0  0
 29104  1  0  0  0
 33 34  1  0  0  0
 33 66  1  0  0  0
 33 70  2  0  0  0
 34 36  1  0  0  0
 34 59  1  0  0  0
 34105  1  0  0  0
 35 44  2  0  0  0
 35 45  1  0  0  0
 35 68  1  0  0  0
 36 56  1  0  0  0
 36106  1  0  0  0
 37 39  1  0  0  0
 37 47  1  0  0  0
 37 66  1  0  0  0
 37107  1  0  0  0
 38 43  2  0  0  0
 38 46  1  0  0  0
 38 47  1  0  0  0
 39 64  1  0  0  0
 39 67  2  0  0  0
 40 52  1  0  0  0
 40 53  2  0  0  0
 40 58  1  0  0  0
 41108  1  0  0  0
 41109  1  0  0  0
 41110  1  0  0  0
 41 48  1  0  0  0
 42 43  1  0  0  0
 42 66  1  0  0  0
 42111  1  0  0  0
 42112  1  0  0  0
 43 44  1  0  0  0
 44113  1  0  0  0
 45 46  2  0  0  0
 45114  1  0  0  0
 46115  1  0  0  0
 47116  1  0  0  0
 47117  1  0  0  0
 48 56  1  0  0  0
 48 65  1  0  0  0
 48118  1  0  0  0
 49 50  1  0  0  0
 49 53  1  0  0  0
 49 64  1  0  0  0
 49119  1  0  0  0
 50 51  1  0  0  0
 50120  1  0  0  0
 50121  1  0  0  0
 51 52  1  0  0  0
 51122  1  0  0  0
 51123  1  0  0  0
 52124  1  0  0  0
 52125  1  0  0  0
 53 54  1  0  0  0
 54 55  2  0  0  0
 54126  1  0  0  0
 55 57  1  0  0  0
 55127  1  0  0  0
 56 69  2  0  0  0
 57 58  2  0  0  0
 57128  1  0  0  0
 58129  1  0  0  0
 59 60  1  0  0  0
 59 61  1  0  0  0
 59 62  1  0  0  0
 60130  1  0  0  0
 60131  1  0  0  0
 60132  1  0  0  0
 61133  1  0  0  0
 61134  1  0  0  0
 61135  1  0  0  0
 62136  1  0  0  0
 62137  1  0  0  0
 62138  1  0  0  0
 63 65  1  0  0  0
 63139  1  0  0  0
 63140  1  0  0  0
 63141  1  0  0  0
 64142  1  0  0  0
 65143  1  0  0  0
 68 77  1  0  0  0
 71 72  1  0  0  0
 71 73  2  0  0  0
 71144  1  0  0  0
 72 79  2  0  0  0
 72 83  1  0  0  0
 73 80  1  0  0  0
 73 81  1  0  0  0
 74 76  1  0  0  0
 74 80  1  0  0  0
 74 82  2  0  0  0
 75145  1  0  0  0
 75146  1  0  0  0
 75147  1  0  0  0
 75 78  1  0  0  0
 76 78  1  0  0  0
 76148  1  0  0  0
 76149  1  0  0  0
 77 78  1  0  0  0
 77150  1  0  0  0
 77151  1  0  0  0
 78 84  1  0  0  0
 79 80  1  0  0  0
 81152  1  0  0  0
M  ISO  4   1 100  68 101  77 101  81 100
M  END
> <chiral flag>
0

> <version>
0

> <s_m_source_file>
/data/baiqing/PycharmProjects/Reinvent-master-3.2/result/LINK_invent/BTK/process_docking_weight1_custom_product_contain_oxygen_bond_distance_aromatic_linkinvent_7_9_3/rearranged_h_0178.sdf

> <i_m_source_file_index>
35

> <r_mmod_Potential_Energy-OPLS-2005>
699.732116699219

> <r_mmod_Stretch_Energy-OPLS-2005>
334.798767089844

> <r_mmod_Bend_Energy-OPLS-2005>
363.446838378906

> <r_mmod_Torsional_Energy-OPLS-2005>
236.047821044922

> <r_mmod_Improper_Torsional_Energy-OPLS-2005>
5.20365762710571

> <r_mmod_Van_der_Waal_Energy-OPLS-2005>
105.003028869629

> <r_mmod_Electrostatic_Energy-OPLS-2005>
-369.044555664062

> <r_mmod_Solvation_Energy-OPLS-2005>
-216.559371948242

> <b_mmod_Minimization_Converged-OPLS-2005>
0

> <r_mmod_RMS_Derivative-OPLS-2005>
6.04405117034912

$$$$
35
                    3D
 Structure written by MMmdl.
158166  0  0  1  0            999 V2000
  -30.7038  -14.4180   20.6339 C   0  0  0  0  0  0
  -30.4294  -12.2919   19.4040 C   0  0  0  0  0  0
  -29.4964  -12.5285   18.1980 C   0  0  0  0  0  0
  -28.0165  -12.3847   18.6056 C   0  0  0  0  0  0
  -27.6690  -13.1995   19.8795 C   0  0  2  0  0  0
  -28.7051  -12.9218   20.9921 C   0  0  0  0  0  0
  -25.2614  -13.8145   20.5658 C   0  0  0  0  0  0
  -24.1855  -13.0434   20.9154 C   0  0  0  0  0  0
  -24.6391  -11.6896   20.8699 C   0  0  0  0  0  0
  -23.9048  -10.4292   21.0395 C   0  0  0  0  0  0
  -24.3601   -9.4210   21.9174 C   0  0  0  0  0  0
  -23.6286   -8.2241   22.0748 C   0  0  0  0  0  0
  -22.4268   -8.0272   21.3543 C   0  0  0  0  0  0
  -21.9900   -9.0244   20.4647 C   0  0  0  0  0  0
  -22.7217  -10.2128   20.3052 C   0  0  0  0  0  0
  -21.6847   -6.0732   22.5276 C   0  0  0  0  0  0
  -21.4012   -6.5640   23.8211 C   0  0  0  0  0  0
  -21.3664   -5.6786   24.9173 C   0  0  0  0  0  0
  -21.6045   -4.3051   24.7217 C   0  0  0  0  0  0
  -21.8820   -3.8142   23.4338 C   0  0  0  0  0  0
  -21.9192   -4.6964   22.3395 C   0  0  0  0  0  0
  -22.7880  -13.5249   21.1837 C   0  0  0  0  0  0
  -22.1664   -4.2155   21.0971 F   0  0  0  0  0  0
  -21.5633   -3.4532   25.7730 F   0  0  0  0  0  0
  -30.0510  -13.2351   20.4659 N   0  0  0  0  0  0
  -26.3052  -12.9305   20.3333 N   0  0  0  0  0  0
  -25.9314  -11.6467   20.5701 N   0  0  0  0  0  0
  -22.0506  -12.8247   22.0391 N   0  0  0  0  0  0
  -25.4342  -15.1862   20.4104 N   0  0  0  0  0  0
  -31.7573  -14.7012   20.0512 O   0  0  0  0  0  0
  -21.6629   -6.8872   21.4239 O   0  0  0  0  0  0
  -22.3566  -14.5553   20.6690 O   0  0  0  0  0  0
  -24.6115  -31.8708   23.2113 C   0  0  0  0  0  0
  -25.9020  -32.4835   23.8410 C   0  0  1  0  0  0
  -27.2353  -27.4602   20.0853 C   0  0  0  0  0  0
  -25.5881  -33.8632   24.2336 N   0  0  0  0  0  0
  -23.3967  -30.4949   21.5525 C   0  0  2  0  0  0
  -24.8415  -28.9616   20.1169 C   0  0  0  0  0  0
  -22.7388  -29.4676   22.5008 C   0  0  0  0  0  0
  -18.0269  -28.1373   22.8503 C   0  0  0  0  0  0
  -24.1484  -36.7321   23.2640 C   0  0  0  0  0  0
  -25.9238  -30.8433   21.3602 C   0  0  0  0  0  0
  -26.0009  -29.4800   20.7059 C   0  0  0  0  0  0
  -27.2006  -28.7381   20.6829 C   0  0  0  0  0  0
  -26.0549  -26.9445   19.5022 C   0  0  0  0  0  0
  -24.8620  -27.6914   19.5141 C   0  0  0  0  0  0
  -23.6023  -29.8259   20.1672 C   0  0  0  0  0  0
  -25.4101  -36.3116   24.0342 C   0  0  1  0  0  0
  -20.5856  -28.3653   23.1339 C   0  0  2  0  0  0
  -20.6752  -26.9394   22.5432 C   0  0  0  0  0  0
  -19.5732  -26.6386   21.5221 C   0  0  0  0  0  0
  -18.1911  -26.7924   22.1631 C   0  0  0  0  0  0
  -19.1518  -28.8829   23.2918 C   0  0  0  0  0  0
  -18.9449  -30.1437   23.8925 C   0  0  0  0  0  0
  -17.6453  -30.6584   24.0570 C   0  0  0  0  0  0
  -25.9026  -34.9482   23.5134 C   0  0  0  0  0  0
  -16.5342  -29.9091   23.6322 C   0  0  0  0  0  0
  -16.7261  -28.6503   23.0352 C   0  0  0  0  0  0
  -26.4458  -31.6614   25.0735 C   0  0  0  0  0  0
  -25.3735  -31.3744   26.1498 C   0  0  0  0  0  0
  -27.0292  -30.3059   24.6109 C   0  0  0  0  0  0
  -27.6046  -32.4340   25.7480 C   0  0  0  0  0  0
  -27.5585  -37.1803   24.8460 C   0  0  0  0  0  0
  -21.4121  -29.3026   22.3748 N   0  0  0  0  0  0
  -26.4286  -37.3801   23.9417 N   0  0  0  0  0  0
  -24.6623  -31.0834   22.0997 N   0  0  0  0  0  0
  -23.4181  -28.8218   23.3031 O   0  0  0  0  0  0
  -28.4253  -26.7687   20.0752 O   0  0  0  0  0  0
  -26.5591  -34.8927   22.4700 O   0  0  0  0  0  0
  -23.5312  -32.1451   23.7520 O   0  0  0  0  0  0
  -29.6330  -18.7062   20.4836 C   0  0  0  0  0  0
  -28.5343  -18.7307   21.3261 C   0  0  0  0  0  0
  -29.7121  -16.5760   21.3225 C   0  0  0  0  0  0
  -29.6389  -22.2638   20.0330 C   0  0  0  0  0  0
  -31.4989  -19.5698   18.9457 C   0  0  0  0  0  0
  -29.7583  -23.3746   21.0840 C   0  0  0  0  0  0
  -29.7406  -24.8198   20.5390 C   0  0  0  0  0  0
  -28.3556  -25.3457   20.1254 C   0  0  0  0  0  0
  -30.1277  -19.8389   19.5939 C   0  0  2  0  0  0
  -30.2811  -17.4535   20.4836 N   0  0  0  0  0  0
  -27.6196  -19.7544   21.5669 N   0  0  0  0  0  0
  -30.1204  -15.2334   21.5209 N   0  0  0  0  0  0
  -30.2130  -21.0939   20.3454 N   0  0  0  0  0  0
  -29.0257  -22.4506   18.9813 O   0  0  0  0  0  0
  -28.3223  -17.2222   22.1723 S   0  0  0  0  0  0
  -31.4740  -12.4012   19.1052 H   0  0  0  0  0  0
  -30.3291  -11.2666   19.7644 H   0  0  0  0  0  0
  -29.7345  -11.8295   17.3958 H   0  0  0  0  0  0
  -29.6668  -13.5264   17.7905 H   0  0  0  0  0  0
  -27.8213  -11.3253   18.7761 H   0  0  0  0  0  0
  -27.3697  -12.6827   17.7793 H   0  0  0  0  0  0
  -27.7312  -14.2559   19.6158 H   0  0  0  0  0  0
  -28.6696  -11.8708   21.2814 H   0  0  0  0  0  0
  -28.4444  -13.4665   21.8996 H   0  0  0  0  0  0
  -25.2753   -9.5699   22.4736 H   0  0  0  0  0  0
  -24.0008   -7.4637   22.7464 H   0  0  0  0  0  0
  -21.0834   -8.8750   19.8962 H   0  0  0  0  0  0
  -22.3666  -10.9656   19.6154 H   0  0  0  0  0  0
  -21.2000   -7.6146   23.9720 H   0  0  0  0  0  0
  -21.1495   -6.0512   25.9079 H   0  0  0  0  0  0
  -22.0599   -2.7609   23.2818 H   0  0  0  0  0  0
  -22.4107  -11.9916   22.4802 H   0  0  0  0  0  0
  -21.1134  -13.1304   22.2594 H   0  0  0  0  0  0
  -24.6688  -15.8413   20.5259 H   0  0  0  0  0  0
  -26.2890  -15.6292   20.0992 H   0  0  0  0  0  0
  -26.7097  -32.5556   23.1183 H   0  0  0  0  0  0
  -25.0012  -33.9805   25.0467 H   0  0  0  0  0  0
  -22.6833  -31.3105   21.4159 H   0  0  0  0  0  0
  -23.3746  -35.9655   23.3301 H   0  0  0  0  0  0
  -24.3586  -36.8939   22.2056 H   0  0  0  0  0  0
  -23.7231  -37.6521   23.6661 H   0  0  0  0  0  0
  -26.0362  -31.6120   20.5943 H   0  0  0  0  0  0
  -26.8112  -30.8946   21.9796 H   0  0  0  0  0  0
  -28.0993  -29.1392   21.1305 H   0  0  0  0  0  0
  -26.0473  -25.9760   19.0245 H   0  0  0  0  0  0
  -23.9686  -27.2858   19.0595 H   0  0  0  0  0  0
  -23.7064  -30.6007   19.4068 H   0  0  0  0  0  0
  -22.7269  -29.2440   19.8743 H   0  0  0  0  0  0
  -25.1271  -36.1979   25.0833 H   0  0  0  0  0  0
  -20.9959  -28.3212   24.1455 H   0  0  0  0  0  0
  -20.5659  -26.2257   23.3613 H   0  0  0  0  0  0
  -21.6620  -26.7442   22.1224 H   0  0  0  0  0  0
  -19.6890  -25.6303   21.1237 H   0  0  0  0  0  0
  -19.6668  -27.3205   20.6758 H   0  0  0  0  0  0
  -17.4185  -26.6694   21.4026 H   0  0  0  0  0  0
  -18.0299  -26.0062   22.9021 H   0  0  0  0  0  0
  -19.7924  -30.7245   24.2306 H   0  0  0  0  0  0
  -17.5012  -31.6267   24.5168 H   0  0  0  0  0  0
  -15.5346  -30.3006   23.7625 H   0  0  0  0  0  0
  -15.8662  -28.0831   22.7053 H   0  0  0  0  0  0
  -24.5845  -30.7163   25.7835 H   0  0  0  0  0  0
  -24.8998  -32.2920   26.5000 H   0  0  0  0  0  0
  -25.8073  -30.8853   27.0227 H   0  0  0  0  0  0
  -26.2835  -29.6816   24.1165 H   0  0  0  0  0  0
  -27.4069  -29.7296   25.4563 H   0  0  0  0  0  0
  -27.8668  -30.4384   23.9257 H   0  0  0  0  0  0
  -27.2666  -33.3621   26.2103 H   0  0  0  0  0  0
  -28.3816  -32.6935   25.0280 H   0  0  0  0  0  0
  -28.0765  -31.8449   26.5352 H   0  0  0  0  0  0
  -28.2590  -38.0113   24.7526 H   0  0  0  0  0  0
  -28.1090  -36.2644   24.6247 H   0  0  0  0  0  0
  -27.2321  -37.1414   25.8867 H   0  0  0  0  0  0
  -20.9267  -29.8754   21.6987 H   0  0  0  0  0  0
  -26.0178  -38.2880   24.1422 H   0  0  0  0  0  0
  -31.4652  -18.6892   18.3037 H   0  0  0  0  0  0
  -32.2708  -19.4071   19.6973 H   0  0  0  0  0  0
  -31.8124  -20.4090   18.3248 H   0  0  0  0  0  0
  -30.6947  -23.2313   21.6245 H   0  0  0  0  0  0
  -28.9654  -23.2458   21.8220 H   0  0  0  0  0  0
  -30.4385  -24.9188   19.7067 H   0  0  0  0  0  0
  -30.1290  -25.4678   21.3257 H   0  0  0  0  0  0
  -27.6087  -25.0392   20.8611 H   0  0  0  0  0  0
  -28.0623  -24.9389   19.1566 H   0  0  0  0  0  0
  -29.4073  -19.9561   18.7821 H   0  0  0  0  0  0
  -27.6209  -20.6362   21.0629 H   0  0  0  0  0  0
  -26.8146  -19.6587   22.1782 H   0  0  0  0  0  0
  -29.5004  -14.7329   22.1372 H   0  0  0  0  0  0
  -30.6743  -21.0352   21.2427 H   0  0  0  0  0  0
  1 25  1  0  0  0
  1 30  2  0  0  0
  1 82  1  0  0  0
  2  3  1  0  0  0
  2 25  1  0  0  0
  2 86  1  0  0  0
  2 87  1  0  0  0
  3  4  1  0  0  0
  3 88  1  0  0  0
  3 89  1  0  0  0
  4  5  1  0  0  0
  4 90  1  0  0  0
  4 91  1  0  0  0
  5  6  1  0  0  0
  5 26  1  0  0  0
  5 92  1  0  0  0
  6 25  1  0  0  0
  6 93  1  0  0  0
  6 94  1  0  0  0
  7  8  2  0  0  0
  7 26  1  0  0  0
  7 29  1  0  0  0
  8  9  1  0  0  0
  8 22  1  0  0  0
  9 10  1  0  0  0
  9 27  2  0  0  0
 10 11  2  0  0  0
 10 15  1  0  0  0
 11 12  1  0  0  0
 11 95  1  0  0  0
 12 13  2  0  0  0
 12 96  1  0  0  0
 13 14  1  0  0  0
 13 31  1  0  0  0
 14 15  2  0  0  0
 14 97  1  0  0  0
 15 98  1  0  0  0
 16 17  2  0  0  0
 16 21  1  0  0  0
 16 31  1  0  0  0
 17 18  1  0  0  0
 17 99  1  0  0  0
 18 19  2  0  0  0
 18100  1  0  0  0
 19 20  1  0  0  0
 19 24  1  0  0  0
 20 21  2  0  0  0
 20101  1  0  0  0
 21 23  1  0  0  0
 22 28  1  0  0  0
 22 32  2  0  0  0
 26 27  1  0  0  0
 28102  1  0  0  0
 28103  1  0  0  0
 29104  1  0  0  0
 29105  1  0  0  0
 33 34  1  0  0  0
 33 66  1  0  0  0
 33 70  2  0  0  0
 34 36  1  0  0  0
 34 59  1  0  0  0
 34106  1  0  0  0
 35 44  2  0  0  0
 35 45  1  0  0  0
 35 68  1  0  0  0
 36 56  1  0  0  0
 36107  1  0  0  0
 37 39  1  0  0  0
 37 47  1  0  0  0
 37 66  1  0  0  0
 37108  1  0  0  0
 38 43  2  0  0  0
 38 46  1  0  0  0
 38 47  1  0  0  0
 39 64  1  0  0  0
 39 67  2  0  0  0
 40 52  1  0  0  0
 40 53  2  0  0  0
 40 58  1  0  0  0
 41109  1  0  0  0
 41110  1  0  0  0
 41111  1  0  0  0
 41 48  1  0  0  0
 42 43  1  0  0  0
 42 66  1  0  0  0
 42112  1  0  0  0
 42113  1  0  0  0
 43 44  1  0  0  0
 44114  1  0  0  0
 45 46  2  0  0  0
 45115  1  0  0  0
 46116  1  0  0  0
 47117  1  0  0  0
 47118  1  0  0  0
 48 56  1  0  0  0
 48 65  1  0  0  0
 48119  1  0  0  0
 49 50  1  0  0  0
 49 53  1  0  0  0
 49 64  1  0  0  0
 49120  1  0  0  0
 50 51  1  0  0  0
 50121  1  0  0  0
 50122  1  0  0  0
 51 52  1  0  0  0
 51123  1  0  0  0
 51124  1  0  0  0
 52125  1  0  0  0
 52126  1  0  0  0
 53 54  1  0  0  0
 54 55  2  0  0  0
 54127  1  0  0  0
 55 57  1  0  0  0
 55128  1  0  0  0
 56 69  2  0  0  0
 57 58  2  0  0  0
 57129  1  0  0  0
 58130  1  0  0  0
 59 60  1  0  0  0
 59 61  1  0  0  0
 59 62  1  0  0  0
 60131  1  0  0  0
 60132  1  0  0  0
 60133  1  0  0  0
 61134  1  0  0  0
 61135  1  0  0  0
 61136  1  0  0  0
 62137  1  0  0  0
 62138  1  0  0  0
 62139  1  0  0  0
 63 65  1  0  0  0
 63140  1  0  0  0
 63141  1  0  0  0
 63142  1  0  0  0
 64143  1  0  0  0
 65144  1  0  0  0
 68 78  1  0  0  0
 71 72  2  0  0  0
 71 79  1  0  0  0
 71 80  1  0  0  0
 72 81  1  0  0  0
 72 85  1  0  0  0
 73 80  2  0  0  0
 73 82  1  0  0  0
 73 85  1  0  0  0
 74 76  1  0  0  0
 74 83  1  0  0  0
 74 84  2  0  0  0
 75145  1  0  0  0
 75146  1  0  0  0
 75147  1  0  0  0
 75 79  1  0  0  0
 76 77  1  0  0  0
 76148  1  0  0  0
 76149  1  0  0  0
 77 78  1  0  0  0
 77150  1  0  0  0
 77151  1  0  0  0
 78152  1  0  0  0
 78153  1  0  0  0
 79 83  1  0  0  0
 79154  1  0  0  0
 81155  1  0  0  0
 81156  1  0  0  0
 82157  1  0  0  0
 83158  1  0  0  0
M  ISO  4   1 100  68 101  78 101  82 100
M  END
> <chiral flag>
0

> <version>
0

> <s_m_source_file>
/data/baiqing/PycharmProjects/Reinvent-master-3.2/result/LINK_invent/BTK/process_docking_weight1_custom_product_contain_oxygen_bond_distance_aromatic_linkinvent_7_9_3/rearranged_h_0178.sdf

> <i_m_source_file_index>
36

> <r_mmod_Potential_Energy-OPLS-2005>
-182.007873535156

> <r_mmod_Stretch_Energy-OPLS-2005>
33.7857131958008

> <r_mmod_Bend_Energy-OPLS-2005>
107.404830932617

> <r_mmod_Torsional_Energy-OPLS-2005>
213.542846679688

> <r_mmod_Improper_Torsional_Energy-OPLS-2005>
5.24009466171265

> <r_mmod_Van_der_Waal_Energy-OPLS-2005>
129.473373413086

> <r_mmod_Electrostatic_Energy-OPLS-2005>
-435.544464111328

> <r_mmod_Solvation_Energy-OPLS-2005>
-244.464965820312

> <b_mmod_Minimization_Converged-OPLS-2005>
0

> <r_mmod_RMS_Derivative-OPLS-2005>
1.41272044181824

$$$$
36
                    3D
 Structure written by MMmdl.
152160  0  0  1  0            999 V2000
  -30.6747  -14.6087   20.4275 C   0  0  0  0  0  0
  -30.4160  -12.3533   19.4821 C   0  0  0  0  0  0
  -29.5115  -12.4911   18.2389 C   0  0  0  0  0  0
  -28.0340  -12.3419   18.6417 C   0  0  0  0  0  0
  -27.6537  -13.2259   19.8605 C   0  0  2  0  0  0
  -28.6933  -13.1221   21.0013 C   0  0  0  0  0  0
  -25.2552  -13.8197   20.5693 C   0  0  0  0  0  0
  -24.1820  -13.0454   20.9191 C   0  0  0  0  0  0
  -24.6402  -11.6925   20.8732 C   0  0  0  0  0  0
  -23.9067  -10.4297   21.0388 C   0  0  0  0  0  0
  -24.3622   -9.4213   21.9169 C   0  0  0  0  0  0
  -23.6302   -8.2249   22.0743 C   0  0  0  0  0  0
  -22.4282   -8.0284   21.3538 C   0  0  0  0  0  0
  -21.9914   -9.0251   20.4633 C   0  0  0  0  0  0
  -22.7237  -10.2131   20.3037 C   0  0  0  0  0  0
  -21.6855   -6.0738   22.5282 C   0  0  0  0  0  0
  -21.4014   -6.5639   23.8214 C   0  0  0  0  0  0
  -21.3663   -5.6788   24.9183 C   0  0  0  0  0  0
  -21.6043   -4.3049   24.7223 C   0  0  0  0  0  0
  -21.8819   -3.8143   23.4347 C   0  0  0  0  0  0
  -21.9193   -4.6967   22.3400 C   0  0  0  0  0  0
  -22.7841  -13.5240   21.1847 C   0  0  0  0  0  0
  -22.1663   -4.2149   21.0982 F   0  0  0  0  0  0
  -21.5632   -3.4534   25.7739 F   0  0  0  0  0  0
  -30.0193  -13.4067   20.4394 N   0  0  0  0  0  0
  -26.2990  -12.9402   20.3302 N   0  0  0  0  0  0
  -25.9340  -11.6548   20.5762 N   0  0  0  0  0  0
  -22.0476  -12.8229   22.0403 N   0  0  0  0  0  0
  -25.4256  -15.1922   20.4122 N   0  0  0  0  0  0
  -31.8430  -14.6771   20.0383 O   0  0  0  0  0  0
  -21.6647   -6.8885   21.4238 O   0  0  0  0  0  0
  -22.3529  -14.5549   20.6703 O   0  0  0  0  0  0
  -24.6219  -31.8618   23.2036 C   0  0  0  0  0  0
  -25.9093  -32.4781   23.8346 C   0  0  1  0  0  0
  -27.2273  -27.3720   20.1035 C   0  0  0  0  0  0
  -25.5940  -33.8580   24.2301 N   0  0  0  0  0  0
  -23.4140  -30.4854   21.5431 C   0  0  2  0  0  0
  -24.8658  -28.9523   20.0989 C   0  0  0  0  0  0
  -22.7463  -29.4621   22.4927 C   0  0  0  0  0  0
  -18.0293  -28.1380   22.8495 C   0  0  0  0  0  0
  -24.1481  -36.7296   23.2622 C   0  0  0  0  0  0
  -25.9481  -30.8125   21.3639 C   0  0  0  0  0  0
  -26.0298  -29.4443   20.7044 C   0  0  0  0  0  0
  -27.2175  -28.6606   20.7062 C   0  0  0  0  0  0
  -26.0519  -26.9198   19.4738 C   0  0  0  0  0  0
  -24.8751  -27.6931   19.4746 C   0  0  0  0  0  0
  -23.6264  -29.8205   20.1560 C   0  0  0  0  0  0
  -25.4102  -36.3073   24.0320 C   0  0  1  0  0  0
  -20.5888  -28.3682   23.1294 C   0  0  2  0  0  0
  -20.6771  -26.9410   22.5403 C   0  0  0  0  0  0
  -19.5743  -26.6386   21.5208 C   0  0  0  0  0  0
  -18.1935  -26.7922   22.1635 C   0  0  0  0  0  0
  -19.1542  -28.8850   23.2893 C   0  0  0  0  0  0
  -18.9462  -30.1462   23.8900 C   0  0  0  0  0  0
  -17.6456  -30.6581   24.0571 C   0  0  0  0  0  0
  -25.9045  -34.9448   23.5104 C   0  0  0  0  0  0
  -16.5357  -29.9071   23.6332 C   0  0  0  0  0  0
  -16.7278  -28.6492   23.0347 C   0  0  0  0  0  0
  -26.4508  -31.6572   25.0687 C   0  0  0  0  0  0
  -25.3771  -31.3742   26.1437 C   0  0  0  0  0  0
  -27.0309  -30.2984   24.6115 C   0  0  0  0  0  0
  -27.6063  -32.4287   25.7478 C   0  0  0  0  0  0
  -27.5587  -37.1781   24.8457 C   0  0  0  0  0  0
  -21.4174  -29.3039   22.3683 N   0  0  0  0  0  0
  -26.4284  -37.3770   23.9417 N   0  0  0  0  0  0
  -24.6797  -31.0677   22.0955 N   0  0  0  0  0  0
  -23.4205  -28.8163   23.2996 O   0  0  0  0  0  0
  -28.2716  -26.4604   20.2242 O   0  0  0  0  0  0
  -26.5608  -34.8918   22.4668 O   0  0  0  0  0  0
  -23.5394  -32.1402   23.7403 O   0  0  0  0  0  0
  -30.4623  -20.3302   21.4856 C   0  0  0  0  0  0
  -30.8145  -18.9466   21.2847 C   0  0  0  0  0  0
  -29.9156  -18.2635   20.4985 C   0  0  0  0  0  0
  -29.3199  -20.7563   20.8443 C   0  0  0  0  0  0
  -28.0574  -25.5797   21.2819 C   0  0  0  0  0  0
  -30.0264  -16.8813   19.9009 C   0  0  0  0  0  0
  -28.2718  -24.2361   21.4783 C   0  0  0  0  0  0
  -28.9075  -23.2267   20.5885 C   0  0  0  0  0  0
  -32.0718  -18.3131   21.8161 C   0  0  0  0  0  0
  -28.6725  -21.9574   21.0394 N   0  0  0  0  0  0
  -29.9594  -15.7500   20.6674 N   0  0  0  0  0  0
  -30.2193  -16.8250   18.6831 O   0  0  0  0  0  0
  -29.5563  -23.4660   19.5690 O   0  0  0  0  0  0
  -27.8381  -23.7729   22.6670 O   0  0  0  0  0  0
  -32.7333  -19.1371   22.6276 F   0  0  0  0  0  0
  -31.8067  -17.2052   22.5069 F   0  0  0  0  0  0
  -32.8987  -17.9846   20.8238 F   0  0  0  0  0  0
  -28.6618  -19.3825   19.9394 S   0  0  0  0  0  0
  -31.4668  -12.4203   19.1937 H   0  0  0  0  0  0
  -30.3021  -11.3691   19.9398 H   0  0  0  0  0  0
  -29.7770  -11.7362   17.4983 H   0  0  0  0  0  0
  -29.6720  -13.4605   17.7638 H   0  0  0  0  0  0
  -27.8707  -11.2910   18.8828 H   0  0  0  0  0  0
  -27.3859  -12.5647   17.7933 H   0  0  0  0  0  0
  -27.6653  -14.2551   19.5021 H   0  0  0  0  0  0
  -28.6829  -12.1272   21.4476 H   0  0  0  0  0  0
  -28.4514  -13.8185   21.8043 H   0  0  0  0  0  0
  -25.2766   -9.5701   22.4747 H   0  0  0  0  0  0
  -24.0010   -7.4646   22.7468 H   0  0  0  0  0  0
  -21.0846   -8.8761   19.8947 H   0  0  0  0  0  0
  -22.3682  -10.9670   19.6148 H   0  0  0  0  0  0
  -21.1998   -7.6147   23.9721 H   0  0  0  0  0  0
  -21.1488   -6.0521   25.9086 H   0  0  0  0  0  0
  -22.0593   -2.7604   23.2847 H   0  0  0  0  0  0
  -22.4088  -11.9902   22.4818 H   0  0  0  0  0  0
  -21.1081  -13.1242   22.2575 H   0  0  0  0  0  0
  -24.6577  -15.8459   20.5224 H   0  0  0  0  0  0
  -26.2792  -15.6328   20.0949 H   0  0  0  0  0  0
  -26.7131  -32.5502   23.1071 H   0  0  0  0  0  0
  -25.0138  -33.9717   25.0480 H   0  0  0  0  0  0
  -22.7030  -31.3025   21.4002 H   0  0  0  0  0  0
  -23.3734  -35.9635   23.3262 H   0  0  0  0  0  0
  -24.3577  -36.8947   22.2042 H   0  0  0  0  0  0
  -23.7233  -37.6491   23.6661 H   0  0  0  0  0  0
  -26.0656  -31.5816   20.5987 H   0  0  0  0  0  0
  -26.8301  -30.8640   21.9890 H   0  0  0  0  0  0
  -28.1063  -29.0177   21.2073 H   0  0  0  0  0  0
  -26.0362  -25.9390   19.0207 H   0  0  0  0  0  0
  -23.9805  -27.3089   19.0038 H   0  0  0  0  0  0
  -23.7309  -30.5972   19.3973 H   0  0  0  0  0  0
  -22.7499  -29.2398   19.8606 H   0  0  0  0  0  0
  -25.1251  -36.1914   25.0805 H   0  0  0  0  0  0
  -20.9996  -28.3253   24.1409 H   0  0  0  0  0  0
  -20.5665  -26.2297   23.3605 H   0  0  0  0  0  0
  -21.6639  -26.7439   22.1202 H   0  0  0  0  0  0
  -19.6901  -25.6299   21.1235 H   0  0  0  0  0  0
  -19.6654  -27.3192   20.6737 H   0  0  0  0  0  0
  -17.4196  -26.6695   21.4047 H   0  0  0  0  0  0
  -18.0339  -26.0050   22.9020 H   0  0  0  0  0  0
  -19.7942  -30.7298   24.2238 H   0  0  0  0  0  0
  -17.5008  -31.6256   24.5174 H   0  0  0  0  0  0
  -15.5355  -30.2962   23.7637 H   0  0  0  0  0  0
  -15.8700  -28.0809   22.7025 H   0  0  0  0  0  0
  -24.5923  -30.7095   25.7806 H   0  0  0  0  0  0
  -24.9006  -32.2932   26.4863 H   0  0  0  0  0  0
  -25.8130  -30.8940   27.0207 H   0  0  0  0  0  0
  -26.2858  -29.6749   24.1160 H   0  0  0  0  0  0
  -27.4006  -29.7221   25.4606 H   0  0  0  0  0  0
  -27.8727  -30.4221   23.9301 H   0  0  0  0  0  0
  -27.2678  -33.3600   26.2043 H   0  0  0  0  0  0
  -28.3929  -32.6835   25.0355 H   0  0  0  0  0  0
  -28.0662  -31.8412   26.5442 H   0  0  0  0  0  0
  -28.2548  -38.0133   24.7550 H   0  0  0  0  0  0
  -28.1136  -36.2659   24.6192 H   0  0  0  0  0  0
  -27.2326  -37.1325   25.8868 H   0  0  0  0  0  0
  -20.9343  -29.8779   21.6915 H   0  0  0  0  0  0
  -26.0156  -38.2826   24.1478 H   0  0  0  0  0  0
  -31.0692  -20.9649   22.1165 H   0  0  0  0  0  0
  -27.5970  -26.1283   22.0940 H   0  0  0  0  0  0
  -28.0640  -21.9890   21.8487 H   0  0  0  0  0  0
  -29.3272  -15.7520   21.4505 H   0  0  0  0  0  0
  -27.4507  -24.5003   23.1346 H   0  0  0  0  0  0
  1 25  1  0  0  0
  1 30  2  0  0  0
  1 81  1  0  0  0
  2  3  1  0  0  0
  2 25  1  0  0  0
  2 89  1  0  0  0
  2 90  1  0  0  0
  3  4  1  0  0  0
  3 91  1  0  0  0
  3 92  1  0  0  0
  4  5  1  0  0  0
  4 93  1  0  0  0
  4 94  1  0  0  0
  5  6  1  0  0  0
  5 26  1  0  0  0
  5 95  1  0  0  0
  6 25  1  0  0  0
  6 96  1  0  0  0
  6 97  1  0  0  0
  7  8  2  0  0  0
  7 26  1  0  0  0
  7 29  1  0  0  0
  8  9  1  0  0  0
  8 22  1  0  0  0
  9 10  1  0  0  0
  9 27  2  0  0  0
 10 11  2  0  0  0
 10 15  1  0  0  0
 11 12  1  0  0  0
 11 98  1  0  0  0
 12 13  2  0  0  0
 12 99  1  0  0  0
 13 14  1  0  0  0
 13 31  1  0  0  0
 14 15  2  0  0  0
 14100  1  0  0  0
 15101  1  0  0  0
 16 17  2  0  0  0
 16 21  1  0  0  0
 16 31  1  0  0  0
 17 18  1  0  0  0
 17102  1  0  0  0
 18 19  2  0  0  0
 18103  1  0  0  0
 19 20  1  0  0  0
 19 24  1  0  0  0
 20 21  2  0  0  0
 20104  1  0  0  0
 21 23  1  0  0  0
 22 28  1  0  0  0
 22 32  2  0  0  0
 26 27  1  0  0  0
 28105  1  0  0  0
 28106  1  0  0  0
 29107  1  0  0  0
 29108  1  0  0  0
 33 34  1  0  0  0
 33 66  1  0  0  0
 33 70  2  0  0  0
 34 36  1  0  0  0
 34 59  1  0  0  0
 34109  1  0  0  0
 35 44  2  0  0  0
 35 45  1  0  0  0
 35 68  1  0  0  0
 36 56  1  0  0  0
 36110  1  0  0  0
 37 39  1  0  0  0
 37 47  1  0  0  0
 37 66  1  0  0  0
 37111  1  0  0  0
 38 43  2  0  0  0
 38 46  1  0  0  0
 38 47  1  0  0  0
 39 64  1  0  0  0
 39 67  2  0  0  0
 40 52  1  0  0  0
 40 53  2  0  0  0
 40 58  1  0  0  0
 41112  1  0  0  0
 41113  1  0  0  0
 41114  1  0  0  0
 41 48  1  0  0  0
 42 43  1  0  0  0
 42 66  1  0  0  0
 42115  1  0  0  0
 42116  1  0  0  0
 43 44  1  0  0  0
 44117  1  0  0  0
 45 46  2  0  0  0
 45118  1  0  0  0
 46119  1  0  0  0
 47120  1  0  0  0
 47121  1  0  0  0
 48 56  1  0  0  0
 48 65  1  0  0  0
 48122  1  0  0  0
 49 50  1  0  0  0
 49 53  1  0  0  0
 49 64  1  0  0  0
 49123  1  0  0  0
 50 51  1  0  0  0
 50124  1  0  0  0
 50125  1  0  0  0
 51 52  1  0  0  0
 51126  1  0  0  0
 51127  1  0  0  0
 52128  1  0  0  0
 52129  1  0  0  0
 53 54  1  0  0  0
 54 55  2  0  0  0
 54130  1  0  0  0
 55 57  1  0  0  0
 55131  1  0  0  0
 56 69  2  0  0  0
 57 58  2  0  0  0
 57132  1  0  0  0
 58133  1  0  0  0
 59 60  1  0  0  0
 59 61  1  0  0  0
 59 62  1  0  0  0
 60134  1  0  0  0
 60135  1  0  0  0
 60136  1  0  0  0
 61137  1  0  0  0
 61138  1  0  0  0
 61139  1  0  0  0
 62140  1  0  0  0
 62141  1  0  0  0
 62142  1  0  0  0
 63 65  1  0  0  0
 63143  1  0  0  0
 63144  1  0  0  0
 63145  1  0  0  0
 64146  1  0  0  0
 65147  1  0  0  0
 68 75  1  0  0  0
 71 72  1  0  0  0
 71 74  2  0  0  0
 71148  1  0  0  0
 72 73  2  0  0  0
 72 79  1  0  0  0
 73 76  1  0  0  0
 73 88  1  0  0  0
 74 80  1  0  0  0
 74 88  1  0  0  0
 75 77  2  0  0  0
 75149  1  0  0  0
 76 81  1  0  0  0
 76 82  2  0  0  0
 77 78  1  0  0  0
 77 84  1  0  0  0
 78 80  1  0  0  0
 78 83  2  0  0  0
 79 85  1  0  0  0
 79 86  1  0  0  0
 79 87  1  0  0  0
 80150  1  0  0  0
 81151  1  0  0  0
 84152  1  0  0  0
M  ISO  4   1 100  68 101  75 101  81 100
M  END
> <chiral flag>
0

> <version>
0

> <s_m_source_file>
/data/baiqing/PycharmProjects/Reinvent-master-3.2/result/LINK_invent/BTK/process_docking_weight1_custom_product_contain_oxygen_bond_distance_aromatic_linkinvent_7_9_3/rearranged_h_0178.sdf

> <i_m_source_file_index>
37

> <r_mmod_Potential_Energy-OPLS-2005>
-42.0252838134766

> <r_mmod_Stretch_Energy-OPLS-2005>
56.2458763122559

> <r_mmod_Bend_Energy-OPLS-2005>
163.055816650391

> <r_mmod_Torsional_Energy-OPLS-2005>
350.694122314453

> <r_mmod_Improper_Torsional_Energy-OPLS-2005>
8.52350997924805

> <r_mmod_Van_der_Waal_Energy-OPLS-2005>
129.049102783203

> <r_mmod_Electrostatic_Energy-OPLS-2005>
-553.655578613281

> <r_mmod_Solvation_Energy-OPLS-2005>
-243.529022216797

> <b_mmod_Minimization_Converged-OPLS-2005>
0

> <r_mmod_RMS_Derivative-OPLS-2005>
2.37467098236084

$$$$
37
                    3D
 Structure written by MMmdl.
155163  0  0  1  0            999 V2000
  -30.7102  -14.4232   20.5261 C   0  0  0  0  0  0
  -30.4199  -12.2477   19.4286 C   0  0  0  0  0  0
  -29.4889  -12.4100   18.2081 C   0  0  0  0  0  0
  -28.0020  -12.3477   18.6154 C   0  0  0  0  0  0
  -27.6596  -13.1951   19.8706 C   0  0  2  0  0  0
  -28.7016  -12.9759   20.9897 C   0  0  0  0  0  0
  -25.2566  -13.8135   20.5661 C   0  0  0  0  0  0
  -24.1812  -13.0428   20.9177 C   0  0  0  0  0  0
  -24.6351  -11.6885   20.8756 C   0  0  0  0  0  0
  -23.9021  -10.4273   21.0427 C   0  0  0  0  0  0
  -24.3579   -9.4189   21.9207 C   0  0  0  0  0  0
  -23.6259   -8.2227   22.0758 C   0  0  0  0  0  0
  -22.4250   -8.0268   21.3541 C   0  0  0  0  0  0
  -21.9874   -9.0242   20.4653 C   0  0  0  0  0  0
  -22.7190  -10.2128   20.3075 C   0  0  0  0  0  0
  -21.6837   -6.0721   22.5280 C   0  0  0  0  0  0
  -21.3997   -6.5626   23.8216 C   0  0  0  0  0  0
  -21.3670   -5.6783   24.9179 C   0  0  0  0  0  0
  -21.6050   -4.3051   24.7227 C   0  0  0  0  0  0
  -21.8814   -3.8137   23.4349 C   0  0  0  0  0  0
  -21.9176   -4.6947   22.3399 C   0  0  0  0  0  0
  -22.7841  -13.5255   21.1833 C   0  0  0  0  0  0
  -22.1654   -4.2132   21.0978 F   0  0  0  0  0  0
  -21.5636   -3.4534   25.7748 F   0  0  0  0  0  0
  -30.0368  -13.2490   20.4337 N   0  0  0  0  0  0
  -26.2998  -12.9286   20.3374 N   0  0  0  0  0  0
  -25.9280  -11.6460   20.5824 N   0  0  0  0  0  0
  -22.0465  -12.8282   22.0394 N   0  0  0  0  0  0
  -25.4291  -15.1855   20.4042 N   0  0  0  0  0  0
  -31.8570  -14.5883   20.1053 O   0  0  0  0  0  0
  -21.6616   -6.8865   21.4246 O   0  0  0  0  0  0
  -22.3549  -14.5558   20.6666 O   0  0  0  0  0  0
  -24.6094  -31.8712   23.2121 C   0  0  0  0  0  0
  -25.9005  -32.4844   23.8402 C   0  0  1  0  0  0
  -27.2458  -27.4847   20.0682 C   0  0  0  0  0  0
  -25.5858  -33.8639   24.2328 N   0  0  0  0  0  0
  -23.3958  -30.4942   21.5513 C   0  0  2  0  0  0
  -24.8435  -28.9632   20.1147 C   0  0  0  0  0  0
  -22.7380  -29.4670   22.4992 C   0  0  0  0  0  0
  -18.0266  -28.1377   22.8494 C   0  0  0  0  0  0
  -24.1480  -36.7329   23.2638 C   0  0  0  0  0  0
  -25.9198  -30.8470   21.3600 C   0  0  0  0  0  0
  -25.9985  -29.4818   20.7130 C   0  0  0  0  0  0
  -27.1970  -28.7405   20.7040 C   0  0  0  0  0  0
  -26.0714  -26.9594   19.4851 C   0  0  0  0  0  0
  -24.8701  -27.6953   19.5051 C   0  0  0  0  0  0
  -23.6033  -29.8253   20.1655 C   0  0  0  0  0  0
  -25.4097  -36.3128   24.0342 C   0  0  1  0  0  0
  -20.5851  -28.3654   23.1326 C   0  0  2  0  0  0
  -20.6757  -26.9396   22.5418 C   0  0  0  0  0  0
  -19.5738  -26.6394   21.5208 C   0  0  0  0  0  0
  -18.1917  -26.7924   22.1626 C   0  0  0  0  0  0
  -19.1517  -28.8827   23.2915 C   0  0  0  0  0  0
  -18.9455  -30.1433   23.8926 C   0  0  0  0  0  0
  -17.6463  -30.6590   24.0566 C   0  0  0  0  0  0
  -25.9017  -34.9491   23.5137 C   0  0  0  0  0  0
  -16.5348  -29.9100   23.6325 C   0  0  0  0  0  0
  -16.7256  -28.6514   23.0343 C   0  0  0  0  0  0
  -26.4460  -31.6606   25.0706 C   0  0  0  0  0  0
  -25.3756  -31.3701   26.1478 C   0  0  0  0  0  0
  -27.0273  -30.3057   24.6036 C   0  0  0  0  0  0
  -27.6044  -32.4327   25.7447 C   0  0  0  0  0  0
  -27.5577  -37.1812   24.8468 C   0  0  0  0  0  0
  -21.4112  -29.3032   22.3739 N   0  0  0  0  0  0
  -26.4285  -37.3808   23.9413 N   0  0  0  0  0  0
  -24.6601  -31.0842   22.1009 N   0  0  0  0  0  0
  -23.4161  -28.8216   23.3031 O   0  0  0  0  0  0
  -28.4285  -26.7882   20.0647 O   0  0  0  0  0  0
  -26.5605  -34.8936   22.4713 O   0  0  0  0  0  0
  -23.5299  -32.1455   23.7537 O   0  0  0  0  0  0
  -30.2058  -17.2068   19.1760 C   0  0  0  0  0  0
  -30.1464  -16.7388   20.4833 C   0  0  0  0  0  0
  -30.3810  -19.1898   20.2867 C   0  0  0  0  0  0
  -30.3962  -22.9596   20.1023 C   0  0  0  0  0  0
  -30.2312  -21.5423   19.5190 C   0  0  0  0  0  0
  -29.3477  -23.9922   19.6856 C   0  0  0  0  0  0
  -29.9583  -25.2578   19.0534 C   0  0  0  0  0  0
  -28.8970  -26.3318   18.8001 C   0  0  0  0  0  0
  -30.0544  -16.4502   17.8695 C   0  0  0  0  0  0
  -30.3877  -18.5926   19.0989 N   0  0  0  0  0  0
  -29.9767  -15.4660   20.9371 N   0  0  0  0  0  0
  -30.4614  -20.5929   20.4429 N   0  0  0  0  0  0
  -31.3102  -23.2533   20.8823 O   0  0  0  0  0  0
  -29.9056  -21.3565   18.3389 O   0  0  0  0  0  0
  -29.0214  -15.6133   17.9228 F   0  0  0  0  0  0
  -29.8213  -17.2715   16.8434 F   0  0  0  0  0  0
  -31.1459  -15.7502   17.5648 F   0  0  0  0  0  0
  -30.2512  -18.0634   21.6260 S   0  0  0  0  0  0
  -31.4622  -12.3420   19.1162 H   0  0  0  0  0  0
  -30.3276  -11.2472   19.8539 H   0  0  0  0  0  0
  -29.6909  -11.6185   17.4836 H   0  0  0  0  0  0
  -29.7025  -13.3397   17.6871 H   0  0  0  0  0  0
  -27.7642  -11.3010   18.8080 H   0  0  0  0  0  0
  -27.3697  -12.6467   17.7781 H   0  0  0  0  0  0
  -27.7030  -14.2402   19.5711 H   0  0  0  0  0  0
  -28.6611  -11.9457   21.3476 H   0  0  0  0  0  0
  -28.4812  -13.5954   21.8605 H   0  0  0  0  0  0
  -25.2726   -9.5653   22.4776 H   0  0  0  0  0  0
  -23.9964   -7.4604   22.7464 H   0  0  0  0  0  0
  -21.0808   -8.8753   19.8955 H   0  0  0  0  0  0
  -22.3644  -10.9672   19.6185 H   0  0  0  0  0  0
  -21.1989   -7.6141   23.9717 H   0  0  0  0  0  0
  -21.1510   -6.0517   25.9085 H   0  0  0  0  0  0
  -22.0580   -2.7593   23.2860 H   0  0  0  0  0  0
  -22.4068  -11.9943   22.4799 H   0  0  0  0  0  0
  -21.1099  -13.1353   22.2610 H   0  0  0  0  0  0
  -24.6501  -15.8320   20.4690 H   0  0  0  0  0  0
  -26.2818  -15.6196   20.0726 H   0  0  0  0  0  0
  -26.7069  -32.5582   23.1165 H   0  0  0  0  0  0
  -24.9972  -33.9803   25.0439 H   0  0  0  0  0  0
  -22.6835  -31.3103   21.4130 H   0  0  0  0  0  0
  -23.3739  -35.9673   23.3330 H   0  0  0  0  0  0
  -24.3562  -36.8916   22.2049 H   0  0  0  0  0  0
  -23.7244  -37.6542   23.6636 H   0  0  0  0  0  0
  -26.0218  -31.6102   20.5867 H   0  0  0  0  0  0
  -26.8117  -30.9068   21.9709 H   0  0  0  0  0  0
  -28.0904  -29.1395   21.1637 H   0  0  0  0  0  0
  -26.0769  -25.9837   19.0222 H   0  0  0  0  0  0
  -23.9787  -27.2845   19.0499 H   0  0  0  0  0  0
  -23.7086  -30.6013   19.4064 H   0  0  0  0  0  0
  -22.7293  -29.2424   19.8694 H   0  0  0  0  0  0
  -25.1272  -36.1998   25.0837 H   0  0  0  0  0  0
  -20.9946  -28.3227   24.1441 H   0  0  0  0  0  0
  -20.5641  -26.2272   23.3606 H   0  0  0  0  0  0
  -21.6637  -26.7432   22.1227 H   0  0  0  0  0  0
  -19.6906  -25.6314   21.1218 H   0  0  0  0  0  0
  -19.6677  -27.3224   20.6757 H   0  0  0  0  0  0
  -17.4184  -26.6661   21.4035 H   0  0  0  0  0  0
  -18.0324  -26.0054   22.9014 H   0  0  0  0  0  0
  -19.7931  -30.7237   24.2310 H   0  0  0  0  0  0
  -17.5020  -31.6265   24.5176 H   0  0  0  0  0  0
  -15.5351  -30.3017   23.7624 H   0  0  0  0  0  0
  -15.8654  -28.0845   22.7037 H   0  0  0  0  0  0
  -24.5891  -30.7091   25.7819 H   0  0  0  0  0  0
  -24.9002  -32.2865   26.4994 H   0  0  0  0  0  0
  -25.8135  -30.8813   27.0189 H   0  0  0  0  0  0
  -26.2781  -29.6820   24.1149 H   0  0  0  0  0  0
  -27.4123  -29.7287   25.4449 H   0  0  0  0  0  0
  -27.8584  -30.4393   23.9109 H   0  0  0  0  0  0
  -27.2655  -33.3594   26.2099 H   0  0  0  0  0  0
  -28.3802  -32.6955   25.0239 H   0  0  0  0  0  0
  -28.0781  -31.8420   26.5300 H   0  0  0  0  0  0
  -28.2619  -38.0085   24.7499 H   0  0  0  0  0  0
  -28.1044  -36.2621   24.6309 H   0  0  0  0  0  0
  -27.2297  -37.1486   25.8870 H   0  0  0  0  0  0
  -20.9258  -29.8763   21.6979 H   0  0  0  0  0  0
  -26.0188  -38.2891   24.1410 H   0  0  0  0  0  0
  -28.7819  -24.2607   20.5773 H   0  0  0  0  0  0
  -28.6379  -23.5406   18.9918 H   0  0  0  0  0  0
  -30.4285  -24.9933   18.1054 H   0  0  0  0  0  0
  -30.7475  -25.6684   19.6846 H   0  0  0  0  0  0
  -28.1119  -25.9222   18.1658 H   0  0  0  0  0  0
  -29.3345  -27.1752   18.2631 H   0  0  0  0  0  0
  -29.1210  -15.2623   21.4325 H   0  0  0  0  0  0
  -30.6710  -20.9322   21.3711 H   0  0  0  0  0  0
  1 25  1  0  0  0
  1 30  2  0  0  0
  1 81  1  0  0  0
  2  3  1  0  0  0
  2 25  1  0  0  0
  2 89  1  0  0  0
  2 90  1  0  0  0
  3  4  1  0  0  0
  3 91  1  0  0  0
  3 92  1  0  0  0
  4  5  1  0  0  0
  4 93  1  0  0  0
  4 94  1  0  0  0
  5  6  1  0  0  0
  5 26  1  0  0  0
  5 95  1  0  0  0
  6 25  1  0  0  0
  6 96  1  0  0  0
  6 97  1  0  0  0
  7  8  2  0  0  0
  7 26  1  0  0  0
  7 29  1  0  0  0
  8  9  1  0  0  0
  8 22  1  0  0  0
  9 10  1  0  0  0
  9 27  2  0  0  0
 10 11  2  0  0  0
 10 15  1  0  0  0
 11 12  1  0  0  0
 11 98  1  0  0  0
 12 13  2  0  0  0
 12 99  1  0  0  0
 13 14  1  0  0  0
 13 31  1  0  0  0
 14 15  2  0  0  0
 14100  1  0  0  0
 15101  1  0  0  0
 16 17  2  0  0  0
 16 21  1  0  0  0
 16 31  1  0  0  0
 17 18  1  0  0  0
 17102  1  0  0  0
 18 19  2  0  0  0
 18103  1  0  0  0
 19 20  1  0  0  0
 19 24  1  0  0  0
 20 21  2  0  0  0
 20104  1  0  0  0
 21 23  1  0  0  0
 22 28  1  0  0  0
 22 32  2  0  0  0
 26 27  1  0  0  0
 28105  1  0  0  0
 28106  1  0  0  0
 29107  1  0  0  0
 29108  1  0  0  0
 33 34  1  0  0  0
 33 66  1  0  0  0
 33 70  2  0  0  0
 34 36  1  0  0  0
 34 59  1  0  0  0
 34109  1  0  0  0
 35 44  2  0  0  0
 35 45  1  0  0  0
 35 68  1  0  0  0
 36 56  1  0  0  0
 36110  1  0  0  0
 37 39  1  0  0  0
 37 47  1  0  0  0
 37 66  1  0  0  0
 37111  1  0  0  0
 38 43  2  0  0  0
 38 46  1  0  0  0
 38 47  1  0  0  0
 39 64  1  0  0  0
 39 67  2  0  0  0
 40 52  1  0  0  0
 40 53  2  0  0  0
 40 58  1  0  0  0
 41112  1  0  0  0
 41113  1  0  0  0
 41114  1  0  0  0
 41 48  1  0  0  0
 42 43  1  0  0  0
 42 66  1  0  0  0
 42115  1  0  0  0
 42116  1  0  0  0
 43 44  1  0  0  0
 44117  1  0  0  0
 45 46  2  0  0  0
 45118  1  0  0  0
 46119  1  0  0  0
 47120  1  0  0  0
 47121  1  0  0  0
 48 56  1  0  0  0
 48 65  1  0  0  0
 48122  1  0  0  0
 49 50  1  0  0  0
 49 53  1  0  0  0
 49 64  1  0  0  0
 49123  1  0  0  0
 50 51  1  0  0  0
 50124  1  0  0  0
 50125  1  0  0  0
 51 52  1  0  0  0
 51126  1  0  0  0
 51127  1  0  0  0
 52128  1  0  0  0
 52129  1  0  0  0
 53 54  1  0  0  0
 54 55  2  0  0  0
 54130  1  0  0  0
 55 57  1  0  0  0
 55131  1  0  0  0
 56 69  2  0  0  0
 57 58  2  0  0  0
 57132  1  0  0  0
 58133  1  0  0  0
 59 60  1  0  0  0
 59 61  1  0  0  0
 59 62  1  0  0  0
 60134  1  0  0  0
 60135  1  0  0  0
 60136  1  0  0  0
 61137  1  0  0  0
 61138  1  0  0  0
 61139  1  0  0  0
 62140  1  0  0  0
 62141  1  0  0  0
 62142  1  0  0  0
 63 65  1  0  0  0
 63143  1  0  0  0
 63144  1  0  0  0
 63145  1  0  0  0
 64146  1  0  0  0
 65147  1  0  0  0
 68 78  1  0  0  0
 71 72  2  0  0  0
 71 79  1  0  0  0
 71 80  1  0  0  0
 72 81  1  0  0  0
 72 88  1  0  0  0
 73 80  2  0  0  0
 73 82  1  0  0  0
 73 88  1  0  0  0
 74 75  1  0  0  0
 74 76  1  0  0  0
 74 83  2  0  0  0
 75 82  1  0  0  0
 75 84  2  0  0  0
 76 77  1  0  0  0
 76148  1  0  0  0
 76149  1  0  0  0
 77 78  1  0  0  0
 77150  1  0  0  0
 77151  1  0  0  0
 78152  1  0  0  0
 78153  1  0  0  0
 79 85  1  0  0  0
 79 86  1  0  0  0
 79 87  1  0  0  0
 81154  1  0  0  0
 82155  1  0  0  0
M  ISO  4   1 100  68 101  78 101  81 100
M  END
> <chiral flag>
0

> <version>
0

> <s_m_source_file>
/data/baiqing/PycharmProjects/Reinvent-master-3.2/result/LINK_invent/BTK/process_docking_weight1_custom_product_contain_oxygen_bond_distance_aromatic_linkinvent_7_9_3/rearranged_h_0178.sdf

> <i_m_source_file_index>
38

> <r_mmod_Potential_Energy-OPLS-2005>
-10.7672052383423

> <r_mmod_Stretch_Energy-OPLS-2005>
31.9517974853516

> <r_mmod_Bend_Energy-OPLS-2005>
95.5700378417969

> <r_mmod_Torsional_Energy-OPLS-2005>
268.018768310547

> <r_mmod_Improper_Torsional_Energy-OPLS-2005>
5.05618000030518

> <r_mmod_Van_der_Waal_Energy-OPLS-2005>
131.960235595703

> <r_mmod_Electrostatic_Energy-OPLS-2005>
-316.057800292969

> <r_mmod_Solvation_Energy-OPLS-2005>
-240.161682128906

> <b_mmod_Minimization_Converged-OPLS-2005>
0

> <r_mmod_RMS_Derivative-OPLS-2005>
2.81598973274231

$$$$
38
                    3D
 Structure written by MMmdl.
161169  0  0  1  0            999 V2000
  -30.6726  -14.5209   20.5604 C   0  0  0  0  0  0
  -30.4331  -12.3304   19.4368 C   0  0  0  0  0  0
  -29.5043  -12.5055   18.2160 C   0  0  0  0  0  0
  -28.0240  -12.3619   18.6210 C   0  0  0  0  0  0
  -27.6630  -13.2023   19.8732 C   0  0  2  0  0  0
  -28.7028  -13.0008   20.9997 C   0  0  0  0  0  0
  -25.2627  -13.8120   20.5694 C   0  0  0  0  0  0
  -24.1860  -13.0419   20.9183 C   0  0  0  0  0  0
  -24.6392  -11.6878   20.8721 C   0  0  0  0  0  0
  -23.9043  -10.4277   21.0389 C   0  0  0  0  0  0
  -24.3585   -9.4196   21.9178 C   0  0  0  0  0  0
  -23.6258   -8.2229   22.0748 C   0  0  0  0  0  0
  -22.4242   -8.0266   21.3535 C   0  0  0  0  0  0
  -21.9878   -9.0240   20.4646 C   0  0  0  0  0  0
  -22.7210  -10.2115   20.3044 C   0  0  0  0  0  0
  -21.6842   -6.0720   22.5287 C   0  0  0  0  0  0
  -21.4012   -6.5630   23.8216 C   0  0  0  0  0  0
  -21.3653   -5.6792   24.9184 C   0  0  0  0  0  0
  -21.6034   -4.3054   24.7233 C   0  0  0  0  0  0
  -21.8819   -3.8139   23.4361 C   0  0  0  0  0  0
  -21.9193   -4.6952   22.3416 C   0  0  0  0  0  0
  -22.7891  -13.5252   21.1849 C   0  0  0  0  0  0
  -22.1665   -4.2144   21.0990 F   0  0  0  0  0  0
  -21.5610   -3.4536   25.7746 F   0  0  0  0  0  0
  -30.0342  -13.3190   20.4569 N   0  0  0  0  0  0
  -26.3040  -12.9281   20.3341 N   0  0  0  0  0  0
  -25.9324  -11.6446   20.5747 N   0  0  0  0  0  0
  -22.0490  -12.8255   22.0378 N   0  0  0  0  0  0
  -25.4405  -15.1823   20.4109 N   0  0  0  0  0  0
  -31.7778  -14.7264   20.0485 O   0  0  0  0  0  0
  -21.6607   -6.8862   21.4244 O   0  0  0  0  0  0
  -22.3611  -14.5571   20.6698 O   0  0  0  0  0  0
  -24.6219  -31.8654   23.2090 C   0  0  0  0  0  0
  -25.9105  -32.4798   23.8372 C   0  0  1  0  0  0
  -27.2132  -27.3652   20.0959 C   0  0  0  0  0  0
  -25.5955  -33.8593   24.2316 N   0  0  0  0  0  0
  -23.4105  -30.4945   21.5520 C   0  0  2  0  0  0
  -24.8529  -28.9661   20.1075 C   0  0  0  0  0  0
  -22.7455  -29.4647   22.4960 C   0  0  0  0  0  0
  -18.0284  -28.1378   22.8486 C   0  0  0  0  0  0
  -24.1493  -36.7285   23.2636 C   0  0  0  0  0  0
  -25.9493  -30.8086   21.3762 C   0  0  0  0  0  0
  -26.0208  -29.4420   20.7161 C   0  0  0  0  0  0
  -27.2024  -28.6484   20.7124 C   0  0  0  0  0  0
  -26.0243  -26.9512   19.4413 C   0  0  0  0  0  0
  -24.8538  -27.7228   19.4642 C   0  0  0  0  0  0
  -23.6196  -29.8387   20.1634 C   0  0  0  0  0  0
  -25.4116  -36.3084   24.0333 C   0  0  1  0  0  0
  -20.5883  -28.3676   23.1292 C   0  0  2  0  0  0
  -20.6771  -26.9408   22.5409 C   0  0  0  0  0  0
  -19.5746  -26.6381   21.5208 C   0  0  0  0  0  0
  -18.1925  -26.7921   22.1617 C   0  0  0  0  0  0
  -19.1537  -28.8842   23.2877 C   0  0  0  0  0  0
  -18.9465  -30.1450   23.8888 C   0  0  0  0  0  0
  -17.6465  -30.6581   24.0559 C   0  0  0  0  0  0
  -25.9055  -34.9461   23.5112 C   0  0  0  0  0  0
  -16.5354  -29.9084   23.6326 C   0  0  0  0  0  0
  -16.7271  -28.6497   23.0352 C   0  0  0  0  0  0
  -26.4513  -31.6578   25.0713 C   0  0  0  0  0  0
  -25.3751  -31.3703   26.1438 C   0  0  0  0  0  0
  -27.0334  -30.2999   24.6125 C   0  0  0  0  0  0
  -27.6082  -32.4297   25.7487 C   0  0  0  0  0  0
  -27.5576  -37.1804   24.8469 C   0  0  0  0  0  0
  -21.4179  -29.3030   22.3691 N   0  0  0  0  0  0
  -26.4290  -37.3782   23.9408 N   0  0  0  0  0  0
  -24.6789  -31.0705   22.1028 N   0  0  0  0  0  0
  -23.4203  -28.8183   23.3013 O   0  0  0  0  0  0
  -28.3309  -26.5252   20.1584 O   0  0  0  0  0  0
  -26.5611  -34.8918   22.4669 O   0  0  0  0  0  0
  -23.5399  -32.1447   23.7451 O   0  0  0  0  0  0
  -28.3602  -17.8500   19.1769 C   0  0  0  0  0  0
  -28.8453  -18.7166   20.1285 C   0  0  0  0  0  0
  -29.5631  -16.6909   20.5470 C   0  0  0  0  0  0
  -30.6610  -21.2797   19.8459 C   0  0  0  0  0  0
  -28.9932  -24.0273   20.4017 C   0  0  0  0  0  0
  -31.8622  -20.7666   20.6258 C   0  0  0  0  0  0
  -26.0105  -18.3757   18.3630 C   0  0  0  0  0  0
  -27.4626  -18.0385   17.9945 C   0  0  0  0  0  0
  -28.4627  -22.5709   20.2051 C   0  0  0  0  0  0
  -28.0903  -25.1308   19.7778 C   0  0  0  0  0  0
  -29.3054  -21.2857   20.5700 C   0  0  1  0  0  0
  -29.6214  -17.9583   21.0184 N   0  0  0  0  0  0
  -28.5098  -20.0967   20.1947 N   0  0  0  0  0  0
  -30.0041  -15.5045   21.2020 N   0  0  0  0  0  0
  -30.7878  -21.6047   18.6630 O   0  0  0  0  0  0
  -30.0310  -24.2814   21.0224 O   0  0  0  0  0  0
  -28.7983  -16.5794   19.4301 O   0  0  0  0  0  0
  -31.4766  -12.4394   19.1330 H   0  0  0  0  0  0
  -30.3467  -11.3208   19.8422 H   0  0  0  0  0  0
  -29.7551  -11.7723   17.4483 H   0  0  0  0  0  0
  -29.6701  -13.4849   17.7652 H   0  0  0  0  0  0
  -27.8322  -11.3061   18.8134 H   0  0  0  0  0  0
  -27.3801  -12.6381   17.7852 H   0  0  0  0  0  0
  -27.7011  -14.2454   19.5626 H   0  0  0  0  0  0
  -28.6926  -11.9668   21.3483 H   0  0  0  0  0  0
  -28.4483  -13.6040   21.8716 H   0  0  0  0  0  0
  -25.2725   -9.5667   22.4765 H   0  0  0  0  0  0
  -23.9953   -7.4619   22.7470 H   0  0  0  0  0  0
  -21.0799   -8.8758   19.8974 H   0  0  0  0  0  0
  -22.3661  -10.9634   19.6140 H   0  0  0  0  0  0
  -21.2008   -7.6146   23.9717 H   0  0  0  0  0  0
  -21.1477   -6.0525   25.9086 H   0  0  0  0  0  0
  -22.0608   -2.7608   23.2861 H   0  0  0  0  0  0
  -22.4041  -11.9899   22.4776 H   0  0  0  0  0  0
  -21.1123  -13.1338   22.2558 H   0  0  0  0  0  0
  -24.6741  -15.8387   20.5146 H   0  0  0  0  0  0
  -26.2814  -15.6075   20.0427 H   0  0  0  0  0  0
  -26.7166  -32.5483   23.1112 H   0  0  0  0  0  0
  -25.0125  -33.9745   25.0476 H   0  0  0  0  0  0
  -22.6991  -31.3126   21.4184 H   0  0  0  0  0  0
  -23.3749  -35.9624   23.3319 H   0  0  0  0  0  0
  -24.3580  -36.8878   22.2046 H   0  0  0  0  0  0
  -23.7264  -37.6502   23.6635 H   0  0  0  0  0  0
  -26.0765  -31.5752   20.6103 H   0  0  0  0  0  0
  -26.8323  -30.8525   22.0019 H   0  0  0  0  0  0
  -28.0931  -29.0061   21.2089 H   0  0  0  0  0  0
  -25.9521  -26.0221   18.8964 H   0  0  0  0  0  0
  -23.9628  -27.3580   18.9705 H   0  0  0  0  0  0
  -23.7335  -30.6186   19.4096 H   0  0  0  0  0  0
  -22.7396  -29.2668   19.8616 H   0  0  0  0  0  0
  -25.1299  -36.1931   25.0828 H   0  0  0  0  0  0
  -20.9972  -28.3255   24.1415 H   0  0  0  0  0  0
  -20.5675  -26.2298   23.3610 H   0  0  0  0  0  0
  -21.6646  -26.7436   22.1218 H   0  0  0  0  0  0
  -19.6911  -25.6293   21.1240 H   0  0  0  0  0  0
  -19.6679  -27.3193   20.6741 H   0  0  0  0  0  0
  -17.4204  -26.6678   21.4007 H   0  0  0  0  0  0
  -18.0309  -26.0061   22.9010 H   0  0  0  0  0  0
  -19.7945  -30.7267   24.2248 H   0  0  0  0  0  0
  -17.5023  -31.6258   24.5173 H   0  0  0  0  0  0
  -15.5354  -30.2980   23.7647 H   0  0  0  0  0  0
  -15.8675  -28.0807   22.7069 H   0  0  0  0  0  0
  -24.5968  -30.6998   25.7779 H   0  0  0  0  0  0
  -24.8885  -32.2854   26.4812 H   0  0  0  0  0  0
  -25.8093  -30.8939   27.0233 H   0  0  0  0  0  0
  -26.2885  -29.6765   24.1161 H   0  0  0  0  0  0
  -27.4057  -29.7234   25.4603 H   0  0  0  0  0  0
  -27.8753  -30.4279   23.9316 H   0  0  0  0  0  0
  -27.2707  -33.3602   26.2057 H   0  0  0  0  0  0
  -28.3902  -32.6840   25.0323 H   0  0  0  0  0  0
  -28.0733  -31.8416   26.5406 H   0  0  0  0  0  0
  -28.2612  -38.0085   24.7494 H   0  0  0  0  0  0
  -28.1050  -36.2611   24.6313 H   0  0  0  0  0  0
  -27.2285  -37.1495   25.8872 H   0  0  0  0  0  0
  -20.9359  -29.8745   21.6899 H   0  0  0  0  0  0
  -26.0164  -38.2856   24.1393 H   0  0  0  0  0  0
  -31.8737  -21.1908   21.6295 H   0  0  0  0  0  0
  -32.7908  -21.0342   20.1216 H   0  0  0  0  0  0
  -31.8150  -19.6815   20.7106 H   0  0  0  0  0  0
  -25.3954  -18.4692   17.4677 H   0  0  0  0  0  0
  -25.9407  -19.3201   18.9032 H   0  0  0  0  0  0
  -25.5644  -17.6043   18.9901 H   0  0  0  0  0  0
  -27.4684  -17.1304   17.3878 H   0  0  0  0  0  0
  -27.8691  -18.8264   17.3600 H   0  0  0  0  0  0
  -28.1702  -22.5011   19.1567 H   0  0  0  0  0  0
  -27.5277  -22.5246   20.7651 H   0  0  0  0  0  0
  -27.0936  -24.8278   20.0948 H   0  0  0  0  0  0
  -28.1261  -25.0473   18.6910 H   0  0  0  0  0  0
  -29.4777  -21.2633   21.6468 H   0  0  0  0  0  0
  -27.8060  -20.3277   19.5041 H   0  0  0  0  0  0
  -29.3006  -15.1307   21.8170 H   0  0  0  0  0  0
  1 25  1  0  0  0
  1 30  2  0  0  0
  1 84  1  0  0  0
  2  3  1  0  0  0
  2 25  1  0  0  0
  2 88  1  0  0  0
  2 89  1  0  0  0
  3  4  1  0  0  0
  3 90  1  0  0  0
  3 91  1  0  0  0
  4  5  1  0  0  0
  4 92  1  0  0  0
  4 93  1  0  0  0
  5  6  1  0  0  0
  5 26  1  0  0  0
  5 94  1  0  0  0
  6 25  1  0  0  0
  6 95  1  0  0  0
  6 96  1  0  0  0
  7  8  2  0  0  0
  7 26  1  0  0  0
  7 29  1  0  0  0
  8  9  1  0  0  0
  8 22  1  0  0  0
  9 10  1  0  0  0
  9 27  2  0  0  0
 10 11  2  0  0  0
 10 15  1  0  0  0
 11 12  1  0  0  0
 11 97  1  0  0  0
 12 13  2  0  0  0
 12 98  1  0  0  0
 13 14  1  0  0  0
 13 31  1  0  0  0
 14 15  2  0  0  0
 14 99  1  0  0  0
 15100  1  0  0  0
 16 17  2  0  0  0
 16 21  1  0  0  0
 16 31  1  0  0  0
 17 18  1  0  0  0
 17101  1  0  0  0
 18 19  2  0  0  0
 18102  1  0  0  0
 19 20  1  0  0  0
 19 24  1  0  0  0
 20 21  2  0  0  0
 20103  1  0  0  0
 21 23  1  0  0  0
 22 28  1  0  0  0
 22 32  2  0  0  0
 26 27  1  0  0  0
 28104  1  0  0  0
 28105  1  0  0  0
 29106  1  0  0  0
 29107  1  0  0  0
 33 34  1  0  0  0
 33 66  1  0  0  0
 33 70  2  0  0  0
 34 36  1  0  0  0
 34 59  1  0  0  0
 34108  1  0  0  0
 35 44  2  0  0  0
 35 45  1  0  0  0
 35 68  1  0  0  0
 36 56  1  0  0  0
 36109  1  0  0  0
 37 39  1  0  0  0
 37 47  1  0  0  0
 37 66  1  0  0  0
 37110  1  0  0  0
 38 43  2  0  0  0
 38 46  1  0  0  0
 38 47  1  0  0  0
 39 64  1  0  0  0
 39 67  2  0  0  0
 40 52  1  0  0  0
 40 53  2  0  0  0
 40 58  1  0  0  0
 41111  1  0  0  0
 41112  1  0  0  0
 41113  1  0  0  0
 41 48  1  0  0  0
 42 43  1  0  0  0
 42 66  1  0  0  0
 42114  1  0  0  0
 42115  1  0  0  0
 43 44  1  0  0  0
 44116  1  0  0  0
 45 46  2  0  0  0
 45117  1  0  0  0
 46118  1  0  0  0
 47119  1  0  0  0
 47120  1  0  0  0
 48 56  1  0  0  0
 48 65  1  0  0  0
 48121  1  0  0  0
 49 50  1  0  0  0
 49 53  1  0  0  0
 49 64  1  0  0  0
 49122  1  0  0  0
 50 51  1  0  0  0
 50123  1  0  0  0
 50124  1  0  0  0
 51 52  1  0  0  0
 51125  1  0  0  0
 51126  1  0  0  0
 52127  1  0  0  0
 52128  1  0  0  0
 53 54  1  0  0  0
 54 55  2  0  0  0
 54129  1  0  0  0
 55 57  1  0  0  0
 55130  1  0  0  0
 56 69  2  0  0  0
 57 58  2  0  0  0
 57131  1  0  0  0
 58132  1  0  0  0
 59 60  1  0  0  0
 59 61  1  0  0  0
 59 62  1  0  0  0
 60133  1  0  0  0
 60134  1  0  0  0
 60135  1  0  0  0
 61136  1  0  0  0
 61137  1  0  0  0
 61138  1  0  0  0
 62139  1  0  0  0
 62140  1  0  0  0
 62141  1  0  0  0
 63 65  1  0  0  0
 63142  1  0  0  0
 63143  1  0  0  0
 63144  1  0  0  0
 64145  1  0  0  0
 65146  1  0  0  0
 68 80  1  0  0  0
 71 72  2  0  0  0
 71 78  1  0  0  0
 71 87  1  0  0  0
 72 82  1  0  0  0
 72 83  1  0  0  0
 73 82  2  0  0  0
 73 84  1  0  0  0
 73 87  1  0  0  0
 74 76  1  0  0  0
 74 81  1  0  0  0
 74 85  2  0  0  0
 75 79  1  0  0  0
 75 80  1  0  0  0
 75 86  2  0  0  0
 76147  1  0  0  0
 76148  1  0  0  0
 76149  1  0  0  0
 77 78  1  0  0  0
 77150  1  0  0  0
 77151  1  0  0  0
 77152  1  0  0  0
 78153  1  0  0  0
 78154  1  0  0  0
 79155  1  0  0  0
 79156  1  0  0  0
 79 81  1  0  0  0
 80157  1  0  0  0
 80158  1  0  0  0
 81 83  1  0  0  0
 81159  1  0  0  0
 83160  1  0  0  0
 84161  1  0  0  0
M  ISO  4   1 100  68 101  80 101  84 100
M  END
> <chiral flag>
0

> <version>
0

> <s_m_source_file>
/data/baiqing/PycharmProjects/Reinvent-master-3.2/result/LINK_invent/BTK/process_docking_weight1_custom_product_contain_oxygen_bond_distance_aromatic_linkinvent_7_9_3/rearranged_h_0178.sdf

> <i_m_source_file_index>
39

> <r_mmod_Potential_Energy-OPLS-2005>
-162.079437255859

> <r_mmod_Stretch_Energy-OPLS-2005>
50.0274353027344

> <r_mmod_Bend_Energy-OPLS-2005>
149.316604614258

> <r_mmod_Torsional_Energy-OPLS-2005>
239.75732421875

> <r_mmod_Improper_Torsional_Energy-OPLS-2005>
10.3448534011841

> <r_mmod_Van_der_Waal_Energy-OPLS-2005>
117.57307434082

> <r_mmod_Electrostatic_Energy-OPLS-2005>
-501.147155761719

> <r_mmod_Solvation_Energy-OPLS-2005>
-254.707977294922

> <b_mmod_Minimization_Converged-OPLS-2005>
0

> <r_mmod_RMS_Derivative-OPLS-2005>
2.04714894294739

$$$$
39
                    3D
 Structure written by MMmdl.
154162  0  0  1  0            999 V2000
  -30.6967  -14.4971   20.5790 C   0  0  0  0  0  0
  -30.4241  -12.3203   19.4410 C   0  0  0  0  0  0
  -29.4985  -12.5090   18.2208 C   0  0  0  0  0  0
  -28.0197  -12.3617   18.6288 C   0  0  0  0  0  0
  -27.6615  -13.2085   19.8792 C   0  0  2  0  0  0
  -28.7006  -13.0004   21.0053 C   0  0  0  0  0  0
  -25.2583  -13.8168   20.5703 C   0  0  0  0  0  0
  -24.1831  -13.0448   20.9202 C   0  0  0  0  0  0
  -24.6388  -11.6915   20.8753 C   0  0  0  0  0  0
  -23.9061  -10.4305   21.0406 C   0  0  0  0  0  0
  -24.3615   -9.4224   21.9181 C   0  0  0  0  0  0
  -23.6306   -8.2249   22.0746 C   0  0  0  0  0  0
  -22.4282   -8.0289   21.3542 C   0  0  0  0  0  0
  -21.9916   -9.0257   20.4636 C   0  0  0  0  0  0
  -22.7236  -10.2145   20.3057 C   0  0  0  0  0  0
  -21.6853   -6.0754   22.5291 C   0  0  0  0  0  0
  -21.4003   -6.5652   23.8226 C   0  0  0  0  0  0
  -21.3666   -5.6800   24.9185 C   0  0  0  0  0  0
  -21.6048   -4.3065   24.7229 C   0  0  0  0  0  0
  -21.8818   -3.8164   23.4350 C   0  0  0  0  0  0
  -21.9190   -4.6982   22.3409 C   0  0  0  0  0  0
  -22.7855  -13.5244   21.1882 C   0  0  0  0  0  0
  -22.1657   -4.2174   21.0983 F   0  0  0  0  0  0
  -21.5639   -3.4544   25.7738 F   0  0  0  0  0  0
  -30.0360  -13.3082   20.4641 N   0  0  0  0  0  0
  -26.3015  -12.9336   20.3383 N   0  0  0  0  0  0
  -25.9313  -11.6498   20.5784 N   0  0  0  0  0  0
  -22.0496  -12.8212   22.0426 N   0  0  0  0  0  0
  -25.4338  -15.1883   20.4109 N   0  0  0  0  0  0
  -31.8013  -14.6873   20.0599 O   0  0  0  0  0  0
  -21.6639   -6.8893   21.4250 O   0  0  0  0  0  0
  -22.3536  -14.5558   20.6757 O   0  0  0  0  0  0
  -24.6172  -31.8671   23.2115 C   0  0  0  0  0  0
  -25.9059  -32.4815   23.8408 C   0  0  1  0  0  0
  -27.2251  -27.3985   20.1035 C   0  0  0  0  0  0
  -25.5913  -33.8619   24.2325 N   0  0  0  0  0  0
  -23.4059  -30.4933   21.5522 C   0  0  2  0  0  0
  -24.8524  -28.9653   20.1088 C   0  0  0  0  0  0
  -22.7428  -29.4650   22.4975 C   0  0  0  0  0  0
  -18.0276  -28.1379   22.8481 C   0  0  0  0  0  0
  -24.1488  -36.7317   23.2637 C   0  0  0  0  0  0
  -25.9404  -30.8211   21.3725 C   0  0  0  0  0  0
  -26.0161  -29.4564   20.7136 C   0  0  0  0  0  0
  -27.2048  -28.6819   20.7081 C   0  0  0  0  0  0
  -26.0427  -26.9518   19.4610 C   0  0  0  0  0  0
  -24.8639  -27.7145   19.4759 C   0  0  0  0  0  0
  -23.6155  -29.8338   20.1641 C   0  0  0  0  0  0
  -25.4113  -36.3111   24.0329 C   0  0  1  0  0  0
  -20.5869  -28.3668   23.1310 C   0  0  2  0  0  0
  -20.6773  -26.9403   22.5413 C   0  0  0  0  0  0
  -19.5758  -26.6386   21.5207 C   0  0  0  0  0  0
  -18.1936  -26.7924   22.1614 C   0  0  0  0  0  0
  -19.1526  -28.8840   23.2887 C   0  0  0  0  0  0
  -18.9457  -30.1446   23.8900 C   0  0  0  0  0  0
  -17.6460  -30.6587   24.0560 C   0  0  0  0  0  0
  -25.9039  -34.9470   23.5121 C   0  0  0  0  0  0
  -16.5349  -29.9089   23.6329 C   0  0  0  0  0  0
  -16.7264  -28.6504   23.0349 C   0  0  0  0  0  0
  -26.4475  -31.6610   25.0752 C   0  0  0  0  0  0
  -25.3726  -31.3714   26.1491 C   0  0  0  0  0  0
  -27.0318  -30.3054   24.6154 C   0  0  0  0  0  0
  -27.6066  -32.4318   25.7506 C   0  0  0  0  0  0
  -27.5579  -37.1817   24.8463 C   0  0  0  0  0  0
  -21.4154  -29.3032   22.3721 N   0  0  0  0  0  0
  -26.4301  -37.3794   23.9399 N   0  0  0  0  0  0
  -24.6726  -31.0749   22.1032 N   0  0  0  0  0  0
  -23.4193  -28.8183   23.3016 O   0  0  0  0  0  0
  -28.3597  -26.5971   20.1745 O   0  0  0  0  0  0
  -26.5606  -34.8916   22.4680 O   0  0  0  0  0  0
  -23.5356  -32.1444   23.7487 O   0  0  0  0  0  0
  -30.0252  -19.3846   21.1593 C   0  0  0  0  0  0
  -30.3177  -18.8647   19.9125 C   0  0  0  0  0  0
  -30.1565  -16.8900   21.0676 C   0  0  0  0  0  0
  -29.8582  -20.7733   21.6985 C   0  0  0  0  0  0
  -29.0998  -24.2329   20.7592 C   0  0  0  0  0  0
  -28.0803  -23.0423   22.8219 C   0  0  0  0  0  0
  -28.1184  -25.1730   20.0134 C   0  0  0  0  0  0
  -28.4761  -22.9226   21.3333 C   0  0  2  0  0  0
  -30.3803  -17.4633   19.8747 N   0  0  0  0  0  0
  -30.5366  -19.5794   18.7308 N   0  0  0  0  0  0
  -30.0585  -15.4733   21.2612 N   0  0  0  0  0  0
  -29.1242  -21.6351   20.9635 N   0  0  0  0  0  0
  -30.3132  -21.0627   22.8084 O   0  0  0  0  0  0
  -30.2923  -24.5270   20.8840 O   0  0  0  0  0  0
  -29.8506  -18.0805   22.3341 S   0  0  0  0  0  0
  -31.4694  -12.4184   19.1419 H   0  0  0  0  0  0
  -30.3268  -11.3112   19.8436 H   0  0  0  0  0  0
  -29.7480  -11.7841   17.4451 H   0  0  0  0  0  0
  -29.6600  -13.4957   17.7840 H   0  0  0  0  0  0
  -27.8354  -11.3056   18.8306 H   0  0  0  0  0  0
  -27.3695  -12.6279   17.7936 H   0  0  0  0  0  0
  -27.7047  -14.2548   19.5752 H   0  0  0  0  0  0
  -28.6780  -11.9669   21.3524 H   0  0  0  0  0  0
  -28.4485  -13.6025   21.8791 H   0  0  0  0  0  0
  -25.2763   -9.5709   22.4748 H   0  0  0  0  0  0
  -24.0042   -7.4630   22.7440 H   0  0  0  0  0  0
  -21.0864   -8.8767   19.8915 H   0  0  0  0  0  0
  -22.3703  -10.9683   19.6165 H   0  0  0  0  0  0
  -21.1980   -7.6158   23.9742 H   0  0  0  0  0  0
  -21.1489   -6.0522   25.9091 H   0  0  0  0  0  0
  -22.0588   -2.7629   23.2837 H   0  0  0  0  0  0
  -22.4114  -11.9868   22.4794 H   0  0  0  0  0  0
  -21.1109  -13.1215   22.2629 H   0  0  0  0  0  0
  -24.6739  -15.8508   20.5208 H   0  0  0  0  0  0
  -26.2928  -15.6218   20.0958 H   0  0  0  0  0  0
  -26.7123  -32.5498   23.1164 H   0  0  0  0  0  0
  -25.0067  -33.9787   25.0475 H   0  0  0  0  0  0
  -22.6941  -31.3106   21.4155 H   0  0  0  0  0  0
  -23.3741  -35.9658   23.3321 H   0  0  0  0  0  0
  -24.3575  -36.8920   22.2046 H   0  0  0  0  0  0
  -23.7260  -37.6535   23.6641 H   0  0  0  0  0  0
  -26.0624  -31.5874   20.6060 H   0  0  0  0  0  0
  -26.8248  -30.8680   21.9961 H   0  0  0  0  0  0
  -28.0960  -29.0510   21.1955 H   0  0  0  0  0  0
  -25.9958  -26.0056   18.9416 H   0  0  0  0  0  0
  -23.9743  -27.3366   18.9916 H   0  0  0  0  0  0
  -23.7238  -30.6130   19.4088 H   0  0  0  0  0  0
  -22.7376  -29.2581   19.8643 H   0  0  0  0  0  0
  -25.1289  -36.1981   25.0824 H   0  0  0  0  0  0
  -20.9941  -28.3224   24.1438 H   0  0  0  0  0  0
  -20.5695  -26.2259   23.3590 H   0  0  0  0  0  0
  -21.6644  -26.7466   22.1193 H   0  0  0  0  0  0
  -19.6933  -25.6301   21.1233 H   0  0  0  0  0  0
  -19.6714  -27.3195   20.6736 H   0  0  0  0  0  0
  -17.4206  -26.6664   21.4017 H   0  0  0  0  0  0
  -18.0345  -26.0067   22.9012 H   0  0  0  0  0  0
  -19.7937  -30.7260   24.2269 H   0  0  0  0  0  0
  -17.5021  -31.6267   24.5165 H   0  0  0  0  0  0
  -15.5354  -30.2996   23.7660 H   0  0  0  0  0  0
  -15.8659  -28.0830   22.7070 H   0  0  0  0  0  0
  -24.5902  -30.7063   25.7814 H   0  0  0  0  0  0
  -24.8905  -32.2859   26.4951 H   0  0  0  0  0  0
  -25.8063  -30.8872   27.0250 H   0  0  0  0  0  0
  -26.2880  -29.6812   24.1187 H   0  0  0  0  0  0
  -27.4066  -29.7302   25.4632 H   0  0  0  0  0  0
  -27.8719  -30.4384   23.9334 H   0  0  0  0  0  0
  -27.2721  -33.3616   26.2116 H   0  0  0  0  0  0
  -28.3857  -32.6882   25.0313 H   0  0  0  0  0  0
  -28.0752  -31.8416   26.5391 H   0  0  0  0  0  0
  -28.2609  -38.0102   24.7492 H   0  0  0  0  0  0
  -28.1065  -36.2635   24.6311 H   0  0  0  0  0  0
  -27.2286  -37.1488   25.8863 H   0  0  0  0  0  0
  -20.9322  -29.8738   21.6927 H   0  0  0  0  0  0
  -26.0189  -38.2872   24.1401 H   0  0  0  0  0  0
  -27.5482  -22.1555   23.1674 H   0  0  0  0  0  0
  -27.4213  -23.8956   22.9899 H   0  0  0  0  0  0
  -28.9495  -23.1848   23.4651 H   0  0  0  0  0  0
  -27.1309  -24.9205   20.4003 H   0  0  0  0  0  0
  -28.1313  -24.9228   18.9520 H   0  0  0  0  0  0
  -27.5207  -22.8137   20.8210 H   0  0  0  0  0  0
  -30.7862  -20.5607   18.7757 H   0  0  0  0  0  0
  -30.9281  -19.0973   17.9288 H   0  0  0  0  0  0
  -29.3147  -15.1698   21.8698 H   0  0  0  0  0  0
  -28.8521  -21.2829   20.0553 H   0  0  0  0  0  0
  1 25  1  0  0  0
  1 30  2  0  0  0
  1 81  1  0  0  0
  2  3  1  0  0  0
  2 25  1  0  0  0
  2 86  1  0  0  0
  2 87  1  0  0  0
  3  4  1  0  0  0
  3 88  1  0  0  0
  3 89  1  0  0  0
  4  5  1  0  0  0
  4 90  1  0  0  0
  4 91  1  0  0  0
  5  6  1  0  0  0
  5 26  1  0  0  0
  5 92  1  0  0  0
  6 25  1  0  0  0
  6 93  1  0  0  0
  6 94  1  0  0  0
  7  8  2  0  0  0
  7 26  1  0  0  0
  7 29  1  0  0  0
  8  9  1  0  0  0
  8 22  1  0  0  0
  9 10  1  0  0  0
  9 27  2  0  0  0
 10 11  2  0  0  0
 10 15  1  0  0  0
 11 12  1  0  0  0
 11 95  1  0  0  0
 12 13  2  0  0  0
 12 96  1  0  0  0
 13 14  1  0  0  0
 13 31  1  0  0  0
 14 15  2  0  0  0
 14 97  1  0  0  0
 15 98  1  0  0  0
 16 17  2  0  0  0
 16 21  1  0  0  0
 16 31  1  0  0  0
 17 18  1  0  0  0
 17 99  1  0  0  0
 18 19  2  0  0  0
 18100  1  0  0  0
 19 20  1  0  0  0
 19 24  1  0  0  0
 20 21  2  0  0  0
 20101  1  0  0  0
 21 23  1  0  0  0
 22 28  1  0  0  0
 22 32  2  0  0  0
 26 27  1  0  0  0
 28102  1  0  0  0
 28103  1  0  0  0
 29104  1  0  0  0
 29105  1  0  0  0
 33 34  1  0  0  0
 33 66  1  0  0  0
 33 70  2  0  0  0
 34 36  1  0  0  0
 34 59  1  0  0  0
 34106  1  0  0  0
 35 44  2  0  0  0
 35 45  1  0  0  0
 35 68  1  0  0  0
 36 56  1  0  0  0
 36107  1  0  0  0
 37 39  1  0  0  0
 37 47  1  0  0  0
 37 66  1  0  0  0
 37108  1  0  0  0
 38 43  2  0  0  0
 38 46  1  0  0  0
 38 47  1  0  0  0
 39 64  1  0  0  0
 39 67  2  0  0  0
 40 52  1  0  0  0
 40 53  2  0  0  0
 40 58  1  0  0  0
 41109  1  0  0  0
 41110  1  0  0  0
 41111  1  0  0  0
 41 48  1  0  0  0
 42 43  1  0  0  0
 42 66  1  0  0  0
 42112  1  0  0  0
 42113  1  0  0  0
 43 44  1  0  0  0
 44114  1  0  0  0
 45 46  2  0  0  0
 45115  1  0  0  0
 46116  1  0  0  0
 47117  1  0  0  0
 47118  1  0  0  0
 48 56  1  0  0  0
 48 65  1  0  0  0
 48119  1  0  0  0
 49 50  1  0  0  0
 49 53  1  0  0  0
 49 64  1  0  0  0
 49120  1  0  0  0
 50 51  1  0  0  0
 50121  1  0  0  0
 50122  1  0  0  0
 51 52  1  0  0  0
 51123  1  0  0  0
 51124  1  0  0  0
 52125  1  0  0  0
 52126  1  0  0  0
 53 54  1  0  0  0
 54 55  2  0  0  0
 54127  1  0  0  0
 55 57  1  0  0  0
 55128  1  0  0  0
 56 69  2  0  0  0
 57 58  2  0  0  0
 57129  1  0  0  0
 58130  1  0  0  0
 59 60  1  0  0  0
 59 61  1  0  0  0
 59 62  1  0  0  0
 60131  1  0  0  0
 60132  1  0  0  0
 60133  1  0  0  0
 61134  1  0  0  0
 61135  1  0  0  0
 61136  1  0  0  0
 62137  1  0  0  0
 62138  1  0  0  0
 62139  1  0  0  0
 63 65  1  0  0  0
 63140  1  0  0  0
 63141  1  0  0  0
 63142  1  0  0  0
 64143  1  0  0  0
 65144  1  0  0  0
 68 77  1  0  0  0
 71 72  2  0  0  0
 71 74  1  0  0  0
 71 85  1  0  0  0
 72 79  1  0  0  0
 72 80  1  0  0  0
 73 79  2  0  0  0
 73 81  1  0  0  0
 73 85  1  0  0  0
 74 82  1  0  0  0
 74 83  2  0  0  0
 75 77  1  0  0  0
 75 78  1  0  0  0
 75 84  2  0  0  0
 76145  1  0  0  0
 76146  1  0  0  0
 76147  1  0  0  0
 76 78  1  0  0  0
 77148  1  0  0  0
 77149  1  0  0  0
 78 82  1  0  0  0
 78150  1  0  0  0
 80151  1  0  0  0
 80152  1  0  0  0
 81153  1  0  0  0
 82154  1  0  0  0
M  ISO  4   1 100  68 101  77 101  81 100
M  END
> <chiral flag>
0

> <version>
0

> <s_m_source_file>
/data/baiqing/PycharmProjects/Reinvent-master-3.2/result/LINK_invent/BTK/process_docking_weight1_custom_product_contain_oxygen_bond_distance_aromatic_linkinvent_7_9_3/rearranged_h_0178.sdf

> <i_m_source_file_index>
40

> <r_mmod_Potential_Energy-OPLS-2005>
-127.914855957031

> <r_mmod_Stretch_Energy-OPLS-2005>
44.7804985046387

> <r_mmod_Bend_Energy-OPLS-2005>
124.336387634277

> <r_mmod_Torsional_Energy-OPLS-2005>
245.054626464844

> <r_mmod_Improper_Torsional_Energy-OPLS-2005>
5.93376636505127

> <r_mmod_Van_der_Waal_Energy-OPLS-2005>
132.987609863281

> <r_mmod_Electrostatic_Energy-OPLS-2005>
-416.324066162109

> <r_mmod_Solvation_Energy-OPLS-2005>
-284.097412109375

> <b_mmod_Minimization_Converged-OPLS-2005>
0

> <r_mmod_RMS_Derivative-OPLS-2005>
1.60371732711792

$$$$
40
                    3D
 Structure written by MMmdl.
149157  0  0  1  0            999 V2000
  -30.5810  -14.7672   20.4579 C   0  0  0  0  0  0
  -30.4444  -12.4668   19.4765 C   0  0  0  0  0  0
  -29.5179  -12.5183   18.2396 C   0  0  0  0  0  0
  -28.0438  -12.3349   18.6513 C   0  0  0  0  0  0
  -27.6475  -13.2296   19.8556 C   0  0  2  0  0  0
  -28.6919  -13.1479   20.9916 C   0  0  0  0  0  0
  -25.2538  -13.8188   20.5686 C   0  0  0  0  0  0
  -24.1820  -13.0441   20.9200 C   0  0  0  0  0  0
  -24.6405  -11.6916   20.8736 C   0  0  0  0  0  0
  -23.9077  -10.4292   21.0397 C   0  0  0  0  0  0
  -24.3623   -9.4208   21.9176 C   0  0  0  0  0  0
  -23.6294   -8.2247   22.0749 C   0  0  0  0  0  0
  -22.4274   -8.0282   21.3546 C   0  0  0  0  0  0
  -21.9914   -9.0258   20.4649 C   0  0  0  0  0  0
  -22.7246  -10.2134   20.3053 C   0  0  0  0  0  0
  -21.6857   -6.0735   22.5278 C   0  0  0  0  0  0
  -21.4017   -6.5636   23.8212 C   0  0  0  0  0  0
  -21.3658   -5.6789   24.9171 C   0  0  0  0  0  0
  -21.6043   -4.3051   24.7223 C   0  0  0  0  0  0
  -21.8819   -3.8144   23.4344 C   0  0  0  0  0  0
  -21.9196   -4.6963   22.3400 C   0  0  0  0  0  0
  -22.7840  -13.5226   21.1856 C   0  0  0  0  0  0
  -22.1662   -4.2147   21.0979 F   0  0  0  0  0  0
  -21.5627   -3.4534   25.7737 F   0  0  0  0  0  0
  -29.9963  -13.5178   20.4209 N   0  0  0  0  0  0
  -26.2968  -12.9389   20.3283 N   0  0  0  0  0  0
  -25.9336  -11.6535   20.5740 N   0  0  0  0  0  0
  -22.0487  -12.8220   22.0416 N   0  0  0  0  0  0
  -25.4242  -15.1914   20.4096 N   0  0  0  0  0  0
  -31.7490  -14.9114   20.0882 O   0  0  0  0  0  0
  -21.6641   -6.8877   21.4240 O   0  0  0  0  0  0
  -22.3526  -14.5535   20.6705 O   0  0  0  0  0  0
  -24.6332  -31.8520   23.1968 C   0  0  0  0  0  0
  -25.9147  -32.4735   23.8318 C   0  0  1  0  0  0
  -27.2298  -27.2536   20.1151 C   0  0  0  0  0  0
  -25.5928  -33.8535   24.2241 N   0  0  0  0  0  0
  -23.4315  -30.4735   21.5408 C   0  0  2  0  0  0
  -24.8815  -28.9209   20.1040 C   0  0  0  0  0  0
  -22.7518  -29.4579   22.4912 C   0  0  0  0  0  0
  -18.0290  -28.1390   22.8479 C   0  0  0  0  0  0
  -24.1485  -36.7277   23.2643 C   0  0  0  0  0  0
  -25.9789  -30.7604   21.3799 C   0  0  0  0  0  0
  -26.0529  -29.3834   20.7175 C   0  0  0  0  0  0
  -27.2270  -28.5595   20.7184 C   0  0  0  0  0  0
  -26.0305  -26.8584   19.4812 C   0  0  0  0  0  0
  -24.8758  -27.6661   19.4755 C   0  0  0  0  0  0
  -23.6503  -29.8070   20.1563 C   0  0  0  0  0  0
  -25.4111  -36.3055   24.0329 C   0  0  1  0  0  0
  -20.5895  -28.3696   23.1269 C   0  0  2  0  0  0
  -20.6773  -26.9412   22.5412 C   0  0  0  0  0  0
  -19.5749  -26.6382   21.5213 C   0  0  0  0  0  0
  -18.1930  -26.7929   22.1628 C   0  0  0  0  0  0
  -19.1544  -28.8863   23.2866 C   0  0  0  0  0  0
  -18.9461  -30.1465   23.8879 C   0  0  0  0  0  0
  -17.6457  -30.6589   24.0559 C   0  0  0  0  0  0
  -25.9055  -34.9428   23.5093 C   0  0  0  0  0  0
  -16.5350  -29.9082   23.6337 C   0  0  0  0  0  0
  -16.7274  -28.6508   23.0344 C   0  0  0  0  0  0
  -26.4504  -31.6572   25.0724 C   0  0  0  0  0  0
  -25.3718  -31.3737   26.1444 C   0  0  0  0  0  0
  -27.0350  -30.2976   24.6239 C   0  0  0  0  0  0
  -27.6054  -32.4319   25.7493 C   0  0  0  0  0  0
  -27.5576  -37.1794   24.8467 C   0  0  0  0  0  0
  -21.4223  -29.3035   22.3660 N   0  0  0  0  0  0
  -26.4283  -37.3759   23.9413 N   0  0  0  0  0  0
  -24.7003  -31.0470   22.0952 N   0  0  0  0  0  0
  -23.4213  -28.8124   23.3019 O   0  0  0  0  0  0
  -28.2866  -26.3127   20.2260 O   0  0  0  0  0  0
  -26.5635  -34.8914   22.4665 O   0  0  0  0  0  0
  -23.5479  -32.1343   23.7257 O   0  0  0  0  0  0
  -29.0554  -18.2257   21.3677 C   0  0  0  0  0  0
  -29.8100  -17.3197   20.5606 C   0  0  0  0  0  0
  -30.4536  -17.9833   19.4795 C   0  0  0  0  0  0
  -30.2941  -19.3960   19.2593 C   0  0  0  0  0  0
  -29.4991  -20.2174   20.1162 C   0  0  0  0  0  0
  -28.4847  -25.3172   19.2366 C   0  0  0  0  0  0
  -28.7593  -23.9427   19.1839 C   0  0  0  0  0  0
  -28.8994  -22.8507   20.2290 C   0  0  0  0  0  0
  -28.9092  -19.5863   21.1762 N   0  0  0  0  0  0
  -29.7758  -15.8416   20.8118 N   0  0  0  0  0  0
  -29.3239  -21.6353   19.6951 N   0  0  0  0  0  0
  -28.6693  -23.0039   21.4299 O   0  0  0  0  0  0
  -28.9181  -23.4889   17.9263 O   0  0  0  0  0  0
  -31.1850  -17.2648   18.5924 F   0  0  0  0  0  0
  -30.8928  -19.9674   18.1834 F   0  0  0  0  0  0
  -31.4841  -12.6034   19.1738 H   0  0  0  0  0  0
  -30.3993  -11.4855   19.9506 H   0  0  0  0  0  0
  -29.8034  -11.7496   17.5204 H   0  0  0  0  0  0
  -29.6396  -13.4743   17.7274 H   0  0  0  0  0  0
  -27.9021  -11.2853   18.9105 H   0  0  0  0  0  0
  -27.3866  -12.5288   17.8026 H   0  0  0  0  0  0
  -27.6462  -14.2537   19.4816 H   0  0  0  0  0  0
  -28.7313  -12.1410   21.4092 H   0  0  0  0  0  0
  -28.4174  -13.8048   21.8185 H   0  0  0  0  0  0
  -25.2767   -9.5680   22.4754 H   0  0  0  0  0  0
  -23.9999   -7.4637   22.7469 H   0  0  0  0  0  0
  -21.0845   -8.8781   19.8961 H   0  0  0  0  0  0
  -22.3700  -10.9669   19.6164 H   0  0  0  0  0  0
  -21.2012   -7.6143   23.9709 H   0  0  0  0  0  0
  -21.1478   -6.0519   25.9073 H   0  0  0  0  0  0
  -22.0602   -2.7606   23.2843 H   0  0  0  0  0  0
  -22.4098  -11.9883   22.4811 H   0  0  0  0  0  0
  -21.1108  -13.1247   22.2622 H   0  0  0  0  0  0
  -24.6526  -15.8421   20.5089 H   0  0  0  0  0  0
  -26.2629  -15.6250   20.0453 H   0  0  0  0  0  0
  -26.7216  -32.5378   23.1059 H   0  0  0  0  0  0
  -25.0045  -33.9657   25.0367 H   0  0  0  0  0  0
  -22.7289  -31.2964   21.3953 H   0  0  0  0  0  0
  -23.3746  -35.9610   23.3296 H   0  0  0  0  0  0
  -24.3574  -36.8903   22.2060 H   0  0  0  0  0  0
  -23.7244  -37.6481   23.6666 H   0  0  0  0  0  0
  -26.1222  -31.5219   20.6123 H   0  0  0  0  0  0
  -26.8542  -30.8065   22.0163 H   0  0  0  0  0  0
  -28.1182  -28.9008   21.2258 H   0  0  0  0  0  0
  -25.9574  -25.8821   19.0243 H   0  0  0  0  0  0
  -23.9764  -27.3028   18.9979 H   0  0  0  0  0  0
  -23.7722  -30.5837   19.4001 H   0  0  0  0  0  0
  -22.7683  -29.2392   19.8535 H   0  0  0  0  0  0
  -25.1293  -36.1894   25.0821 H   0  0  0  0  0  0
  -20.9978  -28.3267   24.1392 H   0  0  0  0  0  0
  -20.5663  -26.2302   23.3614 H   0  0  0  0  0  0
  -21.6641  -26.7425   22.1210 H   0  0  0  0  0  0
  -19.6905  -25.6289   21.1245 H   0  0  0  0  0  0
  -19.6688  -27.3188   20.6740 H   0  0  0  0  0  0
  -17.4197  -26.6663   21.4035 H   0  0  0  0  0  0
  -18.0341  -26.0082   22.9037 H   0  0  0  0  0  0
  -19.7936  -30.7289   24.2242 H   0  0  0  0  0  0
  -17.5010  -31.6265   24.5165 H   0  0  0  0  0  0
  -15.5347  -30.2967   23.7686 H   0  0  0  0  0  0
  -15.8675  -28.0826   22.7054 H   0  0  0  0  0  0
  -24.5872  -30.7110   25.7775 H   0  0  0  0  0  0
  -24.8940  -32.2913   26.4880 H   0  0  0  0  0  0
  -25.8028  -30.8896   27.0212 H   0  0  0  0  0  0
  -26.2938  -29.6726   24.1247 H   0  0  0  0  0  0
  -27.3988  -29.7250   25.4780 H   0  0  0  0  0  0
  -27.8832  -30.4237   23.9508 H   0  0  0  0  0  0
  -27.2653  -33.3620   26.2058 H   0  0  0  0  0  0
  -28.3860  -32.6876   25.0317 H   0  0  0  0  0  0
  -28.0717  -31.8452   26.5418 H   0  0  0  0  0  0
  -28.2594  -38.0094   24.7505 H   0  0  0  0  0  0
  -28.1068  -36.2622   24.6282 H   0  0  0  0  0  0
  -27.2297  -37.1435   25.8873 H   0  0  0  0  0  0
  -20.9420  -29.8749   21.6852 H   0  0  0  0  0  0
  -26.0159  -38.2829   24.1408 H   0  0  0  0  0  0
  -28.5064  -17.8323   22.2108 H   0  0  0  0  0  0
  -28.4189  -25.8293   18.2853 H   0  0  0  0  0  0
  -28.9315  -15.5305   21.2686 H   0  0  0  0  0  0
  -29.5644  -21.7714   18.7214 H   0  0  0  0  0  0
  -28.8012  -24.2231   17.3377 H   0  0  0  0  0  0
  1 25  1  0  0  0
  1 30  2  0  0  0
  1 80  1  0  0  0
  2  3  1  0  0  0
  2 25  1  0  0  0
  2 86  1  0  0  0
  2 87  1  0  0  0
  3  4  1  0  0  0
  3 88  1  0  0  0
  3 89  1  0  0  0
  4  5  1  0  0  0
  4 90  1  0  0  0
  4 91  1  0  0  0
  5  6  1  0  0  0
  5 26  1  0  0  0
  5 92  1  0  0  0
  6 25  1  0  0  0
  6 93  1  0  0  0
  6 94  1  0  0  0
  7  8  2  0  0  0
  7 26  1  0  0  0
  7 29  1  0  0  0
  8  9  1  0  0  0
  8 22  1  0  0  0
  9 10  1  0  0  0
  9 27  2  0  0  0
 10 11  2  0  0  0
 10 15  1  0  0  0
 11 12  1  0  0  0
 11 95  1  0  0  0
 12 13  2  0  0  0
 12 96  1  0  0  0
 13 14  1  0  0  0
 13 31  1  0  0  0
 14 15  2  0  0  0
 14 97  1  0  0  0
 15 98  1  0  0  0
 16 17  2  0  0  0
 16 21  1  0  0  0
 16 31  1  0  0  0
 17 18  1  0  0  0
 17 99  1  0  0  0
 18 19  2  0  0  0
 18100  1  0  0  0
 19 20  1  0  0  0
 19 24  1  0  0  0
 20 21  2  0  0  0
 20101  1  0  0  0
 21 23  1  0  0  0
 22 28  1  0  0  0
 22 32  2  0  0  0
 26 27  1  0  0  0
 28102  1  0  0  0
 28103  1  0  0  0
 29104  1  0  0  0
 29105  1  0  0  0
 33 34  1  0  0  0
 33 66  1  0  0  0
 33 70  2  0  0  0
 34 36  1  0  0  0
 34 59  1  0  0  0
 34106  1  0  0  0
 35 44  2  0  0  0
 35 45  1  0  0  0
 35 68  1  0  0  0
 36 56  1  0  0  0
 36107  1  0  0  0
 37 39  1  0  0  0
 37 47  1  0  0  0
 37 66  1  0  0  0
 37108  1  0  0  0
 38 43  2  0  0  0
 38 46  1  0  0  0
 38 47  1  0  0  0
 39 64  1  0  0  0
 39 67  2  0  0  0
 40 52  1  0  0  0
 40 53  2  0  0  0
 40 58  1  0  0  0
 41109  1  0  0  0
 41110  1  0  0  0
 41111  1  0  0  0
 41 48  1  0  0  0
 42 43  1  0  0  0
 42 66  1  0  0  0
 42112  1  0  0  0
 42113  1  0  0  0
 43 44  1  0  0  0
 44114  1  0  0  0
 45 46  2  0  0  0
 45115  1  0  0  0
 46116  1  0  0  0
 47117  1  0  0  0
 47118  1  0  0  0
 48 56  1  0  0  0
 48 65  1  0  0  0
 48119  1  0  0  0
 49 50  1  0  0  0
 49 53  1  0  0  0
 49 64  1  0  0  0
 49120  1  0  0  0
 50 51  1  0  0  0
 50121  1  0  0  0
 50122  1  0  0  0
 51 52  1  0  0  0
 51123  1  0  0  0
 51124  1  0  0  0
 52125  1  0  0  0
 52126  1  0  0  0
 53 54  1  0  0  0
 54 55  2  0  0  0
 54127  1  0  0  0
 55 57  1  0  0  0
 55128  1  0  0  0
 56 69  2  0  0  0
 57 58  2  0  0  0
 57129  1  0  0  0
 58130  1  0  0  0
 59 60  1  0  0  0
 59 61  1  0  0  0
 59 62  1  0  0  0
 60131  1  0  0  0
 60132  1  0  0  0
 60133  1  0  0  0
 61134  1  0  0  0
 61135  1  0  0  0
 61136  1  0  0  0
 62137  1  0  0  0
 62138  1  0  0  0
 62139  1  0  0  0
 63 65  1  0  0  0
 63140  1  0  0  0
 63141  1  0  0  0
 63142  1  0  0  0
 64143  1  0  0  0
 65144  1  0  0  0
 68 76  1  0  0  0
 71 72  2  0  0  0
 71 79  1  0  0  0
 71145  1  0  0  0
 72 73  1  0  0  0
 72 80  1  0  0  0
 73 74  2  0  0  0
 73 84  1  0  0  0
 74 75  1  0  0  0
 74 85  1  0  0  0
 75 79  2  0  0  0
 75 81  1  0  0  0
 76 77  2  0  0  0
 76146  1  0  0  0
 77 78  1  0  0  0
 77 83  1  0  0  0
 78 81  1  0  0  0
 78 82  2  0  0  0
 80147  1  0  0  0
 81148  1  0  0  0
 83149  1  0  0  0
M  ISO  4   1 100  68 101  76 101  80 100
M  END
> <chiral flag>
0

> <version>
0

> <s_m_source_file>
/data/baiqing/PycharmProjects/Reinvent-master-3.2/result/LINK_invent/BTK/process_docking_weight1_custom_product_contain_oxygen_bond_distance_aromatic_linkinvent_7_9_3/rearranged_h_0178.sdf

> <i_m_source_file_index>
41

> <r_mmod_Potential_Energy-OPLS-2005>
-15.8366889953613

> <r_mmod_Stretch_Energy-OPLS-2005>
120.2841796875

> <r_mmod_Bend_Energy-OPLS-2005>
231.165390014648

> <r_mmod_Torsional_Energy-OPLS-2005>
217.214935302734

> <r_mmod_Improper_Torsional_Energy-OPLS-2005>
4.37438058853149

> <r_mmod_Van_der_Waal_Energy-OPLS-2005>
146.432846069336

> <r_mmod_Electrostatic_Energy-OPLS-2005>
-574.385864257812

> <r_mmod_Solvation_Energy-OPLS-2005>
-259.398315429688

> <b_mmod_Minimization_Converged-OPLS-2005>
0

> <r_mmod_RMS_Derivative-OPLS-2005>
1.10653507709503

$$$$
41
                    3D
 Structure written by MMmdl.
153161  0  0  1  0            999 V2000
  -30.6710  -14.6221   20.4658 C   0  0  0  0  0  0
  -30.4241  -12.3763   19.4518 C   0  0  0  0  0  0
  -29.5057  -12.4876   18.2166 C   0  0  0  0  0  0
  -28.0304  -12.3213   18.6346 C   0  0  0  0  0  0
  -27.6453  -13.2208   19.8423 C   0  0  2  0  0  0
  -28.6918  -13.1425   20.9752 C   0  0  0  0  0  0
  -25.2556  -13.8163   20.5640 C   0  0  0  0  0  0
  -24.1828  -13.0433   20.9135 C   0  0  0  0  0  0
  -24.6404  -11.6897   20.8704 C   0  0  0  0  0  0
  -23.9072  -10.4286   21.0388 C   0  0  0  0  0  0
  -24.3625   -9.4207   21.9171 C   0  0  0  0  0  0
  -23.6291   -8.2253   22.0761 C   0  0  0  0  0  0
  -22.4274   -8.0283   21.3550 C   0  0  0  0  0  0
  -21.9909   -9.0247   20.4654 C   0  0  0  0  0  0
  -22.7236  -10.2124   20.3047 C   0  0  0  0  0  0
  -21.6856   -6.0736   22.5277 C   0  0  0  0  0  0
  -21.4028   -6.5640   23.8209 C   0  0  0  0  0  0
  -21.3653   -5.6788   24.9164 C   0  0  0  0  0  0
  -21.6046   -4.3051   24.7213 C   0  0  0  0  0  0
  -21.8819   -3.8145   23.4334 C   0  0  0  0  0  0
  -21.9194   -4.6966   22.3396 C   0  0  0  0  0  0
  -22.7855  -13.5235   21.1785 C   0  0  0  0  0  0
  -22.1660   -4.2158   21.0969 F   0  0  0  0  0  0
  -21.5617   -3.4533   25.7722 F   0  0  0  0  0  0
  -30.0008  -13.4347   20.3858 N   0  0  0  0  0  0
  -26.2967  -12.9350   20.3238 N   0  0  0  0  0  0
  -25.9336  -11.6507   20.5725 N   0  0  0  0  0  0
  -22.0504  -12.8248   22.0359 N   0  0  0  0  0  0
  -25.4296  -15.1880   20.4076 N   0  0  0  0  0  0
  -31.8808  -14.6851   20.2433 O   0  0  0  0  0  0
  -21.6642   -6.8877   21.4237 O   0  0  0  0  0  0
  -22.3541  -14.5529   20.6611 O   0  0  0  0  0  0
  -24.6221  -31.8660   23.2060 C   0  0  0  0  0  0
  -25.9098  -32.4821   23.8362 C   0  0  1  0  0  0
  -27.2144  -27.3574   20.1222 C   0  0  0  0  0  0
  -25.5964  -33.8625   24.2304 N   0  0  0  0  0  0
  -23.4109  -30.4875   21.5510 C   0  0  2  0  0  0
  -24.8531  -28.9422   20.1171 C   0  0  0  0  0  0
  -22.7455  -29.4640   22.5006 C   0  0  0  0  0  0
  -18.0305  -28.1368   22.8489 C   0  0  0  0  0  0
  -24.1490  -36.7294   23.2620 C   0  0  0  0  0  0
  -25.9462  -30.8074   21.3688 C   0  0  0  0  0  0
  -26.0204  -29.4360   20.7158 C   0  0  0  0  0  0
  -27.2092  -28.6561   20.7058 C   0  0  0  0  0  0
  -26.0304  -26.8971   19.5129 C   0  0  0  0  0  0
  -24.8572  -27.6763   19.5054 C   0  0  0  0  0  0
  -23.6211  -29.8208   20.1658 C   0  0  0  0  0  0
  -25.4123  -36.3115   24.0320 C   0  0  1  0  0  0
  -20.5885  -28.3675   23.1316 C   0  0  2  0  0  0
  -20.6811  -26.9418   22.5411 C   0  0  0  0  0  0
  -19.5786  -26.6375   21.5223 C   0  0  0  0  0  0
  -18.1955  -26.7913   22.1614 C   0  0  0  0  0  0
  -19.1544  -28.8846   23.2881 C   0  0  0  0  0  0
  -18.9457  -30.1444   23.8897 C   0  0  0  0  0  0
  -17.6455  -30.6568   24.0562 C   0  0  0  0  0  0
  -25.9051  -34.9483   23.5109 C   0  0  0  0  0  0
  -16.5358  -29.9063   23.6318 C   0  0  0  0  0  0
  -16.7285  -28.6478   23.0351 C   0  0  0  0  0  0
  -26.4485  -31.6623   25.0716 C   0  0  0  0  0  0
  -25.3719  -31.3776   26.1445 C   0  0  0  0  0  0
  -27.0318  -30.3061   24.6128 C   0  0  0  0  0  0
  -27.6057  -32.4348   25.7488 C   0  0  0  0  0  0
  -27.5599  -37.1799   24.8457 C   0  0  0  0  0  0
  -21.4184  -29.3037   22.3731 N   0  0  0  0  0  0
  -26.4308  -37.3805   23.9416 N   0  0  0  0  0  0
  -24.6788  -31.0688   22.1008 N   0  0  0  0  0  0
  -23.4204  -28.8200   23.3074 O   0  0  0  0  0  0
  -28.3392  -26.5366   20.0974 O   0  0  0  0  0  0
  -26.5566  -34.8942   22.4631 O   0  0  0  0  0  0
  -23.5401  -32.1444   23.7421 O   0  0  0  0  0  0
  -29.9845  -18.1959   20.3647 C   0  0  0  0  0  0
  -31.1284  -18.5152   19.6424 C   0  0  0  0  0  0
  -29.6413  -20.4847   19.9604 C   0  0  0  0  0  0
  -29.7116  -16.8013   20.9733 C   0  0  0  0  0  0
  -28.6666  -24.1261   20.0779 C   0  0  0  0  0  0
  -28.3260  -25.2847   20.7373 C   0  0  0  0  0  0
  -28.8087  -22.7714   20.7109 C   0  0  0  0  0  0
  -27.9676  -25.3860   22.2164 C   0  0  0  0  0  0
  -29.1552  -19.3565   20.5458 N   0  0  0  0  0  0
  -32.2333  -17.7400   19.2810 N   0  0  0  0  0  0
  -28.9855  -21.7669   19.8127 N   0  0  0  0  0  0
  -29.9449  -15.7316   20.1662 N   0  0  0  0  0  0
  -29.2616  -16.6743   22.1184 O   0  0  0  0  0  0
  -28.7753  -22.5398   21.9216 O   0  0  0  0  0  0
  -28.9273  -24.2189   18.7630 O   0  0  0  0  0  0
  -31.1595  -20.1905   19.1354 S   0  0  0  0  0  0
  -31.4731  -12.4666   19.1632 H   0  0  0  0  0  0
  -30.3216  -11.3959   19.9200 H   0  0  0  0  0  0
  -29.7745  -11.7359   17.4720 H   0  0  0  0  0  0
  -29.6453  -13.4565   17.7334 H   0  0  0  0  0  0
  -27.8807  -11.2713   18.8906 H   0  0  0  0  0  0
  -27.3724  -12.5183   17.7882 H   0  0  0  0  0  0
  -27.6446  -14.2443   19.4664 H   0  0  0  0  0  0
  -28.6965  -12.1575   21.4426 H   0  0  0  0  0  0
  -28.4572  -13.8604   21.7637 H   0  0  0  0  0  0
  -25.2785   -9.5677   22.4728 H   0  0  0  0  0  0
  -24.0007   -7.4653   22.7483 H   0  0  0  0  0  0
  -21.0854   -8.8752   19.8961 H   0  0  0  0  0  0
  -22.3702  -10.9648   19.6147 H   0  0  0  0  0  0
  -21.2050   -7.6157   23.9705 H   0  0  0  0  0  0
  -21.1466   -6.0525   25.9062 H   0  0  0  0  0  0
  -22.0613   -2.7615   23.2822 H   0  0  0  0  0  0
  -22.4146  -11.9966   22.4820 H   0  0  0  0  0  0
  -21.1105  -13.1259   22.2505 H   0  0  0  0  0  0
  -24.6723  -15.8497   20.5338 H   0  0  0  0  0  0
  -26.2982  -15.6234   20.1224 H   0  0  0  0  0  0
  -26.7168  -32.5484   23.1112 H   0  0  0  0  0  0
  -25.0284  -33.9805   25.0572 H   0  0  0  0  0  0
  -22.7009  -31.3059   21.4119 H   0  0  0  0  0  0
  -23.3792  -35.9583   23.3267 H   0  0  0  0  0  0
  -24.3590  -36.8924   22.2036 H   0  0  0  0  0  0
  -23.7188  -37.6474   23.6642 H   0  0  0  0  0  0
  -26.0647  -31.5711   20.5992 H   0  0  0  0  0  0
  -26.8325  -30.8596   21.9893 H   0  0  0  0  0  0
  -28.1103  -29.0353   21.1674 H   0  0  0  0  0  0
  -26.0167  -25.9220   19.0481 H   0  0  0  0  0  0
  -23.9636  -27.2914   19.0327 H   0  0  0  0  0  0
  -23.7361  -30.5955   19.4068 H   0  0  0  0  0  0
  -22.7411  -29.2484   19.8676 H   0  0  0  0  0  0
  -25.1298  -36.1968   25.0809 H   0  0  0  0  0  0
  -20.9953  -28.3239   24.1445 H   0  0  0  0  0  0
  -20.5774  -26.2288   23.3602 H   0  0  0  0  0  0
  -21.6680  -26.7500   22.1171 H   0  0  0  0  0  0
  -19.6958  -25.6285   21.1261 H   0  0  0  0  0  0
  -19.6719  -27.3188   20.6754 H   0  0  0  0  0  0
  -17.4250  -26.6698   21.3983 H   0  0  0  0  0  0
  -18.0310  -26.0035   22.8981 H   0  0  0  0  0  0
  -19.7935  -30.7255   24.2269 H   0  0  0  0  0  0
  -17.5016  -31.6252   24.5165 H   0  0  0  0  0  0
  -15.5358  -30.2970   23.7624 H   0  0  0  0  0  0
  -15.8691  -28.0786   22.7070 H   0  0  0  0  0  0
  -24.5864  -30.7163   25.7768 H   0  0  0  0  0  0
  -24.8938  -32.2956   26.4871 H   0  0  0  0  0  0
  -25.8019  -30.8936   27.0217 H   0  0  0  0  0  0
  -26.2875  -29.6833   24.1150 H   0  0  0  0  0  0
  -27.4053  -29.7293   25.4598 H   0  0  0  0  0  0
  -27.8723  -30.4393   23.9316 H   0  0  0  0  0  0
  -27.2684  -33.3645   26.2086 H   0  0  0  0  0  0
  -28.3856  -32.6926   25.0310 H   0  0  0  0  0  0
  -28.0736  -31.8459   26.5386 H   0  0  0  0  0  0
  -28.2601  -38.0115   24.7570 H   0  0  0  0  0  0
  -28.1122  -36.2660   24.6217 H   0  0  0  0  0  0
  -27.2326  -37.1356   25.8858 H   0  0  0  0  0  0
  -20.9385  -29.8746   21.6923 H   0  0  0  0  0  0
  -26.0198  -38.2878   24.1455 H   0  0  0  0  0  0
  -28.8075  -25.0466   22.8224 H   0  0  0  0  0  0
  -27.1038  -24.7614   22.4497 H   0  0  0  0  0  0
  -27.7379  -26.4054   22.5287 H   0  0  0  0  0  0
  -32.4513  -16.8078   19.6297 H   0  0  0  0  0  0
  -33.0327  -18.1571   18.8097 H   0  0  0  0  0  0
  -29.0009  -22.1427   18.8735 H   0  0  0  0  0  0
  -30.2645  -16.1063   19.2867 H   0  0  0  0  0  0
  -28.8194  -25.1330   18.5300 H   0  0  0  0  0  0
  1 25  1  0  0  0
  1 30  2  0  0  0
  1 82  1  0  0  0
  2  3  1  0  0  0
  2 25  1  0  0  0
  2 87  1  0  0  0
  2 88  1  0  0  0
  3  4  1  0  0  0
  3 89  1  0  0  0
  3 90  1  0  0  0
  4  5  1  0  0  0
  4 91  1  0  0  0
  4 92  1  0  0  0
  5  6  1  0  0  0
  5 26  1  0  0  0
  5 93  1  0  0  0
  6 25  1  0  0  0
  6 94  1  0  0  0
  6 95  1  0  0  0
  7  8  2  0  0  0
  7 26  1  0  0  0
  7 29  1  0  0  0
  8  9  1  0  0  0
  8 22  1  0  0  0
  9 10  1  0  0  0
  9 27  2  0  0  0
 10 11  2  0  0  0
 10 15  1  0  0  0
 11 12  1  0  0  0
 11 96  1  0  0  0
 12 13  2  0  0  0
 12 97  1  0  0  0
 13 14  1  0  0  0
 13 31  1  0  0  0
 14 15  2  0  0  0
 14 98  1  0  0  0
 15 99  1  0  0  0
 16 17  2  0  0  0
 16 21  1  0  0  0
 16 31  1  0  0  0
 17 18  1  0  0  0
 17100  1  0  0  0
 18 19  2  0  0  0
 18101  1  0  0  0
 19 20  1  0  0  0
 19 24  1  0  0  0
 20 21  2  0  0  0
 20102  1  0  0  0
 21 23  1  0  0  0
 22 28  1  0  0  0
 22 32  2  0  0  0
 26 27  1  0  0  0
 28103  1  0  0  0
 28104  1  0  0  0
 29105  1  0  0  0
 29106  1  0  0  0
 33 34  1  0  0  0
 33 66  1  0  0  0
 33 70  2  0  0  0
 34 36  1  0  0  0
 34 59  1  0  0  0
 34107  1  0  0  0
 35 44  2  0  0  0
 35 45  1  0  0  0
 35 68  1  0  0  0
 36 56  1  0  0  0
 36108  1  0  0  0
 37 39  1  0  0  0
 37 47  1  0  0  0
 37 66  1  0  0  0
 37109  1  0  0  0
 38 43  2  0  0  0
 38 46  1  0  0  0
 38 47  1  0  0  0
 39 64  1  0  0  0
 39 67  2  0  0  0
 40 52  1  0  0  0
 40 53  2  0  0  0
 40 58  1  0  0  0
 41110  1  0  0  0
 41111  1  0  0  0
 41112  1  0  0  0
 41 48  1  0  0  0
 42 43  1  0  0  0
 42 66  1  0  0  0
 42113  1  0  0  0
 42114  1  0  0  0
 43 44  1  0  0  0
 44115  1  0  0  0
 45 46  2  0  0  0
 45116  1  0  0  0
 46117  1  0  0  0
 47118  1  0  0  0
 47119  1  0  0  0
 48 56  1  0  0  0
 48 65  1  0  0  0
 48120  1  0  0  0
 49 50  1  0  0  0
 49 53  1  0  0  0
 49 64  1  0  0  0
 49121  1  0  0  0
 50 51  1  0  0  0
 50122  1  0  0  0
 50123  1  0  0  0
 51 52  1  0  0  0
 51124  1  0  0  0
 51125  1  0  0  0
 52126  1  0  0  0
 52127  1  0  0  0
 53 54  1  0  0  0
 54 55  2  0  0  0
 54128  1  0  0  0
 55 57  1  0  0  0
 55129  1  0  0  0
 56 69  2  0  0  0
 57 58  2  0  0  0
 57130  1  0  0  0
 58131  1  0  0  0
 59 60  1  0  0  0
 59 61  1  0  0  0
 59 62  1  0  0  0
 60132  1  0  0  0
 60133  1  0  0  0
 60134  1  0  0  0
 61135  1  0  0  0
 61136  1  0  0  0
 61137  1  0  0  0
 62138  1  0  0  0
 62139  1  0  0  0
 62140  1  0  0  0
 63 65  1  0  0  0
 63141  1  0  0  0
 63142  1  0  0  0
 63143  1  0  0  0
 64144  1  0  0  0
 65145  1  0  0  0
 68 76  1  0  0  0
 71 72  2  0  0  0
 71 74  1  0  0  0
 71 79  1  0  0  0
 72 80  1  0  0  0
 72 86  1  0  0  0
 73 79  2  0  0  0
 73 81  1  0  0  0
 73 86  1  0  0  0
 74 82  1  0  0  0
 74 83  2  0  0  0
 75 76  2  0  0  0
 75 77  1  0  0  0
 75 85  1  0  0  0
 76 78  1  0  0  0
 77 81  1  0  0  0
 77 84  2  0  0  0
 78146  1  0  0  0
 78147  1  0  0  0
 78148  1  0  0  0
 80149  1  0  0  0
 80150  1  0  0  0
 81151  1  0  0  0
 82152  1  0  0  0
 85153  1  0  0  0
M  ISO  4   1 100  68 101  76 101  82 100
M  END
> <chiral flag>
0

> <version>
0

> <s_m_source_file>
/data/baiqing/PycharmProjects/Reinvent-master-3.2/result/LINK_invent/BTK/process_docking_weight1_custom_product_contain_oxygen_bond_distance_aromatic_linkinvent_7_9_3/rearranged_h_0178.sdf

> <i_m_source_file_index>
42

> <r_mmod_Potential_Energy-OPLS-2005>
105.922523498535

> <r_mmod_Stretch_Energy-OPLS-2005>
64.8396606445312

> <r_mmod_Bend_Energy-OPLS-2005>
142.109848022461

> <r_mmod_Torsional_Energy-OPLS-2005>
345.614074707031

> <r_mmod_Improper_Torsional_Energy-OPLS-2005>
30.4856872558594

> <r_mmod_Van_der_Waal_Energy-OPLS-2005>
119.64786529541

> <r_mmod_Electrostatic_Energy-OPLS-2005>
-408.015075683594

> <r_mmod_Solvation_Energy-OPLS-2005>
-234.627517700195

> <b_mmod_Minimization_Converged-OPLS-2005>
0

> <r_mmod_RMS_Derivative-OPLS-2005>
2.53250813484192

$$$$
42
                    3D
 Structure written by MMmdl.
155163  0  0  1  0            999 V2000
  -30.7256  -14.4732   20.5563 C   0  0  0  0  0  0
  -30.4207  -12.3028   19.4227 C   0  0  0  0  0  0
  -29.4949  -12.5154   18.2072 C   0  0  0  0  0  0
  -28.0141  -12.3912   18.6163 C   0  0  0  0  0  0
  -27.6668  -13.2180   19.8842 C   0  0  2  0  0  0
  -28.7142  -13.0033   21.0013 C   0  0  0  0  0  0
  -25.2597  -13.8185   20.5661 C   0  0  0  0  0  0
  -24.1850  -13.0433   20.9171 C   0  0  0  0  0  0
  -24.6433  -11.6919   20.8746 C   0  0  0  0  0  0
  -23.9097  -10.4286   21.0419 C   0  0  0  0  0  0
  -24.3643   -9.4205   21.9199 C   0  0  0  0  0  0
  -23.6307   -8.2246   22.0767 C   0  0  0  0  0  0
  -22.4292   -8.0285   21.3561 C   0  0  0  0  0  0
  -21.9934   -9.0256   20.4661 C   0  0  0  0  0  0
  -22.7268  -10.2130   20.3070 C   0  0  0  0  0  0
  -21.6862   -6.0746   22.5288 C   0  0  0  0  0  0
  -21.4010   -6.5651   23.8229 C   0  0  0  0  0  0
  -21.3655   -5.6802   24.9191 C   0  0  0  0  0  0
  -21.6035   -4.3065   24.7239 C   0  0  0  0  0  0
  -21.8818   -3.8157   23.4364 C   0  0  0  0  0  0
  -21.9185   -4.6966   22.3424 C   0  0  0  0  0  0
  -22.7872  -13.5231   21.1831 C   0  0  0  0  0  0
  -22.1658   -4.2158   21.0991 F   0  0  0  0  0  0
  -21.5629   -3.4553   25.7753 F   0  0  0  0  0  0
  -30.0443  -13.2968   20.4443 N   0  0  0  0  0  0
  -26.3074  -12.9373   20.3439 N   0  0  0  0  0  0
  -25.9378  -11.6517   20.5819 N   0  0  0  0  0  0
  -22.0520  -12.8205   22.0379 N   0  0  0  0  0  0
  -25.4260  -15.1880   20.4007 N   0  0  0  0  0  0
  -31.8519  -14.6214   20.0711 O   0  0  0  0  0  0
  -21.6649   -6.8882   21.4254 O   0  0  0  0  0  0
  -22.3567  -14.5554   20.6710 O   0  0  0  0  0  0
  -24.6169  -31.8663   23.2155 C   0  0  0  0  0  0
  -25.9043  -32.4796   23.8472 C   0  0  1  0  0  0
  -27.2248  -27.3759   20.1178 C   0  0  0  0  0  0
  -25.5895  -33.8610   24.2358 N   0  0  0  0  0  0
  -23.4114  -30.4946   21.5524 C   0  0  2  0  0  0
  -24.8583  -28.9608   20.1263 C   0  0  0  0  0  0
  -22.7411  -29.4686   22.4952 C   0  0  0  0  0  0
  -18.0285  -28.1406   22.8505 C   0  0  0  0  0  0
  -24.1458  -36.7233   23.2658 C   0  0  0  0  0  0
  -25.9520  -30.8061   21.4001 C   0  0  0  0  0  0
  -26.0233  -29.4437   20.7345 C   0  0  0  0  0  0
  -27.2061  -28.6588   20.7345 C   0  0  0  0  0  0
  -26.0323  -26.9428   19.4785 C   0  0  0  0  0  0
  -24.8602  -27.7094   19.5024 C   0  0  0  0  0  0
  -23.6287  -29.8352   20.1672 C   0  0  0  0  0  0
  -25.4092  -36.3084   24.0360 C   0  0  1  0  0  0
  -20.5881  -28.3712   23.1257 C   0  0  2  0  0  0
  -20.6780  -26.9435   22.5404 C   0  0  0  0  0  0
  -19.5742  -26.6390   21.5224 C   0  0  0  0  0  0
  -18.1919  -26.7946   22.1631 C   0  0  0  0  0  0
  -19.1538  -28.8870   23.2891 C   0  0  0  0  0  0
  -18.9478  -30.1464   23.8916 C   0  0  0  0  0  0
  -17.6486  -30.6619   24.0569 C   0  0  0  0  0  0
  -25.9043  -34.9454   23.5155 C   0  0  0  0  0  0
  -16.5368  -29.9111   23.6365 C   0  0  0  0  0  0
  -16.7275  -28.6519   23.0398 C   0  0  0  0  0  0
  -26.4488  -31.6603   25.0814 C   0  0  0  0  0  0
  -25.3727  -31.3720   26.1528 C   0  0  0  0  0  0
  -27.0396  -30.3030   24.6344 C   0  0  0  0  0  0
  -27.6071  -32.4368   25.7509 C   0  0  0  0  0  0
  -27.5562  -37.1769   24.8476 C   0  0  0  0  0  0
  -21.4148  -29.3041   22.3614 N   0  0  0  0  0  0
  -26.4264  -37.3771   23.9438 N   0  0  0  0  0  0
  -24.6757  -31.0720   22.1115 N   0  0  0  0  0  0
  -23.4128  -28.8258   23.3063 O   0  0  0  0  0  0
  -28.3557  -26.5602   20.1532 O   0  0  0  0  0  0
  -26.5600  -34.8883   22.4718 O   0  0  0  0  0  0
  -23.5332  -32.1480   23.7451 O   0  0  0  0  0  0
  -30.5627  -19.3020   20.3601 C   0  0  0  0  0  0
  -31.6755  -18.7630   20.9756 C   0  0  0  0  0  0
  -30.3706  -16.8869   20.9212 C   0  0  0  0  0  0
  -30.3575  -20.6003   19.6594 C   0  0  0  0  0  0
  -29.2766  -24.1606   20.1607 C   0  0  0  0  0  0
  -32.9775  -19.4395   21.2796 C   0  0  0  0  0  0
  -28.0648  -25.1300   20.2238 C   0  0  0  0  0  0
  -29.0923  -22.7496   19.4795 C   0  0  2  0  0  0
  -27.6833  -22.4155   18.9209 C   0  0  0  0  0  0
  -31.5393  -17.4058   21.3121 N   0  0  0  0  0  0
  -30.0523  -15.5064   21.1019 N   0  0  0  0  0  0
  -29.6311  -21.5801   20.2362 N   0  0  0  0  0  0
  -30.8599  -20.7411   18.5433 O   0  0  0  0  0  0
  -30.3634  -24.5164   20.6354 O   0  0  0  0  0  0
  -27.3653  -23.2264   17.9127 F   0  0  0  0  0  0
  -26.7670  -22.5372   19.8825 F   0  0  0  0  0  0
  -27.6272  -21.1658   18.4537 F   0  0  0  0  0  0
  -29.2989  -18.0897   20.1886 S   0  0  0  0  0  0
  -31.4666  -12.3828   19.1177 H   0  0  0  0  0  0
  -30.3133  -11.2895   19.8136 H   0  0  0  0  0  0
  -29.7267  -11.7971   17.4206 H   0  0  0  0  0  0
  -29.6767  -13.5026   17.7808 H   0  0  0  0  0  0
  -27.8009  -11.3353   18.7862 H   0  0  0  0  0  0
  -27.3713  -12.7010   17.7906 H   0  0  0  0  0  0
  -27.7097  -14.2693   19.5972 H   0  0  0  0  0  0
  -28.6819  -11.9720   21.3549 H   0  0  0  0  0  0
  -28.4888  -13.6191   21.8733 H   0  0  0  0  0  0
  -25.2793   -9.5681   22.4775 H   0  0  0  0  0  0
  -24.0022   -7.4642   22.7494 H   0  0  0  0  0  0
  -21.0869   -8.8769   19.8973 H   0  0  0  0  0  0
  -22.3731  -10.9669   19.6177 H   0  0  0  0  0  0
  -21.2007   -7.6160   23.9737 H   0  0  0  0  0  0
  -21.1470   -6.0536   25.9090 H   0  0  0  0  0  0
  -22.0592   -2.7616   23.2870 H   0  0  0  0  0  0
  -22.4123  -11.9840   22.4733 H   0  0  0  0  0  0
  -21.1131  -13.1211   22.2595 H   0  0  0  0  0  0
  -24.6427  -15.8299   20.4645 H   0  0  0  0  0  0
  -26.2664  -15.6242   20.0439 H   0  0  0  0  0  0
  -26.7105  -32.5456   23.1224 H   0  0  0  0  0  0
  -25.0042  -33.9821   25.0500 H   0  0  0  0  0  0
  -22.7050  -31.3159   21.4087 H   0  0  0  0  0  0
  -23.3763  -35.9516   23.3310 H   0  0  0  0  0  0
  -24.3559  -36.8869   22.2079 H   0  0  0  0  0  0
  -23.7140  -37.6408   23.6669 H   0  0  0  0  0  0
  -26.1104  -31.5841   20.6526 H   0  0  0  0  0  0
  -26.8181  -30.8257   22.0513 H   0  0  0  0  0  0
  -28.0882  -29.0222   21.2450 H   0  0  0  0  0  0
  -25.9512  -26.0143   18.9375 H   0  0  0  0  0  0
  -23.9670  -27.3297   19.0295 H   0  0  0  0  0  0
  -23.7514  -30.6110   19.4106 H   0  0  0  0  0  0
  -22.7548  -29.2614   19.8572 H   0  0  0  0  0  0
  -25.1276  -36.1960   25.0856 H   0  0  0  0  0  0
  -21.0013  -28.3321   24.1362 H   0  0  0  0  0  0
  -20.5704  -26.2360   23.3637 H   0  0  0  0  0  0
  -21.6639  -26.7473   22.1170 H   0  0  0  0  0  0
  -19.6921  -25.6299   21.1262 H   0  0  0  0  0  0
  -19.6670  -27.3194   20.6744 H   0  0  0  0  0  0
  -17.4201  -26.6718   21.4023 H   0  0  0  0  0  0
  -18.0311  -26.0081   22.9013 H   0  0  0  0  0  0
  -19.7964  -30.7269   24.2277 H   0  0  0  0  0  0
  -17.5056  -31.6305   24.5148 H   0  0  0  0  0  0
  -15.5376  -30.3031   23.7691 H   0  0  0  0  0  0
  -15.8659  -28.0823   22.7157 H   0  0  0  0  0  0
  -24.5878  -30.7131   25.7796 H   0  0  0  0  0  0
  -24.8934  -32.2872   26.5006 H   0  0  0  0  0  0
  -25.8013  -30.8804   27.0265 H   0  0  0  0  0  0
  -26.3028  -29.6721   24.1349 H   0  0  0  0  0  0
  -27.4085  -29.7365   25.4908 H   0  0  0  0  0  0
  -27.8892  -30.4350   23.9637 H   0  0  0  0  0  0
  -27.2746  -33.3739   26.1984 H   0  0  0  0  0  0
  -28.3858  -32.6825   25.0273 H   0  0  0  0  0  0
  -28.0754  -31.8565   26.5477 H   0  0  0  0  0  0
  -28.2568  -38.0074   24.7530 H   0  0  0  0  0  0
  -28.1078  -36.2611   24.6282 H   0  0  0  0  0  0
  -27.2286  -37.1374   25.8880 H   0  0  0  0  0  0
  -20.9348  -29.8670   21.6723 H   0  0  0  0  0  0
  -26.0159  -38.2850   24.1456 H   0  0  0  0  0  0
  -32.8614  -20.1545   22.0919 H   0  0  0  0  0  0
  -33.3800  -19.9709   20.4169 H   0  0  0  0  0  0
  -33.7315  -18.7173   21.5945 H   0  0  0  0  0  0
  -27.5262  -24.9191   21.1480 H   0  0  0  0  0  0
  -27.4191  -24.8532   19.4050 H   0  0  0  0  0  0
  -29.6897  -22.8413   18.5752 H   0  0  0  0  0  0
  -29.1269  -15.2995   21.4413 H   0  0  0  0  0  0
  -29.2381  -21.3987   21.1496 H   0  0  0  0  0  0
  1 25  1  0  0  0
  1 30  2  0  0  0
  1 81  1  0  0  0
  2  3  1  0  0  0
  2 25  1  0  0  0
  2 89  1  0  0  0
  2 90  1  0  0  0
  3  4  1  0  0  0
  3 91  1  0  0  0
  3 92  1  0  0  0
  4  5  1  0  0  0
  4 93  1  0  0  0
  4 94  1  0  0  0
  5  6  1  0  0  0
  5 26  1  0  0  0
  5 95  1  0  0  0
  6 25  1  0  0  0
  6 96  1  0  0  0
  6 97  1  0  0  0
  7  8  2  0  0  0
  7 26  1  0  0  0
  7 29  1  0  0  0
  8  9  1  0  0  0
  8 22  1  0  0  0
  9 10  1  0  0  0
  9 27  2  0  0  0
 10 11  2  0  0  0
 10 15  1  0  0  0
 11 12  1  0  0  0
 11 98  1  0  0  0
 12 13  2  0  0  0
 12 99  1  0  0  0
 13 14  1  0  0  0
 13 31  1  0  0  0
 14 15  2  0  0  0
 14100  1  0  0  0
 15101  1  0  0  0
 16 17  2  0  0  0
 16 21  1  0  0  0
 16 31  1  0  0  0
 17 18  1  0  0  0
 17102  1  0  0  0
 18 19  2  0  0  0
 18103  1  0  0  0
 19 20  1  0  0  0
 19 24  1  0  0  0
 20 21  2  0  0  0
 20104  1  0  0  0
 21 23  1  0  0  0
 22 28  1  0  0  0
 22 32  2  0  0  0
 26 27  1  0  0  0
 28105  1  0  0  0
 28106  1  0  0  0
 29107  1  0  0  0
 29108  1  0  0  0
 33 34  1  0  0  0
 33 66  1  0  0  0
 33 70  2  0  0  0
 34 36  1  0  0  0
 34 59  1  0  0  0
 34109  1  0  0  0
 35 44  2  0  0  0
 35 45  1  0  0  0
 35 68  1  0  0  0
 36 56  1  0  0  0
 36110  1  0  0  0
 37 39  1  0  0  0
 37 47  1  0  0  0
 37 66  1  0  0  0
 37111  1  0  0  0
 38 43  2  0  0  0
 38 46  1  0  0  0
 38 47  1  0  0  0
 39 64  1  0  0  0
 39 67  2  0  0  0
 40 52  1  0  0  0
 40 53  2  0  0  0
 40 58  1  0  0  0
 41112  1  0  0  0
 41113  1  0  0  0
 41114  1  0  0  0
 41 48  1  0  0  0
 42 43  1  0  0  0
 42 66  1  0  0  0
 42115  1  0  0  0
 42116  1  0  0  0
 43 44  1  0  0  0
 44117  1  0  0  0
 45 46  2  0  0  0
 45118  1  0  0  0
 46119  1  0  0  0
 47120  1  0  0  0
 47121  1  0  0  0
 48 56  1  0  0  0
 48 65  1  0  0  0
 48122  1  0  0  0
 49 50  1  0  0  0
 49 53  1  0  0  0
 49 64  1  0  0  0
 49123  1  0  0  0
 50 51  1  0  0  0
 50124  1  0  0  0
 50125  1  0  0  0
 51 52  1  0  0  0
 51126  1  0  0  0
 51127  1  0  0  0
 52128  1  0  0  0
 52129  1  0  0  0
 53 54  1  0  0  0
 54 55  2  0  0  0
 54130  1  0  0  0
 55 57  1  0  0  0
 55131  1  0  0  0
 56 69  2  0  0  0
 57 58  2  0  0  0
 57132  1  0  0  0
 58133  1  0  0  0
 59 60  1  0  0  0
 59 61  1  0  0  0
 59 62  1  0  0  0
 60134  1  0  0  0
 60135  1  0  0  0
 60136  1  0  0  0
 61137  1  0  0  0
 61138  1  0  0  0
 61139  1  0  0  0
 62140  1  0  0  0
 62141  1  0  0  0
 62142  1  0  0  0
 63 65  1  0  0  0
 63143  1  0  0  0
 63144  1  0  0  0
 63145  1  0  0  0
 64146  1  0  0  0
 65147  1  0  0  0
 68 77  1  0  0  0
 71 72  2  0  0  0
 71 74  1  0  0  0
 71 88  1  0  0  0
 72 76  1  0  0  0
 72 80  1  0  0  0
 73 80  2  0  0  0
 73 81  1  0  0  0
 73 88  1  0  0  0
 74 82  1  0  0  0
 74 83  2  0  0  0
 75 77  1  0  0  0
 75 78  1  0  0  0
 75 84  2  0  0  0
 76148  1  0  0  0
 76149  1  0  0  0
 76150  1  0  0  0
 77151  1  0  0  0
 77152  1  0  0  0
 78 79  1  0  0  0
 78 82  1  0  0  0
 78153  1  0  0  0
 79 85  1  0  0  0
 79 86  1  0  0  0
 79 87  1  0  0  0
 81154  1  0  0  0
 82155  1  0  0  0
M  ISO  4   1 100  68 101  77 101  81 100
M  END
> <chiral flag>
0

> <version>
0

> <s_m_source_file>
/data/baiqing/PycharmProjects/Reinvent-master-3.2/result/LINK_invent/BTK/process_docking_weight1_custom_product_contain_oxygen_bond_distance_aromatic_linkinvent_7_9_3/rearranged_h_0178.sdf

> <i_m_source_file_index>
43

> <r_mmod_Potential_Energy-OPLS-2005>
-219.978942871094

> <r_mmod_Stretch_Energy-OPLS-2005>
47.8186225891113

> <r_mmod_Bend_Energy-OPLS-2005>
113.269073486328

> <r_mmod_Torsional_Energy-OPLS-2005>
262.691009521484

> <r_mmod_Improper_Torsional_Energy-OPLS-2005>
5.70819854736328

> <r_mmod_Van_der_Waal_Energy-OPLS-2005>
142.293487548828

> <r_mmod_Electrostatic_Energy-OPLS-2005>
-549.87109375

> <r_mmod_Solvation_Energy-OPLS-2005>
-263.027038574219

> <b_mmod_Minimization_Converged-OPLS-2005>
0

> <r_mmod_RMS_Derivative-OPLS-2005>
4.59168529510498

$$$$
43
                    3D
 Structure written by MMmdl.
154162  0  0  1  0            999 V2000
  -30.6136  -14.7576   20.4755 C   0  0  0  0  0  0
  -30.4349  -12.4688   19.4574 C   0  0  0  0  0  0
  -29.5029  -12.4952   18.2249 C   0  0  0  0  0  0
  -28.0322  -12.3104   18.6481 C   0  0  0  0  0  0
  -27.6339  -13.2204   19.8394 C   0  0  2  0  0  0
  -28.6840  -13.1672   20.9712 C   0  0  0  0  0  0
  -25.2487  -13.8159   20.5684 C   0  0  0  0  0  0
  -24.1791  -13.0418   20.9248 C   0  0  0  0  0  0
  -24.6374  -11.6895   20.8776 C   0  0  0  0  0  0
  -23.9057  -10.4275   21.0427 C   0  0  0  0  0  0
  -24.3612   -9.4187   21.9197 C   0  0  0  0  0  0
  -23.6284   -8.2225   22.0760 C   0  0  0  0  0  0
  -22.4267   -8.0270   21.3548 C   0  0  0  0  0  0
  -21.9905   -9.0246   20.4653 C   0  0  0  0  0  0
  -22.7235  -10.2124   20.3068 C   0  0  0  0  0  0
  -21.6844   -6.0730   22.5280 C   0  0  0  0  0  0
  -21.4009   -6.5639   23.8212 C   0  0  0  0  0  0
  -21.3658   -5.6794   24.9177 C   0  0  0  0  0  0
  -21.6043   -4.3056   24.7230 C   0  0  0  0  0  0
  -21.8818   -3.8146   23.4351 C   0  0  0  0  0  0
  -21.9190   -4.6959   22.3405 C   0  0  0  0  0  0
  -22.7815  -13.5211   21.1895 C   0  0  0  0  0  0
  -22.1660   -4.2144   21.0983 F   0  0  0  0  0  0
  -21.5631   -3.4542   25.7743 F   0  0  0  0  0  0
  -29.9780  -13.5350   20.3786 N   0  0  0  0  0  0
  -26.2887  -12.9342   20.3230 N   0  0  0  0  0  0
  -25.9291  -11.6506   20.5754 N   0  0  0  0  0  0
  -22.0450  -12.8204   22.0442 N   0  0  0  0  0  0
  -25.4147  -15.1887   20.4043 N   0  0  0  0  0  0
  -31.8254  -14.8238   20.2217 O   0  0  0  0  0  0
  -21.6631   -6.8868   21.4240 O   0  0  0  0  0  0
  -22.3516  -14.5519   20.6732 O   0  0  0  0  0  0
  -24.6298  -31.8551   23.1971 C   0  0  0  0  0  0
  -25.9122  -32.4759   23.8322 C   0  0  1  0  0  0
  -27.2254  -27.2718   20.1431 C   0  0  0  0  0  0
  -25.5914  -33.8559   24.2247 N   0  0  0  0  0  0
  -23.4269  -30.4746   21.5409 C   0  0  2  0  0  0
  -24.8758  -28.9126   20.1195 C   0  0  0  0  0  0
  -22.7494  -29.4597   22.4929 C   0  0  0  0  0  0
  -18.0287  -28.1387   22.8484 C   0  0  0  0  0  0
  -24.1488  -36.7289   23.2640 C   0  0  0  0  0  0
  -25.9698  -30.7732   21.3718 C   0  0  0  0  0  0
  -26.0460  -29.3923   20.7226 C   0  0  0  0  0  0
  -27.2279  -28.5860   20.7171 C   0  0  0  0  0  0
  -26.0337  -26.8450   19.5254 C   0  0  0  0  0  0
  -24.8731  -27.6462   19.5102 C   0  0  0  0  0  0
  -23.6457  -29.7998   20.1604 C   0  0  0  0  0  0
  -25.4117  -36.3076   24.0326 C   0  0  1  0  0  0
  -20.5889  -28.3691   23.1280 C   0  0  2  0  0  0
  -20.6774  -26.9410   22.5412 C   0  0  0  0  0  0
  -19.5750  -26.6385   21.5213 C   0  0  0  0  0  0
  -18.1932  -26.7930   22.1626 C   0  0  0  0  0  0
  -19.1540  -28.8858   23.2877 C   0  0  0  0  0  0
  -18.9461  -30.1461   23.8890 C   0  0  0  0  0  0
  -17.6459  -30.6587   24.0563 C   0  0  0  0  0  0
  -25.9052  -34.9444   23.5094 C   0  0  0  0  0  0
  -16.5352  -29.9084   23.6331 C   0  0  0  0  0  0
  -16.7274  -28.6505   23.0349 C   0  0  0  0  0  0
  -26.4492  -31.6586   25.0710 C   0  0  0  0  0  0
  -25.3713  -31.3731   26.1430 C   0  0  0  0  0  0
  -27.0336  -30.3009   24.6181 C   0  0  0  0  0  0
  -27.6047  -32.4325   25.7484 C   0  0  0  0  0  0
  -27.5581  -37.1802   24.8467 C   0  0  0  0  0  0
  -21.4203  -29.3040   22.3674 N   0  0  0  0  0  0
  -26.4295  -37.3775   23.9407 N   0  0  0  0  0  0
  -24.6948  -31.0523   22.0938 N   0  0  0  0  0  0
  -23.4199  -28.8140   23.3028 O   0  0  0  0  0  0
  -28.3337  -26.4052   20.1115 O   0  0  0  0  0  0
  -26.5634  -34.8923   22.4669 O   0  0  0  0  0  0
  -23.5450  -32.1359   23.7276 O   0  0  0  0  0  0
  -31.4200  -18.8130   22.2910 C   0  0  0  0  0  0
  -29.7129  -19.8575   20.8589 C   0  0  0  0  0  0
  -30.7171  -19.9570   21.8608 C   0  0  0  0  0  0
  -29.4293  -18.4885   20.4186 C   0  0  0  0  0  0
  -30.1561  -17.3159   20.9101 C   0  0  0  0  0  0
  -28.4263  -23.7146   20.0782 C   0  0  0  0  0  0
  -30.7876  -22.8314   20.0333 C   0  0  0  0  0  0
  -28.2771  -25.1083   20.8620 C   0  0  0  0  0  0
  -29.3932  -22.5211   20.6216 C   0  0  2  0  0  0
  -31.1384  -17.5776   21.8126 N   0  3  0  0  0  0
  -29.0340  -21.0576   20.3552 N   0  0  0  0  0  0
  -29.8288  -15.9030   20.5811 N   0  0  0  0  0  0
  -27.7844  -23.5539   19.0362 O   0  0  0  0  0  0
  -31.0209  -21.1384   22.4518 F   0  0  0  0  0  0
  -28.4393  -18.2980   19.5103 F   0  0  0  0  0  0
  -31.4712  -12.6068   19.1441 H   0  0  0  0  0  0
  -30.3991  -11.4952   19.9496 H   0  0  0  0  0  0
  -29.7879  -11.7133   17.5195 H   0  0  0  0  0  0
  -29.6164  -13.4409   17.6923 H   0  0  0  0  0  0
  -27.9024  -11.2638   18.9275 H   0  0  0  0  0  0
  -27.3678  -12.4810   17.7999 H   0  0  0  0  0  0
  -27.6170  -14.2340   19.4404 H   0  0  0  0  0  0
  -28.7319  -12.1680   21.4082 H   0  0  0  0  0  0
  -28.4116  -13.8399   21.7866 H   0  0  0  0  0  0
  -25.2755   -9.5659   22.4778 H   0  0  0  0  0  0
  -23.9992   -7.4612   22.7475 H   0  0  0  0  0  0
  -21.0840   -8.8766   19.8954 H   0  0  0  0  0  0
  -22.3697  -10.9669   19.6182 H   0  0  0  0  0  0
  -21.1996   -7.6146   23.9715 H   0  0  0  0  0  0
  -21.1484   -6.0526   25.9080 H   0  0  0  0  0  0
  -22.0598   -2.7608   23.2854 H   0  0  0  0  0  0
  -22.4057  -11.9854   22.4817 H   0  0  0  0  0  0
  -21.1069  -13.1234   22.2646 H   0  0  0  0  0  0
  -24.6238  -15.8182   20.4913 H   0  0  0  0  0  0
  -26.2025  -15.6200   19.9413 H   0  0  0  0  0  0
  -26.7191  -32.5422   23.1068 H   0  0  0  0  0  0
  -25.0045  -33.9693   25.0382 H   0  0  0  0  0  0
  -22.7228  -31.2959   21.3911 H   0  0  0  0  0  0
  -23.3752  -35.9620   23.3303 H   0  0  0  0  0  0
  -24.3575  -36.8913   22.2055 H   0  0  0  0  0  0
  -23.7240  -37.6489   23.6664 H   0  0  0  0  0  0
  -26.0997  -31.5296   20.5966 H   0  0  0  0  0  0
  -26.8504  -30.8309   21.9999 H   0  0  0  0  0  0
  -28.1315  -28.9555   21.1816 H   0  0  0  0  0  0
  -26.0001  -25.8720   19.0552 H   0  0  0  0  0  0
  -23.9761  -27.2731   19.0352 H   0  0  0  0  0  0
  -23.7702  -30.5709   19.3993 H   0  0  0  0  0  0
  -22.7648  -29.2303   19.8585 H   0  0  0  0  0  0
  -25.1301  -36.1925   25.0819 H   0  0  0  0  0  0
  -20.9980  -28.3267   24.1401 H   0  0  0  0  0  0
  -20.5670  -26.2301   23.3614 H   0  0  0  0  0  0
  -21.6644  -26.7435   22.1208 H   0  0  0  0  0  0
  -19.6911  -25.6295   21.1244 H   0  0  0  0  0  0
  -19.6689  -27.3195   20.6743 H   0  0  0  0  0  0
  -17.4201  -26.6673   21.4032 H   0  0  0  0  0  0
  -18.0335  -26.0074   22.9024 H   0  0  0  0  0  0
  -19.7936  -30.7282   24.2257 H   0  0  0  0  0  0
  -17.5011  -31.6266   24.5167 H   0  0  0  0  0  0
  -15.5352  -30.2982   23.7659 H   0  0  0  0  0  0
  -15.8676  -28.0826   22.7059 H   0  0  0  0  0  0
  -24.5895  -30.7071   25.7754 H   0  0  0  0  0  0
  -24.8889  -32.2893   26.4842 H   0  0  0  0  0  0
  -25.8026  -30.8917   27.0214 H   0  0  0  0  0  0
  -26.2914  -29.6760   24.1202 H   0  0  0  0  0  0
  -27.4022  -29.7272   25.4694 H   0  0  0  0  0  0
  -27.8786  -30.4294   23.9412 H   0  0  0  0  0  0
  -27.2661  -33.3633   26.2045 H   0  0  0  0  0  0
  -28.3866  -32.6870   25.0318 H   0  0  0  0  0  0
  -28.0702  -31.8457   26.5412 H   0  0  0  0  0  0
  -28.2604  -38.0095   24.7512 H   0  0  0  0  0  0
  -28.1072  -36.2626   24.6298 H   0  0  0  0  0  0
  -27.2295  -37.1460   25.8869 H   0  0  0  0  0  0
  -20.9391  -29.8759   21.6872 H   0  0  0  0  0  0
  -26.0175  -38.2851   24.1402 H   0  0  0  0  0  0
  -32.1974  -18.8702   23.0419 H   0  0  0  0  0  0
  -31.1043  -23.8451   20.2836 H   0  0  0  0  0  0
  -30.7811  -22.7539   18.9454 H   0  0  0  0  0  0
  -31.5699  -22.1674   20.3945 H   0  0  0  0  0  0
  -29.0651  -25.1403   21.6145 H   0  0  0  0  0  0
  -27.3415  -25.0676   21.4204 H   0  0  0  0  0  0
  -29.4392  -22.6424   21.7042 H   0  0  0  0  0  0
  -31.6825  -16.7980   22.1942 H   0  0  0  0  0  0
  -28.3037  -20.8932   19.6714 H   0  0  0  0  0  0
  -28.8481  -15.7322   20.4593 H   0  0  0  0  0  0
  1 25  1  0  0  0
  1 30  2  0  0  0
  1 82  1  0  0  0
  2  3  1  0  0  0
  2 25  1  0  0  0
  2 86  1  0  0  0
  2 87  1  0  0  0
  3  4  1  0  0  0
  3 88  1  0  0  0
  3 89  1  0  0  0
  4  5  1  0  0  0
  4 90  1  0  0  0
  4 91  1  0  0  0
  5  6  1  0  0  0
  5 26  1  0  0  0
  5 92  1  0  0  0
  6 25  1  0  0  0
  6 93  1  0  0  0
  6 94  1  0  0  0
  7  8  2  0  0  0
  7 26  1  0  0  0
  7 29  1  0  0  0
  8  9  1  0  0  0
  8 22  1  0  0  0
  9 10  1  0  0  0
  9 27  2  0  0  0
 10 11  2  0  0  0
 10 15  1  0  0  0
 11 12  1  0  0  0
 11 95  1  0  0  0
 12 13  2  0  0  0
 12 96  1  0  0  0
 13 14  1  0  0  0
 13 31  1  0  0  0
 14 15  2  0  0  0
 14 97  1  0  0  0
 15 98  1  0  0  0
 16 17  2  0  0  0
 16 21  1  0  0  0
 16 31  1  0  0  0
 17 18  1  0  0  0
 17 99  1  0  0  0
 18 19  2  0  0  0
 18100  1  0  0  0
 19 20  1  0  0  0
 19 24  1  0  0  0
 20 21  2  0  0  0
 20101  1  0  0  0
 21 23  1  0  0  0
 22 28  1  0  0  0
 22 32  2  0  0  0
 26 27  1  0  0  0
 28102  1  0  0  0
 28103  1  0  0  0
 29104  1  0  0  0
 29105  1  0  0  0
 33 34  1  0  0  0
 33 66  1  0  0  0
 33 70  2  0  0  0
 34 36  1  0  0  0
 34 59  1  0  0  0
 34106  1  0  0  0
 35 44  2  0  0  0
 35 45  1  0  0  0
 35 68  1  0  0  0
 36 56  1  0  0  0
 36107  1  0  0  0
 37 39  1  0  0  0
 37 47  1  0  0  0
 37 66  1  0  0  0
 37108  1  0  0  0
 38 43  2  0  0  0
 38 46  1  0  0  0
 38 47  1  0  0  0
 39 64  1  0  0  0
 39 67  2  0  0  0
 40 52  1  0  0  0
 40 53  2  0  0  0
 40 58  1  0  0  0
 41109  1  0  0  0
 41110  1  0  0  0
 41111  1  0  0  0
 41 48  1  0  0  0
 42 43  1  0  0  0
 42 66  1  0  0  0
 42112  1  0  0  0
 42113  1  0  0  0
 43 44  1  0  0  0
 44114  1  0  0  0
 45 46  2  0  0  0
 45115  1  0  0  0
 46116  1  0  0  0
 47117  1  0  0  0
 47118  1  0  0  0
 48 56  1  0  0  0
 48 65  1  0  0  0
 48119  1  0  0  0
 49 50  1  0  0  0
 49 53  1  0  0  0
 49 64  1  0  0  0
 49120  1  0  0  0
 50 51  1  0  0  0
 50121  1  0  0  0
 50122  1  0  0  0
 51 52  1  0  0  0
 51123  1  0  0  0
 51124  1  0  0  0
 52125  1  0  0  0
 52126  1  0  0  0
 53 54  1  0  0  0
 54 55  2  0  0  0
 54127  1  0  0  0
 55 57  1  0  0  0
 55128  1  0  0  0
 56 69  2  0  0  0
 57 58  2  0  0  0
 57129  1  0  0  0
 58130  1  0  0  0
 59 60  1  0  0  0
 59 61  1  0  0  0
 59 62  1  0  0  0
 60131  1  0  0  0
 60132  1  0  0  0
 60133  1  0  0  0
 61134  1  0  0  0
 61135  1  0  0  0
 61136  1  0  0  0
 62137  1  0  0  0
 62138  1  0  0  0
 62139  1  0  0  0
 63 65  1  0  0  0
 63140  1  0  0  0
 63141  1  0  0  0
 63142  1  0  0  0
 64143  1  0  0  0
 65144  1  0  0  0
 68 78  1  0  0  0
 71 73  2  0  0  0
 71 80  1  0  0  0
 71145  1  0  0  0
 72 73  1  0  0  0
 72 74  2  0  0  0
 72 81  1  0  0  0
 73 84  1  0  0  0
 74 75  1  0  0  0
 74 85  1  0  0  0
 75 80  2  0  0  0
 75 82  1  0  0  0
 76 78  1  0  0  0
 76 79  1  0  0  0
 76 83  2  0  0  0
 77146  1  0  0  0
 77147  1  0  0  0
 77148  1  0  0  0
 77 79  1  0  0  0
 78149  1  0  0  0
 78150  1  0  0  0
 79 81  1  0  0  0
 79151  1  0  0  0
 80152  1  0  0  0
 81153  1  0  0  0
 82154  1  0  0  0
M  CHG  1  80   1
M  ISO  4   1 100  68 101  78 101  82 100
M  END
> <chiral flag>
0

> <version>
0

> <s_m_source_file>
/data/baiqing/PycharmProjects/Reinvent-master-3.2/result/LINK_invent/BTK/process_docking_weight1_custom_product_contain_oxygen_bond_distance_aromatic_linkinvent_7_9_3/rearranged_h_0178.sdf

> <i_m_source_file_index>
44

> <r_mmod_Potential_Energy-OPLS-2005>
225.463317871094

> <r_mmod_Stretch_Energy-OPLS-2005>
132.604110717773

> <r_mmod_Bend_Energy-OPLS-2005>
171.922653198242

> <r_mmod_Torsional_Energy-OPLS-2005>
240.586654663086

> <r_mmod_Improper_Torsional_Energy-OPLS-2005>
7.56872415542603

> <r_mmod_Van_der_Waal_Energy-OPLS-2005>
134.404281616211

> <r_mmod_Electrostatic_Energy-OPLS-2005>
-85.8456802368164

> <r_mmod_Solvation_Energy-OPLS-2005>
-459.583679199219

> <b_mmod_Minimization_Converged-OPLS-2005>
0

> <r_mmod_RMS_Derivative-OPLS-2005>
0.604434013366699

$$$$
44
                    3D
 Structure written by MMmdl.
159167  0  0  1  0            999 V2000
  -30.6889  -14.4075   20.6340 C   0  0  0  0  0  0
  -30.4361  -12.2786   19.4184 C   0  0  0  0  0  0
  -29.5048  -12.5037   18.2089 C   0  0  0  0  0  0
  -28.0211  -12.3822   18.6122 C   0  0  0  0  0  0
  -27.6746  -13.1956   19.8888 C   0  0  2  0  0  0
  -28.7067  -12.9072   21.0029 C   0  0  0  0  0  0
  -25.2658  -13.8143   20.5662 C   0  0  0  0  0  0
  -24.1890  -13.0448   20.9171 C   0  0  0  0  0  0
  -24.6417  -11.6899   20.8735 C   0  0  0  0  0  0
  -23.9072  -10.4296   21.0417 C   0  0  0  0  0  0
  -24.3625   -9.4214   21.9197 C   0  0  0  0  0  0
  -23.6300   -8.2251   22.0758 C   0  0  0  0  0  0
  -22.4277   -8.0295   21.3553 C   0  0  0  0  0  0
  -21.9917   -9.0270   20.4649 C   0  0  0  0  0  0
  -22.7250  -10.2147   20.3058 C   0  0  0  0  0  0
  -21.6849   -6.0743   22.5288 C   0  0  0  0  0  0
  -21.4011   -6.5640   23.8225 C   0  0  0  0  0  0
  -21.3658   -5.6785   24.9183 C   0  0  0  0  0  0
  -21.6045   -4.3050   24.7226 C   0  0  0  0  0  0
  -21.8821   -3.8153   23.4344 C   0  0  0  0  0  0
  -21.9191   -4.6973   22.3407 C   0  0  0  0  0  0
  -22.7908  -13.5268   21.1834 C   0  0  0  0  0  0
  -22.1660   -4.2166   21.0981 F   0  0  0  0  0  0
  -21.5631   -3.4530   25.7733 F   0  0  0  0  0  0
  -30.0506  -13.2196   20.4799 N   0  0  0  0  0  0
  -26.3088  -12.9288   20.3385 N   0  0  0  0  0  0
  -25.9335  -11.6458   20.5758 N   0  0  0  0  0  0
  -22.0516  -12.8277   22.0377 N   0  0  0  0  0  0
  -25.4421  -15.1854   20.4027 N   0  0  0  0  0  0
  -31.7356  -14.7091   20.0515 O   0  0  0  0  0  0
  -21.6636   -6.8893   21.4252 O   0  0  0  0  0  0
  -22.3609  -14.5585   20.6680 O   0  0  0  0  0  0
  -24.6121  -31.8702   23.2125 C   0  0  0  0  0  0
  -25.9033  -32.4833   23.8395 C   0  0  1  0  0  0
  -27.2375  -27.4640   20.1018 C   0  0  0  0  0  0
  -25.5914  -33.8633   24.2352 N   0  0  0  0  0  0
  -23.3967  -30.4921   21.5535 C   0  0  2  0  0  0
  -24.8440  -28.9500   20.1252 C   0  0  0  0  0  0
  -22.7362  -29.4683   22.5033 C   0  0  0  0  0  0
  -18.0235  -28.1419   22.8422 C   0  0  0  0  0  0
  -24.1477  -36.7309   23.2638 C   0  0  0  0  0  0
  -25.9197  -30.8420   21.3593 C   0  0  0  0  0  0
  -25.9988  -29.4703   20.7263 C   0  0  0  0  0  0
  -27.2001  -28.7307   20.7209 C   0  0  0  0  0  0
  -26.0752  -26.9472   19.4963 C   0  0  0  0  0  0
  -24.8743  -27.6828   19.5123 C   0  0  0  0  0  0
  -23.6049  -29.8173   20.1695 C   0  0  0  0  0  0
  -25.4100  -36.3125   24.0350 C   0  0  1  0  0  0
  -20.5828  -28.3663   23.1305 C   0  0  2  0  0  0
  -20.6754  -26.9426   22.5350 C   0  0  0  0  0  0
  -19.5743  -26.6417   21.5141 C   0  0  0  0  0  0
  -18.1866  -26.8038   22.1416 C   0  0  0  0  0  0
  -19.1489  -28.8838   23.2896 C   0  0  0  0  0  0
  -18.9416  -30.1421   23.8953 C   0  0  0  0  0  0
  -17.6426  -30.6564   24.0625 C   0  0  0  0  0  0
  -25.9026  -34.9489   23.5137 C   0  0  0  0  0  0
  -16.5318  -29.9105   23.6335 C   0  0  0  0  0  0
  -16.7235  -28.6558   23.0264 C   0  0  0  0  0  0
  -26.4499  -31.6569   25.0681 C   0  0  0  0  0  0
  -25.3798  -31.3622   26.1442 C   0  0  0  0  0  0
  -27.0333  -30.3030   24.5988 C   0  0  0  0  0  0
  -27.6098  -32.4250   25.7433 C   0  0  0  0  0  0
  -27.5581  -37.1821   24.8481 C   0  0  0  0  0  0
  -21.4089  -29.3074   22.3765 N   0  0  0  0  0  0
  -26.4299  -37.3804   23.9419 N   0  0  0  0  0  0
  -24.6611  -31.0812   22.1016 N   0  0  0  0  0  0
  -23.4125  -28.8217   23.3073 O   0  0  0  0  0  0
  -28.4131  -26.7686   20.0058 O   0  0  0  0  0  0
  -26.5571  -34.8928   22.4687 O   0  0  0  0  0  0
  -23.5335  -32.1445   23.7548 O   0  0  0  0  0  0
  -28.7478  -17.2997   21.8985 C   0  0  0  0  0  0
  -29.4108  -16.8701   19.6188 C   0  0  0  0  0  0
  -29.4444  -16.4902   20.9793 C   0  0  0  0  0  0
  -28.0070  -18.4056   21.4354 C   0  0  0  0  0  0
  -27.9691  -18.6575   20.0413 C   0  0  0  0  0  0
  -26.3937  -22.8795   20.5249 C   0  0  0  0  0  0
  -27.0299  -23.9854   21.3650 C   0  0  0  0  0  0
  -28.3754  -24.4567   20.7750 C   0  0  0  0  0  0
  -26.0154  -20.4380   20.2493 C   0  0  0  0  0  0
  -28.7317  -25.9195   21.1022 C   0  0  0  0  0  0
  -27.0847  -19.7302   19.3773 C   0  0  0  0  0  0
  -28.6881  -17.9119   19.1633 N   0  0  0  0  0  0
  -30.0568  -15.2823   21.4309 N   0  0  0  0  0  0
  -26.5211  -21.6185   20.9569 N   0  0  0  0  0  0
  -25.7907  -23.1738   19.4915 O   0  0  0  0  0  0
  -27.3350  -19.1721   22.3281 F   0  0  0  0  0  0
  -27.8643  -20.6402   18.7863 F   0  0  0  0  0  0
  -26.3977  -19.1139   18.4120 F   0  0  0  0  0  0
  -31.4794  -12.3987   19.1190 H   0  0  0  0  0  0
  -30.3528  -11.2537   19.7853 H   0  0  0  0  0  0
  -29.7376  -11.7833   17.4225 H   0  0  0  0  0  0
  -29.6968  -13.4903   17.7842 H   0  0  0  0  0  0
  -27.8051  -11.3248   18.7737 H   0  0  0  0  0  0
  -27.3835  -12.6958   17.7854 H   0  0  0  0  0  0
  -27.7395  -14.2534   19.6335 H   0  0  0  0  0  0
  -28.6704  -11.8528   21.2796 H   0  0  0  0  0  0
  -28.4570  -13.4426   21.9195 H   0  0  0  0  0  0
  -25.2771   -9.5679   22.4774 H   0  0  0  0  0  0
  -24.0010   -7.4630   22.7464 H   0  0  0  0  0  0
  -21.0852   -8.8796   19.8944 H   0  0  0  0  0  0
  -22.3732  -10.9690   19.6164 H   0  0  0  0  0  0
  -21.2001   -7.6144   23.9747 H   0  0  0  0  0  0
  -21.1477   -6.0501   25.9091 H   0  0  0  0  0  0
  -22.0605   -2.7617   23.2833 H   0  0  0  0  0  0
  -22.4079  -11.9913   22.4756 H   0  0  0  0  0  0
  -21.1147  -13.1344   22.2571 H   0  0  0  0  0  0
  -24.6720  -15.8380   20.4980 H   0  0  0  0  0  0
  -26.2823  -15.6092   20.0325 H   0  0  0  0  0  0
  -26.7098  -32.5589   23.1172 H   0  0  0  0  0  0
  -25.0163  -33.9805   25.0557 H   0  0  0  0  0  0
  -22.6858  -31.3091   21.4129 H   0  0  0  0  0  0
  -23.3746  -35.9637   23.3319 H   0  0  0  0  0  0
  -24.3567  -36.8894   22.2049 H   0  0  0  0  0  0
  -23.7219  -37.6525   23.6611 H   0  0  0  0  0  0
  -26.0141  -31.5950   20.5755 H   0  0  0  0  0  0
  -26.8158  -30.9145   21.9636 H   0  0  0  0  0  0
  -28.0964  -29.1329   21.1722 H   0  0  0  0  0  0
  -26.1078  -25.9843   19.0046 H   0  0  0  0  0  0
  -23.9904  -27.2759   19.0414 H   0  0  0  0  0  0
  -23.7173  -30.5904   19.4087 H   0  0  0  0  0  0
  -22.7267  -29.2388   19.8756 H   0  0  0  0  0  0
  -25.1273  -36.2005   25.0847 H   0  0  0  0  0  0
  -20.9904  -28.3182   24.1425 H   0  0  0  0  0  0
  -20.5690  -26.2240   23.3495 H   0  0  0  0  0  0
  -21.6622  -26.7552   22.1102 H   0  0  0  0  0  0
  -19.6877  -25.6332   21.1169 H   0  0  0  0  0  0
  -19.6750  -27.3204   20.6665 H   0  0  0  0  0  0
  -17.4245  -26.7021   21.3673 H   0  0  0  0  0  0
  -18.0049  -26.0074   22.8631 H   0  0  0  0  0  0
  -19.7893  -30.7226   24.2343 H   0  0  0  0  0  0
  -17.4990  -31.6202   24.5321 H   0  0  0  0  0  0
  -15.5327  -30.3019   23.7678 H   0  0  0  0  0  0
  -15.8622  -28.0952   22.6883 H   0  0  0  0  0  0
  -24.6026  -30.6899   25.7770 H   0  0  0  0  0  0
  -24.8933  -32.2753   26.4870 H   0  0  0  0  0  0
  -25.8205  -30.8821   27.0190 H   0  0  0  0  0  0
  -26.2839  -29.6759   24.1152 H   0  0  0  0  0  0
  -27.4272  -29.7286   25.4380 H   0  0  0  0  0  0
  -27.8574  -30.4369   23.8987 H   0  0  0  0  0  0
  -27.2762  -33.3561   26.2016 H   0  0  0  0  0  0
  -28.3915  -32.6777   25.0252 H   0  0  0  0  0  0
  -28.0758  -31.8353   26.5347 H   0  0  0  0  0  0
  -28.2636  -38.0089   24.7524 H   0  0  0  0  0  0
  -28.1056  -36.2636   24.6318 H   0  0  0  0  0  0
  -27.2305  -37.1476   25.8889 H   0  0  0  0  0  0
  -20.9222  -29.8832   21.7032 H   0  0  0  0  0  0
  -26.0199  -38.2891   24.1402 H   0  0  0  0  0  0
  -28.7439  -17.0589   22.9520 H   0  0  0  0  0  0
  -29.9068  -16.2926   18.8535 H   0  0  0  0  0  0
  -27.1630  -23.6557   22.3956 H   0  0  0  0  0  0
  -26.3229  -24.8154   21.4020 H   0  0  0  0  0  0
  -28.4100  -24.3166   19.6923 H   0  0  0  0  0  0
  -29.1555  -23.8049   21.1725 H   0  0  0  0  0  0
  -25.5378  -19.7435   20.9383 H   0  0  0  0  0  0
  -25.1999  -20.7526   19.5976 H   0  0  0  0  0  0
  -29.8114  -25.9974   21.2365 H   0  0  0  0  0  0
  -28.2821  -26.2537   22.0397 H   0  0  0  0  0  0
  -29.5559  -14.8373   22.1870 H   0  0  0  0  0  0
  -27.0341  -21.4461   21.8115 H   0  0  0  0  0  0
  1 25  1  0  0  0
  1 30  2  0  0  0
  1 83  1  0  0  0
  2  3  1  0  0  0
  2 25  1  0  0  0
  2 89  1  0  0  0
  2 90  1  0  0  0
  3  4  1  0  0  0
  3 91  1  0  0  0
  3 92  1  0  0  0
  4  5  1  0  0  0
  4 93  1  0  0  0
  4 94  1  0  0  0
  5  6  1  0  0  0
  5 26  1  0  0  0
  5 95  1  0  0  0
  6 25  1  0  0  0
  6 96  1  0  0  0
  6 97  1  0  0  0
  7  8  2  0  0  0
  7 26  1  0  0  0
  7 29  1  0  0  0
  8  9  1  0  0  0
  8 22  1  0  0  0
  9 10  1  0  0  0
  9 27  2  0  0  0
 10 11  2  0  0  0
 10 15  1  0  0  0
 11 12  1  0  0  0
 11 98  1  0  0  0
 12 13  2  0  0  0
 12 99  1  0  0  0
 13 14  1  0  0  0
 13 31  1  0  0  0
 14 15  2  0  0  0
 14100  1  0  0  0
 15101  1  0  0  0
 16 17  2  0  0  0
 16 21  1  0  0  0
 16 31  1  0  0  0
 17 18  1  0  0  0
 17102  1  0  0  0
 18 19  2  0  0  0
 18103  1  0  0  0
 19 20  1  0  0  0
 19 24  1  0  0  0
 20 21  2  0  0  0
 20104  1  0  0  0
 21 23  1  0  0  0
 22 28  1  0  0  0
 22 32  2  0  0  0
 26 27  1  0  0  0
 28105  1  0  0  0
 28106  1  0  0  0
 29107  1  0  0  0
 29108  1  0  0  0
 33 34  1  0  0  0
 33 66  1  0  0  0
 33 70  2  0  0  0
 34 36  1  0  0  0
 34 59  1  0  0  0
 34109  1  0  0  0
 35 44  2  0  0  0
 35 45  1  0  0  0
 35 68  1  0  0  0
 36 56  1  0  0  0
 36110  1  0  0  0
 37 39  1  0  0  0
 37 47  1  0  0  0
 37 66  1  0  0  0
 37111  1  0  0  0
 38 43  2  0  0  0
 38 46  1  0  0  0
 38 47  1  0  0  0
 39 64  1  0  0  0
 39 67  2  0  0  0
 40 52  1  0  0  0
 40 53  2  0  0  0
 40 58  1  0  0  0
 41112  1  0  0  0
 41113  1  0  0  0
 41114  1  0  0  0
 41 48  1  0  0  0
 42 43  1  0  0  0
 42 66  1  0  0  0
 42115  1  0  0  0
 42116  1  0  0  0
 43 44  1  0  0  0
 44117  1  0  0  0
 45 46  2  0  0  0
 45118  1  0  0  0
 46119  1  0  0  0
 47120  1  0  0  0
 47121  1  0  0  0
 48 56  1  0  0  0
 48 65  1  0  0  0
 48122  1  0  0  0
 49 50  1  0  0  0
 49 53  1  0  0  0
 49 64  1  0  0  0
 49123  1  0  0  0
 50 51  1  0  0  0
 50124  1  0  0  0
 50125  1  0  0  0
 51 52  1  0  0  0
 51126  1  0  0  0
 51127  1  0  0  0
 52128  1  0  0  0
 52129  1  0  0  0
 53 54  1  0  0  0
 54 55  2  0  0  0
 54130  1  0  0  0
 55 57  1  0  0  0
 55131  1  0  0  0
 56 69  2  0  0  0
 57 58  2  0  0  0
 57132  1  0  0  0
 58133  1  0  0  0
 59 60  1  0  0  0
 59 61  1  0  0  0
 59 62  1  0  0  0
 60134  1  0  0  0
 60135  1  0  0  0
 60136  1  0  0  0
 61137  1  0  0  0
 61138  1  0  0  0
 61139  1  0  0  0
 62140  1  0  0  0
 62141  1  0  0  0
 62142  1  0  0  0
 63 65  1  0  0  0
 63143  1  0  0  0
 63144  1  0  0  0
 63145  1  0  0  0
 64146  1  0  0  0
 65147  1  0  0  0
 68 80  1  0  0  0
 71 73  2  0  0  0
 71 74  1  0  0  0
 71148  1  0  0  0
 72 73  1  0  0  0
 72 82  2  0  0  0
 72149  1  0  0  0
 73 83  1  0  0  0
 74 75  2  0  0  0
 74 86  1  0  0  0
 75 81  1  0  0  0
 75 82  1  0  0  0
 76 77  1  0  0  0
 76 84  1  0  0  0
 76 85  2  0  0  0
 77 78  1  0  0  0
 77150  1  0  0  0
 77151  1  0  0  0
 78 80  1  0  0  0
 78152  1  0  0  0
 78153  1  0  0  0
 79 81  1  0  0  0
 79 84  1  0  0  0
 79154  1  0  0  0
 79155  1  0  0  0
 80156  1  0  0  0
 80157  1  0  0  0
 81 87  1  0  0  0
 81 88  1  0  0  0
 83158  1  0  0  0
 84159  1  0  0  0
M  ISO  4   1 100  68 101  80 101  83 100
M  END
> <chiral flag>
0

> <version>
0

> <s_m_source_file>
/data/baiqing/PycharmProjects/Reinvent-master-3.2/result/LINK_invent/BTK/process_docking_weight1_custom_product_contain_oxygen_bond_distance_aromatic_linkinvent_7_9_3/rearranged_h_0178.sdf

> <i_m_source_file_index>
45

> <r_mmod_Potential_Energy-OPLS-2005>
-195.443237304688

> <r_mmod_Stretch_Energy-OPLS-2005>
34.5640258789062

> <r_mmod_Bend_Energy-OPLS-2005>
98.7508697509766

> <r_mmod_Torsional_Energy-OPLS-2005>
292.24951171875

> <r_mmod_Improper_Torsional_Energy-OPLS-2005>
6.09922647476196

> <r_mmod_Van_der_Waal_Energy-OPLS-2005>
152.922790527344

> <r_mmod_Electrostatic_Energy-OPLS-2005>
-552.408386230469

> <r_mmod_Solvation_Energy-OPLS-2005>
-235.541351318359

> <b_mmod_Minimization_Converged-OPLS-2005>
0

> <r_mmod_RMS_Derivative-OPLS-2005>
2.38428783416748

$$$$
45
                    3D
 Structure written by MMmdl.
149157  0  0  1  0            999 V2000
  -30.6550  -14.5658   20.5728 C   0  0  0  0  0  0
  -30.4379  -12.3492   19.4690 C   0  0  0  0  0  0
  -29.5248  -12.5070   18.2339 C   0  0  0  0  0  0
  -28.0388  -12.3605   18.6271 C   0  0  0  0  0  0
  -27.6574  -13.2079   19.8704 C   0  0  2  0  0  0
  -28.6976  -13.0181   21.0020 C   0  0  0  0  0  0
  -25.2528  -13.8084   20.5661 C   0  0  0  0  0  0
  -24.1793  -13.0366   20.9170 C   0  0  0  0  0  0
  -24.6338  -11.6827   20.8697 C   0  0  0  0  0  0
  -23.8976  -10.4243   21.0397 C   0  0  0  0  0  0
  -24.3542   -9.4175   21.9188 C   0  0  0  0  0  0
  -23.6243   -8.2195   22.0750 C   0  0  0  0  0  0
  -22.4236   -8.0199   21.3536 C   0  0  0  0  0  0
  -21.9862   -9.0155   20.4639 C   0  0  0  0  0  0
  -22.7148  -10.2060   20.3035 C   0  0  0  0  0  0
  -21.6842   -6.0673   22.5293 C   0  0  0  0  0  0
  -21.3983   -6.5604   23.8206 C   0  0  0  0  0  0
  -21.3699   -5.6772   24.9183 C   0  0  0  0  0  0
  -21.6075   -4.3032   24.7251 C   0  0  0  0  0  0
  -21.8816   -3.8088   23.4383 C   0  0  0  0  0  0
  -21.9185   -4.6897   22.3421 C   0  0  0  0  0  0
  -22.7825  -13.5190   21.1866 C   0  0  0  0  0  0
  -22.1661   -4.2063   21.0995 F   0  0  0  0  0  0
  -21.5683   -3.4543   25.7781 F   0  0  0  0  0  0
  -30.0185  -13.3622   20.4539 N   0  0  0  0  0  0
  -26.2969  -12.9281   20.3282 N   0  0  0  0  0  0
  -25.9257  -11.6429   20.5731 N   0  0  0  0  0  0
  -22.0445  -12.8190   22.0440 N   0  0  0  0  0  0
  -25.4168  -15.1825   20.4175 N   0  0  0  0  0  0
  -31.8017  -14.7353   20.1386 O   0  0  0  0  0  0
  -21.6588   -6.8807   21.4248 O   0  0  0  0  0  0
  -22.3559  -14.5540   20.6751 O   0  0  0  0  0  0
  -24.6223  -31.8579   23.2028 C   0  0  0  0  0  0
  -25.9079  -32.4766   23.8353 C   0  0  1  0  0  0
  -27.2690  -27.3639   20.0963 C   0  0  0  0  0  0
  -25.5928  -33.8561   24.2287 N   0  0  0  0  0  0
  -23.4208  -30.4756   21.5420 C   0  0  2  0  0  0
  -24.8769  -28.9300   20.1164 C   0  0  0  0  0  0
  -22.7486  -29.4585   22.4946 C   0  0  0  0  0  0
  -18.0289  -28.1378   22.8503 C   0  0  0  0  0  0
  -24.1501  -36.7287   23.2647 C   0  0  0  0  0  0
  -25.9594  -30.7949   21.3766 C   0  0  0  0  0  0
  -26.0393  -29.4237   20.7223 C   0  0  0  0  0  0
  -27.2301  -28.6468   20.7122 C   0  0  0  0  0  0
  -26.0816  -26.9116   19.4682 C   0  0  0  0  0  0
  -24.8975  -27.6760   19.4852 C   0  0  0  0  0  0
  -23.6391  -29.7989   20.1616 C   0  0  0  0  0  0
  -25.4124  -36.3074   24.0339 C   0  0  1  0  0  0
  -20.5889  -28.3674   23.1313 C   0  0  2  0  0  0
  -20.6780  -26.9399   22.5430 C   0  0  0  0  0  0
  -19.5757  -26.6379   21.5227 C   0  0  0  0  0  0
  -18.1932  -26.7932   22.1622 C   0  0  0  0  0  0
  -19.1544  -28.8847   23.2902 C   0  0  0  0  0  0
  -18.9456  -30.1452   23.8910 C   0  0  0  0  0  0
  -17.6450  -30.6586   24.0555 C   0  0  0  0  0  0
  -25.9051  -34.9440   23.5111 C   0  0  0  0  0  0
  -16.5342  -29.9081   23.6320 C   0  0  0  0  0  0
  -16.7277  -28.6494   23.0363 C   0  0  0  0  0  0
  -26.4486  -31.6573   25.0719 C   0  0  0  0  0  0
  -25.3738  -31.3691   26.1467 C   0  0  0  0  0  0
  -27.0329  -30.3003   24.6151 C   0  0  0  0  0  0
  -27.6052  -32.4318   25.7476 C   0  0  0  0  0  0
  -27.5586  -37.1803   24.8465 C   0  0  0  0  0  0
  -21.4202  -29.3025   22.3700 N   0  0  0  0  0  0
  -26.4304  -37.3769   23.9404 N   0  0  0  0  0  0
  -24.6850  -31.0587   22.0972 N   0  0  0  0  0  0
  -23.4216  -28.8153   23.3044 O   0  0  0  0  0  0
  -28.4393  -26.5926   20.1404 O   0  0  0  0  0  0
  -26.5604  -34.8903   22.4667 O   0  0  0  0  0  0
  -23.5387  -32.1369   23.7353 O   0  0  0  0  0  0
  -30.3179  -16.9705   21.2045 C   0  0  0  0  0  0
  -31.2626  -17.3176   22.1371 C   0  0  0  0  0  0
  -30.3062  -19.2879   21.0031 C   0  0  0  0  0  0
  -29.3632  -22.8580   20.1729 C   0  0  0  0  0  0
  -29.4828  -24.2243   20.2318 C   0  0  0  0  0  0
  -30.2615  -21.8281   20.7425 C   0  0  0  0  0  0
  -28.4037  -25.2017   19.6856 C   0  0  0  0  0  0
  -29.7469  -18.1187   20.5876 N   0  0  0  0  0  0
  -29.8973  -15.6079   21.0007 N   0  0  0  0  0  0
  -29.8371  -20.5554   20.4909 N   0  0  0  0  0  0
  -31.2862  -22.0848   21.3824 O   0  0  0  0  0  0
  -30.5187  -24.8944   20.7702 O   0  0  0  0  0  0
  -31.8823  -16.4310   22.9585 F   0  0  0  0  0  0
  -31.5519  -19.0392   22.2429 S   0  0  0  0  0  0
  -31.4888  -12.4496   19.1935 H   0  0  0  0  0  0
  -30.3401  -11.3498   19.8949 H   0  0  0  0  0  0
  -29.7932  -11.7760   17.4710 H   0  0  0  0  0  0
  -29.6926  -13.4899   17.7916 H   0  0  0  0  0  0
  -27.8591  -11.3064   18.8384 H   0  0  0  0  0  0
  -27.3955  -12.6190   17.7857 H   0  0  0  0  0  0
  -27.6916  -14.2520   19.5561 H   0  0  0  0  0  0
  -28.7030  -11.9782   21.3297 H   0  0  0  0  0  0
  -28.4438  -13.6051   21.8876 H   0  0  0  0  0  0
  -25.2674   -9.5672   22.4787 H   0  0  0  0  0  0
  -23.9942   -7.4593   22.7484 H   0  0  0  0  0  0
  -21.0775   -8.8620   19.8999 H   0  0  0  0  0  0
  -22.3521  -10.9564   19.6147 H   0  0  0  0  0  0
  -21.1905   -7.6103   23.9675 H   0  0  0  0  0  0
  -21.1608   -6.0514   25.9097 H   0  0  0  0  0  0
  -22.0575   -2.7545   23.2880 H   0  0  0  0  0  0
  -22.3971  -11.9813   22.4792 H   0  0  0  0  0  0
  -21.1094  -13.1312   22.2669 H   0  0  0  0  0  0
  -24.6467  -15.8244   20.5742 H   0  0  0  0  0  0
  -26.2478  -15.6443   20.0682 H   0  0  0  0  0  0
  -26.7162  -32.5458   23.1111 H   0  0  0  0  0  0
  -25.0090  -33.9711   25.0446 H   0  0  0  0  0  0
  -22.7137  -31.2926   21.3881 H   0  0  0  0  0  0
  -23.3744  -35.9639   23.3317 H   0  0  0  0  0  0
  -24.3592  -36.8879   22.2057 H   0  0  0  0  0  0
  -23.7258  -37.6503   23.6642 H   0  0  0  0  0  0
  -26.0923  -31.5582   20.6089 H   0  0  0  0  0  0
  -26.8400  -30.8416   22.0067 H   0  0  0  0  0  0
  -28.1223  -29.0193   21.1978 H   0  0  0  0  0  0
  -26.0409  -25.9615   18.9566 H   0  0  0  0  0  0
  -24.0132  -27.2905   18.9983 H   0  0  0  0  0  0
  -23.7564  -30.5640   19.3939 H   0  0  0  0  0  0
  -22.7673  -29.2137   19.8635 H   0  0  0  0  0  0
  -25.1298  -36.1926   25.0832 H   0  0  0  0  0  0
  -20.9977  -28.3232   24.1434 H   0  0  0  0  0  0
  -20.5691  -26.2270   23.3620 H   0  0  0  0  0  0
  -21.6645  -26.7446   22.1205 H   0  0  0  0  0  0
  -19.6913  -25.6289   21.1261 H   0  0  0  0  0  0
  -19.6700  -27.3186   20.6758 H   0  0  0  0  0  0
  -17.4213  -26.6707   21.4003 H   0  0  0  0  0  0
  -18.0303  -26.0064   22.9004 H   0  0  0  0  0  0
  -19.7932  -30.7267   24.2286 H   0  0  0  0  0  0
  -17.5004  -31.6260   24.5151 H   0  0  0  0  0  0
  -15.5344  -30.2979   23.7632 H   0  0  0  0  0  0
  -15.8682  -28.0803   22.7079 H   0  0  0  0  0  0
  -24.5915  -30.7035   25.7787 H   0  0  0  0  0  0
  -24.8943  -32.2860   26.4917 H   0  0  0  0  0  0
  -25.8113  -30.8849   27.0213 H   0  0  0  0  0  0
  -26.2887  -29.6751   24.1214 H   0  0  0  0  0  0
  -27.4068  -29.7254   25.4627 H   0  0  0  0  0  0
  -27.8740  -30.4276   23.9333 H   0  0  0  0  0  0
  -27.2649  -33.3611   26.2055 H   0  0  0  0  0  0
  -28.3859  -32.6892   25.0303 H   0  0  0  0  0  0
  -28.0730  -31.8448   26.5389 H   0  0  0  0  0  0
  -28.2605  -38.0101   24.7499 H   0  0  0  0  0  0
  -28.1082  -36.2621   24.6305 H   0  0  0  0  0  0
  -27.2306  -37.1477   25.8874 H   0  0  0  0  0  0
  -20.9388  -29.8703   21.6866 H   0  0  0  0  0  0
  -26.0177  -38.2846   24.1386 H   0  0  0  0  0  0
  -28.4862  -22.4911   19.6623 H   0  0  0  0  0  0
  -27.4590  -24.7417   19.9752 H   0  0  0  0  0  0
  -28.4545  -25.1861   18.5946 H   0  0  0  0  0  0
  -28.9353  -15.3990   21.2179 H   0  0  0  0  0  0
  -29.0467  -20.4829   19.8693 H   0  0  0  0  0  0
  -31.1836  -24.2646   21.0262 H   0  0  0  0  0  0
  1 25  1  0  0  0
  1 30  2  0  0  0
  1 79  1  0  0  0
  2  3  1  0  0  0
  2 25  1  0  0  0
  2 85  1  0  0  0
  2 86  1  0  0  0
  3  4  1  0  0  0
  3 87  1  0  0  0
  3 88  1  0  0  0
  4  5  1  0  0  0
  4 89  1  0  0  0
  4 90  1  0  0  0
  5  6  1  0  0  0
  5 26  1  0  0  0
  5 91  1  0  0  0
  6 25  1  0  0  0
  6 92  1  0  0  0
  6 93  1  0  0  0
  7  8  2  0  0  0
  7 26  1  0  0  0
  7 29  1  0  0  0
  8  9  1  0  0  0
  8 22  1  0  0  0
  9 10  1  0  0  0
  9 27  2  0  0  0
 10 11  2  0  0  0
 10 15  1  0  0  0
 11 12  1  0  0  0
 11 94  1  0  0  0
 12 13  2  0  0  0
 12 95  1  0  0  0
 13 14  1  0  0  0
 13 31  1  0  0  0
 14 15  2  0  0  0
 14 96  1  0  0  0
 15 97  1  0  0  0
 16 17  2  0  0  0
 16 21  1  0  0  0
 16 31  1  0  0  0
 17 18  1  0  0  0
 17 98  1  0  0  0
 18 19  2  0  0  0
 18 99  1  0  0  0
 19 20  1  0  0  0
 19 24  1  0  0  0
 20 21  2  0  0  0
 20100  1  0  0  0
 21 23  1  0  0  0
 22 28  1  0  0  0
 22 32  2  0  0  0
 26 27  1  0  0  0
 28101  1  0  0  0
 28102  1  0  0  0
 29103  1  0  0  0
 29104  1  0  0  0
 33 34  1  0  0  0
 33 66  1  0  0  0
 33 70  2  0  0  0
 34 36  1  0  0  0
 34 59  1  0  0  0
 34105  1  0  0  0
 35 44  2  0  0  0
 35 45  1  0  0  0
 35 68  1  0  0  0
 36 56  1  0  0  0
 36106  1  0  0  0
 37 39  1  0  0  0
 37 47  1  0  0  0
 37 66  1  0  0  0
 37107  1  0  0  0
 38 43  2  0  0  0
 38 46  1  0  0  0
 38 47  1  0  0  0
 39 64  1  0  0  0
 39 67  2  0  0  0
 40 52  1  0  0  0
 40 53  2  0  0  0
 40 58  1  0  0  0
 41108  1  0  0  0
 41109  1  0  0  0
 41110  1  0  0  0
 41 48  1  0  0  0
 42 43  1  0  0  0
 42 66  1  0  0  0
 42111  1  0  0  0
 42112  1  0  0  0
 43 44  1  0  0  0
 44113  1  0  0  0
 45 46  2  0  0  0
 45114  1  0  0  0
 46115  1  0  0  0
 47116  1  0  0  0
 47117  1  0  0  0
 48 56  1  0  0  0
 48 65  1  0  0  0
 48118  1  0  0  0
 49 50  1  0  0  0
 49 53  1  0  0  0
 49 64  1  0  0  0
 49119  1  0  0  0
 50 51  1  0  0  0
 50120  1  0  0  0
 50121  1  0  0  0
 51 52  1  0  0  0
 51122  1  0  0  0
 51123  1  0  0  0
 52124  1  0  0  0
 52125  1  0  0  0
 53 54  1  0  0  0
 54 55  2  0  0  0
 54126  1  0  0  0
 55 57  1  0  0  0
 55127  1  0  0  0
 56 69  2  0  0  0
 57 58  2  0  0  0
 57128  1  0  0  0
 58129  1  0  0  0
 59 60  1  0  0  0
 59 61  1  0  0  0
 59 62  1  0  0  0
 60130  1  0  0  0
 60131  1  0  0  0
 60132  1  0  0  0
 61133  1  0  0  0
 61134  1  0  0  0
 61135  1  0  0  0
 62136  1  0  0  0
 62137  1  0  0  0
 62138  1  0  0  0
 63 65  1  0  0  0
 63139  1  0  0  0
 63140  1  0  0  0
 63141  1  0  0  0
 64142  1  0  0  0
 65143  1  0  0  0
 68 77  1  0  0  0
 71 72  2  0  0  0
 71 78  1  0  0  0
 71 79  1  0  0  0
 72 83  1  0  0  0
 72 84  1  0  0  0
 73 78  2  0  0  0
 73 80  1  0  0  0
 73 84  1  0  0  0
 74 75  2  0  0  0
 74 76  1  0  0  0
 74144  1  0  0  0
 75 77  1  0  0  0
 75 82  1  0  0  0
 76 80  1  0  0  0
 76 81  2  0  0  0
 77145  1  0  0  0
 77146  1  0  0  0
 79147  1  0  0  0
 80148  1  0  0  0
 82149  1  0  0  0
M  ISO  4   1 100  68 101  77 101  79 100
M  END
> <chiral flag>
0

> <version>
0

> <s_m_source_file>
/data/baiqing/PycharmProjects/Reinvent-master-3.2/result/LINK_invent/BTK/process_docking_weight1_custom_product_contain_oxygen_bond_distance_aromatic_linkinvent_7_9_3/rearranged_h_0178.sdf

> <i_m_source_file_index>
46

> <r_mmod_Potential_Energy-OPLS-2005>
-111.761894226074

> <r_mmod_Stretch_Energy-OPLS-2005>
58.1052551269531

> <r_mmod_Bend_Energy-OPLS-2005>
130.340927124023

> <r_mmod_Torsional_Energy-OPLS-2005>
208.929321289062

> <r_mmod_Improper_Torsional_Energy-OPLS-2005>
4.98330020904541

> <r_mmod_Van_der_Waal_Energy-OPLS-2005>
130.866592407227

> <r_mmod_Electrostatic_Energy-OPLS-2005>
-429.579986572266

> <r_mmod_Solvation_Energy-OPLS-2005>
-244.6611328125

> <b_mmod_Minimization_Converged-OPLS-2005>
0

> <r_mmod_RMS_Derivative-OPLS-2005>
5.43996238708496

$$$$
46
                    3D
 Structure written by MMmdl.
157165  0  0  1  0            999 V2000
  -30.7192  -14.5165   20.5018 C   0  0  0  0  0  0
  -30.4060  -12.3192   19.4254 C   0  0  0  0  0  0
  -29.5022  -12.5591   18.2015 C   0  0  0  0  0  0
  -28.0184  -12.4348   18.6011 C   0  0  0  0  0  0
  -27.6667  -13.2358   19.8866 C   0  0  2  0  0  0
  -28.7185  -13.0370   21.0029 C   0  0  0  0  0  0
  -25.2615  -13.8229   20.5678 C   0  0  0  0  0  0
  -24.1871  -13.0395   20.9063 C   0  0  0  0  0  0
  -24.6467  -11.6909   20.8647 C   0  0  0  0  0  0
  -23.9067  -10.4295   21.0338 C   0  0  0  0  0  0
  -24.3552   -9.4239   21.9186 C   0  0  0  0  0  0
  -23.6201   -8.2272   22.0814 C   0  0  0  0  0  0
  -22.4244   -8.0254   21.3521 C   0  0  0  0  0  0
  -21.9904   -9.0197   20.4564 C   0  0  0  0  0  0
  -22.7220  -10.2088   20.2973 C   0  0  0  0  0  0
  -21.6871   -6.0627   22.5231 C   0  0  0  0  0  0
  -21.4044   -6.5555   23.8145 C   0  0  0  0  0  0
  -21.3775   -5.6743   24.9136 C   0  0  0  0  0  0
  -21.6121   -4.2990   24.7190 C   0  0  0  0  0  0
  -21.8795   -3.8042   23.4299 C   0  0  0  0  0  0
  -21.9172   -4.6855   22.3352 C   0  0  0  0  0  0
  -22.7907  -13.5168   21.1650 C   0  0  0  0  0  0
  -22.1655   -4.2005   21.0920 F   0  0  0  0  0  0
  -21.5685   -3.4511   25.7726 F   0  0  0  0  0  0
  -30.0439  -13.3321   20.4339 N   0  0  0  0  0  0
  -26.3101  -12.9444   20.3457 N   0  0  0  0  0  0
  -25.9431  -11.6561   20.5750 N   0  0  0  0  0  0
  -22.0601  -12.8245   22.0332 N   0  0  0  0  0  0
  -25.4266  -15.1949   20.4152 N   0  0  0  0  0  0
  -31.8740  -14.6360   20.0825 O   0  0  0  0  0  0
  -21.6667   -6.8775   21.4189 O   0  0  0  0  0  0
  -22.3559  -14.5384   20.6387 O   0  0  0  0  0  0
  -24.6237  -31.8632   23.2170 C   0  0  0  0  0  0
  -25.9112  -32.4784   23.8471 C   0  0  1  0  0  0
  -27.2335  -27.3592   20.0865 C   0  0  0  0  0  0
  -25.5969  -33.8596   24.2393 N   0  0  0  0  0  0
  -23.4214  -30.4925   21.5532 C   0  0  2  0  0  0
  -24.8668  -28.9543   20.1205 C   0  0  0  0  0  0
  -22.7477  -29.4628   22.4906 C   0  0  0  0  0  0
  -18.0288  -28.1407   22.8502 C   0  0  0  0  0  0
  -24.1491  -36.7269   23.2650 C   0  0  0  0  0  0
  -25.9662  -30.7930   21.4061 C   0  0  0  0  0  0
  -26.0336  -29.4297   20.7323 C   0  0  0  0  0  0
  -27.2142  -28.6350   20.7206 C   0  0  0  0  0  0
  -26.0258  -26.9049   19.5079 C   0  0  0  0  0  0
  -24.8587  -27.6889   19.5128 C   0  0  0  0  0  0
  -23.6484  -29.8496   20.1613 C   0  0  0  0  0  0
  -25.4119  -36.3092   24.0360 C   0  0  1  0  0  0
  -20.5900  -28.3718   23.1244 C   0  0  2  0  0  0
  -20.6791  -26.9448   22.5369 C   0  0  0  0  0  0
  -19.5734  -26.6386   21.5224 C   0  0  0  0  0  0
  -18.1927  -26.7952   22.1645 C   0  0  0  0  0  0
  -19.1553  -28.8882   23.2871 C   0  0  0  0  0  0
  -18.9479  -30.1485   23.8878 C   0  0  0  0  0  0
  -17.6486  -30.6610   24.0580 C   0  0  0  0  0  0
  -25.9066  -34.9450   23.5173 C   0  0  0  0  0  0
  -16.5371  -29.9106   23.6368 C   0  0  0  0  0  0
  -16.7279  -28.6529   23.0383 C   0  0  0  0  0  0
  -26.4516  -31.6571   25.0828 C   0  0  0  0  0  0
  -25.3761  -31.3653   26.1562 C   0  0  0  0  0  0
  -27.0404  -30.2994   24.6330 C   0  0  0  0  0  0
  -27.6114  -32.4283   25.7555 C   0  0  0  0  0  0
  -27.5591  -37.1801   24.8471 C   0  0  0  0  0  0
  -21.4198  -29.3056   22.3635 N   0  0  0  0  0  0
  -26.4291  -37.3790   23.9428 N   0  0  0  0  0  0
  -24.6876  -31.0645   22.1139 N   0  0  0  0  0  0
  -23.4186  -28.8176   23.2992 O   0  0  0  0  0  0
  -28.3909  -26.5740   20.0651 O   0  0  0  0  0  0
  -26.5594  -34.8887   22.4711 O   0  0  0  0  0  0
  -23.5399  -32.1449   23.7476 O   0  0  0  0  0  0
  -30.4553  -20.1137   19.2844 C   0  0  0  0  0  0
  -30.3837  -21.5408   19.3925 C   0  0  0  0  0  0
  -29.5141  -19.4763   20.0673 C   0  0  0  0  0  0
  -29.3700  -22.0514   20.1558 C   0  0  0  0  0  0
  -28.1998  -24.0595   19.5530 C   0  0  0  0  0  0
  -31.4248  -19.4244   18.3717 C   0  0  0  0  0  0
  -29.9265  -25.5770   18.3978 C   0  0  0  0  0  0
  -29.2378  -17.9714   20.1882 C   0  0  0  0  0  0
  -30.4100  -17.0339   20.6190 C   0  0  0  0  0  0
  -28.5358  -25.5148   19.0646 C   0  0  2  0  0  0
  -29.1024  -23.3871   20.3057 N   0  0  0  0  0  0
  -30.0057  -15.6155   20.8430 N   0  0  0  0  0  0
  -27.1381  -23.5310   19.2003 O   0  0  0  0  0  0
  -31.2174  -22.3199   18.7426 F   0  0  0  0  0  0
  -28.5179  -20.6928   20.8908 S   0  0  0  0  0  0
  -31.4578  -12.3625   19.1464 H   0  0  0  0  0  0
  -30.2334  -11.3150   19.8150 H   0  0  0  0  0  0
  -29.7335  -11.8601   17.3988 H   0  0  0  0  0  0
  -29.6905  -13.5581   17.7983 H   0  0  0  0  0  0
  -27.7953  -11.3785   18.7333 H   0  0  0  0  0  0
  -27.3942  -12.7827   17.7782 H   0  0  0  0  0  0
  -27.6959  -14.2915   19.6151 H   0  0  0  0  0  0
  -28.7104  -12.0108   21.3666 H   0  0  0  0  0  0
  -28.5002  -13.6627   21.8725 H   0  0  0  0  0  0
  -25.2685   -9.5724   22.4762 H   0  0  0  0  0  0
  -23.9866   -7.4750   22.7673 H   0  0  0  0  0  0
  -21.0856   -8.8611   19.8839 H   0  0  0  0  0  0
  -22.3667  -10.9558   19.5995 H   0  0  0  0  0  0
  -21.2039   -7.6072   23.9542 H   0  0  0  0  0  0
  -21.1740   -6.0537   25.9032 H   0  0  0  0  0  0
  -22.0479   -2.7472   23.2825 H   0  0  0  0  0  0
  -22.4265  -11.9961   22.4774 H   0  0  0  0  0  0
  -21.1230  -13.1328   22.2486 H   0  0  0  0  0  0
  -24.6526  -15.8459   20.4597 H   0  0  0  0  0  0
  -26.2926  -15.6398   20.1361 H   0  0  0  0  0  0
  -26.7192  -32.5461   23.1229 H   0  0  0  0  0  0
  -25.0166  -33.9759   25.0576 H   0  0  0  0  0  0
  -22.7176  -31.3170   21.4181 H   0  0  0  0  0  0
  -23.3786  -35.9563   23.3283 H   0  0  0  0  0  0
  -24.3605  -36.8918   22.2070 H   0  0  0  0  0  0
  -23.7189  -37.6444   23.6682 H   0  0  0  0  0  0
  -26.1366  -31.5747   20.6671 H   0  0  0  0  0  0
  -26.8278  -30.8014   22.0625 H   0  0  0  0  0  0
  -28.1101  -28.9914   21.2121 H   0  0  0  0  0  0
  -25.9452  -25.9246   19.0635 H   0  0  0  0  0  0
  -23.9612  -27.3053   19.0468 H   0  0  0  0  0  0
  -23.8125  -30.6496   19.4359 H   0  0  0  0  0  0
  -22.7630  -29.3156   19.8159 H   0  0  0  0  0  0
  -25.1290  -36.1968   25.0851 H   0  0  0  0  0  0
  -20.9998  -28.3280   24.1362 H   0  0  0  0  0  0
  -20.5785  -26.2316   23.3556 H   0  0  0  0  0  0
  -21.6633  -26.7518   22.1101 H   0  0  0  0  0  0
  -19.6887  -25.6296   21.1265 H   0  0  0  0  0  0
  -19.6654  -27.3173   20.6733 H   0  0  0  0  0  0
  -17.4194  -26.6710   21.4058 H   0  0  0  0  0  0
  -18.0321  -26.0100   22.9030 H   0  0  0  0  0  0
  -19.7958  -30.7311   24.2211 H   0  0  0  0  0  0
  -17.5052  -31.6288   24.5180 H   0  0  0  0  0  0
  -15.5381  -30.3011   23.7720 H   0  0  0  0  0  0
  -15.8674  -28.0854   22.7105 H   0  0  0  0  0  0
  -24.5913  -30.7056   25.7850 H   0  0  0  0  0  0
  -24.8986  -32.2785   26.5103 H   0  0  0  0  0  0
  -25.8085  -30.8714   27.0271 H   0  0  0  0  0  0
  -26.3011  -29.6679   24.1395 H   0  0  0  0  0  0
  -27.4130  -29.7306   25.4861 H   0  0  0  0  0  0
  -27.8873  -30.4280   23.9590 H   0  0  0  0  0  0
  -27.2775  -33.3545   26.2214 H   0  0  0  0  0  0
  -28.3846  -32.6881   25.0327 H   0  0  0  0  0  0
  -28.0874  -31.8369   26.5379 H   0  0  0  0  0  0
  -28.2574  -38.0135   24.7597 H   0  0  0  0  0  0
  -28.1128  -36.2676   24.6215 H   0  0  0  0  0  0
  -27.2318  -37.1338   25.8874 H   0  0  0  0  0  0
  -20.9383  -29.8770   21.6854 H   0  0  0  0  0  0
  -26.0177  -38.2859   24.1472 H   0  0  0  0  0  0
  -31.8277  -20.1109   17.6276 H   0  0  0  0  0  0
  -30.9378  -18.6207   17.8154 H   0  0  0  0  0  0
  -32.2631  -19.0070   18.9268 H   0  0  0  0  0  0
  -30.0267  -24.8087   17.6227 H   0  0  0  0  0  0
  -30.7438  -25.4403   19.1045 H   0  0  0  0  0  0
  -30.0786  -26.5326   17.8955 H   0  0  0  0  0  0
  -28.8737  -17.6179   19.2238 H   0  0  0  0  0  0
  -28.4100  -17.8189   20.8840 H   0  0  0  0  0  0
  -30.8903  -17.4265   21.5165 H   0  0  0  0  0  0
  -31.1747  -17.0646   19.8430 H   0  0  0  0  0  0
  -27.8739  -25.7177   18.2223 H   0  0  0  0  0  0
  -29.8945  -23.9456   20.5885 H   0  0  0  0  0  0
  -29.0696  -15.4573   21.1828 H   0  0  0  0  0  0
  1 25  1  0  0  0
  1 30  2  0  0  0
  1 82  1  0  0  0
  2  3  1  0  0  0
  2 25  1  0  0  0
  2 86  1  0  0  0
  2 87  1  0  0  0
  3  4  1  0  0  0
  3 88  1  0  0  0
  3 89  1  0  0  0
  4  5  1  0  0  0
  4 90  1  0  0  0
  4 91  1  0  0  0
  5  6  1  0  0  0
  5 26  1  0  0  0
  5 92  1  0  0  0
  6 25  1  0  0  0
  6 93  1  0  0  0
  6 94  1  0  0  0
  7  8  2  0  0  0
  7 26  1  0  0  0
  7 29  1  0  0  0
  8  9  1  0  0  0
  8 22  1  0  0  0
  9 10  1  0  0  0
  9 27  2  0  0  0
 10 11  2  0  0  0
 10 15  1  0  0  0
 11 12  1  0  0  0
 11 95  1  0  0  0
 12 13  2  0  0  0
 12 96  1  0  0  0
 13 14  1  0  0  0
 13 31  1  0  0  0
 14 15  2  0  0  0
 14 97  1  0  0  0
 15 98  1  0  0  0
 16 17  2  0  0  0
 16 21  1  0  0  0
 16 31  1  0  0  0
 17 18  1  0  0  0
 17 99  1  0  0  0
 18 19  2  0  0  0
 18100  1  0  0  0
 19 20  1  0  0  0
 19 24  1  0  0  0
 20 21  2  0  0  0
 20101  1  0  0  0
 21 23  1  0  0  0
 22 28  1  0  0  0
 22 32  2  0  0  0
 26 27  1  0  0  0
 28102  1  0  0  0
 28103  1  0  0  0
 29104  1  0  0  0
 29105  1  0  0  0
 33 34  1  0  0  0
 33 66  1  0  0  0
 33 70  2  0  0  0
 34 36  1  0  0  0
 34 59  1  0  0  0
 34106  1  0  0  0
 35 44  2  0  0  0
 35 45  1  0  0  0
 35 68  1  0  0  0
 36 56  1  0  0  0
 36107  1  0  0  0
 37 39  1  0  0  0
 37 47  1  0  0  0
 37 66  1  0  0  0
 37108  1  0  0  0
 38 43  2  0  0  0
 38 46  1  0  0  0
 38 47  1  0  0  0
 39 64  1  0  0  0
 39 67  2  0  0  0
 40 52  1  0  0  0
 40 53  2  0  0  0
 40 58  1  0  0  0
 41109  1  0  0  0
 41110  1  0  0  0
 41111  1  0  0  0
 41 48  1  0  0  0
 42 43  1  0  0  0
 42 66  1  0  0  0
 42112  1  0  0  0
 42113  1  0  0  0
 43 44  1  0  0  0
 44114  1  0  0  0
 45 46  2  0  0  0
 45115  1  0  0  0
 46116  1  0  0  0
 47117  1  0  0  0
 47118  1  0  0  0
 48 56  1  0  0  0
 48 65  1  0  0  0
 48119  1  0  0  0
 49 50  1  0  0  0
 49 53  1  0  0  0
 49 64  1  0  0  0
 49120  1  0  0  0
 50 51  1  0  0  0
 50121  1  0  0  0
 50122  1  0  0  0
 51 52  1  0  0  0
 51123  1  0  0  0
 51124  1  0  0  0
 52125  1  0  0  0
 52126  1  0  0  0
 53 54  1  0  0  0
 54 55  2  0  0  0
 54127  1  0  0  0
 55 57  1  0  0  0
 55128  1  0  0  0
 56 69  2  0  0  0
 57 58  2  0  0  0
 57129  1  0  0  0
 58130  1  0  0  0
 59 60  1  0  0  0
 59 61  1  0  0  0
 59 62  1  0  0  0
 60131  1  0  0  0
 60132  1  0  0  0
 60133  1  0  0  0
 61134  1  0  0  0
 61135  1  0  0  0
 61136  1  0  0  0
 62137  1  0  0  0
 62138  1  0  0  0
 62139  1  0  0  0
 63 65  1  0  0  0
 63140  1  0  0  0
 63141  1  0  0  0
 63142  1  0  0  0
 64143  1  0  0  0
 65144  1  0  0  0
 68 80  1  0  0  0
 71 72  1  0  0  0
 71 73  2  0  0  0
 71 76  1  0  0  0
 72 74  2  0  0  0
 72 84  1  0  0  0
 73 78  1  0  0  0
 73 85  1  0  0  0
 74 81  1  0  0  0
 74 85  1  0  0  0
 75 80  1  0  0  0
 75 81  1  0  0  0
 75 83  2  0  0  0
 76145  1  0  0  0
 76146  1  0  0  0
 76147  1  0  0  0
 77148  1  0  0  0
 77149  1  0  0  0
 77150  1  0  0  0
 77 80  1  0  0  0
 78 79  1  0  0  0
 78151  1  0  0  0
 78152  1  0  0  0
 79 82  1  0  0  0
 79153  1  0  0  0
 79154  1  0  0  0
 80155  1  0  0  0
 81156  1  0  0  0
 82157  1  0  0  0
M  ISO  4   1 100  68 101  80 101  82 100
M  END
> <chiral flag>
0

> <version>
0

> <s_m_source_file>
/data/baiqing/PycharmProjects/Reinvent-master-3.2/result/LINK_invent/BTK/process_docking_weight1_custom_product_contain_oxygen_bond_distance_aromatic_linkinvent_7_9_3/rearranged_h_0178.sdf

> <i_m_source_file_index>
47

> <r_mmod_Potential_Energy-OPLS-2005>
-75.1027679443359

> <r_mmod_Stretch_Energy-OPLS-2005>
53.3249893188477

> <r_mmod_Bend_Energy-OPLS-2005>
123.108200073242

> <r_mmod_Torsional_Energy-OPLS-2005>
248.004653930664

> <r_mmod_Improper_Torsional_Energy-OPLS-2005>
8.07323169708252

> <r_mmod_Van_der_Waal_Energy-OPLS-2005>
124.309936523438

> <r_mmod_Electrostatic_Energy-OPLS-2005>
-434.768310546875

> <r_mmod_Solvation_Energy-OPLS-2005>
-223.723495483398

> <b_mmod_Minimization_Converged-OPLS-2005>
0

> <r_mmod_RMS_Derivative-OPLS-2005>
7.7024359703064

$$$$
47
                    3D
 Structure written by MMmdl.
149157  0  0  1  0            999 V2000
  -30.7115  -14.5067   20.5574 C   0  0  0  0  0  0
  -30.4171  -12.3252   19.4316 C   0  0  0  0  0  0
  -29.5020  -12.5197   18.2063 C   0  0  0  0  0  0
  -28.0194  -12.3847   18.6099 C   0  0  0  0  0  0
  -27.6581  -13.2223   19.8666 C   0  0  2  0  0  0
  -28.7005  -13.0343   20.9913 C   0  0  0  0  0  0
  -25.2558  -13.8177   20.5637 C   0  0  0  0  0  0
  -24.1844  -13.0451   20.9187 C   0  0  0  0  0  0
  -24.6411  -11.6917   20.8750 C   0  0  0  0  0  0
  -23.9078  -10.4299   21.0405 C   0  0  0  0  0  0
  -24.3631   -9.4215   21.9188 C   0  0  0  0  0  0
  -23.6299   -8.2249   22.0753 C   0  0  0  0  0  0
  -22.4278   -8.0281   21.3539 C   0  0  0  0  0  0
  -21.9918   -9.0263   20.4648 C   0  0  0  0  0  0
  -22.7248  -10.2139   20.3051 C   0  0  0  0  0  0
  -21.6848   -6.0736   22.5280 C   0  0  0  0  0  0
  -21.4013   -6.5638   23.8218 C   0  0  0  0  0  0
  -21.3664   -5.6786   24.9175 C   0  0  0  0  0  0
  -21.6051   -4.3051   24.7218 C   0  0  0  0  0  0
  -21.8818   -3.8140   23.4335 C   0  0  0  0  0  0
  -21.9192   -4.6964   22.3399 C   0  0  0  0  0  0
  -22.7855  -13.5235   21.1828 C   0  0  0  0  0  0
  -22.1659   -4.2149   21.0978 F   0  0  0  0  0  0
  -21.5634   -3.4539   25.7732 F   0  0  0  0  0  0
  -30.0290  -13.3327   20.4343 N   0  0  0  0  0  0
  -26.3010  -12.9378   20.3296 N   0  0  0  0  0  0
  -25.9344  -11.6524   20.5732 N   0  0  0  0  0  0
  -22.0473  -12.8259   22.0386 N   0  0  0  0  0  0
  -25.4227  -15.1878   20.3895 N   0  0  0  0  0  0
  -31.8478  -14.6544   20.1024 O   0  0  0  0  0  0
  -21.6637   -6.8878   21.4236 O   0  0  0  0  0  0
  -22.3564  -14.5550   20.6660 O   0  0  0  0  0  0
  -24.6200  -31.8694   23.2140 C   0  0  0  0  0  0
  -25.9091  -32.4816   23.8425 C   0  0  1  0  0  0
  -27.2074  -27.3935   20.0985 C   0  0  0  0  0  0
  -25.5953  -33.8615   24.2348 N   0  0  0  0  0  0
  -23.4060  -30.5017   21.5554 C   0  0  2  0  0  0
  -24.8462  -28.9773   20.1080 C   0  0  0  0  0  0
  -22.7428  -29.4690   22.4965 C   0  0  0  0  0  0
  -18.0269  -28.1389   22.8492 C   0  0  0  0  0  0
  -24.1489  -36.7309   23.2619 C   0  0  0  0  0  0
  -25.9446  -30.8194   21.3809 C   0  0  0  0  0  0
  -26.0136  -29.4576   20.7159 C   0  0  0  0  0  0
  -27.1980  -28.6747   20.7098 C   0  0  0  0  0  0
  -26.0193  -26.9619   19.4543 C   0  0  0  0  0  0
  -24.8474  -27.7298   19.4724 C   0  0  0  0  0  0
  -23.6137  -29.8520   20.1651 C   0  0  0  0  0  0
  -25.4103  -36.3107   24.0336 C   0  0  1  0  0  0
  -20.5868  -28.3696   23.1300 C   0  0  2  0  0  0
  -20.6766  -26.9430   22.5411 C   0  0  0  0  0  0
  -19.5744  -26.6389   21.5216 C   0  0  0  0  0  0
  -18.1917  -26.7938   22.1611 C   0  0  0  0  0  0
  -19.1520  -28.8850   23.2892 C   0  0  0  0  0  0
  -18.9445  -30.1454   23.8901 C   0  0  0  0  0  0
  -17.6448  -30.6595   24.0556 C   0  0  0  0  0  0
  -25.9053  -34.9473   23.5132 C   0  0  0  0  0  0
  -16.5342  -29.9093   23.6331 C   0  0  0  0  0  0
  -16.7259  -28.6512   23.0357 C   0  0  0  0  0  0
  -26.4496  -31.6592   25.0765 C   0  0  0  0  0  0
  -25.3744  -31.3711   26.1504 C   0  0  0  0  0  0
  -27.0319  -30.3012   24.6196 C   0  0  0  0  0  0
  -27.6092  -32.4298   25.7510 C   0  0  0  0  0  0
  -27.5621  -37.1754   24.8410 C   0  0  0  0  0  0
  -21.4148  -29.3073   22.3713 N   0  0  0  0  0  0
  -26.4258  -37.3832   23.9471 N   0  0  0  0  0  0
  -24.6747  -31.0779   22.1061 N   0  0  0  0  0  0
  -23.4193  -28.8206   23.2990 O   0  0  0  0  0  0
  -28.3241  -26.5654   20.1598 O   0  0  0  0  0  0
  -26.5611  -34.8930   22.4687 O   0  0  0  0  0  0
  -23.5383  -32.1466   23.7519 O   0  0  0  0  0  0
  -28.2415  -17.9685   20.8954 C   0  0  0  0  0  0
  -29.6044  -18.0595   21.0358 C   0  0  0  0  0  0
  -29.0662  -20.2965   20.8375 C   0  0  0  0  0  0
  -29.0306  -24.1443   20.5870 C   0  0  0  0  0  0
  -28.4503  -22.7140   20.8901 C   0  0  0  0  0  0
  -30.5826  -16.9161   21.2569 C   0  0  0  0  0  0
  -28.0110  -25.1506   20.0042 C   0  0  0  0  0  0
  -30.0573  -19.3983   20.9829 N   0  0  0  0  0  0
  -29.3360  -21.6993   20.7644 N   0  0  0  0  0  0
  -30.0394  -15.5496   21.0851 N   0  0  0  0  0  0
  -30.2171  -24.4414   20.7779 O   0  0  0  0  0  0
  -27.2734  -22.5668   21.2409 O   0  0  0  0  0  0
  -27.4792  -19.5297   20.7078 S   0  0  0  0  0  0
  -31.4664  -12.4022   19.1397 H   0  0  0  0  0  0
  -30.2945  -11.3196   19.8379 H   0  0  0  0  0  0
  -29.7480  -11.7952   17.4286 H   0  0  0  0  0  0
  -29.6789  -13.5046   17.7697 H   0  0  0  0  0  0
  -27.8206  -11.3289   18.7966 H   0  0  0  0  0  0
  -27.3794  -12.6697   17.7741 H   0  0  0  0  0  0
  -27.6897  -14.2688   19.5630 H   0  0  0  0  0  0
  -28.6777  -12.0090   21.3630 H   0  0  0  0  0  0
  -28.4640  -13.6637   21.8501 H   0  0  0  0  0  0
  -25.2768   -9.5694   22.4766 H   0  0  0  0  0  0
  -24.0009   -7.4639   22.7485 H   0  0  0  0  0  0
  -21.0835   -8.8779   19.8966 H   0  0  0  0  0  0
  -22.3698  -10.9678   19.6165 H   0  0  0  0  0  0
  -21.2002   -7.6150   23.9720 H   0  0  0  0  0  0
  -21.1493   -6.0515   25.9082 H   0  0  0  0  0  0
  -22.0591   -2.7601   23.2825 H   0  0  0  0  0  0
  -22.4033  -11.9932   22.4836 H   0  0  0  0  0  0
  -21.1086  -13.1312   22.2538 H   0  0  0  0  0  0
  -24.6275  -15.8159   20.4294 H   0  0  0  0  0  0
  -26.2102  -15.5801   19.8907 H   0  0  0  0  0  0
  -26.7161  -32.5508   23.1182 H   0  0  0  0  0  0
  -25.0126  -33.9771   25.0508 H   0  0  0  0  0  0
  -22.6958  -31.3210   21.4260 H   0  0  0  0  0  0
  -23.3796  -35.9585   23.3146 H   0  0  0  0  0  0
  -24.3642  -36.9058   22.2065 H   0  0  0  0  0  0
  -23.7150  -37.6434   23.6718 H   0  0  0  0  0  0
  -26.0804  -31.5902   20.6214 H   0  0  0  0  0  0
  -26.8245  -30.8524   22.0120 H   0  0  0  0  0  0
  -28.0896  -29.0350   21.2043 H   0  0  0  0  0  0
  -25.9564  -26.0194   18.9306 H   0  0  0  0  0  0
  -23.9570  -27.3569   18.9849 H   0  0  0  0  0  0
  -23.7300  -30.6376   19.4178 H   0  0  0  0  0  0
  -22.7330  -29.2845   19.8594 H   0  0  0  0  0  0
  -25.1245  -36.1945   25.0818 H   0  0  0  0  0  0
  -20.9949  -28.3262   24.1425 H   0  0  0  0  0  0
  -20.5677  -26.2313   23.3610 H   0  0  0  0  0  0
  -21.6639  -26.7481   22.1200 H   0  0  0  0  0  0
  -19.6909  -25.6296   21.1260 H   0  0  0  0  0  0
  -19.6684  -27.3185   20.6738 H   0  0  0  0  0  0
  -17.4203  -26.6710   21.3994 H   0  0  0  0  0  0
  -18.0286  -26.0070   22.8988 H   0  0  0  0  0  0
  -19.7919  -30.7268   24.2275 H   0  0  0  0  0  0
  -17.5008  -31.6282   24.5146 H   0  0  0  0  0  0
  -15.5347  -30.3001   23.7651 H   0  0  0  0  0  0
  -15.8652  -28.0833   22.7073 H   0  0  0  0  0  0
  -24.5934  -30.7041   25.7836 H   0  0  0  0  0  0
  -24.8920  -32.2863   26.4944 H   0  0  0  0  0  0
  -25.8085  -30.8887   27.0269 H   0  0  0  0  0  0
  -26.2881  -29.6776   24.1230 H   0  0  0  0  0  0
  -27.4010  -29.7262   25.4696 H   0  0  0  0  0  0
  -27.8760  -30.4287   23.9420 H   0  0  0  0  0  0
  -27.2740  -33.3584   26.2139 H   0  0  0  0  0  0
  -28.3871  -32.6870   25.0308 H   0  0  0  0  0  0
  -28.0802  -31.8387   26.5372 H   0  0  0  0  0  0
  -28.2452  -38.0235   24.7771 H   0  0  0  0  0  0
  -28.1302  -36.2807   24.5815 H   0  0  0  0  0  0
  -27.2415  -37.0872   25.8805 H   0  0  0  0  0  0
  -20.9297  -29.8852   21.6988 H   0  0  0  0  0  0
  -26.0127  -38.2862   24.1646 H   0  0  0  0  0  0
  -27.6305  -17.0773   20.9046 H   0  0  0  0  0  0
  -30.9724  -16.9795   22.2734 H   0  0  0  0  0  0
  -31.4473  -17.0689   20.6083 H   0  0  0  0  0  0
  -27.0645  -24.9417   20.5047 H   0  0  0  0  0  0
  -27.8698  -24.9213   18.9471 H   0  0  0  0  0  0
  -30.2921  -21.9753   20.5926 H   0  0  0  0  0  0
  -29.0960  -15.3821   21.3982 H   0  0  0  0  0  0
  1 25  1  0  0  0
  1 30  2  0  0  0
  1 80  1  0  0  0
  2  3  1  0  0  0
  2 25  1  0  0  0
  2 84  1  0  0  0
  2 85  1  0  0  0
  3  4  1  0  0  0
  3 86  1  0  0  0
  3 87  1  0  0  0
  4  5  1  0  0  0
  4 88  1  0  0  0
  4 89  1  0  0  0
  5  6  1  0  0  0
  5 26  1  0  0  0
  5 90  1  0  0  0
  6 25  1  0  0  0
  6 91  1  0  0  0
  6 92  1  0  0  0
  7  8  2  0  0  0
  7 26  1  0  0  0
  7 29  1  0  0  0
  8  9  1  0  0  0
  8 22  1  0  0  0
  9 10  1  0  0  0
  9 27  2  0  0  0
 10 11  2  0  0  0
 10 15  1  0  0  0
 11 12  1  0  0  0
 11 93  1  0  0  0
 12 13  2  0  0  0
 12 94  1  0  0  0
 13 14  1  0  0  0
 13 31  1  0  0  0
 14 15  2  0  0  0
 14 95  1  0  0  0
 15 96  1  0  0  0
 16 17  2  0  0  0
 16 21  1  0  0  0
 16 31  1  0  0  0
 17 18  1  0  0  0
 17 97  1  0  0  0
 18 19  2  0  0  0
 18 98  1  0  0  0
 19 20  1  0  0  0
 19 24  1  0  0  0
 20 21  2  0  0  0
 20 99  1  0  0  0
 21 23  1  0  0  0
 22 28  1  0  0  0
 22 32  2  0  0  0
 26 27  1  0  0  0
 28100  1  0  0  0
 28101  1  0  0  0
 29102  1  0  0  0
 29103  1  0  0  0
 33 34  1  0  0  0
 33 66  1  0  0  0
 33 70  2  0  0  0
 34 36  1  0  0  0
 34 59  1  0  0  0
 34104  1  0  0  0
 35 44  2  0  0  0
 35 45  1  0  0  0
 35 68  1  0  0  0
 36 56  1  0  0  0
 36105  1  0  0  0
 37 39  1  0  0  0
 37 47  1  0  0  0
 37 66  1  0  0  0
 37106  1  0  0  0
 38 43  2  0  0  0
 38 46  1  0  0  0
 38 47  1  0  0  0
 39 64  1  0  0  0
 39 67  2  0  0  0
 40 52  1  0  0  0
 40 53  2  0  0  0
 40 58  1  0  0  0
 41107  1  0  0  0
 41108  1  0  0  0
 41109  1  0  0  0
 41 48  1  0  0  0
 42 43  1  0  0  0
 42 66  1  0  0  0
 42110  1  0  0  0
 42111  1  0  0  0
 43 44  1  0  0  0
 44112  1  0  0  0
 45 46  2  0  0  0
 45113  1  0  0  0
 46114  1  0  0  0
 47115  1  0  0  0
 47116  1  0  0  0
 48 56  1  0  0  0
 48 65  1  0  0  0
 48117  1  0  0  0
 49 50  1  0  0  0
 49 53  1  0  0  0
 49 64  1  0  0  0
 49118  1  0  0  0
 50 51  1  0  0  0
 50119  1  0  0  0
 50120  1  0  0  0
 51 52  1  0  0  0
 51121  1  0  0  0
 51122  1  0  0  0
 52123  1  0  0  0
 52124  1  0  0  0
 53 54  1  0  0  0
 54 55  2  0  0  0
 54125  1  0  0  0
 55 57  1  0  0  0
 55126  1  0  0  0
 56 69  2  0  0  0
 57 58  2  0  0  0
 57127  1  0  0  0
 58128  1  0  0  0
 59 60  1  0  0  0
 59 61  1  0  0  0
 59 62  1  0  0  0
 60129  1  0  0  0
 60130  1  0  0  0
 60131  1  0  0  0
 61132  1  0  0  0
 61133  1  0  0  0
 61134  1  0  0  0
 62135  1  0  0  0
 62136  1  0  0  0
 62137  1  0  0  0
 63 65  1  0  0  0
 63138  1  0  0  0
 63139  1  0  0  0
 63140  1  0  0  0
 64141  1  0  0  0
 65142  1  0  0  0
 68 77  1  0  0  0
 71 72  2  0  0  0
 71 83  1  0  0  0
 71143  1  0  0  0
 72 76  1  0  0  0
 72 78  1  0  0  0
 73 78  2  0  0  0
 73 79  1  0  0  0
 73 83  1  0  0  0
 74 75  1  0  0  0
 74 77  1  0  0  0
 74 81  2  0  0  0
 75 79  1  0  0  0
 75 82  2  0  0  0
 76 80  1  0  0  0
 76144  1  0  0  0
 76145  1  0  0  0
 77146  1  0  0  0
 77147  1  0  0  0
 79148  1  0  0  0
 80149  1  0  0  0
M  ISO  4   1 100  68 101  77 101  80 100
M  END
> <chiral flag>
0

> <version>
0

> <s_m_source_file>
/data/baiqing/PycharmProjects/Reinvent-master-3.2/result/LINK_invent/BTK/process_docking_weight1_custom_product_contain_oxygen_bond_distance_aromatic_linkinvent_7_9_3/rearranged_h_0178.sdf

> <i_m_source_file_index>
48

> <r_mmod_Potential_Energy-OPLS-2005>
-229.803741455078

> <r_mmod_Stretch_Energy-OPLS-2005>
44.0183029174805

> <r_mmod_Bend_Energy-OPLS-2005>
101.276580810547

> <r_mmod_Torsional_Energy-OPLS-2005>
199.096374511719

> <r_mmod_Improper_Torsional_Energy-OPLS-2005>
4.34353160858154

> <r_mmod_Van_der_Waal_Energy-OPLS-2005>
140.026840209961

> <r_mmod_Electrostatic_Energy-OPLS-2005>
-493.276611328125

> <r_mmod_Solvation_Energy-OPLS-2005>
-249.07373046875

> <b_mmod_Minimization_Converged-OPLS-2005>
0

> <r_mmod_RMS_Derivative-OPLS-2005>
2.48744654655457

$$$$
48
                    3D
 Structure written by MMmdl.
154162  0  0  1  0            999 V2000
  -31.0965  -14.2077   20.7591 C   0  0  0  0  0  0
  -30.4601  -12.2502   19.2806 C   0  0  0  0  0  0
  -29.4443  -12.4816   18.1141 C   0  0  0  0  0  0
  -28.0076  -12.7600   18.6041 C   0  0  0  0  0  0
  -28.1775  -13.8918   19.6476 C   0  0  2  0  0  0
  -28.9199  -13.2076   20.8240 C   0  0  0  0  0  0
  -24.9128  -15.1661   19.3985 C   0  0  0  0  0  0
  -23.7436  -14.2144   20.6833 C   0  0  0  0  0  0
  -24.6044  -12.9832   21.8517 C   0  0  0  0  0  0
  -24.0466  -11.2690   21.5929 C   0  0  0  0  0  0
  -24.4731  -10.0085   22.2299 C   0  0  0  0  0  0
  -23.8352   -8.6769   22.1953 C   0  0  0  0  0  0
  -22.6568   -8.3736   21.4549 C   0  0  0  0  0  0
  -22.3123   -9.4684   20.6133 C   0  0  0  0  0  0
  -22.9859  -10.7758   20.6621 C   0  0  0  0  0  0
  -21.8148   -6.2354   22.5097 C   0  0  0  0  0  0
  -21.4771   -6.6566   23.8179 C   0  0  0  0  0  0
  -21.3760   -5.7357   24.8868 C   0  0  0  0  0  0
  -21.5946   -4.3610   24.6716 C   0  0  0  0  0  0
  -21.8719   -3.9116   23.3696 C   0  0  0  0  0  0
  -21.9626   -4.8284   22.2991 C   0  0  0  0  0  0
  -22.3184  -14.1123   20.9241 C   0  0  0  0  0  0
  -22.1942   -4.3329   21.0585 F   0  0  0  0  0  0
  -21.5432   -3.4848   25.7058 F   0  0  0  0  0  0
  -30.2960  -13.1620   20.4337 N   0  0  0  0  0  0
  -27.0485  -14.5995   20.1860 N   0  0  0  0  0  0
  -26.4616  -13.3940   21.8330 N   0  0  0  0  0  0
  -21.8441  -13.2127   21.8076 N   0  0  0  0  0  0
  -24.9239  -16.1394   18.5716 N   0  0  0  0  0  0
  -31.8672  -14.7174   19.9486 O   0  0  0  0  0  0
  -21.9249   -7.1485   21.4460 O   0  0  0  0  0  0
  -21.6458  -14.9462   20.3955 O   0  0  0  0  0  0
  -24.7724  -31.6396   23.0808 C   0  0  0  0  0  0
  -25.9823  -32.3620   23.7616 C   0  0  1  0  0  0
  -26.4198  -25.2432   20.5726 C   0  0  0  0  0  0
  -25.5963  -33.7579   24.1217 N   0  0  0  0  0  0
  -23.6073  -30.2303   21.4591 C   0  0  2  0  0  0
  -24.9231  -28.2766   20.1546 C   0  0  0  0  0  0
  -22.7910  -29.3538   22.4511 C   0  0  0  0  0  0
  -18.0366  -28.1441   22.8451 C   0  0  0  0  0  0
  -24.1513  -36.6680   23.2693 C   0  0  0  0  0  0
  -26.1520  -29.8345   21.5935 C   0  0  0  0  0  0
  -26.0357  -28.2685   20.9823 C   0  0  0  0  0  0
  -26.7482  -26.8145   21.1286 C   0  0  0  0  0  0
  -25.5353  -25.8107   19.5499 C   0  0  0  0  0  0
  -24.8159  -27.0968   19.3866 C   0  0  0  0  0  0
  -23.8876  -29.4616   20.1184 C   0  0  0  0  0  0
  -25.4216  -36.2383   24.0218 C   0  0  1  0  0  0
  -20.5977  -28.3747   23.1044 C   0  0  2  0  0  0
  -20.6731  -26.9339   22.5451 C   0  0  0  0  0  0
  -19.5730  -26.6326   21.5244 C   0  0  0  0  0  0
  -18.1926  -26.7968   22.1625 C   0  0  0  0  0  0
  -19.1646  -28.8957   23.2705 C   0  0  0  0  0  0
  -18.9564  -30.1539   23.8754 C   0  0  0  0  0  0
  -17.6552  -30.6617   24.0539 C   0  0  0  0  0  0
  -25.9271  -34.8815   23.4666 C   0  0  0  0  0  0
  -16.5432  -29.9090   23.6367 C   0  0  0  0  0  0
  -16.7347  -28.6513   23.0384 C   0  0  0  0  0  0
  -26.4764  -31.6316   25.0734 C   0  0  0  0  0  0
  -25.3567  -31.3883   26.1139 C   0  0  0  0  0  0
  -27.0931  -30.2580   24.7586 C   0  0  0  0  0  0
  -27.5986  -32.4571   25.7468 C   0  0  0  0  0  0
  -27.5549  -37.1438   24.8460 C   0  0  0  0  0  0
  -21.4539  -29.2774   22.3184 N   0  0  0  0  0  0
  -26.4191  -37.3319   23.9486 N   0  0  0  0  0  0
  -24.8974  -30.6515   22.0846 N   0  0  0  0  0  0
  -23.3860  -28.7386   23.3386 O   0  0  0  0  0  0
  -26.6995  -23.3506   20.8274 O   0  0  0  0  0  0
  -26.6133  -34.8665   22.4452 O   0  0  0  0  0  0
  -23.6599  -32.0222   23.5031 O   0  0  0  0  0  0
  -28.5353  -17.0181   22.2287 C   0  0  0  0  0  0
  -30.3176  -15.6013   22.5801 C   0  0  0  0  0  0
  -30.0082  -15.5951   23.9763 C   0  0  0  0  0  0
  -28.0437  -16.6773   23.5067 C   0  0  0  0  0  0
  -25.5198  -15.6128   21.5083 C   0  0  0  0  0  0
  -24.6841  -14.7649   24.0560 C   0  0  0  0  0  0
  -26.2431  -20.9185   20.7354 C   0  0  0  0  0  0
  -25.1863  -15.8262   23.0570 C   0  0  1  0  0  0
  -25.6112  -18.2103   21.1145 C   0  0  0  0  0  0
  -29.6502  -16.4371   21.7354 N   0  0  0  0  0  0
  -28.8219  -16.0733   24.4324 N   0  0  0  0  0  0
  -31.1227  -14.5458   22.0720 N   0  0  0  0  0  0
  -25.5111  -13.3295   19.9975 O   0  0  0  0  0  0
  -30.8835  -15.0848   24.8844 F   0  0  0  0  0  0
  -24.7281  -18.5685   22.0393 F   0  0  0  0  0  0
  -24.9288  -18.3029   19.9806 F   0  0  0  0  0  0
  -26.3526  -16.9789   23.9583 S   0  0  0  0  0  0
  -31.4771  -12.2698   18.8856 H   0  0  0  0  0  0
  -30.3110  -11.2438   19.6588 H   0  0  0  0  0  0
  -29.4276  -11.6174   17.4441 H   0  0  0  0  0  0
  -29.7670  -13.3313   17.5021 H   0  0  0  0  0  0
  -27.5501  -11.8624   19.0251 H   0  0  0  0  0  0
  -27.3724  -13.0660   17.7710 H   0  0  0  0  0  0
  -28.7763  -14.6794   19.1776 H   0  0  0  0  0  0
  -28.5427  -12.2076   21.0205 H   0  0  0  0  0  0
  -28.8301  -13.7357   21.7616 H   0  0  0  0  0  0
  -25.3368  -10.0954   22.8773 H   0  0  0  0  0  0
  -24.2668   -7.8931   22.7994 H   0  0  0  0  0  0
  -21.4865   -9.3443   19.9264 H   0  0  0  0  0  0
  -22.5978  -11.5068   19.9709 H   0  0  0  0  0  0
  -21.3080   -7.7079   24.0084 H   0  0  0  0  0  0
  -21.1415   -6.0904   25.8810 H   0  0  0  0  0  0
  -22.0202   -2.8579   23.1849 H   0  0  0  0  0  0
  -22.4323  -12.4738   22.1471 H   0  0  0  0  0  0
  -20.8790  -13.2224   22.1132 H   0  0  0  0  0  0
  -24.1000  -16.5544   18.1526 H   0  0  0  0  0  0
  -25.7351  -16.2099   17.9643 H   0  0  0  0  0  0
  -26.7923  -32.3831   23.0327 H   0  0  0  0  0  0
  -24.9804  -33.8390   24.9148 H   0  0  0  0  0  0
  -23.0065  -31.1072   21.2112 H   0  0  0  0  0  0
  -23.3936  -35.8826   23.3118 H   0  0  0  0  0  0
  -24.3564  -36.8663   22.2149 H   0  0  0  0  0  0
  -23.7076  -37.5646   23.7050 H   0  0  0  0  0  0
  -26.5916  -30.4250   20.7887 H   0  0  0  0  0  0
  -26.9387  -29.8117   22.3242 H   0  0  0  0  0  0
  -27.5150  -26.8241   21.8897 H   0  0  0  0  0  0
  -25.1579  -25.0512   18.8761 H   0  0  0  0  0  0
  -24.0451  -27.0879   18.6329 H   0  0  0  0  0  0
  -24.2304  -30.1660   19.3579 H   0  0  0  0  0  0
  -22.9449  -29.0658   19.7452 H   0  0  0  0  0  0
  -25.1495  -36.0966   25.0694 H   0  0  0  0  0  0
  -21.0053  -28.3488   24.1189 H   0  0  0  0  0  0
  -20.5505  -26.2392   23.3770 H   0  0  0  0  0  0
  -21.6580  -26.7116   22.1341 H   0  0  0  0  0  0
  -19.6814  -25.6234   21.1301 H   0  0  0  0  0  0
  -19.6733  -27.3115   20.6772 H   0  0  0  0  0  0
  -17.4206  -26.6775   21.4026 H   0  0  0  0  0  0
  -18.0230  -26.0147   22.9035 H   0  0  0  0  0  0
  -19.8058  -30.7376   24.2014 H   0  0  0  0  0  0
  -17.5122  -31.6287   24.5180 H   0  0  0  0  0  0
  -15.5425  -30.2936   23.7786 H   0  0  0  0  0  0
  -15.8753  -28.0777   22.7146 H   0  0  0  0  0  0
  -24.5905  -30.7092   25.7380 H   0  0  0  0  0  0
  -24.8597  -32.3139   26.4038 H   0  0  0  0  0  0
  -25.7540  -30.9367   27.0234 H   0  0  0  0  0  0
  -26.3608  -29.5493   24.3693 H   0  0  0  0  0  0
  -27.4840  -29.8040   25.6700 H   0  0  0  0  0  0
  -27.9443  -30.3368   24.0834 H   0  0  0  0  0  0
  -27.2356  -33.4082   26.1393 H   0  0  0  0  0  0
  -28.4034  -32.6771   25.0435 H   0  0  0  0  0  0
  -28.0408  -31.9204   26.5861 H   0  0  0  0  0  0
  -28.2339  -37.9935   24.7791 H   0  0  0  0  0  0
  -28.1275  -36.2482   24.6028 H   0  0  0  0  0  0
  -27.2287  -37.0706   25.8835 H   0  0  0  0  0  0
  -21.0049  -29.8073   21.5847 H   0  0  0  0  0  0
  -25.9905  -38.2276   24.1682 H   0  0  0  0  0  0
  -27.9731  -17.6688   21.5735 H   0  0  0  0  0  0
  -23.6758  -14.4224   23.8314 H   0  0  0  0  0  0
  -24.6187  -15.2031   25.0560 H   0  0  0  0  0  0
  -25.3328  -13.9005   24.1456 H   0  0  0  0  0  0
  -25.3587  -21.1122   20.1243 H   0  0  0  0  0  0
  -27.0493  -20.7327   20.0285 H   0  0  0  0  0  0
  -24.2718  -16.4247   22.9357 H   0  0  0  0  0  0
  -31.1583  -13.7656   22.7226 H   0  0  0  0  0  0
  1 25  1  0  0  0
  1 30  2  0  0  0
  1 82  1  0  0  0
  2  3  1  0  0  0
  2 25  1  0  0  0
  2 88  1  0  0  0
  2 89  1  0  0  0
  3  4  1  0  0  0
  3 90  1  0  0  0
  3 91  1  0  0  0
  4  5  1  0  0  0
  4 92  1  0  0  0
  4 93  1  0  0  0
  5  6  1  0  0  0
  5 26  1  0  0  0
  5 94  1  0  0  0
  6 25  1  0  0  0
  6 95  1  0  0  0
  6 96  1  0  0  0
  7  8  2  0  0  0
  7 26  1  0  0  0
  7 29  1  0  0  0
  8  9  1  0  0  0
  8 22  1  0  0  0
  9 10  1  0  0  0
  9 27  2  0  0  0
 10 11  2  0  0  0
 10 15  1  0  0  0
 11 12  1  0  0  0
 11 97  1  0  0  0
 12 13  2  0  0  0
 12 98  1  0  0  0
 13 14  1  0  0  0
 13 31  1  0  0  0
 14 15  2  0  0  0
 14 99  1  0  0  0
 15100  1  0  0  0
 16 17  2  0  0  0
 16 21  1  0  0  0
 16 31  1  0  0  0
 17 18  1  0  0  0
 17101  1  0  0  0
 18 19  2  0  0  0
 18102  1  0  0  0
 19 20  1  0  0  0
 19 24  1  0  0  0
 20 21  2  0  0  0
 20103  1  0  0  0
 21 23  1  0  0  0
 22 28  1  0  0  0
 22 32  2  0  0  0
 26 27  1  0  0  0
 28104  1  0  0  0
 28105  1  0  0  0
 29106  1  0  0  0
 29107  1  0  0  0
 33 34  1  0  0  0
 33 66  1  0  0  0
 33 70  2  0  0  0
 34 36  1  0  0  0
 34 59  1  0  0  0
 34108  1  0  0  0
 35 44  2  0  0  0
 35 45  1  0  0  0
 35 68  1  0  0  0
 36 56  1  0  0  0
 36109  1  0  0  0
 37 39  1  0  0  0
 37 47  1  0  0  0
 37 66  1  0  0  0
 37110  1  0  0  0
 38 43  2  0  0  0
 38 46  1  0  0  0
 38 47  1  0  0  0
 39 64  1  0  0  0
 39 67  2  0  0  0
 40 52  1  0  0  0
 40 53  2  0  0  0
 40 58  1  0  0  0
 41111  1  0  0  0
 41112  1  0  0  0
 41113  1  0  0  0
 41 48  1  0  0  0
 42 43  1  0  0  0
 42 66  1  0  0  0
 42114  1  0  0  0
 42115  1  0  0  0
 43 44  1  0  0  0
 44116  1  0  0  0
 45 46  2  0  0  0
 45117  1  0  0  0
 46118  1  0  0  0
 47119  1  0  0  0
 47120  1  0  0  0
 48 56  1  0  0  0
 48 65  1  0  0  0
 48121  1  0  0  0
 49 50  1  0  0  0
 49 53  1  0  0  0
 49 64  1  0  0  0
 49122  1  0  0  0
 50 51  1  0  0  0
 50123  1  0  0  0
 50124  1  0  0  0
 51 52  1  0  0  0
 51125  1  0  0  0
 51126  1  0  0  0
 52127  1  0  0  0
 52128  1  0  0  0
 53 54  1  0  0  0
 54 55  2  0  0  0
 54129  1  0  0  0
 55 57  1  0  0  0
 55130  1  0  0  0
 56 69  2  0  0  0
 57 58  2  0  0  0
 57131  1  0  0  0
 58132  1  0  0  0
 59 60  1  0  0  0
 59 61  1  0  0  0
 59 62  1  0  0  0
 60133  1  0  0  0
 60134  1  0  0  0
 60135  1  0  0  0
 61136  1  0  0  0
 61137  1  0  0  0
 61138  1  0  0  0
 62139  1  0  0  0
 62140  1  0  0  0
 62141  1  0  0  0
 63 65  1  0  0  0
 63142  1  0  0  0
 63143  1  0  0  0
 63144  1  0  0  0
 64145  1  0  0  0
 65146  1  0  0  0
 68 77  1  0  0  0
 71 74  2  0  0  0
 71 80  1  0  0  0
 71147  1  0  0  0
 72 73  1  0  0  0
 72 80  2  0  0  0
 72 82  1  0  0  0
 73 81  2  0  0  0
 73 84  1  0  0  0
 74 81  1  0  0  0
 74 87  1  0  0  0
 75 78  1  0  0  0
 75 79  1  0  0  0
 75 83  2  0  0  0
 76148  1  0  0  0
 76149  1  0  0  0
 76150  1  0  0  0
 76 78  1  0  0  0
 77 79  1  0  0  0
 77151  1  0  0  0
 77152  1  0  0  0
 78 87  1  0  0  0
 78153  1  0  0  0
 79 85  1  0  0  0
 79 86  1  0  0  0
 82154  1  0  0  0
M  ISO  4   1 100  68 101  77 101  82 100
M  END
> <chiral flag>
0

> <version>
0

> <s_m_source_file>
/data/baiqing/PycharmProjects/Reinvent-master-3.2/result/LINK_invent/BTK/process_docking_weight1_custom_product_contain_oxygen_bond_distance_aromatic_linkinvent_7_9_3/rearranged_h_0178.sdf

> <i_m_source_file_index>
49

> <r_mmod_Potential_Energy-OPLS-2005>
27337.439453125

> <r_mmod_Stretch_Energy-OPLS-2005>
16280.462890625

> <r_mmod_Bend_Energy-OPLS-2005>
1631.54833984375

> <r_mmod_Torsional_Energy-OPLS-2005>
535.346008300781

> <r_mmod_Improper_Torsional_Energy-OPLS-2005>
56.1172103881836

> <r_mmod_Van_der_Waal_Energy-OPLS-2005>
3647.89526367188

> <r_mmod_Electrostatic_Energy-OPLS-2005>
-345.134643554688

> <r_mmod_Solvation_Energy-OPLS-2005>
-249.637588500977

> <b_mmod_Minimization_Converged-OPLS-2005>
0

> <r_mmod_RMS_Derivative-OPLS-2005>
25.6786441802979

$$$$
49
                    3D
 Structure written by MMmdl.
152160  0  0  1  0            999 V2000
  -30.6727  -14.5615   20.4489 C   0  0  0  0  0  0
  -30.4230  -12.3309   19.4582 C   0  0  0  0  0  0
  -29.5065  -12.4793   18.2248 C   0  0  0  0  0  0
  -28.0267  -12.3401   18.6324 C   0  0  0  0  0  0
  -27.6534  -13.2155   19.8595 C   0  0  2  0  0  0
  -28.6964  -13.0817   20.9927 C   0  0  0  0  0  0
  -25.2570  -13.8174   20.5679 C   0  0  0  0  0  0
  -24.1831  -13.0443   20.9174 C   0  0  0  0  0  0
  -24.6393  -11.6911   20.8726 C   0  0  0  0  0  0
  -23.9058  -10.4288   21.0396 C   0  0  0  0  0  0
  -24.3604   -9.4205   21.9175 C   0  0  0  0  0  0
  -23.6280   -8.2238   22.0750 C   0  0  0  0  0  0
  -22.4261   -8.0275   21.3545 C   0  0  0  0  0  0
  -21.9896   -9.0247   20.4649 C   0  0  0  0  0  0
  -22.7225  -10.2122   20.3054 C   0  0  0  0  0  0
  -21.6853   -6.0720   22.5274 C   0  0  0  0  0  0
  -21.4016   -6.5625   23.8201 C   0  0  0  0  0  0
  -21.3663   -5.6778   24.9166 C   0  0  0  0  0  0
  -21.6044   -4.3043   24.7224 C   0  0  0  0  0  0
  -21.8819   -3.8136   23.4345 C   0  0  0  0  0  0
  -21.9194   -4.6952   22.3398 C   0  0  0  0  0  0
  -22.7858  -13.5249   21.1837 C   0  0  0  0  0  0
  -22.1663   -4.2133   21.0976 F   0  0  0  0  0  0
  -21.5629   -3.4535   25.7741 F   0  0  0  0  0  0
  -30.0204  -13.3654   20.4256 N   0  0  0  0  0  0
  -26.2994  -12.9354   20.3300 N   0  0  0  0  0  0
  -25.9316  -11.6508   20.5727 N   0  0  0  0  0  0
  -22.0487  -12.8251   22.0392 N   0  0  0  0  0  0
  -25.4299  -15.1889   20.4097 N   0  0  0  0  0  0
  -31.8720  -14.6486   20.1725 O   0  0  0  0  0  0
  -21.6641   -6.8867   21.4233 O   0  0  0  0  0  0
  -22.3554  -14.5570   20.6697 O   0  0  0  0  0  0
  -24.6196  -31.8636   23.2057 C   0  0  0  0  0  0
  -25.9061  -32.4801   23.8375 C   0  0  1  0  0  0
  -27.2319  -27.3806   20.0905 C   0  0  0  0  0  0
  -25.5894  -33.8599   24.2303 N   0  0  0  0  0  0
  -23.4097  -30.4856   21.5487 C   0  0  2  0  0  0
  -24.8534  -28.9437   20.1136 C   0  0  0  0  0  0
  -22.7438  -29.4627   22.4983 C   0  0  0  0  0  0
  -18.0276  -28.1380   22.8490 C   0  0  0  0  0  0
  -24.1482  -36.7313   23.2634 C   0  0  0  0  0  0
  -25.9431  -30.8118   21.3650 C   0  0  0  0  0  0
  -26.0171  -29.4413   20.7113 C   0  0  0  0  0  0
  -27.2051  -28.6671   20.6952 C   0  0  0  0  0  0
  -26.0380  -26.9035   19.5008 C   0  0  0  0  0  0
  -24.8611  -27.6774   19.5058 C   0  0  0  0  0  0
  -23.6190  -29.8174   20.1639 C   0  0  0  0  0  0
  -25.4102  -36.3100   24.0333 C   0  0  1  0  0  0
  -20.5866  -28.3664   23.1314 C   0  0  2  0  0  0
  -20.6760  -26.9398   22.5419 C   0  0  0  0  0  0
  -19.5740  -26.6381   21.5214 C   0  0  0  0  0  0
  -18.1919  -26.7923   22.1623 C   0  0  0  0  0  0
  -19.1524  -28.8842   23.2895 C   0  0  0  0  0  0
  -18.9452  -30.1444   23.8908 C   0  0  0  0  0  0
  -17.6451  -30.6582   24.0563 C   0  0  0  0  0  0
  -25.9036  -34.9467   23.5121 C   0  0  0  0  0  0
  -16.5343  -29.9083   23.6319 C   0  0  0  0  0  0
  -16.7264  -28.6501   23.0345 C   0  0  0  0  0  0
  -26.4468  -31.6595   25.0722 C   0  0  0  0  0  0
  -25.3723  -31.3724   26.1469 C   0  0  0  0  0  0
  -27.0287  -30.3026   24.6119 C   0  0  0  0  0  0
  -27.6042  -32.4319   25.7480 C   0  0  0  0  0  0
  -27.5591  -37.1792   24.8451 C   0  0  0  0  0  0
  -21.4160  -29.3027   22.3730 N   0  0  0  0  0  0
  -26.4281  -37.3798   23.9427 N   0  0  0  0  0  0
  -24.6764  -31.0696   22.0977 N   0  0  0  0  0  0
  -23.4196  -28.8168   23.3039 O   0  0  0  0  0  0
  -28.4098  -26.6407   20.1130 O   0  0  0  0  0  0
  -26.5610  -34.8926   22.4691 O   0  0  0  0  0  0
  -23.5371  -32.1411   23.7417 O   0  0  0  0  0  0
  -30.5437  -16.6824   18.3894 C   0  0  0  0  0  0
  -30.5605  -17.7379   17.4737 C   0  0  0  0  0  0
  -29.9757  -18.9591   17.8286 C   0  0  0  0  0  0
  -29.9648  -16.8454   19.6706 C   0  0  0  0  0  0
  -29.4133  -19.1080   19.1114 C   0  0  0  0  0  0
  -28.3127  -22.7361   19.4950 C   0  0  0  0  0  0
  -28.8820  -21.3952   20.1184 C   0  0  0  0  0  0
  -28.3492  -24.0683   20.3018 C   0  0  0  0  0  0
  -28.5286  -25.3608   19.4298 C   0  0  0  0  0  0
  -29.4065  -18.0603   20.0088 N   0  0  0  0  0  0
  -28.7623  -20.3787   19.2387 N   0  0  0  0  0  0
  -29.8928  -15.6772   20.5264 N   0  0  0  0  0  0
  -27.8154  -22.7271   18.3599 O   0  0  0  0  0  0
  -29.3417  -21.3104   21.2635 O   0  0  0  0  0  0
  -31.1086  -17.5618   16.2454 F   0  0  0  0  0  0
  -29.9336  -19.9792   16.9338 F   0  0  0  0  0  0
  -31.4709  -12.4170   19.1632 H   0  0  0  0  0  0
  -30.3189  -11.3412   19.9054 H   0  0  0  0  0  0
  -29.7572  -11.7225   17.4799 H   0  0  0  0  0  0
  -29.6683  -13.4470   17.7469 H   0  0  0  0  0  0
  -27.8490  -11.2885   18.8603 H   0  0  0  0  0  0
  -27.3822  -12.5810   17.7866 H   0  0  0  0  0  0
  -27.6696  -14.2473   19.5102 H   0  0  0  0  0  0
  -28.6818  -12.0749   21.4122 H   0  0  0  0  0  0
  -28.4668  -13.7577   21.8181 H   0  0  0  0  0  0
  -25.2738   -9.5684   22.4764 H   0  0  0  0  0  0
  -23.9984   -7.4627   22.7476 H   0  0  0  0  0  0
  -21.0815   -8.8772   19.8956 H   0  0  0  0  0  0
  -22.3681  -10.9661   19.6174 H   0  0  0  0  0  0
  -21.2008   -7.6128   23.9701 H   0  0  0  0  0  0
  -21.1492   -6.0512   25.9063 H   0  0  0  0  0  0
  -22.0603   -2.7599   23.2856 H   0  0  0  0  0  0
  -22.4079  -11.9911   22.4791 H   0  0  0  0  0  0
  -21.1115  -13.1308   22.2592 H   0  0  0  0  0  0
  -24.6645  -15.8457   20.5193 H   0  0  0  0  0  0
  -26.2804  -15.6273   20.0809 H   0  0  0  0  0  0
  -26.7128  -32.5492   23.1129 H   0  0  0  0  0  0
  -25.0030  -33.9753   25.0439 H   0  0  0  0  0  0
  -22.7001  -31.3036   21.4079 H   0  0  0  0  0  0
  -23.3751  -35.9636   23.3259 H   0  0  0  0  0  0
  -24.3593  -36.8970   22.2057 H   0  0  0  0  0  0
  -23.7214  -37.6496   23.6677 H   0  0  0  0  0  0
  -26.0595  -31.5748   20.5942 H   0  0  0  0  0  0
  -26.8295  -30.8669   21.9853 H   0  0  0  0  0  0
  -28.1054  -29.0507   21.1546 H   0  0  0  0  0  0
  -25.9814  -25.9285   19.0413 H   0  0  0  0  0  0
  -23.9635  -27.2866   19.0460 H   0  0  0  0  0  0
  -23.7324  -30.5912   19.4038 H   0  0  0  0  0  0
  -22.7411  -29.2407   19.8671 H   0  0  0  0  0  0
  -25.1265  -36.1957   25.0822 H   0  0  0  0  0  0
  -20.9941  -28.3219   24.1439 H   0  0  0  0  0  0
  -20.5648  -26.2272   23.3606 H   0  0  0  0  0  0
  -21.6635  -26.7433   22.1221 H   0  0  0  0  0  0
  -19.6898  -25.6293   21.1237 H   0  0  0  0  0  0
  -19.6668  -27.3193   20.6744 H   0  0  0  0  0  0
  -17.4183  -26.6667   21.4030 H   0  0  0  0  0  0
  -18.0317  -26.0068   22.9021 H   0  0  0  0  0  0
  -19.7926  -30.7260   24.2285 H   0  0  0  0  0  0
  -17.5005  -31.6261   24.5162 H   0  0  0  0  0  0
  -15.5344  -30.2989   23.7637 H   0  0  0  0  0  0
  -15.8662  -28.0821   22.7056 H   0  0  0  0  0  0
  -24.5898  -30.7060   25.7823 H   0  0  0  0  0  0
  -24.8911  -32.2884   26.4906 H   0  0  0  0  0  0
  -25.8069  -30.8913   27.0238 H   0  0  0  0  0  0
  -26.2831  -29.6802   24.1154 H   0  0  0  0  0  0
  -27.4019  -29.7254   25.4588 H   0  0  0  0  0  0
  -27.8689  -30.4334   23.9293 H   0  0  0  0  0  0
  -27.2662  -33.3616   26.2073 H   0  0  0  0  0  0
  -28.3839  -32.6883   25.0294 H   0  0  0  0  0  0
  -28.0722  -31.8434   26.5382 H   0  0  0  0  0  0
  -28.2561  -38.0139   24.7577 H   0  0  0  0  0  0
  -28.1134  -36.2677   24.6159 H   0  0  0  0  0  0
  -27.2332  -37.1304   25.8857 H   0  0  0  0  0  0
  -20.9334  -29.8771   21.6960 H   0  0  0  0  0  0
  -26.0161  -38.2862   24.1476 H   0  0  0  0  0  0
  -30.9660  -15.7459   18.0593 H   0  0  0  0  0  0
  -29.1458  -24.0099   21.0432 H   0  0  0  0  0  0
  -27.4128  -24.1334   20.8548 H   0  0  0  0  0  0
  -27.9260  -25.3277   18.5230 H   0  0  0  0  0  0
  -29.5519  -25.3390   19.0538 H   0  0  0  0  0  0
  -28.4209  -20.7410   18.3557 H   0  0  0  0  0  0
  -29.0159  -15.5571   21.0080 H   0  0  0  0  0  0
  1 25  1  0  0  0
  1 30  2  0  0  0
  1 82  1  0  0  0
  2  3  1  0  0  0
  2 25  1  0  0  0
  2 87  1  0  0  0
  2 88  1  0  0  0
  3  4  1  0  0  0
  3 89  1  0  0  0
  3 90  1  0  0  0
  4  5  1  0  0  0
  4 91  1  0  0  0
  4 92  1  0  0  0
  5  6  1  0  0  0
  5 26  1  0  0  0
  5 93  1  0  0  0
  6 25  1  0  0  0
  6 94  1  0  0  0
  6 95  1  0  0  0
  7  8  2  0  0  0
  7 26  1  0  0  0
  7 29  1  0  0  0
  8  9  1  0  0  0
  8 22  1  0  0  0
  9 10  1  0  0  0
  9 27  2  0  0  0
 10 11  2  0  0  0
 10 15  1  0  0  0
 11 12  1  0  0  0
 11 96  1  0  0  0
 12 13  2  0  0  0
 12 97  1  0  0  0
 13 14  1  0  0  0
 13 31  1  0  0  0
 14 15  2  0  0  0
 14 98  1  0  0  0
 15 99  1  0  0  0
 16 17  2  0  0  0
 16 21  1  0  0  0
 16 31  1  0  0  0
 17 18  1  0  0  0
 17100  1  0  0  0
 18 19  2  0  0  0
 18101  1  0  0  0
 19 20  1  0  0  0
 19 24  1  0  0  0
 20 21  2  0  0  0
 20102  1  0  0  0
 21 23  1  0  0  0
 22 28  1  0  0  0
 22 32  2  0  0  0
 26 27  1  0  0  0
 28103  1  0  0  0
 28104  1  0  0  0
 29105  1  0  0  0
 29106  1  0  0  0
 33 34  1  0  0  0
 33 66  1  0  0  0
 33 70  2  0  0  0
 34 36  1  0  0  0
 34 59  1  0  0  0
 34107  1  0  0  0
 35 44  2  0  0  0
 35 45  1  0  0  0
 35 68  1  0  0  0
 36 56  1  0  0  0
 36108  1  0  0  0
 37 39  1  0  0  0
 37 47  1  0  0  0
 37 66  1  0  0  0
 37109  1  0  0  0
 38 43  2  0  0  0
 38 46  1  0  0  0
 38 47  1  0  0  0
 39 64  1  0  0  0
 39 67  2  0  0  0
 40 52  1  0  0  0
 40 53  2  0  0  0
 40 58  1  0  0  0
 41110  1  0  0  0
 41111  1  0  0  0
 41112  1  0  0  0
 41 48  1  0  0  0
 42 43  1  0  0  0
 42 66  1  0  0  0
 42113  1  0  0  0
 42114  1  0  0  0
 43 44  1  0  0  0
 44115  1  0  0  0
 45 46  2  0  0  0
 45116  1  0  0  0
 46117  1  0  0  0
 47118  1  0  0  0
 47119  1  0  0  0
 48 56  1  0  0  0
 48 65  1  0  0  0
 48120  1  0  0  0
 49 50  1  0  0  0
 49 53  1  0  0  0
 49 64  1  0  0  0
 49121  1  0  0  0
 50 51  1  0  0  0
 50122  1  0  0  0
 50123  1  0  0  0
 51 52  1  0  0  0
 51124  1  0  0  0
 51125  1  0  0  0
 52126  1  0  0  0
 52127  1  0  0  0
 53 54  1  0  0  0
 54 55  2  0  0  0
 54128  1  0  0  0
 55 57  1  0  0  0
 55129  1  0  0  0
 56 69  2  0  0  0
 57 58  2  0  0  0
 57130  1  0  0  0
 58131  1  0  0  0
 59 60  1  0  0  0
 59 61  1  0  0  0
 59 62  1  0  0  0
 60132  1  0  0  0
 60133  1  0  0  0
 60134  1  0  0  0
 61135  1  0  0  0
 61136  1  0  0  0
 61137  1  0  0  0
 62138  1  0  0  0
 62139  1  0  0  0
 62140  1  0  0  0
 63 65  1  0  0  0
 63141  1  0  0  0
 63142  1  0  0  0
 63143  1  0  0  0
 64144  1  0  0  0
 65145  1  0  0  0
 68 79  1  0  0  0
 71 72  2  0  0  0
 71 74  1  0  0  0
 71146  1  0  0  0
 72 73  1  0  0  0
 72 85  1  0  0  0
 73 75  2  0  0  0
 73 86  1  0  0  0
 74 80  2  0  0  0
 74 82  1  0  0  0
 75 80  1  0  0  0
 75 81  1  0  0  0
 76 77  1  0  0  0
 76 78  1  0  0  0
 76 83  2  0  0  0
 77 81  1  0  0  0
 77 84  2  0  0  0
 78 79  1  0  0  0
 78147  1  0  0  0
 78148  1  0  0  0
 79149  1  0  0  0
 79150  1  0  0  0
 81151  1  0  0  0
 82152  1  0  0  0
M  ISO  4   1 100  68 101  79 101  82 100
M  END
> <chiral flag>
0

> <version>
0

> <s_m_source_file>
/data/baiqing/PycharmProjects/Reinvent-master-3.2/result/LINK_invent/BTK/process_docking_weight1_custom_product_contain_oxygen_bond_distance_aromatic_linkinvent_7_9_3/rearranged_h_0178.sdf

> <i_m_source_file_index>
50

> <r_mmod_Potential_Energy-OPLS-2005>
-159.221725463867

> <r_mmod_Stretch_Energy-OPLS-2005>
56.4610710144043

> <r_mmod_Bend_Energy-OPLS-2005>
138.247650146484

> <r_mmod_Torsional_Energy-OPLS-2005>
255.514938354492

> <r_mmod_Improper_Torsional_Energy-OPLS-2005>
9.89977359771729

> <r_mmod_Van_der_Waal_Energy-OPLS-2005>
154.810684204102

> <r_mmod_Electrostatic_Energy-OPLS-2005>
-567.250427246094

> <r_mmod_Solvation_Energy-OPLS-2005>
-237.424407958984

> <b_mmod_Minimization_Converged-OPLS-2005>
0

> <r_mmod_RMS_Derivative-OPLS-2005>
1.78407764434814

$$$$
50
                    3D
 Structure written by MMmdl.
152160  0  0  1  0            999 V2000
  -30.5409  -14.8920   20.4136 C   0  0  0  0  0  0
  -30.4400  -12.5383   19.5108 C   0  0  0  0  0  0
  -29.5252  -12.5074   18.2636 C   0  0  0  0  0  0
  -28.0520  -12.3165   18.6708 C   0  0  0  0  0  0
  -27.6352  -13.2422   19.8441 C   0  0  2  0  0  0
  -28.6725  -13.2385   20.9877 C   0  0  0  0  0  0
  -25.2478  -13.8219   20.5690 C   0  0  0  0  0  0
  -24.1792  -13.0443   20.9215 C   0  0  0  0  0  0
  -24.6399  -11.6921   20.8744 C   0  0  0  0  0  0
  -23.9082  -10.4293   21.0398 C   0  0  0  0  0  0
  -24.3635   -9.4209   21.9175 C   0  0  0  0  0  0
  -23.6306   -8.2244   22.0747 C   0  0  0  0  0  0
  -22.4281   -8.0280   21.3540 C   0  0  0  0  0  0
  -21.9920   -9.0258   20.4642 C   0  0  0  0  0  0
  -22.7251  -10.2136   20.3054 C   0  0  0  0  0  0
  -21.6856   -6.0743   22.5282 C   0  0  0  0  0  0
  -21.4020   -6.5643   23.8217 C   0  0  0  0  0  0
  -21.3662   -5.6792   24.9177 C   0  0  0  0  0  0
  -21.6044   -4.3056   24.7223 C   0  0  0  0  0  0
  -21.8817   -3.8149   23.4343 C   0  0  0  0  0  0
  -21.9194   -4.6970   22.3400 C   0  0  0  0  0  0
  -22.7812  -13.5209   21.1870 C   0  0  0  0  0  0
  -22.1655   -4.2160   21.0978 F   0  0  0  0  0  0
  -21.5635   -3.4533   25.7737 F   0  0  0  0  0  0
  -29.9626  -13.6280   20.4064 N   0  0  0  0  0  0
  -26.2900  -12.9438   20.3243 N   0  0  0  0  0  0
  -25.9336  -11.6570   20.5751 N   0  0  0  0  0  0
  -22.0454  -12.8210   22.0432 N   0  0  0  0  0  0
  -25.4162  -15.1951   20.4116 N   0  0  0  0  0  0
  -31.7290  -14.9816   20.0832 O   0  0  0  0  0  0
  -21.6640   -6.8879   21.4238 O   0  0  0  0  0  0
  -22.3492  -14.5505   20.6704 O   0  0  0  0  0  0
  -24.6404  -31.8467   23.1894 C   0  0  0  0  0  0
  -25.9193  -32.4708   23.8276 C   0  0  1  0  0  0
  -27.2255  -27.1712   20.1348 C   0  0  0  0  0  0
  -25.5960  -33.8514   24.2214 N   0  0  0  0  0  0
  -23.4427  -30.4659   21.5334 C   0  0  2  0  0  0
  -24.8934  -28.8971   20.1041 C   0  0  0  0  0  0
  -22.7555  -29.4559   22.4858 C   0  0  0  0  0  0
  -18.0301  -28.1392   22.8478 C   0  0  0  0  0  0
  -24.1498  -36.7272   23.2635 C   0  0  0  0  0  0
  -25.9944  -30.7308   21.3812 C   0  0  0  0  0  0
  -26.0660  -29.3437   20.7250 C   0  0  0  0  0  0
  -27.2293  -28.4925   20.7301 C   0  0  0  0  0  0
  -26.0271  -26.8170   19.4762 C   0  0  0  0  0  0
  -24.8850  -27.6470   19.4657 C   0  0  0  0  0  0
  -23.6677  -29.7958   20.1508 C   0  0  0  0  0  0
  -25.4122  -36.3051   24.0324 C   0  0  1  0  0  0
  -20.5916  -28.3721   23.1244 C   0  0  2  0  0  0
  -20.6785  -26.9421   22.5414 C   0  0  0  0  0  0
  -19.5765  -26.6384   21.5215 C   0  0  0  0  0  0
  -18.1945  -26.7932   22.1618 C   0  0  0  0  0  0
  -19.1555  -28.8872   23.2860 C   0  0  0  0  0  0
  -18.9470  -30.1464   23.8894 C   0  0  0  0  0  0
  -17.6466  -30.6586   24.0563 C   0  0  0  0  0  0
  -25.9071  -34.9421   23.5081 C   0  0  0  0  0  0
  -16.5361  -29.9086   23.6316 C   0  0  0  0  0  0
  -16.7287  -28.6502   23.0347 C   0  0  0  0  0  0
  -26.4528  -31.6546   25.0689 C   0  0  0  0  0  0
  -25.3732  -31.3740   26.1401 C   0  0  0  0  0  0
  -27.0345  -30.2938   24.6215 C   0  0  0  0  0  0
  -27.6095  -32.4268   25.7457 C   0  0  0  0  0  0
  -27.5596  -37.1775   24.8445 C   0  0  0  0  0  0
  -21.4249  -29.3056   22.3617 N   0  0  0  0  0  0
  -26.4284  -37.3763   23.9423 N   0  0  0  0  0  0
  -24.7123  -31.0351   22.0906 N   0  0  0  0  0  0
  -23.4215  -28.8105   23.2992 O   0  0  0  0  0  0
  -28.2971  -26.2218   20.2400 O   0  0  0  0  0  0
  -26.5649  -34.8915   22.4653 O   0  0  0  0  0  0
  -23.5531  -32.1324   23.7135 O   0  0  0  0  0  0
  -29.8420  -19.3273   18.9281 C   0  0  0  0  0  0
  -30.0485  -17.8915   18.9409 C   0  0  0  0  0  0
  -29.4052  -19.7517   20.1588 C   0  0  0  0  0  0
  -29.7890  -17.4110   20.2183 C   0  0  0  0  0  0
  -28.2473  -24.8319   19.8038 C   0  0  0  0  0  0
  -30.3816  -17.0589   17.7620 C   0  0  0  0  0  0
  -28.7294  -23.6565   20.4228 C   0  0  0  0  0  0
  -28.7360  -22.2473   19.7909 C   0  0  0  0  0  0
  -31.4146  -17.6188   16.7959 C   0  0  0  0  0  0
  -29.1342  -21.1108   20.5339 N   0  0  0  0  0  0
  -29.7504  -16.0416   20.6611 N   0  0  0  0  0  0
  -29.8466  -15.9724   17.5344 O   0  0  0  0  0  0
  -28.3880  -22.0919   18.6179 O   0  0  0  0  0  0
  -29.3764  -18.5683   20.9731 O   0  0  0  0  0  0
  -29.2543  -23.7735   21.6494 O   0  0  0  0  0  0
  -31.4792  -12.6801   19.2087 H   0  0  0  0  0  0
  -30.4138  -11.5804   20.0330 H   0  0  0  0  0  0
  -29.8351  -11.7076   17.5897 H   0  0  0  0  0  0
  -29.6333  -13.4342   17.7022 H   0  0  0  0  0  0
  -27.9297  -11.2735   18.9637 H   0  0  0  0  0  0
  -27.3968  -12.4691   17.8127 H   0  0  0  0  0  0
  -27.6113  -14.2503   19.4293 H   0  0  0  0  0  0
  -28.7377  -12.2565   21.4572 H   0  0  0  0  0  0
  -28.3775  -13.9348   21.7745 H   0  0  0  0  0  0
  -25.2782   -9.5690   22.4745 H   0  0  0  0  0  0
  -24.0022   -7.4641   22.7463 H   0  0  0  0  0  0
  -21.0852   -8.8772   19.8955 H   0  0  0  0  0  0
  -22.3702  -10.9674   19.6161 H   0  0  0  0  0  0
  -21.2006   -7.6150   23.9733 H   0  0  0  0  0  0
  -21.1488   -6.0514   25.9086 H   0  0  0  0  0  0
  -22.0595   -2.7612   23.2838 H   0  0  0  0  0  0
  -22.4067  -11.9878   22.4831 H   0  0  0  0  0  0
  -21.1074  -13.1239   22.2631 H   0  0  0  0  0  0
  -24.6420  -15.8426   20.5141 H   0  0  0  0  0  0
  -26.2598  -15.6375   20.0687 H   0  0  0  0  0  0
  -26.7258  -32.5335   23.1006 H   0  0  0  0  0  0
  -25.0105  -33.9630   25.0360 H   0  0  0  0  0  0
  -22.7444  -31.2911   21.3805 H   0  0  0  0  0  0
  -23.3770  -35.9590   23.3253 H   0  0  0  0  0  0
  -24.3601  -36.8939   22.2057 H   0  0  0  0  0  0
  -23.7231  -37.6453   23.6685 H   0  0  0  0  0  0
  -26.1388  -31.4834   20.6045 H   0  0  0  0  0  0
  -26.8708  -30.7886   22.0153 H   0  0  0  0  0  0
  -28.1220  -28.8255   21.2408 H   0  0  0  0  0  0
  -25.9374  -25.8573   18.9913 H   0  0  0  0  0  0
  -23.9893  -27.3020   18.9677 H   0  0  0  0  0  0
  -23.8021  -30.5718   19.3962 H   0  0  0  0  0  0
  -22.7836  -29.2367   19.8392 H   0  0  0  0  0  0
  -25.1301  -36.1882   25.0813 H   0  0  0  0  0  0
  -21.0012  -28.3314   24.1365 H   0  0  0  0  0  0
  -20.5665  -26.2340   23.3638 H   0  0  0  0  0  0
  -21.6657  -26.7425   22.1220 H   0  0  0  0  0  0
  -19.6928  -25.6292   21.1254 H   0  0  0  0  0  0
  -19.6705  -27.3191   20.6741 H   0  0  0  0  0  0
  -17.4217  -26.6687   21.4014 H   0  0  0  0  0  0
  -18.0334  -26.0075   22.9012 H   0  0  0  0  0  0
  -19.7948  -30.7279   24.2279 H   0  0  0  0  0  0
  -17.5016  -31.6265   24.5169 H   0  0  0  0  0  0
  -15.5360  -30.2991   23.7631 H   0  0  0  0  0  0
  -15.8689  -28.0819   22.7065 H   0  0  0  0  0  0
  -24.5919  -30.7067   25.7739 H   0  0  0  0  0  0
  -24.8908  -32.2922   26.4764 H   0  0  0  0  0  0
  -25.8031  -30.8963   27.0215 H   0  0  0  0  0  0
  -26.2914  -29.6678   24.1260 H   0  0  0  0  0  0
  -27.4010  -29.7216   25.4749 H   0  0  0  0  0  0
  -27.8817  -30.4167   23.9465 H   0  0  0  0  0  0
  -27.2740  -33.3597   26.2001 H   0  0  0  0  0  0
  -28.3929  -32.6765   25.0285 H   0  0  0  0  0  0
  -28.0733  -31.8391   26.5392 H   0  0  0  0  0  0
  -28.2558  -38.0126   24.7570 H   0  0  0  0  0  0
  -28.1152  -36.2667   24.6164 H   0  0  0  0  0  0
  -27.2339  -37.1291   25.8850 H   0  0  0  0  0  0
  -20.9445  -29.8795   21.6825 H   0  0  0  0  0  0
  -26.0159  -38.2825   24.1466 H   0  0  0  0  0  0
  -29.9784  -19.9740   18.0725 H   0  0  0  0  0  0
  -27.8074  -24.7632   18.8177 H   0  0  0  0  0  0
  -30.9948  -18.4463   16.2260 H   0  0  0  0  0  0
  -31.7348  -16.8443   16.0990 H   0  0  0  0  0  0
  -32.2880  -17.9734   17.3424 H   0  0  0  0  0  0
  -29.2664  -21.3184   21.5143 H   0  0  0  0  0  0
  -28.9039  -15.8120   21.1582 H   0  0  0  0  0  0
  -29.1954  -24.6914   21.8844 H   0  0  0  0  0  0
  1 25  1  0  0  0
  1 30  2  0  0  0
  1 81  1  0  0  0
  2  3  1  0  0  0
  2 25  1  0  0  0
  2 86  1  0  0  0
  2 87  1  0  0  0
  3  4  1  0  0  0
  3 88  1  0  0  0
  3 89  1  0  0  0
  4  5  1  0  0  0
  4 90  1  0  0  0
  4 91  1  0  0  0
  5  6  1  0  0  0
  5 26  1  0  0  0
  5 92  1  0  0  0
  6 25  1  0  0  0
  6 93  1  0  0  0
  6 94  1  0  0  0
  7  8  2  0  0  0
  7 26  1  0  0  0
  7 29  1  0  0  0
  8  9  1  0  0  0
  8 22  1  0  0  0
  9 10  1  0  0  0
  9 27  2  0  0  0
 10 11  2  0  0  0
 10 15  1  0  0  0
 11 12  1  0  0  0
 11 95  1  0  0  0
 12 13  2  0  0  0
 12 96  1  0  0  0
 13 14  1  0  0  0
 13 31  1  0  0  0
 14 15  2  0  0  0
 14 97  1  0  0  0
 15 98  1  0  0  0
 16 17  2  0  0  0
 16 21  1  0  0  0
 16 31  1  0  0  0
 17 18  1  0  0  0
 17 99  1  0  0  0
 18 19  2  0  0  0
 18100  1  0  0  0
 19 20  1  0  0  0
 19 24  1  0  0  0
 20 21  2  0  0  0
 20101  1  0  0  0
 21 23  1  0  0  0
 22 28  1  0  0  0
 22 32  2  0  0  0
 26 27  1  0  0  0
 28102  1  0  0  0
 28103  1  0  0  0
 29104  1  0  0  0
 29105  1  0  0  0
 33 34  1  0  0  0
 33 66  1  0  0  0
 33 70  2  0  0  0
 34 36  1  0  0  0
 34 59  1  0  0  0
 34106  1  0  0  0
 35 44  2  0  0  0
 35 45  1  0  0  0
 35 68  1  0  0  0
 36 56  1  0  0  0
 36107  1  0  0  0
 37 39  1  0  0  0
 37 47  1  0  0  0
 37 66  1  0  0  0
 37108  1  0  0  0
 38 43  2  0  0  0
 38 46  1  0  0  0
 38 47  1  0  0  0
 39 64  1  0  0  0
 39 67  2  0  0  0
 40 52  1  0  0  0
 40 53  2  0  0  0
 40 58  1  0  0  0
 41109  1  0  0  0
 41110  1  0  0  0
 41111  1  0  0  0
 41 48  1  0  0  0
 42 43  1  0  0  0
 42 66  1  0  0  0
 42112  1  0  0  0
 42113  1  0  0  0
 43 44  1  0  0  0
 44114  1  0  0  0
 45 46  2  0  0  0
 45115  1  0  0  0
 46116  1  0  0  0
 47117  1  0  0  0
 47118  1  0  0  0
 48 56  1  0  0  0
 48 65  1  0  0  0
 48119  1  0  0  0
 49 50  1  0  0  0
 49 53  1  0  0  0
 49 64  1  0  0  0
 49120  1  0  0  0
 50 51  1  0  0  0
 50121  1  0  0  0
 50122  1  0  0  0
 51 52  1  0  0  0
 51123  1  0  0  0
 51124  1  0  0  0
 52125  1  0  0  0
 52126  1  0  0  0
 53 54  1  0  0  0
 54 55  2  0  0  0
 54127  1  0  0  0
 55 57  1  0  0  0
 55128  1  0  0  0
 56 69  2  0  0  0
 57 58  2  0  0  0
 57129  1  0  0  0
 58130  1  0  0  0
 59 60  1  0  0  0
 59 61  1  0  0  0
 59 62  1  0  0  0
 60131  1  0  0  0
 60132  1  0  0  0
 60133  1  0  0  0
 61134  1  0  0  0
 61135  1  0  0  0
 61136  1  0  0  0
 62137  1  0  0  0
 62138  1  0  0  0
 62139  1  0  0  0
 63 65  1  0  0  0
 63140  1  0  0  0
 63141  1  0  0  0
 63142  1  0  0  0
 64143  1  0  0  0
 65144  1  0  0  0
 68 75  1  0  0  0
 71 72  1  0  0  0
 71 73  2  0  0  0
 71145  1  0  0  0
 72 74  2  0  0  0
 72 76  1  0  0  0
 73 80  1  0  0  0
 73 84  1  0  0  0
 74 81  1  0  0  0
 74 84  1  0  0  0
 75 77  2  0  0  0
 75146  1  0  0  0
 76 79  1  0  0  0
 76 82  2  0  0  0
 77 78  1  0  0  0
 77 85  1  0  0  0
 78 80  1  0  0  0
 78 83  2  0  0  0
 79147  1  0  0  0
 79148  1  0  0  0
 79149  1  0  0  0
 80150  1  0  0  0
 81151  1  0  0  0
 85152  1  0  0  0
M  ISO  4   1 100  68 101  75 101  81 100
M  END
> <chiral flag>
0

> <version>
0

> <s_m_source_file>
/data/baiqing/PycharmProjects/Reinvent-master-3.2/result/LINK_invent/BTK/process_docking_weight1_custom_product_contain_oxygen_bond_distance_aromatic_linkinvent_7_9_3/rearranged_h_0178.sdf

> <i_m_source_file_index>
51

> <r_mmod_Potential_Energy-OPLS-2005>
272.019195556641

> <r_mmod_Stretch_Energy-OPLS-2005>
185.823425292969

> <r_mmod_Bend_Energy-OPLS-2005>
217.197158813477

> <r_mmod_Torsional_Energy-OPLS-2005>
272.289672851562

> <r_mmod_Improper_Torsional_Energy-OPLS-2005>
4.9478497505188

> <r_mmod_Van_der_Waal_Energy-OPLS-2005>
114.066345214844

> <r_mmod_Electrostatic_Energy-OPLS-2005>
-451.311614990234

> <r_mmod_Solvation_Energy-OPLS-2005>
-229.669464111328

> <b_mmod_Minimization_Converged-OPLS-2005>
0

> <r_mmod_RMS_Derivative-OPLS-2005>
1.40947413444519

$$$$
51
                    3D
 Structure written by MMmdl.
150158  0  0  1  0            999 V2000
  -30.7147  -14.8683   20.3987 C   0  0  0  0  0  0
  -30.4005  -12.5461   19.4849 C   0  0  0  0  0  0
  -29.5212  -12.4945   18.2161 C   0  0  0  0  0  0
  -28.0127  -12.6517   18.5180 C   0  0  0  0  0  0
  -27.7128  -12.7891   20.0204 C   0  0  2  0  0  0
  -28.6843  -13.4903   20.9709 C   0  0  0  0  0  0
  -25.2994  -13.7563   20.5687 C   0  0  0  0  0  0
  -24.1793  -13.0339   20.9131 C   0  0  0  0  0  0
  -24.5726  -11.6692   20.8831 C   0  0  0  0  0  0
  -23.8410  -10.4227   21.0585 C   0  0  0  0  0  0
  -24.3186   -9.4164   21.9252 C   0  0  0  0  0  0
  -23.6033   -8.2140   22.0750 C   0  0  0  0  0  0
  -22.4025   -8.0154   21.3564 C   0  0  0  0  0  0
  -21.9520   -9.0092   20.4718 C   0  0  0  0  0  0
  -22.6673  -10.2056   20.3179 C   0  0  0  0  0  0
  -21.6800   -6.0623   22.5266 C   0  0  0  0  0  0
  -21.3978   -6.5567   23.8181 C   0  0  0  0  0  0
  -21.3635   -5.6745   24.9166 C   0  0  0  0  0  0
  -21.6059   -4.2999   24.7252 C   0  0  0  0  0  0
  -21.8830   -3.8062   23.4385 C   0  0  0  0  0  0
  -21.9175   -4.6860   22.3423 C   0  0  0  0  0  0
  -22.7955  -13.5458   21.1794 C   0  0  0  0  0  0
  -22.1675   -4.2062   21.0998 F   0  0  0  0  0  0
  -21.5627   -3.4498   25.7788 F   0  0  0  0  0  0
  -29.9650  -13.7148   20.3019 N   0  0  0  0  0  0
  -26.3045  -12.7998   20.3869 N   0  0  0  0  0  0
  -25.8377  -11.5588   20.5867 N   0  0  0  0  0  0
  -22.0541  -12.8617   22.0486 N   0  0  0  0  0  0
  -25.5271  -15.1179   20.4080 N   0  0  0  0  0  0
  -31.9164  -14.7964   20.1506 O   0  0  0  0  0  0
  -21.6514   -6.8714   21.4220 O   0  0  0  0  0  0
  -22.3764  -14.5752   20.6556 O   0  0  0  0  0  0
  -24.6352  -31.8551   23.1940 C   0  0  0  0  0  0
  -25.9160  -32.4754   23.8325 C   0  0  1  0  0  0
  -27.2239  -27.2299   20.1276 C   0  0  0  0  0  0
  -25.5943  -33.8557   24.2246 N   0  0  0  0  0  0
  -23.4339  -30.4724   21.5420 C   0  0  2  0  0  0
  -24.8810  -28.9169   20.1122 C   0  0  0  0  0  0
  -22.7535  -29.4569   22.4931 C   0  0  0  0  0  0
  -18.0289  -28.1391   22.8481 C   0  0  0  0  0  0
  -24.1489  -36.7279   23.2641 C   0  0  0  0  0  0
  -25.9817  -30.7525   21.3841 C   0  0  0  0  0  0
  -26.0511  -29.3713   20.7291 C   0  0  0  0  0  0
  -27.2192  -28.5373   20.7349 C   0  0  0  0  0  0
  -26.0289  -26.8604   19.4653 C   0  0  0  0  0  0
  -24.8772  -27.6708   19.4704 C   0  0  0  0  0  0
  -23.6545  -29.8078   20.1579 C   0  0  0  0  0  0
  -25.4113  -36.3067   24.0328 C   0  0  1  0  0  0
  -20.5912  -28.3701   23.1258 C   0  0  2  0  0  0
  -20.6776  -26.9408   22.5400 C   0  0  0  0  0  0
  -19.5742  -26.6377   21.5211 C   0  0  0  0  0  0
  -18.1929  -26.7929   22.1633 C   0  0  0  0  0  0
  -19.1549  -28.8857   23.2872 C   0  0  0  0  0  0
  -18.9463  -30.1464   23.8878 C   0  0  0  0  0  0
  -17.6462  -30.6589   24.0553 C   0  0  0  0  0  0
  -25.9068  -34.9439   23.5098 C   0  0  0  0  0  0
  -16.5359  -29.9078   23.6335 C   0  0  0  0  0  0
  -16.7270  -28.6501   23.0348 C   0  0  0  0  0  0
  -26.4500  -31.6587   25.0737 C   0  0  0  0  0  0
  -25.3692  -31.3756   26.1440 C   0  0  0  0  0  0
  -27.0365  -30.3000   24.6259 C   0  0  0  0  0  0
  -27.6057  -32.4333   25.7514 C   0  0  0  0  0  0
  -27.5580  -37.1803   24.8472 C   0  0  0  0  0  0
  -21.4236  -29.3042   22.3664 N   0  0  0  0  0  0
  -26.4283  -37.3765   23.9418 N   0  0  0  0  0  0
  -24.7021  -31.0476   22.0952 N   0  0  0  0  0  0
  -23.4227  -28.8125   23.3038 O   0  0  0  0  0  0
  -28.3209  -26.3296   20.2222 O   0  0  0  0  0  0
  -26.5641  -34.8924   22.4672 O   0  0  0  0  0  0
  -23.5501  -32.1359   23.7227 O   0  0  0  0  0  0
  -27.9085  -18.6418   18.8924 C   0  0  0  0  0  0
  -29.0145  -18.3982   19.7828 C   0  0  0  0  0  0
  -29.2967  -16.9720   19.8843 C   0  0  0  0  0  0
  -27.4122  -17.5203   18.3146 C   0  0  0  0  0  0
  -29.6848  -19.7288   20.3062 C   0  0  0  0  0  0
  -28.7315  -23.6633   20.5897 C   0  0  0  0  0  0
  -29.5358  -22.3820   20.0216 C   0  0  0  0  0  0
  -28.2982  -24.9141   19.6671 C   0  0  0  0  0  0
  -30.1893  -16.1561   20.6099 N   0  0  0  0  0  0
  -29.0035  -20.9466   20.1932 N   0  0  0  0  0  0
  -30.8427  -19.7091   20.7282 O   0  0  0  0  0  0
  -28.4335  -23.6757   21.7902 O   0  0  0  0  0  0
  -26.3862  -17.4989   17.4321 F   0  0  0  0  0  0
  -28.2541  -16.0995   18.7636 S   0  0  0  0  0  0
  -31.4543  -12.5828   19.2062 H   0  0  0  0  0  0
  -30.2931  -11.6325   20.0708 H   0  0  0  0  0  0
  -29.6985  -11.5624   17.6751 H   0  0  0  0  0  0
  -29.8311  -13.2888   17.5350 H   0  0  0  0  0  0
  -27.4709  -11.7884   18.1276 H   0  0  0  0  0  0
  -27.6139  -13.5044   17.9698 H   0  0  0  0  0  0
  -28.0265  -11.7751   20.2900 H   0  0  0  0  0  0
  -28.8427  -12.9064   21.8791 H   0  0  0  0  0  0
  -28.2575  -14.4403   21.2907 H   0  0  0  0  0  0
  -25.2351   -9.5711   22.4756 H   0  0  0  0  0  0
  -23.9860   -7.4496   22.7355 H   0  0  0  0  0  0
  -21.0475   -8.8466   19.9008 H   0  0  0  0  0  0
  -22.3059  -10.9579   19.6301 H   0  0  0  0  0  0
  -21.1993   -7.6067   23.9693 H   0  0  0  0  0  0
  -21.1464   -6.0468   25.9047 H   0  0  0  0  0  0
  -22.0649   -2.7532   23.2894 H   0  0  0  0  0  0
  -22.4016  -12.0281   22.4999 H   0  0  0  0  0  0
  -21.1282  -13.1904   22.2777 H   0  0  0  0  0  0
  -24.7862  -15.8084   20.4674 H   0  0  0  0  0  0
  -26.4138  -15.4988   20.1039 H   0  0  0  0  0  0
  -26.7242  -32.5377   23.1091 H   0  0  0  0  0  0
  -25.0093  -33.9698   25.0395 H   0  0  0  0  0  0
  -22.7295  -31.2919   21.3913 H   0  0  0  0  0  0
  -23.3764  -35.9604   23.3303 H   0  0  0  0  0  0
  -24.3575  -36.8905   22.2055 H   0  0  0  0  0  0
  -23.7229  -37.6480   23.6659 H   0  0  0  0  0  0
  -26.1321  -31.5103   20.6125 H   0  0  0  0  0  0
  -26.8546  -30.7998   22.0216 H   0  0  0  0  0  0
  -28.1102  -28.8732   21.2481 H   0  0  0  0  0  0
  -25.9303  -25.9257   18.9405 H   0  0  0  0  0  0
  -23.9847  -27.3212   18.9688 H   0  0  0  0  0  0
  -23.7874  -30.5818   19.4009 H   0  0  0  0  0  0
  -22.7717  -29.2457   19.8494 H   0  0  0  0  0  0
  -25.1300  -36.1927   25.0815 H   0  0  0  0  0  0
  -20.9973  -28.3270   24.1407 H   0  0  0  0  0  0
  -20.5673  -26.2311   23.3624 H   0  0  0  0  0  0
  -21.6641  -26.7432   22.1203 H   0  0  0  0  0  0
  -19.6907  -25.6281   21.1255 H   0  0  0  0  0  0
  -19.6686  -27.3177   20.6733 H   0  0  0  0  0  0
  -17.4205  -26.6671   21.4038 H   0  0  0  0  0  0
  -18.0332  -26.0072   22.9023 H   0  0  0  0  0  0
  -19.7935  -30.7272   24.2263 H   0  0  0  0  0  0
  -17.5013  -31.6262   24.5163 H   0  0  0  0  0  0
  -15.5355  -30.2978   23.7649 H   0  0  0  0  0  0
  -15.8680  -28.0802   22.7091 H   0  0  0  0  0  0
  -24.5873  -30.7113   25.7752 H   0  0  0  0  0  0
  -24.8875  -32.2929   26.4823 H   0  0  0  0  0  0
  -25.7967  -30.8950   27.0245 H   0  0  0  0  0  0
  -26.2968  -29.6743   24.1250 H   0  0  0  0  0  0
  -27.4008  -29.7282   25.4807 H   0  0  0  0  0  0
  -27.8858  -30.4296   23.9548 H   0  0  0  0  0  0
  -27.2672  -33.3648   26.2062 H   0  0  0  0  0  0
  -28.3864  -32.6866   25.0332 H   0  0  0  0  0  0
  -28.0716  -31.8473   26.5449 H   0  0  0  0  0  0
  -28.2607  -38.0090   24.7515 H   0  0  0  0  0  0
  -28.1073  -36.2635   24.6304 H   0  0  0  0  0  0
  -27.2311  -37.1446   25.8876 H   0  0  0  0  0  0
  -20.9454  -29.8792   21.6875 H   0  0  0  0  0  0
  -26.0185  -38.2860   24.1377 H   0  0  0  0  0  0
  -27.5199  -19.6238   18.6674 H   0  0  0  0  0  0
  -30.5312  -22.4184   20.4685 H   0  0  0  0  0  0
  -29.7025  -22.5495   18.9560 H   0  0  0  0  0  0
  -27.3056  -24.6254   19.3371 H   0  0  0  0  0  0
  -28.9185  -24.9110   18.7711 H   0  0  0  0  0  0
  -30.9039  -16.7257   21.0373 H   0  0  0  0  0  0
  -28.0242  -20.8509   19.9655 H   0  0  0  0  0  0
  1 25  1  0  0  0
  1 30  2  0  0  0
  1 79  1  0  0  0
  2  3  1  0  0  0
  2 25  1  0  0  0
  2 85  1  0  0  0
  2 86  1  0  0  0
  3  4  1  0  0  0
  3 87  1  0  0  0
  3 88  1  0  0  0
  4  5  1  0  0  0
  4 89  1  0  0  0
  4 90  1  0  0  0
  5  6  1  0  0  0
  5 26  1  0  0  0
  5 91  1  0  0  0
  6 25  1  0  0  0
  6 92  1  0  0  0
  6 93  1  0  0  0
  7  8  2  0  0  0
  7 26  1  0  0  0
  7 29  1  0  0  0
  8  9  1  0  0  0
  8 22  1  0  0  0
  9 10  1  0  0  0
  9 27  2  0  0  0
 10 11  2  0  0  0
 10 15  1  0  0  0
 11 12  1  0  0  0
 11 94  1  0  0  0
 12 13  2  0  0  0
 12 95  1  0  0  0
 13 14  1  0  0  0
 13 31  1  0  0  0
 14 15  2  0  0  0
 14 96  1  0  0  0
 15 97  1  0  0  0
 16 17  2  0  0  0
 16 21  1  0  0  0
 16 31  1  0  0  0
 17 18  1  0  0  0
 17 98  1  0  0  0
 18 19  2  0  0  0
 18 99  1  0  0  0
 19 20  1  0  0  0
 19 24  1  0  0  0
 20 21  2  0  0  0
 20100  1  0  0  0
 21 23  1  0  0  0
 22 28  1  0  0  0
 22 32  2  0  0  0
 26 27  1  0  0  0
 28101  1  0  0  0
 28102  1  0  0  0
 29103  1  0  0  0
 29104  1  0  0  0
 33 34  1  0  0  0
 33 66  1  0  0  0
 33 70  2  0  0  0
 34 36  1  0  0  0
 34 59  1  0  0  0
 34105  1  0  0  0
 35 44  2  0  0  0
 35 45  1  0  0  0
 35 68  1  0  0  0
 36 56  1  0  0  0
 36106  1  0  0  0
 37 39  1  0  0  0
 37 47  1  0  0  0
 37 66  1  0  0  0
 37107  1  0  0  0
 38 43  2  0  0  0
 38 46  1  0  0  0
 38 47  1  0  0  0
 39 64  1  0  0  0
 39 67  2  0  0  0
 40 52  1  0  0  0
 40 53  2  0  0  0
 40 58  1  0  0  0
 41108  1  0  0  0
 41109  1  0  0  0
 41110  1  0  0  0
 41 48  1  0  0  0
 42 43  1  0  0  0
 42 66  1  0  0  0
 42111  1  0  0  0
 42112  1  0  0  0
 43 44  1  0  0  0
 44113  1  0  0  0
 45 46  2  0  0  0
 45114  1  0  0  0
 46115  1  0  0  0
 47116  1  0  0  0
 47117  1  0  0  0
 48 56  1  0  0  0
 48 65  1  0  0  0
 48118  1  0  0  0
 49 50  1  0  0  0
 49 53  1  0  0  0
 49 64  1  0  0  0
 49119  1  0  0  0
 50 51  1  0  0  0
 50120  1  0  0  0
 50121  1  0  0  0
 51 52  1  0  0  0
 51122  1  0  0  0
 51123  1  0  0  0
 52124  1  0  0  0
 52125  1  0  0  0
 53 54  1  0  0  0
 54 55  2  0  0  0
 54126  1  0  0  0
 55 57  1  0  0  0
 55127  1  0  0  0
 56 69  2  0  0  0
 57 58  2  0  0  0
 57128  1  0  0  0
 58129  1  0  0  0
 59 60  1  0  0  0
 59 61  1  0  0  0
 59 62  1  0  0  0
 60130  1  0  0  0
 60131  1  0  0  0
 60132  1  0  0  0
 61133  1  0  0  0
 61134  1  0  0  0
 61135  1  0  0  0
 62136  1  0  0  0
 62137  1  0  0  0
 62138  1  0  0  0
 63 65  1  0  0  0
 63139  1  0  0  0
 63140  1  0  0  0
 63141  1  0  0  0
 64142  1  0  0  0
 65143  1  0  0  0
 68 78  1  0  0  0
 71 72  1  0  0  0
 71 74  2  0  0  0
 71144  1  0  0  0
 72 73  2  0  0  0
 72 75  1  0  0  0
 73 79  1  0  0  0
 73 84  1  0  0  0
 74 83  1  0  0  0
 74 84  1  0  0  0
 75 80  1  0  0  0
 75 81  2  0  0  0
 76 77  1  0  0  0
 76 78  1  0  0  0
 76 82  2  0  0  0
 77 80  1  0  0  0
 77145  1  0  0  0
 77146  1  0  0  0
 78147  1  0  0  0
 78148  1  0  0  0
 79149  1  0  0  0
 80150  1  0  0  0
M  ISO  4   1 100  68 101  78 101  79 100
M  END
> <chiral flag>
0

> <version>
0

> <s_m_source_file>
/data/baiqing/PycharmProjects/Reinvent-master-3.2/result/LINK_invent/BTK/process_docking_weight1_custom_product_contain_oxygen_bond_distance_aromatic_linkinvent_7_9_3/rearranged_h_0178.sdf

> <i_m_source_file_index>
52

> <r_mmod_Potential_Energy-OPLS-2005>
400.358612060547

> <r_mmod_Stretch_Energy-OPLS-2005>
157.527160644531

> <r_mmod_Bend_Energy-OPLS-2005>
287.5732421875

> <r_mmod_Torsional_Energy-OPLS-2005>
277.522430419922

> <r_mmod_Improper_Torsional_Energy-OPLS-2005>
7.47094249725342

> <r_mmod_Van_der_Waal_Energy-OPLS-2005>
128.621231079102

> <r_mmod_Electrostatic_Energy-OPLS-2005>
-389.708953857422

> <r_mmod_Solvation_Energy-OPLS-2005>
-258.976196289062

> <b_mmod_Minimization_Converged-OPLS-2005>
0

> <r_mmod_RMS_Derivative-OPLS-2005>
4.34035968780518

$$$$
52
                    3D
 Structure written by MMmdl.
163171  0  0  1  0            999 V2000
  -30.6628  -14.5642   20.5332 C   0  0  0  0  0  0
  -30.4322  -12.3547   19.4420 C   0  0  0  0  0  0
  -29.5045  -12.5066   18.2170 C   0  0  0  0  0  0
  -28.0266  -12.3496   18.6285 C   0  0  0  0  0  0
  -27.6550  -13.2096   19.8651 C   0  0  2  0  0  0
  -28.6982  -13.0398   20.9943 C   0  0  0  0  0  0
  -25.2512  -13.8042   20.5559 C   0  0  0  0  0  0
  -24.1804  -13.0356   20.9178 C   0  0  0  0  0  0
  -24.6389  -11.6843   20.8749 C   0  0  0  0  0  0
  -23.9054  -10.4252   21.0415 C   0  0  0  0  0  0
  -24.3609   -9.4175   21.9190 C   0  0  0  0  0  0
  -23.6279   -8.2215   22.0759 C   0  0  0  0  0  0
  -22.4263   -8.0264   21.3546 C   0  0  0  0  0  0
  -21.9898   -9.0238   20.4646 C   0  0  0  0  0  0
  -22.7232  -10.2108   20.3053 C   0  0  0  0  0  0
  -21.6845   -6.0721   22.5277 C   0  0  0  0  0  0
  -21.4002   -6.5621   23.8207 C   0  0  0  0  0  0
  -21.3651   -5.6780   24.9172 C   0  0  0  0  0  0
  -21.6046   -4.3044   24.7224 C   0  0  0  0  0  0
  -21.8824   -3.8132   23.4345 C   0  0  0  0  0  0
  -21.9194   -4.6953   22.3403 C   0  0  0  0  0  0
  -22.7839  -13.5191   21.1842 C   0  0  0  0  0  0
  -22.1664   -4.2137   21.0980 F   0  0  0  0  0  0
  -21.5630   -3.4525   25.7738 F   0  0  0  0  0  0
  -30.0225  -13.3611   20.4379 N   0  0  0  0  0  0
  -26.2991  -12.9272   20.3297 N   0  0  0  0  0  0
  -25.9328  -11.6439   20.5782 N   0  0  0  0  0  0
  -22.0466  -12.8212   22.0405 N   0  0  0  0  0  0
  -25.4074  -15.1698   20.3763 N   0  0  0  0  0  0
  -31.8112  -14.7256   20.1117 O   0  0  0  0  0  0
  -21.6624   -6.8863   21.4240 O   0  0  0  0  0  0
  -22.3558  -14.5511   20.6689 O   0  0  0  0  0  0
  -24.6183  -31.8642   23.2077 C   0  0  0  0  0  0
  -25.9068  -32.4794   23.8381 C   0  0  1  0  0  0
  -27.2369  -27.4025   20.1127 C   0  0  0  0  0  0
  -25.5925  -33.8589   24.2319 N   0  0  0  0  0  0
  -23.4093  -30.4879   21.5462 C   0  0  2  0  0  0
  -24.8595  -28.9492   20.1137 C   0  0  0  0  0  0
  -22.7432  -29.4643   22.4951 C   0  0  0  0  0  0
  -18.0279  -28.1381   22.8476 C   0  0  0  0  0  0
  -24.1482  -36.7283   23.2640 C   0  0  0  0  0  0
  -25.9409  -30.8226   21.3657 C   0  0  0  0  0  0
  -26.0208  -29.4540   20.7135 C   0  0  0  0  0  0
  -27.2154  -28.6901   20.7057 C   0  0  0  0  0  0
  -26.0612  -26.9238   19.4962 C   0  0  0  0  0  0
  -24.8764  -27.6855   19.4982 C   0  0  0  0  0  0
  -23.6223  -29.8191   20.1616 C   0  0  0  0  0  0
  -25.4100  -36.3081   24.0343 C   0  0  1  0  0  0
  -20.5869  -28.3666   23.1305 C   0  0  2  0  0  0
  -20.6757  -26.9396   22.5425 C   0  0  0  0  0  0
  -19.5750  -26.6386   21.5202 C   0  0  0  0  0  0
  -18.1922  -26.7933   22.1598 C   0  0  0  0  0  0
  -19.1528  -28.8839   23.2887 C   0  0  0  0  0  0
  -18.9456  -30.1445   23.8898 C   0  0  0  0  0  0
  -17.6456  -30.6586   24.0560 C   0  0  0  0  0  0
  -25.9035  -34.9454   23.5122 C   0  0  0  0  0  0
  -16.5347  -29.9079   23.6334 C   0  0  0  0  0  0
  -16.7270  -28.6503   23.0348 C   0  0  0  0  0  0
  -26.4496  -31.6573   25.0710 C   0  0  0  0  0  0
  -25.3771  -31.3696   26.1468 C   0  0  0  0  0  0
  -27.0303  -30.3003   24.6094 C   0  0  0  0  0  0
  -27.6080  -32.4280   25.7470 C   0  0  0  0  0  0
  -27.5580  -37.1780   24.8460 C   0  0  0  0  0  0
  -21.4150  -29.3028   22.3701 N   0  0  0  0  0  0
  -26.4278  -37.3780   23.9433 N   0  0  0  0  0  0
  -24.6739  -31.0730   22.0984 N   0  0  0  0  0  0
  -23.4188  -28.8178   23.3002 O   0  0  0  0  0  0
  -28.3676  -26.6045   20.1269 O   0  0  0  0  0  0
  -26.5583  -34.8916   22.4674 O   0  0  0  0  0  0
  -23.5367  -32.1399   23.7464 O   0  0  0  0  0  0
  -31.2156  -17.6592   20.2419 C   0  0  0  0  0  0
  -30.1630  -17.0336   20.8766 C   0  0  0  0  0  0
  -29.9258  -19.2389   21.1379 C   0  0  0  0  0  0
  -29.5061  -20.6083   21.6816 C   0  0  0  0  0  0
  -29.0955  -24.1932   20.4352 C   0  0  0  0  0  0
  -25.5367  -18.0303   22.0501 C   0  0  0  0  0  0
  -28.2057  -25.3852   20.9004 C   0  0  0  0  0  0
  -28.0850  -17.8559   22.1373 C   0  0  0  0  0  0
  -29.4785  -23.1179   21.5065 C   0  0  2  0  0  0
  -26.8540  -18.2634   21.2969 C   0  0  0  0  0  0
  -30.6436  -23.5878   22.4148 C   0  0  0  0  0  0
  -29.3570  -18.0342   21.4085 N   0  0  0  0  0  0
  -31.0367  -19.0139   20.4241 N   0  3  0  0  0  0
  -29.9060  -15.6061   20.9685 N   0  0  0  0  0  0
  -29.7434  -21.7409   20.9741 N   0  0  0  0  0  0
  -28.9304  -20.6734   22.7689 O   0  0  0  0  0  0
  -29.4495  -24.1041   19.2535 O   0  0  0  0  0  0
  -26.8882  -19.5546   20.9706 F   0  0  0  0  0  0
  -26.8563  -17.5584   20.1657 F   0  0  0  0  0  0
  -30.8814  -22.7197   23.3983 F   0  0  0  0  0  0
  -30.3715  -24.7679   22.9718 F   0  0  0  0  0  0
  -31.7573  -23.7193   21.6928 F   0  0  0  0  0  0
  -31.4755  -12.4669   19.1411 H   0  0  0  0  0  0
  -30.3497  -11.3523   19.8649 H   0  0  0  0  0  0
  -29.7621  -11.7685   17.4559 H   0  0  0  0  0  0
  -29.6576  -13.4843   17.7572 H   0  0  0  0  0  0
  -27.8570  -11.2954   18.8512 H   0  0  0  0  0  0
  -27.3733  -12.5912   17.7892 H   0  0  0  0  0  0
  -27.6793  -14.2496   19.5390 H   0  0  0  0  0  0
  -28.6947  -12.0132   21.3659 H   0  0  0  0  0  0
  -28.4485  -13.6658   21.8530 H   0  0  0  0  0  0
  -25.2762   -9.5651   22.4749 H   0  0  0  0  0  0
  -23.9984   -7.4609   22.7478 H   0  0  0  0  0  0
  -21.0828   -8.8766   19.8956 H   0  0  0  0  0  0
  -22.3706  -10.9645   19.6148 H   0  0  0  0  0  0
  -21.1986   -7.6133   23.9702 H   0  0  0  0  0  0
  -21.1462   -6.0509   25.9073 H   0  0  0  0  0  0
  -22.0613   -2.7597   23.2843 H   0  0  0  0  0  0
  -22.4045  -11.9862   22.4798 H   0  0  0  0  0  0
  -21.1090  -13.1272   22.2600 H   0  0  0  0  0  0
  -24.6118  -15.7935   20.4359 H   0  0  0  0  0  0
  -26.2271  -15.6230   19.9942 H   0  0  0  0  0  0
  -26.7129  -32.5510   23.1133 H   0  0  0  0  0  0
  -25.0141  -33.9745   25.0508 H   0  0  0  0  0  0
  -22.6993  -31.3055   21.4047 H   0  0  0  0  0  0
  -23.3761  -35.9598   23.3273 H   0  0  0  0  0  0
  -24.3586  -36.8923   22.2060 H   0  0  0  0  0  0
  -23.7208  -37.6470   23.6662 H   0  0  0  0  0  0
  -26.0585  -31.5880   20.5972 H   0  0  0  0  0  0
  -26.8265  -30.8759   21.9871 H   0  0  0  0  0  0
  -28.1096  -29.0734   21.1766 H   0  0  0  0  0  0
  -26.0601  -25.9554   19.0163 H   0  0  0  0  0  0
  -23.9861  -27.2943   19.0253 H   0  0  0  0  0  0
  -23.7334  -30.5930   19.4007 H   0  0  0  0  0  0
  -22.7469  -29.2390   19.8642 H   0  0  0  0  0  0
  -25.1270  -36.1930   25.0832 H   0  0  0  0  0  0
  -20.9974  -28.3234   24.1421 H   0  0  0  0  0  0
  -20.5640  -26.2269   23.3610 H   0  0  0  0  0  0
  -21.6630  -26.7416   22.1233 H   0  0  0  0  0  0
  -19.6905  -25.6302   21.1229 H   0  0  0  0  0  0
  -19.6716  -27.3192   20.6733 H   0  0  0  0  0  0
  -17.4209  -26.6713   21.3975 H   0  0  0  0  0  0
  -18.0296  -26.0068   22.8978 H   0  0  0  0  0  0
  -19.7935  -30.7254   24.2265 H   0  0  0  0  0  0
  -17.5022  -31.6265   24.5160 H   0  0  0  0  0  0
  -15.5346  -30.2978   23.7675 H   0  0  0  0  0  0
  -15.8670  -28.0831   22.7048 H   0  0  0  0  0  0
  -24.5969  -30.6993   25.7841 H   0  0  0  0  0  0
  -24.8930  -32.2848   26.4878 H   0  0  0  0  0  0
  -25.8153  -30.8925   27.0243 H   0  0  0  0  0  0
  -26.2820  -29.6766   24.1188 H   0  0  0  0  0  0
  -27.4095  -29.7243   25.4545 H   0  0  0  0  0  0
  -27.8660  -30.4296   23.9214 H   0  0  0  0  0  0
  -27.2718  -33.3589   26.2049 H   0  0  0  0  0  0
  -28.3898  -32.6813   25.0294 H   0  0  0  0  0  0
  -28.0735  -31.8389   26.5384 H   0  0  0  0  0  0
  -28.2573  -38.0101   24.7535 H   0  0  0  0  0  0
  -28.1088  -36.2627   24.6219 H   0  0  0  0  0  0
  -27.2314  -37.1375   25.8868 H   0  0  0  0  0  0
  -20.9311  -29.8748   21.6924 H   0  0  0  0  0  0
  -26.0152  -38.2847   24.1470 H   0  0  0  0  0  0
  -32.0624  -17.2618   19.6988 H   0  0  0  0  0  0
  -25.4703  -18.6682   22.9320 H   0  0  0  0  0  0
  -25.4419  -16.9988   22.3895 H   0  0  0  0  0  0
  -24.6766  -18.2542   21.4185 H   0  0  0  0  0  0
  -28.4126  -25.6165   21.9439 H   0  0  0  0  0  0
  -27.1719  -25.0408   20.8707 H   0  0  0  0  0  0
  -28.0037  -16.8050   22.4142 H   0  0  0  0  0  0
  -28.1299  -18.3933   23.0832 H   0  0  0  0  0  0
  -28.6038  -23.0509   22.1560 H   0  0  0  0  0  0
  -31.6831  -19.7287   20.1152 H   0  0  0  0  0  0
  -29.0017  -15.3370   21.3206 H   0  0  0  0  0  0
  -30.1572  -21.6847   20.0546 H   0  0  0  0  0  0
  1 25  1  0  0  0
  1 30  2  0  0  0
  1 84  1  0  0  0
  2  3  1  0  0  0
  2 25  1  0  0  0
  2 93  1  0  0  0
  2 94  1  0  0  0
  3  4  1  0  0  0
  3 95  1  0  0  0
  3 96  1  0  0  0
  4  5  1  0  0  0
  4 97  1  0  0  0
  4 98  1  0  0  0
  5  6  1  0  0  0
  5 26  1  0  0  0
  5 99  1  0  0  0
  6 25  1  0  0  0
  6100  1  0  0  0
  6101  1  0  0  0
  7  8  2  0  0  0
  7 26  1  0  0  0
  7 29  1  0  0  0
  8  9  1  0  0  0
  8 22  1  0  0  0
  9 10  1  0  0  0
  9 27  2  0  0  0
 10 11  2  0  0  0
 10 15  1  0  0  0
 11 12  1  0  0  0
 11102  1  0  0  0
 12 13  2  0  0  0
 12103  1  0  0  0
 13 14  1  0  0  0
 13 31  1  0  0  0
 14 15  2  0  0  0
 14104  1  0  0  0
 15105  1  0  0  0
 16 17  2  0  0  0
 16 21  1  0  0  0
 16 31  1  0  0  0
 17 18  1  0  0  0
 17106  1  0  0  0
 18 19  2  0  0  0
 18107  1  0  0  0
 19 20  1  0  0  0
 19 24  1  0  0  0
 20 21  2  0  0  0
 20108  1  0  0  0
 21 23  1  0  0  0
 22 28  1  0  0  0
 22 32  2  0  0  0
 26 27  1  0  0  0
 28109  1  0  0  0
 28110  1  0  0  0
 29111  1  0  0  0
 29112  1  0  0  0
 33 34  1  0  0  0
 33 66  1  0  0  0
 33 70  2  0  0  0
 34 36  1  0  0  0
 34 59  1  0  0  0
 34113  1  0  0  0
 35 44  2  0  0  0
 35 45  1  0  0  0
 35 68  1  0  0  0
 36 56  1  0  0  0
 36114  1  0  0  0
 37 39  1  0  0  0
 37 47  1  0  0  0
 37 66  1  0  0  0
 37115  1  0  0  0
 38 43  2  0  0  0
 38 46  1  0  0  0
 38 47  1  0  0  0
 39 64  1  0  0  0
 39 67  2  0  0  0
 40 52  1  0  0  0
 40 53  2  0  0  0
 40 58  1  0  0  0
 41116  1  0  0  0
 41117  1  0  0  0
 41118  1  0  0  0
 41 48  1  0  0  0
 42 43  1  0  0  0
 42 66  1  0  0  0
 42119  1  0  0  0
 42120  1  0  0  0
 43 44  1  0  0  0
 44121  1  0  0  0
 45 46  2  0  0  0
 45122  1  0  0  0
 46123  1  0  0  0
 47124  1  0  0  0
 47125  1  0  0  0
 48 56  1  0  0  0
 48 65  1  0  0  0
 48126  1  0  0  0
 49 50  1  0  0  0
 49 53  1  0  0  0
 49 64  1  0  0  0
 49127  1  0  0  0
 50 51  1  0  0  0
 50128  1  0  0  0
 50129  1  0  0  0
 51 52  1  0  0  0
 51130  1  0  0  0
 51131  1  0  0  0
 52132  1  0  0  0
 52133  1  0  0  0
 53 54  1  0  0  0
 54 55  2  0  0  0
 54134  1  0  0  0
 55 57  1  0  0  0
 55135  1  0  0  0
 56 69  2  0  0  0
 57 58  2  0  0  0
 57136  1  0  0  0
 58137  1  0  0  0
 59 60  1  0  0  0
 59 61  1  0  0  0
 59 62  1  0  0  0
 60138  1  0  0  0
 60139  1  0  0  0
 60140  1  0  0  0
 61141  1  0  0  0
 61142  1  0  0  0
 61143  1  0  0  0
 62144  1  0  0  0
 62145  1  0  0  0
 62146  1  0  0  0
 63 65  1  0  0  0
 63147  1  0  0  0
 63148  1  0  0  0
 63149  1  0  0  0
 64150  1  0  0  0
 65151  1  0  0  0
 68 77  1  0  0  0
 71 72  2  0  0  0
 71 83  1  0  0  0
 71152  1  0  0  0
 72 82  1  0  0  0
 72 84  1  0  0  0
 73 74  1  0  0  0
 73 82  1  0  0  0
 73 83  2  0  0  0
 74 85  1  0  0  0
 74 86  2  0  0  0
 75 77  1  0  0  0
 75 79  1  0  0  0
 75 87  2  0  0  0
 76153  1  0  0  0
 76154  1  0  0  0
 76155  1  0  0  0
 76 80  1  0  0  0
 77156  1  0  0  0
 77157  1  0  0  0
 78 80  1  0  0  0
 78 82  1  0  0  0
 78158  1  0  0  0
 78159  1  0  0  0
 79 81  1  0  0  0
 79 85  1  0  0  0
 79160  1  0  0  0
 80 88  1  0  0  0
 80 89  1  0  0  0
 81 90  1  0  0  0
 81 91  1  0  0  0
 81 92  1  0  0  0
 83161  1  0  0  0
 84162  1  0  0  0
 85163  1  0  0  0
M  CHG  1  83   1
M  ISO  4   1 100  68 101  77 101  84 100
M  END
> <chiral flag>
0

> <version>
0

> <s_m_source_file>
/data/baiqing/PycharmProjects/Reinvent-master-3.2/result/LINK_invent/BTK/process_docking_weight1_custom_product_contain_oxygen_bond_distance_aromatic_linkinvent_7_9_3/rearranged_h_0178.sdf

> <i_m_source_file_index>
53

> <r_mmod_Potential_Energy-OPLS-2005>
-336.070770263672

> <r_mmod_Stretch_Energy-OPLS-2005>
53.7808532714844

> <r_mmod_Bend_Energy-OPLS-2005>
130.144180297852

> <r_mmod_Torsional_Energy-OPLS-2005>
262.086151123047

> <r_mmod_Improper_Torsional_Energy-OPLS-2005>
4.70047473907471

> <r_mmod_Van_der_Waal_Energy-OPLS-2005>
134.662384033203

> <r_mmod_Electrostatic_Energy-OPLS-2005>
-503.986450195312

> <r_mmod_Solvation_Energy-OPLS-2005>
-442.048858642578

> <b_mmod_Minimization_Converged-OPLS-2005>
0

> <r_mmod_RMS_Derivative-OPLS-2005>
1.47954118251801

$$$$
53
                    3D
 Structure written by MMmdl.
156164  0  0  1  0            999 V2000
  -30.6529  -14.5331   20.5264 C   0  0  0  0  0  0
  -30.4292  -12.3241   19.4452 C   0  0  0  0  0  0
  -29.5043  -12.5039   18.2200 C   0  0  0  0  0  0
  -28.0243  -12.3544   18.6272 C   0  0  0  0  0  0
  -27.6584  -13.2090   19.8691 C   0  0  2  0  0  0
  -28.6978  -13.0192   20.9970 C   0  0  0  0  0  0
  -25.2585  -13.8169   20.5718 C   0  0  0  0  0  0
  -24.1833  -13.0434   20.9170 C   0  0  0  0  0  0
  -24.6393  -11.6901   20.8719 C   0  0  0  0  0  0
  -23.9055  -10.4289   21.0400 C   0  0  0  0  0  0
  -24.3610   -9.4209   21.9178 C   0  0  0  0  0  0
  -23.6293   -8.2240   22.0749 C   0  0  0  0  0  0
  -22.4272   -8.0277   21.3542 C   0  0  0  0  0  0
  -21.9902   -9.0247   20.4640 C   0  0  0  0  0  0
  -22.7227  -10.2131   20.3050 C   0  0  0  0  0  0
  -21.6850   -6.0734   22.5285 C   0  0  0  0  0  0
  -21.4010   -6.5638   23.8217 C   0  0  0  0  0  0
  -21.3662   -5.6792   24.9180 C   0  0  0  0  0  0
  -21.6048   -4.3053   24.7229 C   0  0  0  0  0  0
  -21.8818   -3.8145   23.4347 C   0  0  0  0  0  0
  -21.9191   -4.6963   22.3406 C   0  0  0  0  0  0
  -22.7857  -13.5230   21.1855 C   0  0  0  0  0  0
  -22.1662   -4.2149   21.0984 F   0  0  0  0  0  0
  -21.5630   -3.4537   25.7739 F   0  0  0  0  0  0
  -30.0301  -13.3228   20.4520 N   0  0  0  0  0  0
  -26.3011  -12.9338   20.3332 N   0  0  0  0  0  0
  -25.9317  -11.6492   20.5731 N   0  0  0  0  0  0
  -22.0499  -12.8215   22.0408 N   0  0  0  0  0  0
  -25.4303  -15.1902   20.4264 N   0  0  0  0  0  0
  -31.7877  -14.7164   20.0708 O   0  0  0  0  0  0
  -21.6635   -6.8878   21.4243 O   0  0  0  0  0  0
  -22.3540  -14.5549   20.6728 O   0  0  0  0  0  0
  -24.6191  -31.8637   23.2036 C   0  0  0  0  0  0
  -25.9076  -32.4794   23.8347 C   0  0  1  0  0  0
  -27.2391  -27.3921   20.0816 C   0  0  0  0  0  0
  -25.5925  -33.8592   24.2270 N   0  0  0  0  0  0
  -23.4096  -30.4860   21.5454 C   0  0  2  0  0  0
  -24.8526  -28.9422   20.1102 C   0  0  0  0  0  0
  -22.7429  -29.4640   22.4955 C   0  0  0  0  0  0
  -18.0274  -28.1393   22.8482 C   0  0  0  0  0  0
  -24.1495  -36.7297   23.2633 C   0  0  0  0  0  0
  -25.9413  -30.8136   21.3617 C   0  0  0  0  0  0
  -26.0158  -29.4454   20.7050 C   0  0  0  0  0  0
  -27.2059  -28.6769   20.6867 C   0  0  0  0  0  0
  -26.0427  -26.8970   19.5189 C   0  0  0  0  0  0
  -24.8633  -27.6680   19.5167 C   0  0  0  0  0  0
  -23.6178  -29.8159   20.1610 C   0  0  0  0  0  0
  -25.4122  -36.3087   24.0324 C   0  0  1  0  0  0
  -20.5862  -28.3685   23.1295 C   0  0  2  0  0  0
  -20.6775  -26.9421   22.5409 C   0  0  0  0  0  0
  -19.5752  -26.6386   21.5209 C   0  0  0  0  0  0
  -18.1926  -26.7934   22.1613 C   0  0  0  0  0  0
  -19.1525  -28.8854   23.2888 C   0  0  0  0  0  0
  -18.9459  -30.1452   23.8909 C   0  0  0  0  0  0
  -17.6464  -30.6599   24.0565 C   0  0  0  0  0  0
  -25.9059  -34.9459   23.5093 C   0  0  0  0  0  0
  -16.5350  -29.9106   23.6326 C   0  0  0  0  0  0
  -16.7264  -28.6521   23.0351 C   0  0  0  0  0  0
  -26.4477  -31.6600   25.0704 C   0  0  0  0  0  0
  -25.3732  -31.3737   26.1445 C   0  0  0  0  0  0
  -27.0307  -30.3035   24.6114 C   0  0  0  0  0  0
  -27.6040  -32.4335   25.7477 C   0  0  0  0  0  0
  -27.5583  -37.1797   24.8464 C   0  0  0  0  0  0
  -21.4152  -29.3042   22.3696 N   0  0  0  0  0  0
  -26.4294  -37.3784   23.9416 N   0  0  0  0  0  0
  -24.6754  -31.0693   22.0951 N   0  0  0  0  0  0
  -23.4181  -28.8186   23.3022 O   0  0  0  0  0  0
  -28.4256  -26.6678   20.1169 O   0  0  0  0  0  0
  -26.5620  -34.8929   22.4652 O   0  0  0  0  0  0
  -23.5373  -32.1396   23.7412 O   0  0  0  0  0  0
  -30.1979  -19.7662   20.1163 C   0  0  0  0  0  0
  -31.3322  -19.8527   19.3342 C   0  0  0  0  0  0
  -30.0324  -21.9568   19.3671 C   0  0  0  0  0  0
  -28.7174  -24.1571   19.7025 C   0  0  0  0  0  0
  -32.4070  -18.8340   19.1230 C   0  0  0  0  0  0
  -28.2965  -25.7885   17.7172 C   0  0  0  0  0  0
  -29.8266  -18.5634   20.9956 C   0  0  0  0  0  0
  -28.8008  -25.6278   19.1660 C   0  0  1  0  0  0
  -29.4768  -21.0003   20.1468 N   0  0  0  0  0  0
  -29.6316  -23.3192   19.1605 N   0  0  0  0  0  0
  -29.9229  -15.6192   21.0482 N   0  0  0  0  0  0
  -27.8845  -23.8284   20.5514 O   0  0  0  0  0  0
  -30.0736  -16.9325   18.7871 O   0  0  0  0  0  0
  -27.9016  -16.8860   20.0716 O   0  0  0  0  0  0
  -31.4700  -21.3943   18.5340 S   0  0  0  0  0  0
  -29.3720  -16.9763   20.0819 S   0  0  0  0  0  0
  -31.4761  -12.4228   19.1510 H   0  0  0  0  0  0
  -30.3303  -11.3171   19.8545 H   0  0  0  0  0  0
  -29.7538  -11.7749   17.4480 H   0  0  0  0  0  0
  -29.6647  -13.4874   17.7762 H   0  0  0  0  0  0
  -27.8480  -11.2997   18.8402 H   0  0  0  0  0  0
  -27.3733  -12.6070   17.7895 H   0  0  0  0  0  0
  -27.6896  -14.2502   19.5499 H   0  0  0  0  0  0
  -28.6779  -11.9907   21.3606 H   0  0  0  0  0  0
  -28.4548  -13.6390   21.8607 H   0  0  0  0  0  0
  -25.2758   -9.5683   22.4749 H   0  0  0  0  0  0
  -24.0002   -7.4630   22.7465 H   0  0  0  0  0  0
  -21.0831   -8.8758   19.8951 H   0  0  0  0  0  0
  -22.3681  -10.9664   19.6153 H   0  0  0  0  0  0
  -21.1998   -7.6146   23.9723 H   0  0  0  0  0  0
  -21.1487   -6.0521   25.9088 H   0  0  0  0  0  0
  -22.0595   -2.7604   23.2847 H   0  0  0  0  0  0
  -22.4098  -11.9852   22.4761 H   0  0  0  0  0  0
  -21.1125  -13.1244   22.2636 H   0  0  0  0  0  0
  -24.6684  -15.8417   20.5791 H   0  0  0  0  0  0
  -26.3008  -15.6586   20.1846 H   0  0  0  0  0  0
  -26.7144  -32.5472   23.1103 H   0  0  0  0  0  0
  -25.0123  -33.9747   25.0449 H   0  0  0  0  0  0
  -22.7011  -31.3042   21.4033 H   0  0  0  0  0  0
  -23.3764  -35.9626   23.3314 H   0  0  0  0  0  0
  -24.3590  -36.8894   22.2045 H   0  0  0  0  0  0
  -23.7241  -37.6498   23.6655 H   0  0  0  0  0  0
  -26.0642  -31.5804   20.5956 H   0  0  0  0  0  0
  -26.8247  -30.8607   21.9863 H   0  0  0  0  0  0
  -28.1047  -29.0651   21.1447 H   0  0  0  0  0  0
  -25.9929  -25.9003   19.1114 H   0  0  0  0  0  0
  -23.9639  -27.2629   19.0735 H   0  0  0  0  0  0
  -23.7307  -30.5903   19.4014 H   0  0  0  0  0  0
  -22.7395  -29.2409   19.8632 H   0  0  0  0  0  0
  -25.1302  -36.1927   25.0812 H   0  0  0  0  0  0
  -20.9958  -28.3257   24.1417 H   0  0  0  0  0  0
  -20.5683  -26.2298   23.3603 H   0  0  0  0  0  0
  -21.6648  -26.7478   22.1200 H   0  0  0  0  0  0
  -19.6947  -25.6298   21.1242 H   0  0  0  0  0  0
  -19.6707  -27.3202   20.6745 H   0  0  0  0  0  0
  -17.4203  -26.6672   21.4010 H   0  0  0  0  0  0
  -18.0345  -26.0066   22.8998 H   0  0  0  0  0  0
  -19.7942  -30.7249   24.2296 H   0  0  0  0  0  0
  -17.5034  -31.6280   24.5169 H   0  0  0  0  0  0
  -15.5364  -30.3029   23.7646 H   0  0  0  0  0  0
  -15.8651  -28.0848   22.7082 H   0  0  0  0  0  0
  -24.5914  -30.7072   25.7788 H   0  0  0  0  0  0
  -24.8917  -32.2896   26.4866 H   0  0  0  0  0  0
  -25.8049  -30.8928   27.0223 H   0  0  0  0  0  0
  -26.2858  -29.6798   24.1148 H   0  0  0  0  0  0
  -27.4037  -29.7270   25.4584 H   0  0  0  0  0  0
  -27.8710  -30.4350   23.9298 H   0  0  0  0  0  0
  -27.2659  -33.3645   26.2046 H   0  0  0  0  0  0
  -28.3853  -32.6866   25.0305 H   0  0  0  0  0  0
  -28.0715  -31.8469   26.5394 H   0  0  0  0  0  0
  -28.2586  -38.0106   24.7522 H   0  0  0  0  0  0
  -28.1078  -36.2628   24.6271 H   0  0  0  0  0  0
  -27.2297  -37.1423   25.8862 H   0  0  0  0  0  0
  -20.9328  -29.8749   21.6895 H   0  0  0  0  0  0
  -26.0167  -38.2850   24.1435 H   0  0  0  0  0  0
  -32.3510  -18.0219   19.8477 H   0  0  0  0  0  0
  -33.3947  -19.2870   19.2171 H   0  0  0  0  0  0
  -32.3368  -18.3976   18.1262 H   0  0  0  0  0  0
  -28.9823  -25.3104   17.0180 H   0  0  0  0  0  0
  -28.2324  -26.8388   17.4348 H   0  0  0  0  0  0
  -27.3240  -25.3297   17.5540 H   0  0  0  0  0  0
  -28.9987  -18.7946   21.6631 H   0  0  0  0  0  0
  -30.6621  -18.3145   21.6456 H   0  0  0  0  0  0
  -29.8725  -25.8196   19.0913 H   0  0  0  0  0  0
  -30.2122  -23.7886   18.4800 H   0  0  0  0  0  0
  -29.1465  -15.3684   21.6546 H   0  0  0  0  0  0
  1 25  1  0  0  0
  1 30  2  0  0  0
  1 81  1  0  0  0
  2  3  1  0  0  0
  2 25  1  0  0  0
  2 87  1  0  0  0
  2 88  1  0  0  0
  3  4  1  0  0  0
  3 89  1  0  0  0
  3 90  1  0  0  0
  4  5  1  0  0  0
  4 91  1  0  0  0
  4 92  1  0  0  0
  5  6  1  0  0  0
  5 26  1  0  0  0
  5 93  1  0  0  0
  6 25  1  0  0  0
  6 94  1  0  0  0
  6 95  1  0  0  0
  7  8  2  0  0  0
  7 26  1  0  0  0
  7 29  1  0  0  0
  8  9  1  0  0  0
  8 22  1  0  0  0
  9 10  1  0  0  0
  9 27  2  0  0  0
 10 11  2  0  0  0
 10 15  1  0  0  0
 11 12  1  0  0  0
 11 96  1  0  0  0
 12 13  2  0  0  0
 12 97  1  0  0  0
 13 14  1  0  0  0
 13 31  1  0  0  0
 14 15  2  0  0  0
 14 98  1  0  0  0
 15 99  1  0  0  0
 16 17  2  0  0  0
 16 21  1  0  0  0
 16 31  1  0  0  0
 17 18  1  0  0  0
 17100  1  0  0  0
 18 19  2  0  0  0
 18101  1  0  0  0
 19 20  1  0  0  0
 19 24  1  0  0  0
 20 21  2  0  0  0
 20102  1  0  0  0
 21 23  1  0  0  0
 22 28  1  0  0  0
 22 32  2  0  0  0
 26 27  1  0  0  0
 28103  1  0  0  0
 28104  1  0  0  0
 29105  1  0  0  0
 29106  1  0  0  0
 33 34  1  0  0  0
 33 66  1  0  0  0
 33 70  2  0  0  0
 34 36  1  0  0  0
 34 59  1  0  0  0
 34107  1  0  0  0
 35 44  2  0  0  0
 35 45  1  0  0  0
 35 68  1  0  0  0
 36 56  1  0  0  0
 36108  1  0  0  0
 37 39  1  0  0  0
 37 47  1  0  0  0
 37 66  1  0  0  0
 37109  1  0  0  0
 38 43  2  0  0  0
 38 46  1  0  0  0
 38 47  1  0  0  0
 39 64  1  0  0  0
 39 67  2  0  0  0
 40 52  1  0  0  0
 40 53  2  0  0  0
 40 58  1  0  0  0
 41110  1  0  0  0
 41111  1  0  0  0
 41112  1  0  0  0
 41 48  1  0  0  0
 42 43  1  0  0  0
 42 66  1  0  0  0
 42113  1  0  0  0
 42114  1  0  0  0
 43 44  1  0  0  0
 44115  1  0  0  0
 45 46  2  0  0  0
 45116  1  0  0  0
 46117  1  0  0  0
 47118  1  0  0  0
 47119  1  0  0  0
 48 56  1  0  0  0
 48 65  1  0  0  0
 48120  1  0  0  0
 49 50  1  0  0  0
 49 53  1  0  0  0
 49 64  1  0  0  0
 49121  1  0  0  0
 50 51  1  0  0  0
 50122  1  0  0  0
 50123  1  0  0  0
 51 52  1  0  0  0
 51124  1  0  0  0
 51125  1  0  0  0
 52126  1  0  0  0
 52127  1  0  0  0
 53 54  1  0  0  0
 54 55  2  0  0  0
 54128  1  0  0  0
 55 57  1  0  0  0
 55129  1  0  0  0
 56 69  2  0  0  0
 57 58  2  0  0  0
 57130  1  0  0  0
 58131  1  0  0  0
 59 60  1  0  0  0
 59 61  1  0  0  0
 59 62  1  0  0  0
 60132  1  0  0  0
 60133  1  0  0  0
 60134  1  0  0  0
 61135  1  0  0  0
 61136  1  0  0  0
 61137  1  0  0  0
 62138  1  0  0  0
 62139  1  0  0  0
 62140  1  0  0  0
 63 65  1  0  0  0
 63141  1  0  0  0
 63142  1  0  0  0
 63143  1  0  0  0
 64144  1  0  0  0
 65145  1  0  0  0
 68 78  1  0  0  0
 71 72  2  0  0  0
 71 77  1  0  0  0
 71 79  1  0  0  0
 72 75  1  0  0  0
 72 85  1  0  0  0
 73 79  2  0  0  0
 73 80  1  0  0  0
 73 85  1  0  0  0
 74 78  1  0  0  0
 74 80  1  0  0  0
 74 82  2  0  0  0
 75146  1  0  0  0
 75147  1  0  0  0
 75148  1  0  0  0
 76149  1  0  0  0
 76150  1  0  0  0
 76151  1  0  0  0
 76 78  1  0  0  0
 77152  1  0  0  0
 77153  1  0  0  0
 77 86  1  0  0  0
 78154  1  0  0  0
 80155  1  0  0  0
 81 86  1  0  0  0
 81156  1  0  0  0
 83 86  2  0  0  0
 84 86  2  0  0  0
M  ISO  4   1 100  68 101  78 101  81 100
M  END
> <chiral flag>
0

> <version>
0

> <s_m_source_file>
/data/baiqing/PycharmProjects/Reinvent-master-3.2/result/LINK_invent/BTK/process_docking_weight1_custom_product_contain_oxygen_bond_distance_aromatic_linkinvent_7_9_3/rearranged_h_0178.sdf

> <i_m_source_file_index>
54

> <r_mmod_Potential_Energy-OPLS-2005>
-270.816833496094

> <r_mmod_Stretch_Energy-OPLS-2005>
49.3579711914062

> <r_mmod_Bend_Energy-OPLS-2005>
167.256256103516

> <r_mmod_Torsional_Energy-OPLS-2005>
209.356948852539

> <r_mmod_Improper_Torsional_Energy-OPLS-2005>
7.27345371246338

> <r_mmod_Van_der_Waal_Energy-OPLS-2005>
107.846603393555

> <r_mmod_Electrostatic_Energy-OPLS-2005>
-541.66845703125

> <r_mmod_Solvation_Energy-OPLS-2005>
-291.435333251953

> <b_mmod_Minimization_Converged-OPLS-2005>
0

> <r_mmod_RMS_Derivative-OPLS-2005>
1.58309209346771

$$$$
54
                    3D
 Structure written by MMmdl.
159167  0  0  1  0            999 V2000
  -30.6679  -14.5808   20.5142 C   0  0  0  0  0  0
  -30.4264  -12.3585   19.4435 C   0  0  0  0  0  0
  -29.4991  -12.4935   18.2171 C   0  0  0  0  0  0
  -28.0219  -12.3433   18.6310 C   0  0  0  0  0  0
  -27.6519  -13.2153   19.8602 C   0  0  2  0  0  0
  -28.6976  -13.0699   20.9896 C   0  0  0  0  0  0
  -25.2552  -13.8167   20.5667 C   0  0  0  0  0  0
  -24.1825  -13.0438   20.9194 C   0  0  0  0  0  0
  -24.6387  -11.6908   20.8738 C   0  0  0  0  0  0
  -23.9052  -10.4290   21.0399 C   0  0  0  0  0  0
  -24.3604   -9.4207   21.9174 C   0  0  0  0  0  0
  -23.6290   -8.2238   22.0738 C   0  0  0  0  0  0
  -22.4274   -8.0266   21.3530 C   0  0  0  0  0  0
  -21.9909   -9.0241   20.4634 C   0  0  0  0  0  0
  -22.7226  -10.2126   20.3050 C   0  0  0  0  0  0
  -21.6855   -6.0727   22.5276 C   0  0  0  0  0  0
  -21.4015   -6.5634   23.8209 C   0  0  0  0  0  0
  -21.3662   -5.6786   24.9171 C   0  0  0  0  0  0
  -21.6044   -4.3048   24.7223 C   0  0  0  0  0  0
  -21.8820   -3.8138   23.4344 C   0  0  0  0  0  0
  -21.9193   -4.6956   22.3400 C   0  0  0  0  0  0
  -22.7844  -13.5233   21.1862 C   0  0  0  0  0  0
  -22.1658   -4.2143   21.0975 F   0  0  0  0  0  0
  -21.5634   -3.4531   25.7737 F   0  0  0  0  0  0
  -30.0144  -13.3844   20.4176 N   0  0  0  0  0  0
  -26.2983  -12.9349   20.3309 N   0  0  0  0  0  0
  -25.9318  -11.6510   20.5765 N   0  0  0  0  0  0
  -22.0488  -12.8218   22.0417 N   0  0  0  0  0  0
  -25.4253  -15.1889   20.4069 N   0  0  0  0  0  0
  -31.8426  -14.6995   20.1560 O   0  0  0  0  0  0
  -21.6637   -6.8863   21.4233 O   0  0  0  0  0  0
  -22.3522  -14.5532   20.6709 O   0  0  0  0  0  0
  -24.6207  -31.8627   23.2065 C   0  0  0  0  0  0
  -25.9071  -32.4797   23.8379 C   0  0  1  0  0  0
  -27.2294  -27.3638   20.0987 C   0  0  0  0  0  0
  -25.5909  -33.8599   24.2303 N   0  0  0  0  0  0
  -23.4119  -30.4867   21.5487 C   0  0  2  0  0  0
  -24.8561  -28.9455   20.1144 C   0  0  0  0  0  0
  -22.7443  -29.4630   22.4966 C   0  0  0  0  0  0
  -18.0277  -28.1374   22.8487 C   0  0  0  0  0  0
  -24.1485  -36.7304   23.2641 C   0  0  0  0  0  0
  -25.9482  -30.8061   21.3705 C   0  0  0  0  0  0
  -26.0214  -29.4362   20.7138 C   0  0  0  0  0  0
  -27.2068  -28.6540   20.7009 C   0  0  0  0  0  0
  -26.0317  -26.9019   19.5030 C   0  0  0  0  0  0
  -24.8596  -27.6804   19.5070 C   0  0  0  0  0  0
  -23.6233  -29.8217   20.1633 C   0  0  0  0  0  0
  -25.4108  -36.3098   24.0335 C   0  0  1  0  0  0
  -20.5871  -28.3667   23.1304 C   0  0  2  0  0  0
  -20.6763  -26.9395   22.5415 C   0  0  0  0  0  0
  -19.5744  -26.6376   21.5211 C   0  0  0  0  0  0
  -18.1924  -26.7918   22.1622 C   0  0  0  0  0  0
  -19.1527  -28.8837   23.2891 C   0  0  0  0  0  0
  -18.9453  -30.1443   23.8903 C   0  0  0  0  0  0
  -17.6454  -30.6579   24.0560 C   0  0  0  0  0  0
  -25.9041  -34.9464   23.5116 C   0  0  0  0  0  0
  -16.5343  -29.9079   23.6323 C   0  0  0  0  0  0
  -16.7266  -28.6493   23.0348 C   0  0  0  0  0  0
  -26.4476  -31.6599   25.0735 C   0  0  0  0  0  0
  -25.3731  -31.3726   26.1483 C   0  0  0  0  0  0
  -27.0306  -30.3028   24.6151 C   0  0  0  0  0  0
  -27.6043  -32.4333   25.7497 C   0  0  0  0  0  0
  -27.5579  -37.1805   24.8463 C   0  0  0  0  0  0
  -21.4164  -29.3030   22.3709 N   0  0  0  0  0  0
  -26.4289  -37.3786   23.9412 N   0  0  0  0  0  0
  -24.6790  -31.0674   22.0996 N   0  0  0  0  0  0
  -23.4188  -28.8163   23.3024 O   0  0  0  0  0  0
  -28.3970  -26.6012   20.1372 O   0  0  0  0  0  0
  -26.5607  -34.8922   22.4681 O   0  0  0  0  0  0
  -23.5382  -32.1409   23.7412 O   0  0  0  0  0  0
  -31.3220  -19.2413   21.4460 C   0  0  0  0  0  0
  -30.0122  -19.3576   21.0361 C   0  0  0  0  0  0
  -30.2895  -17.0469   20.9271 C   0  0  0  0  0  0
  -28.6709  -24.0744   20.4188 C   0  0  0  0  0  0
  -32.2574  -20.3321   21.8620 C   0  0  0  0  0  0
  -28.5299  -20.5383   18.6459 C   0  0  0  0  0  0
  -30.5435  -21.8840   19.2546 C   0  0  0  0  0  0
  -28.1847  -22.6732   19.9167 C   0  0  0  0  0  0
  -28.4938  -25.3031   19.4671 C   0  0  0  0  0  0
  -29.1554  -21.4216   19.7451 C   0  0  0  0  0  0
  -29.4377  -18.0884   20.7516 N   0  0  0  0  0  0
  -29.3007  -20.6010   20.9731 N   0  0  0  0  0  0
  -29.8897  -15.6673   20.7793 N   0  0  0  0  0  0
  -29.1746  -24.2036   21.5400 O   0  0  0  0  0  0
  -31.8861  -17.5823   21.4380 S   0  0  0  0  0  0
  -31.4714  -12.4622   19.1434 H   0  0  0  0  0  0
  -30.3388  -11.3641   19.8847 H   0  0  0  0  0  0
  -29.7535  -11.7438   17.4667 H   0  0  0  0  0  0
  -29.6512  -13.4649   17.7447 H   0  0  0  0  0  0
  -27.8517  -11.2910   18.8608 H   0  0  0  0  0  0
  -27.3659  -12.5780   17.7917 H   0  0  0  0  0  0
  -27.6691  -14.2497   19.5165 H   0  0  0  0  0  0
  -28.6972  -12.0542   21.3893 H   0  0  0  0  0  0
  -28.4583  -13.7216   21.8321 H   0  0  0  0  0  0
  -25.2750   -9.5696   22.4748 H   0  0  0  0  0  0
  -24.0002   -7.4637   22.7462 H   0  0  0  0  0  0
  -21.0833   -8.8765   19.8955 H   0  0  0  0  0  0
  -22.3673  -10.9662   19.6164 H   0  0  0  0  0  0
  -21.2007   -7.6145   23.9715 H   0  0  0  0  0  0
  -21.1484   -6.0511   25.9074 H   0  0  0  0  0  0
  -22.0599   -2.7603   23.2844 H   0  0  0  0  0  0
  -22.4099  -11.9874   22.4802 H   0  0  0  0  0  0
  -21.1108  -13.1248   22.2633 H   0  0  0  0  0  0
  -24.6559  -15.8408   20.5158 H   0  0  0  0  0  0
  -26.2692  -15.6305   20.0655 H   0  0  0  0  0  0
  -26.7133  -32.5476   23.1129 H   0  0  0  0  0  0
  -25.0056  -33.9750   25.0447 H   0  0  0  0  0  0
  -22.7036  -31.3056   21.4085 H   0  0  0  0  0  0
  -23.3745  -35.9639   23.3306 H   0  0  0  0  0  0
  -24.3575  -36.8917   22.2055 H   0  0  0  0  0  0
  -23.7237  -37.6508   23.6657 H   0  0  0  0  0  0
  -26.0731  -31.5707   20.6025 H   0  0  0  0  0  0
  -26.8321  -30.8545   21.9951 H   0  0  0  0  0  0
  -28.1050  -29.0312   21.1695 H   0  0  0  0  0  0
  -25.9493  -25.9308   19.0432 H   0  0  0  0  0  0
  -23.9601  -27.2927   19.0490 H   0  0  0  0  0  0
  -23.7407  -30.5991   19.4072 H   0  0  0  0  0  0
  -22.7440  -29.2492   19.8625 H   0  0  0  0  0  0
  -25.1282  -36.1959   25.0827 H   0  0  0  0  0  0
  -20.9958  -28.3229   24.1428 H   0  0  0  0  0  0
  -20.5655  -26.2269   23.3603 H   0  0  0  0  0  0
  -21.6635  -26.7424   22.1217 H   0  0  0  0  0  0
  -19.6904  -25.6288   21.1237 H   0  0  0  0  0  0
  -19.6689  -27.3188   20.6743 H   0  0  0  0  0  0
  -17.4190  -26.6666   21.4028 H   0  0  0  0  0  0
  -18.0327  -26.0061   22.9020 H   0  0  0  0  0  0
  -19.7929  -30.7258   24.2274 H   0  0  0  0  0  0
  -17.5007  -31.6261   24.5159 H   0  0  0  0  0  0
  -15.5342  -30.2983   23.7644 H   0  0  0  0  0  0
  -15.8667  -28.0818   22.7055 H   0  0  0  0  0  0
  -24.5892  -30.7081   25.7832 H   0  0  0  0  0  0
  -24.8936  -32.2888   26.4941 H   0  0  0  0  0  0
  -25.8080  -30.8893   27.0239 H   0  0  0  0  0  0
  -26.2862  -29.6799   24.1176 H   0  0  0  0  0  0
  -27.4018  -29.7264   25.4635 H   0  0  0  0  0  0
  -27.8730  -30.4330   23.9354 H   0  0  0  0  0  0
  -27.2654  -33.3628   26.2084 H   0  0  0  0  0  0
  -28.3846  -32.6899   25.0320 H   0  0  0  0  0  0
  -28.0720  -31.8454   26.5404 H   0  0  0  0  0  0
  -28.2595  -38.0103   24.7504 H   0  0  0  0  0  0
  -28.1072  -36.2630   24.6289 H   0  0  0  0  0  0
  -27.2297  -37.1463   25.8866 H   0  0  0  0  0  0
  -20.9324  -29.8765   21.6943 H   0  0  0  0  0  0
  -26.0173  -38.2862   24.1414 H   0  0  0  0  0  0
  -31.7211  -21.2468   22.1145 H   0  0  0  0  0  0
  -32.9574  -20.5651   21.0596 H   0  0  0  0  0  0
  -32.8355  -20.0387   22.7382 H   0  0  0  0  0  0
  -28.3658  -21.0987   17.7240 H   0  0  0  0  0  0
  -27.5638  -20.1384   18.9583 H   0  0  0  0  0  0
  -29.1662  -19.6910   18.3870 H   0  0  0  0  0  0
  -30.4655  -22.4829   18.3460 H   0  0  0  0  0  0
  -31.1947  -21.0399   19.0240 H   0  0  0  0  0  0
  -31.0580  -22.4908   20.0004 H   0  0  0  0  0  0
  -27.7542  -22.8854   18.9382 H   0  0  0  0  0  0
  -27.3306  -22.3841   20.5292 H   0  0  0  0  0  0
  -27.7013  -25.1084   18.7510 H   0  0  0  0  0  0
  -29.3994  -25.3439   18.8620 H   0  0  0  0  0  0
  -29.6117  -21.2045   21.7285 H   0  0  0  0  0  0
  -28.9053  -15.4853   20.8728 H   0  0  0  0  0  0
  1 25  1  0  0  0
  1 30  2  0  0  0
  1 83  1  0  0  0
  2  3  1  0  0  0
  2 25  1  0  0  0
  2 86  1  0  0  0
  2 87  1  0  0  0
  3  4  1  0  0  0
  3 88  1  0  0  0
  3 89  1  0  0  0
  4  5  1  0  0  0
  4 90  1  0  0  0
  4 91  1  0  0  0
  5  6  1  0  0  0
  5 26  1  0  0  0
  5 92  1  0  0  0
  6 25  1  0  0  0
  6 93  1  0  0  0
  6 94  1  0  0  0
  7  8  2  0  0  0
  7 26  1  0  0  0
  7 29  1  0  0  0
  8  9  1  0  0  0
  8 22  1  0  0  0
  9 10  1  0  0  0
  9 27  2  0  0  0
 10 11  2  0  0  0
 10 15  1  0  0  0
 11 12  1  0  0  0
 11 95  1  0  0  0
 12 13  2  0  0  0
 12 96  1  0  0  0
 13 14  1  0  0  0
 13 31  1  0  0  0
 14 15  2  0  0  0
 14 97  1  0  0  0
 15 98  1  0  0  0
 16 17  2  0  0  0
 16 21  1  0  0  0
 16 31  1  0  0  0
 17 18  1  0  0  0
 17 99  1  0  0  0
 18 19  2  0  0  0
 18100  1  0  0  0
 19 20  1  0  0  0
 19 24  1  0  0  0
 20 21  2  0  0  0
 20101  1  0  0  0
 21 23  1  0  0  0
 22 28  1  0  0  0
 22 32  2  0  0  0
 26 27  1  0  0  0
 28102  1  0  0  0
 28103  1  0  0  0
 29104  1  0  0  0
 29105  1  0  0  0
 33 34  1  0  0  0
 33 66  1  0  0  0
 33 70  2  0  0  0
 34 36  1  0  0  0
 34 59  1  0  0  0
 34106  1  0  0  0
 35 44  2  0  0  0
 35 45  1  0  0  0
 35 68  1  0  0  0
 36 56  1  0  0  0
 36107  1  0  0  0
 37 39  1  0  0  0
 37 47  1  0  0  0
 37 66  1  0  0  0
 37108  1  0  0  0
 38 43  2  0  0  0
 38 46  1  0  0  0
 38 47  1  0  0  0
 39 64  1  0  0  0
 39 67  2  0  0  0
 40 52  1  0  0  0
 40 53  2  0  0  0
 40 58  1  0  0  0
 41109  1  0  0  0
 41110  1  0  0  0
 41111  1  0  0  0
 41 48  1  0  0  0
 42 43  1  0  0  0
 42 66  1  0  0  0
 42112  1  0  0  0
 42113  1  0  0  0
 43 44  1  0  0  0
 44114  1  0  0  0
 45 46  2  0  0  0
 45115  1  0  0  0
 46116  1  0  0  0
 47117  1  0  0  0
 47118  1  0  0  0
 48 56  1  0  0  0
 48 65  1  0  0  0
 48119  1  0  0  0
 49 50  1  0  0  0
 49 53  1  0  0  0
 49 64  1  0  0  0
 49120  1  0  0  0
 50 51  1  0  0  0
 50121  1  0  0  0
 50122  1  0  0  0
 51 52  1  0  0  0
 51123  1  0  0  0
 51124  1  0  0  0
 52125  1  0  0  0
 52126  1  0  0  0
 53 54  1  0  0  0
 54 55  2  0  0  0
 54127  1  0  0  0
 55 57  1  0  0  0
 55128  1  0  0  0
 56 69  2  0  0  0
 57 58  2  0  0  0
 57129  1  0  0  0
 58130  1  0  0  0
 59 60  1  0  0  0
 59 61  1  0  0  0
 59 62  1  0  0  0
 60131  1  0  0  0
 60132  1  0  0  0
 60133  1  0  0  0
 61134  1  0  0  0
 61135  1  0  0  0
 61136  1  0  0  0
 62137  1  0  0  0
 62138  1  0  0  0
 62139  1  0  0  0
 63 65  1  0  0  0
 63140  1  0  0  0
 63141  1  0  0  0
 63142  1  0  0  0
 64143  1  0  0  0
 65144  1  0  0  0
 68 79  1  0  0  0
 71 72  2  0  0  0
 71 75  1  0  0  0
 71 85  1  0  0  0
 72 81  1  0  0  0
 72 82  1  0  0  0
 73 81  2  0  0  0
 73 83  1  0  0  0
 73 85  1  0  0  0
 74 78  1  0  0  0
 74 79  1  0  0  0
 74 84  2  0  0  0
 75145  1  0  0  0
 75146  1  0  0  0
 75147  1  0  0  0
 76148  1  0  0  0
 76149  1  0  0  0
 76150  1  0  0  0
 76 80  1  0  0  0
 77 80  1  0  0  0
 77151  1  0  0  0
 77152  1  0  0  0
 77153  1  0  0  0
 78 80  1  0  0  0
 78154  1  0  0  0
 78155  1  0  0  0
 79156  1  0  0  0
 79157  1  0  0  0
 80 82  1  0  0  0
 82158  1  0  0  0
 83159  1  0  0  0
M  ISO  4   1 100  68 101  79 101  83 100
M  END
> <chiral flag>
0

> <version>
0

> <s_m_source_file>
/data/baiqing/PycharmProjects/Reinvent-master-3.2/result/LINK_invent/BTK/process_docking_weight1_custom_product_contain_oxygen_bond_distance_aromatic_linkinvent_7_9_3/rearranged_h_0178.sdf

> <i_m_source_file_index>
55

> <r_mmod_Potential_Energy-OPLS-2005>
-71.9106826782227

> <r_mmod_Stretch_Energy-OPLS-2005>
58.1840438842773

> <r_mmod_Bend_Energy-OPLS-2005>
139.25358581543

> <r_mmod_Torsional_Energy-OPLS-2005>
208.238128662109

> <r_mmod_Improper_Torsional_Energy-OPLS-2005>
10.7814893722534

> <r_mmod_Van_der_Waal_Energy-OPLS-2005>
123.880996704102

> <r_mmod_Electrostatic_Energy-OPLS-2005>
-411.924499511719

> <r_mmod_Solvation_Energy-OPLS-2005>
-231.624267578125

> <b_mmod_Minimization_Converged-OPLS-2005>
0

> <r_mmod_RMS_Derivative-OPLS-2005>
1.25517117977142

$$$$
55
                    3D
 Structure written by MMmdl.
154162  0  0  1  0            999 V2000
  -30.6779  -14.5633   20.4498 C   0  0  0  0  0  0
  -30.4180  -12.3349   19.4467 C   0  0  0  0  0  0
  -29.4964  -12.4876   18.2191 C   0  0  0  0  0  0
  -28.0202  -12.3443   18.6330 C   0  0  0  0  0  0
  -27.6511  -13.2202   19.8599 C   0  0  2  0  0  0
  -28.6982  -13.0882   20.9897 C   0  0  0  0  0  0
  -25.2547  -13.8193   20.5704 C   0  0  0  0  0  0
  -24.1816  -13.0452   20.9191 C   0  0  0  0  0  0
  -24.6379  -11.6924   20.8748 C   0  0  0  0  0  0
  -23.9061  -10.4299   21.0399 C   0  0  0  0  0  0
  -24.3601   -9.4203   21.9174 C   0  0  0  0  0  0
  -23.6282   -8.2228   22.0747 C   0  0  0  0  0  0
  -22.4257   -8.0271   21.3553 C   0  0  0  0  0  0
  -21.9896   -9.0245   20.4657 C   0  0  0  0  0  0
  -22.7231  -10.2126   20.3068 C   0  0  0  0  0  0
  -21.6853   -6.0732   22.5273 C   0  0  0  0  0  0
  -21.4017   -6.5629   23.8208 C   0  0  0  0  0  0
  -21.3666   -5.6782   24.9168 C   0  0  0  0  0  0
  -21.6039   -4.3044   24.7216 C   0  0  0  0  0  0
  -21.8820   -3.8143   23.4342 C   0  0  0  0  0  0
  -21.9190   -4.6963   22.3401 C   0  0  0  0  0  0
  -22.7840  -13.5249   21.1849 C   0  0  0  0  0  0
  -22.1663   -4.2150   21.0977 F   0  0  0  0  0  0
  -21.5622   -3.4536   25.7732 F   0  0  0  0  0  0
  -30.0219  -13.3687   20.4193 N   0  0  0  0  0  0
  -26.2977  -12.9384   20.3331 N   0  0  0  0  0  0
  -25.9310  -11.6531   20.5750 N   0  0  0  0  0  0
  -22.0475  -12.8259   22.0413 N   0  0  0  0  0  0
  -25.4264  -15.1910   20.4149 N   0  0  0  0  0  0
  -31.8756  -14.6454   20.1643 O   0  0  0  0  0  0
  -21.6640   -6.8865   21.4233 O   0  0  0  0  0  0
  -22.3537  -14.5569   20.6712 O   0  0  0  0  0  0
  -24.6183  -31.8658   23.2051 C   0  0  0  0  0  0
  -25.9060  -32.4809   23.8372 C   0  0  1  0  0  0
  -27.2299  -27.3881   20.0888 C   0  0  0  0  0  0
  -25.5892  -33.8606   24.2298 N   0  0  0  0  0  0
  -23.4075  -30.4879   21.5493 C   0  0  2  0  0  0
  -24.8503  -28.9473   20.1136 C   0  0  0  0  0  0
  -22.7437  -29.4640   22.4992 C   0  0  0  0  0  0
  -18.0275  -28.1374   22.8490 C   0  0  0  0  0  0
  -24.1484  -36.7317   23.2628 C   0  0  0  0  0  0
  -25.9418  -30.8144   21.3655 C   0  0  0  0  0  0
  -26.0141  -29.4457   20.7102 C   0  0  0  0  0  0
  -27.2035  -28.6743   20.6921 C   0  0  0  0  0  0
  -26.0365  -26.9093   19.4999 C   0  0  0  0  0  0
  -24.8587  -27.6806   19.5059 C   0  0  0  0  0  0
  -23.6154  -29.8206   20.1645 C   0  0  0  0  0  0
  -25.4098  -36.3108   24.0335 C   0  0  1  0  0  0
  -20.5865  -28.3657   23.1318 C   0  0  2  0  0  0
  -20.6762  -26.9392   22.5415 C   0  0  0  0  0  0
  -19.5743  -26.6383   21.5207 C   0  0  0  0  0  0
  -18.1924  -26.7915   22.1622 C   0  0  0  0  0  0
  -19.1527  -28.8831   23.2898 C   0  0  0  0  0  0
  -18.9446  -30.1438   23.8913 C   0  0  0  0  0  0
  -17.6450  -30.6571   24.0563 C   0  0  0  0  0  0
  -25.9037  -34.9473   23.5125 C   0  0  0  0  0  0
  -16.5341  -29.9076   23.6324 C   0  0  0  0  0  0
  -16.7266  -28.6492   23.0340 C   0  0  0  0  0  0
  -26.4449  -31.6604   25.0731 C   0  0  0  0  0  0
  -25.3700  -31.3768   26.1484 C   0  0  0  0  0  0
  -27.0248  -30.3018   24.6151 C   0  0  0  0  0  0
  -27.6032  -32.4319   25.7478 C   0  0  0  0  0  0
  -27.5600  -37.1784   24.8438 C   0  0  0  0  0  0
  -21.4154  -29.3028   22.3736 N   0  0  0  0  0  0
  -26.4277  -37.3806   23.9441 N   0  0  0  0  0  0
  -24.6748  -31.0717   22.0973 N   0  0  0  0  0  0
  -23.4196  -28.8195   23.3053 O   0  0  0  0  0  0
  -28.4098  -26.6532   20.1020 O   0  0  0  0  0  0
  -26.5615  -34.8936   22.4699 O   0  0  0  0  0  0
  -23.5365  -32.1429   23.7422 O   0  0  0  0  0  0
  -30.6739  -16.8832   18.5719 C   0  0  0  0  0  0
  -29.9990  -19.1643   18.1325 C   0  0  0  0  0  0
  -30.6822  -18.0024   17.7404 C   0  0  0  0  0  0
  -29.9937  -16.9097   19.8095 C   0  0  0  0  0  0
  -29.3544  -19.1812   19.3943 C   0  0  0  0  0  0
  -28.1432  -22.7460   19.6996 C   0  0  0  0  0  0
  -28.9410  -21.5006   20.2558 C   0  0  0  0  0  0
  -28.2371  -24.1197   20.4189 C   0  0  0  0  0  0
  -28.5018  -25.3422   19.4803 C   0  0  0  0  0  0
  -29.3488  -18.0633   20.1937 N   0  0  0  0  0  0
  -29.9572  -20.2525   17.2481 N   0  0  0  0  0  0
  -28.5745  -20.3581   19.6328 N   0  0  0  0  0  0
  -29.9081  -15.6823   20.5794 N   0  0  0  0  0  0
  -27.4236  -22.6314   18.6985 O   0  0  0  0  0  0
  -29.7636  -21.5789   21.1750 O   0  0  0  0  0  0
  -31.3178  -17.9530   16.5425 F   0  0  0  0  0  0
  -31.4635  -12.4179   19.1432 H   0  0  0  0  0  0
  -30.3136  -11.3435   19.8897 H   0  0  0  0  0  0
  -29.7420  -11.7410   17.4632 H   0  0  0  0  0  0
  -29.6552  -13.4605   17.7510 H   0  0  0  0  0  0
  -27.8435  -11.2921   18.8619 H   0  0  0  0  0  0
  -27.3707  -12.5832   17.7907 H   0  0  0  0  0  0
  -27.6667  -14.2520   19.5091 H   0  0  0  0  0  0
  -28.6827  -12.0842   21.4165 H   0  0  0  0  0  0
  -28.4719  -13.7697   21.8118 H   0  0  0  0  0  0
  -25.2739   -9.5679   22.4767 H   0  0  0  0  0  0
  -23.9994   -7.4617   22.7462 H   0  0  0  0  0  0
  -21.0821   -8.8767   19.8974 H   0  0  0  0  0  0
  -22.3671  -10.9657   19.6189 H   0  0  0  0  0  0
  -21.2017   -7.6137   23.9711 H   0  0  0  0  0  0
  -21.1494   -6.0518   25.9070 H   0  0  0  0  0  0
  -22.0602   -2.7606   23.2847 H   0  0  0  0  0  0
  -22.4095  -11.9939   22.4829 H   0  0  0  0  0  0
  -21.1098  -13.1311   22.2622 H   0  0  0  0  0  0
  -24.6580  -15.8440   20.5242 H   0  0  0  0  0  0
  -26.2804  -15.6365   20.1051 H   0  0  0  0  0  0
  -26.7137  -32.5494   23.1131 H   0  0  0  0  0  0
  -25.0023  -33.9754   25.0432 H   0  0  0  0  0  0
  -22.6982  -31.3060   21.4102 H   0  0  0  0  0  0
  -23.3764  -35.9624   23.3222 H   0  0  0  0  0  0
  -24.3606  -36.9005   22.2058 H   0  0  0  0  0  0
  -23.7194  -37.6484   23.6687 H   0  0  0  0  0  0
  -26.0652  -31.5790   20.5967 H   0  0  0  0  0  0
  -26.8249  -30.8633   21.9913 H   0  0  0  0  0  0
  -28.1038  -29.0605   21.1492 H   0  0  0  0  0  0
  -25.9830  -25.9360   19.0371 H   0  0  0  0  0  0
  -23.9620  -27.2883   19.0458 H   0  0  0  0  0  0
  -23.7253  -30.5952   19.4048 H   0  0  0  0  0  0
  -22.7370  -29.2442   19.8689 H   0  0  0  0  0  0
  -25.1255  -36.1963   25.0821 H   0  0  0  0  0  0
  -20.9941  -28.3204   24.1443 H   0  0  0  0  0  0
  -20.5648  -26.2260   23.3599 H   0  0  0  0  0  0
  -21.6639  -26.7430   22.1221 H   0  0  0  0  0  0
  -19.6904  -25.6299   21.1226 H   0  0  0  0  0  0
  -19.6670  -27.3204   20.6746 H   0  0  0  0  0  0
  -17.4184  -26.6648   21.4034 H   0  0  0  0  0  0
  -18.0332  -26.0056   22.9022 H   0  0  0  0  0  0
  -19.7922  -30.7252   24.2288 H   0  0  0  0  0  0
  -17.4999  -31.6251   24.5170 H   0  0  0  0  0  0
  -15.5342  -30.2975   23.7638 H   0  0  0  0  0  0
  -15.8661  -28.0815   22.7045 H   0  0  0  0  0  0
  -24.5850  -30.7124   25.7854 H   0  0  0  0  0  0
  -24.8916  -32.2949   26.4905 H   0  0  0  0  0  0
  -25.8036  -30.8966   27.0264 H   0  0  0  0  0  0
  -26.2797  -29.6819   24.1142 H   0  0  0  0  0  0
  -27.3906  -29.7227   25.4644 H   0  0  0  0  0  0
  -27.8695  -30.4296   23.9371 H   0  0  0  0  0  0
  -27.2655  -33.3618   26.2066 H   0  0  0  0  0  0
  -28.3818  -32.6879   25.0279 H   0  0  0  0  0  0
  -28.0716  -31.8437   26.5379 H   0  0  0  0  0  0
  -28.2540  -38.0161   24.7620 H   0  0  0  0  0  0
  -28.1178  -36.2710   24.6068 H   0  0  0  0  0  0
  -27.2364  -37.1198   25.8845 H   0  0  0  0  0  0
  -20.9318  -29.8765   21.6966 H   0  0  0  0  0  0
  -26.0162  -38.2871   24.1507 H   0  0  0  0  0  0
  -31.1802  -16.0046   18.2031 H   0  0  0  0  0  0
  -29.0053  -24.0726   21.1896 H   0  0  0  0  0  0
  -27.2886  -24.2637   20.9342 H   0  0  0  0  0  0
  -27.9236  -25.2833   18.5585 H   0  0  0  0  0  0
  -29.5349  -25.2592   19.1419 H   0  0  0  0  0  0
  -30.5890  -20.2057   16.4537 H   0  0  0  0  0  0
  -29.8609  -21.1897   17.6188 H   0  0  0  0  0  0
  -27.9219  -20.5696   18.8884 H   0  0  0  0  0  0
  -29.0408  -15.5505   21.0730 H   0  0  0  0  0  0
  1 25  1  0  0  0
  1 30  2  0  0  0
  1 83  1  0  0  0
  2  3  1  0  0  0
  2 25  1  0  0  0
  2 87  1  0  0  0
  2 88  1  0  0  0
  3  4  1  0  0  0
  3 89  1  0  0  0
  3 90  1  0  0  0
  4  5  1  0  0  0
  4 91  1  0  0  0
  4 92  1  0  0  0
  5  6  1  0  0  0
  5 26  1  0  0  0
  5 93  1  0  0  0
  6 25  1  0  0  0
  6 94  1  0  0  0
  6 95  1  0  0  0
  7  8  2  0  0  0
  7 26  1  0  0  0
  7 29  1  0  0  0
  8  9  1  0  0  0
  8 22  1  0  0  0
  9 10  1  0  0  0
  9 27  2  0  0  0
 10 11  2  0  0  0
 10 15  1  0  0  0
 11 12  1  0  0  0
 11 96  1  0  0  0
 12 13  2  0  0  0
 12 97  1  0  0  0
 13 14  1  0  0  0
 13 31  1  0  0  0
 14 15  2  0  0  0
 14 98  1  0  0  0
 15 99  1  0  0  0
 16 17  2  0  0  0
 16 21  1  0  0  0
 16 31  1  0  0  0
 17 18  1  0  0  0
 17100  1  0  0  0
 18 19  2  0  0  0
 18101  1  0  0  0
 19 20  1  0  0  0
 19 24  1  0  0  0
 20 21  2  0  0  0
 20102  1  0  0  0
 21 23  1  0  0  0
 22 28  1  0  0  0
 22 32  2  0  0  0
 26 27  1  0  0  0
 28103  1  0  0  0
 28104  1  0  0  0
 29105  1  0  0  0
 29106  1  0  0  0
 33 34  1  0  0  0
 33 66  1  0  0  0
 33 70  2  0  0  0
 34 36  1  0  0  0
 34 59  1  0  0  0
 34107  1  0  0  0
 35 44  2  0  0  0
 35 45  1  0  0  0
 35 68  1  0  0  0
 36 56  1  0  0  0
 36108  1  0  0  0
 37 39  1  0  0  0
 37 47  1  0  0  0
 37 66  1  0  0  0
 37109  1  0  0  0
 38 43  2  0  0  0
 38 46  1  0  0  0
 38 47  1  0  0  0
 39 64  1  0  0  0
 39 67  2  0  0  0
 40 52  1  0  0  0
 40 53  2  0  0  0
 40 58  1  0  0  0
 41110  1  0  0  0
 41111  1  0  0  0
 41112  1  0  0  0
 41 48  1  0  0  0
 42 43  1  0  0  0
 42 66  1  0  0  0
 42113  1  0  0  0
 42114  1  0  0  0
 43 44  1  0  0  0
 44115  1  0  0  0
 45 46  2  0  0  0
 45116  1  0  0  0
 46117  1  0  0  0
 47118  1  0  0  0
 47119  1  0  0  0
 48 56  1  0  0  0
 48 65  1  0  0  0
 48120  1  0  0  0
 49 50  1  0  0  0
 49 53  1  0  0  0
 49 64  1  0  0  0
 49121  1  0  0  0
 50 51  1  0  0  0
 50122  1  0  0  0
 50123  1  0  0  0
 51 52  1  0  0  0
 51124  1  0  0  0
 51125  1  0  0  0
 52126  1  0  0  0
 52127  1  0  0  0
 53 54  1  0  0  0
 54 55  2  0  0  0
 54128  1  0  0  0
 55 57  1  0  0  0
 55129  1  0  0  0
 56 69  2  0  0  0
 57 58  2  0  0  0
 57130  1  0  0  0
 58131  1  0  0  0
 59 60  1  0  0  0
 59 61  1  0  0  0
 59 62  1  0  0  0
 60132  1  0  0  0
 60133  1  0  0  0
 60134  1  0  0  0
 61135  1  0  0  0
 61136  1  0  0  0
 61137  1  0  0  0
 62138  1  0  0  0
 62139  1  0  0  0
 62140  1  0  0  0
 63 65  1  0  0  0
 63141  1  0  0  0
 63142  1  0  0  0
 63143  1  0  0  0
 64144  1  0  0  0
 65145  1  0  0  0
 68 79  1  0  0  0
 71 73  2  0  0  0
 71 74  1  0  0  0
 71146  1  0  0  0
 72 73  1  0  0  0
 72 75  2  0  0  0
 72 81  1  0  0  0
 73 86  1  0  0  0
 74 80  2  0  0  0
 74 83  1  0  0  0
 75 80  1  0  0  0
 75 82  1  0  0  0
 76 77  1  0  0  0
 76 78  1  0  0  0
 76 84  2  0  0  0
 77 82  1  0  0  0
 77 85  2  0  0  0
 78 79  1  0  0  0
 78147  1  0  0  0
 78148  1  0  0  0
 79149  1  0  0  0
 79150  1  0  0  0
 81151  1  0  0  0
 81152  1  0  0  0
 82153  1  0  0  0
 83154  1  0  0  0
M  ISO  4   1 100  68 101  79 101  83 100
M  END
> <chiral flag>
0

> <version>
0

> <s_m_source_file>
/data/baiqing/PycharmProjects/Reinvent-master-3.2/result/LINK_invent/BTK/process_docking_weight1_custom_product_contain_oxygen_bond_distance_aromatic_linkinvent_7_9_3/rearranged_h_0178.sdf

> <i_m_source_file_index>
56

> <r_mmod_Potential_Energy-OPLS-2005>
-207.403961181641

> <r_mmod_Stretch_Energy-OPLS-2005>
54.2279357910156

> <r_mmod_Bend_Energy-OPLS-2005>
127.272193908691

> <r_mmod_Torsional_Energy-OPLS-2005>
274.130187988281

> <r_mmod_Improper_Torsional_Energy-OPLS-2005>
13.4694414138794

> <r_mmod_Van_der_Waal_Energy-OPLS-2005>
158.384979248047

> <r_mmod_Electrostatic_Energy-OPLS-2005>
-622.137329101562

> <r_mmod_Solvation_Energy-OPLS-2005>
-242.383712768555

> <b_mmod_Minimization_Converged-OPLS-2005>
0

> <r_mmod_RMS_Derivative-OPLS-2005>
2.54743790626526

$$$$
56
                    3D
 Structure written by MMmdl.
157165  0  0  1  0            999 V2000
  -30.7125  -14.4456   20.6114 C   0  0  0  0  0  0
  -30.4212  -12.3008   19.4177 C   0  0  0  0  0  0
  -29.4917  -12.5096   18.2049 C   0  0  0  0  0  0
  -28.0130  -12.3705   18.6155 C   0  0  0  0  0  0
  -27.6627  -13.2024   19.8776 C   0  0  2  0  0  0
  -28.7012  -12.9660   20.9969 C   0  0  0  0  0  0
  -25.2590  -13.8152   20.5664 C   0  0  0  0  0  0
  -24.1836  -13.0439   20.9169 C   0  0  0  0  0  0
  -24.6382  -11.6902   20.8727 C   0  0  0  0  0  0
  -23.9050  -10.4288   21.0397 C   0  0  0  0  0  0
  -24.3608   -9.4206   21.9178 C   0  0  0  0  0  0
  -23.6283   -8.2245   22.0754 C   0  0  0  0  0  0
  -22.4267   -8.0277   21.3542 C   0  0  0  0  0  0
  -21.9901   -9.0247   20.4641 C   0  0  0  0  0  0
  -22.7225  -10.2126   20.3045 C   0  0  0  0  0  0
  -21.6852   -6.0732   22.5278 C   0  0  0  0  0  0
  -21.4012   -6.5634   23.8210 C   0  0  0  0  0  0
  -21.3658   -5.6786   24.9172 C   0  0  0  0  0  0
  -21.6047   -4.3051   24.7222 C   0  0  0  0  0  0
  -21.8821   -3.8141   23.4344 C   0  0  0  0  0  0
  -21.9190   -4.6960   22.3399 C   0  0  0  0  0  0
  -22.7859  -13.5243   21.1833 C   0  0  0  0  0  0
  -22.1661   -4.2146   21.0979 F   0  0  0  0  0  0
  -21.5628   -3.4537   25.7735 F   0  0  0  0  0  0
  -30.0359  -13.2746   20.4519 N   0  0  0  0  0  0
  -26.3025  -12.9314   20.3367 N   0  0  0  0  0  0
  -25.9307  -11.6480   20.5763 N   0  0  0  0  0  0
  -22.0501  -12.8225   22.0389 N   0  0  0  0  0  0
  -25.4340  -15.1870   20.4063 N   0  0  0  0  0  0
  -31.8182  -14.6403   20.0959 O   0  0  0  0  0  0
  -21.6639   -6.8871   21.4238 O   0  0  0  0  0  0
  -22.3547  -14.5557   20.6696 O   0  0  0  0  0  0
  -24.6121  -31.8697   23.2117 C   0  0  0  0  0  0
  -25.9028  -32.4827   23.8403 C   0  0  1  0  0  0
  -27.2401  -27.4476   20.1078 C   0  0  0  0  0  0
  -25.5889  -33.8624   24.2345 N   0  0  0  0  0  0
  -23.3996  -30.4910   21.5509 C   0  0  2  0  0  0
  -24.8495  -28.9537   20.1208 C   0  0  0  0  0  0
  -22.7398  -29.4655   22.5008 C   0  0  0  0  0  0
  -18.0267  -28.1390   22.8491 C   0  0  0  0  0  0
  -24.1487  -36.7308   23.2639 C   0  0  0  0  0  0
  -25.9248  -30.8361   21.3647 C   0  0  0  0  0  0
  -26.0047  -29.4669   20.7250 C   0  0  0  0  0  0
  -27.2023  -28.7190   20.7262 C   0  0  0  0  0  0
  -26.0754  -26.9495   19.4913 C   0  0  0  0  0  0
  -24.8772  -27.6901   19.5040 C   0  0  0  0  0  0
  -23.6095  -29.8188   20.1670 C   0  0  0  0  0  0
  -25.4105  -36.3110   24.0338 C   0  0  1  0  0  0
  -20.5855  -28.3652   23.1332 C   0  0  2  0  0  0
  -20.6757  -26.9392   22.5425 C   0  0  0  0  0  0
  -19.5737  -26.6382   21.5223 C   0  0  0  0  0  0
  -18.1908  -26.7935   22.1619 C   0  0  0  0  0  0
  -19.1520  -28.8839   23.2905 C   0  0  0  0  0  0
  -18.9451  -30.1449   23.8910 C   0  0  0  0  0  0
  -17.6456  -30.6593   24.0571 C   0  0  0  0  0  0
  -25.9024  -34.9471   23.5133 C   0  0  0  0  0  0
  -16.5343  -29.9091   23.6346 C   0  0  0  0  0  0
  -16.7256  -28.6516   23.0349 C   0  0  0  0  0  0
  -26.4474  -31.6591   25.0716 C   0  0  0  0  0  0
  -25.3753  -31.3682   26.1472 C   0  0  0  0  0  0
  -27.0305  -30.3041   24.6051 C   0  0  0  0  0  0
  -27.6042  -32.4313   25.7485 C   0  0  0  0  0  0
  -27.5576  -37.1807   24.8465 C   0  0  0  0  0  0
  -21.4127  -29.3025   22.3746 N   0  0  0  0  0  0
  -26.4294  -37.3788   23.9404 N   0  0  0  0  0  0
  -24.6634  -31.0803   22.1013 N   0  0  0  0  0  0
  -23.4184  -28.8211   23.3046 O   0  0  0  0  0  0
  -28.3824  -26.6847   20.0271 O   0  0  0  0  0  0
  -26.5584  -34.8917   22.4696 O   0  0  0  0  0  0
  -23.5322  -32.1451   23.7519 O   0  0  0  0  0  0
  -30.4441  -19.1725   22.0910 C   0  0  0  0  0  0
  -31.6524  -18.6452   21.6813 C   0  0  0  0  0  0
  -30.3624  -16.7711   21.4958 C   0  0  0  0  0  0
  -30.0527  -20.4774   22.6760 C   0  0  0  0  0  0
  -28.8462  -23.7255   21.4435 C   0  0  0  0  0  0
  -27.1799  -22.2821   22.7587 C   0  0  0  0  0  0
  -28.3872  -25.1098   21.9440 C   0  0  0  0  0  0
  -29.0259  -26.3407   21.2563 C   0  0  0  0  0  0
  -28.6603  -22.5439   22.4253 C   0  0  1  0  0  0
  -31.5867  -17.2924   21.3360 N   0  0  0  0  0  0
  -32.8845  -19.2976   21.5905 N   0  0  0  0  0  0
  -30.0351  -15.4006   21.2791 N   0  0  0  0  0  0
  -29.2773  -21.2945   21.9438 N   0  0  0  0  0  0
  -30.4322  -20.7737   23.8113 O   0  0  0  0  0  0
  -29.3197  -23.5841   20.3118 O   0  0  0  0  0  0
  -29.1828  -17.9542   22.0552 S   0  0  0  0  0  0
  -31.4656  -12.3991   19.1159 H   0  0  0  0  0  0
  -30.3218  -11.2855   19.8053 H   0  0  0  0  0  0
  -29.7303  -11.7904   17.4205 H   0  0  0  0  0  0
  -29.6621  -13.4980   17.7751 H   0  0  0  0  0  0
  -27.8194  -11.3131   18.8036 H   0  0  0  0  0  0
  -27.3638  -12.6538   17.7865 H   0  0  0  0  0  0
  -27.7127  -14.2532   19.5904 H   0  0  0  0  0  0
  -28.6736  -11.9249   21.3217 H   0  0  0  0  0  0
  -28.4542  -13.5464   21.8865 H   0  0  0  0  0  0
  -25.2756   -9.5689   22.4747 H   0  0  0  0  0  0
  -23.9997   -7.4640   22.7475 H   0  0  0  0  0  0
  -21.0839   -8.8749   19.8944 H   0  0  0  0  0  0
  -22.3682  -10.9656   19.6149 H   0  0  0  0  0  0
  -21.2003   -7.6142   23.9713 H   0  0  0  0  0  0
  -21.1478   -6.0518   25.9075 H   0  0  0  0  0  0
  -22.0599   -2.7603   23.2843 H   0  0  0  0  0  0
  -22.4113  -11.9876   22.4757 H   0  0  0  0  0  0
  -21.1120  -13.1243   22.2603 H   0  0  0  0  0  0
  -24.6680  -15.8446   20.5035 H   0  0  0  0  0  0
  -26.2839  -15.6191   20.0660 H   0  0  0  0  0  0
  -26.7096  -32.5561   23.1165 H   0  0  0  0  0  0
  -25.0081  -33.9800   25.0513 H   0  0  0  0  0  0
  -22.6871  -31.3063   21.4085 H   0  0  0  0  0  0
  -23.3746  -35.9647   23.3328 H   0  0  0  0  0  0
  -24.3584  -36.8903   22.2052 H   0  0  0  0  0  0
  -23.7237  -37.6515   23.6640 H   0  0  0  0  0  0
  -26.0308  -31.5969   20.5905 H   0  0  0  0  0  0
  -26.8160  -30.8992   21.9765 H   0  0  0  0  0  0
  -28.0938  -29.1243   21.1825 H   0  0  0  0  0  0
  -26.0993  -25.9846   19.0050 H   0  0  0  0  0  0
  -23.9892  -27.2902   19.0333 H   0  0  0  0  0  0
  -23.7118  -30.5914   19.4035 H   0  0  0  0  0  0
  -22.7367  -29.2345   19.8732 H   0  0  0  0  0  0
  -25.1282  -36.1972   25.0827 H   0  0  0  0  0  0
  -20.9941  -28.3220   24.1460 H   0  0  0  0  0  0
  -20.5678  -26.2261   23.3606 H   0  0  0  0  0  0
  -21.6622  -26.7448   22.1203 H   0  0  0  0  0  0
  -19.6898  -25.6305   21.1231 H   0  0  0  0  0  0
  -19.6688  -27.3212   20.6778 H   0  0  0  0  0  0
  -17.4183  -26.6706   21.4014 H   0  0  0  0  0  0
  -18.0285  -26.0070   22.9003 H   0  0  0  0  0  0
  -19.7934  -30.7260   24.2272 H   0  0  0  0  0  0
  -17.5014  -31.6279   24.5161 H   0  0  0  0  0  0
  -15.5343  -30.2994   23.7677 H   0  0  0  0  0  0
  -15.8653  -28.0848   22.7050 H   0  0  0  0  0  0
  -24.5935  -30.7007   25.7830 H   0  0  0  0  0  0
  -24.8931  -32.2833   26.4931 H   0  0  0  0  0  0
  -25.8128  -30.8864   27.0224 H   0  0  0  0  0  0
  -26.2829  -29.6806   24.1128 H   0  0  0  0  0  0
  -27.4135  -29.7265   25.4477 H   0  0  0  0  0  0
  -27.8643  -30.4395   23.9151 H   0  0  0  0  0  0
  -27.2647  -33.3606   26.2078 H   0  0  0  0  0  0
  -28.3853  -32.6891   25.0315 H   0  0  0  0  0  0
  -28.0701  -31.8424   26.5397 H   0  0  0  0  0  0
  -28.2595  -38.0105   24.7510 H   0  0  0  0  0  0
  -28.1072  -36.2633   24.6296 H   0  0  0  0  0  0
  -27.2293  -37.1454   25.8870 H   0  0  0  0  0  0
  -20.9280  -29.8750   21.6977 H   0  0  0  0  0  0
  -26.0190  -38.2867   24.1418 H   0  0  0  0  0  0
  -26.6964  -23.1696   23.1686 H   0  0  0  0  0  0
  -27.0778  -21.4902   23.5021 H   0  0  0  0  0  0
  -26.6184  -21.9816   21.8735 H   0  0  0  0  0  0
  -28.6301  -25.1519   23.0055 H   0  0  0  0  0  0
  -27.3010  -25.1691   21.8830 H   0  0  0  0  0  0
  -30.0775  -26.1441   21.0430 H   0  0  0  0  0  0
  -29.0271  -27.1828   21.9481 H   0  0  0  0  0  0
  -29.1467  -22.8459   23.3539 H   0  0  0  0  0  0
  -33.0176  -20.2301   21.9673 H   0  0  0  0  0  0
  -33.7376  -18.7789   21.4098 H   0  0  0  0  0  0
  -29.1239  -15.1173   21.6027 H   0  0  0  0  0  0
  -29.0734  -21.0313   20.9895 H   0  0  0  0  0  0
  1 25  1  0  0  0
  1 30  2  0  0  0
  1 82  1  0  0  0
  2  3  1  0  0  0
  2 25  1  0  0  0
  2 87  1  0  0  0
  2 88  1  0  0  0
  3  4  1  0  0  0
  3 89  1  0  0  0
  3 90  1  0  0  0
  4  5  1  0  0  0
  4 91  1  0  0  0
  4 92  1  0  0  0
  5  6  1  0  0  0
  5 26  1  0  0  0
  5 93  1  0  0  0
  6 25  1  0  0  0
  6 94  1  0  0  0
  6 95  1  0  0  0
  7  8  2  0  0  0
  7 26  1  0  0  0
  7 29  1  0  0  0
  8  9  1  0  0  0
  8 22  1  0  0  0
  9 10  1  0  0  0
  9 27  2  0  0  0
 10 11  2  0  0  0
 10 15  1  0  0  0
 11 12  1  0  0  0
 11 96  1  0  0  0
 12 13  2  0  0  0
 12 97  1  0  0  0
 13 14  1  0  0  0
 13 31  1  0  0  0
 14 15  2  0  0  0
 14 98  1  0  0  0
 15 99  1  0  0  0
 16 17  2  0  0  0
 16 21  1  0  0  0
 16 31  1  0  0  0
 17 18  1  0  0  0
 17100  1  0  0  0
 18 19  2  0  0  0
 18101  1  0  0  0
 19 20  1  0  0  0
 19 24  1  0  0  0
 20 21  2  0  0  0
 20102  1  0  0  0
 21 23  1  0  0  0
 22 28  1  0  0  0
 22 32  2  0  0  0
 26 27  1  0  0  0
 28103  1  0  0  0
 28104  1  0  0  0
 29105  1  0  0  0
 29106  1  0  0  0
 33 34  1  0  0  0
 33 66  1  0  0  0
 33 70  2  0  0  0
 34 36  1  0  0  0
 34 59  1  0  0  0
 34107  1  0  0  0
 35 44  2  0  0  0
 35 45  1  0  0  0
 35 68  1  0  0  0
 36 56  1  0  0  0
 36108  1  0  0  0
 37 39  1  0  0  0
 37 47  1  0  0  0
 37 66  1  0  0  0
 37109  1  0  0  0
 38 43  2  0  0  0
 38 46  1  0  0  0
 38 47  1  0  0  0
 39 64  1  0  0  0
 39 67  2  0  0  0
 40 52  1  0  0  0
 40 53  2  0  0  0
 40 58  1  0  0  0
 41110  1  0  0  0
 41111  1  0  0  0
 41112  1  0  0  0
 41 48  1  0  0  0
 42 43  1  0  0  0
 42 66  1  0  0  0
 42113  1  0  0  0
 42114  1  0  0  0
 43 44  1  0  0  0
 44115  1  0  0  0
 45 46  2  0  0  0
 45116  1  0  0  0
 46117  1  0  0  0
 47118  1  0  0  0
 47119  1  0  0  0
 48 56  1  0  0  0
 48 65  1  0  0  0
 48120  1  0  0  0
 49 50  1  0  0  0
 49 53  1  0  0  0
 49 64  1  0  0  0
 49121  1  0  0  0
 50 51  1  0  0  0
 50122  1  0  0  0
 50123  1  0  0  0
 51 52  1  0  0  0
 51124  1  0  0  0
 51125  1  0  0  0
 52126  1  0  0  0
 52127  1  0  0  0
 53 54  1  0  0  0
 54 55  2  0  0  0
 54128  1  0  0  0
 55 57  1  0  0  0
 55129  1  0  0  0
 56 69  2  0  0  0
 57 58  2  0  0  0
 57130  1  0  0  0
 58131  1  0  0  0
 59 60  1  0  0  0
 59 61  1  0  0  0
 59 62  1  0  0  0
 60132  1  0  0  0
 60133  1  0  0  0
 60134  1  0  0  0
 61135  1  0  0  0
 61136  1  0  0  0
 61137  1  0  0  0
 62138  1  0  0  0
 62139  1  0  0  0
 62140  1  0  0  0
 63 65  1  0  0  0
 63141  1  0  0  0
 63142  1  0  0  0
 63143  1  0  0  0
 64144  1  0  0  0
 65145  1  0  0  0
 68 78  1  0  0  0
 71 72  2  0  0  0
 71 74  1  0  0  0
 71 86  1  0  0  0
 72 80  1  0  0  0
 72 81  1  0  0  0
 73 80  2  0  0  0
 73 82  1  0  0  0
 73 86  1  0  0  0
 74 83  1  0  0  0
 74 84  2  0  0  0
 75 77  1  0  0  0
 75 79  1  0  0  0
 75 85  2  0  0  0
 76146  1  0  0  0
 76147  1  0  0  0
 76148  1  0  0  0
 76 79  1  0  0  0
 77 78  1  0  0  0
 77149  1  0  0  0
 77150  1  0  0  0
 78151  1  0  0  0
 78152  1  0  0  0
 79 83  1  0  0  0
 79153  1  0  0  0
 81154  1  0  0  0
 81155  1  0  0  0
 82156  1  0  0  0
 83157  1  0  0  0
M  ISO  4   1 100  68 101  78 101  82 100
M  END
> <chiral flag>
0

> <version>
0

> <s_m_source_file>
/data/baiqing/PycharmProjects/Reinvent-master-3.2/result/LINK_invent/BTK/process_docking_weight1_custom_product_contain_oxygen_bond_distance_aromatic_linkinvent_7_9_3/rearranged_h_0178.sdf

> <i_m_source_file_index>
57

> <r_mmod_Potential_Energy-OPLS-2005>
-225.952758789062

> <r_mmod_Stretch_Energy-OPLS-2005>
34.5930252075195

> <r_mmod_Bend_Energy-OPLS-2005>
109.312049865723

> <r_mmod_Torsional_Energy-OPLS-2005>
247.883056640625

> <r_mmod_Improper_Torsional_Energy-OPLS-2005>
4.10804319381714

> <r_mmod_Van_der_Waal_Energy-OPLS-2005>
127.598495483398

> <r_mmod_Electrostatic_Energy-OPLS-2005>
-486.936218261719

> <r_mmod_Solvation_Energy-OPLS-2005>
-271.571411132812

> <b_mmod_Minimization_Converged-OPLS-2005>
0

> <r_mmod_RMS_Derivative-OPLS-2005>
1.53156042098999

$$$$
57
                    3D
 Structure written by MMmdl.
169178  0  0  1  0            999 V2000
  -30.4443  -15.2368   20.4065 C   0  0  0  0  0  0
  -30.4411  -12.7802   19.5436 C   0  0  0  0  0  0
  -29.5427  -12.5877   18.2946 C   0  0  0  0  0  0
  -28.0854  -12.3137   18.7033 C   0  0  0  0  0  0
  -27.6155  -13.2754   19.8206 C   0  0  2  0  0  0
  -28.6402  -13.4213   20.9618 C   0  0  0  0  0  0
  -25.2411  -13.8255   20.5710 C   0  0  0  0  0  0
  -24.1759  -13.0447   20.9231 C   0  0  0  0  0  0
  -24.6416  -11.6942   20.8737 C   0  0  0  0  0  0
  -23.9111  -10.4298   21.0398 C   0  0  0  0  0  0
  -24.3656   -9.4213   21.9181 C   0  0  0  0  0  0
  -23.6319   -8.2252   22.0756 C   0  0  0  0  0  0
  -22.4297   -8.0291   21.3545 C   0  0  0  0  0  0
  -21.9940   -9.0266   20.4647 C   0  0  0  0  0  0
  -22.7279  -10.2140   20.3051 C   0  0  0  0  0  0
  -21.6859   -6.0743   22.5277 C   0  0  0  0  0  0
  -21.4013   -6.5643   23.8210 C   0  0  0  0  0  0
  -21.3666   -5.6794   24.9172 C   0  0  0  0  0  0
  -21.6049   -4.3056   24.7221 C   0  0  0  0  0  0
  -21.8820   -3.8149   23.4341 C   0  0  0  0  0  0
  -21.9196   -4.6969   22.3399 C   0  0  0  0  0  0
  -22.7777  -13.5194   21.1895 C   0  0  0  0  0  0
  -22.1666   -4.2155   21.0976 F   0  0  0  0  0  0
  -21.5636   -3.4542   25.7736 F   0  0  0  0  0  0
  -29.8978  -13.9183   20.3752 N   0  0  0  0  0  0
  -26.2830  -12.9529   20.3155 N   0  0  0  0  0  0
  -25.9343  -11.6633   20.5658 N   0  0  0  0  0  0
  -22.0448  -12.8163   22.0452 N   0  0  0  0  0  0
  -25.4069  -15.1995   20.4183 N   0  0  0  0  0  0
  -31.6302  -15.2395   20.0417 O   0  0  0  0  0  0
  -21.6651   -6.8893   21.4241 O   0  0  0  0  0  0
  -22.3450  -14.5497   20.6748 O   0  0  0  0  0  0
  -24.6604  -31.8259   23.1724 C   0  0  0  0  0  0
  -25.9295  -32.4599   23.8181 C   0  0  1  0  0  0
  -27.2152  -26.9446   20.1845 C   0  0  0  0  0  0
  -25.5973  -33.8416   24.2090 N   0  0  0  0  0  0
  -23.4736  -30.4382   21.5225 C   0  0  2  0  0  0
  -24.9249  -28.8264   20.1170 C   0  0  0  0  0  0
  -22.7651  -29.4456   22.4805 C   0  0  0  0  0  0
  -18.0317  -28.1412   22.8472 C   0  0  0  0  0  0
  -24.1492  -36.7211   23.2647 C   0  0  0  0  0  0
  -26.0417  -30.6373   21.4004 C   0  0  0  0  0  0
  -26.1092  -29.2282   20.7471 C   0  0  0  0  0  0
  -27.2509  -28.3093   20.7534 C   0  0  0  0  0  0
  -26.0013  -26.6902   19.5085 C   0  0  0  0  0  0
  -24.8944  -27.5767   19.4787 C   0  0  0  0  0  0
  -23.7116  -29.7540   20.1494 C   0  0  0  0  0  0
  -25.4132  -36.2977   24.0302 C   0  0  1  0  0  0
  -20.5939  -28.3754   23.1201 C   0  0  2  0  0  0
  -20.6803  -26.9439   22.5409 C   0  0  0  0  0  0
  -19.5776  -26.6382   21.5222 C   0  0  0  0  0  0
  -18.1954  -26.7946   22.1624 C   0  0  0  0  0  0
  -19.1577  -28.8903   23.2824 C   0  0  0  0  0  0
  -18.9488  -30.1494   23.8855 C   0  0  0  0  0  0
  -17.6482  -30.6604   24.0556 C   0  0  0  0  0  0
  -25.9099  -34.9359   23.5019 C   0  0  0  0  0  0
  -16.5373  -29.9090   23.6349 C   0  0  0  0  0  0
  -16.7298  -28.6511   23.0367 C   0  0  0  0  0  0
  -26.4555  -31.6533   25.0701 C   0  0  0  0  0  0
  -25.3683  -31.3780   26.1357 C   0  0  0  0  0  0
  -27.0454  -30.2901   24.6423 C   0  0  0  0  0  0
  -27.6048  -32.4338   25.7501 C   0  0  0  0  0  0
  -27.5573  -37.1761   24.8465 C   0  0  0  0  0  0
  -21.4325  -29.3043   22.3549 N   0  0  0  0  0  0
  -26.4283  -37.3708   23.9409 N   0  0  0  0  0  0
  -24.7465  -30.9939   22.0854 N   0  0  0  0  0  0
  -23.4208  -28.8032   23.3045 O   0  0  0  0  0  0
  -28.2364  -25.8623   20.2223 O   0  0  0  0  0  0
  -26.5711  -34.8886   22.4616 O   0  0  0  0  0  0
  -23.5680  -32.1225   23.6831 O   0  0  0  0  0  0
  -31.5274  -18.7066   23.7609 C   0  0  0  0  0  0
  -31.1753  -16.4258   24.4524 C   0  0  0  0  0  0
  -30.7789  -18.5427   22.5570 C   0  0  0  0  0  0
  -30.3445  -17.1982   22.2549 C   0  0  0  0  0  0
  -31.7350  -17.6788   24.6867 C   0  0  0  0  0  0
  -30.4825  -16.1935   23.2586 C   0  0  0  0  0  0
  -28.7699  -21.0387   20.1141 C   0  0  0  0  0  0
  -29.4665  -18.2871   20.0547 C   0  0  0  0  0  0
  -29.7371  -16.7780   20.9046 C   0  0  1  0  0  0
  -30.5272  -19.8737   21.7354 C   0  0  1  0  0  0
  -29.9564  -20.8836   22.7922 C   0  0  0  0  0  0
  -30.4713  -23.2506   20.2085 C   0  0  0  0  0  0
  -31.9357  -20.3608   21.2439 C   0  0  0  0  0  0
  -27.9941  -24.2342   20.3195 C   0  0  0  0  0  0
  -29.0230  -22.8003   19.9765 C   0  0  2  0  0  0
  -32.5077  -19.7718   19.9392 C   0  0  0  0  0  0
  -29.5356  -19.8385   20.5969 N   0  0  0  0  0  0
  -27.7335  -20.7327   19.5155 O   0  0  0  0  0  0
  -28.9311  -22.9420   18.5681 O   0  0  0  0  0  0
  -32.4469  -17.9120   25.8151 F   0  0  0  0  0  0
  -29.9367  -14.9672   23.1087 F   0  0  0  0  0  0
  -32.5848  -18.4444   20.0060 F   0  0  0  0  0  0
  -33.7396  -20.2489   19.7631 F   0  0  0  0  0  0
  -31.7833  -20.1238   18.8771 F   0  0  0  0  0  0
  -31.4666  -12.9635   19.2233 H   0  0  0  0  0  0
  -30.4844  -11.8615   20.1308 H   0  0  0  0  0  0
  -29.9178  -11.7725   17.6750 H   0  0  0  0  0  0
  -29.5873  -13.4870   17.6785 H   0  0  0  0  0  0
  -28.0269  -11.2837   19.0557 H   0  0  0  0  0  0
  -27.4257  -12.3803   17.8373 H   0  0  0  0  0  0
  -27.5413  -14.2515   19.3409 H   0  0  0  0  0  0
  -28.7849  -12.4795   21.4928 H   0  0  0  0  0  0
  -28.2548  -14.1312   21.6921 H   0  0  0  0  0  0
  -25.2801   -9.5685   22.4757 H   0  0  0  0  0  0
  -24.0026   -7.4639   22.7474 H   0  0  0  0  0  0
  -21.0872   -8.8794   19.8948 H   0  0  0  0  0  0
  -22.3742  -10.9685   19.6161 H   0  0  0  0  0  0
  -21.1998   -7.6148   23.9713 H   0  0  0  0  0  0
  -21.1492   -6.0524   25.9077 H   0  0  0  0  0  0
  -22.0594   -2.7610   23.2838 H   0  0  0  0  0  0
  -22.4091  -11.9834   22.4835 H   0  0  0  0  0  0
  -21.1064  -13.1160   22.2661 H   0  0  0  0  0  0
  -24.6403  -15.8522   20.5400 H   0  0  0  0  0  0
  -26.2535  -15.6438   20.0893 H   0  0  0  0  0  0
  -26.7359  -32.5144   23.0893 H   0  0  0  0  0  0
  -25.0063  -33.9503   25.0202 H   0  0  0  0  0  0
  -22.7851  -31.2689   21.3540 H   0  0  0  0  0  0
  -23.3772  -35.9524   23.3276 H   0  0  0  0  0  0
  -24.3572  -36.8892   22.2070 H   0  0  0  0  0  0
  -23.7227  -37.6380   23.6724 H   0  0  0  0  0  0
  -26.2193  -31.3777   20.6195 H   0  0  0  0  0  0
  -26.9030  -30.6949   22.0542 H   0  0  0  0  0  0
  -28.1507  -28.6173   21.2673 H   0  0  0  0  0  0
  -25.8776  -25.7431   19.0052 H   0  0  0  0  0  0
  -23.9945  -27.2640   18.9670 H   0  0  0  0  0  0
  -23.8658  -30.5226   19.3907 H   0  0  0  0  0  0
  -22.8207  -29.2083   19.8331 H   0  0  0  0  0  0
  -25.1326  -36.1781   25.0793 H   0  0  0  0  0  0
  -21.0022  -28.3362   24.1327 H   0  0  0  0  0  0
  -20.5704  -26.2369   23.3644 H   0  0  0  0  0  0
  -21.6665  -26.7435   22.1201 H   0  0  0  0  0  0
  -19.6940  -25.6282   21.1282 H   0  0  0  0  0  0
  -19.6719  -27.3170   20.6733 H   0  0  0  0  0  0
  -17.4227  -26.6690   21.4023 H   0  0  0  0  0  0
  -18.0346  -26.0097   22.9027 H   0  0  0  0  0  0
  -19.7960  -30.7326   24.2204 H   0  0  0  0  0  0
  -17.5031  -31.6279   24.5166 H   0  0  0  0  0  0
  -15.5373  -30.2977   23.7701 H   0  0  0  0  0  0
  -15.8696  -28.0816   22.7109 H   0  0  0  0  0  0
  -24.5878  -30.7118   25.7659 H   0  0  0  0  0  0
  -24.8860  -32.2985   26.4656 H   0  0  0  0  0  0
  -25.7913  -30.9024   27.0215 H   0  0  0  0  0  0
  -26.3124  -29.6573   24.1408 H   0  0  0  0  0  0
  -27.3970  -29.7263   25.5074 H   0  0  0  0  0  0
  -27.9067  -30.4085   23.9847 H   0  0  0  0  0  0
  -27.2618  -33.3679   26.1958 H   0  0  0  0  0  0
  -28.3919  -32.6833   25.0373 H   0  0  0  0  0  0
  -28.0648  -31.8547   26.5517 H   0  0  0  0  0  0
  -28.2564  -38.0081   24.7523 H   0  0  0  0  0  0
  -28.1097  -36.2609   24.6280 H   0  0  0  0  0  0
  -27.2297  -37.1384   25.8870 H   0  0  0  0  0  0
  -20.9578  -29.8708   21.6656 H   0  0  0  0  0  0
  -26.0135  -38.2769   24.1419 H   0  0  0  0  0  0
  -31.9681  -19.6527   24.0313 H   0  0  0  0  0  0
  -31.2868  -15.6359   25.1790 H   0  0  0  0  0  0
  -28.4815  -18.1869   19.5991 H   0  0  0  0  0  0
  -30.1320  -18.2576   19.1937 H   0  0  0  0  0  0
  -28.7267  -16.4710   21.1739 H   0  0  0  0  0  0
  -30.6654  -21.1626   23.5677 H   0  0  0  0  0  0
  -29.0867  -20.4569   23.2940 H   0  0  0  0  0  0
  -29.6335  -21.8419   22.4063 H   0  0  0  0  0  0
  -30.7453  -23.2790   21.2606 H   0  0  0  0  0  0
  -30.6155  -24.2697   19.8459 H   0  0  0  0  0  0
  -31.1762  -22.6380   19.6491 H   0  0  0  0  0  0
  -32.6863  -20.1900   22.0123 H   0  0  0  0  0  0
  -31.9594  -21.4358   21.1618 H   0  0  0  0  0  0
  -27.7273  -24.1106   21.3692 H   0  0  0  0  0  0
  -27.0504  -24.0475   19.8083 H   0  0  0  0  0  0
  -28.1793  -22.4082   18.3194 H   0  0  0  0  0  0
  1 25  1  0  0  0
  1 30  2  0  0  0
  1 79  1  0  0  0
  2  3  1  0  0  0
  2 25  1  0  0  0
  2 95  1  0  0  0
  2 96  1  0  0  0
  3  4  1  0  0  0
  3 97  1  0  0  0
  3 98  1  0  0  0
  4  5  1  0  0  0
  4 99  1  0  0  0
  4100  1  0  0  0
  5  6  1  0  0  0
  5 26  1  0  0  0
  5101  1  0  0  0
  6 25  1  0  0  0
  6102  1  0  0  0
  6103  1  0  0  0
  7  8  2  0  0  0
  7 26  1  0  0  0
  7 29  1  0  0  0
  8  9  1  0  0  0
  8 22  1  0  0  0
  9 10  1  0  0  0
  9 27  2  0  0  0
 10 11  2  0  0  0
 10 15  1  0  0  0
 11 12  1  0  0  0
 11104  1  0  0  0
 12 13  2  0  0  0
 12105  1  0  0  0
 13 14  1  0  0  0
 13 31  1  0  0  0
 14 15  2  0  0  0
 14106  1  0  0  0
 15107  1  0  0  0
 16 17  2  0  0  0
 16 21  1  0  0  0
 16 31  1  0  0  0
 17 18  1  0  0  0
 17108  1  0  0  0
 18 19  2  0  0  0
 18109  1  0  0  0
 19 20  1  0  0  0
 19 24  1  0  0  0
 20 21  2  0  0  0
 20110  1  0  0  0
 21 23  1  0  0  0
 22 28  1  0  0  0
 22 32  2  0  0  0
 26 27  1  0  0  0
 28111  1  0  0  0
 28112  1  0  0  0
 29113  1  0  0  0
 29114  1  0  0  0
 33 34  1  0  0  0
 33 66  1  0  0  0
 33 70  2  0  0  0
 34 36  1  0  0  0
 34 59  1  0  0  0
 34115  1  0  0  0
 35 44  2  0  0  0
 35 45  1  0  0  0
 35 68  1  0  0  0
 36 56  1  0  0  0
 36116  1  0  0  0
 37 39  1  0  0  0
 37 47  1  0  0  0
 37 66  1  0  0  0
 37117  1  0  0  0
 38 43  2  0  0  0
 38 46  1  0  0  0
 38 47  1  0  0  0
 39 64  1  0  0  0
 39 67  2  0  0  0
 40 52  1  0  0  0
 40 53  2  0  0  0
 40 58  1  0  0  0
 41118  1  0  0  0
 41119  1  0  0  0
 41120  1  0  0  0
 41 48  1  0  0  0
 42 43  1  0  0  0
 42 66  1  0  0  0
 42121  1  0  0  0
 42122  1  0  0  0
 43 44  1  0  0  0
 44123  1  0  0  0
 45 46  2  0  0  0
 45124  1  0  0  0
 46125  1  0  0  0
 47126  1  0  0  0
 47127  1  0  0  0
 48 56  1  0  0  0
 48 65  1  0  0  0
 48128  1  0  0  0
 49 50  1  0  0  0
 49 53  1  0  0  0
 49 64  1  0  0  0
 49129  1  0  0  0
 50 51  1  0  0  0
 50130  1  0  0  0
 50131  1  0  0  0
 51 52  1  0  0  0
 51132  1  0  0  0
 51133  1  0  0  0
 52134  1  0  0  0
 52135  1  0  0  0
 53 54  1  0  0  0
 54 55  2  0  0  0
 54136  1  0  0  0
 55 57  1  0  0  0
 55137  1  0  0  0
 56 69  2  0  0  0
 57 58  2  0  0  0
 57138  1  0  0  0
 58139  1  0  0  0
 59 60  1  0  0  0
 59 61  1  0  0  0
 59 62  1  0  0  0
 60140  1  0  0  0
 60141  1  0  0  0
 60142  1  0  0  0
 61143  1  0  0  0
 61144  1  0  0  0
 61145  1  0  0  0
 62146  1  0  0  0
 62147  1  0  0  0
 62148  1  0  0  0
 63 65  1  0  0  0
 63149  1  0  0  0
 63150  1  0  0  0
 63151  1  0  0  0
 64152  1  0  0  0
 65153  1  0  0  0
 68 84  1  0  0  0
 71 73  2  0  0  0
 71 75  1  0  0  0
 71154  1  0  0  0
 72 75  2  0  0  0
 72 76  1  0  0  0
 72155  1  0  0  0
 73 74  1  0  0  0
 73 80  1  0  0  0
 74 76  2  0  0  0
 74 79  1  0  0  0
 75 90  1  0  0  0
 76 91  1  0  0  0
 77 87  1  0  0  0
 77 88  2  0  0  0
 77 85  1  0  0  0
 78 79  1  0  0  0
 78 87  1  0  0  0
 78156  1  0  0  0
 78157  1  0  0  0
 79158  1  0  0  0
 80 81  1  0  0  0
 80 83  1  0  0  0
 80 87  1  0  0  0
 81159  1  0  0  0
 81160  1  0  0  0
 81161  1  0  0  0
 82162  1  0  0  0
 82163  1  0  0  0
 82164  1  0  0  0
 82 85  1  0  0  0
 83 86  1  0  0  0
 83165  1  0  0  0
 83166  1  0  0  0
 84 85  1  0  0  0
 84167  1  0  0  0
 84168  1  0  0  0
 85 89  1  0  0  0
 86 92  1  0  0  0
 86 93  1  0  0  0
 86 94  1  0  0  0
 89169  1  0  0  0
M  ISO  4   1 100  68 101  79 100  84 101
M  END
> <chiral flag>
0

> <version>
0

> <s_m_source_file>
/data/baiqing/PycharmProjects/Reinvent-master-3.2/result/LINK_invent/BTK/process_docking_weight1_custom_product_contain_oxygen_bond_distance_aromatic_linkinvent_7_9_3/rearranged_h_0178.sdf

> <i_m_source_file_index>
58

> <r_mmod_Potential_Energy-OPLS-2005>
1466.3359375

> <r_mmod_Stretch_Energy-OPLS-2005>
631.252319335938

> <r_mmod_Bend_Energy-OPLS-2005>
501.341247558594

> <r_mmod_Torsional_Energy-OPLS-2005>
297.179901123047

> <r_mmod_Improper_Torsional_Energy-OPLS-2005>
4.02951097488403

> <r_mmod_Van_der_Waal_Energy-OPLS-2005>
166.079437255859

> <r_mmod_Electrostatic_Energy-OPLS-2005>
-337.829345703125

> <r_mmod_Solvation_Energy-OPLS-2005>
-215.110900878906

> <b_mmod_Minimization_Converged-OPLS-2005>
0

> <r_mmod_RMS_Derivative-OPLS-2005>
0.990731060504913

$$$$
58
                    3D
 Structure written by MMmdl.
152160  0  0  1  0            999 V2000
  -30.6838  -14.5112   20.4652 C   0  0  0  0  0  0
  -30.4095  -12.3071   19.4299 C   0  0  0  0  0  0
  -29.4863  -12.4902   18.2070 C   0  0  0  0  0  0
  -28.0093  -12.3423   18.6214 C   0  0  0  0  0  0
  -27.6481  -13.2078   19.8590 C   0  0  2  0  0  0
  -28.6925  -13.0381   20.9856 C   0  0  0  0  0  0
  -25.2533  -13.8156   20.5684 C   0  0  0  0  0  0
  -24.1795  -13.0437   20.9182 C   0  0  0  0  0  0
  -24.6347  -11.6896   20.8732 C   0  0  0  0  0  0
  -23.9024  -10.4291   21.0401 C   0  0  0  0  0  0
  -24.3585   -9.4215   21.9190 C   0  0  0  0  0  0
  -23.6278   -8.2239   22.0753 C   0  0  0  0  0  0
  -22.4267   -8.0261   21.3540 C   0  0  0  0  0  0
  -21.9900   -9.0220   20.4629 C   0  0  0  0  0  0
  -22.7207  -10.2105   20.3043 C   0  0  0  0  0  0
  -21.6851   -6.0727   22.5287 C   0  0  0  0  0  0
  -21.4011   -6.5632   23.8213 C   0  0  0  0  0  0
  -21.3654   -5.6791   24.9177 C   0  0  0  0  0  0
  -21.6048   -4.3060   24.7248 C   0  0  0  0  0  0
  -21.8810   -3.8139   23.4366 C   0  0  0  0  0  0
  -21.9188   -4.6950   22.3416 C   0  0  0  0  0  0
  -22.7820  -13.5213   21.1888 C   0  0  0  0  0  0
  -22.1662   -4.2132   21.0997 F   0  0  0  0  0  0
  -21.5625   -3.4557   25.7762 F   0  0  0  0  0  0
  -30.0189  -13.3239   20.4175 N   0  0  0  0  0  0
  -26.2937  -12.9320   20.3283 N   0  0  0  0  0  0
  -25.9266  -11.6486   20.5723 N   0  0  0  0  0  0
  -22.0486  -12.8143   22.0410 N   0  0  0  0  0  0
  -25.4319  -15.1871   20.4108 N   0  0  0  0  0  0
  -31.8753  -14.5951   20.1541 O   0  0  0  0  0  0
  -21.6630   -6.8858   21.4235 O   0  0  0  0  0  0
  -22.3506  -14.5564   20.6791 O   0  0  0  0  0  0
  -24.6212  -31.8645   23.2055 C   0  0  0  0  0  0
  -25.9098  -32.4804   23.8362 C   0  0  1  0  0  0
  -27.2395  -27.4232   20.0852 C   0  0  0  0  0  0
  -25.5972  -33.8599   24.2323 N   0  0  0  0  0  0
  -23.4076  -30.4899   21.5445 C   0  0  2  0  0  0
  -24.8518  -28.9530   20.1142 C   0  0  0  0  0  0
  -22.7450  -29.4635   22.4945 C   0  0  0  0  0  0
  -18.0284  -28.1366   22.8465 C   0  0  0  0  0  0
  -24.1498  -36.7278   23.2622 C   0  0  0  0  0  0
  -25.9358  -30.8356   21.3498 C   0  0  0  0  0  0
  -26.0130  -29.4673   20.6990 C   0  0  0  0  0  0
  -27.2065  -28.7114   20.6724 C   0  0  0  0  0  0
  -26.0409  -26.9023   19.5421 C   0  0  0  0  0  0
  -24.8605  -27.6717   19.5390 C   0  0  0  0  0  0
  -23.6164  -29.8233   20.1592 C   0  0  0  0  0  0
  -25.4105  -36.3072   24.0335 C   0  0  1  0  0  0
  -20.5891  -28.3639   23.1307 C   0  0  2  0  0  0
  -20.6778  -26.9367   22.5392 C   0  0  0  0  0  0
  -19.5754  -26.6370   21.5186 C   0  0  0  0  0  0
  -18.1929  -26.7916   22.1575 C   0  0  0  0  0  0
  -19.1539  -28.8818   23.2879 C   0  0  0  0  0  0
  -18.9473  -30.1432   23.8879 C   0  0  0  0  0  0
  -17.6480  -30.6558   24.0563 C   0  0  0  0  0  0
  -25.9045  -34.9455   23.5105 C   0  0  0  0  0  0
  -16.5370  -29.9051   23.6333 C   0  0  0  0  0  0
  -16.7279  -28.6488   23.0301 C   0  0  0  0  0  0
  -26.4521  -31.6575   25.0684 C   0  0  0  0  0  0
  -25.3785  -31.3650   26.1419 C   0  0  0  0  0  0
  -27.0376  -30.3053   24.5985 C   0  0  0  0  0  0
  -27.6068  -32.4293   25.7521 C   0  0  0  0  0  0
  -27.5593  -37.1778   24.8436 C   0  0  0  0  0  0
  -21.4166  -29.3048   22.3762 N   0  0  0  0  0  0
  -26.4259  -37.3779   23.9447 N   0  0  0  0  0  0
  -24.6733  -31.0768   22.0938 N   0  0  0  0  0  0
  -23.4242  -28.8145   23.2939 O   0  0  0  0  0  0
  -28.4474  -26.7502   20.0926 O   0  0  0  0  0  0
  -26.5560  -34.8920   22.4650 O   0  0  0  0  0  0
  -23.5405  -32.1383   23.7459 O   0  0  0  0  0  0
  -31.3531  -18.7443   19.4388 C   0  0  0  0  0  0
  -30.2545  -19.4415   19.8924 C   0  0  0  0  0  0
  -30.1929  -16.9719   20.3121 C   0  0  0  0  0  0
  -29.5824  -23.1204   19.7900 C   0  0  0  0  0  0
  -29.2367  -21.6737   20.2723 C   0  0  0  0  0  0
  -32.5665  -19.3245   18.7685 C   0  0  0  0  0  0
  -28.8376  -24.3209   20.4082 C   0  0  0  0  0  0
  -28.6422  -25.5007   19.4063 C   0  0  0  0  0  0
  -31.3027  -17.3659   19.6761 N   0  0  0  0  0  0
  -30.1175  -20.7940   19.7590 N   0  0  0  0  0  0
  -29.9101  -15.6066   20.6591 N   0  0  0  0  0  0
  -30.4736  -23.3057   18.9494 O   0  0  0  0  0  0
  -28.2919  -21.4001   21.0218 O   0  0  0  0  0  0
  -29.0975  -18.3261   20.6272 S   0  0  0  0  0  0
  -31.4557  -12.3910   19.1296 H   0  0  0  0  0  0
  -30.3001  -11.3081   19.8527 H   0  0  0  0  0  0
  -29.7359  -11.7637   17.4331 H   0  0  0  0  0  0
  -29.6420  -13.4749   17.7629 H   0  0  0  0  0  0
  -27.8335  -11.2882   18.8437 H   0  0  0  0  0  0
  -27.3532  -12.5894   17.7847 H   0  0  0  0  0  0
  -27.6748  -14.2451   19.5282 H   0  0  0  0  0  0
  -28.6679  -12.0169   21.3700 H   0  0  0  0  0  0
  -28.4635  -13.6823   21.8353 H   0  0  0  0  0  0
  -25.2717   -9.5701   22.4753 H   0  0  0  0  0  0
  -23.9999   -7.4643   22.7465 H   0  0  0  0  0  0
  -21.0841   -8.8698   19.8924 H   0  0  0  0  0  0
  -22.3661  -10.9623   19.6132 H   0  0  0  0  0  0
  -21.1999   -7.6143   23.9710 H   0  0  0  0  0  0
  -21.1483   -6.0529   25.9064 H   0  0  0  0  0  0
  -22.0590   -2.7606   23.2885 H   0  0  0  0  0  0
  -22.4107  -11.9733   22.4644 H   0  0  0  0  0  0
  -21.1095  -13.1097   22.2669 H   0  0  0  0  0  0
  -24.6731  -15.8494   20.5197 H   0  0  0  0  0  0
  -26.2818  -15.6160   20.0690 H   0  0  0  0  0  0
  -26.7183  -32.5521   23.1140 H   0  0  0  0  0  0
  -25.0310  -33.9775   25.0594 H   0  0  0  0  0  0
  -22.6959  -31.3057   21.4000 H   0  0  0  0  0  0
  -23.3794  -35.9563   23.3163 H   0  0  0  0  0  0
  -24.3648  -36.8997   22.2066 H   0  0  0  0  0  0
  -23.7189  -37.6424   23.6702 H   0  0  0  0  0  0
  -26.0367  -31.6014   20.5787 H   0  0  0  0  0  0
  -26.8316  -30.9042   21.9552 H   0  0  0  0  0  0
  -28.1149  -29.1132   21.1009 H   0  0  0  0  0  0
  -25.9779  -25.9005   19.1432 H   0  0  0  0  0  0
  -23.9533  -27.2644   19.1126 H   0  0  0  0  0  0
  -23.7249  -30.5943   19.3961 H   0  0  0  0  0  0
  -22.7424  -29.2427   19.8605 H   0  0  0  0  0  0
  -25.1261  -36.1908   25.0816 H   0  0  0  0  0  0
  -20.9979  -28.3159   24.1414 H   0  0  0  0  0  0
  -20.5675  -26.2211   23.3557 H   0  0  0  0  0  0
  -21.6645  -26.7385   22.1181 H   0  0  0  0  0  0
  -19.6917  -25.6277   21.1185 H   0  0  0  0  0  0
  -19.6721  -27.3196   20.6741 H   0  0  0  0  0  0
  -17.4211  -26.6705   21.3952 H   0  0  0  0  0  0
  -18.0279  -26.0015   22.8932 H   0  0  0  0  0  0
  -19.7955  -30.7273   24.2195 H   0  0  0  0  0  0
  -17.5025  -31.6227   24.5161 H   0  0  0  0  0  0
  -15.5366  -30.2953   23.7674 H   0  0  0  0  0  0
  -15.8672  -28.0854   22.6958 H   0  0  0  0  0  0
  -24.6073  -30.6843   25.7793 H   0  0  0  0  0  0
  -24.8845  -32.2776   26.4758 H   0  0  0  0  0  0
  -25.8171  -30.8965   27.0240 H   0  0  0  0  0  0
  -26.2906  -29.6803   24.1072 H   0  0  0  0  0  0
  -27.4290  -29.7269   25.4368 H   0  0  0  0  0  0
  -27.8645  -30.4454   23.9017 H   0  0  0  0  0  0
  -27.2697  -33.3661   26.1978 H   0  0  0  0  0  0
  -28.4003  -32.6728   25.0441 H   0  0  0  0  0  0
  -28.0561  -31.8451   26.5563 H   0  0  0  0  0  0
  -28.2441  -38.0235   24.7690 H   0  0  0  0  0  0
  -28.1257  -36.2785   24.5984 H   0  0  0  0  0  0
  -27.2351  -37.1075   25.8830 H   0  0  0  0  0  0
  -20.9312  -29.8906   21.7112 H   0  0  0  0  0  0
  -26.0117  -38.2810   24.1560 H   0  0  0  0  0  0
  -33.2501  -19.7538   19.5017 H   0  0  0  0  0  0
  -32.3045  -20.1182   18.0662 H   0  0  0  0  0  0
  -33.1232  -18.5703   18.2138 H   0  0  0  0  0  0
  -29.4523  -24.6501   21.2490 H   0  0  0  0  0  0
  -27.8851  -24.0021   20.8316 H   0  0  0  0  0  0
  -27.8863  -25.2635   18.6563 H   0  0  0  0  0  0
  -29.5478  -25.6520   18.8148 H   0  0  0  0  0  0
  -30.8114  -21.2652   19.1902 H   0  0  0  0  0  0
  -28.9635  -15.4262   20.9550 H   0  0  0  0  0  0
  1 25  1  0  0  0
  1 30  2  0  0  0
  1 81  1  0  0  0
  2  3  1  0  0  0
  2 25  1  0  0  0
  2 85  1  0  0  0
  2 86  1  0  0  0
  3  4  1  0  0  0
  3 87  1  0  0  0
  3 88  1  0  0  0
  4  5  1  0  0  0
  4 89  1  0  0  0
  4 90  1  0  0  0
  5  6  1  0  0  0
  5 26  1  0  0  0
  5 91  1  0  0  0
  6 25  1  0  0  0
  6 92  1  0  0  0
  6 93  1  0  0  0
  7  8  2  0  0  0
  7 26  1  0  0  0
  7 29  1  0  0  0
  8  9  1  0  0  0
  8 22  1  0  0  0
  9 10  1  0  0  0
  9 27  2  0  0  0
 10 11  2  0  0  0
 10 15  1  0  0  0
 11 12  1  0  0  0
 11 94  1  0  0  0
 12 13  2  0  0  0
 12 95  1  0  0  0
 13 14  1  0  0  0
 13 31  1  0  0  0
 14 15  2  0  0  0
 14 96  1  0  0  0
 15 97  1  0  0  0
 16 17  2  0  0  0
 16 21  1  0  0  0
 16 31  1  0  0  0
 17 18  1  0  0  0
 17 98  1  0  0  0
 18 19  2  0  0  0
 18 99  1  0  0  0
 19 20  1  0  0  0
 19 24  1  0  0  0
 20 21  2  0  0  0
 20100  1  0  0  0
 21 23  1  0  0  0
 22 28  1  0  0  0
 22 32  2  0  0  0
 26 27  1  0  0  0
 28101  1  0  0  0
 28102  1  0  0  0
 29103  1  0  0  0
 29104  1  0  0  0
 33 34  1  0  0  0
 33 66  1  0  0  0
 33 70  2  0  0  0
 34 36  1  0  0  0
 34 59  1  0  0  0
 34105  1  0  0  0
 35 44  2  0  0  0
 35 45  1  0  0  0
 35 68  1  0  0  0
 36 56  1  0  0  0
 36106  1  0  0  0
 37 39  1  0  0  0
 37 47  1  0  0  0
 37 66  1  0  0  0
 37107  1  0  0  0
 38 43  2  0  0  0
 38 46  1  0  0  0
 38 47  1  0  0  0
 39 64  1  0  0  0
 39 67  2  0  0  0
 40 52  1  0  0  0
 40 53  2  0  0  0
 40 58  1  0  0  0
 41108  1  0  0  0
 41109  1  0  0  0
 41110  1  0  0  0
 41 48  1  0  0  0
 42 43  1  0  0  0
 42 66  1  0  0  0
 42111  1  0  0  0
 42112  1  0  0  0
 43 44  1  0  0  0
 44113  1  0  0  0
 45 46  2  0  0  0
 45114  1  0  0  0
 46115  1  0  0  0
 47116  1  0  0  0
 47117  1  0  0  0
 48 56  1  0  0  0
 48 65  1  0  0  0
 48118  1  0  0  0
 49 50  1  0  0  0
 49 53  1  0  0  0
 49 64  1  0  0  0
 49119  1  0  0  0
 50 51  1  0  0  0
 50120  1  0  0  0
 50121  1  0  0  0
 51 52  1  0  0  0
 51122  1  0  0  0
 51123  1  0  0  0
 52124  1  0  0  0
 52125  1  0  0  0
 53 54  1  0  0  0
 54 55  2  0  0  0
 54126  1  0  0  0
 55 57  1  0  0  0
 55127  1  0  0  0
 56 69  2  0  0  0
 57 58  2  0  0  0
 57128  1  0  0  0
 58129  1  0  0  0
 59 60  1  0  0  0
 59 61  1  0  0  0
 59 62  1  0  0  0
 60130  1  0  0  0
 60131  1  0  0  0
 60132  1  0  0  0
 61133  1  0  0  0
 61134  1  0  0  0
 61135  1  0  0  0
 62136  1  0  0  0
 62137  1  0  0  0
 62138  1  0  0  0
 63 65  1  0  0  0
 63139  1  0  0  0
 63140  1  0  0  0
 63141  1  0  0  0
 64142  1  0  0  0
 65143  1  0  0  0
 68 78  1  0  0  0
 71 72  2  0  0  0
 71 76  1  0  0  0
 71 79  1  0  0  0
 72 80  1  0  0  0
 72 84  1  0  0  0
 73 79  2  0  0  0
 73 81  1  0  0  0
 73 84  1  0  0  0
 74 75  1  0  0  0
 74 77  1  0  0  0
 74 82  2  0  0  0
 75 80  1  0  0  0
 75 83  2  0  0  0
 76144  1  0  0  0
 76145  1  0  0  0
 76146  1  0  0  0
 77 78  1  0  0  0
 77147  1  0  0  0
 77148  1  0  0  0
 78149  1  0  0  0
 78150  1  0  0  0
 80151  1  0  0  0
 81152  1  0  0  0
M  ISO  4   1 100  68 101  78 101  81 100
M  END
> <chiral flag>
0

> <version>
0

> <s_m_source_file>
/data/baiqing/PycharmProjects/Reinvent-master-3.2/result/LINK_invent/BTK/process_docking_weight1_custom_product_contain_oxygen_bond_distance_aromatic_linkinvent_7_9_3/rearranged_h_0178.sdf

> <i_m_source_file_index>
59

> <r_mmod_Potential_Energy-OPLS-2005>
-116.76343536377

> <r_mmod_Stretch_Energy-OPLS-2005>
39.5165672302246

> <r_mmod_Bend_Energy-OPLS-2005>
129.074554443359

> <r_mmod_Torsional_Energy-OPLS-2005>
204.365692138672

> <r_mmod_Improper_Torsional_Energy-OPLS-2005>
5.3976263999939

> <r_mmod_Van_der_Waal_Energy-OPLS-2005>
138.119812011719

> <r_mmod_Electrostatic_Energy-OPLS-2005>
-406.936767578125

> <r_mmod_Solvation_Energy-OPLS-2005>
-248.408920288086

> <b_mmod_Minimization_Converged-OPLS-2005>
0

> <r_mmod_RMS_Derivative-OPLS-2005>
4.1563196182251

$$$$
59
                    3D
 Structure written by MMmdl.
152160  0  0  1  0            999 V2000
  -30.6150  -14.8102   20.4599 C   0  0  0  0  0  0
  -30.4341  -12.5115   19.4565 C   0  0  0  0  0  0
  -29.5070  -12.5104   18.2230 C   0  0  0  0  0  0
  -28.0362  -12.3229   18.6464 C   0  0  0  0  0  0
  -27.6310  -13.2387   19.8325 C   0  0  2  0  0  0
  -28.6832  -13.2237   20.9593 C   0  0  0  0  0  0
  -25.2479  -13.8203   20.5695 C   0  0  0  0  0  0
  -24.1789  -13.0437   20.9221 C   0  0  0  0  0  0
  -24.6391  -11.6919   20.8748 C   0  0  0  0  0  0
  -23.9070  -10.4291   21.0402 C   0  0  0  0  0  0
  -24.3623   -9.4206   21.9177 C   0  0  0  0  0  0
  -23.6295   -8.2242   22.0748 C   0  0  0  0  0  0
  -22.4274   -8.0281   21.3541 C   0  0  0  0  0  0
  -21.9912   -9.0254   20.4641 C   0  0  0  0  0  0
  -22.7243  -10.2131   20.3050 C   0  0  0  0  0  0
  -21.6857   -6.0731   22.5275 C   0  0  0  0  0  0
  -21.4018   -6.5634   23.8209 C   0  0  0  0  0  0
  -21.3664   -5.6787   24.9171 C   0  0  0  0  0  0
  -21.6049   -4.3049   24.7222 C   0  0  0  0  0  0
  -21.8821   -3.8140   23.4342 C   0  0  0  0  0  0
  -21.9197   -4.6958   22.3398 C   0  0  0  0  0  0
  -22.7809  -13.5211   21.1876 C   0  0  0  0  0  0
  -22.1663   -4.2145   21.0975 F   0  0  0  0  0  0
  -21.5633   -3.4532   25.7733 F   0  0  0  0  0  0
  -29.9639  -13.5966   20.3487 N   0  0  0  0  0  0
  -26.2894  -12.9419   20.3228 N   0  0  0  0  0  0
  -25.9320  -11.6557   20.5724 N   0  0  0  0  0  0
  -22.0462  -12.8203   22.0441 N   0  0  0  0  0  0
  -25.4147  -15.1931   20.4100 N   0  0  0  0  0  0
  -31.8351  -14.8326   20.2764 O   0  0  0  0  0  0
  -21.6644   -6.8874   21.4235 O   0  0  0  0  0  0
  -22.3492  -14.5516   20.6718 O   0  0  0  0  0  0
  -24.6385  -31.8513   23.1978 C   0  0  0  0  0  0
  -25.9193  -32.4733   23.8325 C   0  0  1  0  0  0
  -27.2103  -27.2055   20.1157 C   0  0  0  0  0  0
  -25.5970  -33.8541   24.2240 N   0  0  0  0  0  0
  -23.4360  -30.4775   21.5445 C   0  0  2  0  0  0
  -24.8791  -28.9244   20.1139 C   0  0  0  0  0  0
  -22.7536  -29.4590   22.4911 C   0  0  0  0  0  0
  -18.0299  -28.1389   22.8487 C   0  0  0  0  0  0
  -24.1492  -36.7261   23.2639 C   0  0  0  0  0  0
  -25.9909  -30.7456   21.3882 C   0  0  0  0  0  0
  -26.0599  -29.3665   20.7235 C   0  0  0  0  0  0
  -27.2269  -28.5222   20.7119 C   0  0  0  0  0  0
  -25.9873  -26.8491   19.4955 C   0  0  0  0  0  0
  -24.8513  -27.6741   19.4901 C   0  0  0  0  0  0
  -23.6556  -29.8191   20.1604 C   0  0  0  0  0  0
  -25.4124  -36.3051   24.0318 C   0  0  1  0  0  0
  -20.5908  -28.3705   23.1264 C   0  0  2  0  0  0
  -20.6792  -26.9420   22.5408 C   0  0  0  0  0  0
  -19.5764  -26.6382   21.5221 C   0  0  0  0  0  0
  -18.1942  -26.7931   22.1630 C   0  0  0  0  0  0
  -19.1553  -28.8870   23.2864 C   0  0  0  0  0  0
  -18.9470  -30.1472   23.8880 C   0  0  0  0  0  0
  -17.6466  -30.6592   24.0561 C   0  0  0  0  0  0
  -25.9071  -34.9427   23.5075 C   0  0  0  0  0  0
  -16.5358  -29.9082   23.6340 C   0  0  0  0  0  0
  -16.7283  -28.6500   23.0362 C   0  0  0  0  0  0
  -26.4535  -31.6579   25.0738 C   0  0  0  0  0  0
  -25.3734  -31.3746   26.1438 C   0  0  0  0  0  0
  -27.0396  -30.2984   24.6284 C   0  0  0  0  0  0
  -27.6073  -32.4335   25.7520 C   0  0  0  0  0  0
  -27.5577  -37.1789   24.8466 C   0  0  0  0  0  0
  -21.4237  -29.3043   22.3648 N   0  0  0  0  0  0
  -26.4291  -37.3758   23.9405 N   0  0  0  0  0  0
  -24.7084  -31.0431   22.0989 N   0  0  0  0  0  0
  -23.4213  -28.8126   23.3026 O   0  0  0  0  0  0
  -28.2853  -26.2575   20.1582 O   0  0  0  0  0  0
  -26.5632  -34.8908   22.4639 O   0  0  0  0  0  0
  -23.5520  -32.1369   23.7234 O   0  0  0  0  0  0
  -29.6638  -18.6108   20.1666 C   0  0  0  0  0  0
  -29.4996  -18.7789   18.8014 C   0  0  0  0  0  0
  -29.1213  -20.9756   20.0120 C   0  0  0  0  0  0
  -30.2844  -17.2896   20.8039 C   0  0  0  0  0  0
  -29.0594  -23.6050   20.1124 C   0  0  0  0  0  0
  -29.6948  -17.7591   17.7209 C   0  0  0  0  0  0
  -28.1363  -24.8533   18.1481 C   0  0  0  0  0  0
  -28.0582  -24.8158   19.6932 C   0  0  2  0  0  0
  -29.4081  -19.8946   20.8254 N   0  0  0  0  0  0
  -28.5925  -22.3188   20.3893 N   0  0  0  0  0  0
  -29.8725  -15.9973   20.4655 N   0  0  0  0  0  0
  -31.1823  -17.4439   21.6404 O   0  0  0  0  0  0
  -30.2694  -23.8448   20.1565 O   0  0  0  0  0  0
  -29.1032  -20.4409   18.3368 S   0  0  0  0  0  0
  -31.4696  -12.6543   19.1433 H   0  0  0  0  0  0
  -30.4039  -11.5486   19.9688 H   0  0  0  0  0  0
  -29.7998  -11.7216   17.5286 H   0  0  0  0  0  0
  -29.6170  -13.4522   17.6821 H   0  0  0  0  0  0
  -27.9083  -11.2771   18.9288 H   0  0  0  0  0  0
  -27.3747  -12.4905   17.7958 H   0  0  0  0  0  0
  -27.6041  -14.2491   19.4254 H   0  0  0  0  0  0
  -28.7464  -12.2386   21.4242 H   0  0  0  0  0  0
  -28.4128  -13.9259   21.7498 H   0  0  0  0  0  0
  -25.2766   -9.5690   22.4751 H   0  0  0  0  0  0
  -24.0011   -7.4633   22.7465 H   0  0  0  0  0  0
  -21.0844   -8.8767   19.8943 H   0  0  0  0  0  0
  -22.3694  -10.9669   19.6161 H   0  0  0  0  0  0
  -21.2007   -7.6142   23.9711 H   0  0  0  0  0  0
  -21.1489   -6.0514   25.9076 H   0  0  0  0  0  0
  -22.0597   -2.7602   23.2841 H   0  0  0  0  0  0
  -22.4077  -11.9870   22.4843 H   0  0  0  0  0  0
  -21.1073  -13.1219   22.2625 H   0  0  0  0  0  0
  -24.6438  -15.8437   20.5179 H   0  0  0  0  0  0
  -26.2552  -15.6349   20.0634 H   0  0  0  0  0  0
  -26.7252  -32.5358   23.1049 H   0  0  0  0  0  0
  -25.0134  -33.9676   25.0399 H   0  0  0  0  0  0
  -22.7350  -31.3027   21.4004 H   0  0  0  0  0  0
  -23.3761  -35.9586   23.3299 H   0  0  0  0  0  0
  -24.3576  -36.8893   22.2053 H   0  0  0  0  0  0
  -23.7243  -37.6457   23.6673 H   0  0  0  0  0  0
  -26.1424  -31.5076   20.6225 H   0  0  0  0  0  0
  -26.8632  -30.7874   22.0288 H   0  0  0  0  0  0
  -28.1289  -28.8581   21.2042 H   0  0  0  0  0  0
  -25.8432  -25.8956   19.0161 H   0  0  0  0  0  0
  -23.9460  -27.3247   19.0125 H   0  0  0  0  0  0
  -23.7894  -30.5986   19.4094 H   0  0  0  0  0  0
  -22.7712  -29.2604   19.8488 H   0  0  0  0  0  0
  -25.1312  -36.1883   25.0810 H   0  0  0  0  0  0
  -20.9993  -28.3280   24.1389 H   0  0  0  0  0  0
  -20.5719  -26.2307   23.3610 H   0  0  0  0  0  0
  -21.6654  -26.7458   22.1184 H   0  0  0  0  0  0
  -19.6923  -25.6291   21.1260 H   0  0  0  0  0  0
  -19.6700  -27.3188   20.6747 H   0  0  0  0  0  0
  -17.4212  -26.6684   21.4030 H   0  0  0  0  0  0
  -18.0336  -26.0078   22.9029 H   0  0  0  0  0  0
  -19.7943  -30.7302   24.2231 H   0  0  0  0  0  0
  -17.5015  -31.6273   24.5159 H   0  0  0  0  0  0
  -15.5356  -30.2972   23.7684 H   0  0  0  0  0  0
  -15.8683  -28.0815   22.7083 H   0  0  0  0  0  0
  -24.5923  -30.7084   25.7757 H   0  0  0  0  0  0
  -24.8912  -32.2921   26.4820 H   0  0  0  0  0  0
  -25.8033  -30.8950   27.0241 H   0  0  0  0  0  0
  -26.3005  -29.6712   24.1283 H   0  0  0  0  0  0
  -27.4019  -29.7273   25.4843 H   0  0  0  0  0  0
  -27.8912  -30.4232   23.9592 H   0  0  0  0  0  0
  -27.2672  -33.3651   26.2056 H   0  0  0  0  0  0
  -28.3910  -32.6871   25.0370 H   0  0  0  0  0  0
  -28.0710  -31.8487   26.5473 H   0  0  0  0  0  0
  -28.2591  -38.0089   24.7513 H   0  0  0  0  0  0
  -28.1078  -36.2618   24.6298 H   0  0  0  0  0  0
  -27.2291  -37.1441   25.8869 H   0  0  0  0  0  0
  -20.9431  -29.8748   21.6834 H   0  0  0  0  0  0
  -26.0159  -38.2827   24.1414 H   0  0  0  0  0  0
  -28.9458  -16.9692   17.7853 H   0  0  0  0  0  0
  -30.6814  -17.2978   17.7873 H   0  0  0  0  0  0
  -29.6117  -18.2088   16.7310 H   0  0  0  0  0  0
  -27.8359  -23.8991   17.7136 H   0  0  0  0  0  0
  -29.1575  -25.0517   17.8201 H   0  0  0  0  0  0
  -27.5165  -25.6209   17.6910 H   0  0  0  0  0  0
  -27.0720  -24.4886   20.0224 H   0  0  0  0  0  0
  -27.5927  -22.3053   20.5311 H   0  0  0  0  0  0
  -28.9321  -15.9312   20.1174 H   0  0  0  0  0  0
  1 25  1  0  0  0
  1 30  2  0  0  0
  1 81  1  0  0  0
  2  3  1  0  0  0
  2 25  1  0  0  0
  2 85  1  0  0  0
  2 86  1  0  0  0
  3  4  1  0  0  0
  3 87  1  0  0  0
  3 88  1  0  0  0
  4  5  1  0  0  0
  4 89  1  0  0  0
  4 90  1  0  0  0
  5  6  1  0  0  0
  5 26  1  0  0  0
  5 91  1  0  0  0
  6 25  1  0  0  0
  6 92  1  0  0  0
  6 93  1  0  0  0
  7  8  2  0  0  0
  7 26  1  0  0  0
  7 29  1  0  0  0
  8  9  1  0  0  0
  8 22  1  0  0  0
  9 10  1  0  0  0
  9 27  2  0  0  0
 10 11  2  0  0  0
 10 15  1  0  0  0
 11 12  1  0  0  0
 11 94  1  0  0  0
 12 13  2  0  0  0
 12 95  1  0  0  0
 13 14  1  0  0  0
 13 31  1  0  0  0
 14 15  2  0  0  0
 14 96  1  0  0  0
 15 97  1  0  0  0
 16 17  2  0  0  0
 16 21  1  0  0  0
 16 31  1  0  0  0
 17 18  1  0  0  0
 17 98  1  0  0  0
 18 19  2  0  0  0
 18 99  1  0  0  0
 19 20  1  0  0  0
 19 24  1  0  0  0
 20 21  2  0  0  0
 20100  1  0  0  0
 21 23  1  0  0  0
 22 28  1  0  0  0
 22 32  2  0  0  0
 26 27  1  0  0  0
 28101  1  0  0  0
 28102  1  0  0  0
 29103  1  0  0  0
 29104  1  0  0  0
 33 34  1  0  0  0
 33 66  1  0  0  0
 33 70  2  0  0  0
 34 36  1  0  0  0
 34 59  1  0  0  0
 34105  1  0  0  0
 35 44  2  0  0  0
 35 45  1  0  0  0
 35 68  1  0  0  0
 36 56  1  0  0  0
 36106  1  0  0  0
 37 39  1  0  0  0
 37 47  1  0  0  0
 37 66  1  0  0  0
 37107  1  0  0  0
 38 43  2  0  0  0
 38 46  1  0  0  0
 38 47  1  0  0  0
 39 64  1  0  0  0
 39 67  2  0  0  0
 40 52  1  0  0  0
 40 53  2  0  0  0
 40 58  1  0  0  0
 41108  1  0  0  0
 41109  1  0  0  0
 41110  1  0  0  0
 41 48  1  0  0  0
 42 43  1  0  0  0
 42 66  1  0  0  0
 42111  1  0  0  0
 42112  1  0  0  0
 43 44  1  0  0  0
 44113  1  0  0  0
 45 46  2  0  0  0
 45114  1  0  0  0
 46115  1  0  0  0
 47116  1  0  0  0
 47117  1  0  0  0
 48 56  1  0  0  0
 48 65  1  0  0  0
 48118  1  0  0  0
 49 50  1  0  0  0
 49 53  1  0  0  0
 49 64  1  0  0  0
 49119  1  0  0  0
 50 51  1  0  0  0
 50120  1  0  0  0
 50121  1  0  0  0
 51 52  1  0  0  0
 51122  1  0  0  0
 51123  1  0  0  0
 52124  1  0  0  0
 52125  1  0  0  0
 53 54  1  0  0  0
 54 55  2  0  0  0
 54126  1  0  0  0
 55 57  1  0  0  0
 55127  1  0  0  0
 56 69  2  0  0  0
 57 58  2  0  0  0
 57128  1  0  0  0
 58129  1  0  0  0
 59 60  1  0  0  0
 59 61  1  0  0  0
 59 62  1  0  0  0
 60130  1  0  0  0
 60131  1  0  0  0
 60132  1  0  0  0
 61133  1  0  0  0
 61134  1  0  0  0
 61135  1  0  0  0
 62136  1  0  0  0
 62137  1  0  0  0
 62138  1  0  0  0
 63 65  1  0  0  0
 63139  1  0  0  0
 63140  1  0  0  0
 63141  1  0  0  0
 64142  1  0  0  0
 65143  1  0  0  0
 68 78  1  0  0  0
 71 72  2  0  0  0
 71 74  1  0  0  0
 71 79  1  0  0  0
 72 76  1  0  0  0
 72 84  1  0  0  0
 73 79  2  0  0  0
 73 80  1  0  0  0
 73 84  1  0  0  0
 74 81  1  0  0  0
 74 82  2  0  0  0
 75 78  1  0  0  0
 75 80  1  0  0  0
 75 83  2  0  0  0
 76144  1  0  0  0
 76145  1  0  0  0
 76146  1  0  0  0
 77147  1  0  0  0
 77148  1  0  0  0
 77149  1  0  0  0
 77 78  1  0  0  0
 78150  1  0  0  0
 80151  1  0  0  0
 81152  1  0  0  0
M  ISO  4   1 100  68 101  78 101  81 100
M  END
> <chiral flag>
0

> <version>
0

> <s_m_source_file>
/data/baiqing/PycharmProjects/Reinvent-master-3.2/result/LINK_invent/BTK/process_docking_weight1_custom_product_contain_oxygen_bond_distance_aromatic_linkinvent_7_9_3/rearranged_h_0178.sdf

> <i_m_source_file_index>
60

> <r_mmod_Potential_Energy-OPLS-2005>
168.667678833008

> <r_mmod_Stretch_Energy-OPLS-2005>
154.408096313477

> <r_mmod_Bend_Energy-OPLS-2005>
192.10466003418

> <r_mmod_Torsional_Energy-OPLS-2005>
297.755157470703

> <r_mmod_Improper_Torsional_Energy-OPLS-2005>
12.0322895050049

> <r_mmod_Van_der_Waal_Energy-OPLS-2005>
120.809120178223

> <r_mmod_Electrostatic_Energy-OPLS-2005>
-461.032196044922

> <r_mmod_Solvation_Energy-OPLS-2005>
-272.365997314453

> <b_mmod_Minimization_Converged-OPLS-2005>
0

> <r_mmod_RMS_Derivative-OPLS-2005>
0.986381649971008

$$$$
60
                    3D
 Structure written by MMmdl.
154162  0  0  1  0            999 V2000
  -30.6563  -14.5339   20.5730 C   0  0  0  0  0  0
  -30.4416  -12.3448   19.4279 C   0  0  0  0  0  0
  -29.5058  -12.5206   18.2115 C   0  0  0  0  0  0
  -28.0248  -12.3743   18.6184 C   0  0  0  0  0  0
  -27.6636  -13.2073   19.8786 C   0  0  2  0  0  0
  -28.7075  -12.9810   20.9966 C   0  0  0  0  0  0
  -25.2599  -13.8157   20.5691 C   0  0  0  0  0  0
  -24.1849  -13.0424   20.9173 C   0  0  0  0  0  0
  -24.6400  -11.6895   20.8719 C   0  0  0  0  0  0
  -23.9058  -10.4291   21.0394 C   0  0  0  0  0  0
  -24.3610   -9.4211   21.9178 C   0  0  0  0  0  0
  -23.6296   -8.2241   22.0755 C   0  0  0  0  0  0
  -22.4275   -8.0280   21.3554 C   0  0  0  0  0  0
  -21.9899   -9.0242   20.4646 C   0  0  0  0  0  0
  -22.7221  -10.2134   20.3054 C   0  0  0  0  0  0
  -21.6855   -6.0739   22.5279 C   0  0  0  0  0  0
  -21.4012   -6.5635   23.8209 C   0  0  0  0  0  0
  -21.3663   -5.6788   24.9169 C   0  0  0  0  0  0
  -21.6045   -4.3054   24.7218 C   0  0  0  0  0  0
  -21.8812   -3.8148   23.4335 C   0  0  0  0  0  0
  -21.9191   -4.6967   22.3396 C   0  0  0  0  0  0
  -22.7876  -13.5236   21.1826 C   0  0  0  0  0  0
  -22.1655   -4.2154   21.0972 F   0  0  0  0  0  0
  -21.5633   -3.4532   25.7727 F   0  0  0  0  0  0
  -30.0348  -13.3234   20.4512 N   0  0  0  0  0  0
  -26.3042  -12.9320   20.3385 N   0  0  0  0  0  0
  -25.9334  -11.6479   20.5766 N   0  0  0  0  0  0
  -22.0504  -12.8262   22.0402 N   0  0  0  0  0  0
  -25.4303  -15.1875   20.4106 N   0  0  0  0  0  0
  -31.7771  -14.7541   20.1010 O   0  0  0  0  0  0
  -21.6643   -6.8886   21.4248 O   0  0  0  0  0  0
  -22.3579  -14.5548   20.6676 O   0  0  0  0  0  0
  -24.6226  -31.8643   23.2065 C   0  0  0  0  0  0
  -25.9100  -32.4809   23.8371 C   0  0  1  0  0  0
  -27.2316  -27.3671   20.1057 C   0  0  0  0  0  0
  -25.5954  -33.8603   24.2305 N   0  0  0  0  0  0
  -23.4144  -30.4901   21.5470 C   0  0  2  0  0  0
  -24.8632  -28.9578   20.1088 C   0  0  0  0  0  0
  -22.7455  -29.4646   22.4935 C   0  0  0  0  0  0
  -18.0275  -28.1416   22.8486 C   0  0  0  0  0  0
  -24.1492  -36.7277   23.2636 C   0  0  0  0  0  0
  -25.9528  -30.8122   21.3715 C   0  0  0  0  0  0
  -26.0294  -29.4437   20.7127 C   0  0  0  0  0  0
  -27.2166  -28.6595   20.7033 C   0  0  0  0  0  0
  -26.0393  -26.9259   19.4789 C   0  0  0  0  0  0
  -24.8685  -27.7022   19.4865 C   0  0  0  0  0  0
  -23.6273  -29.8303   20.1599 C   0  0  0  0  0  0
  -25.4117  -36.3092   24.0325 C   0  0  1  0  0  0
  -20.5882  -28.3690   23.1296 C   0  0  2  0  0  0
  -20.6777  -26.9421   22.5417 C   0  0  0  0  0  0
  -19.5751  -26.6406   21.5230 C   0  0  0  0  0  0
  -18.1929  -26.7961   22.1635 C   0  0  0  0  0  0
  -19.1536  -28.8864   23.2895 C   0  0  0  0  0  0
  -18.9461  -30.1473   23.8902 C   0  0  0  0  0  0
  -17.6463  -30.6609   24.0573 C   0  0  0  0  0  0
  -25.9053  -34.9461   23.5107 C   0  0  0  0  0  0
  -16.5350  -29.9111   23.6352 C   0  0  0  0  0  0
  -16.7267  -28.6543   23.0344 C   0  0  0  0  0  0
  -26.4493  -31.6609   25.0729 C   0  0  0  0  0  0
  -25.3736  -31.3737   26.1469 C   0  0  0  0  0  0
  -27.0330  -30.3036   24.6176 C   0  0  0  0  0  0
  -27.6073  -32.4323   25.7497 C   0  0  0  0  0  0
  -27.5574  -37.1791   24.8462 C   0  0  0  0  0  0
  -21.4170  -29.3047   22.3686 N   0  0  0  0  0  0
  -26.4283  -37.3787   23.9419 N   0  0  0  0  0  0
  -24.6815  -31.0701   22.0993 N   0  0  0  0  0  0
  -23.4203  -28.8174   23.2978 O   0  0  0  0  0  0
  -28.3647  -26.5497   20.1580 O   0  0  0  0  0  0
  -26.5597  -34.8914   22.4660 O   0  0  0  0  0  0
  -23.5405  -32.1420   23.7433 O   0  0  0  0  0  0
  -30.1295  -19.1638   20.8592 C   0  0  0  0  0  0
  -30.0697  -19.2022   22.2414 C   0  0  0  0  0  0
  -30.1255  -16.8907   21.3545 C   0  0  0  0  0  0
  -29.2585  -24.1349   20.3229 C   0  0  0  0  0  0
  -29.2006  -22.6704   19.7120 C   0  0  0  0  0  0
  -31.5650  -20.3541   19.1647 C   0  0  0  0  0  0
  -28.1608  -25.1323   19.8379 C   0  0  0  0  0  0
  -30.1886  -20.3319   19.8533 C   0  0  2  0  0  0
  -30.1395  -17.8235   20.3791 N   0  0  0  0  0  0
  -29.9837  -20.2943   23.0989 N   0  0  0  0  0  0
  -29.9006  -15.4903   21.1572 N   0  0  0  0  0  0
  -29.9039  -21.7068   20.3631 N   0  0  0  0  0  0
  -30.1186  -24.4674   21.1496 O   0  0  0  0  0  0
  -28.5733  -22.4383   18.6738 O   0  0  0  0  0  0
  -30.0691  -17.6036   22.9558 S   0  0  0  0  0  0
  -31.4825  -12.4728   19.1236 H   0  0  0  0  0  0
  -30.3707  -11.3310   19.8256 H   0  0  0  0  0  0
  -29.7544  -11.7905   17.4397 H   0  0  0  0  0  0
  -29.6677  -13.5042   17.7665 H   0  0  0  0  0  0
  -27.8365  -11.3170   18.8064 H   0  0  0  0  0  0
  -27.3792  -12.6553   17.7856 H   0  0  0  0  0  0
  -27.7049  -14.2577   19.5915 H   0  0  0  0  0  0
  -28.6996  -11.9362   21.3112 H   0  0  0  0  0  0
  -28.4573  -13.5497   21.8937 H   0  0  0  0  0  0
  -25.2742   -9.5703   22.4760 H   0  0  0  0  0  0
  -23.9989   -7.4649   22.7477 H   0  0  0  0  0  0
  -21.0818   -8.8760   19.8968 H   0  0  0  0  0  0
  -22.3648  -10.9674   19.6173 H   0  0  0  0  0  0
  -21.2008   -7.6145   23.9711 H   0  0  0  0  0  0
  -21.1499   -6.0522   25.9072 H   0  0  0  0  0  0
  -22.0597   -2.7610   23.2823 H   0  0  0  0  0  0
  -22.4080  -11.9909   22.4806 H   0  0  0  0  0  0
  -21.1135  -13.1348   22.2601 H   0  0  0  0  0  0
  -24.6611  -15.8397   20.5231 H   0  0  0  0  0  0
  -26.2804  -15.6305   20.0847 H   0  0  0  0  0  0
  -26.7172  -32.5497   23.1124 H   0  0  0  0  0  0
  -25.0136  -33.9764   25.0476 H   0  0  0  0  0  0
  -22.7061  -31.3090   21.4060 H   0  0  0  0  0  0
  -23.3764  -35.9601   23.3319 H   0  0  0  0  0  0
  -24.3587  -36.8885   22.2048 H   0  0  0  0  0  0
  -23.7225  -37.6473   23.6644 H   0  0  0  0  0  0
  -26.0814  -31.5828   20.6104 H   0  0  0  0  0  0
  -26.8330  -30.8554   22.0006 H   0  0  0  0  0  0
  -28.1127  -29.0305   21.1816 H   0  0  0  0  0  0
  -25.9768  -25.9721   18.9772 H   0  0  0  0  0  0
  -23.9740  -27.3272   19.0084 H   0  0  0  0  0  0
  -23.7396  -30.6104   19.4057 H   0  0  0  0  0  0
  -22.7510  -29.2567   19.8537 H   0  0  0  0  0  0
  -25.1298  -36.1936   25.0809 H   0  0  0  0  0  0
  -20.9978  -28.3274   24.1412 H   0  0  0  0  0  0
  -20.5716  -26.2294   23.3600 H   0  0  0  0  0  0
  -21.6638  -26.7481   22.1186 H   0  0  0  0  0  0
  -19.6915  -25.6323   21.1247 H   0  0  0  0  0  0
  -19.6706  -27.3228   20.6770 H   0  0  0  0  0  0
  -17.4198  -26.6707   21.4034 H   0  0  0  0  0  0
  -18.0318  -26.0113   22.9036 H   0  0  0  0  0  0
  -19.7933  -30.7295   24.2283 H   0  0  0  0  0  0
  -17.5017  -31.6296   24.5170 H   0  0  0  0  0  0
  -15.5358  -30.3012   23.7696 H   0  0  0  0  0  0
  -15.8667  -28.0885   22.7033 H   0  0  0  0  0  0
  -24.5939  -30.7052   25.7808 H   0  0  0  0  0  0
  -24.8881  -32.2886   26.4867 H   0  0  0  0  0  0
  -25.8069  -30.8951   27.0262 H   0  0  0  0  0  0
  -26.2891  -29.6799   24.1208 H   0  0  0  0  0  0
  -27.4040  -29.7287   25.4675 H   0  0  0  0  0  0
  -27.8760  -30.4336   23.9385 H   0  0  0  0  0  0
  -27.2716  -33.3636   26.2066 H   0  0  0  0  0  0
  -28.3885  -32.6864   25.0320 H   0  0  0  0  0  0
  -28.0737  -31.8444   26.5418 H   0  0  0  0  0  0
  -28.2589  -38.0097   24.7541 H   0  0  0  0  0  0
  -28.1070  -36.2625   24.6252 H   0  0  0  0  0  0
  -27.2286  -37.1390   25.8864 H   0  0  0  0  0  0
  -20.9338  -29.8761   21.6894 H   0  0  0  0  0  0
  -26.0167  -38.2850   24.1476 H   0  0  0  0  0  0
  -32.3674  -20.4869   19.8905 H   0  0  0  0  0  0
  -31.6403  -21.1599   18.4348 H   0  0  0  0  0  0
  -31.7586  -19.4188   18.6366 H   0  0  0  0  0  0
  -27.2368  -24.7825   20.2985 H   0  0  0  0  0  0
  -28.0455  -25.0226   18.7596 H   0  0  0  0  0  0
  -29.4526  -20.1095   19.0783 H   0  0  0  0  0  0
  -29.3441  -21.0297   22.8157 H   0  0  0  0  0  0
  -29.8278  -20.0724   24.0779 H   0  0  0  0  0  0
  -29.0729  -15.1281   21.6020 H   0  0  0  0  0  0
  -30.3788  -21.9881   21.2127 H   0  0  0  0  0  0
  1 25  1  0  0  0
  1 30  2  0  0  0
  1 81  1  0  0  0
  2  3  1  0  0  0
  2 25  1  0  0  0
  2 86  1  0  0  0
  2 87  1  0  0  0
  3  4  1  0  0  0
  3 88  1  0  0  0
  3 89  1  0  0  0
  4  5  1  0  0  0
  4 90  1  0  0  0
  4 91  1  0  0  0
  5  6  1  0  0  0
  5 26  1  0  0  0
  5 92  1  0  0  0
  6 25  1  0  0  0
  6 93  1  0  0  0
  6 94  1  0  0  0
  7  8  2  0  0  0
  7 26  1  0  0  0
  7 29  1  0  0  0
  8  9  1  0  0  0
  8 22  1  0  0  0
  9 10  1  0  0  0
  9 27  2  0  0  0
 10 11  2  0  0  0
 10 15  1  0  0  0
 11 12  1  0  0  0
 11 95  1  0  0  0
 12 13  2  0  0  0
 12 96  1  0  0  0
 13 14  1  0  0  0
 13 31  1  0  0  0
 14 15  2  0  0  0
 14 97  1  0  0  0
 15 98  1  0  0  0
 16 17  2  0  0  0
 16 21  1  0  0  0
 16 31  1  0  0  0
 17 18  1  0  0  0
 17 99  1  0  0  0
 18 19  2  0  0  0
 18100  1  0  0  0
 19 20  1  0  0  0
 19 24  1  0  0  0
 20 21  2  0  0  0
 20101  1  0  0  0
 21 23  1  0  0  0
 22 28  1  0  0  0
 22 32  2  0  0  0
 26 27  1  0  0  0
 28102  1  0  0  0
 28103  1  0  0  0
 29104  1  0  0  0
 29105  1  0  0  0
 33 34  1  0  0  0
 33 66  1  0  0  0
 33 70  2  0  0  0
 34 36  1  0  0  0
 34 59  1  0  0  0
 34106  1  0  0  0
 35 44  2  0  0  0
 35 45  1  0  0  0
 35 68  1  0  0  0
 36 56  1  0  0  0
 36107  1  0  0  0
 37 39  1  0  0  0
 37 47  1  0  0  0
 37 66  1  0  0  0
 37108  1  0  0  0
 38 43  2  0  0  0
 38 46  1  0  0  0
 38 47  1  0  0  0
 39 64  1  0  0  0
 39 67  2  0  0  0
 40 52  1  0  0  0
 40 53  2  0  0  0
 40 58  1  0  0  0
 41109  1  0  0  0
 41110  1  0  0  0
 41111  1  0  0  0
 41 48  1  0  0  0
 42 43  1  0  0  0
 42 66  1  0  0  0
 42112  1  0  0  0
 42113  1  0  0  0
 43 44  1  0  0  0
 44114  1  0  0  0
 45 46  2  0  0  0
 45115  1  0  0  0
 46116  1  0  0  0
 47117  1  0  0  0
 47118  1  0  0  0
 48 56  1  0  0  0
 48 65  1  0  0  0
 48119  1  0  0  0
 49 50  1  0  0  0
 49 53  1  0  0  0
 49 64  1  0  0  0
 49120  1  0  0  0
 50 51  1  0  0  0
 50121  1  0  0  0
 50122  1  0  0  0
 51 52  1  0  0  0
 51123  1  0  0  0
 51124  1  0  0  0
 52125  1  0  0  0
 52126  1  0  0  0
 53 54  1  0  0  0
 54 55  2  0  0  0
 54127  1  0  0  0
 55 57  1  0  0  0
 55128  1  0  0  0
 56 69  2  0  0  0
 57 58  2  0  0  0
 57129  1  0  0  0
 58130  1  0  0  0
 59 60  1  0  0  0
 59 61  1  0  0  0
 59 62  1  0  0  0
 60131  1  0  0  0
 60132  1  0  0  0
 60133  1  0  0  0
 61134  1  0  0  0
 61135  1  0  0  0
 61136  1  0  0  0
 62137  1  0  0  0
 62138  1  0  0  0
 62139  1  0  0  0
 63 65  1  0  0  0
 63140  1  0  0  0
 63141  1  0  0  0
 63142  1  0  0  0
 64143  1  0  0  0
 65144  1  0  0  0
 68 77  1  0  0  0
 71 72  2  0  0  0
 71 78  1  0  0  0
 71 79  1  0  0  0
 72 80  1  0  0  0
 72 85  1  0  0  0
 73 79  2  0  0  0
 73 81  1  0  0  0
 73 85  1  0  0  0
 74 75  1  0  0  0
 74 77  1  0  0  0
 74 83  2  0  0  0
 75 82  1  0  0  0
 75 84  2  0  0  0
 76145  1  0  0  0
 76146  1  0  0  0
 76147  1  0  0  0
 76 78  1  0  0  0
 77148  1  0  0  0
 77149  1  0  0  0
 78 82  1  0  0  0
 78150  1  0  0  0
 80151  1  0  0  0
 80152  1  0  0  0
 81153  1  0  0  0
 82154  1  0  0  0
M  ISO  4   1 100  68 101  77 101  81 100
M  END
> <chiral flag>
0

> <version>
0

> <s_m_source_file>
/data/baiqing/PycharmProjects/Reinvent-master-3.2/result/LINK_invent/BTK/process_docking_weight1_custom_product_contain_oxygen_bond_distance_aromatic_linkinvent_7_9_3/rearranged_h_0178.sdf

> <i_m_source_file_index>
61

> <r_mmod_Potential_Energy-OPLS-2005>
-27.9691982269287

> <r_mmod_Stretch_Energy-OPLS-2005>
57.1374549865723

> <r_mmod_Bend_Energy-OPLS-2005>
119.121925354004

> <r_mmod_Torsional_Energy-OPLS-2005>
214.557479858398

> <r_mmod_Improper_Torsional_Energy-OPLS-2005>
9.50502777099609

> <r_mmod_Van_der_Waal_Energy-OPLS-2005>
129.859436035156

> <r_mmod_Electrostatic_Energy-OPLS-2005>
-328.438110351562

> <r_mmod_Solvation_Energy-OPLS-2005>
-255.223114013672

> <b_mmod_Minimization_Converged-OPLS-2005>
0

> <r_mmod_RMS_Derivative-OPLS-2005>
2.52134442329407

$$$$
61
                    3D
 Structure written by MMmdl.
161169  0  0  1  0            999 V2000
  -30.7612  -14.5022   20.5543 C   0  0  0  0  0  0
  -30.4078  -12.3221   19.4480 C   0  0  0  0  0  0
  -29.4926  -12.4968   18.2205 C   0  0  0  0  0  0
  -28.0175  -12.3576   18.6358 C   0  0  0  0  0  0
  -27.6582  -13.2240   19.8729 C   0  0  2  0  0  0
  -28.7054  -13.0763   21.0031 C   0  0  0  0  0  0
  -25.2571  -13.8212   20.5719 C   0  0  0  0  0  0
  -24.1846  -13.0459   20.9206 C   0  0  0  0  0  0
  -24.6429  -11.6931   20.8774 C   0  0  0  0  0  0
  -23.9105  -10.4306   21.0422 C   0  0  0  0  0  0
  -24.3644   -9.4210   21.9205 C   0  0  0  0  0  0
  -23.6307   -8.2253   22.0767 C   0  0  0  0  0  0
  -22.4287   -8.0298   21.3553 C   0  0  0  0  0  0
  -21.9931   -9.0283   20.4658 C   0  0  0  0  0  0
  -22.7276  -10.2156   20.3073 C   0  0  0  0  0  0
  -21.6854   -6.0752   22.5291 C   0  0  0  0  0  0
  -21.4010   -6.5651   23.8221 C   0  0  0  0  0  0
  -21.3655   -5.6797   24.9180 C   0  0  0  0  0  0
  -21.6043   -4.3062   24.7223 C   0  0  0  0  0  0
  -21.8818   -3.8160   23.4342 C   0  0  0  0  0  0
  -21.9185   -4.6984   22.3405 C   0  0  0  0  0  0
  -22.7857  -13.5244   21.1861 C   0  0  0  0  0  0
  -22.1656   -4.2172   21.0985 F   0  0  0  0  0  0
  -21.5626   -3.4545   25.7736 F   0  0  0  0  0  0
  -30.0315  -13.3529   20.4348 N   0  0  0  0  0  0
  -26.3024  -12.9414   20.3405 N   0  0  0  0  0  0
  -25.9369  -11.6556   20.5838 N   0  0  0  0  0  0
  -22.0495  -12.8226   22.0399 N   0  0  0  0  0  0
  -25.4259  -15.1940   20.4125 N   0  0  0  0  0  0
  -31.8951  -14.5696   20.0680 O   0  0  0  0  0  0
  -21.6643   -6.8904   21.4255 O   0  0  0  0  0  0
  -22.3535  -14.5553   20.6715 O   0  0  0  0  0  0
  -24.6176  -31.8680   23.2108 C   0  0  0  0  0  0
  -25.9053  -32.4820   23.8411 C   0  0  1  0  0  0
  -27.2209  -27.3974   20.0914 C   0  0  0  0  0  0
  -25.5921  -33.8615   24.2335 N   0  0  0  0  0  0
  -23.4056  -30.4961   21.5529 C   0  0  2  0  0  0
  -24.8497  -28.9704   20.1116 C   0  0  0  0  0  0
  -22.7448  -29.4653   22.4985 C   0  0  0  0  0  0
  -18.0285  -28.1374   22.8488 C   0  0  0  0  0  0
  -24.1491  -36.7289   23.2640 C   0  0  0  0  0  0
  -25.9422  -30.8249   21.3709 C   0  0  0  0  0  0
  -26.0175  -29.4603   20.7101 C   0  0  0  0  0  0
  -27.2068  -28.6840   20.6936 C   0  0  0  0  0  0
  -26.0242  -26.9429   19.4817 C   0  0  0  0  0  0
  -24.8518  -27.7127   19.4949 C   0  0  0  0  0  0
  -23.6140  -29.8396   20.1652 C   0  0  0  0  0  0
  -25.4111  -36.3100   24.0347 C   0  0  1  0  0  0
  -20.5879  -28.3645   23.1331 C   0  0  2  0  0  0
  -20.6773  -26.9378   22.5431 C   0  0  0  0  0  0
  -19.5751  -26.6362   21.5231 C   0  0  0  0  0  0
  -18.1924  -26.7917   22.1620 C   0  0  0  0  0  0
  -19.1537  -28.8825   23.2903 C   0  0  0  0  0  0
  -18.9459  -30.1423   23.8904 C   0  0  0  0  0  0
  -17.6460  -30.6570   24.0556 C   0  0  0  0  0  0
  -25.9051  -34.9472   23.5134 C   0  0  0  0  0  0
  -16.5355  -29.9067   23.6337 C   0  0  0  0  0  0
  -16.7273  -28.6494   23.0346 C   0  0  0  0  0  0
  -26.4467  -31.6600   25.0744 C   0  0  0  0  0  0
  -25.3718  -31.3737   26.1493 C   0  0  0  0  0  0
  -27.0292  -30.3038   24.6118 C   0  0  0  0  0  0
  -27.6064  -32.4298   25.7493 C   0  0  0  0  0  0
  -27.5582  -37.1787   24.8468 C   0  0  0  0  0  0
  -21.4168  -29.3017   22.3744 N   0  0  0  0  0  0
  -26.4291  -37.3792   23.9425 N   0  0  0  0  0  0
  -24.6742  -31.0779   22.1020 N   0  0  0  0  0  0
  -23.4223  -28.8158   23.3005 O   0  0  0  0  0  0
  -28.3622  -26.5991   20.1206 O   0  0  0  0  0  0
  -26.5596  -34.8925   22.4680 O   0  0  0  0  0  0
  -23.5357  -32.1433   23.7494 O   0  0  0  0  0  0
  -31.8151  -19.3375   21.2578 C   0  0  0  0  0  0
  -32.5404  -18.1918   21.5751 C   0  0  0  0  0  0
  -30.4592  -19.2046   20.9148 C   0  0  0  0  0  0
  -30.6898  -16.8835   21.2009 C   0  0  0  0  0  0
  -30.0241  -21.6592   20.3535 C   0  0  0  0  0  0
  -34.3307  -18.6915   23.3035 C   0  0  0  0  0  0
  -28.8917  -22.7082   20.2354 C   0  0  0  0  0  0
  -29.3300  -24.2142   20.2404 C   0  0  0  0  0  0
  -28.1342  -25.1719   19.9912 C   0  0  0  0  0  0
  -34.0335  -18.2462   21.8625 C   0  0  1  0  0  0
  -31.9581  -16.9788   21.5958 N   0  0  0  0  0  0
  -29.9201  -17.9471   20.9017 N   0  0  0  0  0  0
  -29.6651  -20.3699   20.6148 N   0  0  0  0  0  0
  -30.1554  -15.6047   21.0706 N   0  0  0  0  0  0
  -34.5662  -16.9132   21.5763 N   0  3  0  0  0  0
  -31.1846  -22.0382   20.1716 O   0  0  0  0  0  0
  -31.4546  -12.3784   19.1445 H   0  0  0  0  0  0
  -30.2843  -11.3269   19.8788 H   0  0  0  0  0  0
  -29.7373  -11.7564   17.4580 H   0  0  0  0  0  0
  -29.6608  -13.4738   17.7647 H   0  0  0  0  0  0
  -27.8387  -11.3059   18.8582 H   0  0  0  0  0  0
  -27.3633  -12.6061   17.7998 H   0  0  0  0  0  0
  -27.6827  -14.2620   19.5397 H   0  0  0  0  0  0
  -28.6858  -12.0660   21.4161 H   0  0  0  0  0  0
  -28.4735  -13.7416   21.8354 H   0  0  0  0  0  0
  -25.2794   -9.5674   22.4781 H   0  0  0  0  0  0
  -24.0011   -7.4641   22.7487 H   0  0  0  0  0  0
  -21.0867   -8.8828   19.8964 H   0  0  0  0  0  0
  -22.3762  -10.9706   19.6188 H   0  0  0  0  0  0
  -21.2004   -7.6154   23.9737 H   0  0  0  0  0  0
  -21.1472   -6.0523   25.9085 H   0  0  0  0  0  0
  -22.0594   -2.7623   23.2842 H   0  0  0  0  0  0
  -22.4072  -11.9855   22.4761 H   0  0  0  0  0  0
  -21.1130  -13.1282   22.2651 H   0  0  0  0  0  0
  -24.6575  -15.8466   20.5220 H   0  0  0  0  0  0
  -26.2765  -15.6370   20.0882 H   0  0  0  0  0  0
  -26.7123  -32.5513   23.1174 H   0  0  0  0  0  0
  -25.0120  -33.9788   25.0511 H   0  0  0  0  0  0
  -22.6912  -31.3111   21.4163 H   0  0  0  0  0  0
  -23.3770  -35.9607   23.3314 H   0  0  0  0  0  0
  -24.3583  -36.8896   22.2052 H   0  0  0  0  0  0
  -23.7222  -37.6487   23.6639 H   0  0  0  0  0  0
  -26.0675  -31.5965   20.6099 H   0  0  0  0  0  0
  -26.8258  -30.8691   21.9962 H   0  0  0  0  0  0
  -28.1035  -29.0575   21.1674 H   0  0  0  0  0  0
  -25.9537  -25.9871   18.9868 H   0  0  0  0  0  0
  -23.9562  -27.3310   19.0270 H   0  0  0  0  0  0
  -23.7213  -30.6175   19.4094 H   0  0  0  0  0  0
  -22.7373  -29.2633   19.8646 H   0  0  0  0  0  0
  -25.1281  -36.1971   25.0842 H   0  0  0  0  0  0
  -20.9955  -28.3181   24.1456 H   0  0  0  0  0  0
  -20.5693  -26.2229   23.3608 H   0  0  0  0  0  0
  -21.6637  -26.7411   22.1201 H   0  0  0  0  0  0
  -19.6922  -25.6289   21.1224 H   0  0  0  0  0  0
  -19.6713  -27.3203   20.6789 H   0  0  0  0  0  0
  -17.4208  -26.6689   21.4008 H   0  0  0  0  0  0
  -18.0288  -26.0049   22.8996 H   0  0  0  0  0  0
  -19.7936  -30.7236   24.2267 H   0  0  0  0  0  0
  -17.5023  -31.6261   24.5131 H   0  0  0  0  0  0
  -15.5356  -30.2962   23.7676 H   0  0  0  0  0  0
  -15.8671  -28.0820   22.7051 H   0  0  0  0  0  0
  -24.5919  -30.7043   25.7843 H   0  0  0  0  0  0
  -24.8877  -32.2915   26.4845 H   0  0  0  0  0  0
  -25.8060  -30.8984   27.0301 H   0  0  0  0  0  0
  -26.2848  -29.6813   24.1140 H   0  0  0  0  0  0
  -27.4060  -29.7249   25.4555 H   0  0  0  0  0  0
  -27.8688  -30.4373   23.9297 H   0  0  0  0  0  0
  -27.2722  -33.3627   26.2046 H   0  0  0  0  0  0
  -28.3890  -32.6791   25.0312 H   0  0  0  0  0  0
  -28.0707  -31.8425   26.5429 H   0  0  0  0  0  0
  -28.2592  -38.0088   24.7503 H   0  0  0  0  0  0
  -28.1093  -36.2614   24.6302 H   0  0  0  0  0  0
  -27.2310  -37.1454   25.8878 H   0  0  0  0  0  0
  -20.9315  -29.8764   21.6999 H   0  0  0  0  0  0
  -26.0192  -38.2880   24.1419 H   0  0  0  0  0  0
  -32.3205  -20.2902   21.2848 H   0  0  0  0  0  0
  -33.9566  -19.7015   23.4748 H   0  0  0  0  0  0
  -35.4033  -18.7082   23.4962 H   0  0  0  0  0  0
  -33.8633  -18.0357   24.0372 H   0  0  0  0  0  0
  -28.1913  -22.5435   21.0545 H   0  0  0  0  0  0
  -28.3472  -22.4948   19.3150 H   0  0  0  0  0  0
  -30.0821  -24.3841   19.4695 H   0  0  0  0  0  0
  -29.8050  -24.4533   21.1926 H   0  0  0  0  0  0
  -27.3351  -24.8842   20.6783 H   0  0  0  0  0  0
  -27.7835  -24.9615   18.9816 H   0  0  0  0  0  0
  -34.4963  -18.9489   21.1676 H   0  0  0  0  0  0
  -28.6707  -20.2021   20.6065 H   0  0  0  0  0  0
  -29.1834  -15.5100   21.3079 H   0  0  0  0  0  0
  -33.7493  -16.3300   21.7113 H   0  0  0  0  0  0
  -35.3165  -16.6520   22.1841 H   0  0  0  0  0  0
  -34.8319  -16.8427   20.6130 H   0  0  0  0  0  0
  1 25  1  0  0  0
  1 30  2  0  0  0
  1 84  1  0  0  0
  2  3  1  0  0  0
  2 25  1  0  0  0
  2 87  1  0  0  0
  2 88  1  0  0  0
  3  4  1  0  0  0
  3 89  1  0  0  0
  3 90  1  0  0  0
  4  5  1  0  0  0
  4 91  1  0  0  0
  4 92  1  0  0  0
  5  6  1  0  0  0
  5 26  1  0  0  0
  5 93  1  0  0  0
  6 25  1  0  0  0
  6 94  1  0  0  0
  6 95  1  0  0  0
  7  8  2  0  0  0
  7 26  1  0  0  0
  7 29  1  0  0  0
  8  9  1  0  0  0
  8 22  1  0  0  0
  9 10  1  0  0  0
  9 27  2  0  0  0
 10 11  2  0  0  0
 10 15  1  0  0  0
 11 12  1  0  0  0
 11 96  1  0  0  0
 12 13  2  0  0  0
 12 97  1  0  0  0
 13 14  1  0  0  0
 13 31  1  0  0  0
 14 15  2  0  0  0
 14 98  1  0  0  0
 15 99  1  0  0  0
 16 17  2  0  0  0
 16 21  1  0  0  0
 16 31  1  0  0  0
 17 18  1  0  0  0
 17100  1  0  0  0
 18 19  2  0  0  0
 18101  1  0  0  0
 19 20  1  0  0  0
 19 24  1  0  0  0
 20 21  2  0  0  0
 20102  1  0  0  0
 21 23  1  0  0  0
 22 28  1  0  0  0
 22 32  2  0  0  0
 26 27  1  0  0  0
 28103  1  0  0  0
 28104  1  0  0  0
 29105  1  0  0  0
 29106  1  0  0  0
 33 34  1  0  0  0
 33 66  1  0  0  0
 33 70  2  0  0  0
 34 36  1  0  0  0
 34 59  1  0  0  0
 34107  1  0  0  0
 35 44  2  0  0  0
 35 45  1  0  0  0
 35 68  1  0  0  0
 36 56  1  0  0  0
 36108  1  0  0  0
 37 39  1  0  0  0
 37 47  1  0  0  0
 37 66  1  0  0  0
 37109  1  0  0  0
 38 43  2  0  0  0
 38 46  1  0  0  0
 38 47  1  0  0  0
 39 64  1  0  0  0
 39 67  2  0  0  0
 40 52  1  0  0  0
 40 53  2  0  0  0
 40 58  1  0  0  0
 41110  1  0  0  0
 41111  1  0  0  0
 41112  1  0  0  0
 41 48  1  0  0  0
 42 43  1  0  0  0
 42 66  1  0  0  0
 42113  1  0  0  0
 42114  1  0  0  0
 43 44  1  0  0  0
 44115  1  0  0  0
 45 46  2  0  0  0
 45116  1  0  0  0
 46117  1  0  0  0
 47118  1  0  0  0
 47119  1  0  0  0
 48 56  1  0  0  0
 48 65  1  0  0  0
 48120  1  0  0  0
 49 50  1  0  0  0
 49 53  1  0  0  0
 49 64  1  0  0  0
 49121  1  0  0  0
 50 51  1  0  0  0
 50122  1  0  0  0
 50123  1  0  0  0
 51 52  1  0  0  0
 51124  1  0  0  0
 51125  1  0  0  0
 52126  1  0  0  0
 52127  1  0  0  0
 53 54  1  0  0  0
 54 55  2  0  0  0
 54128  1  0  0  0
 55 57  1  0  0  0
 55129  1  0  0  0
 56 69  2  0  0  0
 57 58  2  0  0  0
 57130  1  0  0  0
 58131  1  0  0  0
 59 60  1  0  0  0
 59 61  1  0  0  0
 59 62  1  0  0  0
 60132  1  0  0  0
 60133  1  0  0  0
 60134  1  0  0  0
 61135  1  0  0  0
 61136  1  0  0  0
 61137  1  0  0  0
 62138  1  0  0  0
 62139  1  0  0  0
 62140  1  0  0  0
 63 65  1  0  0  0
 63141  1  0  0  0
 63142  1  0  0  0
 63143  1  0  0  0
 64144  1  0  0  0
 65145  1  0  0  0
 68 79  1  0  0  0
 71 72  2  0  0  0
 71 73  1  0  0  0
 71146  1  0  0  0
 72 80  1  0  0  0
 72 81  1  0  0  0
 73 82  2  0  0  0
 73 83  1  0  0  0
 74 81  2  0  0  0
 74 82  1  0  0  0
 74 84  1  0  0  0
 75 77  1  0  0  0
 75 83  1  0  0  0
 75 86  2  0  0  0
 76147  1  0  0  0
 76148  1  0  0  0
 76149  1  0  0  0
 76 80  1  0  0  0
 77 78  1  0  0  0
 77150  1  0  0  0
 77151  1  0  0  0
 78 79  1  0  0  0
 78152  1  0  0  0
 78153  1  0  0  0
 79154  1  0  0  0
 79155  1  0  0  0
 80 85  1  0  0  0
 80156  1  0  0  0
 83157  1  0  0  0
 84158  1  0  0  0
 85159  1  0  0  0
 85160  1  0  0  0
 85161  1  0  0  0
M  CHG  1  85   1
M  ISO  4   1 100  68 101  79 101  84 100
M  END
> <chiral flag>
0

> <version>
0

> <s_m_source_file>
/data/baiqing/PycharmProjects/Reinvent-master-3.2/result/LINK_invent/BTK/process_docking_weight1_custom_product_contain_oxygen_bond_distance_aromatic_linkinvent_7_9_3/rearranged_h_0178.sdf

> <i_m_source_file_index>
62

> <r_mmod_Potential_Energy-OPLS-2005>
-951.10107421875

> <r_mmod_Stretch_Energy-OPLS-2005>
49.0526237487793

> <r_mmod_Bend_Energy-OPLS-2005>
122.583511352539

> <r_mmod_Torsional_Energy-OPLS-2005>
219.804336547852

> <r_mmod_Improper_Torsional_Energy-OPLS-2005>
3.53112125396729

> <r_mmod_Van_der_Waal_Energy-OPLS-2005>
188.157608032227

> <r_mmod_Electrostatic_Energy-OPLS-2005>
-1066.74829101562

> <r_mmod_Solvation_Energy-OPLS-2005>
-490.706237792969

> <b_mmod_Minimization_Converged-OPLS-2005>
0

> <r_mmod_RMS_Derivative-OPLS-2005>
2.331223487854

$$$$
62
                    3D
 Structure written by MMmdl.
151159  0  0  1  0            999 V2000
  -30.5813  -14.7589   20.5293 C   0  0  0  0  0  0
  -30.4495  -12.4793   19.4586 C   0  0  0  0  0  0
  -29.5130  -12.5336   18.2300 C   0  0  0  0  0  0
  -28.0395  -12.3452   18.6448 C   0  0  0  0  0  0
  -27.6506  -13.2252   19.8621 C   0  0  2  0  0  0
  -28.6990  -13.1072   20.9892 C   0  0  0  0  0  0
  -25.2553  -13.8179   20.5704 C   0  0  0  0  0  0
  -24.1826  -13.0435   20.9196 C   0  0  0  0  0  0
  -24.6407  -11.6909   20.8738 C   0  0  0  0  0  0
  -23.9075  -10.4291   21.0402 C   0  0  0  0  0  0
  -24.3623   -9.4206   21.9182 C   0  0  0  0  0  0
  -23.6295   -8.2244   22.0754 C   0  0  0  0  0  0
  -22.4277   -8.0283   21.3544 C   0  0  0  0  0  0
  -21.9914   -9.0257   20.4646 C   0  0  0  0  0  0
  -22.7245  -10.2134   20.3054 C   0  0  0  0  0  0
  -21.6853   -6.0738   22.5279 C   0  0  0  0  0  0
  -21.4015   -6.5641   23.8213 C   0  0  0  0  0  0
  -21.3659   -5.6793   24.9175 C   0  0  0  0  0  0
  -21.6044   -4.3056   24.7225 C   0  0  0  0  0  0
  -21.8819   -3.8148   23.4345 C   0  0  0  0  0  0
  -21.9193   -4.6966   22.3402 C   0  0  0  0  0  0
  -22.7846  -13.5224   21.1856 C   0  0  0  0  0  0
  -22.1661   -4.2151   21.0980 F   0  0  0  0  0  0
  -21.5628   -3.4540   25.7737 F   0  0  0  0  0  0
  -29.9954  -13.5098   20.4228 N   0  0  0  0  0  0
  -26.2988  -12.9375   20.3330 N   0  0  0  0  0  0
  -25.9342  -11.6521   20.5757 N   0  0  0  0  0  0
  -22.0489  -12.8215   22.0412 N   0  0  0  0  0  0
  -25.4258  -15.1904   20.4133 N   0  0  0  0  0  0
  -31.7204  -14.9168   20.0765 O   0  0  0  0  0  0
  -21.6640   -6.8881   21.4242 O   0  0  0  0  0  0
  -22.3531  -14.5531   20.6707 O   0  0  0  0  0  0
  -24.6329  -31.8536   23.1970 C   0  0  0  0  0  0
  -25.9144  -32.4749   23.8326 C   0  0  1  0  0  0
  -27.2278  -27.2597   20.1273 C   0  0  0  0  0  0
  -25.5932  -33.8551   24.2247 N   0  0  0  0  0  0
  -23.4325  -30.4746   21.5396 C   0  0  2  0  0  0
  -24.8854  -28.9220   20.1075 C   0  0  0  0  0  0
  -22.7521  -29.4589   22.4896 C   0  0  0  0  0  0
  -18.0296  -28.1391   22.8482 C   0  0  0  0  0  0
  -24.1489  -36.7281   23.2640 C   0  0  0  0  0  0
  -25.9795  -30.7652   21.3796 C   0  0  0  0  0  0
  -26.0574  -29.3874   20.7206 C   0  0  0  0  0  0
  -27.2349  -28.5674   20.7234 C   0  0  0  0  0  0
  -26.0373  -26.8640   19.4850 C   0  0  0  0  0  0
  -24.8803  -27.6676   19.4777 C   0  0  0  0  0  0
  -23.6538  -29.8074   20.1563 C   0  0  0  0  0  0
  -25.4117  -36.3066   24.0325 C   0  0  1  0  0  0
  -20.5903  -28.3706   23.1260 C   0  0  2  0  0  0
  -20.6783  -26.9419   22.5407 C   0  0  0  0  0  0
  -19.5758  -26.6384   21.5213 C   0  0  0  0  0  0
  -18.1939  -26.7931   22.1625 C   0  0  0  0  0  0
  -19.1550  -28.8865   23.2866 C   0  0  0  0  0  0
  -18.9469  -30.1464   23.8887 C   0  0  0  0  0  0
  -17.6467  -30.6589   24.0561 C   0  0  0  0  0  0
  -25.9058  -34.9437   23.5090 C   0  0  0  0  0  0
  -16.5359  -29.9085   23.6332 C   0  0  0  0  0  0
  -16.7282  -28.6504   23.0353 C   0  0  0  0  0  0
  -26.4506  -31.6577   25.0721 C   0  0  0  0  0  0
  -25.3720  -31.3734   26.1434 C   0  0  0  0  0  0
  -27.0355  -30.2989   24.6221 C   0  0  0  0  0  0
  -27.6053  -32.4322   25.7499 C   0  0  0  0  0  0
  -27.5578  -37.1797   24.8465 C   0  0  0  0  0  0
  -21.4223  -29.3046   22.3644 N   0  0  0  0  0  0
  -26.4290  -37.3767   23.9407 N   0  0  0  0  0  0
  -24.7004  -31.0489   22.0952 N   0  0  0  0  0  0
  -23.4208  -28.8133   23.3009 O   0  0  0  0  0  0
  -28.2569  -26.2892   20.1883 O   0  0  0  0  0  0
  -26.5632  -34.8915   22.4661 O   0  0  0  0  0  0
  -23.5472  -32.1359   23.7254 O   0  0  0  0  0  0
  -30.1786  -18.1542   19.5368 C   0  0  0  0  0  0
  -29.9403  -19.5982   19.4610 C   0  0  0  0  0  0
  -29.8426  -17.5284   20.7230 C   0  0  0  0  0  0
  -29.3917  -20.2035   20.5815 C   0  0  0  0  0  0
  -27.9894  -25.1967   21.0571 C   0  0  0  0  0  0
  -28.2147  -23.8159   21.1553 C   0  0  0  0  0  0
  -28.8986  -22.7666   20.2952 C   0  0  0  0  0  0
  -30.2607  -15.9701   22.7200 C   0  0  0  0  0  0
  -29.8368  -16.0129   21.2371 C   0  0  2  0  0  0
  -29.0103  -21.5217   20.9209 N   0  0  0  0  0  0
  -29.3140  -22.9663   19.1544 O   0  0  0  0  0  0
  -27.6385  -23.3020   22.2572 O   0  0  0  0  0  0
  -30.6652  -17.4930   18.5108 F   0  0  0  0  0  0
  -30.2326  -20.2679   18.3691 F   0  0  0  0  0  0
  -29.1874  -18.8543   21.7441 S   0  0  0  0  0  0
  -31.4840  -12.6334   19.1481 H   0  0  0  0  0  0
  -30.4242  -11.4903   19.9190 H   0  0  0  0  0  0
  -29.7980  -11.7717   17.5035 H   0  0  0  0  0  0
  -29.6299  -13.4948   17.7270 H   0  0  0  0  0  0
  -27.8975  -11.2924   18.8919 H   0  0  0  0  0  0
  -27.3791  -12.5511   17.8017 H   0  0  0  0  0  0
  -27.6587  -14.2569   19.5099 H   0  0  0  0  0  0
  -28.7478  -12.0815   21.3577 H   0  0  0  0  0  0
  -28.4211  -13.7090   21.8540 H   0  0  0  0  0  0
  -25.2768   -9.5681   22.4756 H   0  0  0  0  0  0
  -24.0004   -7.4635   22.7473 H   0  0  0  0  0  0
  -21.0845   -8.8778   19.8952 H   0  0  0  0  0  0
  -22.3707  -10.9674   19.6162 H   0  0  0  0  0  0
  -21.2008   -7.6149   23.9717 H   0  0  0  0  0  0
  -21.1481   -6.0523   25.9077 H   0  0  0  0  0  0
  -22.0598   -2.7611   23.2845 H   0  0  0  0  0  0
  -22.4104  -11.9875   22.4799 H   0  0  0  0  0  0
  -21.1107  -13.1239   22.2618 H   0  0  0  0  0  0
  -24.6590  -15.8449   20.5248 H   0  0  0  0  0  0
  -26.2782  -15.6317   20.0928 H   0  0  0  0  0  0
  -26.7215  -32.5401   23.1071 H   0  0  0  0  0  0
  -25.0073  -33.9685   25.0388 H   0  0  0  0  0  0
  -22.7295  -31.2969   21.3912 H   0  0  0  0  0  0
  -23.3751  -35.9614   23.3302 H   0  0  0  0  0  0
  -24.3578  -36.8905   22.2054 H   0  0  0  0  0  0
  -23.7245  -37.6483   23.6666 H   0  0  0  0  0  0
  -26.1193  -31.5261   20.6106 H   0  0  0  0  0  0
  -26.8559  -30.8152   22.0142 H   0  0  0  0  0  0
  -28.1281  -28.9102   21.2265 H   0  0  0  0  0  0
  -25.9931  -25.8900   19.0180 H   0  0  0  0  0  0
  -23.9836  -27.3034   18.9953 H   0  0  0  0  0  0
  -23.7772  -30.5834   19.4000 H   0  0  0  0  0  0
  -22.7733  -29.2393   19.8509 H   0  0  0  0  0  0
  -25.1301  -36.1910   25.0819 H   0  0  0  0  0  0
  -20.9996  -28.3287   24.1381 H   0  0  0  0  0  0
  -20.5682  -26.2317   23.3616 H   0  0  0  0  0  0
  -21.6651  -26.7439   22.1202 H   0  0  0  0  0  0
  -19.6918  -25.6292   21.1249 H   0  0  0  0  0  0
  -19.6694  -27.3189   20.6738 H   0  0  0  0  0  0
  -17.4208  -26.6675   21.4029 H   0  0  0  0  0  0
  -18.0339  -26.0077   22.9026 H   0  0  0  0  0  0
  -19.7945  -30.7283   24.2252 H   0  0  0  0  0  0
  -17.5021  -31.6268   24.5165 H   0  0  0  0  0  0
  -15.5359  -30.2984   23.7662 H   0  0  0  0  0  0
  -15.8682  -28.0819   22.7073 H   0  0  0  0  0  0
  -24.5905  -30.7072   25.7761 H   0  0  0  0  0  0
  -24.8901  -32.2905   26.4830 H   0  0  0  0  0  0
  -25.8031  -30.8932   27.0227 H   0  0  0  0  0  0
  -26.2947  -29.6733   24.1227 H   0  0  0  0  0  0
  -27.4008  -29.7256   25.4752 H   0  0  0  0  0  0
  -27.8838  -30.4253   23.9489 H   0  0  0  0  0  0
  -27.2655  -33.3629   26.2055 H   0  0  0  0  0  0
  -28.3876  -32.6872   25.0338 H   0  0  0  0  0  0
  -28.0706  -31.8460   26.5433 H   0  0  0  0  0  0
  -28.2596  -38.0093   24.7507 H   0  0  0  0  0  0
  -28.1073  -36.2624   24.6298 H   0  0  0  0  0  0
  -27.2295  -37.1454   25.8868 H   0  0  0  0  0  0
  -20.9414  -29.8765   21.6840 H   0  0  0  0  0  0
  -26.0166  -38.2841   24.1404 H   0  0  0  0  0  0
  -27.4307  -25.6103   21.8882 H   0  0  0  0  0  0
  -29.5597  -16.5124   23.3537 H   0  0  0  0  0  0
  -31.2479  -16.4123   22.8578 H   0  0  0  0  0  0
  -30.3018  -14.9510   23.1077 H   0  0  0  0  0  0
  -28.7819  -15.7492   21.2137 H   0  0  0  0  0  0
  -28.7469  -21.5966   21.8921 H   0  0  0  0  0  0
  -27.3867  -22.4104   22.0530 H   0  0  0  0  0  0
  1 25  1  0  0  0
  1 30  2  0  0  0
  1 79  1  0  0  0
  2  3  1  0  0  0
  2 25  1  0  0  0
  2 86  1  0  0  0
  2 87  1  0  0  0
  3  4  1  0  0  0
  3 88  1  0  0  0
  3 89  1  0  0  0
  4  5  1  0  0  0
  4 90  1  0  0  0
  4 91  1  0  0  0
  5  6  1  0  0  0
  5 26  1  0  0  0
  5 92  1  0  0  0
  6 25  1  0  0  0
  6 93  1  0  0  0
  6 94  1  0  0  0
  7  8  2  0  0  0
  7 26  1  0  0  0
  7 29  1  0  0  0
  8  9  1  0  0  0
  8 22  1  0  0  0
  9 10  1  0  0  0
  9 27  2  0  0  0
 10 11  2  0  0  0
 10 15  1  0  0  0
 11 12  1  0  0  0
 11 95  1  0  0  0
 12 13  2  0  0  0
 12 96  1  0  0  0
 13 14  1  0  0  0
 13 31  1  0  0  0
 14 15  2  0  0  0
 14 97  1  0  0  0
 15 98  1  0  0  0
 16 17  2  0  0  0
 16 21  1  0  0  0
 16 31  1  0  0  0
 17 18  1  0  0  0
 17 99  1  0  0  0
 18 19  2  0  0  0
 18100  1  0  0  0
 19 20  1  0  0  0
 19 24  1  0  0  0
 20 21  2  0  0  0
 20101  1  0  0  0
 21 23  1  0  0  0
 22 28  1  0  0  0
 22 32  2  0  0  0
 26 27  1  0  0  0
 28102  1  0  0  0
 28103  1  0  0  0
 29104  1  0  0  0
 29105  1  0  0  0
 33 34  1  0  0  0
 33 66  1  0  0  0
 33 70  2  0  0  0
 34 36  1  0  0  0
 34 59  1  0  0  0
 34106  1  0  0  0
 35 44  2  0  0  0
 35 45  1  0  0  0
 35 68  1  0  0  0
 36 56  1  0  0  0
 36107  1  0  0  0
 37 39  1  0  0  0
 37 47  1  0  0  0
 37 66  1  0  0  0
 37108  1  0  0  0
 38 43  2  0  0  0
 38 46  1  0  0  0
 38 47  1  0  0  0
 39 64  1  0  0  0
 39 67  2  0  0  0
 40 52  1  0  0  0
 40 53  2  0  0  0
 40 58  1  0  0  0
 41109  1  0  0  0
 41110  1  0  0  0
 41111  1  0  0  0
 41 48  1  0  0  0
 42 43  1  0  0  0
 42 66  1  0  0  0
 42112  1  0  0  0
 42113  1  0  0  0
 43 44  1  0  0  0
 44114  1  0  0  0
 45 46  2  0  0  0
 45115  1  0  0  0
 46116  1  0  0  0
 47117  1  0  0  0
 47118  1  0  0  0
 48 56  1  0  0  0
 48 65  1  0  0  0
 48119  1  0  0  0
 49 50  1  0  0  0
 49 53  1  0  0  0
 49 64  1  0  0  0
 49120  1  0  0  0
 50 51  1  0  0  0
 50121  1  0  0  0
 50122  1  0  0  0
 51 52  1  0  0  0
 51123  1  0  0  0
 51124  1  0  0  0
 52125  1  0  0  0
 52126  1  0  0  0
 53 54  1  0  0  0
 54 55  2  0  0  0
 54127  1  0  0  0
 55 57  1  0  0  0
 55128  1  0  0  0
 56 69  2  0  0  0
 57 58  2  0  0  0
 57129  1  0  0  0
 58130  1  0  0  0
 59 60  1  0  0  0
 59 61  1  0  0  0
 59 62  1  0  0  0
 60131  1  0  0  0
 60132  1  0  0  0
 60133  1  0  0  0
 61134  1  0  0  0
 61135  1  0  0  0
 61136  1  0  0  0
 62137  1  0  0  0
 62138  1  0  0  0
 62139  1  0  0  0
 63 65  1  0  0  0
 63140  1  0  0  0
 63141  1  0  0  0
 63142  1  0  0  0
 64143  1  0  0  0
 65144  1  0  0  0
 68 75  1  0  0  0
 71 72  1  0  0  0
 71 73  2  0  0  0
 71 83  1  0  0  0
 72 74  2  0  0  0
 72 84  1  0  0  0
 73 79  1  0  0  0
 73 85  1  0  0  0
 74 80  1  0  0  0
 74 85  1  0  0  0
 75 76  2  0  0  0
 75145  1  0  0  0
 76 77  1  0  0  0
 76 82  1  0  0  0
 77 80  1  0  0  0
 77 81  2  0  0  0
 78146  1  0  0  0
 78147  1  0  0  0
 78148  1  0  0  0
 78 79  1  0  0  0
 79149  1  0  0  0
 80150  1  0  0  0
 82151  1  0  0  0
M  ISO  4   1 100  68 101  75 101  79 100
M  END
> <chiral flag>
0

> <version>
0

> <s_m_source_file>
/data/baiqing/PycharmProjects/Reinvent-master-3.2/result/LINK_invent/BTK/process_docking_weight1_custom_product_contain_oxygen_bond_distance_aromatic_linkinvent_7_9_3/rearranged_h_0178.sdf

> <i_m_source_file_index>
63

> <r_mmod_Potential_Energy-OPLS-2005>
238.530563354492

> <r_mmod_Stretch_Energy-OPLS-2005>
126.141448974609

> <r_mmod_Bend_Energy-OPLS-2005>
262.414764404297

> <r_mmod_Torsional_Energy-OPLS-2005>
190.688201904297

> <r_mmod_Improper_Torsional_Energy-OPLS-2005>
2.32847857475281

> <r_mmod_Van_der_Waal_Energy-OPLS-2005>
120.878692626953

> <r_mmod_Electrostatic_Energy-OPLS-2005>
-320.606079101562

> <r_mmod_Solvation_Energy-OPLS-2005>
-237.445724487305

> <b_mmod_Minimization_Converged-OPLS-2005>
0

> <r_mmod_RMS_Derivative-OPLS-2005>
0.174528762698174

$$$$
63
                    3D
 Structure written by MMmdl.
152160  0  0  1  0            999 V2000
  -30.7082  -14.6110   20.4923 C   0  0  0  0  0  0
  -30.4095  -12.3790   19.4505 C   0  0  0  0  0  0
  -29.4916  -12.4882   18.2180 C   0  0  0  0  0  0
  -28.0176  -12.3353   18.6365 C   0  0  0  0  0  0
  -27.6413  -13.2285   19.8492 C   0  0  2  0  0  0
  -28.6906  -13.1427   20.9799 C   0  0  0  0  0  0
  -25.2500  -13.8189   20.5711 C   0  0  0  0  0  0
  -24.1787  -13.0438   20.9212 C   0  0  0  0  0  0
  -24.6377  -11.6916   20.8746 C   0  0  0  0  0  0
  -23.9057  -10.4295   21.0396 C   0  0  0  0  0  0
  -24.3612   -9.4214   21.9173 C   0  0  0  0  0  0
  -23.6294   -8.2245   22.0745 C   0  0  0  0  0  0
  -22.4276   -8.0280   21.3538 C   0  0  0  0  0  0
  -21.9903   -9.0245   20.4636 C   0  0  0  0  0  0
  -22.7226  -10.2129   20.3045 C   0  0  0  0  0  0
  -21.6858   -6.0731   22.5275 C   0  0  0  0  0  0
  -21.4021   -6.5640   23.8206 C   0  0  0  0  0  0
  -21.3656   -5.6793   24.9171 C   0  0  0  0  0  0
  -21.6048   -4.3055   24.7224 C   0  0  0  0  0  0
  -21.8819   -3.8145   23.4345 C   0  0  0  0  0  0
  -21.9197   -4.6960   22.3401 C   0  0  0  0  0  0
  -22.7813  -13.5224   21.1875 C   0  0  0  0  0  0
  -22.1667   -4.2147   21.0977 F   0  0  0  0  0  0
  -21.5623   -3.4539   25.7735 F   0  0  0  0  0  0
  -30.0002  -13.4429   20.3892 N   0  0  0  0  0  0
  -26.2933  -12.9400   20.3302 N   0  0  0  0  0  0
  -25.9311  -11.6547   20.5761 N   0  0  0  0  0  0
  -22.0465  -12.8201   22.0425 N   0  0  0  0  0  0
  -25.4181  -15.1911   20.4156 N   0  0  0  0  0  0
  -31.8995  -14.6249   20.1743 O   0  0  0  0  0  0
  -21.6645   -6.8872   21.4235 O   0  0  0  0  0  0
  -22.3490  -14.5522   20.6718 O   0  0  0  0  0  0
  -24.6221  -31.8634   23.2043 C   0  0  0  0  0  0
  -25.9086  -32.4798   23.8363 C   0  0  1  0  0  0
  -27.2235  -27.3625   20.1107 C   0  0  0  0  0  0
  -25.5922  -33.8595   24.2300 N   0  0  0  0  0  0
  -23.4144  -30.4859   21.5457 C   0  0  2  0  0  0
  -24.8625  -28.9427   20.1128 C   0  0  0  0  0  0
  -22.7456  -29.4640   22.4948 C   0  0  0  0  0  0
  -18.0288  -28.1378   22.8499 C   0  0  0  0  0  0
  -24.1490  -36.7300   23.2639 C   0  0  0  0  0  0
  -25.9506  -30.8055   21.3704 C   0  0  0  0  0  0
  -26.0277  -29.4338   20.7188 C   0  0  0  0  0  0
  -27.2158  -28.6509   20.7166 C   0  0  0  0  0  0
  -26.0456  -26.9088   19.4895 C   0  0  0  0  0  0
  -24.8700  -27.6827   19.4909 C   0  0  0  0  0  0
  -23.6279  -29.8186   20.1610 C   0  0  0  0  0  0
  -25.4114  -36.3097   24.0337 C   0  0  1  0  0  0
  -20.5887  -28.3678   23.1296 C   0  0  2  0  0  0
  -20.6772  -26.9403   22.5411 C   0  0  0  0  0  0
  -19.5742  -26.6384   21.5214 C   0  0  0  0  0  0
  -18.1927  -26.7922   22.1633 C   0  0  0  0  0  0
  -19.1540  -28.8842   23.2898 C   0  0  0  0  0  0
  -18.9461  -30.1447   23.8913 C   0  0  0  0  0  0
  -17.6463  -30.6582   24.0562 C   0  0  0  0  0  0
  -25.9040  -34.9462   23.5110 C   0  0  0  0  0  0
  -16.5355  -29.9083   23.6323 C   0  0  0  0  0  0
  -16.7276  -28.6495   23.0354 C   0  0  0  0  0  0
  -26.4491  -31.6588   25.0713 C   0  0  0  0  0  0
  -25.3739  -31.3712   26.1447 C   0  0  0  0  0  0
  -27.0311  -30.3010   24.6132 C   0  0  0  0  0  0
  -27.6070  -32.4301   25.7489 C   0  0  0  0  0  0
  -27.5572  -37.1820   24.8479 C   0  0  0  0  0  0
  -21.4175  -29.3043   22.3689 N   0  0  0  0  0  0
  -26.4303  -37.3779   23.9389 N   0  0  0  0  0  0
  -24.6808  -31.0676   22.0978 N   0  0  0  0  0  0
  -23.4188  -28.8183   23.3024 O   0  0  0  0  0  0
  -28.3066  -26.4947   20.0928 O   0  0  0  0  0  0
  -26.5597  -34.8929   22.4672 O   0  0  0  0  0  0
  -23.5394  -32.1420   23.7391 O   0  0  0  0  0  0
  -28.4872  -20.1350   19.8788 C   0  0  0  0  0  0
  -28.7746  -18.7131   19.8178 C   0  0  0  0  0  0
  -29.7815  -18.3107   20.6760 C   0  0  0  0  0  0
  -29.2700  -20.8621   20.7519 C   0  0  0  0  0  0
  -28.5681  -25.8094   21.2670 C   0  0  0  0  0  0
  -30.5654  -17.0213   20.9065 C   0  0  0  0  0  0
  -28.7533  -24.4737   21.5259 C   0  0  0  0  0  0
  -28.6695  -23.3138   20.5933 C   0  0  0  0  0  0
  -28.0566  -17.7919   18.8762 C   0  0  0  0  0  0
  -29.2765  -22.1982   21.1049 N   0  0  0  0  0  0
  -30.0161  -15.7797   20.7032 N   0  0  0  0  0  0
  -31.7285  -17.1543   21.3066 O   0  0  0  0  0  0
  -28.1131  -23.3231   19.4935 O   0  0  0  0  0  0
  -28.9953  -24.1770   22.8148 O   0  0  0  0  0  0
  -30.3837  -19.7396   21.5278 S   0  0  0  0  0  0
  -31.4541  -12.4567   19.1454 H   0  0  0  0  0  0
  -30.3104  -11.4004   19.9222 H   0  0  0  0  0  0
  -29.7522  -11.7245   17.4838 H   0  0  0  0  0  0
  -29.6395  -13.4518   17.7277 H   0  0  0  0  0  0
  -27.8570  -11.2861   18.8862 H   0  0  0  0  0  0
  -27.3604  -12.5488   17.7922 H   0  0  0  0  0  0
  -27.6431  -14.2534   19.4784 H   0  0  0  0  0  0
  -28.6971  -12.1495   21.4316 H   0  0  0  0  0  0
  -28.4496  -13.8415   21.7825 H   0  0  0  0  0  0
  -25.2753   -9.5708   22.4744 H   0  0  0  0  0  0
  -24.0013   -7.4644   22.7466 H   0  0  0  0  0  0
  -21.0838   -8.8759   19.8940 H   0  0  0  0  0  0
  -22.3677  -10.9667   19.6156 H   0  0  0  0  0  0
  -21.2016   -7.6146   23.9711 H   0  0  0  0  0  0
  -21.1477   -6.0520   25.9072 H   0  0  0  0  0  0
  -22.0600   -2.7608   23.2843 H   0  0  0  0  0  0
  -22.4106  -11.9870   22.4808 H   0  0  0  0  0  0
  -21.1072  -13.1198   22.2631 H   0  0  0  0  0  0
  -24.6487  -15.8423   20.5294 H   0  0  0  0  0  0
  -26.2650  -15.6323   20.0862 H   0  0  0  0  0  0
  -26.7156  -32.5498   23.1124 H   0  0  0  0  0  0
  -25.0107  -33.9750   25.0469 H   0  0  0  0  0  0
  -22.7066  -31.3054   21.4021 H   0  0  0  0  0  0
  -23.3739  -35.9648   23.3351 H   0  0  0  0  0  0
  -24.3564  -36.8856   22.2037 H   0  0  0  0  0  0
  -23.7266  -37.6536   23.6612 H   0  0  0  0  0  0
  -26.0727  -31.5674   20.5992 H   0  0  0  0  0  0
  -26.8345  -30.8607   21.9936 H   0  0  0  0  0  0
  -28.1144  -29.0217   21.1883 H   0  0  0  0  0  0
  -26.0368  -25.9352   19.0198 H   0  0  0  0  0  0
  -23.9774  -27.3017   19.0148 H   0  0  0  0  0  0
  -23.7432  -30.5929   19.4014 H   0  0  0  0  0  0
  -22.7507  -29.2432   19.8610 H   0  0  0  0  0  0
  -25.1300  -36.1968   25.0830 H   0  0  0  0  0  0
  -20.9997  -28.3246   24.1412 H   0  0  0  0  0  0
  -20.5663  -26.2294   23.3609 H   0  0  0  0  0  0
  -21.6640  -26.7423   22.1209 H   0  0  0  0  0  0
  -19.6896  -25.6299   21.1236 H   0  0  0  0  0  0
  -19.6668  -27.3199   20.6743 H   0  0  0  0  0  0
  -17.4195  -26.6683   21.4038 H   0  0  0  0  0  0
  -18.0324  -26.0056   22.9020 H   0  0  0  0  0  0
  -19.7935  -30.7262   24.2287 H   0  0  0  0  0  0
  -17.5011  -31.6267   24.5157 H   0  0  0  0  0  0
  -15.5350  -30.2984   23.7630 H   0  0  0  0  0  0
  -15.8682  -28.0807   22.7063 H   0  0  0  0  0  0
  -24.5926  -30.7048   25.7778 H   0  0  0  0  0  0
  -24.8921  -32.2873   26.4869 H   0  0  0  0  0  0
  -25.8083  -30.8901   27.0217 H   0  0  0  0  0  0
  -26.2864  -29.6795   24.1143 H   0  0  0  0  0  0
  -27.4003  -29.7235   25.4619 H   0  0  0  0  0  0
  -27.8746  -30.4302   23.9345 H   0  0  0  0  0  0
  -27.2686  -33.3586   26.2101 H   0  0  0  0  0  0
  -28.3874  -32.6864   25.0312 H   0  0  0  0  0  0
  -28.0744  -31.8396   26.5378 H   0  0  0  0  0  0
  -28.2651  -38.0055   24.7436 H   0  0  0  0  0  0
  -28.1007  -36.2583   24.6428 H   0  0  0  0  0  0
  -27.2278  -37.1628   25.8883 H   0  0  0  0  0  0
  -20.9338  -29.8767   21.6908 H   0  0  0  0  0  0
  -26.0201  -38.2876   24.1329 H   0  0  0  0  0  0
  -27.7120  -20.5737   19.2654 H   0  0  0  0  0  0
  -28.6345  -26.5176   22.0824 H   0  0  0  0  0  0
  -27.5654  -18.3419   18.0732 H   0  0  0  0  0  0
  -27.2883  -17.2222   19.3964 H   0  0  0  0  0  0
  -28.7377  -17.0842   18.4032 H   0  0  0  0  0  0
  -29.8598  -22.4106   21.9027 H   0  0  0  0  0  0
  -29.0149  -15.7345   20.6473 H   0  0  0  0  0  0
  -28.7616  -23.2651   22.9399 H   0  0  0  0  0  0
  1 25  1  0  0  0
  1 30  2  0  0  0
  1 81  1  0  0  0
  2  3  1  0  0  0
  2 25  1  0  0  0
  2 86  1  0  0  0
  2 87  1  0  0  0
  3  4  1  0  0  0
  3 88  1  0  0  0
  3 89  1  0  0  0
  4  5  1  0  0  0
  4 90  1  0  0  0
  4 91  1  0  0  0
  5  6  1  0  0  0
  5 26  1  0  0  0
  5 92  1  0  0  0
  6 25  1  0  0  0
  6 93  1  0  0  0
  6 94  1  0  0  0
  7  8  2  0  0  0
  7 26  1  0  0  0
  7 29  1  0  0  0
  8  9  1  0  0  0
  8 22  1  0  0  0
  9 10  1  0  0  0
  9 27  2  0  0  0
 10 11  2  0  0  0
 10 15  1  0  0  0
 11 12  1  0  0  0
 11 95  1  0  0  0
 12 13  2  0  0  0
 12 96  1  0  0  0
 13 14  1  0  0  0
 13 31  1  0  0  0
 14 15  2  0  0  0
 14 97  1  0  0  0
 15 98  1  0  0  0
 16 17  2  0  0  0
 16 21  1  0  0  0
 16 31  1  0  0  0
 17 18  1  0  0  0
 17 99  1  0  0  0
 18 19  2  0  0  0
 18100  1  0  0  0
 19 20  1  0  0  0
 19 24  1  0  0  0
 20 21  2  0  0  0
 20101  1  0  0  0
 21 23  1  0  0  0
 22 28  1  0  0  0
 22 32  2  0  0  0
 26 27  1  0  0  0
 28102  1  0  0  0
 28103  1  0  0  0
 29104  1  0  0  0
 29105  1  0  0  0
 33 34  1  0  0  0
 33 66  1  0  0  0
 33 70  2  0  0  0
 34 36  1  0  0  0
 34 59  1  0  0  0
 34106  1  0  0  0
 35 44  2  0  0  0
 35 45  1  0  0  0
 35 68  1  0  0  0
 36 56  1  0  0  0
 36107  1  0  0  0
 37 39  1  0  0  0
 37 47  1  0  0  0
 37 66  1  0  0  0
 37108  1  0  0  0
 38 43  2  0  0  0
 38 46  1  0  0  0
 38 47  1  0  0  0
 39 64  1  0  0  0
 39 67  2  0  0  0
 40 52  1  0  0  0
 40 53  2  0  0  0
 40 58  1  0  0  0
 41109  1  0  0  0
 41110  1  0  0  0
 41111  1  0  0  0
 41 48  1  0  0  0
 42 43  1  0  0  0
 42 66  1  0  0  0
 42112  1  0  0  0
 42113  1  0  0  0
 43 44  1  0  0  0
 44114  1  0  0  0
 45 46  2  0  0  0
 45115  1  0  0  0
 46116  1  0  0  0
 47117  1  0  0  0
 47118  1  0  0  0
 48 56  1  0  0  0
 48 65  1  0  0  0
 48119  1  0  0  0
 49 50  1  0  0  0
 49 53  1  0  0  0
 49 64  1  0  0  0
 49120  1  0  0  0
 50 51  1  0  0  0
 50121  1  0  0  0
 50122  1  0  0  0
 51 52  1  0  0  0
 51123  1  0  0  0
 51124  1  0  0  0
 52125  1  0  0  0
 52126  1  0  0  0
 53 54  1  0  0  0
 54 55  2  0  0  0
 54127  1  0  0  0
 55 57  1  0  0  0
 55128  1  0  0  0
 56 69  2  0  0  0
 57 58  2  0  0  0
 57129  1  0  0  0
 58130  1  0  0  0
 59 60  1  0  0  0
 59 61  1  0  0  0
 59 62  1  0  0  0
 60131  1  0  0  0
 60132  1  0  0  0
 60133  1  0  0  0
 61134  1  0  0  0
 61135  1  0  0  0
 61136  1  0  0  0
 62137  1  0  0  0
 62138  1  0  0  0
 62139  1  0  0  0
 63 65  1  0  0  0
 63140  1  0  0  0
 63141  1  0  0  0
 63142  1  0  0  0
 64143  1  0  0  0
 65144  1  0  0  0
 68 75  1  0  0  0
 71 72  1  0  0  0
 71 74  2  0  0  0
 71145  1  0  0  0
 72 73  2  0  0  0
 72 79  1  0  0  0
 73 76  1  0  0  0
 73 85  1  0  0  0
 74 80  1  0  0  0
 74 85  1  0  0  0
 75 77  2  0  0  0
 75146  1  0  0  0
 76 81  1  0  0  0
 76 82  2  0  0  0
 77 78  1  0  0  0
 77 84  1  0  0  0
 78 80  1  0  0  0
 78 83  2  0  0  0
 79147  1  0  0  0
 79148  1  0  0  0
 79149  1  0  0  0
 80150  1  0  0  0
 81151  1  0  0  0
 84152  1  0  0  0
M  ISO  4   1 100  68 101  75 101  81 100
M  END
> <chiral flag>
0

> <version>
0

> <s_m_source_file>
/data/baiqing/PycharmProjects/Reinvent-master-3.2/result/LINK_invent/BTK/process_docking_weight1_custom_product_contain_oxygen_bond_distance_aromatic_linkinvent_7_9_3/rearranged_h_0178.sdf

> <i_m_source_file_index>
64

> <r_mmod_Potential_Energy-OPLS-2005>
-45.6430435180664

> <r_mmod_Stretch_Energy-OPLS-2005>
59.8797950744629

> <r_mmod_Bend_Energy-OPLS-2005>
156.335464477539

> <r_mmod_Torsional_Energy-OPLS-2005>
258.170166015625

> <r_mmod_Improper_Torsional_Energy-OPLS-2005>
6.36974430084229

> <r_mmod_Van_der_Waal_Energy-OPLS-2005>
128.603286743164

> <r_mmod_Electrostatic_Energy-OPLS-2005>
-444.047973632812

> <r_mmod_Solvation_Energy-OPLS-2005>
-255.168579101562

> <b_mmod_Minimization_Converged-OPLS-2005>
0

> <r_mmod_RMS_Derivative-OPLS-2005>
1.43924236297607

$$$$
64
                    3D
 Structure written by MMmdl.
154162  0  0  1  0            999 V2000
  -30.6380  -14.5632   20.6039 C   0  0  0  0  0  0
  -30.4501  -12.3736   19.4285 C   0  0  0  0  0  0
  -29.5090  -12.5356   18.2135 C   0  0  0  0  0  0
  -28.0298  -12.3757   18.6204 C   0  0  0  0  0  0
  -27.6661  -13.2061   19.8791 C   0  0  2  0  0  0
  -28.7091  -12.9714   20.9947 C   0  0  0  0  0  0
  -25.2613  -13.8142   20.5672 C   0  0  0  0  0  0
  -24.1862  -13.0427   20.9159 C   0  0  0  0  0  0
  -24.6403  -11.6888   20.8702 C   0  0  0  0  0  0
  -23.9051  -10.4282   21.0378 C   0  0  0  0  0  0
  -24.3608   -9.4207   21.9166 C   0  0  0  0  0  0
  -23.6284   -8.2246   22.0744 C   0  0  0  0  0  0
  -22.4266   -8.0282   21.3541 C   0  0  0  0  0  0
  -21.9899   -9.0242   20.4639 C   0  0  0  0  0  0
  -22.7218  -10.2126   20.3036 C   0  0  0  0  0  0
  -21.6855   -6.0732   22.5281 C   0  0  0  0  0  0
  -21.4016   -6.5628   23.8219 C   0  0  0  0  0  0
  -21.3660   -5.6782   24.9177 C   0  0  0  0  0  0
  -21.6047   -4.3046   24.7224 C   0  0  0  0  0  0
  -21.8819   -3.8135   23.4345 C   0  0  0  0  0  0
  -21.9193   -4.6959   22.3401 C   0  0  0  0  0  0
  -22.7888  -13.5247   21.1800 C   0  0  0  0  0  0
  -22.1672   -4.2146   21.0977 F   0  0  0  0  0  0
  -21.5618   -3.4530   25.7733 F   0  0  0  0  0  0
  -30.0381  -13.3384   20.4646 N   0  0  0  0  0  0
  -26.3056  -12.9307   20.3362 N   0  0  0  0  0  0
  -25.9328  -11.6461   20.5719 N   0  0  0  0  0  0
  -22.0505  -12.8264   22.0353 N   0  0  0  0  0  0
  -25.4291  -15.1864   20.4073 N   0  0  0  0  0  0
  -31.7074  -14.8342   20.0438 O   0  0  0  0  0  0
  -21.6633   -6.8877   21.4243 O   0  0  0  0  0  0
  -22.3594  -14.5553   20.6632 O   0  0  0  0  0  0
  -24.6217  -31.8647   23.2050 C   0  0  0  0  0  0
  -25.9079  -32.4819   23.8371 C   0  0  1  0  0  0
  -27.2324  -27.3734   20.1131 C   0  0  0  0  0  0
  -25.5909  -33.8614   24.2311 N   0  0  0  0  0  0
  -23.4143  -30.4850   21.5480 C   0  0  2  0  0  0
  -24.8618  -28.9408   20.1157 C   0  0  0  0  0  0
  -22.7458  -29.4645   22.4983 C   0  0  0  0  0  0
  -18.0285  -28.1389   22.8499 C   0  0  0  0  0  0
  -24.1485  -36.7306   23.2642 C   0  0  0  0  0  0
  -25.9480  -30.8126   21.3650 C   0  0  0  0  0  0
  -26.0266  -29.4405   20.7138 C   0  0  0  0  0  0
  -27.2193  -28.6678   20.7010 C   0  0  0  0  0  0
  -26.0515  -26.9040   19.5037 C   0  0  0  0  0  0
  -24.8732  -27.6760   19.5019 C   0  0  0  0  0  0
  -23.6264  -29.8152   20.1635 C   0  0  0  0  0  0
  -25.4111  -36.3116   24.0344 C   0  0  1  0  0  0
  -20.5882  -28.3686   23.1316 C   0  0  2  0  0  0
  -20.6782  -26.9421   22.5422 C   0  0  0  0  0  0
  -19.5755  -26.6393   21.5225 C   0  0  0  0  0  0
  -18.1930  -26.7935   22.1632 C   0  0  0  0  0  0
  -19.1535  -28.8855   23.2901 C   0  0  0  0  0  0
  -18.9457  -30.1457   23.8914 C   0  0  0  0  0  0
  -17.6457  -30.6597   24.0565 C   0  0  0  0  0  0
  -25.9042  -34.9481   23.5131 C   0  0  0  0  0  0
  -16.5349  -29.9097   23.6326 C   0  0  0  0  0  0
  -16.7272  -28.6513   23.0352 C   0  0  0  0  0  0
  -26.4466  -31.6608   25.0720 C   0  0  0  0  0  0
  -25.3695  -31.3728   26.1445 C   0  0  0  0  0  0
  -27.0313  -30.3056   24.6117 C   0  0  0  0  0  0
  -27.6055  -32.4315   25.7476 C   0  0  0  0  0  0
  -27.5586  -37.1813   24.8467 C   0  0  0  0  0  0
  -21.4177  -29.3043   22.3718 N   0  0  0  0  0  0
  -26.4297  -37.3802   23.9414 N   0  0  0  0  0  0
  -24.6804  -31.0693   22.0977 N   0  0  0  0  0  0
  -23.4199  -28.8194   23.3054 O   0  0  0  0  0  0
  -28.3624  -26.5672   20.0962 O   0  0  0  0  0  0
  -26.5604  -34.8941   22.4693 O   0  0  0  0  0  0
  -23.5389  -32.1427   23.7394 O   0  0  0  0  0  0
  -27.7875  -18.1302   22.3733 C   0  0  0  0  0  0
  -28.3937  -16.8759   22.2534 C   0  0  0  0  0  0
  -29.5168  -16.7585   21.4183 C   0  0  0  0  0  0
  -29.3333  -19.0665   20.9608 C   0  0  0  0  0  0
  -29.8525  -20.4273   20.3548 C   0  0  0  0  0  0
  -28.6768  -24.0155   20.1572 C   0  0  0  0  0  0
  -31.1213  -23.2914   20.5041 C   0  0  0  0  0  0
  -28.2839  -25.3450   20.8958 C   0  0  0  0  0  0
  -29.6537  -23.0130   20.8854 C   0  0  2  0  0  0
  -28.2583  -19.2137   21.7385 N   0  0  0  0  0  0
  -29.9814  -17.8795   20.7709 N   0  0  0  0  0  0
  -29.9998  -15.3985   21.4583 N   0  0  0  0  0  0
  -29.3059  -21.5490   20.9054 N   0  0  0  0  0  0
  -30.7401  -20.4395   19.4960 O   0  0  0  0  0  0
  -28.2242  -23.7821   19.0320 O   0  0  0  0  0  0
  -27.9135  -15.8004   22.9286 F   0  0  0  0  0  0
  -31.4891  -12.5178   19.1270 H   0  0  0  0  0  0
  -30.3959  -11.3562   19.8187 H   0  0  0  0  0  0
  -29.7633  -11.8075   17.4418 H   0  0  0  0  0  0
  -29.6591  -13.5202   17.7671 H   0  0  0  0  0  0
  -27.8472  -11.3178   18.8105 H   0  0  0  0  0  0
  -27.3792  -12.6506   17.7890 H   0  0  0  0  0  0
  -27.7076  -14.2573   19.5930 H   0  0  0  0  0  0
  -28.7094  -11.9209   21.2911 H   0  0  0  0  0  0
  -28.4335  -13.5114   21.8999 H   0  0  0  0  0  0
  -25.2747   -9.5706   22.4747 H   0  0  0  0  0  0
  -23.9991   -7.4646   22.7471 H   0  0  0  0  0  0
  -21.0825   -8.8762   19.8957 H   0  0  0  0  0  0
  -22.3661  -10.9666   19.6152 H   0  0  0  0  0  0
  -21.2023   -7.6139   23.9725 H   0  0  0  0  0  0
  -21.1477   -6.0504   25.9083 H   0  0  0  0  0  0
  -22.0599   -2.7596   23.2834 H   0  0  0  0  0  0
  -22.4093  -11.9953   22.4816 H   0  0  0  0  0  0
  -21.1123  -13.1338   22.2496 H   0  0  0  0  0  0
  -24.6529  -15.8321   20.5033 H   0  0  0  0  0  0
  -26.2754  -15.6270   20.0745 H   0  0  0  0  0  0
  -26.7152  -32.5515   23.1133 H   0  0  0  0  0  0
  -25.0059  -33.9751   25.0459 H   0  0  0  0  0  0
  -22.7072  -31.3043   21.4058 H   0  0  0  0  0  0
  -23.3758  -35.9626   23.3307 H   0  0  0  0  0  0
  -24.3579  -36.8913   22.2053 H   0  0  0  0  0  0
  -23.7215  -37.6508   23.6643 H   0  0  0  0  0  0
  -26.0627  -31.5742   20.5921 H   0  0  0  0  0  0
  -26.8358  -30.8719   21.9833 H   0  0  0  0  0  0
  -28.1211  -29.0515   21.1580 H   0  0  0  0  0  0
  -26.0443  -25.9330   19.0283 H   0  0  0  0  0  0
  -23.9817  -27.2895   19.0279 H   0  0  0  0  0  0
  -23.7407  -30.5899   19.4041 H   0  0  0  0  0  0
  -22.7481  -29.2391   19.8669 H   0  0  0  0  0  0
  -25.1283  -36.1988   25.0835 H   0  0  0  0  0  0
  -20.9969  -28.3252   24.1440 H   0  0  0  0  0  0
  -20.5715  -26.2289   23.3611 H   0  0  0  0  0  0
  -21.6651  -26.7484   22.1202 H   0  0  0  0  0  0
  -19.6919  -25.6304   21.1255 H   0  0  0  0  0  0
  -19.6689  -27.3204   20.6755 H   0  0  0  0  0  0
  -17.4208  -26.6698   21.4021 H   0  0  0  0  0  0
  -18.0319  -26.0076   22.9027 H   0  0  0  0  0  0
  -19.7927  -30.7272   24.2302 H   0  0  0  0  0  0
  -17.5009  -31.6280   24.5160 H   0  0  0  0  0  0
  -15.5348  -30.3002   23.7644 H   0  0  0  0  0  0
  -15.8672  -28.0833   22.7063 H   0  0  0  0  0  0
  -24.5861  -30.7098   25.7754 H   0  0  0  0  0  0
  -24.8875  -32.2882   26.4888 H   0  0  0  0  0  0
  -25.7992  -30.8878   27.0217 H   0  0  0  0  0  0
  -26.2884  -29.6818   24.1135 H   0  0  0  0  0  0
  -27.4062  -29.7293   25.4585 H   0  0  0  0  0  0
  -27.8717  -30.4400   23.9303 H   0  0  0  0  0  0
  -27.2713  -33.3621   26.2076 H   0  0  0  0  0  0
  -28.3843  -32.6865   25.0275 H   0  0  0  0  0  0
  -28.0752  -31.8418   26.5360 H   0  0  0  0  0  0
  -28.2615  -38.0106   24.7532 H   0  0  0  0  0  0
  -28.1074  -36.2640   24.6274 H   0  0  0  0  0  0
  -27.2308  -37.1450   25.8873 H   0  0  0  0  0  0
  -20.9361  -29.8734   21.6899 H   0  0  0  0  0  0
  -26.0194  -38.2888   24.1398 H   0  0  0  0  0  0
  -26.9184  -18.2673   23.0002 H   0  0  0  0  0  0
  -31.3658  -24.3459   20.6398 H   0  0  0  0  0  0
  -31.3154  -23.0556   19.4572 H   0  0  0  0  0  0
  -31.8157  -22.7166   21.1175 H   0  0  0  0  0  0
  -28.9344  -25.4699   21.7617 H   0  0  0  0  0  0
  -27.2764  -25.2182   21.2944 H   0  0  0  0  0  0
  -29.5923  -23.2769   21.9426 H   0  0  0  0  0  0
  -29.3809  -14.8650   22.0495 H   0  0  0  0  0  0
  -28.5767  -21.2675   21.5520 H   0  0  0  0  0  0
  1 25  1  0  0  0
  1 30  2  0  0  0
  1 82  1  0  0  0
  2  3  1  0  0  0
  2 25  1  0  0  0
  2 87  1  0  0  0
  2 88  1  0  0  0
  3  4  1  0  0  0
  3 89  1  0  0  0
  3 90  1  0  0  0
  4  5  1  0  0  0
  4 91  1  0  0  0
  4 92  1  0  0  0
  5  6  1  0  0  0
  5 26  1  0  0  0
  5 93  1  0  0  0
  6 25  1  0  0  0
  6 94  1  0  0  0
  6 95  1  0  0  0
  7  8  2  0  0  0
  7 26  1  0  0  0
  7 29  1  0  0  0
  8  9  1  0  0  0
  8 22  1  0  0  0
  9 10  1  0  0  0
  9 27  2  0  0  0
 10 11  2  0  0  0
 10 15  1  0  0  0
 11 12  1  0  0  0
 11 96  1  0  0  0
 12 13  2  0  0  0
 12 97  1  0  0  0
 13 14  1  0  0  0
 13 31  1  0  0  0
 14 15  2  0  0  0
 14 98  1  0  0  0
 15 99  1  0  0  0
 16 17  2  0  0  0
 16 21  1  0  0  0
 16 31  1  0  0  0
 17 18  1  0  0  0
 17100  1  0  0  0
 18 19  2  0  0  0
 18101  1  0  0  0
 19 20  1  0  0  0
 19 24  1  0  0  0
 20 21  2  0  0  0
 20102  1  0  0  0
 21 23  1  0  0  0
 22 28  1  0  0  0
 22 32  2  0  0  0
 26 27  1  0  0  0
 28103  1  0  0  0
 28104  1  0  0  0
 29105  1  0  0  0
 29106  1  0  0  0
 33 34  1  0  0  0
 33 66  1  0  0  0
 33 70  2  0  0  0
 34 36  1  0  0  0
 34 59  1  0  0  0
 34107  1  0  0  0
 35 44  2  0  0  0
 35 45  1  0  0  0
 35 68  1  0  0  0
 36 56  1  0  0  0
 36108  1  0  0  0
 37 39  1  0  0  0
 37 47  1  0  0  0
 37 66  1  0  0  0
 37109  1  0  0  0
 38 43  2  0  0  0
 38 46  1  0  0  0
 38 47  1  0  0  0
 39 64  1  0  0  0
 39 67  2  0  0  0
 40 52  1  0  0  0
 40 53  2  0  0  0
 40 58  1  0  0  0
 41110  1  0  0  0
 41111  1  0  0  0
 41112  1  0  0  0
 41 48  1  0  0  0
 42 43  1  0  0  0
 42 66  1  0  0  0
 42113  1  0  0  0
 42114  1  0  0  0
 43 44  1  0  0  0
 44115  1  0  0  0
 45 46  2  0  0  0
 45116  1  0  0  0
 46117  1  0  0  0
 47118  1  0  0  0
 47119  1  0  0  0
 48 56  1  0  0  0
 48 65  1  0  0  0
 48120  1  0  0  0
 49 50  1  0  0  0
 49 53  1  0  0  0
 49 64  1  0  0  0
 49121  1  0  0  0
 50 51  1  0  0  0
 50122  1  0  0  0
 50123  1  0  0  0
 51 52  1  0  0  0
 51124  1  0  0  0
 51125  1  0  0  0
 52126  1  0  0  0
 52127  1  0  0  0
 53 54  1  0  0  0
 54 55  2  0  0  0
 54128  1  0  0  0
 55 57  1  0  0  0
 55129  1  0  0  0
 56 69  2  0  0  0
 57 58  2  0  0  0
 57130  1  0  0  0
 58131  1  0  0  0
 59 60  1  0  0  0
 59 61  1  0  0  0
 59 62  1  0  0  0
 60132  1  0  0  0
 60133  1  0  0  0
 60134  1  0  0  0
 61135  1  0  0  0
 61136  1  0  0  0
 61137  1  0  0  0
 62138  1  0  0  0
 62139  1  0  0  0
 62140  1  0  0  0
 63 65  1  0  0  0
 63141  1  0  0  0
 63142  1  0  0  0
 63143  1  0  0  0
 64144  1  0  0  0
 65145  1  0  0  0
 68 78  1  0  0  0
 71 72  2  0  0  0
 71 80  1  0  0  0
 71146  1  0  0  0
 72 73  1  0  0  0
 72 86  1  0  0  0
 73 81  2  0  0  0
 73 82  1  0  0  0
 74 75  1  0  0  0
 74 80  2  0  0  0
 74 81  1  0  0  0
 75 83  1  0  0  0
 75 84  2  0  0  0
 76 78  1  0  0  0
 76 79  1  0  0  0
 76 85  2  0  0  0
 77147  1  0  0  0
 77148  1  0  0  0
 77149  1  0  0  0
 77 79  1  0  0  0
 78150  1  0  0  0
 78151  1  0  0  0
 79 83  1  0  0  0
 79152  1  0  0  0
 82153  1  0  0  0
 83154  1  0  0  0
M  ISO  4   1 100  68 101  78 101  82 100
M  END
> <chiral flag>
0

> <version>
0

> <s_m_source_file>
/data/baiqing/PycharmProjects/Reinvent-master-3.2/result/LINK_invent/BTK/process_docking_weight1_custom_product_contain_oxygen_bond_distance_aromatic_linkinvent_7_9_3/rearranged_h_0178.sdf

> <i_m_source_file_index>
65

> <r_mmod_Potential_Energy-OPLS-2005>
-311.88330078125

> <r_mmod_Stretch_Energy-OPLS-2005>
67.6466369628906

> <r_mmod_Bend_Energy-OPLS-2005>
171.079711914062

> <r_mmod_Torsional_Energy-OPLS-2005>
239.277221679688

> <r_mmod_Improper_Torsional_Energy-OPLS-2005>
5.87072086334229

> <r_mmod_Van_der_Waal_Energy-OPLS-2005>
149.377151489258

> <r_mmod_Electrostatic_Energy-OPLS-2005>
-701.296447753906

> <r_mmod_Solvation_Energy-OPLS-2005>
-271.189575195312

> <b_mmod_Minimization_Converged-OPLS-2005>
0

> <r_mmod_RMS_Derivative-OPLS-2005>
1.84860110282898

$$$$
65
                    3D
 Structure written by MMmdl.
148156  0  0  1  0            999 V2000
  -31.1408  -15.0917   20.9041 C   0  0  0  0  0  0
  -30.9462  -13.4289   19.0353 C   0  0  0  0  0  0
  -29.6087  -13.1539   17.5771 C   0  0  0  0  0  0
  -27.6625  -13.2665   17.9772 C   0  0  0  0  0  0
  -27.1323  -13.7544   19.8510 C   0  0  2  0  0  0
  -28.6079  -14.0609   21.2625 C   0  0  0  0  0  0
  -24.9714  -13.9073   20.7326 C   0  0  0  0  0  0
  -24.0020  -13.0281   21.0036 C   0  0  0  0  0  0
  -24.5645  -11.7153   20.8904 C   0  0  0  0  0  0
  -23.8970  -10.4217   21.0280 C   0  0  0  0  0  0
  -24.3623   -9.4236   21.9109 C   0  0  0  0  0  0
  -23.6342   -8.2240   22.0729 C   0  0  0  0  0  0
  -22.4332   -8.0205   21.3506 C   0  0  0  0  0  0
  -21.9926   -9.0098   20.4557 C   0  0  0  0  0  0
  -22.7188  -10.1977   20.2916 C   0  0  0  0  0  0
  -21.6877   -6.0711   22.5289 C   0  0  0  0  0  0
  -21.4024   -6.5635   23.8210 C   0  0  0  0  0  0
  -21.3652   -5.6790   24.9174 C   0  0  0  0  0  0
  -21.6037   -4.3054   24.7230 C   0  0  0  0  0  0
  -21.8816   -3.8135   23.4359 C   0  0  0  0  0  0
  -21.9205   -4.6941   22.3411 C   0  0  0  0  0  0
  -22.6049  -13.4563   21.2411 C   0  0  0  0  0  0
  -22.1674   -4.2126   21.0988 F   0  0  0  0  0  0
  -21.5619   -3.4546   25.7747 F   0  0  0  0  0  0
  -30.3819  -13.9959   20.7089 N   0  0  0  0  0  0
  -26.0159  -13.1289   20.3783 N   0  0  0  0  0  0
  -25.8472  -11.7901   20.5356 N   0  0  0  0  0  0
  -21.8948  -12.7422   22.0952 N   0  0  0  0  0  0
  -25.0257  -15.3066   20.7060 N   0  0  0  0  0  0
  -32.3310  -14.9836   20.6664 O   0  0  0  0  0  0
  -21.6677   -6.8827   21.4247 O   0  0  0  0  0  0
  -22.1725  -14.4829   20.7150 O   0  0  0  0  0  0
  -24.7069  -31.7702   23.1292 C   0  0  0  0  0  0
  -25.9558  -32.4271   23.7908 C   0  0  1  0  0  0
  -27.1427  -26.4557   20.1408 C   0  0  0  0  0  0
  -25.6053  -33.8117   24.1810 N   0  0  0  0  0  0
  -23.5317  -30.3734   21.4966 C   0  0  2  0  0  0
  -24.9614  -28.6688   20.1078 C   0  0  0  0  0  0
  -22.7820  -29.4196   22.4679 C   0  0  0  0  0  0
  -18.0342  -28.1402   22.8438 C   0  0  0  0  0  0
  -24.1532  -36.7101   23.2649 C   0  0  0  0  0  0
  -26.1237  -30.4165   21.4181 C   0  0  0  0  0  0
  -26.1679  -28.9595   20.7550 C   0  0  0  0  0  0
  -27.2432  -27.8852   20.7325 C   0  0  0  0  0  0
  -25.9072  -26.4399   19.4483 C   0  0  0  0  0  0
  -24.8835  -27.4397   19.4333 C   0  0  0  0  0  0
  -23.7801  -29.6601   20.1373 C   0  0  0  0  0  0
  -25.4172  -36.2790   24.0270 C   0  0  1  0  0  0
  -20.5980  -28.3776   23.1114 C   0  0  2  0  0  0
  -20.6805  -26.9429   22.5397 C   0  0  0  0  0  0
  -19.5796  -26.6367   21.5192 C   0  0  0  0  0  0
  -18.1978  -26.7927   22.1596 C   0  0  0  0  0  0
  -19.1610  -28.8915   23.2751 C   0  0  0  0  0  0
  -18.9516  -30.1493   23.8806 C   0  0  0  0  0  0
  -17.6505  -30.6585   24.0541 C   0  0  0  0  0  0
  -25.9168  -34.9180   23.4896 C   0  0  0  0  0  0
  -16.5395  -29.9065   23.6350 C   0  0  0  0  0  0
  -16.7321  -28.6485   23.0371 C   0  0  0  0  0  0
  -26.4659  -31.6342   25.0595 C   0  0  0  0  0  0
  -25.3689  -31.3663   26.1175 C   0  0  0  0  0  0
  -27.0567  -30.2639   24.6612 C   0  0  0  0  0  0
  -27.6106  -32.4178   25.7417 C   0  0  0  0  0  0
  -27.5579  -37.1695   24.8472 C   0  0  0  0  0  0
  -21.4453  -29.2992   22.3417 N   0  0  0  0  0  0
  -26.4280  -37.3580   23.9416 N   0  0  0  0  0  0
  -24.8164  -30.8918   22.0661 N   0  0  0  0  0  0
  -23.4192  -28.7819   23.3096 O   0  0  0  0  0  0
  -28.0074  -25.0921   20.1223 O   0  0  0  0  0  0
  -26.5836  -34.8818   22.4533 O   0  0  0  0  0  0
  -23.6057  -32.0908   23.6140 O   0  0  0  0  0  0
  -29.9619  -15.9230   18.5655 C   0  0  0  0  0  0
  -28.9857  -14.9442   19.0812 C   0  0  0  0  0  0
  -30.0478  -16.9053   19.5793 C   0  0  0  0  0  0
  -28.9715  -12.2490   19.7246 C   0  0  0  0  0  0
  -28.5879  -21.5020   19.8122 C   0  0  0  0  0  0
  -28.2370  -19.5464   19.8226 C   0  0  0  0  0  0
  -27.6666  -23.2540   19.9518 C   0  0  0  0  0  0
  -28.2343  -16.3122   19.4049 N   0  0  0  0  0  0
  -28.8613  -17.7597   19.5159 N   0  0  0  0  0  0
  -30.5597  -16.3556   20.7777 N   0  0  0  0  0  0
  -29.7432  -11.4717   20.3275 O   0  0  0  0  0  0
  -29.8017  -21.6925   19.6782 O   0  0  0  0  0  0
  -31.7679  -14.0117   18.6183 H   0  0  0  0  0  0
  -31.5308  -12.5156   19.1746 H   0  0  0  0  0  0
  -29.8132  -12.1923   17.0967 H   0  0  0  0  0  0
  -29.8211  -13.8586   16.7699 H   0  0  0  0  0  0
  -27.1620  -12.3436   17.6722 H   0  0  0  0  0  0
  -27.2231  -14.0015   17.2997 H   0  0  0  0  0  0
  -26.7157  -14.6537   19.4426 H   0  0  0  0  0  0
  -28.4857  -13.3543   22.0868 H   0  0  0  0  0  0
  -28.4187  -15.0182   21.7529 H   0  0  0  0  0  0
  -25.2659   -9.5878   22.4800 H   0  0  0  0  0  0
  -24.0034   -7.4703   22.7543 H   0  0  0  0  0  0
  -21.0841   -8.8554   19.8893 H   0  0  0  0  0  0
  -22.3531  -10.9520   19.6088 H   0  0  0  0  0  0
  -21.2017   -7.6144   23.9697 H   0  0  0  0  0  0
  -21.1489   -6.0536   25.9077 H   0  0  0  0  0  0
  -22.0610   -2.7600   23.2861 H   0  0  0  0  0  0
  -22.2809  -11.9244   22.5418 H   0  0  0  0  0  0
  -20.9458  -13.0149   22.3092 H   0  0  0  0  0  0
  -24.1946  -15.8761   20.8215 H   0  0  0  0  0  0
  -25.8280  -15.8349   20.3758 H   0  0  0  0  0  0
  -26.7630  -32.4668   23.0589 H   0  0  0  0  0  0
  -25.0060  -33.9083   24.9879 H   0  0  0  0  0  0
  -22.8703  -31.2191   21.2979 H   0  0  0  0  0  0
  -23.3808  -35.9410   23.3177 H   0  0  0  0  0  0
  -24.3635  -36.8903   22.2093 H   0  0  0  0  0  0
  -23.7273  -37.6232   23.6819 H   0  0  0  0  0  0
  -26.3546  -31.1278   20.6244 H   0  0  0  0  0  0
  -26.9688  -30.4788   22.0904 H   0  0  0  0  0  0
  -28.1581  -28.1175   21.2592 H   0  0  0  0  0  0
  -25.6724  -25.5278   18.9189 H   0  0  0  0  0  0
  -23.9739  -27.2086   18.8966 H   0  0  0  0  0  0
  -23.9697  -30.4114   19.3701 H   0  0  0  0  0  0
  -22.8715  -29.1464   19.8156 H   0  0  0  0  0  0
  -25.1382  -36.1515   25.0757 H   0  0  0  0  0  0
  -21.0054  -28.3406   24.1244 H   0  0  0  0  0  0
  -20.5642  -26.2400   23.3667 H   0  0  0  0  0  0
  -21.6672  -26.7350   22.1236 H   0  0  0  0  0  0
  -19.6971  -25.6269   21.1248 H   0  0  0  0  0  0
  -19.6739  -27.3153   20.6705 H   0  0  0  0  0  0
  -17.4249  -26.6652   21.4002 H   0  0  0  0  0  0
  -18.0387  -26.0079   22.9005 H   0  0  0  0  0  0
  -19.7997  -30.7318   24.2150 H   0  0  0  0  0  0
  -17.5060  -31.6259   24.5154 H   0  0  0  0  0  0
  -15.5394  -30.2937   23.7724 H   0  0  0  0  0  0
  -15.8721  -28.0765   22.7153 H   0  0  0  0  0  0
  -24.6010  -30.6847   25.7482 H   0  0  0  0  0  0
  -24.8720  -32.2840   26.4313 H   0  0  0  0  0  0
  -25.7880  -30.9046   27.0127 H   0  0  0  0  0  0
  -26.3287  -29.6207   24.1647 H   0  0  0  0  0  0
  -27.3928  -29.7129   25.5407 H   0  0  0  0  0  0
  -27.9314  -30.3656   24.0186 H   0  0  0  0  0  0
  -27.2722  -33.3637   26.1646 H   0  0  0  0  0  0
  -28.4114  -32.6423   25.0356 H   0  0  0  0  0  0
  -28.0529  -31.8472   26.5592 H   0  0  0  0  0  0
  -28.2515  -38.0066   24.7545 H   0  0  0  0  0  0
  -28.1159  -36.2581   24.6266 H   0  0  0  0  0  0
  -27.2299  -37.1280   25.8876 H   0  0  0  0  0  0
  -20.9802  -29.8602   21.6417 H   0  0  0  0  0  0
  -26.0080  -38.2615   24.1435 H   0  0  0  0  0  0
  -30.8488  -15.6805   18.0058 H   0  0  0  0  0  0
  -28.0906  -11.6576   19.4706 H   0  0  0  0  0  0
  -27.3178  -19.5479   19.2381 H   0  0  0  0  0  0
  -27.8605  -19.4596   20.8412 H   0  0  0  0  0  0
  -26.9666  -23.0735   20.7677 H   0  0  0  0  0  0
  -27.0296  -23.2301   19.0690 H   0  0  0  0  0  0
  -30.9833  -17.0525   21.3703 H   0  0  0  0  0  0
  1 25  1  0  0  0
  1 30  2  0  0  0
  1 80  1  0  0  0
  2  3  1  0  0  0
  2 25  1  0  0  0
  2 83  1  0  0  0
  2 84  1  0  0  0
  3  4  1  0  0  0
  3 85  1  0  0  0
  3 86  1  0  0  0
  4  5  1  0  0  0
  4 87  1  0  0  0
  4 88  1  0  0  0
  5  6  1  0  0  0
  5 26  1  0  0  0
  5 89  1  0  0  0
  6 25  1  0  0  0
  6 90  1  0  0  0
  6 91  1  0  0  0
  7  8  2  0  0  0
  7 26  1  0  0  0
  7 29  1  0  0  0
  8  9  1  0  0  0
  8 22  1  0  0  0
  9 10  1  0  0  0
  9 27  2  0  0  0
 10 11  2  0  0  0
 10 15  1  0  0  0
 11 12  1  0  0  0
 11 92  1  0  0  0
 12 13  2  0  0  0
 12 93  1  0  0  0
 13 14  1  0  0  0
 13 31  1  0  0  0
 14 15  2  0  0  0
 14 94  1  0  0  0
 15 95  1  0  0  0
 16 17  2  0  0  0
 16 21  1  0  0  0
 16 31  1  0  0  0
 17 18  1  0  0  0
 17 96  1  0  0  0
 18 19  2  0  0  0
 18 97  1  0  0  0
 19 20  1  0  0  0
 19 24  1  0  0  0
 20 21  2  0  0  0
 20 98  1  0  0  0
 21 23  1  0  0  0
 22 28  1  0  0  0
 22 32  2  0  0  0
 26 27  1  0  0  0
 28 99  1  0  0  0
 28100  1  0  0  0
 29101  1  0  0  0
 29102  1  0  0  0
 33 34  1  0  0  0
 33 66  1  0  0  0
 33 70  2  0  0  0
 34 36  1  0  0  0
 34 59  1  0  0  0
 34103  1  0  0  0
 35 44  2  0  0  0
 35 45  1  0  0  0
 35 68  1  0  0  0
 36 56  1  0  0  0
 36104  1  0  0  0
 37 39  1  0  0  0
 37 47  1  0  0  0
 37 66  1  0  0  0
 37105  1  0  0  0
 38 43  2  0  0  0
 38 46  1  0  0  0
 38 47  1  0  0  0
 39 64  1  0  0  0
 39 67  2  0  0  0
 40 52  1  0  0  0
 40 53  2  0  0  0
 40 58  1  0  0  0
 41106  1  0  0  0
 41107  1  0  0  0
 41108  1  0  0  0
 41 48  1  0  0  0
 42 43  1  0  0  0
 42 66  1  0  0  0
 42109  1  0  0  0
 42110  1  0  0  0
 43 44  1  0  0  0
 44111  1  0  0  0
 45 46  2  0  0  0
 45112  1  0  0  0
 46113  1  0  0  0
 47114  1  0  0  0
 47115  1  0  0  0
 48 56  1  0  0  0
 48 65  1  0  0  0
 48116  1  0  0  0
 49 50  1  0  0  0
 49 53  1  0  0  0
 49 64  1  0  0  0
 49117  1  0  0  0
 50 51  1  0  0  0
 50118  1  0  0  0
 50119  1  0  0  0
 51 52  1  0  0  0
 51120  1  0  0  0
 51121  1  0  0  0
 52122  1  0  0  0
 52123  1  0  0  0
 53 54  1  0  0  0
 54 55  2  0  0  0
 54124  1  0  0  0
 55 57  1  0  0  0
 55125  1  0  0  0
 56 69  2  0  0  0
 57 58  2  0  0  0
 57126  1  0  0  0
 58127  1  0  0  0
 59 60  1  0  0  0
 59 61  1  0  0  0
 59 62  1  0  0  0
 60128  1  0  0  0
 60129  1  0  0  0
 60130  1  0  0  0
 61131  1  0  0  0
 61132  1  0  0  0
 61133  1  0  0  0
 62134  1  0  0  0
 62135  1  0  0  0
 62136  1  0  0  0
 63 65  1  0  0  0
 63137  1  0  0  0
 63138  1  0  0  0
 63139  1  0  0  0
 64140  1  0  0  0
 65141  1  0  0  0
 68 77  1  0  0  0
 71 72  1  0  0  0
 71 73  2  0  0  0
 71142  1  0  0  0
 72 74  1  0  0  0
 72 78  2  0  0  0
 73 79  1  0  0  0
 73 80  1  0  0  0
 74 81  2  0  0  0
 74143  1  0  0  0
 75 76  1  0  0  0
 75 77  1  0  0  0
 75 82  2  0  0  0
 76 79  1  0  0  0
 76144  1  0  0  0
 76145  1  0  0  0
 77146  1  0  0  0
 77147  1  0  0  0
 78 79  1  0  0  0
 80148  1  0  0  0
M  ISO  4   1 100  68 101  77 101  80 100
M  END
> <chiral flag>
0

> <version>
0

> <s_m_source_file>
/data/baiqing/PycharmProjects/Reinvent-master-3.2/result/LINK_invent/BTK/process_docking_weight1_custom_product_contain_oxygen_bond_distance_aromatic_linkinvent_7_9_3/rearranged_h_0178.sdf

> <i_m_source_file_index>
66

> <r_mmod_Potential_Energy-OPLS-2005>
9964.259765625

> <r_mmod_Stretch_Energy-OPLS-2005>
5407.69921875

> <r_mmod_Bend_Energy-OPLS-2005>
1073.041015625

> <r_mmod_Torsional_Energy-OPLS-2005>
594.000366210938

> <r_mmod_Improper_Torsional_Energy-OPLS-2005>
55.0027542114258

> <r_mmod_Van_der_Waal_Energy-OPLS-2005>
2017.0615234375

> <r_mmod_Electrostatic_Energy-OPLS-2005>
-416.755798339844

> <r_mmod_Solvation_Energy-OPLS-2005>
-247.147842407227

> <b_mmod_Minimization_Converged-OPLS-2005>
0

> <r_mmod_RMS_Derivative-OPLS-2005>
2.76171612739563

$$$$
66
                    3D
 Structure written by MMmdl.
156164  0  0  1  0            999 V2000
  -30.6607  -14.5693   20.5886 C   0  0  0  0  0  0
  -30.4425  -12.3725   19.4385 C   0  0  0  0  0  0
  -29.5086  -12.5346   18.2190 C   0  0  0  0  0  0
  -28.0299  -12.3767   18.6259 C   0  0  0  0  0  0
  -27.6630  -13.2152   19.8788 C   0  0  2  0  0  0
  -28.7066  -13.0083   21.0010 C   0  0  0  0  0  0
  -25.2503  -13.8081   20.5585 C   0  0  0  0  0  0
  -24.1811  -13.0368   20.9174 C   0  0  0  0  0  0
  -24.6413  -11.6860   20.8739 C   0  0  0  0  0  0
  -23.9074  -10.4256   21.0406 C   0  0  0  0  0  0
  -24.3611   -9.4175   21.9191 C   0  0  0  0  0  0
  -23.6279   -8.2219   22.0758 C   0  0  0  0  0  0
  -22.4255   -8.0265   21.3551 C   0  0  0  0  0  0
  -21.9903   -9.0247   20.4651 C   0  0  0  0  0  0
  -22.7245  -10.2115   20.3055 C   0  0  0  0  0  0
  -21.6854   -6.0727   22.5277 C   0  0  0  0  0  0
  -21.4012   -6.5627   23.8210 C   0  0  0  0  0  0
  -21.3662   -5.6774   24.9172 C   0  0  0  0  0  0
  -21.6041   -4.3042   24.7212 C   0  0  0  0  0  0
  -21.8824   -3.8137   23.4339 C   0  0  0  0  0  0
  -21.9188   -4.6961   22.3397 C   0  0  0  0  0  0
  -22.7832  -13.5187   21.1831 C   0  0  0  0  0  0
  -22.1661   -4.2154   21.0978 F   0  0  0  0  0  0
  -21.5629   -3.4518   25.7724 F   0  0  0  0  0  0
  -30.0379  -13.3549   20.4636 N   0  0  0  0  0  0
  -26.3023  -12.9330   20.3357 N   0  0  0  0  0  0
  -25.9358  -11.6481   20.5786 N   0  0  0  0  0  0
  -22.0459  -12.8216   22.0400 N   0  0  0  0  0  0
  -25.3995  -15.1762   20.3808 N   0  0  0  0  0  0
  -31.7428  -14.8085   20.0419 O   0  0  0  0  0  0
  -21.6619   -6.8866   21.4238 O   0  0  0  0  0  0
  -22.3537  -14.5497   20.6677 O   0  0  0  0  0  0
  -24.6202  -31.8640   23.2047 C   0  0  0  0  0  0
  -25.9069  -32.4804   23.8363 C   0  0  1  0  0  0
  -27.2357  -27.3719   20.1198 C   0  0  0  0  0  0
  -25.5900  -33.8600   24.2293 N   0  0  0  0  0  0
  -23.4114  -30.4844   21.5479 C   0  0  2  0  0  0
  -24.8607  -28.9364   20.1202 C   0  0  0  0  0  0
  -22.7439  -29.4637   22.4988 C   0  0  0  0  0  0
  -18.0285  -28.1374   22.8504 C   0  0  0  0  0  0
  -24.1486  -36.7296   23.2640 C   0  0  0  0  0  0
  -25.9458  -30.8098   21.3676 C   0  0  0  0  0  0
  -26.0243  -29.4376   20.7180 C   0  0  0  0  0  0
  -27.2172  -28.6666   20.7078 C   0  0  0  0  0  0
  -26.0541  -26.8964   19.5169 C   0  0  0  0  0  0
  -24.8738  -27.6674   19.5143 C   0  0  0  0  0  0
  -23.6241  -29.8103   20.1659 C   0  0  0  0  0  0
  -25.4111  -36.3095   24.0335 C   0  0  1  0  0  0
  -20.5877  -28.3664   23.1316 C   0  0  2  0  0  0
  -20.6772  -26.9395   22.5426 C   0  0  0  0  0  0
  -19.5745  -26.6382   21.5223 C   0  0  0  0  0  0
  -18.1922  -26.7926   22.1629 C   0  0  0  0  0  0
  -19.1535  -28.8839   23.2901 C   0  0  0  0  0  0
  -18.9460  -30.1454   23.8898 C   0  0  0  0  0  0
  -17.6457  -30.6586   24.0562 C   0  0  0  0  0  0
  -25.9048  -34.9467   23.5116 C   0  0  0  0  0  0
  -16.5349  -29.9076   23.6335 C   0  0  0  0  0  0
  -16.7272  -28.6495   23.0355 C   0  0  0  0  0  0
  -26.4472  -31.6603   25.0717 C   0  0  0  0  0  0
  -25.3722  -31.3720   26.1456 C   0  0  0  0  0  0
  -27.0313  -30.3042   24.6128 C   0  0  0  0  0  0
  -27.6038  -32.4334   25.7479 C   0  0  0  0  0  0
  -27.5580  -37.1801   24.8463 C   0  0  0  0  0  0
  -21.4163  -29.3028   22.3720 N   0  0  0  0  0  0
  -26.4290  -37.3786   23.9407 N   0  0  0  0  0  0
  -24.6771  -31.0692   22.0976 N   0  0  0  0  0  0
  -23.4191  -28.8189   23.3055 O   0  0  0  0  0  0
  -28.3858  -26.5965   20.0624 O   0  0  0  0  0  0
  -26.5617  -34.8925   22.4683 O   0  0  0  0  0  0
  -23.5375  -32.1415   23.7408 O   0  0  0  0  0  0
  -29.4887  -19.1099   20.8263 C   0  0  0  0  0  0
  -28.1381  -18.8711   20.9196 C   0  0  0  0  0  0
  -29.5665  -16.8172   21.0496 C   0  0  0  0  0  0
  -30.0882  -20.4800   20.7538 C   0  0  0  0  0  0
  -28.5325  -24.0400   20.1543 C   0  0  0  0  0  0
  -30.8541  -23.3041   19.4163 C   0  0  0  0  0  0
  -28.4506  -25.4102   20.9123 C   0  0  0  0  0  0
  -29.7261  -23.0516   20.4466 C   0  0  2  0  0  0
  -30.3158  -17.9443   20.9122 N   0  0  0  0  0  0
  -27.0720  -19.7729   20.9280 N   0  0  0  0  0  0
  -30.0177  -15.4789   21.3618 N   0  0  0  0  0  0
  -29.3334  -21.5945   20.4840 N   0  0  0  0  0  0
  -31.4030  -20.5894   20.9995 N   0  3  0  0  0  0
  -27.6558  -23.7526   19.3337 O   0  0  0  0  0  0
  -27.8358  -17.1654   21.1105 S   0  0  0  0  0  0
  -31.4846  -12.4973   19.1352 H   0  0  0  0  0  0
  -30.3716  -11.3608   19.8407 H   0  0  0  0  0  0
  -29.7643  -11.8082   17.4469 H   0  0  0  0  0  0
  -29.6598  -13.5170   17.7709 H   0  0  0  0  0  0
  -27.8488  -11.3194   18.8231 H   0  0  0  0  0  0
  -27.3802  -12.6441   17.7918 H   0  0  0  0  0  0
  -27.6992  -14.2633   19.5815 H   0  0  0  0  0  0
  -28.7040  -11.9659   21.3238 H   0  0  0  0  0  0
  -28.4408  -13.5813   21.8894 H   0  0  0  0  0  0
  -25.2762   -9.5647   22.4762 H   0  0  0  0  0  0
  -23.9990   -7.4601   22.7471 H   0  0  0  0  0  0
  -21.0844   -8.8775   19.8951 H   0  0  0  0  0  0
  -22.3725  -10.9652   19.6151 H   0  0  0  0  0  0
  -21.2005   -7.6133   23.9718 H   0  0  0  0  0  0
  -21.1481   -6.0499   25.9075 H   0  0  0  0  0  0
  -22.0603   -2.7603   23.2826 H   0  0  0  0  0  0
  -22.4066  -11.9893   22.4806 H   0  0  0  0  0  0
  -21.1084  -13.1289   22.2576 H   0  0  0  0  0  0
  -24.6143  -15.8117   20.4679 H   0  0  0  0  0  0
  -26.2330  -15.6191   20.0170 H   0  0  0  0  0  0
  -26.7144  -32.5498   23.1121 H   0  0  0  0  0  0
  -25.0044  -33.9755   25.0437 H   0  0  0  0  0  0
  -22.7022  -31.3027   21.4042 H   0  0  0  0  0  0
  -23.3753  -35.9625   23.3312 H   0  0  0  0  0  0
  -24.3583  -36.8913   22.2058 H   0  0  0  0  0  0
  -23.7234  -37.6497   23.6661 H   0  0  0  0  0  0
  -26.0704  -31.5723   20.5977 H   0  0  0  0  0  0
  -26.8284  -30.8627   21.9923 H   0  0  0  0  0  0
  -28.1190  -29.0576   21.1576 H   0  0  0  0  0  0
  -26.0484  -25.9259   19.0402 H   0  0  0  0  0  0
  -23.9802  -27.2752   19.0486 H   0  0  0  0  0  0
  -23.7362  -30.5819   19.4039 H   0  0  0  0  0  0
  -22.7455  -29.2330   19.8714 H   0  0  0  0  0  0
  -25.1290  -36.1951   25.0827 H   0  0  0  0  0  0
  -20.9977  -28.3240   24.1435 H   0  0  0  0  0  0
  -20.5694  -26.2266   23.3620 H   0  0  0  0  0  0
  -21.6642  -26.7448   22.1205 H   0  0  0  0  0  0
  -19.6901  -25.6295   21.1248 H   0  0  0  0  0  0
  -19.6684  -27.3206   20.6764 H   0  0  0  0  0  0
  -17.4202  -26.6715   21.4015 H   0  0  0  0  0  0
  -18.0293  -26.0062   22.9014 H   0  0  0  0  0  0
  -19.7931  -30.7281   24.2262 H   0  0  0  0  0  0
  -17.5006  -31.6270   24.5157 H   0  0  0  0  0  0
  -15.5347  -30.2972   23.7651 H   0  0  0  0  0  0
  -15.8679  -28.0810   22.7060 H   0  0  0  0  0  0
  -24.5876  -30.7100   25.7773 H   0  0  0  0  0  0
  -24.8934  -32.2886   26.4917 H   0  0  0  0  0  0
  -25.8059  -30.8858   27.0206 H   0  0  0  0  0  0
  -26.2873  -29.6800   24.1169 H   0  0  0  0  0  0
  -27.4059  -29.7286   25.4601 H   0  0  0  0  0  0
  -27.8718  -30.4353   23.9309 H   0  0  0  0  0  0
  -27.2648  -33.3625   26.2071 H   0  0  0  0  0  0
  -28.3830  -32.6917   25.0297 H   0  0  0  0  0  0
  -28.0729  -31.8458   26.5380 H   0  0  0  0  0  0
  -28.2598  -38.0102   24.7524 H   0  0  0  0  0  0
  -28.1081  -36.2633   24.6270 H   0  0  0  0  0  0
  -27.2309  -37.1433   25.8872 H   0  0  0  0  0  0
  -20.9332  -29.8721   21.6910 H   0  0  0  0  0  0
  -26.0178  -38.2867   24.1401 H   0  0  0  0  0  0
  -30.5470  -23.9760   18.6118 H   0  0  0  0  0  0
  -31.1915  -22.3883   18.9298 H   0  0  0  0  0  0
  -31.7193  -23.7622   19.8959 H   0  0  0  0  0  0
  -29.3301  -25.5025   21.5489 H   0  0  0  0  0  0
  -27.5896  -25.3824   21.5810 H   0  0  0  0  0  0
  -30.1125  -23.2820   21.4395 H   0  0  0  0  0  0
  -26.8250  -20.0448   21.8782 H   0  0  0  0  0  0
  -26.2250  -19.3443   20.5630 H   0  0  0  0  0  0
  -29.3256  -14.9873   21.9048 H   0  0  0  0  0  0
  -28.3429  -21.3904   20.3585 H   0  0  0  0  0  0
  -31.9015  -19.7316   21.1904 H   0  0  0  0  0  0
  -31.9002  -21.4629   20.9868 H   0  0  0  0  0  0
  1 25  1  0  0  0
  1 30  2  0  0  0
  1 81  1  0  0  0
  2  3  1  0  0  0
  2 25  1  0  0  0
  2 86  1  0  0  0
  2 87  1  0  0  0
  3  4  1  0  0  0
  3 88  1  0  0  0
  3 89  1  0  0  0
  4  5  1  0  0  0
  4 90  1  0  0  0
  4 91  1  0  0  0
  5  6  1  0  0  0
  5 26  1  0  0  0
  5 92  1  0  0  0
  6 25  1  0  0  0
  6 93  1  0  0  0
  6 94  1  0  0  0
  7  8  2  0  0  0
  7 26  1  0  0  0
  7 29  1  0  0  0
  8  9  1  0  0  0
  8 22  1  0  0  0
  9 10  1  0  0  0
  9 27  2  0  0  0
 10 11  2  0  0  0
 10 15  1  0  0  0
 11 12  1  0  0  0
 11 95  1  0  0  0
 12 13  2  0  0  0
 12 96  1  0  0  0
 13 14  1  0  0  0
 13 31  1  0  0  0
 14 15  2  0  0  0
 14 97  1  0  0  0
 15 98  1  0  0  0
 16 17  2  0  0  0
 16 21  1  0  0  0
 16 31  1  0  0  0
 17 18  1  0  0  0
 17 99  1  0  0  0
 18 19  2  0  0  0
 18100  1  0  0  0
 19 20  1  0  0  0
 19 24  1  0  0  0
 20 21  2  0  0  0
 20101  1  0  0  0
 21 23  1  0  0  0
 22 28  1  0  0  0
 22 32  2  0  0  0
 26 27  1  0  0  0
 28102  1  0  0  0
 28103  1  0  0  0
 29104  1  0  0  0
 29105  1  0  0  0
 33 34  1  0  0  0
 33 66  1  0  0  0
 33 70  2  0  0  0
 34 36  1  0  0  0
 34 59  1  0  0  0
 34106  1  0  0  0
 35 44  2  0  0  0
 35 45  1  0  0  0
 35 68  1  0  0  0
 36 56  1  0  0  0
 36107  1  0  0  0
 37 39  1  0  0  0
 37 47  1  0  0  0
 37 66  1  0  0  0
 37108  1  0  0  0
 38 43  2  0  0  0
 38 46  1  0  0  0
 38 47  1  0  0  0
 39 64  1  0  0  0
 39 67  2  0  0  0
 40 52  1  0  0  0
 40 53  2  0  0  0
 40 58  1  0  0  0
 41109  1  0  0  0
 41110  1  0  0  0
 41111  1  0  0  0
 41 48  1  0  0  0
 42 43  1  0  0  0
 42 66  1  0  0  0
 42112  1  0  0  0
 42113  1  0  0  0
 43 44  1  0  0  0
 44114  1  0  0  0
 45 46  2  0  0  0
 45115  1  0  0  0
 46116  1  0  0  0
 47117  1  0  0  0
 47118  1  0  0  0
 48 56  1  0  0  0
 48 65  1  0  0  0
 48119  1  0  0  0
 49 50  1  0  0  0
 49 53  1  0  0  0
 49 64  1  0  0  0
 49120  1  0  0  0
 50 51  1  0  0  0
 50121  1  0  0  0
 50122  1  0  0  0
 51 52  1  0  0  0
 51123  1  0  0  0
 51124  1  0  0  0
 52125  1  0  0  0
 52126  1  0  0  0
 53 54  1  0  0  0
 54 55  2  0  0  0
 54127  1  0  0  0
 55 57  1  0  0  0
 55128  1  0  0  0
 56 69  2  0  0  0
 57 58  2  0  0  0
 57129  1  0  0  0
 58130  1  0  0  0
 59 60  1  0  0  0
 59 61  1  0  0  0
 59 62  1  0  0  0
 60131  1  0  0  0
 60132  1  0  0  0
 60133  1  0  0  0
 61134  1  0  0  0
 61135  1  0  0  0
 61136  1  0  0  0
 62137  1  0  0  0
 62138  1  0  0  0
 62139  1  0  0  0
 63 65  1  0  0  0
 63140  1  0  0  0
 63141  1  0  0  0
 63142  1  0  0  0
 64143  1  0  0  0
 65144  1  0  0  0
 68 77  1  0  0  0
 71 72  2  0  0  0
 71 74  1  0  0  0
 71 79  1  0  0  0
 72 80  1  0  0  0
 72 85  1  0  0  0
 73 79  2  0  0  0
 73 81  1  0  0  0
 73 85  1  0  0  0
 74 82  1  0  0  0
 74 83  2  0  0  0
 75 77  1  0  0  0
 75 78  1  0  0  0
 75 84  2  0  0  0
 76145  1  0  0  0
 76146  1  0  0  0
 76147  1  0  0  0
 76 78  1  0  0  0
 77148  1  0  0  0
 77149  1  0  0  0
 78 82  1  0  0  0
 78150  1  0  0  0
 80151  1  0  0  0
 80152  1  0  0  0
 81153  1  0  0  0
 82154  1  0  0  0
 83155  1  0  0  0
 83156  1  0  0  0
M  CHG  1  83   1
M  ISO  4   1 100  68 101  77 101  81 100
M  END
> <chiral flag>
0

> <version>
0

> <s_m_source_file>
/data/baiqing/PycharmProjects/Reinvent-master-3.2/result/LINK_invent/BTK/process_docking_weight1_custom_product_contain_oxygen_bond_distance_aromatic_linkinvent_7_9_3/rearranged_h_0178.sdf

> <i_m_source_file_index>
67

> <r_mmod_Potential_Energy-OPLS-2005>
-135.943450927734

> <r_mmod_Stretch_Energy-OPLS-2005>
60.0046768188477

> <r_mmod_Bend_Energy-OPLS-2005>
136.995620727539

> <r_mmod_Torsional_Energy-OPLS-2005>
274.518890380859

> <r_mmod_Improper_Torsional_Energy-OPLS-2005>
14.1874942779541

> <r_mmod_Van_der_Waal_Energy-OPLS-2005>
121.571998596191

> <r_mmod_Electrostatic_Energy-OPLS-2005>
-302.315124511719

> <r_mmod_Solvation_Energy-OPLS-2005>
-466.503814697266

> <b_mmod_Minimization_Converged-OPLS-2005>
0

> <r_mmod_RMS_Derivative-OPLS-2005>
1.73063123226166

$$$$
67
                    3D
 Structure written by MMmdl.
154162  0  0  1  0            999 V2000
  -30.6240  -14.7443   20.4582 C   0  0  0  0  0  0
  -30.4288  -12.4501   19.4907 C   0  0  0  0  0  0
  -29.5134  -12.5120   18.2476 C   0  0  0  0  0  0
  -28.0386  -12.3387   18.6570 C   0  0  0  0  0  0
  -27.6447  -13.2365   19.8605 C   0  0  2  0  0  0
  -28.6874  -13.1719   20.9999 C   0  0  0  0  0  0
  -25.2518  -13.8216   20.5736 C   0  0  0  0  0  0
  -24.1803  -13.0447   20.9210 C   0  0  0  0  0  0
  -24.6401  -11.6926   20.8744 C   0  0  0  0  0  0
  -23.9080  -10.4294   21.0400 C   0  0  0  0  0  0
  -24.3623   -9.4212   21.9183 C   0  0  0  0  0  0
  -23.6296   -8.2246   22.0759 C   0  0  0  0  0  0
  -22.4274   -8.0286   21.3550 C   0  0  0  0  0  0
  -21.9916   -9.0259   20.4647 C   0  0  0  0  0  0
  -22.7250  -10.2136   20.3055 C   0  0  0  0  0  0
  -21.6856   -6.0737   22.5278 C   0  0  0  0  0  0
  -21.4014   -6.5637   23.8210 C   0  0  0  0  0  0
  -21.3662   -5.6797   24.9176 C   0  0  0  0  0  0
  -21.6043   -4.3056   24.7224 C   0  0  0  0  0  0
  -21.8820   -3.8145   23.4344 C   0  0  0  0  0  0
  -21.9188   -4.6965   22.3400 C   0  0  0  0  0  0
  -22.7819  -13.5222   21.1869 C   0  0  0  0  0  0
  -22.1660   -4.2151   21.0976 F   0  0  0  0  0  0
  -21.5629   -3.4538   25.7738 F   0  0  0  0  0  0
  -29.9933  -13.5178   20.4251 N   0  0  0  0  0  0
  -26.2949  -12.9431   20.3331 N   0  0  0  0  0  0
  -25.9338  -11.6564   20.5772 N   0  0  0  0  0  0
  -22.0470  -12.8197   22.0414 N   0  0  0  0  0  0
  -25.4226  -15.1945   20.4216 N   0  0  0  0  0  0
  -31.7974  -14.8296   20.0868 O   0  0  0  0  0  0
  -21.6643   -6.8879   21.4240 O   0  0  0  0  0  0
  -22.3508  -14.5534   20.6734 O   0  0  0  0  0  0
  -24.6321  -31.8553   23.2018 C   0  0  0  0  0  0
  -25.9143  -32.4761   23.8355 C   0  0  1  0  0  0
  -27.2099  -27.2404   20.1450 C   0  0  0  0  0  0
  -25.5941  -33.8563   24.2257 N   0  0  0  0  0  0
  -23.4329  -30.4779   21.5450 C   0  0  2  0  0  0
  -24.8839  -28.9330   20.1060 C   0  0  0  0  0  0
  -22.7532  -29.4583   22.4913 C   0  0  0  0  0  0
  -18.0299  -28.1384   22.8482 C   0  0  0  0  0  0
  -24.1484  -36.7286   23.2646 C   0  0  0  0  0  0
  -25.9814  -30.7567   21.3960 C   0  0  0  0  0  0
  -26.0523  -29.3788   20.7388 C   0  0  0  0  0  0
  -27.2188  -28.5414   20.7571 C   0  0  0  0  0  0
  -26.0492  -26.9152   19.4106 C   0  0  0  0  0  0
  -24.8886  -27.7081   19.4270 C   0  0  0  0  0  0
  -23.6537  -29.8176   20.1591 C   0  0  0  0  0  0
  -25.4114  -36.3073   24.0327 C   0  0  1  0  0  0
  -20.5903  -28.3689   23.1264 C   0  0  2  0  0  0
  -20.6783  -26.9401   22.5403 C   0  0  0  0  0  0
  -19.5753  -26.6379   21.5212 C   0  0  0  0  0  0
  -18.1933  -26.7930   22.1620 C   0  0  0  0  0  0
  -19.1552  -28.8857   23.2864 C   0  0  0  0  0  0
  -18.9471  -30.1465   23.8877 C   0  0  0  0  0  0
  -17.6467  -30.6584   24.0563 C   0  0  0  0  0  0
  -25.9057  -34.9449   23.5093 C   0  0  0  0  0  0
  -16.5357  -29.9076   23.6342 C   0  0  0  0  0  0
  -16.7285  -28.6494   23.0361 C   0  0  0  0  0  0
  -26.4501  -31.6606   25.0761 C   0  0  0  0  0  0
  -25.3703  -31.3779   26.1470 C   0  0  0  0  0  0
  -27.0366  -30.3014   24.6306 C   0  0  0  0  0  0
  -27.6056  -32.4366   25.7520 C   0  0  0  0  0  0
  -27.5579  -37.1792   24.8462 C   0  0  0  0  0  0
  -21.4231  -29.3043   22.3663 N   0  0  0  0  0  0
  -26.4292  -37.3771   23.9404 N   0  0  0  0  0  0
  -24.7002  -31.0494   22.1025 N   0  0  0  0  0  0
  -23.4217  -28.8110   23.3010 O   0  0  0  0  0  0
  -28.2577  -26.2819   20.1943 O   0  0  0  0  0  0
  -26.5631  -34.8938   22.4665 O   0  0  0  0  0  0
  -23.5464  -32.1387   23.7294 O   0  0  0  0  0  0
  -30.5170  -20.9744   21.5020 C   0  0  0  0  0  0
  -29.0216  -19.7537   20.1648 C   0  0  0  0  0  0
  -29.4068  -21.0850   20.7026 C   0  0  0  0  0  0
  -29.8809  -18.6860   20.5269 C   0  0  0  0  0  0
  -29.0786  -23.7185   20.5816 C   0  0  0  0  0  0
  -26.5723  -24.3230   20.7300 C   0  0  0  0  0  0
  -30.0567  -17.2287   19.9207 C   0  0  0  0  0  0
  -28.0051  -24.9070   20.8154 C   0  0  2  0  0  0
  -27.8515  -19.5244   19.2357 C   0  0  0  0  0  0
  -28.6827  -22.3805   20.5361 N   0  0  0  0  0  0
  -29.8718  -15.8971   20.6553 N   0  0  0  0  0  0
  -30.2681  -24.0248   20.4627 O   0  0  0  0  0  0
  -26.9818  -20.5358   19.2632 F   0  0  0  0  0  0
  -28.2643  -19.3802   17.9765 F   0  0  0  0  0  0
  -27.1794  -18.4208   19.5666 F   0  0  0  0  0  0
  -31.1055  -19.3185   21.6102 S   0  0  0  0  0  0
  -31.4731  -12.5561   19.1929 H   0  0  0  0  0  0
  -30.3576  -11.4737   19.9717 H   0  0  0  0  0  0
  -29.7944  -11.7399   17.5300 H   0  0  0  0  0  0
  -29.6454  -13.4685   17.7382 H   0  0  0  0  0  0
  -27.8919  -11.2896   18.9165 H   0  0  0  0  0  0
  -27.3834  -12.5360   17.8076 H   0  0  0  0  0  0
  -27.6394  -14.2587   19.4830 H   0  0  0  0  0  0
  -28.7179  -12.1753   21.4429 H   0  0  0  0  0  0
  -28.4240  -13.8572   21.8066 H   0  0  0  0  0  0
  -25.2763   -9.5686   22.4767 H   0  0  0  0  0  0
  -23.9999   -7.4639   22.7483 H   0  0  0  0  0  0
  -21.0849   -8.8782   19.8950 H   0  0  0  0  0  0
  -22.3710  -10.9678   19.6166 H   0  0  0  0  0  0
  -21.2010   -7.6151   23.9716 H   0  0  0  0  0  0
  -21.1486   -6.0524   25.9080 H   0  0  0  0  0  0
  -22.0594   -2.7609   23.2844 H   0  0  0  0  0  0
  -22.4080  -11.9835   22.4762 H   0  0  0  0  0  0
  -21.1096  -13.1233   22.2645 H   0  0  0  0  0  0
  -24.6615  -15.8504   20.5562 H   0  0  0  0  0  0
  -26.2773  -15.6398   20.1145 H   0  0  0  0  0  0
  -26.7209  -32.5402   23.1101 H   0  0  0  0  0  0
  -25.0060  -33.9689   25.0387 H   0  0  0  0  0  0
  -22.7292  -31.3003   21.4010 H   0  0  0  0  0  0
  -23.3761  -35.9601   23.3283 H   0  0  0  0  0  0
  -24.3569  -36.8943   22.2064 H   0  0  0  0  0  0
  -23.7226  -37.6476   23.6691 H   0  0  0  0  0  0
  -26.1310  -31.5166   20.6270 H   0  0  0  0  0  0
  -26.8552  -30.8027   22.0341 H   0  0  0  0  0  0
  -28.1057  -28.8690   21.2824 H   0  0  0  0  0  0
  -26.0175  -26.0057   18.8317 H   0  0  0  0  0  0
  -24.0095  -27.3768   18.8908 H   0  0  0  0  0  0
  -23.7758  -30.5972   19.4058 H   0  0  0  0  0  0
  -22.7733  -29.2483   19.8536 H   0  0  0  0  0  0
  -25.1293  -36.1929   25.0820 H   0  0  0  0  0  0
  -20.9982  -28.3272   24.1392 H   0  0  0  0  0  0
  -20.5699  -26.2292   23.3611 H   0  0  0  0  0  0
  -21.6649  -26.7439   22.1185 H   0  0  0  0  0  0
  -19.6911  -25.6287   21.1250 H   0  0  0  0  0  0
  -19.6703  -27.3190   20.6737 H   0  0  0  0  0  0
  -17.4211  -26.6702   21.4011 H   0  0  0  0  0  0
  -18.0311  -26.0073   22.9005 H   0  0  0  0  0  0
  -19.7950  -30.7289   24.2235 H   0  0  0  0  0  0
  -17.5025  -31.6267   24.5158 H   0  0  0  0  0  0
  -15.5353  -30.2968   23.7693 H   0  0  0  0  0  0
  -15.8686  -28.0815   22.7077 H   0  0  0  0  0  0
  -24.5897  -30.7109   25.7794 H   0  0  0  0  0  0
  -24.8865  -32.2952   26.4843 H   0  0  0  0  0  0
  -25.7998  -30.8998   27.0285 H   0  0  0  0  0  0
  -26.2968  -29.6739   24.1321 H   0  0  0  0  0  0
  -27.4009  -29.7319   25.4866 H   0  0  0  0  0  0
  -27.8871  -30.4264   23.9595 H   0  0  0  0  0  0
  -27.2696  -33.3746   26.1956 H   0  0  0  0  0  0
  -28.3927  -32.6795   25.0363 H   0  0  0  0  0  0
  -28.0645  -31.8574   26.5543 H   0  0  0  0  0  0
  -28.2588  -38.0099   24.7532 H   0  0  0  0  0  0
  -28.1088  -36.2637   24.6260 H   0  0  0  0  0  0
  -27.2295  -37.1406   25.8866 H   0  0  0  0  0  0
  -20.9429  -29.8787   21.6875 H   0  0  0  0  0  0
  -26.0177  -38.2846   24.1424 H   0  0  0  0  0  0
  -31.0263  -21.7543   22.0560 H   0  0  0  0  0  0
  -26.4651  -23.4216   21.3337 H   0  0  0  0  0  0
  -26.3026  -24.0557   19.7093 H   0  0  0  0  0  0
  -25.8284  -25.0089   21.1344 H   0  0  0  0  0  0
  -31.0589  -17.2072   19.4917 H   0  0  0  0  0  0
  -29.4134  -17.1534   19.0444 H   0  0  0  0  0  0
  -28.1361  -25.1249   21.8761 H   0  0  0  0  0  0
  -27.6803  -22.2842   20.4390 H   0  0  0  0  0  0
  -28.9457  -15.7373   21.0220 H   0  0  0  0  0  0
  1 25  1  0  0  0
  1 30  2  0  0  0
  1 81  1  0  0  0
  2  3  1  0  0  0
  2 25  1  0  0  0
  2 87  1  0  0  0
  2 88  1  0  0  0
  3  4  1  0  0  0
  3 89  1  0  0  0
  3 90  1  0  0  0
  4  5  1  0  0  0
  4 91  1  0  0  0
  4 92  1  0  0  0
  5  6  1  0  0  0
  5 26  1  0  0  0
  5 93  1  0  0  0
  6 25  1  0  0  0
  6 94  1  0  0  0
  6 95  1  0  0  0
  7  8  2  0  0  0
  7 26  1  0  0  0
  7 29  1  0  0  0
  8  9  1  0  0  0
  8 22  1  0  0  0
  9 10  1  0  0  0
  9 27  2  0  0  0
 10 11  2  0  0  0
 10 15  1  0  0  0
 11 12  1  0  0  0
 11 96  1  0  0  0
 12 13  2  0  0  0
 12 97  1  0  0  0
 13 14  1  0  0  0
 13 31  1  0  0  0
 14 15  2  0  0  0
 14 98  1  0  0  0
 15 99  1  0  0  0
 16 17  2  0  0  0
 16 21  1  0  0  0
 16 31  1  0  0  0
 17 18  1  0  0  0
 17100  1  0  0  0
 18 19  2  0  0  0
 18101  1  0  0  0
 19 20  1  0  0  0
 19 24  1  0  0  0
 20 21  2  0  0  0
 20102  1  0  0  0
 21 23  1  0  0  0
 22 28  1  0  0  0
 22 32  2  0  0  0
 26 27  1  0  0  0
 28103  1  0  0  0
 28104  1  0  0  0
 29105  1  0  0  0
 29106  1  0  0  0
 33 34  1  0  0  0
 33 66  1  0  0  0
 33 70  2  0  0  0
 34 36  1  0  0  0
 34 59  1  0  0  0
 34107  1  0  0  0
 35 44  2  0  0  0
 35 45  1  0  0  0
 35 68  1  0  0  0
 36 56  1  0  0  0
 36108  1  0  0  0
 37 39  1  0  0  0
 37 47  1  0  0  0
 37 66  1  0  0  0
 37109  1  0  0  0
 38 43  2  0  0  0
 38 46  1  0  0  0
 38 47  1  0  0  0
 39 64  1  0  0  0
 39 67  2  0  0  0
 40 52  1  0  0  0
 40 53  2  0  0  0
 40 58  1  0  0  0
 41110  1  0  0  0
 41111  1  0  0  0
 41112  1  0  0  0
 41 48  1  0  0  0
 42 43  1  0  0  0
 42 66  1  0  0  0
 42113  1  0  0  0
 42114  1  0  0  0
 43 44  1  0  0  0
 44115  1  0  0  0
 45 46  2  0  0  0
 45116  1  0  0  0
 46117  1  0  0  0
 47118  1  0  0  0
 47119  1  0  0  0
 48 56  1  0  0  0
 48 65  1  0  0  0
 48120  1  0  0  0
 49 50  1  0  0  0
 49 53  1  0  0  0
 49 64  1  0  0  0
 49121  1  0  0  0
 50 51  1  0  0  0
 50122  1  0  0  0
 50123  1  0  0  0
 51 52  1  0  0  0
 51124  1  0  0  0
 51125  1  0  0  0
 52126  1  0  0  0
 52127  1  0  0  0
 53 54  1  0  0  0
 54 55  2  0  0  0
 54128  1  0  0  0
 55 57  1  0  0  0
 55129  1  0  0  0
 56 69  2  0  0  0
 57 58  2  0  0  0
 57130  1  0  0  0
 58131  1  0  0  0
 59 60  1  0  0  0
 59 61  1  0  0  0
 59 62  1  0  0  0
 60132  1  0  0  0
 60133  1  0  0  0
 60134  1  0  0  0
 61135  1  0  0  0
 61136  1  0  0  0
 61137  1  0  0  0
 62138  1  0  0  0
 62139  1  0  0  0
 62140  1  0  0  0
 63 65  1  0  0  0
 63141  1  0  0  0
 63142  1  0  0  0
 63143  1  0  0  0
 64144  1  0  0  0
 65145  1  0  0  0
 68 78  1  0  0  0
 71 73  2  0  0  0
 71 86  1  0  0  0
 71146  1  0  0  0
 72 73  1  0  0  0
 72 74  2  0  0  0
 72 79  1  0  0  0
 73 80  1  0  0  0
 74 77  1  0  0  0
 74 86  1  0  0  0
 75 78  1  0  0  0
 75 80  1  0  0  0
 75 82  2  0  0  0
 76147  1  0  0  0
 76148  1  0  0  0
 76149  1  0  0  0
 76 78  1  0  0  0
 77 81  1  0  0  0
 77150  1  0  0  0
 77151  1  0  0  0
 78152  1  0  0  0
 79 83  1  0  0  0
 79 84  1  0  0  0
 79 85  1  0  0  0
 80153  1  0  0  0
 81154  1  0  0  0
M  ISO  4   1 100  68 101  78 101  81 100
M  END
> <chiral flag>
0

> <version>
0

> <s_m_source_file>
/data/baiqing/PycharmProjects/Reinvent-master-3.2/result/LINK_invent/BTK/process_docking_weight1_custom_product_contain_oxygen_bond_distance_aromatic_linkinvent_7_9_3/rearranged_h_0178.sdf

> <i_m_source_file_index>
68

> <r_mmod_Potential_Energy-OPLS-2005>
253.019409179688

> <r_mmod_Stretch_Energy-OPLS-2005>
137.036392211914

> <r_mmod_Bend_Energy-OPLS-2005>
194.455596923828

> <r_mmod_Torsional_Energy-OPLS-2005>
272.398315429688

> <r_mmod_Improper_Torsional_Energy-OPLS-2005>
9.22861289978027

> <r_mmod_Van_der_Waal_Energy-OPLS-2005>
126.830070495605

> <r_mmod_Electrostatic_Energy-OPLS-2005>
-347.668426513672

> <r_mmod_Solvation_Energy-OPLS-2005>
-236.22492980957

> <b_mmod_Minimization_Converged-OPLS-2005>
0

> <r_mmod_RMS_Derivative-OPLS-2005>
1.72787761688232

$$$$
68
                    3D
 Structure written by MMmdl.
159167  0  0  1  0            999 V2000
  -30.6826  -14.5067   20.4848 C   0  0  0  0  0  0
  -30.4171  -12.2991   19.4472 C   0  0  0  0  0  0
  -29.5008  -12.4851   18.2192 C   0  0  0  0  0  0
  -28.0194  -12.3538   18.6252 C   0  0  0  0  0  0
  -27.6562  -13.2112   19.8677 C   0  0  2  0  0  0
  -28.6970  -13.0335   20.9976 C   0  0  0  0  0  0
  -25.2569  -13.8171   20.5683 C   0  0  0  0  0  0
  -24.1827  -13.0444   20.9184 C   0  0  0  0  0  0
  -24.6388  -11.6913   20.8737 C   0  0  0  0  0  0
  -23.9055  -10.4298   21.0406 C   0  0  0  0  0  0
  -24.3611   -9.4213   21.9182 C   0  0  0  0  0  0
  -23.6290   -8.2246   22.0750 C   0  0  0  0  0  0
  -22.4272   -8.0282   21.3541 C   0  0  0  0  0  0
  -21.9903   -9.0254   20.4645 C   0  0  0  0  0  0
  -22.7228  -10.2136   20.3055 C   0  0  0  0  0  0
  -21.6852   -6.0732   22.5275 C   0  0  0  0  0  0
  -21.4019   -6.5636   23.8209 C   0  0  0  0  0  0
  -21.3664   -5.6788   24.9172 C   0  0  0  0  0  0
  -21.6043   -4.3050   24.7221 C   0  0  0  0  0  0
  -21.8819   -3.8142   23.4343 C   0  0  0  0  0  0
  -21.9193   -4.6960   22.3400 C   0  0  0  0  0  0
  -22.7848  -13.5239   21.1842 C   0  0  0  0  0  0
  -22.1658   -4.2147   21.0975 F   0  0  0  0  0  0
  -21.5633   -3.4532   25.7733 F   0  0  0  0  0  0
  -30.0276  -13.3138   20.4390 N   0  0  0  0  0  0
  -26.2996  -12.9346   20.3332 N   0  0  0  0  0  0
  -25.9313  -11.6503   20.5759 N   0  0  0  0  0  0
  -22.0485  -12.8245   22.0405 N   0  0  0  0  0  0
  -25.4292  -15.1891   20.4092 N   0  0  0  0  0  0
  -31.8657  -14.6175   20.1464 O   0  0  0  0  0  0
  -21.6640   -6.8876   21.4236 O   0  0  0  0  0  0
  -22.3536  -14.5543   20.6684 O   0  0  0  0  0  0
  -24.6141  -31.8661   23.2084 C   0  0  0  0  0  0
  -25.9028  -32.4810   23.8387 C   0  0  1  0  0  0
  -27.2318  -27.4240   20.1055 C   0  0  0  0  0  0
  -25.5882  -33.8612   24.2322 N   0  0  0  0  0  0
  -23.4029  -30.4874   21.5491 C   0  0  2  0  0  0
  -24.8505  -28.9498   20.1153 C   0  0  0  0  0  0
  -22.7409  -29.4638   22.4991 C   0  0  0  0  0  0
  -18.0268  -28.1376   22.8493 C   0  0  0  0  0  0
  -24.1481  -36.7318   23.2641 C   0  0  0  0  0  0
  -25.9311  -30.8299   21.3611 C   0  0  0  0  0  0
  -26.0101  -29.4629   20.7104 C   0  0  0  0  0  0
  -27.2057  -28.7090   20.6972 C   0  0  0  0  0  0
  -26.0596  -26.9267   19.5005 C   0  0  0  0  0  0
  -24.8707  -27.6823   19.5055 C   0  0  0  0  0  0
  -23.6122  -29.8167   20.1645 C   0  0  0  0  0  0
  -25.4103  -36.3111   24.0337 C   0  0  1  0  0  0
  -20.5859  -28.3657   23.1327 C   0  0  2  0  0  0
  -20.6757  -26.9395   22.5424 C   0  0  0  0  0  0
  -19.5740  -26.6383   21.5214 C   0  0  0  0  0  0
  -18.1917  -26.7926   22.1623 C   0  0  0  0  0  0
  -19.1518  -28.8837   23.2906 C   0  0  0  0  0  0
  -18.9449  -30.1443   23.8914 C   0  0  0  0  0  0
  -17.6452  -30.6585   24.0566 C   0  0  0  0  0  0
  -25.9026  -34.9471   23.5129 C   0  0  0  0  0  0
  -16.5342  -29.9087   23.6326 C   0  0  0  0  0  0
  -16.7256  -28.6503   23.0347 C   0  0  0  0  0  0
  -26.4461  -31.6579   25.0712 C   0  0  0  0  0  0
  -25.3739  -31.3693   26.1476 C   0  0  0  0  0  0
  -27.0278  -30.3020   24.6068 C   0  0  0  0  0  0
  -27.6037  -32.4297   25.7470 C   0  0  0  0  0  0
  -27.5580  -37.1813   24.8463 C   0  0  0  0  0  0
  -21.4136  -29.3020   22.3735 N   0  0  0  0  0  0
  -26.4293  -37.3792   23.9404 N   0  0  0  0  0  0
  -24.6677  -31.0759   22.0983 N   0  0  0  0  0  0
  -23.4182  -28.8180   23.3035 O   0  0  0  0  0  0
  -28.3953  -26.6817   20.1051 O   0  0  0  0  0  0
  -26.5598  -34.8919   22.4696 O   0  0  0  0  0  0
  -23.5335  -32.1416   23.7473 O   0  0  0  0  0  0
  -29.4819  -18.0177   20.6598 C   0  0  0  0  0  0
  -29.5194  -19.2668   19.9751 C   0  0  0  0  0  0
  -30.0786  -19.2839   18.6764 C   0  0  0  0  0  0
  -30.5105  -18.0697   18.1159 C   0  0  0  0  0  0
  -29.9749  -16.8374   20.0371 C   0  0  0  0  0  0
  -28.4939  -21.5550   20.0894 C   0  0  0  0  0  0
  -31.1083  -18.0337   16.7246 C   0  0  0  0  0  0
  -27.6850  -25.6044   22.2387 C   0  0  0  0  0  0
  -28.4815  -22.8561   20.9219 C   0  0  0  0  0  0
  -28.1446  -24.1627   20.1324 C   0  0  0  0  0  0
  -28.4561  -25.4772   20.9078 C   0  0  1  0  0  0
  -30.4496  -16.8911   18.7693 N   0  0  0  0  0  0
  -29.1148  -20.4796   20.6277 N   0  0  0  0  0  0
  -29.9189  -15.5934   20.7468 N   0  0  0  0  0  0
  -27.8928  -21.5203   19.0122 O   0  0  0  0  0  0
  -30.2457  -20.4392   17.9863 F   0  0  0  0  0  0
  -31.4655  -12.3781   19.1535 H   0  0  0  0  0  0
  -30.2998  -11.2990   19.8677 H   0  0  0  0  0  0
  -29.7438  -11.7478   17.4532 H   0  0  0  0  0  0
  -29.6772  -13.4637   17.7693 H   0  0  0  0  0  0
  -27.8299  -11.3007   18.8356 H   0  0  0  0  0  0
  -27.3741  -12.6150   17.7858 H   0  0  0  0  0  0
  -27.6871  -14.2518   19.5456 H   0  0  0  0  0  0
  -28.6692  -12.0147   21.3873 H   0  0  0  0  0  0
  -28.4682  -13.6822   21.8448 H   0  0  0  0  0  0
  -25.2759   -9.5692   22.4752 H   0  0  0  0  0  0
  -24.0001   -7.4639   22.7469 H   0  0  0  0  0  0
  -21.0833   -8.8769   19.8954 H   0  0  0  0  0  0
  -22.3682  -10.9672   19.6164 H   0  0  0  0  0  0
  -21.2013   -7.6144   23.9712 H   0  0  0  0  0  0
  -21.1487   -6.0518   25.9075 H   0  0  0  0  0  0
  -22.0595   -2.7603   23.2840 H   0  0  0  0  0  0
  -22.4093  -11.9919   22.4821 H   0  0  0  0  0  0
  -21.1102  -13.1277   22.2592 H   0  0  0  0  0  0
  -24.6613  -15.8434   20.5164 H   0  0  0  0  0  0
  -26.2748  -15.6272   20.0672 H   0  0  0  0  0  0
  -26.7098  -32.5523   23.1152 H   0  0  0  0  0  0
  -25.0033  -33.9771   25.0468 H   0  0  0  0  0  0
  -22.6908  -31.3031   21.4082 H   0  0  0  0  0  0
  -23.3735  -35.9660   23.3319 H   0  0  0  0  0  0
  -24.3569  -36.8921   22.2052 H   0  0  0  0  0  0
  -23.7245  -37.6530   23.6648 H   0  0  0  0  0  0
  -26.0418  -31.5939   20.5907 H   0  0  0  0  0  0
  -26.8197  -30.8873   21.9777 H   0  0  0  0  0  0
  -28.1032  -29.0997   21.1560 H   0  0  0  0  0  0
  -26.0636  -25.9591   19.0215 H   0  0  0  0  0  0
  -23.9800  -27.2835   19.0402 H   0  0  0  0  0  0
  -23.7197  -30.5891   19.4021 H   0  0  0  0  0  0
  -22.7373  -29.2340   19.8708 H   0  0  0  0  0  0
  -25.1281  -36.1980   25.0833 H   0  0  0  0  0  0
  -20.9947  -28.3217   24.1447 H   0  0  0  0  0  0
  -20.5661  -26.2258   23.3602 H   0  0  0  0  0  0
  -21.6628  -26.7436   22.1218 H   0  0  0  0  0  0
  -19.6898  -25.6295   21.1237 H   0  0  0  0  0  0
  -19.6690  -27.3196   20.6748 H   0  0  0  0  0  0
  -17.4190  -26.6676   21.4022 H   0  0  0  0  0  0
  -18.0318  -26.0065   22.9018 H   0  0  0  0  0  0
  -19.7925  -30.7253   24.2295 H   0  0  0  0  0  0
  -17.5006  -31.6268   24.5160 H   0  0  0  0  0  0
  -15.5344  -30.2995   23.7643 H   0  0  0  0  0  0
  -15.8653  -28.0826   22.7059 H   0  0  0  0  0  0
  -24.5842  -30.7137   25.7798 H   0  0  0  0  0  0
  -24.9015  -32.2865   26.5007 H   0  0  0  0  0  0
  -25.8078  -30.8760   27.0181 H   0  0  0  0  0  0
  -26.2803  -29.6768   24.1170 H   0  0  0  0  0  0
  -27.4108  -29.7266   25.4506 H   0  0  0  0  0  0
  -27.8614  -30.4341   23.9164 H   0  0  0  0  0  0
  -27.2657  -33.3588   26.2076 H   0  0  0  0  0  0
  -28.3828  -32.6875   25.0284 H   0  0  0  0  0  0
  -28.0722  -31.8399   26.5358 H   0  0  0  0  0  0
  -28.2608  -38.0100   24.7495 H   0  0  0  0  0  0
  -28.1067  -36.2631   24.6306 H   0  0  0  0  0  0
  -27.2298  -37.1486   25.8868 H   0  0  0  0  0  0
  -20.9293  -29.8738   21.6956 H   0  0  0  0  0  0
  -26.0183  -38.2872   24.1401 H   0  0  0  0  0  0
  -29.0928  -17.9713   21.6668 H   0  0  0  0  0  0
  -32.0876  -18.5123   16.7232 H   0  0  0  0  0  0
  -30.4667  -18.5666   16.0229 H   0  0  0  0  0  0
  -31.2266  -17.0116   16.3637 H   0  0  0  0  0  0
  -27.9655  -26.5159   22.7670 H   0  0  0  0  0  0
  -27.9011  -24.7718   22.9072 H   0  0  0  0  0  0
  -26.6061  -25.6258   22.0831 H   0  0  0  0  0  0
  -29.4647  -22.9629   21.3813 H   0  0  0  0  0  0
  -27.7714  -22.7236   21.7382 H   0  0  0  0  0  0
  -27.0963  -24.1374   19.8375 H   0  0  0  0  0  0
  -28.7175  -24.1711   19.2039 H   0  0  0  0  0  0
  -29.5100  -25.4151   21.1813 H   0  0  0  0  0  0
  -29.3845  -20.5641   21.5964 H   0  0  0  0  0  0
  -29.0646  -15.4193   21.2508 H   0  0  0  0  0  0
  1 25  1  0  0  0
  1 30  2  0  0  0
  1 84  1  0  0  0
  2  3  1  0  0  0
  2 25  1  0  0  0
  2 87  1  0  0  0
  2 88  1  0  0  0
  3  4  1  0  0  0
  3 89  1  0  0  0
  3 90  1  0  0  0
  4  5  1  0  0  0
  4 91  1  0  0  0
  4 92  1  0  0  0
  5  6  1  0  0  0
  5 26  1  0  0  0
  5 93  1  0  0  0
  6 25  1  0  0  0
  6 94  1  0  0  0
  6 95  1  0  0  0
  7  8  2  0  0  0
  7 26  1  0  0  0
  7 29  1  0  0  0
  8  9  1  0  0  0
  8 22  1  0  0  0
  9 10  1  0  0  0
  9 27  2  0  0  0
 10 11  2  0  0  0
 10 15  1  0  0  0
 11 12  1  0  0  0
 11 96  1  0  0  0
 12 13  2  0  0  0
 12 97  1  0  0  0
 13 14  1  0  0  0
 13 31  1  0  0  0
 14 15  2  0  0  0
 14 98  1  0  0  0
 15 99  1  0  0  0
 16 17  2  0  0  0
 16 21  1  0  0  0
 16 31  1  0  0  0
 17 18  1  0  0  0
 17100  1  0  0  0
 18 19  2  0  0  0
 18101  1  0  0  0
 19 20  1  0  0  0
 19 24  1  0  0  0
 20 21  2  0  0  0
 20102  1  0  0  0
 21 23  1  0  0  0
 22 28  1  0  0  0
 22 32  2  0  0  0
 26 27  1  0  0  0
 28103  1  0  0  0
 28104  1  0  0  0
 29105  1  0  0  0
 29106  1  0  0  0
 33 34  1  0  0  0
 33 66  1  0  0  0
 33 70  2  0  0  0
 34 36  1  0  0  0
 34 59  1  0  0  0
 34107  1  0  0  0
 35 44  2  0  0  0
 35 45  1  0  0  0
 35 68  1  0  0  0
 36 56  1  0  0  0
 36108  1  0  0  0
 37 39  1  0  0  0
 37 47  1  0  0  0
 37 66  1  0  0  0
 37109  1  0  0  0
 38 43  2  0  0  0
 38 46  1  0  0  0
 38 47  1  0  0  0
 39 64  1  0  0  0
 39 67  2  0  0  0
 40 52  1  0  0  0
 40 53  2  0  0  0
 40 58  1  0  0  0
 41110  1  0  0  0
 41111  1  0  0  0
 41112  1  0  0  0
 41 48  1  0  0  0
 42 43  1  0  0  0
 42 66  1  0  0  0
 42113  1  0  0  0
 42114  1  0  0  0
 43 44  1  0  0  0
 44115  1  0  0  0
 45 46  2  0  0  0
 45116  1  0  0  0
 46117  1  0  0  0
 47118  1  0  0  0
 47119  1  0  0  0
 48 56  1  0  0  0
 48 65  1  0  0  0
 48120  1  0  0  0
 49 50  1  0  0  0
 49 53  1  0  0  0
 49 64  1  0  0  0
 49121  1  0  0  0
 50 51  1  0  0  0
 50122  1  0  0  0
 50123  1  0  0  0
 51 52  1  0  0  0
 51124  1  0  0  0
 51125  1  0  0  0
 52126  1  0  0  0
 52127  1  0  0  0
 53 54  1  0  0  0
 54 55  2  0  0  0
 54128  1  0  0  0
 55 57  1  0  0  0
 55129  1  0  0  0
 56 69  2  0  0  0
 57 58  2  0  0  0
 57130  1  0  0  0
 58131  1  0  0  0
 59 60  1  0  0  0
 59 61  1  0  0  0
 59 62  1  0  0  0
 60132  1  0  0  0
 60133  1  0  0  0
 60134  1  0  0  0
 61135  1  0  0  0
 61136  1  0  0  0
 61137  1  0  0  0
 62138  1  0  0  0
 62139  1  0  0  0
 62140  1  0  0  0
 63 65  1  0  0  0
 63141  1  0  0  0
 63142  1  0  0  0
 63143  1  0  0  0
 64144  1  0  0  0
 65145  1  0  0  0
 68 81  1  0  0  0
 71 72  2  0  0  0
 71 75  1  0  0  0
 71146  1  0  0  0
 72 73  1  0  0  0
 72 83  1  0  0  0
 73 74  2  0  0  0
 73 86  1  0  0  0
 74 77  1  0  0  0
 74 82  1  0  0  0
 75 82  2  0  0  0
 75 84  1  0  0  0
 76 79  1  0  0  0
 76 83  1  0  0  0
 76 85  2  0  0  0
 77147  1  0  0  0
 77148  1  0  0  0
 77149  1  0  0  0
 78150  1  0  0  0
 78151  1  0  0  0
 78152  1  0  0  0
 78 81  1  0  0  0
 79 80  1  0  0  0
 79153  1  0  0  0
 79154  1  0  0  0
 80 81  1  0  0  0
 80155  1  0  0  0
 80156  1  0  0  0
 81157  1  0  0  0
 83158  1  0  0  0
 84159  1  0  0  0
M  ISO  4   1 100  68 101  81 101  84 100
M  END
> <chiral flag>
0

> <version>
0

> <s_m_source_file>
/data/baiqing/PycharmProjects/Reinvent-master-3.2/result/LINK_invent/BTK/process_docking_weight1_custom_product_contain_oxygen_bond_distance_aromatic_linkinvent_7_9_3/rearranged_h_0178.sdf

> <i_m_source_file_index>
69

> <r_mmod_Potential_Energy-OPLS-2005>
-180.200088500977

> <r_mmod_Stretch_Energy-OPLS-2005>
42.7231407165527

> <r_mmod_Bend_Energy-OPLS-2005>
104.294830322266

> <r_mmod_Torsional_Energy-OPLS-2005>
269.953704833984

> <r_mmod_Improper_Torsional_Energy-OPLS-2005>
6.13370513916016

> <r_mmod_Van_der_Waal_Energy-OPLS-2005>
152.877685546875

> <r_mmod_Electrostatic_Energy-OPLS-2005>
-522.7822265625

> <r_mmod_Solvation_Energy-OPLS-2005>
-252.728546142578

> <b_mmod_Minimization_Converged-OPLS-2005>
0

> <r_mmod_RMS_Derivative-OPLS-2005>
0.835369646549225

$$$$
69
                    3D
 Structure written by MMmdl.
159167  0  0  1  0            999 V2000
  -30.6694  -14.4931   20.5553 C   0  0  0  0  0  0
  -30.4271  -12.3087   19.4391 C   0  0  0  0  0  0
  -29.5059  -12.5069   18.2159 C   0  0  0  0  0  0
  -28.0229  -12.3683   18.6167 C   0  0  0  0  0  0
  -27.6624  -13.2048   19.8741 C   0  0  2  0  0  0
  -28.6984  -12.9817   20.9997 C   0  0  0  0  0  0
  -25.2586  -13.8149   20.5646 C   0  0  0  0  0  0
  -24.1831  -13.0439   20.9155 C   0  0  0  0  0  0
  -24.6382  -11.6904   20.8718 C   0  0  0  0  0  0
  -23.9052  -10.4285   21.0386 C   0  0  0  0  0  0
  -24.3605   -9.4206   21.9157 C   0  0  0  0  0  0
  -23.6278   -8.2251   22.0753 C   0  0  0  0  0  0
  -22.4256   -8.0284   21.3552 C   0  0  0  0  0  0
  -21.9887   -9.0257   20.4652 C   0  0  0  0  0  0
  -22.7230  -10.2126   20.3043 C   0  0  0  0  0  0
  -21.6860   -6.0731   22.5272 C   0  0  0  0  0  0
  -21.4020   -6.5630   23.8207 C   0  0  0  0  0  0
  -21.3662   -5.6785   24.9166 C   0  0  0  0  0  0
  -21.6047   -4.3052   24.7218 C   0  0  0  0  0  0
  -21.8818   -3.8142   23.4344 C   0  0  0  0  0  0
  -21.9187   -4.6956   22.3400 C   0  0  0  0  0  0
  -22.7852  -13.5242   21.1806 C   0  0  0  0  0  0
  -22.1659   -4.2141   21.0978 F   0  0  0  0  0  0
  -21.5631   -3.4539   25.7736 F   0  0  0  0  0  0
  -30.0330  -13.2927   20.4598 N   0  0  0  0  0  0
  -26.3014  -12.9315   20.3308 N   0  0  0  0  0  0
  -25.9300  -11.6485   20.5724 N   0  0  0  0  0  0
  -22.0480  -12.8268   22.0377 N   0  0  0  0  0  0
  -25.4316  -15.1873   20.4078 N   0  0  0  0  0  0
  -31.7938  -14.6863   20.0796 O   0  0  0  0  0  0
  -21.6643   -6.8871   21.4235 O   0  0  0  0  0  0
  -22.3545  -14.5548   20.6657 O   0  0  0  0  0  0
  -24.6154  -31.8676   23.2083 C   0  0  0  0  0  0
  -25.9037  -32.4827   23.8395 C   0  0  1  0  0  0
  -27.2374  -27.4302   20.1005 C   0  0  0  0  0  0
  -25.5874  -33.8624   24.2311 N   0  0  0  0  0  0
  -23.4050  -30.4903   21.5490 C   0  0  2  0  0  0
  -24.8542  -28.9508   20.1196 C   0  0  0  0  0  0
  -22.7409  -29.4661   22.4981 C   0  0  0  0  0  0
  -18.0273  -28.1403   22.8498 C   0  0  0  0  0  0
  -24.1482  -36.7337   23.2639 C   0  0  0  0  0  0
  -25.9331  -30.8318   21.3615 C   0  0  0  0  0  0
  -26.0131  -29.4615   20.7176 C   0  0  0  0  0  0
  -27.2103  -28.7070   20.7094 C   0  0  0  0  0  0
  -26.0638  -26.9300   19.5031 C   0  0  0  0  0  0
  -24.8730  -27.6825   19.5111 C   0  0  0  0  0  0
  -23.6168  -29.8198   20.1644 C   0  0  0  0  0  0
  -25.4097  -36.3119   24.0334 C   0  0  1  0  0  0
  -20.5865  -28.3686   23.1322 C   0  0  2  0  0  0
  -20.6770  -26.9420   22.5429 C   0  0  0  0  0  0
  -19.5745  -26.6403   21.5228 C   0  0  0  0  0  0
  -18.1922  -26.7947   22.1634 C   0  0  0  0  0  0
  -19.1522  -28.8863   23.2911 C   0  0  0  0  0  0
  -18.9450  -30.1460   23.8928 C   0  0  0  0  0  0
  -17.6456  -30.6607   24.0588 C   0  0  0  0  0  0
  -25.9029  -34.9484   23.5126 C   0  0  0  0  0  0
  -16.5344  -29.9113   23.6329 C   0  0  0  0  0  0
  -16.7266  -28.6534   23.0345 C   0  0  0  0  0  0
  -26.4454  -31.6614   25.0731 C   0  0  0  0  0  0
  -25.3710  -31.3754   26.1480 C   0  0  0  0  0  0
  -27.0275  -30.3046   24.6122 C   0  0  0  0  0  0
  -27.6030  -32.4337   25.7485 C   0  0  0  0  0  0
  -27.5576  -37.1818   24.8453 C   0  0  0  0  0  0
  -21.4141  -29.3044   22.3718 N   0  0  0  0  0  0
  -26.4287  -37.3797   23.9406 N   0  0  0  0  0  0
  -24.6696  -31.0770   22.0986 N   0  0  0  0  0  0
  -23.4177  -28.8207   23.3038 O   0  0  0  0  0  0
  -28.3869  -26.6763   20.0397 O   0  0  0  0  0  0
  -26.5604  -34.8936   22.4698 O   0  0  0  0  0  0
  -23.5339  -32.1430   23.7466 O   0  0  0  0  0  0
  -29.3650  -17.7607   21.7490 C   0  0  0  0  0  0
  -29.8047  -19.6209   20.4064 C   0  0  0  0  0  0
  -29.9520  -16.8746   20.8103 C   0  0  0  0  0  0
  -30.3539  -18.7210   19.4321 C   0  0  0  0  0  0
  -29.8312  -21.1466   20.2735 C   0  0  0  0  0  0
  -28.6564  -24.2705   20.6678 C   0  0  0  0  0  0
  -28.5652  -23.3377   23.0182 C   0  0  0  0  0  0
  -30.7919  -23.5915   21.8846 C   0  0  0  0  0  0
  -28.5613  -25.7523   21.1277 C   0  0  0  0  0  0
  -29.2981  -23.2481   21.6635 C   0  0  0  0  0  0
  -29.2964  -19.1049   21.5626 N   0  0  0  0  0  0
  -30.4243  -17.3829   19.6401 N   0  0  0  0  0  0
  -30.8656  -19.1006   18.1935 N   0  0  0  0  0  0
  -29.9542  -15.4799   21.1333 N   0  0  0  0  0  0
  -29.1733  -21.8309   21.2322 N   0  0  0  0  0  0
  -30.4740  -21.7187   19.3873 O   0  0  0  0  0  0
  -28.2124  -23.9153   19.5707 O   0  0  0  0  0  0
  -31.4750  -12.4055   19.1502 H   0  0  0  0  0  0
  -30.3263  -11.2978   19.8381 H   0  0  0  0  0  0
  -29.7526  -11.7843   17.4382 H   0  0  0  0  0  0
  -29.6746  -13.4937   17.7819 H   0  0  0  0  0  0
  -27.8294  -11.3118   18.8095 H   0  0  0  0  0  0
  -27.3791  -12.6518   17.7826 H   0  0  0  0  0  0
  -27.7092  -14.2522   19.5749 H   0  0  0  0  0  0
  -28.6751  -11.9440   21.3369 H   0  0  0  0  0  0
  -28.4513  -13.5734   21.8811 H   0  0  0  0  0  0
  -25.2747   -9.5707   22.4727 H   0  0  0  0  0  0
  -24.0002   -7.4645   22.7480 H   0  0  0  0  0  0
  -21.0820   -8.8786   19.8954 H   0  0  0  0  0  0
  -22.3687  -10.9669   19.6159 H   0  0  0  0  0  0
  -21.2029   -7.6132   23.9719 H   0  0  0  0  0  0
  -21.1479   -6.0505   25.9072 H   0  0  0  0  0  0
  -22.0594   -2.7608   23.2843 H   0  0  0  0  0  0
  -22.4104  -11.9960   22.4813 H   0  0  0  0  0  0
  -21.1094  -13.1319   22.2551 H   0  0  0  0  0  0
  -24.6644  -15.8420   20.5103 H   0  0  0  0  0  0
  -26.2782  -15.6237   20.0668 H   0  0  0  0  0  0
  -26.7118  -32.5555   23.1173 H   0  0  0  0  0  0
  -24.9965  -33.9775   25.0417 H   0  0  0  0  0  0
  -22.6942  -31.3075   21.4065 H   0  0  0  0  0  0
  -23.3727  -35.9690   23.3309 H   0  0  0  0  0  0
  -24.3570  -36.8953   22.2052 H   0  0  0  0  0  0
  -23.7260  -37.6554   23.6655 H   0  0  0  0  0  0
  -26.0363  -31.5934   20.5875 H   0  0  0  0  0  0
  -26.8232  -30.8941   21.9755 H   0  0  0  0  0  0
  -28.1108  -29.1022   21.1593 H   0  0  0  0  0  0
  -26.0769  -25.9602   19.0265 H   0  0  0  0  0  0
  -23.9817  -27.2838   19.0461 H   0  0  0  0  0  0
  -23.7283  -30.5938   19.4037 H   0  0  0  0  0  0
  -22.7408  -29.2415   19.8672 H   0  0  0  0  0  0
  -25.1273  -36.1979   25.0827 H   0  0  0  0  0  0
  -20.9963  -28.3271   24.1443 H   0  0  0  0  0  0
  -20.5695  -26.2293   23.3621 H   0  0  0  0  0  0
  -21.6640  -26.7482   22.1213 H   0  0  0  0  0  0
  -19.6907  -25.6317   21.1253 H   0  0  0  0  0  0
  -19.6689  -27.3222   20.6764 H   0  0  0  0  0  0
  -17.4197  -26.6709   21.4029 H   0  0  0  0  0  0
  -18.0309  -26.0085   22.9025 H   0  0  0  0  0  0
  -19.7926  -30.7266   24.2315 H   0  0  0  0  0  0
  -17.5016  -31.6283   24.5192 H   0  0  0  0  0  0
  -15.5350  -30.3035   23.7634 H   0  0  0  0  0  0
  -15.8664  -28.0872   22.7033 H   0  0  0  0  0  0
  -24.5847  -30.7135   25.7828 H   0  0  0  0  0  0
  -24.8937  -32.2929   26.4937 H   0  0  0  0  0  0
  -25.8043  -30.8911   27.0241 H   0  0  0  0  0  0
  -26.2832  -29.6826   24.1130 H   0  0  0  0  0  0
  -27.3975  -29.7262   25.4600 H   0  0  0  0  0  0
  -27.8698  -30.4344   23.9319 H   0  0  0  0  0  0
  -27.2639  -33.3610   26.2114 H   0  0  0  0  0  0
  -28.3808  -32.6950   25.0298 H   0  0  0  0  0  0
  -28.0740  -31.8441   26.5359 H   0  0  0  0  0  0
  -28.2598  -38.0109   24.7490 H   0  0  0  0  0  0
  -28.1062  -36.2642   24.6275 H   0  0  0  0  0  0
  -27.2300  -37.1484   25.8857 H   0  0  0  0  0  0
  -20.9302  -29.8750   21.6925 H   0  0  0  0  0  0
  -26.0174  -38.2879   24.1402 H   0  0  0  0  0  0
  -28.9530  -17.3867   22.6754 H   0  0  0  0  0  0
  -28.6991  -24.3099   23.4939 H   0  0  0  0  0  0
  -28.9386  -22.5937   23.7226 H   0  0  0  0  0  0
  -27.4917  -23.1744   22.9119 H   0  0  0  0  0  0
  -30.9199  -24.5034   22.4684 H   0  0  0  0  0  0
  -31.3188  -23.7448   20.9421 H   0  0  0  0  0  0
  -31.3098  -22.7963   22.4235 H   0  0  0  0  0  0
  -29.4749  -26.0204   21.6575 H   0  0  0  0  0  0
  -27.7443  -25.8397   21.8445 H   0  0  0  0  0  0
  -31.0408  -20.0871   18.0242 H   0  0  0  0  0  0
  -31.4397  -18.4586   17.6595 H   0  0  0  0  0  0
  -29.1840  -15.1712   21.7052 H   0  0  0  0  0  0
  -28.6677  -21.2190   21.8589 H   0  0  0  0  0  0
  1 25  1  0  0  0
  1 30  2  0  0  0
  1 84  1  0  0  0
  2  3  1  0  0  0
  2 25  1  0  0  0
  2 88  1  0  0  0
  2 89  1  0  0  0
  3  4  1  0  0  0
  3 90  1  0  0  0
  3 91  1  0  0  0
  4  5  1  0  0  0
  4 92  1  0  0  0
  4 93  1  0  0  0
  5  6  1  0  0  0
  5 26  1  0  0  0
  5 94  1  0  0  0
  6 25  1  0  0  0
  6 95  1  0  0  0
  6 96  1  0  0  0
  7  8  2  0  0  0
  7 26  1  0  0  0
  7 29  1  0  0  0
  8  9  1  0  0  0
  8 22  1  0  0  0
  9 10  1  0  0  0
  9 27  2  0  0  0
 10 11  2  0  0  0
 10 15  1  0  0  0
 11 12  1  0  0  0
 11 97  1  0  0  0
 12 13  2  0  0  0
 12 98  1  0  0  0
 13 14  1  0  0  0
 13 31  1  0  0  0
 14 15  2  0  0  0
 14 99  1  0  0  0
 15100  1  0  0  0
 16 17  2  0  0  0
 16 21  1  0  0  0
 16 31  1  0  0  0
 17 18  1  0  0  0
 17101  1  0  0  0
 18 19  2  0  0  0
 18102  1  0  0  0
 19 20  1  0  0  0
 19 24  1  0  0  0
 20 21  2  0  0  0
 20103  1  0  0  0
 21 23  1  0  0  0
 22 28  1  0  0  0
 22 32  2  0  0  0
 26 27  1  0  0  0
 28104  1  0  0  0
 28105  1  0  0  0
 29106  1  0  0  0
 29107  1  0  0  0
 33 34  1  0  0  0
 33 66  1  0  0  0
 33 70  2  0  0  0
 34 36  1  0  0  0
 34 59  1  0  0  0
 34108  1  0  0  0
 35 44  2  0  0  0
 35 45  1  0  0  0
 35 68  1  0  0  0
 36 56  1  0  0  0
 36109  1  0  0  0
 37 39  1  0  0  0
 37 47  1  0  0  0
 37 66  1  0  0  0
 37110  1  0  0  0
 38 43  2  0  0  0
 38 46  1  0  0  0
 38 47  1  0  0  0
 39 64  1  0  0  0
 39 67  2  0  0  0
 40 52  1  0  0  0
 40 53  2  0  0  0
 40 58  1  0  0  0
 41111  1  0  0  0
 41112  1  0  0  0
 41113  1  0  0  0
 41 48  1  0  0  0
 42 43  1  0  0  0
 42 66  1  0  0  0
 42114  1  0  0  0
 42115  1  0  0  0
 43 44  1  0  0  0
 44116  1  0  0  0
 45 46  2  0  0  0
 45117  1  0  0  0
 46118  1  0  0  0
 47119  1  0  0  0
 47120  1  0  0  0
 48 56  1  0  0  0
 48 65  1  0  0  0
 48121  1  0  0  0
 49 50  1  0  0  0
 49 53  1  0  0  0
 49 64  1  0  0  0
 49122  1  0  0  0
 50 51  1  0  0  0
 50123  1  0  0  0
 50124  1  0  0  0
 51 52  1  0  0  0
 51125  1  0  0  0
 51126  1  0  0  0
 52127  1  0  0  0
 52128  1  0  0  0
 53 54  1  0  0  0
 54 55  2  0  0  0
 54129  1  0  0  0
 55 57  1  0  0  0
 55130  1  0  0  0
 56 69  2  0  0  0
 57 58  2  0  0  0
 57131  1  0  0  0
 58132  1  0  0  0
 59 60  1  0  0  0
 59 61  1  0  0  0
 59 62  1  0  0  0
 60133  1  0  0  0
 60134  1  0  0  0
 60135  1  0  0  0
 61136  1  0  0  0
 61137  1  0  0  0
 61138  1  0  0  0
 62139  1  0  0  0
 62140  1  0  0  0
 62141  1  0  0  0
 63 65  1  0  0  0
 63142  1  0  0  0
 63143  1  0  0  0
 63144  1  0  0  0
 64145  1  0  0  0
 65146  1  0  0  0
 68 79  1  0  0  0
 71 73  2  0  0  0
 71 81  1  0  0  0
 71147  1  0  0  0
 72 74  1  0  0  0
 72 75  1  0  0  0
 72 81  2  0  0  0
 73 82  1  0  0  0
 73 84  1  0  0  0
 74 82  2  0  0  0
 74 83  1  0  0  0
 75 85  1  0  0  0
 75 86  2  0  0  0
 76 79  1  0  0  0
 76 80  1  0  0  0
 76 87  2  0  0  0
 77148  1  0  0  0
 77149  1  0  0  0
 77150  1  0  0  0
 77 80  1  0  0  0
 78 80  1  0  0  0
 78151  1  0  0  0
 78152  1  0  0  0
 78153  1  0  0  0
 79154  1  0  0  0
 79155  1  0  0  0
 80 85  1  0  0  0
 83156  1  0  0  0
 83157  1  0  0  0
 84158  1  0  0  0
 85159  1  0  0  0
M  ISO  4   1 100  68 101  79 101  84 100
M  END
> <chiral flag>
0

> <version>
0

> <s_m_source_file>
/data/baiqing/PycharmProjects/Reinvent-master-3.2/result/LINK_invent/BTK/process_docking_weight1_custom_product_contain_oxygen_bond_distance_aromatic_linkinvent_7_9_3/rearranged_h_0178.sdf

> <i_m_source_file_index>
70

> <r_mmod_Potential_Energy-OPLS-2005>
80.1654205322266

> <r_mmod_Stretch_Energy-OPLS-2005>
49.0506401062012

> <r_mmod_Bend_Energy-OPLS-2005>
117.260200500488

> <r_mmod_Torsional_Energy-OPLS-2005>
265.584777832031

> <r_mmod_Improper_Torsional_Energy-OPLS-2005>
6.36567687988281

> <r_mmod_Van_der_Waal_Energy-OPLS-2005>
161.181854248047

> <r_mmod_Electrostatic_Energy-OPLS-2005>
-263.677215576172

> <r_mmod_Solvation_Energy-OPLS-2005>
-268.996520996094

> <b_mmod_Minimization_Converged-OPLS-2005>
0

> <r_mmod_RMS_Derivative-OPLS-2005>
2.13737106323242

$$$$
70
                    3D
 Structure written by MMmdl.
157165  0  0  1  0            999 V2000
  -30.6350  -14.6088   20.4399 C   0  0  0  0  0  0
  -30.4243  -12.3526   19.4539 C   0  0  0  0  0  0
  -29.5019  -12.4471   18.2202 C   0  0  0  0  0  0
  -28.0194  -12.3324   18.6279 C   0  0  0  0  0  0
  -27.6493  -13.2128   19.8542 C   0  0  2  0  0  0
  -28.6929  -13.0849   20.9859 C   0  0  0  0  0  0
  -25.2541  -13.8168   20.5677 C   0  0  0  0  0  0
  -24.1806  -13.0429   20.9192 C   0  0  0  0  0  0
  -24.6369  -11.6895   20.8736 C   0  0  0  0  0  0
  -23.9044  -10.4275   21.0406 C   0  0  0  0  0  0
  -24.3602   -9.4179   21.9181 C   0  0  0  0  0  0
  -23.6285   -8.2204   22.0744 C   0  0  0  0  0  0
  -22.4271   -8.0261   21.3531 C   0  0  0  0  0  0
  -21.9888   -9.0226   20.4628 C   0  0  0  0  0  0
  -22.7207  -10.2108   20.3045 C   0  0  0  0  0  0
  -21.6863   -6.0703   22.5273 C   0  0  0  0  0  0
  -21.4014   -6.5602   23.8197 C   0  0  0  0  0  0
  -21.3647   -5.6771   24.9166 C   0  0  0  0  0  0
  -21.6050   -4.3039   24.7235 C   0  0  0  0  0  0
  -21.8821   -3.8114   23.4362 C   0  0  0  0  0  0
  -21.9189   -4.6924   22.3406 C   0  0  0  0  0  0
  -22.7828  -13.5225   21.1831 C   0  0  0  0  0  0
  -22.1678   -4.2095   21.0984 F   0  0  0  0  0  0
  -21.5619   -3.4533   25.7752 F   0  0  0  0  0  0
  -30.0102  -13.3943   20.4144 N   0  0  0  0  0  0
  -26.2967  -12.9351   20.3293 N   0  0  0  0  0  0
  -25.9300  -11.6512   20.5756 N   0  0  0  0  0  0
  -22.0454  -12.8229   22.0382 N   0  0  0  0  0  0
  -25.4258  -15.1880   20.4062 N   0  0  0  0  0  0
  -31.8064  -14.7405   20.0712 O   0  0  0  0  0  0
  -21.6653   -6.8855   21.4231 O   0  0  0  0  0  0
  -22.3512  -14.5515   20.6662 O   0  0  0  0  0  0
  -24.6265  -31.8619   23.2044 C   0  0  0  0  0  0
  -25.9120  -32.4787   23.8382 C   0  0  1  0  0  0
  -27.2291  -27.3510   20.1028 C   0  0  0  0  0  0
  -25.5955  -33.8586   24.2320 N   0  0  0  0  0  0
  -23.4176  -30.4856   21.5453 C   0  0  2  0  0  0
  -24.8594  -28.9392   20.1144 C   0  0  0  0  0  0
  -22.7481  -29.4636   22.4945 C   0  0  0  0  0  0
  -18.0287  -28.1417   22.8458 C   0  0  0  0  0  0
  -24.1478  -36.7305   23.2632 C   0  0  0  0  0  0
  -25.9538  -30.8005   21.3675 C   0  0  0  0  0  0
  -26.0251  -29.4279   20.7157 C   0  0  0  0  0  0
  -27.2084  -28.6403   20.7070 C   0  0  0  0  0  0
  -26.0345  -26.8913   19.5020 C   0  0  0  0  0  0
  -24.8628  -27.6733   19.5056 C   0  0  0  0  0  0
  -23.6322  -29.8232   20.1591 C   0  0  0  0  0  0
  -25.4094  -36.3080   24.0334 C   0  0  1  0  0  0
  -20.5880  -28.3706   23.1277 C   0  0  2  0  0  0
  -20.6779  -26.9435   22.5400 C   0  0  0  0  0  0
  -19.5759  -26.6396   21.5197 C   0  0  0  0  0  0
  -18.1932  -26.7957   22.1600 C   0  0  0  0  0  0
  -19.1539  -28.8880   23.2856 C   0  0  0  0  0  0
  -18.9465  -30.1479   23.8880 C   0  0  0  0  0  0
  -17.6464  -30.6598   24.0572 C   0  0  0  0  0  0
  -25.9036  -34.9455   23.5117 C   0  0  0  0  0  0
  -16.5359  -29.9095   23.6344 C   0  0  0  0  0  0
  -16.7274  -28.6531   23.0333 C   0  0  0  0  0  0
  -26.4518  -31.6592   25.0746 C   0  0  0  0  0  0
  -25.3768  -31.3733   26.1488 C   0  0  0  0  0  0
  -27.0366  -30.3026   24.6170 C   0  0  0  0  0  0
  -27.6087  -32.4320   25.7523 C   0  0  0  0  0  0
  -27.5576  -37.1797   24.8457 C   0  0  0  0  0  0
  -21.4197  -29.3046   22.3679 N   0  0  0  0  0  0
  -26.4271  -37.3778   23.9422 N   0  0  0  0  0  0
  -24.6848  -31.0659   22.0979 N   0  0  0  0  0  0
  -23.4205  -28.8171   23.3018 O   0  0  0  0  0  0
  -28.3876  -26.5741   20.1558 O   0  0  0  0  0  0
  -26.5574  -34.8925   22.4665 O   0  0  0  0  0  0
  -23.5434  -32.1415   23.7391 O   0  0  0  0  0  0
  -29.4125  -16.4459   18.4144 C   0  0  0  0  0  0
  -29.2238  -18.6478   17.7496 C   0  0  0  0  0  0
  -29.6700  -16.8116   19.7579 C   0  0  0  0  0  0
  -29.4268  -19.0984   19.0929 C   0  0  0  0  0  0
  -28.9777  -22.8136   19.4698 C   0  0  0  0  0  0
  -28.5049  -23.9764   20.0234 C   0  0  0  0  0  0
  -28.9245  -21.4449   20.0406 C   0  0  0  0  0  0
  -27.5344  -20.0671   16.4432 C   0  0  0  0  0  0
  -28.5635  -25.3753   19.3352 C   0  0  0  0  0  0
  -28.9893  -19.5874   16.5486 C   0  0  0  0  0  0
  -29.1793  -17.3359   17.4352 N   0  0  0  0  0  0
  -29.6331  -18.1566   20.0910 N   0  0  0  0  0  0
  -29.4918  -20.5379   19.2096 N   0  0  0  0  0  0
  -29.8598  -15.7075   20.6841 N   0  0  0  0  0  0
  -28.4306  -21.1517   21.1334 O   0  0  0  0  0  0
  -27.9331  -24.0536   21.2358 O   0  0  0  0  0  0
  -29.2630  -18.9435   15.4096 F   0  0  0  0  0  0
  -29.7970  -20.6506   16.5810 F   0  0  0  0  0  0
  -31.4678  -12.4521   19.1487 H   0  0  0  0  0  0
  -30.3409  -11.3678   19.9145 H   0  0  0  0  0  0
  -29.7453  -11.6536   17.5124 H   0  0  0  0  0  0
  -29.6831  -13.3744   17.6811 H   0  0  0  0  0  0
  -27.8284  -11.2822   18.8602 H   0  0  0  0  0  0
  -27.3790  -12.5777   17.7791 H   0  0  0  0  0  0
  -27.6627  -14.2432   19.5020 H   0  0  0  0  0  0
  -28.6898  -12.0744   21.3946 H   0  0  0  0  0  0
  -28.4492  -13.7523   21.8137 H   0  0  0  0  0  0
  -25.2743   -9.5654   22.4769 H   0  0  0  0  0  0
  -23.9962   -7.4592   22.7473 H   0  0  0  0  0  0
  -21.0799   -8.8744   19.8955 H   0  0  0  0  0  0
  -22.3651  -10.9649   19.6156 H   0  0  0  0  0  0
  -21.2026   -7.6116   23.9693 H   0  0  0  0  0  0
  -21.1480   -6.0508   25.9064 H   0  0  0  0  0  0
  -22.0618   -2.7565   23.2913 H   0  0  0  0  0  0
  -22.4134  -11.9963   22.4855 H   0  0  0  0  0  0
  -21.1038  -13.1208   22.2526 H   0  0  0  0  0  0
  -24.6518  -15.8352   20.5161 H   0  0  0  0  0  0
  -26.2563  -15.6246   20.0309 H   0  0  0  0  0  0
  -26.7198  -32.5462   23.1139 H   0  0  0  0  0  0
  -25.0193  -33.9739   25.0530 H   0  0  0  0  0  0
  -22.7090  -31.3038   21.4036 H   0  0  0  0  0  0
  -23.3732  -35.9644   23.3289 H   0  0  0  0  0  0
  -24.3577  -36.8930   22.2045 H   0  0  0  0  0  0
  -23.7236  -37.6513   23.6656 H   0  0  0  0  0  0
  -26.0727  -31.5573   20.5906 H   0  0  0  0  0  0
  -26.8416  -30.8579   21.9866 H   0  0  0  0  0  0
  -28.1084  -29.0108   21.1783 H   0  0  0  0  0  0
  -25.9696  -25.9117   19.0528 H   0  0  0  0  0  0
  -23.9630  -27.2842   19.0473 H   0  0  0  0  0  0
  -23.7705  -30.6033   19.4100 H   0  0  0  0  0  0
  -22.7497  -29.2643   19.8444 H   0  0  0  0  0  0
  -25.1255  -36.1933   25.0823 H   0  0  0  0  0  0
  -20.9948  -28.3283   24.1403 H   0  0  0  0  0  0
  -20.5679  -26.2317   23.3591 H   0  0  0  0  0  0
  -21.6656  -26.7478   22.1199 H   0  0  0  0  0  0
  -19.6922  -25.6296   21.1249 H   0  0  0  0  0  0
  -19.6706  -27.3188   20.6713 H   0  0  0  0  0  0
  -17.4198  -26.6692   21.4003 H   0  0  0  0  0  0
  -18.0338  -26.0110   22.9011 H   0  0  0  0  0  0
  -19.7940  -30.7295   24.2243 H   0  0  0  0  0  0
  -17.5022  -31.6268   24.5200 H   0  0  0  0  0  0
  -15.5361  -30.2987   23.7697 H   0  0  0  0  0  0
  -15.8673  -28.0855   22.7045 H   0  0  0  0  0  0
  -24.5928  -30.7083   25.7853 H   0  0  0  0  0  0
  -24.8973  -32.2899   26.4933 H   0  0  0  0  0  0
  -25.8104  -30.8917   27.0259 H   0  0  0  0  0  0
  -26.2937  -29.6751   24.1221 H   0  0  0  0  0  0
  -27.4133  -29.7289   25.4654 H   0  0  0  0  0  0
  -27.8778  -30.4354   23.9354 H   0  0  0  0  0  0
  -27.2718  -33.3614   26.2138 H   0  0  0  0  0  0
  -28.3898  -32.6890   25.0351 H   0  0  0  0  0  0
  -28.0767  -31.8419   26.5417 H   0  0  0  0  0  0
  -28.2564  -38.0122   24.7530 H   0  0  0  0  0  0
  -28.1098  -36.2654   24.6228 H   0  0  0  0  0  0
  -27.2314  -37.1397   25.8864 H   0  0  0  0  0  0
  -20.9391  -29.8767   21.6880 H   0  0  0  0  0  0
  -26.0150  -38.2849   24.1444 H   0  0  0  0  0  0
  -29.3642  -15.4181   18.1042 H   0  0  0  0  0  0
  -29.4269  -22.9127   18.4894 H   0  0  0  0  0  0
  -26.8498  -19.2223   16.4031 H   0  0  0  0  0  0
  -27.3806  -20.6536   15.5379 H   0  0  0  0  0  0
  -27.2508  -20.6953   17.2883 H   0  0  0  0  0  0
  -27.9322  -25.3760   18.4470 H   0  0  0  0  0  0
  -29.5729  -25.4642   18.9339 H   0  0  0  0  0  0
  -29.8375  -20.9702   18.3627 H   0  0  0  0  0  0
  -29.0555  -15.5158   21.2602 H   0  0  0  0  0  0
  -27.9351  -23.1782   21.6087 H   0  0  0  0  0  0
  1 25  1  0  0  0
  1 30  2  0  0  0
  1 84  1  0  0  0
  2  3  1  0  0  0
  2 25  1  0  0  0
  2 89  1  0  0  0
  2 90  1  0  0  0
  3  4  1  0  0  0
  3 91  1  0  0  0
  3 92  1  0  0  0
  4  5  1  0  0  0
  4 93  1  0  0  0
  4 94  1  0  0  0
  5  6  1  0  0  0
  5 26  1  0  0  0
  5 95  1  0  0  0
  6 25  1  0  0  0
  6 96  1  0  0  0
  6 97  1  0  0  0
  7  8  2  0  0  0
  7 26  1  0  0  0
  7 29  1  0  0  0
  8  9  1  0  0  0
  8 22  1  0  0  0
  9 10  1  0  0  0
  9 27  2  0  0  0
 10 11  2  0  0  0
 10 15  1  0  0  0
 11 12  1  0  0  0
 11 98  1  0  0  0
 12 13  2  0  0  0
 12 99  1  0  0  0
 13 14  1  0  0  0
 13 31  1  0  0  0
 14 15  2  0  0  0
 14100  1  0  0  0
 15101  1  0  0  0
 16 17  2  0  0  0
 16 21  1  0  0  0
 16 31  1  0  0  0
 17 18  1  0  0  0
 17102  1  0  0  0
 18 19  2  0  0  0
 18103  1  0  0  0
 19 20  1  0  0  0
 19 24  1  0  0  0
 20 21  2  0  0  0
 20104  1  0  0  0
 21 23  1  0  0  0
 22 28  1  0  0  0
 22 32  2  0  0  0
 26 27  1  0  0  0
 28105  1  0  0  0
 28106  1  0  0  0
 29107  1  0  0  0
 29108  1  0  0  0
 33 34  1  0  0  0
 33 66  1  0  0  0
 33 70  2  0  0  0
 34 36  1  0  0  0
 34 59  1  0  0  0
 34109  1  0  0  0
 35 44  2  0  0  0
 35 45  1  0  0  0
 35 68  1  0  0  0
 36 56  1  0  0  0
 36110  1  0  0  0
 37 39  1  0  0  0
 37 47  1  0  0  0
 37 66  1  0  0  0
 37111  1  0  0  0
 38 43  2  0  0  0
 38 46  1  0  0  0
 38 47  1  0  0  0
 39 64  1  0  0  0
 39 67  2  0  0  0
 40 52  1  0  0  0
 40 53  2  0  0  0
 40 58  1  0  0  0
 41112  1  0  0  0
 41113  1  0  0  0
 41114  1  0  0  0
 41 48  1  0  0  0
 42 43  1  0  0  0
 42 66  1  0  0  0
 42115  1  0  0  0
 42116  1  0  0  0
 43 44  1  0  0  0
 44117  1  0  0  0
 45 46  2  0  0  0
 45118  1  0  0  0
 46119  1  0  0  0
 47120  1  0  0  0
 47121  1  0  0  0
 48 56  1  0  0  0
 48 65  1  0  0  0
 48122  1  0  0  0
 49 50  1  0  0  0
 49 53  1  0  0  0
 49 64  1  0  0  0
 49123  1  0  0  0
 50 51  1  0  0  0
 50124  1  0  0  0
 50125  1  0  0  0
 51 52  1  0  0  0
 51126  1  0  0  0
 51127  1  0  0  0
 52128  1  0  0  0
 52129  1  0  0  0
 53 54  1  0  0  0
 54 55  2  0  0  0
 54130  1  0  0  0
 55 57  1  0  0  0
 55131  1  0  0  0
 56 69  2  0  0  0
 57 58  2  0  0  0
 57132  1  0  0  0
 58133  1  0  0  0
 59 60  1  0  0  0
 59 61  1  0  0  0
 59 62  1  0  0  0
 60134  1  0  0  0
 60135  1  0  0  0
 60136  1  0  0  0
 61137  1  0  0  0
 61138  1  0  0  0
 61139  1  0  0  0
 62140  1  0  0  0
 62141  1  0  0  0
 62142  1  0  0  0
 63 65  1  0  0  0
 63143  1  0  0  0
 63144  1  0  0  0
 63145  1  0  0  0
 64146  1  0  0  0
 65147  1  0  0  0
 68 79  1  0  0  0
 71 73  2  0  0  0
 71 81  1  0  0  0
 71148  1  0  0  0
 72 74  1  0  0  0
 72 80  1  0  0  0
 72 81  2  0  0  0
 73 82  1  0  0  0
 73 84  1  0  0  0
 74 82  2  0  0  0
 74 83  1  0  0  0
 75 76  2  0  0  0
 75 77  1  0  0  0
 75149  1  0  0  0
 76 79  1  0  0  0
 76 86  1  0  0  0
 77 83  1  0  0  0
 77 85  2  0  0  0
 78150  1  0  0  0
 78151  1  0  0  0
 78152  1  0  0  0
 78 80  1  0  0  0
 79153  1  0  0  0
 79154  1  0  0  0
 80 87  1  0  0  0
 80 88  1  0  0  0
 83155  1  0  0  0
 84156  1  0  0  0
 86157  1  0  0  0
M  ISO  4   1 100  68 101  79 101  84 100
M  END
> <chiral flag>
0

> <version>
0

> <s_m_source_file>
/data/baiqing/PycharmProjects/Reinvent-master-3.2/result/LINK_invent/BTK/process_docking_weight1_custom_product_contain_oxygen_bond_distance_aromatic_linkinvent_7_9_3/rearranged_h_0178.sdf

> <i_m_source_file_index>
71

> <r_mmod_Potential_Energy-OPLS-2005>
51.0727233886719

> <r_mmod_Stretch_Energy-OPLS-2005>
69.4856109619141

> <r_mmod_Bend_Energy-OPLS-2005>
151.109039306641

> <r_mmod_Torsional_Energy-OPLS-2005>
248.479110717773

> <r_mmod_Improper_Torsional_Energy-OPLS-2005>
8.75101280212402

> <r_mmod_Van_der_Waal_Energy-OPLS-2005>
151.65119934082

> <r_mmod_Electrostatic_Energy-OPLS-2005>
-358.897277832031

> <r_mmod_Solvation_Energy-OPLS-2005>
-259.146209716797

> <b_mmod_Minimization_Converged-OPLS-2005>
0

> <r_mmod_RMS_Derivative-OPLS-2005>
3.30025506019592

$$$$
71
                    3D
 Structure written by MMmdl.
153161  0  0  1  0            999 V2000
  -30.6894  -14.5932   20.5096 C   0  0  0  0  0  0
  -30.4213  -12.3751   19.4437 C   0  0  0  0  0  0
  -29.4948  -12.4982   18.2162 C   0  0  0  0  0  0
  -28.0184  -12.3492   18.6330 C   0  0  0  0  0  0
  -27.6515  -13.2174   19.8671 C   0  0  2  0  0  0
  -28.7018  -13.0646   20.9910 C   0  0  0  0  0  0
  -25.2557  -13.8177   20.5680 C   0  0  0  0  0  0
  -24.1835  -13.0451   20.9225 C   0  0  0  0  0  0
  -24.6396  -11.6920   20.8776 C   0  0  0  0  0  0
  -23.9067  -10.4304   21.0429 C   0  0  0  0  0  0
  -24.3611   -9.4216   21.9205 C   0  0  0  0  0  0
  -23.6291   -8.2248   22.0763 C   0  0  0  0  0  0
  -22.4277   -8.0285   21.3546 C   0  0  0  0  0  0
  -21.9914   -9.0266   20.4653 C   0  0  0  0  0  0
  -22.7239  -10.2149   20.3075 C   0  0  0  0  0  0
  -21.6852   -6.0741   22.5280 C   0  0  0  0  0  0
  -21.4009   -6.5645   23.8213 C   0  0  0  0  0  0
  -21.3660   -5.6798   24.9176 C   0  0  0  0  0  0
  -21.6046   -4.3062   24.7227 C   0  0  0  0  0  0
  -21.8817   -3.8153   23.4345 C   0  0  0  0  0  0
  -21.9189   -4.6970   22.3402 C   0  0  0  0  0  0
  -22.7861  -13.5252   21.1869 C   0  0  0  0  0  0
  -22.1662   -4.2156   21.0980 F   0  0  0  0  0  0
  -21.5625   -3.4544   25.7737 F   0  0  0  0  0  0
  -30.0042  -13.4111   20.4105 N   0  0  0  0  0  0
  -26.2985  -12.9359   20.3358 N   0  0  0  0  0  0
  -25.9324  -11.6514   20.5803 N   0  0  0  0  0  0
  -22.0499  -12.8240   22.0416 N   0  0  0  0  0  0
  -25.4252  -15.1876   20.3960 N   0  0  0  0  0  0
  -31.8664  -14.6711   20.1593 O   0  0  0  0  0  0
  -21.6638   -6.8884   21.4243 O   0  0  0  0  0  0
  -22.3549  -14.5555   20.6709 O   0  0  0  0  0  0
  -24.6246  -31.8638   23.2088 C   0  0  0  0  0  0
  -25.9112  -32.4798   23.8393 C   0  0  1  0  0  0
  -27.2109  -27.3440   20.0991 C   0  0  0  0  0  0
  -25.5942  -33.8598   24.2313 N   0  0  0  0  0  0
  -23.4146  -30.4937   21.5518 C   0  0  2  0  0  0
  -24.8561  -28.9624   20.1101 C   0  0  0  0  0  0
  -22.7460  -29.4659   22.4956 C   0  0  0  0  0  0
  -18.0287  -28.1384   22.8489 C   0  0  0  0  0  0
  -24.1485  -36.7297   23.2635 C   0  0  0  0  0  0
  -25.9565  -30.8004   21.3792 C   0  0  0  0  0  0
  -26.0273  -29.4328   20.7178 C   0  0  0  0  0  0
  -27.2074  -28.6329   20.7107 C   0  0  0  0  0  0
  -26.0155  -26.9390   19.4504 C   0  0  0  0  0  0
  -24.8505  -27.7180   19.4709 C   0  0  0  0  0  0
  -23.6253  -29.8395   20.1637 C   0  0  0  0  0  0
  -25.4109  -36.3091   24.0331 C   0  0  1  0  0  0
  -20.5885  -28.3687   23.1281 C   0  0  2  0  0  0
  -20.6777  -26.9415   22.5401 C   0  0  0  0  0  0
  -19.5751  -26.6388   21.5205 C   0  0  0  0  0  0
  -18.1933  -26.7927   22.1623 C   0  0  0  0  0  0
  -19.1539  -28.8853   23.2880 C   0  0  0  0  0  0
  -18.9463  -30.1457   23.8895 C   0  0  0  0  0  0
  -17.6465  -30.6588   24.0565 C   0  0  0  0  0  0
  -25.9047  -34.9462   23.5114 C   0  0  0  0  0  0
  -16.5355  -29.9087   23.6333 C   0  0  0  0  0  0
  -16.7274  -28.6503   23.0354 C   0  0  0  0  0  0
  -26.4501  -31.6596   25.0752 C   0  0  0  0  0  0
  -25.3742  -31.3730   26.1483 C   0  0  0  0  0  0
  -27.0335  -30.3017   24.6197 C   0  0  0  0  0  0
  -27.6060  -32.4326   25.7526 C   0  0  0  0  0  0
  -27.5574  -37.1806   24.8467 C   0  0  0  0  0  0
  -21.4180  -29.3048   22.3682 N   0  0  0  0  0  0
  -26.4286  -37.3785   23.9413 N   0  0  0  0  0  0
  -24.6842  -31.0677   22.1032 N   0  0  0  0  0  0
  -23.4195  -28.8186   23.3016 O   0  0  0  0  0  0
  -28.3144  -26.4794   20.1589 O   0  0  0  0  0  0
  -26.5600  -34.8920   22.4671 O   0  0  0  0  0  0
  -23.5418  -32.1429   23.7433 O   0  0  0  0  0  0
  -28.7190  -17.7876   21.5678 C   0  0  0  0  0  0
  -27.6778  -18.2904   22.3260 C   0  0  0  0  0  0
  -28.8430  -20.0476   21.0406 C   0  0  0  0  0  0
  -28.9624  -23.9355   20.3227 C   0  0  0  0  0  0
  -29.0621  -16.2808   21.5430 C   0  0  0  0  0  0
  -28.3999  -22.4819   20.1462 C   0  0  0  0  0  0
  -28.0126  -25.0755   19.8283 C   0  0  0  0  0  0
  -26.7279  -17.5737   23.2398 C   0  0  0  0  0  0
  -29.3971  -18.8229   20.8532 N   0  0  0  0  0  0
  -29.2226  -21.2796   20.4675 N   0  0  0  0  0  0
  -30.0001  -15.7671   20.5353 N   0  0  0  0  0  0
  -30.0754  -24.1514   20.8137 O   0  0  0  0  0  0
  -27.1795  -16.3831   23.6312 F   0  0  0  0  0  0
  -26.5036  -18.2794   24.3481 F   0  0  0  0  0  0
  -25.5501  -17.3834   22.6499 F   0  0  0  0  0  0
  -27.4641  -20.0078   22.1163 S   0  0  0  0  0  0
  -31.4631  -12.4773   19.1357 H   0  0  0  0  0  0
  -30.3425  -11.3828   19.8912 H   0  0  0  0  0  0
  -29.7511  -11.7427   17.4723 H   0  0  0  0  0  0
  -29.6455  -13.4662   17.7356 H   0  0  0  0  0  0
  -27.8482  -11.2964   18.8607 H   0  0  0  0  0  0
  -27.3624  -12.5882   17.7952 H   0  0  0  0  0  0
  -27.6727  -14.2532   19.5293 H   0  0  0  0  0  0
  -28.7166  -12.0369   21.3575 H   0  0  0  0  0  0
  -28.4670  -13.6708   21.8630 H   0  0  0  0  0  0
  -25.2746   -9.5699   22.4796 H   0  0  0  0  0  0
  -23.9999   -7.4642   22.7485 H   0  0  0  0  0  0
  -21.0846   -8.8794   19.8959 H   0  0  0  0  0  0
  -22.3697  -10.9698   19.6196 H   0  0  0  0  0  0
  -21.1997   -7.6152   23.9718 H   0  0  0  0  0  0
  -21.1479   -6.0528   25.9079 H   0  0  0  0  0  0
  -22.0589   -2.7616   23.2845 H   0  0  0  0  0  0
  -21.1125  -13.1276   22.2630 H   0  0  0  0  0  0
  -22.4109  -11.9891   22.4783 H   0  0  0  0  0  0
  -24.6458  -15.8299   20.4828 H   0  0  0  0  0  0
  -26.2416  -15.6087   19.9739 H   0  0  0  0  0  0
  -26.7182  -32.5471   23.1146 H   0  0  0  0  0  0
  -25.0121  -33.9753   25.0478 H   0  0  0  0  0  0
  -22.7072  -31.3145   21.4164 H   0  0  0  0  0  0
  -23.3744  -35.9633   23.3306 H   0  0  0  0  0  0
  -24.3573  -36.8904   22.2046 H   0  0  0  0  0  0
  -23.7241  -37.6505   23.6647 H   0  0  0  0  0  0
  -26.0870  -31.5658   20.6128 H   0  0  0  0  0  0
  -26.8379  -30.8445   22.0070 H   0  0  0  0  0  0
  -28.1023  -28.9853   21.2046 H   0  0  0  0  0  0
  -25.9306  -26.0032   18.9192 H   0  0  0  0  0  0
  -23.9552  -27.3550   18.9845 H   0  0  0  0  0  0
  -23.7434  -30.6204   19.4116 H   0  0  0  0  0  0
  -22.7447  -29.2705   19.8596 H   0  0  0  0  0  0
  -25.1286  -36.1945   25.0822 H   0  0  0  0  0  0
  -20.9979  -28.3258   24.1400 H   0  0  0  0  0  0
  -20.5681  -26.2300   23.3597 H   0  0  0  0  0  0
  -21.6647  -26.7450   22.1195 H   0  0  0  0  0  0
  -19.6913  -25.6299   21.1235 H   0  0  0  0  0  0
  -19.6685  -27.3197   20.6734 H   0  0  0  0  0  0
  -17.4200  -26.6674   21.4027 H   0  0  0  0  0  0
  -18.0341  -26.0065   22.9017 H   0  0  0  0  0  0
  -19.7941  -30.7276   24.2255 H   0  0  0  0  0  0
  -17.5021  -31.6267   24.5168 H   0  0  0  0  0  0
  -15.5356  -30.2991   23.7659 H   0  0  0  0  0  0
  -15.8673  -28.0824   22.7069 H   0  0  0  0  0  0
  -24.5924  -30.7064   25.7827 H   0  0  0  0  0  0
  -24.8930  -32.2896   26.4905 H   0  0  0  0  0  0
  -25.8082  -30.8924   27.0260 H   0  0  0  0  0  0
  -26.2901  -29.6775   24.1222 H   0  0  0  0  0  0
  -27.4028  -29.7266   25.4699 H   0  0  0  0  0  0
  -27.8781  -30.4296   23.9421 H   0  0  0  0  0  0
  -27.2665  -33.3621   26.2107 H   0  0  0  0  0  0
  -28.3877  -32.6888   25.0364 H   0  0  0  0  0  0
  -28.0721  -31.8450   26.5445 H   0  0  0  0  0  0
  -28.2600  -38.0094   24.7505 H   0  0  0  0  0  0
  -28.1059  -36.2625   24.6304 H   0  0  0  0  0  0
  -27.2290  -37.1471   25.8869 H   0  0  0  0  0  0
  -20.9351  -29.8773   21.6901 H   0  0  0  0  0  0
  -26.0166  -38.2858   24.1419 H   0  0  0  0  0  0
  -28.1271  -15.7452   21.3955 H   0  0  0  0  0  0
  -29.4356  -15.9785   22.5227 H   0  0  0  0  0  0
  -28.0909  -22.3910   19.1043 H   0  0  0  0  0  0
  -27.4764  -22.4358   20.7236 H   0  0  0  0  0  0
  -27.0463  -24.8088   20.2578 H   0  0  0  0  0  0
  -27.9222  -24.9823   18.7456 H   0  0  0  0  0  0
  -30.0937  -21.2438   19.9487 H   0  0  0  0  0  0
  -30.5415  -16.5222   20.1411 H   0  0  0  0  0  0
  1 25  1  0  0  0
  1 30  2  0  0  0
  1 81  1  0  0  0
  2  3  1  0  0  0
  2 25  1  0  0  0
  2 87  1  0  0  0
  2 88  1  0  0  0
  3  4  1  0  0  0
  3 89  1  0  0  0
  3 90  1  0  0  0
  4  5  1  0  0  0
  4 91  1  0  0  0
  4 92  1  0  0  0
  5  6  1  0  0  0
  5 26  1  0  0  0
  5 93  1  0  0  0
  6 25  1  0  0  0
  6 94  1  0  0  0
  6 95  1  0  0  0
  7  8  2  0  0  0
  7 26  1  0  0  0
  7 29  1  0  0  0
  8  9  1  0  0  0
  8 22  1  0  0  0
  9 10  1  0  0  0
  9 27  2  0  0  0
 10 11  2  0  0  0
 10 15  1  0  0  0
 11 12  1  0  0  0
 11 96  1  0  0  0
 12 13  2  0  0  0
 12 97  1  0  0  0
 13 14  1  0  0  0
 13 31  1  0  0  0
 14 15  2  0  0  0
 14 98  1  0  0  0
 15 99  1  0  0  0
 16 17  2  0  0  0
 16 21  1  0  0  0
 16 31  1  0  0  0
 17 18  1  0  0  0
 17100  1  0  0  0
 18 19  2  0  0  0
 18101  1  0  0  0
 19 20  1  0  0  0
 19 24  1  0  0  0
 20 21  2  0  0  0
 20102  1  0  0  0
 21 23  1  0  0  0
 22 28  1  0  0  0
 22 32  2  0  0  0
 26 27  1  0  0  0
 28103  1  0  0  0
 28104  1  0  0  0
 29105  1  0  0  0
 29106  1  0  0  0
 33 34  1  0  0  0
 33 66  1  0  0  0
 33 70  2  0  0  0
 34 36  1  0  0  0
 34 59  1  0  0  0
 34107  1  0  0  0
 35 44  2  0  0  0
 35 45  1  0  0  0
 35 68  1  0  0  0
 36 56  1  0  0  0
 36108  1  0  0  0
 37 39  1  0  0  0
 37 47  1  0  0  0
 37 66  1  0  0  0
 37109  1  0  0  0
 38 43  2  0  0  0
 38 46  1  0  0  0
 38 47  1  0  0  0
 39 64  1  0  0  0
 39 67  2  0  0  0
 40 52  1  0  0  0
 40 53  2  0  0  0
 40 58  1  0  0  0
 41110  1  0  0  0
 41111  1  0  0  0
 41112  1  0  0  0
 41 48  1  0  0  0
 42 43  1  0  0  0
 42 66  1  0  0  0
 42113  1  0  0  0
 42114  1  0  0  0
 43 44  1  0  0  0
 44115  1  0  0  0
 45 46  2  0  0  0
 45116  1  0  0  0
 46117  1  0  0  0
 47118  1  0  0  0
 47119  1  0  0  0
 48 56  1  0  0  0
 48 65  1  0  0  0
 48120  1  0  0  0
 49 50  1  0  0  0
 49 53  1  0  0  0
 49 64  1  0  0  0
 49121  1  0  0  0
 50 51  1  0  0  0
 50122  1  0  0  0
 50123  1  0  0  0
 51 52  1  0  0  0
 51124  1  0  0  0
 51125  1  0  0  0
 52126  1  0  0  0
 52127  1  0  0  0
 53 54  1  0  0  0
 54 55  2  0  0  0
 54128  1  0  0  0
 55 57  1  0  0  0
 55129  1  0  0  0
 56 69  2  0  0  0
 57 58  2  0  0  0
 57130  1  0  0  0
 58131  1  0  0  0
 59 60  1  0  0  0
 59 61  1  0  0  0
 59 62  1  0  0  0
 60132  1  0  0  0
 60133  1  0  0  0
 60134  1  0  0  0
 61135  1  0  0  0
 61136  1  0  0  0
 61137  1  0  0  0
 62138  1  0  0  0
 62139  1  0  0  0
 62140  1  0  0  0
 63 65  1  0  0  0
 63141  1  0  0  0
 63142  1  0  0  0
 63143  1  0  0  0
 64144  1  0  0  0
 65145  1  0  0  0
 68 77  1  0  0  0
 71 72  2  0  0  0
 71 75  1  0  0  0
 71 79  1  0  0  0
 72 78  1  0  0  0
 72 86  1  0  0  0
 73 79  2  0  0  0
 73 80  1  0  0  0
 73 86  1  0  0  0
 74 76  1  0  0  0
 74 77  1  0  0  0
 74 82  2  0  0  0
 75 81  1  0  0  0
 75146  1  0  0  0
 75147  1  0  0  0
 76 80  1  0  0  0
 76148  1  0  0  0
 76149  1  0  0  0
 77150  1  0  0  0
 77151  1  0  0  0
 78 83  1  0  0  0
 78 84  1  0  0  0
 78 85  1  0  0  0
 80152  1  0  0  0
 81153  1  0  0  0
M  ISO  4   1 100  68 101  77 101  81 100
M  END
> <chiral flag>
0

> <version>
0

> <s_m_source_file>
/data/baiqing/PycharmProjects/Reinvent-master-3.2/result/LINK_invent/BTK/process_docking_weight1_custom_product_contain_oxygen_bond_distance_aromatic_linkinvent_7_9_3/rearranged_h_0178.sdf

> <i_m_source_file_index>
72

> <r_mmod_Potential_Energy-OPLS-2005>
-124.930236816406

> <r_mmod_Stretch_Energy-OPLS-2005>
60.0863609313965

> <r_mmod_Bend_Energy-OPLS-2005>
153.080154418945

> <r_mmod_Torsional_Energy-OPLS-2005>
238.552337646484

> <r_mmod_Improper_Torsional_Energy-OPLS-2005>
18.384391784668

> <r_mmod_Van_der_Waal_Energy-OPLS-2005>
127.643096923828

> <r_mmod_Electrostatic_Energy-OPLS-2005>
-521.200500488281

> <r_mmod_Solvation_Energy-OPLS-2005>
-243.066680908203

> <b_mmod_Minimization_Converged-OPLS-2005>
0

> <r_mmod_RMS_Derivative-OPLS-2005>
0.778470575809479

$$$$
72
                    3D
 Structure written by MMmdl.
156164  0  0  1  0            999 V2000
  -30.6052  -14.7529   20.4775 C   0  0  0  0  0  0
  -30.4453  -12.4659   19.4656 C   0  0  0  0  0  0
  -29.5152  -12.5116   18.2342 C   0  0  0  0  0  0
  -28.0420  -12.3316   18.6501 C   0  0  0  0  0  0
  -27.6465  -13.2276   19.8533 C   0  0  2  0  0  0
  -28.6947  -13.1579   20.9870 C   0  0  0  0  0  0
  -25.2542  -13.8190   20.5679 C   0  0  0  0  0  0
  -24.1834  -13.0438   20.9184 C   0  0  0  0  0  0
  -24.6415  -11.6915   20.8772 C   0  0  0  0  0  0
  -23.9082  -10.4294   21.0417 C   0  0  0  0  0  0
  -24.3633   -9.4206   21.9181 C   0  0  0  0  0  0
  -23.6294   -8.2254   22.0762 C   0  0  0  0  0  0
  -22.4275   -8.0292   21.3546 C   0  0  0  0  0  0
  -21.9919   -9.0273   20.4652 C   0  0  0  0  0  0
  -22.7261  -10.2137   20.3054 C   0  0  0  0  0  0
  -21.6862   -6.0737   22.5274 C   0  0  0  0  0  0
  -21.4018   -6.5641   23.8206 C   0  0  0  0  0  0
  -21.3650   -5.6793   24.9178 C   0  0  0  0  0  0
  -21.6052   -4.3060   24.7224 C   0  0  0  0  0  0
  -21.8814   -3.8146   23.4350 C   0  0  0  0  0  0
  -21.9194   -4.6965   22.3406 C   0  0  0  0  0  0
  -22.7850  -13.5227   21.1849 C   0  0  0  0  0  0
  -22.1664   -4.2149   21.0984 F   0  0  0  0  0  0
  -21.5624   -3.4543   25.7740 F   0  0  0  0  0  0
  -29.9962  -13.5182   20.4047 N   0  0  0  0  0  0
  -26.2965  -12.9395   20.3274 N   0  0  0  0  0  0
  -25.9335  -11.6540   20.5756 N   0  0  0  0  0  0
  -22.0488  -12.8215   22.0412 N   0  0  0  0  0  0
  -25.4215  -15.1916   20.4086 N   0  0  0  0  0  0
  -31.7953  -14.8674   20.1633 O   0  0  0  0  0  0
  -21.6646   -6.8887   21.4234 O   0  0  0  0  0  0
  -22.3536  -14.5532   20.6702 O   0  0  0  0  0  0
  -24.6313  -31.8553   23.2006 C   0  0  0  0  0  0
  -25.9114  -32.4744   23.8352 C   0  0  1  0  0  0
  -27.2052  -27.2526   20.1323 C   0  0  0  0  0  0
  -25.5931  -33.8569   24.2267 N   0  0  0  0  0  0
  -23.4267  -30.4787   21.5400 C   0  0  2  0  0  0
  -24.8715  -28.9278   20.1104 C   0  0  0  0  0  0
  -22.7513  -29.4580   22.4892 C   0  0  0  0  0  0
  -18.0274  -28.1380   22.8464 C   0  0  0  0  0  0
  -24.1499  -36.7292   23.2640 C   0  0  0  0  0  0
  -25.9730  -30.7646   21.3825 C   0  0  0  0  0  0
  -26.0406  -29.3875   20.7257 C   0  0  0  0  0  0
  -27.2059  -28.5562   20.7331 C   0  0  0  0  0  0
  -26.0117  -26.8703   19.4740 C   0  0  0  0  0  0
  -24.8606  -27.6798   19.4740 C   0  0  0  0  0  0
  -23.6478  -29.8198   20.1525 C   0  0  0  0  0  0
  -25.4113  -36.3065   24.0339 C   0  0  1  0  0  0
  -20.5886  -28.3675   23.1289 C   0  0  2  0  0  0
  -20.6761  -26.9384   22.5419 C   0  0  0  0  0  0
  -19.5738  -26.6378   21.5206 C   0  0  0  0  0  0
  -18.1916  -26.7911   22.1618 C   0  0  0  0  0  0
  -19.1538  -28.8840   23.2856 C   0  0  0  0  0  0
  -18.9470  -30.1445   23.8873 C   0  0  0  0  0  0
  -17.6468  -30.6582   24.0558 C   0  0  0  0  0  0
  -25.9063  -34.9440   23.5100 C   0  0  0  0  0  0
  -16.5358  -29.9082   23.6329 C   0  0  0  0  0  0
  -16.7262  -28.6512   23.0328 C   0  0  0  0  0  0
  -26.4491  -31.6574   25.0738 C   0  0  0  0  0  0
  -25.3730  -31.3749   26.1470 C   0  0  0  0  0  0
  -27.0334  -30.3005   24.6205 C   0  0  0  0  0  0
  -27.6024  -32.4325   25.7515 C   0  0  0  0  0  0
  -27.5568  -37.1808   24.8463 C   0  0  0  0  0  0
  -21.4217  -29.3033   22.3678 N   0  0  0  0  0  0
  -26.4277  -37.3768   23.9415 N   0  0  0  0  0  0
  -24.6950  -31.0514   22.0977 N   0  0  0  0  0  0
  -23.4236  -28.8097   23.2960 O   0  0  0  0  0  0
  -28.3202  -26.3842   20.2223 O   0  0  0  0  0  0
  -26.5619  -34.8896   22.4660 O   0  0  0  0  0  0
  -23.5461  -32.1365   23.7292 O   0  0  0  0  0  0
  -31.1018  -19.3221   21.1565 C   0  0  0  0  0  0
  -29.8945  -19.9382   20.8463 C   0  0  0  0  0  0
  -29.9983  -17.3175   20.7185 C   0  0  0  0  0  0
  -28.7501  -22.2249   20.4348 C   0  0  0  0  0  0
  -32.3493  -20.0327   21.5944 C   0  0  0  0  0  0
  -30.1441  -24.1773   21.4162 C   0  0  0  0  0  0
  -27.7444  -23.8526   22.0811 C   0  0  0  0  0  0
  -28.2917  -24.9194   19.8486 C   0  0  0  0  0  0
  -28.7451  -23.7776   20.9098 C   0  0  0  0  0  0
  -31.1537  -17.9020   21.0694 N   0  0  0  0  0  0
  -29.6629  -21.3270   20.9554 N   0  0  0  0  0  0
  -29.7788  -15.8500   20.6786 N   0  0  0  0  0  0
  -27.8993  -21.8526   19.6277 O   0  0  0  0  0  0
  -28.7564  -18.6132   20.4395 S   0  0  0  0  0  0
  -31.4800  -12.6113   19.1525 H   0  0  0  0  0  0
  -30.4121  -11.4869   19.9446 H   0  0  0  0  0  0
  -29.8006  -11.7403   17.5175 H   0  0  0  0  0  0
  -29.6357  -13.4650   17.7192 H   0  0  0  0  0  0
  -27.9028  -11.2810   18.9111 H   0  0  0  0  0  0
  -27.3840  -12.5255   17.8010 H   0  0  0  0  0  0
  -27.6414  -14.2482   19.4722 H   0  0  0  0  0  0
  -28.7352  -12.1601   21.4277 H   0  0  0  0  0  0
  -28.4263  -13.8368   21.7976 H   0  0  0  0  0  0
  -25.2776   -9.5687   22.4753 H   0  0  0  0  0  0
  -24.0002   -7.4654   22.7487 H   0  0  0  0  0  0
  -21.0846   -8.8788   19.8968 H   0  0  0  0  0  0
  -22.3712  -10.9677   19.6167 H   0  0  0  0  0  0
  -21.2013   -7.6144   23.9708 H   0  0  0  0  0  0
  -21.1475   -6.0530   25.9076 H   0  0  0  0  0  0
  -22.0602   -2.7605   23.2852 H   0  0  0  0  0  0
  -22.4101  -11.9876   22.4801 H   0  0  0  0  0  0
  -21.1097  -13.1246   22.2605 H   0  0  0  0  0  0
  -24.6472  -15.8384   20.5205 H   0  0  0  0  0  0
  -26.2484  -15.6340   20.0287 H   0  0  0  0  0  0
  -26.7174  -32.5387   23.1086 H   0  0  0  0  0  0
  -25.0072  -33.9713   25.0410 H   0  0  0  0  0  0
  -22.7190  -31.2964   21.3949 H   0  0  0  0  0  0
  -23.3740  -35.9641   23.3309 H   0  0  0  0  0  0
  -24.3580  -36.8918   22.2047 H   0  0  0  0  0  0
  -23.7274  -37.6507   23.6671 H   0  0  0  0  0  0
  -26.1090  -31.5248   20.6125 H   0  0  0  0  0  0
  -26.8515  -30.8194   22.0137 H   0  0  0  0  0  0
  -28.0998  -28.8880   21.2428 H   0  0  0  0  0  0
  -25.9154  -25.9338   18.9552 H   0  0  0  0  0  0
  -23.9604  -27.3322   18.9836 H   0  0  0  0  0  0
  -23.7971  -30.6005   19.4061 H   0  0  0  0  0  0
  -22.7618  -29.2663   19.8337 H   0  0  0  0  0  0
  -25.1296  -36.1912   25.0839 H   0  0  0  0  0  0
  -20.9949  -28.3222   24.1427 H   0  0  0  0  0  0
  -20.5657  -26.2269   23.3610 H   0  0  0  0  0  0
  -21.6631  -26.7394   22.1221 H   0  0  0  0  0  0
  -19.6912  -25.6288   21.1239 H   0  0  0  0  0  0
  -19.6707  -27.3178   20.6723 H   0  0  0  0  0  0
  -17.4197  -26.6640   21.4011 H   0  0  0  0  0  0
  -18.0311  -26.0052   22.9026 H   0  0  0  0  0  0
  -19.7954  -30.7251   24.2243 H   0  0  0  0  0  0
  -17.5035  -31.6254   24.5158 H   0  0  0  0  0  0
  -15.5353  -30.2991   23.7669 H   0  0  0  0  0  0
  -15.8652  -28.0842   22.7035 H   0  0  0  0  0  0
  -24.5908  -30.7076   25.7843 H   0  0  0  0  0  0
  -24.8901  -32.2931   26.4837 H   0  0  0  0  0  0
  -25.8062  -30.8993   27.0286 H   0  0  0  0  0  0
  -26.2931  -29.6750   24.1198 H   0  0  0  0  0  0
  -27.4012  -29.7247   25.4702 H   0  0  0  0  0  0
  -27.8817  -30.4272   23.9459 H   0  0  0  0  0  0
  -27.2619  -33.3632   26.2053 H   0  0  0  0  0  0
  -28.3866  -32.6878   25.0389 H   0  0  0  0  0  0
  -28.0658  -31.8491   26.5476 H   0  0  0  0  0  0
  -28.2587  -38.0098   24.7468 H   0  0  0  0  0  0
  -28.1055  -36.2630   24.6330 H   0  0  0  0  0  0
  -27.2279  -37.1497   25.8861 H   0  0  0  0  0  0
  -20.9378  -29.8860   21.6994 H   0  0  0  0  0  0
  -26.0153  -38.2849   24.1408 H   0  0  0  0  0  0
  -32.2080  -20.5259   22.5553 H   0  0  0  0  0  0
  -32.6419  -20.7941   20.8709 H   0  0  0  0  0  0
  -33.1938  -19.3496   21.7077 H   0  0  0  0  0  0
  -30.4702  -23.5920   22.2778 H   0  0  0  0  0  0
  -30.1478  -25.2238   21.7242 H   0  0  0  0  0  0
  -30.8941  -24.0732   20.6345 H   0  0  0  0  0  0
  -27.9592  -23.1049   22.8467 H   0  0  0  0  0  0
  -26.7181  -23.6941   21.7434 H   0  0  0  0  0  0
  -27.7803  -24.8313   22.5606 H   0  0  0  0  0  0
  -27.3338  -24.6076   19.4528 H   0  0  0  0  0  0
  -28.9652  -24.8403   18.9914 H   0  0  0  0  0  0
  -30.3412  -21.7985   21.5378 H   0  0  0  0  0  0
  -28.8088  -15.5928   20.7682 H   0  0  0  0  0  0
  1 25  1  0  0  0
  1 30  2  0  0  0
  1 82  1  0  0  0
  2  3  1  0  0  0
  2 25  1  0  0  0
  2 85  1  0  0  0
  2 86  1  0  0  0
  3  4  1  0  0  0
  3 87  1  0  0  0
  3 88  1  0  0  0
  4  5  1  0  0  0
  4 89  1  0  0  0
  4 90  1  0  0  0
  5  6  1  0  0  0
  5 26  1  0  0  0
  5 91  1  0  0  0
  6 25  1  0  0  0
  6 92  1  0  0  0
  6 93  1  0  0  0
  7  8  2  0  0  0
  7 26  1  0  0  0
  7 29  1  0  0  0
  8  9  1  0  0  0
  8 22  1  0  0  0
  9 10  1  0  0  0
  9 27  2  0  0  0
 10 11  2  0  0  0
 10 15  1  0  0  0
 11 12  1  0  0  0
 11 94  1  0  0  0
 12 13  2  0  0  0
 12 95  1  0  0  0
 13 14  1  0  0  0
 13 31  1  0  0  0
 14 15  2  0  0  0
 14 96  1  0  0  0
 15 97  1  0  0  0
 16 17  2  0  0  0
 16 21  1  0  0  0
 16 31  1  0  0  0
 17 18  1  0  0  0
 17 98  1  0  0  0
 18 19  2  0  0  0
 18 99  1  0  0  0
 19 20  1  0  0  0
 19 24  1  0  0  0
 20 21  2  0  0  0
 20100  1  0  0  0
 21 23  1  0  0  0
 22 28  1  0  0  0
 22 32  2  0  0  0
 26 27  1  0  0  0
 28101  1  0  0  0
 28102  1  0  0  0
 29103  1  0  0  0
 29104  1  0  0  0
 33 34  1  0  0  0
 33 66  1  0  0  0
 33 70  2  0  0  0
 34 36  1  0  0  0
 34 59  1  0  0  0
 34105  1  0  0  0
 35 44  2  0  0  0
 35 45  1  0  0  0
 35 68  1  0  0  0
 36 56  1  0  0  0
 36106  1  0  0  0
 37 39  1  0  0  0
 37 47  1  0  0  0
 37 66  1  0  0  0
 37107  1  0  0  0
 38 43  2  0  0  0
 38 46  1  0  0  0
 38 47  1  0  0  0
 39 64  1  0  0  0
 39 67  2  0  0  0
 40 52  1  0  0  0
 40 53  2  0  0  0
 40 58  1  0  0  0
 41108  1  0  0  0
 41109  1  0  0  0
 41110  1  0  0  0
 41 48  1  0  0  0
 42 43  1  0  0  0
 42 66  1  0  0  0
 42111  1  0  0  0
 42112  1  0  0  0
 43 44  1  0  0  0
 44113  1  0  0  0
 45 46  2  0  0  0
 45114  1  0  0  0
 46115  1  0  0  0
 47116  1  0  0  0
 47117  1  0  0  0
 48 56  1  0  0  0
 48 65  1  0  0  0
 48118  1  0  0  0
 49 50  1  0  0  0
 49 53  1  0  0  0
 49 64  1  0  0  0
 49119  1  0  0  0
 50 51  1  0  0  0
 50120  1  0  0  0
 50121  1  0  0  0
 51 52  1  0  0  0
 51122  1  0  0  0
 51123  1  0  0  0
 52124  1  0  0  0
 52125  1  0  0  0
 53 54  1  0  0  0
 54 55  2  0  0  0
 54126  1  0  0  0
 55 57  1  0  0  0
 55127  1  0  0  0
 56 69  2  0  0  0
 57 58  2  0  0  0
 57128  1  0  0  0
 58129  1  0  0  0
 59 60  1  0  0  0
 59 61  1  0  0  0
 59 62  1  0  0  0
 60130  1  0  0  0
 60131  1  0  0  0
 60132  1  0  0  0
 61133  1  0  0  0
 61134  1  0  0  0
 61135  1  0  0  0
 62136  1  0  0  0
 62137  1  0  0  0
 62138  1  0  0  0
 63 65  1  0  0  0
 63139  1  0  0  0
 63140  1  0  0  0
 63141  1  0  0  0
 64142  1  0  0  0
 65143  1  0  0  0
 68 78  1  0  0  0
 71 72  2  0  0  0
 71 75  1  0  0  0
 71 80  1  0  0  0
 72 81  1  0  0  0
 72 84  1  0  0  0
 73 80  2  0  0  0
 73 82  1  0  0  0
 73 84  1  0  0  0
 74 79  1  0  0  0
 74 81  1  0  0  0
 74 83  2  0  0  0
 75144  1  0  0  0
 75145  1  0  0  0
 75146  1  0  0  0
 76147  1  0  0  0
 76148  1  0  0  0
 76149  1  0  0  0
 76 79  1  0  0  0
 77 79  1  0  0  0
 77150  1  0  0  0
 77151  1  0  0  0
 77152  1  0  0  0
 78 79  1  0  0  0
 78153  1  0  0  0
 78154  1  0  0  0
 81155  1  0  0  0
 82156  1  0  0  0
M  ISO  4   1 100  68 101  78 101  82 100
M  END
> <chiral flag>
0

> <version>
0

> <s_m_source_file>
/data/baiqing/PycharmProjects/Reinvent-master-3.2/result/LINK_invent/BTK/process_docking_weight1_custom_product_contain_oxygen_bond_distance_aromatic_linkinvent_7_9_3/rearranged_h_0178.sdf

> <i_m_source_file_index>
73

> <r_mmod_Potential_Energy-OPLS-2005>
72.5783081054688

> <r_mmod_Stretch_Energy-OPLS-2005>
118.316459655762

> <r_mmod_Bend_Energy-OPLS-2005>
191.819122314453

> <r_mmod_Torsional_Energy-OPLS-2005>
228.832595825195

> <r_mmod_Improper_Torsional_Energy-OPLS-2005>
5.93286323547363

> <r_mmod_Van_der_Waal_Energy-OPLS-2005>
116.477203369141

> <r_mmod_Electrostatic_Energy-OPLS-2005>
-435.359313964844

> <r_mmod_Solvation_Energy-OPLS-2005>
-241.854309082031

> <b_mmod_Minimization_Converged-OPLS-2005>
0

> <r_mmod_RMS_Derivative-OPLS-2005>
4.60236692428589

$$$$
73
                    3D
 Structure written by MMmdl.
153161  0  0  1  0            999 V2000
  -30.6095  -14.5587   20.5518 C   0  0  0  0  0  0
  -30.4455  -12.3522   19.4278 C   0  0  0  0  0  0
  -29.5043  -12.5115   18.2141 C   0  0  0  0  0  0
  -28.0253  -12.3548   18.6278 C   0  0  0  0  0  0
  -27.6631  -13.1976   19.8780 C   0  0  2  0  0  0
  -28.7047  -12.9670   20.9974 C   0  0  0  0  0  0
  -25.2598  -13.8150   20.5660 C   0  0  0  0  0  0
  -24.1840  -13.0431   20.9212 C   0  0  0  0  0  0
  -24.6398  -11.6892   20.8761 C   0  0  0  0  0  0
  -23.9070  -10.4282   21.0408 C   0  0  0  0  0  0
  -24.3621   -9.4192   21.9173 C   0  0  0  0  0  0
  -23.6297   -8.2226   22.0744 C   0  0  0  0  0  0
  -22.4281   -8.0268   21.3540 C   0  0  0  0  0  0
  -21.9920   -9.0246   20.4653 C   0  0  0  0  0  0
  -22.7254  -10.2122   20.3061 C   0  0  0  0  0  0
  -21.6855   -6.0731   22.5285 C   0  0  0  0  0  0
  -21.4027   -6.5643   23.8228 C   0  0  0  0  0  0
  -21.3657   -5.6785   24.9178 C   0  0  0  0  0  0
  -21.6037   -4.3053   24.7233 C   0  0  0  0  0  0
  -21.8826   -3.8153   23.4357 C   0  0  0  0  0  0
  -21.9210   -4.6960   22.3412 C   0  0  0  0  0  0
  -22.7862  -13.5211   21.1869 C   0  0  0  0  0  0
  -22.1656   -4.2153   21.0981 F   0  0  0  0  0  0
  -21.5630   -3.4535   25.7744 F   0  0  0  0  0  0
  -30.0281  -13.3255   20.4515 N   0  0  0  0  0  0
  -26.3023  -12.9291   20.3363 N   0  0  0  0  0  0
  -25.9318  -11.6463   20.5787 N   0  0  0  0  0  0
  -22.0520  -12.8172   22.0427 N   0  0  0  0  0  0
  -25.4387  -15.1844   20.3967 N   0  0  0  0  0  0
  -31.7407  -14.7962   20.1152 O   0  0  0  0  0  0
  -21.6637   -6.8863   21.4236 O   0  0  0  0  0  0
  -22.3527  -14.5510   20.6736 O   0  0  0  0  0  0
  -24.6155  -31.8666   23.2062 C   0  0  0  0  0  0
  -25.9046  -32.4816   23.8370 C   0  0  1  0  0  0
  -27.2413  -27.4141   20.1046 C   0  0  0  0  0  0
  -25.5882  -33.8622   24.2287 N   0  0  0  0  0  0
  -23.4076  -30.4835   21.5474 C   0  0  2  0  0  0
  -24.8584  -28.9449   20.1192 C   0  0  0  0  0  0
  -22.7460  -29.4617   22.5004 C   0  0  0  0  0  0
  -18.0268  -28.1389   22.8465 C   0  0  0  0  0  0
  -24.1478  -36.7332   23.2624 C   0  0  0  0  0  0
  -25.9373  -30.8248   21.3654 C   0  0  0  0  0  0
  -26.0187  -29.4558   20.7151 C   0  0  0  0  0  0
  -27.2168  -28.6996   20.6993 C   0  0  0  0  0  0
  -26.0646  -26.9213   19.5071 C   0  0  0  0  0  0
  -24.8756  -27.6768   19.5120 C   0  0  0  0  0  0
  -23.6225  -29.8158   20.1626 C   0  0  0  0  0  0
  -25.4107  -36.3101   24.0312 C   0  0  1  0  0  0
  -20.5855  -28.3665   23.1314 C   0  0  2  0  0  0
  -20.6766  -26.9414   22.5412 C   0  0  0  0  0  0
  -19.5740  -26.6397   21.5207 C   0  0  0  0  0  0
  -18.1916  -26.7930   22.1611 C   0  0  0  0  0  0
  -19.1521  -28.8853   23.2864 C   0  0  0  0  0  0
  -18.9458  -30.1461   23.8860 C   0  0  0  0  0  0
  -17.6463  -30.6590   24.0581 C   0  0  0  0  0  0
  -25.9062  -34.9481   23.5108 C   0  0  0  0  0  0
  -16.5345  -29.9104   23.6330 C   0  0  0  0  0  0
  -16.7263  -28.6538   23.0310 C   0  0  0  0  0  0
  -26.4466  -31.6603   25.0724 C   0  0  0  0  0  0
  -25.3727  -31.3750   26.1478 C   0  0  0  0  0  0
  -27.0311  -30.3025   24.6152 C   0  0  0  0  0  0
  -27.6020  -32.4341   25.7502 C   0  0  0  0  0  0
  -27.5591  -37.1803   24.8450 C   0  0  0  0  0  0
  -21.4186  -29.3015   22.3757 N   0  0  0  0  0  0
  -26.4274  -37.3814   23.9426 N   0  0  0  0  0  0
  -24.6706  -31.0742   22.0972 N   0  0  0  0  0  0
  -23.4229  -28.8168   23.3063 O   0  0  0  0  0  0
  -28.3969  -26.6608   20.0573 O   0  0  0  0  0  0
  -26.5650  -34.8937   22.4689 O   0  0  0  0  0  0
  -23.5332  -32.1439   23.7415 O   0  0  0  0  0  0
  -28.4909  -17.5517   21.1297 C   0  0  0  0  0  0
  -28.5773  -18.9609   20.9181 C   0  0  0  0  0  0
  -29.8003  -19.4146   20.5061 C   0  0  0  0  0  0
  -29.6589  -16.8611   20.8839 C   0  0  0  0  0  0
  -30.3299  -20.8082   20.3176 C   0  0  0  0  0  0
  -28.4220  -24.1370   20.0838 C   0  0  0  0  0  0
  -30.5996  -23.6869   18.8611 C   0  0  0  0  0  0
  -28.4219  -25.4734   20.8831 C   0  0  0  0  0  0
  -29.7187  -23.2728   20.0566 C   0  0  2  0  0  0
  -29.7791  -15.5024   21.0674 N   0  0  0  0  0  0
  -29.4495  -21.8076   20.0597 N   0  0  0  0  0  0
  -31.5399  -21.0289   20.4160 O   0  0  0  0  0  0
  -27.3933  -23.7686   19.5068 O   0  0  0  0  0  0
  -27.5509  -19.7505   21.1466 F   0  0  0  0  0  0
  -30.8949  -18.0230   20.3678 S   0  0  0  0  0  0
  -31.4827  -12.4982   19.1219 H   0  0  0  0  0  0
  -30.3912  -11.3382   19.8252 H   0  0  0  0  0  0
  -29.7568  -11.7810   17.4443 H   0  0  0  0  0  0
  -29.6556  -13.4956   17.7689 H   0  0  0  0  0  0
  -27.8459  -11.3005   18.8376 H   0  0  0  0  0  0
  -27.3701  -12.6107   17.7945 H   0  0  0  0  0  0
  -27.7087  -14.2448   19.5765 H   0  0  0  0  0  0
  -28.7029  -11.9225   21.3116 H   0  0  0  0  0  0
  -28.4533  -13.5280   21.8981 H   0  0  0  0  0  0
  -25.2779   -9.5648   22.4730 H   0  0  0  0  0  0
  -24.0047   -7.4600   22.7431 H   0  0  0  0  0  0
  -21.0885   -8.8755   19.8930 H   0  0  0  0  0  0
  -22.3741  -10.9647   19.6156 H   0  0  0  0  0  0
  -21.2016   -7.6142   23.9731 H   0  0  0  0  0  0
  -21.1461   -6.0500   25.9073 H   0  0  0  0  0  0
  -22.0623   -2.7616   23.2849 H   0  0  0  0  0  0
  -22.4171  -11.9816   22.4780 H   0  0  0  0  0  0
  -21.1137  -13.1121   22.2678 H   0  0  0  0  0  0
  -24.6738  -15.8452   20.4894 H   0  0  0  0  0  0
  -26.2727  -15.5981   20.0003 H   0  0  0  0  0  0
  -26.7125  -32.5533   23.1145 H   0  0  0  0  0  0
  -24.9953  -33.9776   25.0360 H   0  0  0  0  0  0
  -22.6918  -31.2952   21.4046 H   0  0  0  0  0  0
  -23.3747  -35.9658   23.3259 H   0  0  0  0  0  0
  -24.3565  -36.9009   22.2048 H   0  0  0  0  0  0
  -23.7237  -37.6517   23.6694 H   0  0  0  0  0  0
  -26.0507  -31.5885   20.5940 H   0  0  0  0  0  0
  -26.8216  -30.8797   21.9895 H   0  0  0  0  0  0
  -28.1178  -29.0969   21.1439 H   0  0  0  0  0  0
  -26.0684  -25.9543   19.0262 H   0  0  0  0  0  0
  -23.9872  -27.2766   19.0435 H   0  0  0  0  0  0
  -23.7450  -30.5902   19.4046 H   0  0  0  0  0  0
  -22.7471  -29.2395   19.8593 H   0  0  0  0  0  0
  -25.1274  -36.1939   25.0801 H   0  0  0  0  0  0
  -20.9885  -28.3215   24.1454 H   0  0  0  0  0  0
  -20.5665  -26.2294   23.3602 H   0  0  0  0  0  0
  -21.6648  -26.7476   22.1211 H   0  0  0  0  0  0
  -19.6928  -25.6319   21.1210 H   0  0  0  0  0  0
  -19.6662  -27.3237   20.6757 H   0  0  0  0  0  0
  -17.4202  -26.6647   21.4007 H   0  0  0  0  0  0
  -18.0323  -26.0076   22.9007 H   0  0  0  0  0  0
  -19.7944  -30.7284   24.2193 H   0  0  0  0  0  0
  -17.5031  -31.6247   24.5227 H   0  0  0  0  0  0
  -15.5342  -30.3006   23.7682 H   0  0  0  0  0  0
  -15.8657  -28.0882   22.6981 H   0  0  0  0  0  0
  -24.5817  -30.7199   25.7816 H   0  0  0  0  0  0
  -24.9026  -32.2941   26.4983 H   0  0  0  0  0  0
  -25.8039  -30.8848   27.0215 H   0  0  0  0  0  0
  -26.2884  -29.6789   24.1169 H   0  0  0  0  0  0
  -27.4012  -29.7256   25.4640 H   0  0  0  0  0  0
  -27.8742  -30.4313   23.9363 H   0  0  0  0  0  0
  -27.2589  -33.3595   26.2146 H   0  0  0  0  0  0
  -28.3798  -32.7002   25.0333 H   0  0  0  0  0  0
  -28.0750  -31.8464   26.5381 H   0  0  0  0  0  0
  -28.2554  -38.0150   24.7582 H   0  0  0  0  0  0
  -28.1122  -36.2697   24.6139 H   0  0  0  0  0  0
  -27.2332  -37.1313   25.8848 H   0  0  0  0  0  0
  -20.9394  -29.8759   21.6968 H   0  0  0  0  0  0
  -26.0148  -38.2865   24.1493 H   0  0  0  0  0  0
  -27.5696  -17.1067   21.4752 H   0  0  0  0  0  0
  -30.7058  -24.7726   18.8071 H   0  0  0  0  0  0
  -30.1791  -23.3552   17.9111 H   0  0  0  0  0  0
  -31.6040  -23.2781   18.9518 H   0  0  0  0  0  0
  -29.3124  -25.5163   21.5109 H   0  0  0  0  0  0
  -27.5664  -25.4712   21.5599 H   0  0  0  0  0  0
  -30.2749  -23.4944   20.9684 H   0  0  0  0  0  0
  -28.9523  -15.0793   21.4614 H   0  0  0  0  0  0
  -28.4758  -21.5503   19.9480 H   0  0  0  0  0  0
  1 25  1  0  0  0
  1 30  2  0  0  0
  1 80  1  0  0  0
  2  3  1  0  0  0
  2 25  1  0  0  0
  2 86  1  0  0  0
  2 87  1  0  0  0
  3  4  1  0  0  0
  3 88  1  0  0  0
  3 89  1  0  0  0
  4  5  1  0  0  0
  4 90  1  0  0  0
  4 91  1  0  0  0
  5  6  1  0  0  0
  5 26  1  0  0  0
  5 92  1  0  0  0
  6 25  1  0  0  0
  6 93  1  0  0  0
  6 94  1  0  0  0
  7  8  2  0  0  0
  7 26  1  0  0  0
  7 29  1  0  0  0
  8  9  1  0  0  0
  8 22  1  0  0  0
  9 10  1  0  0  0
  9 27  2  0  0  0
 10 11  2  0  0  0
 10 15  1  0  0  0
 11 12  1  0  0  0
 11 95  1  0  0  0
 12 13  2  0  0  0
 12 96  1  0  0  0
 13 14  1  0  0  0
 13 31  1  0  0  0
 14 15  2  0  0  0
 14 97  1  0  0  0
 15 98  1  0  0  0
 16 17  2  0  0  0
 16 21  1  0  0  0
 16 31  1  0  0  0
 17 18  1  0  0  0
 17 99  1  0  0  0
 18 19  2  0  0  0
 18100  1  0  0  0
 19 20  1  0  0  0
 19 24  1  0  0  0
 20 21  2  0  0  0
 20101  1  0  0  0
 21 23  1  0  0  0
 22 28  1  0  0  0
 22 32  2  0  0  0
 26 27  1  0  0  0
 28102  1  0  0  0
 28103  1  0  0  0
 29104  1  0  0  0
 29105  1  0  0  0
 33 34  1  0  0  0
 33 66  1  0  0  0
 33 70  2  0  0  0
 34 36  1  0  0  0
 34 59  1  0  0  0
 34106  1  0  0  0
 35 44  2  0  0  0
 35 45  1  0  0  0
 35 68  1  0  0  0
 36 56  1  0  0  0
 36107  1  0  0  0
 37 39  1  0  0  0
 37 47  1  0  0  0
 37 66  1  0  0  0
 37108  1  0  0  0
 38 43  2  0  0  0
 38 46  1  0  0  0
 38 47  1  0  0  0
 39 64  1  0  0  0
 39 67  2  0  0  0
 40 52  1  0  0  0
 40 53  2  0  0  0
 40 58  1  0  0  0
 41109  1  0  0  0
 41110  1  0  0  0
 41111  1  0  0  0
 41 48  1  0  0  0
 42 43  1  0  0  0
 42 66  1  0  0  0
 42112  1  0  0  0
 42113  1  0  0  0
 43 44  1  0  0  0
 44114  1  0  0  0
 45 46  2  0  0  0
 45115  1  0  0  0
 46116  1  0  0  0
 47117  1  0  0  0
 47118  1  0  0  0
 48 56  1  0  0  0
 48 65  1  0  0  0
 48119  1  0  0  0
 49 50  1  0  0  0
 49 53  1  0  0  0
 49 64  1  0  0  0
 49120  1  0  0  0
 50 51  1  0  0  0
 50121  1  0  0  0
 50122  1  0  0  0
 51 52  1  0  0  0
 51123  1  0  0  0
 51124  1  0  0  0
 52125  1  0  0  0
 52126  1  0  0  0
 53 54  1  0  0  0
 54 55  2  0  0  0
 54127  1  0  0  0
 55 57  1  0  0  0
 55128  1  0  0  0
 56 69  2  0  0  0
 57 58  2  0  0  0
 57129  1  0  0  0
 58130  1  0  0  0
 59 60  1  0  0  0
 59 61  1  0  0  0
 59 62  1  0  0  0
 60131  1  0  0  0
 60132  1  0  0  0
 60133  1  0  0  0
 61134  1  0  0  0
 61135  1  0  0  0
 61136  1  0  0  0
 62137  1  0  0  0
 62138  1  0  0  0
 62139  1  0  0  0
 63 65  1  0  0  0
 63140  1  0  0  0
 63141  1  0  0  0
 63142  1  0  0  0
 64143  1  0  0  0
 65144  1  0  0  0
 68 78  1  0  0  0
 71 72  1  0  0  0
 71 74  2  0  0  0
 71145  1  0  0  0
 72 73  2  0  0  0
 72 84  1  0  0  0
 73 75  1  0  0  0
 73 85  1  0  0  0
 74 80  1  0  0  0
 74 85  1  0  0  0
 75 81  1  0  0  0
 75 82  2  0  0  0
 76 78  1  0  0  0
 76 79  1  0  0  0
 76 83  2  0  0  0
 77146  1  0  0  0
 77147  1  0  0  0
 77148  1  0  0  0
 77 79  1  0  0  0
 78149  1  0  0  0
 78150  1  0  0  0
 79 81  1  0  0  0
 79151  1  0  0  0
 80152  1  0  0  0
 81153  1  0  0  0
M  ISO  4   1 100  68 101  78 101  80 100
M  END
> <chiral flag>
0

> <version>
0

> <s_m_source_file>
/data/baiqing/PycharmProjects/Reinvent-master-3.2/result/LINK_invent/BTK/process_docking_weight1_custom_product_contain_oxygen_bond_distance_aromatic_linkinvent_7_9_3/rearranged_h_0178.sdf

> <i_m_source_file_index>
74

> <r_mmod_Potential_Energy-OPLS-2005>
-49.9723815917969

> <r_mmod_Stretch_Energy-OPLS-2005>
46.9021911621094

> <r_mmod_Bend_Energy-OPLS-2005>
118.448471069336

> <r_mmod_Torsional_Energy-OPLS-2005>
259.527374267578

> <r_mmod_Improper_Torsional_Energy-OPLS-2005>
4.90265893936157

> <r_mmod_Van_der_Waal_Energy-OPLS-2005>
119.404998779297

> <r_mmod_Electrostatic_Energy-OPLS-2005>
-378.834869384766

> <r_mmod_Solvation_Energy-OPLS-2005>
-242.15803527832

> <b_mmod_Minimization_Converged-OPLS-2005>
0

> <r_mmod_RMS_Derivative-OPLS-2005>
3.39489054679871

$$$$
74
                    3D
 Structure written by MMmdl.
154162  0  0  1  0            999 V2000
  -30.7074  -14.4278   20.5472 C   0  0  0  0  0  0
  -30.4152  -12.2697   19.4293 C   0  0  0  0  0  0
  -29.4979  -12.5044   18.2121 C   0  0  0  0  0  0
  -28.0174  -12.3743   18.6183 C   0  0  0  0  0  0
  -27.6656  -13.2046   19.8822 C   0  0  2  0  0  0
  -28.7025  -12.9765   21.0055 C   0  0  0  0  0  0
  -25.2630  -13.8151   20.5678 C   0  0  0  0  0  0
  -24.1858  -13.0433   20.9135 C   0  0  0  0  0  0
  -24.6394  -11.6896   20.8708 C   0  0  0  0  0  0
  -23.9057  -10.4290   21.0396 C   0  0  0  0  0  0
  -24.3610   -9.4212   21.9182 C   0  0  0  0  0  0
  -23.6286   -8.2246   22.0753 C   0  0  0  0  0  0
  -22.4271   -8.0275   21.3534 C   0  0  0  0  0  0
  -21.9908   -9.0241   20.4633 C   0  0  0  0  0  0
  -22.7233  -10.2126   20.3037 C   0  0  0  0  0  0
  -21.6859   -6.0729   22.5273 C   0  0  0  0  0  0
  -21.4004   -6.5627   23.8207 C   0  0  0  0  0  0
  -21.3659   -5.6788   24.9168 C   0  0  0  0  0  0
  -21.6052   -4.3056   24.7226 C   0  0  0  0  0  0
  -21.8823   -3.8143   23.4350 C   0  0  0  0  0  0
  -21.9187   -4.6952   22.3395 C   0  0  0  0  0  0
  -22.7888  -13.5249   21.1805 C   0  0  0  0  0  0
  -22.1676   -4.2135   21.0972 F   0  0  0  0  0  0
  -21.5624   -3.4544   25.7740 F   0  0  0  0  0  0
  -30.0403  -13.2500   20.4597 N   0  0  0  0  0  0
  -26.3049  -12.9308   20.3382 N   0  0  0  0  0  0
  -25.9320  -11.6473   20.5750 N   0  0  0  0  0  0
  -22.0531  -12.8209   22.0346 N   0  0  0  0  0  0
  -25.4407  -15.1861   20.4133 N   0  0  0  0  0  0
  -31.8585  -14.5818   20.1230 O   0  0  0  0  0  0
  -21.6634   -6.8870   21.4232 O   0  0  0  0  0  0
  -22.3578  -14.5574   20.6689 O   0  0  0  0  0  0
  -24.6117  -31.8704   23.2122 C   0  0  0  0  0  0
  -25.9028  -32.4832   23.8408 C   0  0  1  0  0  0
  -27.2320  -27.4515   20.0894 C   0  0  0  0  0  0
  -25.5881  -33.8637   24.2334 N   0  0  0  0  0  0
  -23.3974  -30.4944   21.5527 C   0  0  2  0  0  0
  -24.8421  -28.9606   20.1192 C   0  0  0  0  0  0
  -22.7390  -29.4672   22.5010 C   0  0  0  0  0  0
  -18.0265  -28.1365   22.8502 C   0  0  0  0  0  0
  -24.1468  -36.7309   23.2636 C   0  0  0  0  0  0
  -25.9258  -30.8397   21.3631 C   0  0  0  0  0  0
  -26.0021  -29.4765   20.7085 C   0  0  0  0  0  0
  -27.1991  -28.7302   20.6874 C   0  0  0  0  0  0
  -26.0501  -26.9420   19.5021 C   0  0  0  0  0  0
  -24.8599  -27.6915   19.5164 C   0  0  0  0  0  0
  -23.6053  -29.8269   20.1673 C   0  0  0  0  0  0
  -25.4093  -36.3123   24.0344 C   0  0  1  0  0  0
  -20.5856  -28.3640   23.1330 C   0  0  2  0  0  0
  -20.6756  -26.9380   22.5416 C   0  0  0  0  0  0
  -19.5740  -26.6382   21.5209 C   0  0  0  0  0  0
  -18.1912  -26.7919   22.1619 C   0  0  0  0  0  0
  -19.1517  -28.8821   23.2908 C   0  0  0  0  0  0
  -18.9461  -30.1427   23.8918 C   0  0  0  0  0  0
  -17.6469  -30.6577   24.0561 C   0  0  0  0  0  0
  -25.9033  -34.9492   23.5142 C   0  0  0  0  0  0
  -16.5353  -29.9090   23.6326 C   0  0  0  0  0  0
  -16.7255  -28.6503   23.0351 C   0  0  0  0  0  0
  -26.4464  -31.6614   25.0733 C   0  0  0  0  0  0
  -25.3735  -31.3710   26.1482 C   0  0  0  0  0  0
  -27.0284  -30.3063   24.6088 C   0  0  0  0  0  0
  -27.6036  -32.4325   25.7507 C   0  0  0  0  0  0
  -27.5582  -37.1798   24.8456 C   0  0  0  0  0  0
  -21.4123  -29.3029   22.3756 N   0  0  0  0  0  0
  -26.4271  -37.3812   23.9428 N   0  0  0  0  0  0
  -24.6629  -31.0825   22.1014 N   0  0  0  0  0  0
  -23.4178  -28.8218   23.3043 O   0  0  0  0  0  0
  -28.4195  -26.7544   20.0945 O   0  0  0  0  0  0
  -26.5607  -34.8933   22.4710 O   0  0  0  0  0  0
  -23.5322  -32.1461   23.7524 O   0  0  0  0  0  0
  -30.3132  -18.2599   18.5727 C   0  0  0  0  0  0
  -30.2962  -16.8940   18.9529 C   0  0  0  0  0  0
  -30.0486  -19.1285   19.6040 C   0  0  0  0  0  0
  -30.0135  -16.6834   20.2814 C   0  0  0  0  0  0
  -29.8632  -23.2569   19.8966 C   0  0  0  0  0  0
  -30.6869  -22.7205   18.9569 C   0  0  0  0  0  0
  -29.7334  -24.7082   20.1089 C   0  0  0  0  0  0
  -30.8625  -21.2669   18.8226 C   0  0  0  0  0  0
  -31.5052  -23.5694   17.9756 C   0  0  0  0  0  0
  -28.3476  -25.3349   19.9285 C   0  0  0  0  0  0
  -30.0524  -20.4909   19.5768 N   0  0  0  0  0  0
  -29.9732  -15.4871   20.9317 N   0  0  0  0  0  0
  -30.6966  -25.4150   20.4293 O   0  0  0  0  0  0
  -31.7129  -20.7753   18.0726 O   0  0  0  0  0  0
  -29.6600  -18.2161   21.0529 S   0  0  0  0  0  0
  -31.4637  -12.3441   19.1368 H   0  0  0  0  0  0
  -30.2880  -11.2561   19.8108 H   0  0  0  0  0  0
  -29.7329  -11.7956   17.4174 H   0  0  0  0  0  0
  -29.6822  -13.4974   17.7975 H   0  0  0  0  0  0
  -27.8173  -11.3170   18.8022 H   0  0  0  0  0  0
  -27.3736  -12.6647   17.7863 H   0  0  0  0  0  0
  -27.7152  -14.2543   19.5926 H   0  0  0  0  0  0
  -28.6618  -11.9450   21.3567 H   0  0  0  0  0  0
  -28.4792  -13.5916   21.8785 H   0  0  0  0  0  0
  -25.2757   -9.5677   22.4751 H   0  0  0  0  0  0
  -23.9985   -7.4645   22.7491 H   0  0  0  0  0  0
  -21.0826   -8.8744   19.8958 H   0  0  0  0  0  0
  -22.3688  -10.9643   19.6124 H   0  0  0  0  0  0
  -21.2003   -7.6141   23.9694 H   0  0  0  0  0  0
  -21.1480   -6.0527   25.9064 H   0  0  0  0  0  0
  -22.0603   -2.7595   23.2854 H   0  0  0  0  0  0
  -22.4159  -11.9844   22.4676 H   0  0  0  0  0  0
  -21.1143  -13.1201   22.2567 H   0  0  0  0  0  0
  -24.6818  -15.8501   20.5258 H   0  0  0  0  0  0
  -26.3056  -15.6218   20.1182 H   0  0  0  0  0  0
  -26.7097  -32.5548   23.1171 H   0  0  0  0  0  0
  -25.0010  -33.9815   25.0461 H   0  0  0  0  0  0
  -22.6843  -31.3093   21.4118 H   0  0  0  0  0  0
  -23.3770  -35.9591   23.3243 H   0  0  0  0  0  0
  -24.3567  -36.8989   22.2056 H   0  0  0  0  0  0
  -23.7160  -37.6465   23.6696 H   0  0  0  0  0  0
  -26.0351  -31.6085   20.5968 H   0  0  0  0  0  0
  -26.8155  -30.8940   21.9790 H   0  0  0  0  0  0
  -28.0986  -29.1283   21.1365 H   0  0  0  0  0  0
  -26.0235  -25.9752   19.0228 H   0  0  0  0  0  0
  -23.9663  -27.2872   19.0623 H   0  0  0  0  0  0
  -23.7136  -30.6029   19.4094 H   0  0  0  0  0  0
  -22.7297  -29.2479   19.8686 H   0  0  0  0  0  0
  -25.1265  -36.1985   25.0833 H   0  0  0  0  0  0
  -20.9930  -28.3187   24.1453 H   0  0  0  0  0  0
  -20.5674  -26.2241   23.3593 H   0  0  0  0  0  0
  -21.6629  -26.7431   22.1191 H   0  0  0  0  0  0
  -19.6906  -25.6305   21.1212 H   0  0  0  0  0  0
  -19.6695  -27.3215   20.6762 H   0  0  0  0  0  0
  -17.4192  -26.6684   21.4007 H   0  0  0  0  0  0
  -18.0293  -26.0019   22.8981 H   0  0  0  0  0  0
  -19.7934  -30.7231   24.2292 H   0  0  0  0  0  0
  -17.5027  -31.6268   24.5145 H   0  0  0  0  0  0
  -15.5362  -30.3009   23.7646 H   0  0  0  0  0  0
  -15.8643  -28.0846   22.7067 H   0  0  0  0  0  0
  -24.5873  -30.7107   25.7809 H   0  0  0  0  0  0
  -24.8975  -32.2868   26.4997 H   0  0  0  0  0  0
  -25.8093  -30.8813   27.0207 H   0  0  0  0  0  0
  -26.2817  -29.6827   24.1155 H   0  0  0  0  0  0
  -27.4083  -29.7293   25.4535 H   0  0  0  0  0  0
  -27.8638  -30.4395   23.9203 H   0  0  0  0  0  0
  -27.2694  -33.3683   26.2002 H   0  0  0  0  0  0
  -28.3910  -32.6789   25.0371 H   0  0  0  0  0  0
  -28.0603  -31.8472   26.5499 H   0  0  0  0  0  0
  -28.2546  -38.0141   24.7577 H   0  0  0  0  0  0
  -28.1129  -36.2688   24.6191 H   0  0  0  0  0  0
  -27.2308  -37.1318   25.8850 H   0  0  0  0  0  0
  -20.9270  -29.8785   21.7016 H   0  0  0  0  0  0
  -26.0169  -38.2875   24.1493 H   0  0  0  0  0  0
  -30.5451  -18.5497   17.5567 H   0  0  0  0  0  0
  -30.5148  -16.1167   18.2337 H   0  0  0  0  0  0
  -29.2674  -22.6485   20.5604 H   0  0  0  0  0  0
  -31.1154  -24.5761   17.8333 H   0  0  0  0  0  0
  -31.5176  -23.1115   16.9837 H   0  0  0  0  0  0
  -32.5373  -23.6467   18.3208 H   0  0  0  0  0  0
  -27.6599  -24.9013   20.6573 H   0  0  0  0  0  0
  -27.9876  -25.0844   18.9304 H   0  0  0  0  0  0
  -29.4491  -20.9644   20.2326 H   0  0  0  0  0  0
  -29.1568  -15.3061   21.4971 H   0  0  0  0  0  0
  1 25  1  0  0  0
  1 30  2  0  0  0
  1 82  1  0  0  0
  2  3  1  0  0  0
  2 25  1  0  0  0
  2 86  1  0  0  0
  2 87  1  0  0  0
  3  4  1  0  0  0
  3 88  1  0  0  0
  3 89  1  0  0  0
  4  5  1  0  0  0
  4 90  1  0  0  0
  4 91  1  0  0  0
  5  6  1  0  0  0
  5 26  1  0  0  0
  5 92  1  0  0  0
  6 25  1  0  0  0
  6 93  1  0  0  0
  6 94  1  0  0  0
  7  8  2  0  0  0
  7 26  1  0  0  0
  7 29  1  0  0  0
  8  9  1  0  0  0
  8 22  1  0  0  0
  9 10  1  0  0  0
  9 27  2  0  0  0
 10 11  2  0  0  0
 10 15  1  0  0  0
 11 12  1  0  0  0
 11 95  1  0  0  0
 12 13  2  0  0  0
 12 96  1  0  0  0
 13 14  1  0  0  0
 13 31  1  0  0  0
 14 15  2  0  0  0
 14 97  1  0  0  0
 15 98  1  0  0  0
 16 17  2  0  0  0
 16 21  1  0  0  0
 16 31  1  0  0  0
 17 18  1  0  0  0
 17 99  1  0  0  0
 18 19  2  0  0  0
 18100  1  0  0  0
 19 20  1  0  0  0
 19 24  1  0  0  0
 20 21  2  0  0  0
 20101  1  0  0  0
 21 23  1  0  0  0
 22 28  1  0  0  0
 22 32  2  0  0  0
 26 27  1  0  0  0
 28102  1  0  0  0
 28103  1  0  0  0
 29104  1  0  0  0
 29105  1  0  0  0
 33 34  1  0  0  0
 33 66  1  0  0  0
 33 70  2  0  0  0
 34 36  1  0  0  0
 34 59  1  0  0  0
 34106  1  0  0  0
 35 44  2  0  0  0
 35 45  1  0  0  0
 35 68  1  0  0  0
 36 56  1  0  0  0
 36107  1  0  0  0
 37 39  1  0  0  0
 37 47  1  0  0  0
 37 66  1  0  0  0
 37108  1  0  0  0
 38 43  2  0  0  0
 38 46  1  0  0  0
 38 47  1  0  0  0
 39 64  1  0  0  0
 39 67  2  0  0  0
 40 52  1  0  0  0
 40 53  2  0  0  0
 40 58  1  0  0  0
 41109  1  0  0  0
 41110  1  0  0  0
 41111  1  0  0  0
 41 48  1  0  0  0
 42 43  1  0  0  0
 42 66  1  0  0  0
 42112  1  0  0  0
 42113  1  0  0  0
 43 44  1  0  0  0
 44114  1  0  0  0
 45 46  2  0  0  0
 45115  1  0  0  0
 46116  1  0  0  0
 47117  1  0  0  0
 47118  1  0  0  0
 48 56  1  0  0  0
 48 65  1  0  0  0
 48119  1  0  0  0
 49 50  1  0  0  0
 49 53  1  0  0  0
 49 64  1  0  0  0
 49120  1  0  0  0
 50 51  1  0  0  0
 50121  1  0  0  0
 50122  1  0  0  0
 51 52  1  0  0  0
 51123  1  0  0  0
 51124  1  0  0  0
 52125  1  0  0  0
 52126  1  0  0  0
 53 54  1  0  0  0
 54 55  2  0  0  0
 54127  1  0  0  0
 55 57  1  0  0  0
 55128  1  0  0  0
 56 69  2  0  0  0
 57 58  2  0  0  0
 57129  1  0  0  0
 58130  1  0  0  0
 59 60  1  0  0  0
 59 61  1  0  0  0
 59 62  1  0  0  0
 60131  1  0  0  0
 60132  1  0  0  0
 60133  1  0  0  0
 61134  1  0  0  0
 61135  1  0  0  0
 61136  1  0  0  0
 62137  1  0  0  0
 62138  1  0  0  0
 62139  1  0  0  0
 63 65  1  0  0  0
 63140  1  0  0  0
 63141  1  0  0  0
 63142  1  0  0  0
 64143  1  0  0  0
 65144  1  0  0  0
 68 80  1  0  0  0
 71 72  1  0  0  0
 71 73  2  0  0  0
 71145  1  0  0  0
 72 74  2  0  0  0
 72146  1  0  0  0
 73 81  1  0  0  0
 73 85  1  0  0  0
 74 82  1  0  0  0
 74 85  1  0  0  0
 75 76  2  0  0  0
 75 77  1  0  0  0
 75147  1  0  0  0
 76 78  1  0  0  0
 76 79  1  0  0  0
 77 80  1  0  0  0
 77 83  2  0  0  0
 78 81  1  0  0  0
 78 84  2  0  0  0
 79148  1  0  0  0
 79149  1  0  0  0
 79150  1  0  0  0
 80151  1  0  0  0
 80152  1  0  0  0
 81153  1  0  0  0
 82154  1  0  0  0
M  ISO  4   1 100  68 101  80 101  82 100
M  END
> <chiral flag>
0

> <version>
0

> <s_m_source_file>
/data/baiqing/PycharmProjects/Reinvent-master-3.2/result/LINK_invent/BTK/process_docking_weight1_custom_product_contain_oxygen_bond_distance_aromatic_linkinvent_7_9_3/rearranged_h_0178.sdf

> <i_m_source_file_index>
75

> <r_mmod_Potential_Energy-OPLS-2005>
-77.8925170898438

> <r_mmod_Stretch_Energy-OPLS-2005>
34.830810546875

> <r_mmod_Bend_Energy-OPLS-2005>
100.852165222168

> <r_mmod_Torsional_Energy-OPLS-2005>
261.743347167969

> <r_mmod_Improper_Torsional_Energy-OPLS-2005>
5.99619388580322

> <r_mmod_Van_der_Waal_Energy-OPLS-2005>
159.571868896484

> <r_mmod_Electrostatic_Energy-OPLS-2005>
-390.121612548828

> <r_mmod_Solvation_Energy-OPLS-2005>
-262.744964599609

> <b_mmod_Minimization_Converged-OPLS-2005>
0

> <r_mmod_RMS_Derivative-OPLS-2005>
2.50551605224609

$$$$
75
                    3D
 Structure written by MMmdl.
153161  0  0  1  0            999 V2000
  -30.6131  -14.6421   20.5129 C   0  0  0  0  0  0
  -30.4447  -12.3978   19.4513 C   0  0  0  0  0  0
  -29.5103  -12.5146   18.2254 C   0  0  0  0  0  0
  -28.0330  -12.3496   18.6363 C   0  0  0  0  0  0
  -27.6567  -13.2144   19.8686 C   0  0  2  0  0  0
  -28.7018  -13.0556   20.9967 C   0  0  0  0  0  0
  -25.2570  -13.8159   20.5677 C   0  0  0  0  0  0
  -24.1833  -13.0430   20.9180 C   0  0  0  0  0  0
  -24.6401  -11.6901   20.8737 C   0  0  0  0  0  0
  -23.9066  -10.4288   21.0404 C   0  0  0  0  0  0
  -24.3616   -9.4204   21.9183 C   0  0  0  0  0  0
  -23.6291   -8.2240   22.0754 C   0  0  0  0  0  0
  -22.4273   -8.0279   21.3544 C   0  0  0  0  0  0
  -21.9908   -9.0253   20.4646 C   0  0  0  0  0  0
  -22.7238  -10.2132   20.3054 C   0  0  0  0  0  0
  -21.6852   -6.0735   22.5280 C   0  0  0  0  0  0
  -21.4013   -6.5640   23.8212 C   0  0  0  0  0  0
  -21.3659   -5.6792   24.9175 C   0  0  0  0  0  0
  -21.6045   -4.3055   24.7225 C   0  0  0  0  0  0
  -21.8819   -3.8147   23.4346 C   0  0  0  0  0  0
  -21.9192   -4.6963   22.3402 C   0  0  0  0  0  0
  -22.7856  -13.5228   21.1845 C   0  0  0  0  0  0
  -22.1662   -4.2149   21.0980 F   0  0  0  0  0  0
  -21.5628   -3.4538   25.7738 F   0  0  0  0  0  0
  -30.0189  -13.4086   20.4397 N   0  0  0  0  0  0
  -26.3007  -12.9340   20.3341 N   0  0  0  0  0  0
  -25.9332  -11.6496   20.5765 N   0  0  0  0  0  0
  -22.0499  -12.8223   22.0405 N   0  0  0  0  0  0
  -25.4278  -15.1876   20.4080 N   0  0  0  0  0  0
  -31.7557  -14.8393   20.0914 O   0  0  0  0  0  0
  -21.6637   -6.8877   21.4241 O   0  0  0  0  0  0
  -22.3539  -14.5535   20.6696 O   0  0  0  0  0  0
  -24.6262  -31.8600   23.2027 C   0  0  0  0  0  0
  -25.9107  -32.4781   23.8357 C   0  0  1  0  0  0
  -27.2264  -27.3190   20.1129 C   0  0  0  0  0  0
  -25.5921  -33.8581   24.2282 N   0  0  0  0  0  0
  -23.4200  -30.4842   21.5455 C   0  0  2  0  0  0
  -24.8668  -28.9409   20.1102 C   0  0  0  0  0  0
  -22.7475  -29.4627   22.4936 C   0  0  0  0  0  0
  -18.0286  -28.1384   22.8490 C   0  0  0  0  0  0
  -24.1488  -36.7295   23.2640 C   0  0  0  0  0  0
  -25.9617  -30.7903   21.3746 C   0  0  0  0  0  0
  -26.0361  -29.4182   20.7155 C   0  0  0  0  0  0
  -27.2183  -28.6189   20.7076 C   0  0  0  0  0  0
  -26.0328  -26.8991   19.4788 C   0  0  0  0  0  0
  -24.8673  -27.6867   19.4831 C   0  0  0  0  0  0
  -23.6347  -29.8204   20.1604 C   0  0  0  0  0  0
  -25.4113  -36.3085   24.0331 C   0  0  1  0  0  0
  -20.5888  -28.3688   23.1284 C   0  0  2  0  0  0
  -20.6775  -26.9411   22.5410 C   0  0  0  0  0  0
  -19.5750  -26.6384   21.5212 C   0  0  0  0  0  0
  -18.1931  -26.7929   22.1625 C   0  0  0  0  0  0
  -19.1540  -28.8852   23.2883 C   0  0  0  0  0  0
  -18.9462  -30.1455   23.8898 C   0  0  0  0  0  0
  -17.6463  -30.6588   24.0565 C   0  0  0  0  0  0
  -25.9048  -34.9453   23.5107 C   0  0  0  0  0  0
  -16.5353  -29.9087   23.6330 C   0  0  0  0  0  0
  -16.7274  -28.6504   23.0353 C   0  0  0  0  0  0
  -26.4491  -31.6587   25.0725 C   0  0  0  0  0  0
  -25.3727  -31.3724   26.1452 C   0  0  0  0  0  0
  -27.0332  -30.3012   24.6175 C   0  0  0  0  0  0
  -27.6050  -32.4321   25.7496 C   0  0  0  0  0  0
  -27.5579  -37.1804   24.8467 C   0  0  0  0  0  0
  -21.4187  -29.3045   22.3680 N   0  0  0  0  0  0
  -26.4292  -37.3778   23.9410 N   0  0  0  0  0  0
  -24.6882  -31.0613   22.0979 N   0  0  0  0  0  0
  -23.4200  -28.8165   23.3013 O   0  0  0  0  0  0
  -28.3436  -26.4671   20.1692 O   0  0  0  0  0  0
  -26.5618  -34.8920   22.4674 O   0  0  0  0  0  0
  -23.5426  -32.1396   23.7357 O   0  0  0  0  0  0
  -30.8042  -17.8790   20.0894 C   0  0  0  0  0  0
  -29.8464  -17.1151   20.7995 C   0  0  0  0  0  0
  -28.8144  -17.8821   21.3907 C   0  0  0  0  0  0
  -28.7636  -19.3005   21.2744 C   0  0  0  0  0  0
  -29.7562  -19.9886   20.5240 C   0  0  0  0  0  0
  -28.8130  -22.4098   20.3797 C   0  0  0  0  0  0
  -29.6099  -24.2549   21.9348 C   0  0  0  0  0  0
  -28.1226  -25.0063   19.9940 C   0  0  0  0  0  0
  -29.2188  -23.9473   20.4801 C   0  0  2  0  0  0
  -30.7601  -19.2449   19.9656 N   0  0  0  0  0  0
  -29.8098  -15.6566   20.9534 N   0  0  0  0  0  0
  -29.7946  -21.4513   20.4387 N   0  0  0  0  0  0
  -27.6254  -22.1187   20.2144 O   0  0  0  0  0  0
  -27.8543  -17.2345   22.0985 F   0  0  0  0  0  0
  -27.7864  -19.9788   21.9258 F   0  0  0  0  0  0
  -30.3125  -24.1194   19.7326 F   0  0  0  0  0  0
  -31.4845  -12.5331   19.1482 H   0  0  0  0  0  0
  -30.3883  -11.3984   19.8856 H   0  0  0  0  0  0
  -29.7753  -11.7672   17.4764 H   0  0  0  0  0  0
  -29.6503  -13.4862   17.7487 H   0  0  0  0  0  0
  -27.8692  -11.2954   18.8627 H   0  0  0  0  0  0
  -27.3784  -12.5839   17.7961 H   0  0  0  0  0  0
  -27.6786  -14.2523   19.5359 H   0  0  0  0  0  0
  -28.7147  -12.0279   21.3631 H   0  0  0  0  0  0
  -28.4425  -13.6702   21.8600 H   0  0  0  0  0  0
  -25.2763   -9.5679   22.4756 H   0  0  0  0  0  0
  -24.0000   -7.4631   22.7473 H   0  0  0  0  0  0
  -21.0840   -8.8772   19.8953 H   0  0  0  0  0  0
  -22.3698  -10.9669   19.6162 H   0  0  0  0  0  0
  -21.2005   -7.6148   23.9715 H   0  0  0  0  0  0
  -21.1481   -6.0523   25.9078 H   0  0  0  0  0  0
  -22.0600   -2.7609   23.2846 H   0  0  0  0  0  0
  -22.4113  -11.9882   22.4790 H   0  0  0  0  0  0
  -21.1118  -13.1252   22.2614 H   0  0  0  0  0  0
  -24.6645  -15.8437   20.5304 H   0  0  0  0  0  0
  -26.2836  -15.6299   20.1004 H   0  0  0  0  0  0
  -26.7174  -32.5451   23.1105 H   0  0  0  0  0  0
  -25.0065  -33.9727   25.0426 H   0  0  0  0  0  0
  -22.7142  -31.3052   21.4034 H   0  0  0  0  0  0
  -23.3749  -35.9628   23.3305 H   0  0  0  0  0  0
  -24.3581  -36.8911   22.2054 H   0  0  0  0  0  0
  -23.7244  -37.6500   23.6657 H   0  0  0  0  0  0
  -26.0937  -31.5541   20.6071 H   0  0  0  0  0  0
  -26.8423  -30.8387   22.0035 H   0  0  0  0  0  0
  -28.1144  -28.9804   21.1923 H   0  0  0  0  0  0
  -25.9683  -25.9444   18.9790 H   0  0  0  0  0  0
  -23.9722  -27.3171   19.0017 H   0  0  0  0  0  0
  -23.7536  -30.5978   19.4049 H   0  0  0  0  0  0
  -22.7549  -29.2497   19.8574 H   0  0  0  0  0  0
  -25.1294  -36.1937   25.0824 H   0  0  0  0  0  0
  -20.9981  -28.3256   24.1403 H   0  0  0  0  0  0
  -20.5672  -26.2296   23.3609 H   0  0  0  0  0  0
  -21.6644  -26.7438   22.1204 H   0  0  0  0  0  0
  -19.6910  -25.6295   21.1240 H   0  0  0  0  0  0
  -19.6685  -27.3198   20.6744 H   0  0  0  0  0  0
  -17.4200  -26.6676   21.4029 H   0  0  0  0  0  0
  -18.0332  -26.0071   22.9022 H   0  0  0  0  0  0
  -19.7938  -30.7274   24.2264 H   0  0  0  0  0  0
  -17.5017  -31.6268   24.5167 H   0  0  0  0  0  0
  -15.5354  -30.2992   23.7653 H   0  0  0  0  0  0
  -15.8673  -28.0825   22.7064 H   0  0  0  0  0  0
  -24.5905  -30.7067   25.7783 H   0  0  0  0  0  0
  -24.8914  -32.2889   26.4874 H   0  0  0  0  0  0
  -25.8055  -30.8906   27.0228 H   0  0  0  0  0  0
  -26.2903  -29.6768   24.1198 H   0  0  0  0  0  0
  -27.4032  -29.7261   25.4673 H   0  0  0  0  0  0
  -27.8772  -30.4303   23.9396 H   0  0  0  0  0  0
  -27.2659  -33.3622   26.2069 H   0  0  0  0  0  0
  -28.3861  -32.6878   25.0325 H   0  0  0  0  0  0
  -28.0713  -31.8449   26.5417 H   0  0  0  0  0  0
  -28.2599  -38.0099   24.7508 H   0  0  0  0  0  0
  -28.1072  -36.2629   24.6297 H   0  0  0  0  0  0
  -27.2298  -37.1459   25.8871 H   0  0  0  0  0  0
  -20.9360  -29.8774   21.6899 H   0  0  0  0  0  0
  -26.0173  -38.2854   24.1403 H   0  0  0  0  0  0
  -31.6342  -17.3979   19.5943 H   0  0  0  0  0  0
  -28.7552  -24.1425   22.6025 H   0  0  0  0  0  0
  -29.9723  -25.2780   22.0337 H   0  0  0  0  0  0
  -30.4000  -23.5934   22.2907 H   0  0  0  0  0  0
  -27.2003  -24.7498   20.5175 H   0  0  0  0  0  0
  -27.9328  -24.8233   18.9357 H   0  0  0  0  0  0
  -28.9545  -15.3193   21.3714 H   0  0  0  0  0  0
  -30.7240  -21.8404   20.3930 H   0  0  0  0  0  0
  1 25  1  0  0  0
  1 30  2  0  0  0
  1 81  1  0  0  0
  2  3  1  0  0  0
  2 25  1  0  0  0
  2 87  1  0  0  0
  2 88  1  0  0  0
  3  4  1  0  0  0
  3 89  1  0  0  0
  3 90  1  0  0  0
  4  5  1  0  0  0
  4 91  1  0  0  0
  4 92  1  0  0  0
  5  6  1  0  0  0
  5 26  1  0  0  0
  5 93  1  0  0  0
  6 25  1  0  0  0
  6 94  1  0  0  0
  6 95  1  0  0  0
  7  8  2  0  0  0
  7 26  1  0  0  0
  7 29  1  0  0  0
  8  9  1  0  0  0
  8 22  1  0  0  0
  9 10  1  0  0  0
  9 27  2  0  0  0
 10 11  2  0  0  0
 10 15  1  0  0  0
 11 12  1  0  0  0
 11 96  1  0  0  0
 12 13  2  0  0  0
 12 97  1  0  0  0
 13 14  1  0  0  0
 13 31  1  0  0  0
 14 15  2  0  0  0
 14 98  1  0  0  0
 15 99  1  0  0  0
 16 17  2  0  0  0
 16 21  1  0  0  0
 16 31  1  0  0  0
 17 18  1  0  0  0
 17100  1  0  0  0
 18 19  2  0  0  0
 18101  1  0  0  0
 19 20  1  0  0  0
 19 24  1  0  0  0
 20 21  2  0  0  0
 20102  1  0  0  0
 21 23  1  0  0  0
 22 28  1  0  0  0
 22 32  2  0  0  0
 26 27  1  0  0  0
 28103  1  0  0  0
 28104  1  0  0  0
 29105  1  0  0  0
 29106  1  0  0  0
 33 34  1  0  0  0
 33 66  1  0  0  0
 33 70  2  0  0  0
 34 36  1  0  0  0
 34 59  1  0  0  0
 34107  1  0  0  0
 35 44  2  0  0  0
 35 45  1  0  0  0
 35 68  1  0  0  0
 36 56  1  0  0  0
 36108  1  0  0  0
 37 39  1  0  0  0
 37 47  1  0  0  0
 37 66  1  0  0  0
 37109  1  0  0  0
 38 43  2  0  0  0
 38 46  1  0  0  0
 38 47  1  0  0  0
 39 64  1  0  0  0
 39 67  2  0  0  0
 40 52  1  0  0  0
 40 53  2  0  0  0
 40 58  1  0  0  0
 41110  1  0  0  0
 41111  1  0  0  0
 41112  1  0  0  0
 41 48  1  0  0  0
 42 43  1  0  0  0
 42 66  1  0  0  0
 42113  1  0  0  0
 42114  1  0  0  0
 43 44  1  0  0  0
 44115  1  0  0  0
 45 46  2  0  0  0
 45116  1  0  0  0
 46117  1  0  0  0
 47118  1  0  0  0
 47119  1  0  0  0
 48 56  1  0  0  0
 48 65  1  0  0  0
 48120  1  0  0  0
 49 50  1  0  0  0
 49 53  1  0  0  0
 49 64  1  0  0  0
 49121  1  0  0  0
 50 51  1  0  0  0
 50122  1  0  0  0
 50123  1  0  0  0
 51 52  1  0  0  0
 51124  1  0  0  0
 51125  1  0  0  0
 52126  1  0  0  0
 52127  1  0  0  0
 53 54  1  0  0  0
 54 55  2  0  0  0
 54128  1  0  0  0
 55 57  1  0  0  0
 55129  1  0  0  0
 56 69  2  0  0  0
 57 58  2  0  0  0
 57130  1  0  0  0
 58131  1  0  0  0
 59 60  1  0  0  0
 59 61  1  0  0  0
 59 62  1  0  0  0
 60132  1  0  0  0
 60133  1  0  0  0
 60134  1  0  0  0
 61135  1  0  0  0
 61136  1  0  0  0
 61137  1  0  0  0
 62138  1  0  0  0
 62139  1  0  0  0
 62140  1  0  0  0
 63 65  1  0  0  0
 63141  1  0  0  0
 63142  1  0  0  0
 63143  1  0  0  0
 64144  1  0  0  0
 65145  1  0  0  0
 68 78  1  0  0  0
 71 72  2  0  0  0
 71 80  1  0  0  0
 71146  1  0  0  0
 72 73  1  0  0  0
 72 81  1  0  0  0
 73 74  2  0  0  0
 73 84  1  0  0  0
 74 75  1  0  0  0
 74 85  1  0  0  0
 75 80  2  0  0  0
 75 82  1  0  0  0
 76 79  1  0  0  0
 76 82  1  0  0  0
 76 83  2  0  0  0
 77147  1  0  0  0
 77148  1  0  0  0
 77149  1  0  0  0
 77 79  1  0  0  0
 78 79  1  0  0  0
 78150  1  0  0  0
 78151  1  0  0  0
 79 86  1  0  0  0
 81152  1  0  0  0
 82153  1  0  0  0
M  ISO  4   1 100  68 101  78 101  81 100
M  END
> <chiral flag>
0

> <version>
0

> <s_m_source_file>
/data/baiqing/PycharmProjects/Reinvent-master-3.2/result/LINK_invent/BTK/process_docking_weight1_custom_product_contain_oxygen_bond_distance_aromatic_linkinvent_7_9_3/rearranged_h_0178.sdf

> <i_m_source_file_index>
76

> <r_mmod_Potential_Energy-OPLS-2005>
-147.556091308594

> <r_mmod_Stretch_Energy-OPLS-2005>
82.4043960571289

> <r_mmod_Bend_Energy-OPLS-2005>
144.338485717773

> <r_mmod_Torsional_Energy-OPLS-2005>
235.61540222168

> <r_mmod_Improper_Torsional_Energy-OPLS-2005>
3.85402488708496

> <r_mmod_Van_der_Waal_Energy-OPLS-2005>
149.016098022461

> <r_mmod_Electrostatic_Energy-OPLS-2005>
-589.58447265625

> <r_mmod_Solvation_Energy-OPLS-2005>
-222.50732421875

> <b_mmod_Minimization_Converged-OPLS-2005>
0

> <r_mmod_RMS_Derivative-OPLS-2005>
0.34416189789772

$$$$
76
                    3D
 Structure written by MMmdl.
151159  0  0  1  0            999 V2000
  -30.6060  -14.7753   20.4806 C   0  0  0  0  0  0
  -30.4413  -12.4783   19.4955 C   0  0  0  0  0  0
  -29.5241  -12.5273   18.2521 C   0  0  0  0  0  0
  -28.0447  -12.3573   18.6496 C   0  0  0  0  0  0
  -27.6494  -13.2409   19.8621 C   0  0  2  0  0  0
  -28.6906  -13.1658   21.0026 C   0  0  0  0  0  0
  -25.2534  -13.8232   20.5705 C   0  0  0  0  0  0
  -24.1820  -13.0460   20.9209 C   0  0  0  0  0  0
  -24.6422  -11.6940   20.8737 C   0  0  0  0  0  0
  -23.9100  -10.4317   21.0414 C   0  0  0  0  0  0
  -24.3651   -9.4228   21.9187 C   0  0  0  0  0  0
  -23.6327   -8.2254   22.0758 C   0  0  0  0  0  0
  -22.4299   -8.0304   21.3550 C   0  0  0  0  0  0
  -21.9939   -9.0280   20.4645 C   0  0  0  0  0  0
  -22.7275  -10.2156   20.3061 C   0  0  0  0  0  0
  -21.6859   -6.0750   22.5285 C   0  0  0  0  0  0
  -21.4016   -6.5651   23.8221 C   0  0  0  0  0  0
  -21.3657   -5.6799   24.9180 C   0  0  0  0  0  0
  -21.6047   -4.3061   24.7226 C   0  0  0  0  0  0
  -21.8825   -3.8159   23.4349 C   0  0  0  0  0  0
  -21.9203   -4.6978   22.3406 C   0  0  0  0  0  0
  -22.7837  -13.5235   21.1859 C   0  0  0  0  0  0
  -22.1671   -4.2170   21.0975 F   0  0  0  0  0  0
  -21.5630   -3.4537   25.7734 F   0  0  0  0  0  0
  -29.9979  -13.5344   20.4398 N   0  0  0  0  0  0
  -26.2981  -12.9444   20.3315 N   0  0  0  0  0  0
  -25.9359  -11.6577   20.5743 N   0  0  0  0  0  0
  -22.0471  -12.8209   22.0398 N   0  0  0  0  0  0
  -25.4270  -15.1953   20.4166 N   0  0  0  0  0  0
  -31.7564  -14.8939   20.0458 O   0  0  0  0  0  0
  -21.6658   -6.8897   21.4245 O   0  0  0  0  0  0
  -22.3509  -14.5541   20.6724 O   0  0  0  0  0  0
  -24.6350  -31.8530   23.2006 C   0  0  0  0  0  0
  -25.9175  -32.4721   23.8349 C   0  0  1  0  0  0
  -27.1955  -27.1905   20.1414 C   0  0  0  0  0  0
  -25.5967  -33.8529   24.2259 N   0  0  0  0  0  0
  -23.4334  -30.4776   21.5470 C   0  0  2  0  0  0
  -24.8809  -28.9285   20.1118 C   0  0  0  0  0  0
  -22.7525  -29.4583   22.4936 C   0  0  0  0  0  0
  -18.0292  -28.1376   22.8476 C   0  0  0  0  0  0
  -24.1505  -36.7250   23.2640 C   0  0  0  0  0  0
  -25.9893  -30.7343   21.4048 C   0  0  0  0  0  0
  -26.0539  -29.3535   20.7496 C   0  0  0  0  0  0
  -27.2106  -28.4946   20.7656 C   0  0  0  0  0  0
  -26.0308  -26.9149   19.3928 C   0  0  0  0  0  0
  -24.8807  -27.7172   19.4166 C   0  0  0  0  0  0
  -23.6539  -29.8196   20.1621 C   0  0  0  0  0  0
  -25.4124  -36.3043   24.0333 C   0  0  1  0  0  0
  -20.5895  -28.3695   23.1261 C   0  0  2  0  0  0
  -20.6767  -26.9415   22.5401 C   0  0  0  0  0  0
  -19.5746  -26.6378   21.5195 C   0  0  0  0  0  0
  -18.1930  -26.7916   22.1615 C   0  0  0  0  0  0
  -19.1548  -28.8851   23.2853 C   0  0  0  0  0  0
  -18.9466  -30.1450   23.8871 C   0  0  0  0  0  0
  -17.6462  -30.6580   24.0538 C   0  0  0  0  0  0
  -25.9073  -34.9414   23.5095 C   0  0  0  0  0  0
  -16.5351  -29.9070   23.6331 C   0  0  0  0  0  0
  -16.7275  -28.6487   23.0357 C   0  0  0  0  0  0
  -26.4499  -31.6543   25.0758 C   0  0  0  0  0  0
  -25.3695  -31.3737   26.1478 C   0  0  0  0  0  0
  -27.0361  -30.2943   24.6327 C   0  0  0  0  0  0
  -27.6050  -32.4295   25.7514 C   0  0  0  0  0  0
  -27.5580  -37.1784   24.8465 C   0  0  0  0  0  0
  -21.4228  -29.3036   22.3665 N   0  0  0  0  0  0
  -26.4284  -37.3750   23.9421 N   0  0  0  0  0  0
  -24.7050  -31.0437   22.1032 N   0  0  0  0  0  0
  -23.4216  -28.8130   23.3048 O   0  0  0  0  0  0
  -28.2339  -26.2033   20.1991 O   0  0  0  0  0  0
  -26.5649  -34.8888   22.4669 O   0  0  0  0  0  0
  -23.5490  -32.1401   23.7254 O   0  0  0  0  0  0
  -29.6197  -19.6989   20.4102 C   0  0  0  0  0  0
  -29.4779  -19.3768   19.0648 C   0  0  0  0  0  0
  -29.8590  -17.2787   20.4248 C   0  0  0  0  0  0
  -29.7584  -21.1835   20.9830 C   0  0  0  0  0  0
  -29.1255  -23.6510   20.7290 C   0  0  0  0  0  0
  -26.8179  -24.0182   19.6448 C   0  0  0  0  0  0
  -27.9138  -24.7130   20.4936 C   0  0  2  0  0  0
  -29.8086  -18.4520   21.1539 N   0  0  0  0  0  0
  -29.2945  -20.2112   17.9640 N   0  0  0  0  0  0
  -29.8993  -15.8816   20.9415 N   0  0  0  0  0  0
  -29.0020  -22.2638   20.5098 N   0  0  0  0  0  0
  -30.5692  -21.3534   21.9021 O   0  0  0  0  0  0
  -30.1792  -24.1333   21.1580 O   0  0  0  0  0  0
  -29.6278  -17.6451   18.7218 S   0  0  0  0  0  0
  -31.4818  -12.6067   19.1933 H   0  0  0  0  0  0
  -30.3945  -11.5011   19.9768 H   0  0  0  0  0  0
  -29.8139  -11.7523   17.5420 H   0  0  0  0  0  0
  -29.6577  -13.4803   17.7366 H   0  0  0  0  0  0
  -27.8846  -11.3049   18.8865 H   0  0  0  0  0  0
  -27.4006  -12.5806   17.7990 H   0  0  0  0  0  0
  -27.6456  -14.2685   19.4975 H   0  0  0  0  0  0
  -28.7277  -12.1619   21.4282 H   0  0  0  0  0  0
  -28.4113  -13.8328   21.8186 H   0  0  0  0  0  0
  -25.2804   -9.5686   22.4755 H   0  0  0  0  0  0
  -24.0045   -7.4638   22.7466 H   0  0  0  0  0  0
  -21.0882   -8.8818   19.8933 H   0  0  0  0  0  0
  -22.3773  -10.9704   19.6165 H   0  0  0  0  0  0
  -21.1999   -7.6159   23.9732 H   0  0  0  0  0  0
  -21.1468   -6.0519   25.9083 H   0  0  0  0  0  0
  -22.0601   -2.7626   23.2846 H   0  0  0  0  0  0
  -22.4107  -11.9893   22.4802 H   0  0  0  0  0  0
  -21.1075  -13.1206   22.2575 H   0  0  0  0  0  0
  -24.6673  -15.8560   20.5409 H   0  0  0  0  0  0
  -26.2803  -15.6352   20.0951 H   0  0  0  0  0  0
  -26.7238  -32.5342   23.1072 H   0  0  0  0  0  0
  -25.0071  -33.9666   25.0384 H   0  0  0  0  0  0
  -22.7292  -31.3002   21.4042 H   0  0  0  0  0  0
  -23.3769  -35.9573   23.3280 H   0  0  0  0  0  0
  -24.3582  -36.8898   22.2050 H   0  0  0  0  0  0
  -23.7253  -37.6448   23.6673 H   0  0  0  0  0  0
  -26.1519  -31.4886   20.6340 H   0  0  0  0  0  0
  -26.8561  -30.7718   22.0512 H   0  0  0  0  0  0
  -28.0941  -28.8086   21.3015 H   0  0  0  0  0  0
  -25.9728  -26.0720   18.7309 H   0  0  0  0  0  0
  -24.0074  -27.4123   18.8554 H   0  0  0  0  0  0
  -23.7765  -30.5992   19.4102 H   0  0  0  0  0  0
  -22.7713  -29.2540   19.8551 H   0  0  0  0  0  0
  -25.1298  -36.1864   25.0818 H   0  0  0  0  0  0
  -20.9949  -28.3266   24.1397 H   0  0  0  0  0  0
  -20.5638  -26.2308   23.3610 H   0  0  0  0  0  0
  -21.6642  -26.7427   22.1207 H   0  0  0  0  0  0
  -19.6908  -25.6288   21.1234 H   0  0  0  0  0  0
  -19.6671  -27.3177   20.6715 H   0  0  0  0  0  0
  -17.4188  -26.6650   21.4030 H   0  0  0  0  0  0
  -18.0342  -26.0059   22.9011 H   0  0  0  0  0  0
  -19.7941  -30.7265   24.2244 H   0  0  0  0  0  0
  -17.5015  -31.6262   24.5134 H   0  0  0  0  0  0
  -15.5350  -30.2947   23.7679 H   0  0  0  0  0  0
  -15.8676  -28.0780   22.7099 H   0  0  0  0  0  0
  -24.5844  -30.7108   25.7819 H   0  0  0  0  0  0
  -24.8900  -32.2919   26.4885 H   0  0  0  0  0  0
  -25.7967  -30.8919   27.0285 H   0  0  0  0  0  0
  -26.2987  -29.6680   24.1298 H   0  0  0  0  0  0
  -27.3938  -29.7215   25.4892 H   0  0  0  0  0  0
  -27.8911  -30.4174   23.9679 H   0  0  0  0  0  0
  -27.2644  -33.3590   26.2087 H   0  0  0  0  0  0
  -28.3847  -32.6876   25.0334 H   0  0  0  0  0  0
  -28.0740  -31.8432   26.5430 H   0  0  0  0  0  0
  -28.2590  -38.0093   24.7522 H   0  0  0  0  0  0
  -28.1092  -36.2622   24.6269 H   0  0  0  0  0  0
  -27.2303  -37.1404   25.8873 H   0  0  0  0  0  0
  -20.9434  -29.8753   21.6853 H   0  0  0  0  0  0
  -26.0155  -38.2827   24.1404 H   0  0  0  0  0  0
  -25.8246  -24.3771   19.9122 H   0  0  0  0  0  0
  -26.7262  -22.9502   19.8290 H   0  0  0  0  0  0
  -26.9898  -24.1482   18.5764 H   0  0  0  0  0  0
  -27.4854  -24.7706   21.4958 H   0  0  0  0  0  0
  -29.5435  -21.1958   17.9660 H   0  0  0  0  0  0
  -29.3808  -19.8157   17.0321 H   0  0  0  0  0  0
  -29.0991  -15.6345   21.5020 H   0  0  0  0  0  0
  -28.2206  -21.9795   19.9411 H   0  0  0  0  0  0
  1 25  1  0  0  0
  1 30  2  0  0  0
  1 80  1  0  0  0
  2  3  1  0  0  0
  2 25  1  0  0  0
  2 85  1  0  0  0
  2 86  1  0  0  0
  3  4  1  0  0  0
  3 87  1  0  0  0
  3 88  1  0  0  0
  4  5  1  0  0  0
  4 89  1  0  0  0
  4 90  1  0  0  0
  5  6  1  0  0  0
  5 26  1  0  0  0
  5 91  1  0  0  0
  6 25  1  0  0  0
  6 92  1  0  0  0
  6 93  1  0  0  0
  7  8  2  0  0  0
  7 26  1  0  0  0
  7 29  1  0  0  0
  8  9  1  0  0  0
  8 22  1  0  0  0
  9 10  1  0  0  0
  9 27  2  0  0  0
 10 11  2  0  0  0
 10 15  1  0  0  0
 11 12  1  0  0  0
 11 94  1  0  0  0
 12 13  2  0  0  0
 12 95  1  0  0  0
 13 14  1  0  0  0
 13 31  1  0  0  0
 14 15  2  0  0  0
 14 96  1  0  0  0
 15 97  1  0  0  0
 16 17  2  0  0  0
 16 21  1  0  0  0
 16 31  1  0  0  0
 17 18  1  0  0  0
 17 98  1  0  0  0
 18 19  2  0  0  0
 18 99  1  0  0  0
 19 20  1  0  0  0
 19 24  1  0  0  0
 20 21  2  0  0  0
 20100  1  0  0  0
 21 23  1  0  0  0
 22 28  1  0  0  0
 22 32  2  0  0  0
 26 27  1  0  0  0
 28101  1  0  0  0
 28102  1  0  0  0
 29103  1  0  0  0
 29104  1  0  0  0
 33 34  1  0  0  0
 33 66  1  0  0  0
 33 70  2  0  0  0
 34 36  1  0  0  0
 34 59  1  0  0  0
 34105  1  0  0  0
 35 44  2  0  0  0
 35 45  1  0  0  0
 35 68  1  0  0  0
 36 56  1  0  0  0
 36106  1  0  0  0
 37 39  1  0  0  0
 37 47  1  0  0  0
 37 66  1  0  0  0
 37107  1  0  0  0
 38 43  2  0  0  0
 38 46  1  0  0  0
 38 47  1  0  0  0
 39 64  1  0  0  0
 39 67  2  0  0  0
 40 52  1  0  0  0
 40 53  2  0  0  0
 40 58  1  0  0  0
 41108  1  0  0  0
 41109  1  0  0  0
 41110  1  0  0  0
 41 48  1  0  0  0
 42 43  1  0  0  0
 42 66  1  0  0  0
 42111  1  0  0  0
 42112  1  0  0  0
 43 44  1  0  0  0
 44113  1  0  0  0
 45 46  2  0  0  0
 45114  1  0  0  0
 46115  1  0  0  0
 47116  1  0  0  0
 47117  1  0  0  0
 48 56  1  0  0  0
 48 65  1  0  0  0
 48118  1  0  0  0
 49 50  1  0  0  0
 49 53  1  0  0  0
 49 64  1  0  0  0
 49119  1  0  0  0
 50 51  1  0  0  0
 50120  1  0  0  0
 50121  1  0  0  0
 51 52  1  0  0  0
 51122  1  0  0  0
 51123  1  0  0  0
 52124  1  0  0  0
 52125  1  0  0  0
 53 54  1  0  0  0
 54 55  2  0  0  0
 54126  1  0  0  0
 55 57  1  0  0  0
 55127  1  0  0  0
 56 69  2  0  0  0
 57 58  2  0  0  0
 57128  1  0  0  0
 58129  1  0  0  0
 59 60  1  0  0  0
 59 61  1  0  0  0
 59 62  1  0  0  0
 60130  1  0  0  0
 60131  1  0  0  0
 60132  1  0  0  0
 61133  1  0  0  0
 61134  1  0  0  0
 61135  1  0  0  0
 62136  1  0  0  0
 62137  1  0  0  0
 62138  1  0  0  0
 63 65  1  0  0  0
 63139  1  0  0  0
 63140  1  0  0  0
 63141  1  0  0  0
 64142  1  0  0  0
 65143  1  0  0  0
 68 77  1  0  0  0
 71 72  2  0  0  0
 71 74  1  0  0  0
 71 78  1  0  0  0
 72 79  1  0  0  0
 72 84  1  0  0  0
 73 78  2  0  0  0
 73 80  1  0  0  0
 73 84  1  0  0  0
 74 81  1  0  0  0
 74 82  2  0  0  0
 75 77  1  0  0  0
 75 81  1  0  0  0
 75 83  2  0  0  0
 76144  1  0  0  0
 76145  1  0  0  0
 76146  1  0  0  0
 76 77  1  0  0  0
 77147  1  0  0  0
 79148  1  0  0  0
 79149  1  0  0  0
 80150  1  0  0  0
 81151  1  0  0  0
M  ISO  4   1 100  68 101  77 101  80 100
M  END
> <chiral flag>
0

> <version>
0

> <s_m_source_file>
/data/baiqing/PycharmProjects/Reinvent-master-3.2/result/LINK_invent/BTK/process_docking_weight1_custom_product_contain_oxygen_bond_distance_aromatic_linkinvent_7_9_3/rearranged_h_0178.sdf

> <i_m_source_file_index>
77

> <r_mmod_Potential_Energy-OPLS-2005>
236.541046142578

> <r_mmod_Stretch_Energy-OPLS-2005>
166.480682373047

> <r_mmod_Bend_Energy-OPLS-2005>
200.916915893555

> <r_mmod_Torsional_Energy-OPLS-2005>
279.357177734375

> <r_mmod_Improper_Torsional_Energy-OPLS-2005>
7.25567960739136

> <r_mmod_Van_der_Waal_Energy-OPLS-2005>
131.920837402344

> <r_mmod_Electrostatic_Energy-OPLS-2005>
-366.843078613281

> <r_mmod_Solvation_Energy-OPLS-2005>
-302.647644042969

> <b_mmod_Minimization_Converged-OPLS-2005>
0

> <r_mmod_RMS_Derivative-OPLS-2005>
2.88612604141235

$$$$
77
                    3D
 Structure written by MMmdl.
158166  0  0  1  0            999 V2000
  -30.7236  -14.4223   20.6131 C   0  0  0  0  0  0
  -30.4185  -12.2962   19.4061 C   0  0  0  0  0  0
  -29.4907  -12.5345   18.1981 C   0  0  0  0  0  0
  -28.0118  -12.3941   18.6111 C   0  0  0  0  0  0
  -27.6654  -13.2094   19.8853 C   0  0  2  0  0  0
  -28.7058  -12.9528   20.9998 C   0  0  0  0  0  0
  -25.2584  -13.8170   20.5688 C   0  0  0  0  0  0
  -24.1828  -13.0450   20.9182 C   0  0  0  0  0  0
  -24.6386  -11.6917   20.8745 C   0  0  0  0  0  0
  -23.9053  -10.4303   21.0416 C   0  0  0  0  0  0
  -24.3606   -9.4214   21.9189 C   0  0  0  0  0  0
  -23.6283   -8.2242   22.0742 C   0  0  0  0  0  0
  -22.4263   -8.0291   21.3540 C   0  0  0  0  0  0
  -21.9901   -9.0273   20.4649 C   0  0  0  0  0  0
  -22.7225  -10.2151   20.3070 C   0  0  0  0  0  0
  -21.6850   -6.0739   22.5276 C   0  0  0  0  0  0
  -21.4011   -6.5637   23.8216 C   0  0  0  0  0  0
  -21.3663   -5.6789   24.9170 C   0  0  0  0  0  0
  -21.6040   -4.3054   24.7224 C   0  0  0  0  0  0
  -21.8816   -3.8147   23.4347 C   0  0  0  0  0  0
  -21.9190   -4.6966   22.3396 C   0  0  0  0  0  0
  -22.7848  -13.5246   21.1850 C   0  0  0  0  0  0
  -22.1664   -4.2164   21.0979 F   0  0  0  0  0  0
  -21.5631   -3.4533   25.7730 F   0  0  0  0  0  0
  -30.0421  -13.2554   20.4577 N   0  0  0  0  0  0
  -26.3038  -12.9351   20.3406 N   0  0  0  0  0  0
  -25.9323  -11.6514   20.5783 N   0  0  0  0  0  0
  -22.0476  -12.8264   22.0424 N   0  0  0  0  0  0
  -25.4304  -15.1886   20.4090 N   0  0  0  0  0  0
  -31.8122  -14.6252   20.0693 O   0  0  0  0  0  0
  -21.6629   -6.8887   21.4239 O   0  0  0  0  0  0
  -22.3546  -14.5558   20.6703 O   0  0  0  0  0  0
  -24.6145  -31.8688   23.2112 C   0  0  0  0  0  0
  -25.9035  -32.4834   23.8388 C   0  0  1  0  0  0
  -27.2378  -27.4518   20.0691 C   0  0  0  0  0  0
  -25.5896  -33.8632   24.2322 N   0  0  0  0  0  0
  -23.3999  -30.4928   21.5544 C   0  0  2  0  0  0
  -24.8412  -28.9575   20.1195 C   0  0  0  0  0  0
  -22.7389  -29.4660   22.5022 C   0  0  0  0  0  0
  -18.0242  -28.1408   22.8492 C   0  0  0  0  0  0
  -24.1490  -36.7327   23.2639 C   0  0  0  0  0  0
  -25.9277  -30.8362   21.3597 C   0  0  0  0  0  0
  -26.0016  -29.4699   20.7111 C   0  0  0  0  0  0
  -27.2000  -28.7213   20.6889 C   0  0  0  0  0  0
  -26.0515  -26.9458   19.4841 C   0  0  0  0  0  0
  -24.8582  -27.6919   19.5113 C   0  0  0  0  0  0
  -23.6052  -29.8269   20.1686 C   0  0  0  0  0  0
  -25.4111  -36.3125   24.0339 C   0  0  1  0  0  0
  -20.5837  -28.3669   23.1350 C   0  0  2  0  0  0
  -20.6752  -26.9407   22.5454 C   0  0  0  0  0  0
  -19.5741  -26.6404   21.5235 C   0  0  0  0  0  0
  -18.1903  -26.7962   22.1625 C   0  0  0  0  0  0
  -19.1498  -28.8846   23.2928 C   0  0  0  0  0  0
  -18.9440  -30.1454   23.8939 C   0  0  0  0  0  0
  -17.6449  -30.6617   24.0567 C   0  0  0  0  0  0
  -25.9030  -34.9485   23.5129 C   0  0  0  0  0  0
  -16.5327  -29.9126   23.6339 C   0  0  0  0  0  0
  -16.7235  -28.6547   23.0349 C   0  0  0  0  0  0
  -26.4461  -31.6620   25.0711 C   0  0  0  0  0  0
  -25.3720  -31.3744   26.1456 C   0  0  0  0  0  0
  -27.0281  -30.3062   24.6083 C   0  0  0  0  0  0
  -27.6058  -32.4312   25.7471 C   0  0  0  0  0  0
  -27.5581  -37.1835   24.8464 C   0  0  0  0  0  0
  -21.4118  -29.3020   22.3751 N   0  0  0  0  0  0
  -26.4304  -37.3805   23.9390 N   0  0  0  0  0  0
  -24.6660  -31.0799   22.1008 N   0  0  0  0  0  0
  -23.4156  -28.8196   23.3065 O   0  0  0  0  0  0
  -28.4375  -26.7694   20.0545 O   0  0  0  0  0  0
  -26.5603  -34.8931   22.4694 O   0  0  0  0  0  0
  -23.5335  -32.1427   23.7523 O   0  0  0  0  0  0
  -29.6446  -17.5789   22.2369 C   0  0  0  0  0  0
  -30.3462  -16.6938   21.4485 C   0  0  0  0  0  0
  -31.1013  -19.0698   21.3143 C   0  0  0  0  0  0
  -29.6942  -23.4571   20.7616 C   0  0  0  0  0  0
  -30.3842  -22.1615   20.2453 C   0  0  0  0  0  0
  -33.0299  -20.4598   22.1148 C   0  0  0  0  0  0
  -30.8402  -24.8161   18.8142 C   0  0  0  0  0  0
  -28.4559  -25.4065   19.6229 C   0  0  0  0  0  0
  -31.8714  -20.3451   21.1124 C   0  0  2  0  0  0
  -29.8310  -24.7917   19.9848 C   0  0  1  0  0  0
  -30.0832  -18.9084   22.1662 N   0  0  0  0  0  0
  -30.1026  -15.3520   21.3655 N   0  0  0  0  0  0
  -30.9849  -21.4984   21.2426 N   0  0  0  0  0  0
  -29.0693  -23.4388   21.8277 O   0  0  0  0  0  0
  -30.3792  -21.7951   19.0654 O   0  0  0  0  0  0
  -31.5766  -17.5662   20.5436 S   0  0  0  0  0  0
  -31.4625  -12.3902   19.1012 H   0  0  0  0  0  0
  -30.3114  -11.2749   19.7732 H   0  0  0  0  0  0
  -29.7233  -11.8360   17.3933 H   0  0  0  0  0  0
  -29.6654  -13.5325   17.7922 H   0  0  0  0  0  0
  -27.8126  -11.3369   18.7854 H   0  0  0  0  0  0
  -27.3649  -12.6950   17.7875 H   0  0  0  0  0  0
  -27.7188  -14.2653   19.6171 H   0  0  0  0  0  0
  -28.6747  -11.9075   21.3103 H   0  0  0  0  0  0
  -28.4631  -13.5198   21.8996 H   0  0  0  0  0  0
  -25.2759   -9.5693   22.4766 H   0  0  0  0  0  0
  -24.0008   -7.4625   22.7448 H   0  0  0  0  0  0
  -21.0830   -8.8802   19.8957 H   0  0  0  0  0  0
  -22.3686  -10.9702   19.6196 H   0  0  0  0  0  0
  -21.2002   -7.6152   23.9727 H   0  0  0  0  0  0
  -21.1489   -6.0513   25.9079 H   0  0  0  0  0  0
  -22.0592   -2.7617   23.2827 H   0  0  0  0  0  0
  -22.4062  -11.9932   22.4860 H   0  0  0  0  0  0
  -21.1113  -13.1338   22.2639 H   0  0  0  0  0  0
  -24.6603  -15.8435   20.4983 H   0  0  0  0  0  0
  -26.2849  -15.6241   20.0846 H   0  0  0  0  0  0
  -26.7115  -32.5541   23.1165 H   0  0  0  0  0  0
  -25.0021  -33.9785   25.0444 H   0  0  0  0  0  0
  -22.6908  -31.3116   21.4177 H   0  0  0  0  0  0
  -23.3739  -35.9676   23.3331 H   0  0  0  0  0  0
  -24.3590  -36.8885   22.2052 H   0  0  0  0  0  0
  -23.7245  -37.6551   23.6602 H   0  0  0  0  0  0
  -26.0321  -31.5957   20.5823 H   0  0  0  0  0  0
  -26.8221  -30.8987   21.9676 H   0  0  0  0  0  0
  -28.0978  -29.1178   21.1416 H   0  0  0  0  0  0
  -26.0239  -25.9847   18.9917 H   0  0  0  0  0  0
  -23.9627  -27.2909   19.0558 H   0  0  0  0  0  0
  -23.7183  -30.6009   19.4081 H   0  0  0  0  0  0
  -22.7269  -29.2498   19.8752 H   0  0  0  0  0  0
  -25.1294  -36.2028   25.0835 H   0  0  0  0  0  0
  -20.9924  -28.3244   24.1473 H   0  0  0  0  0  0
  -20.5668  -26.2264   23.3634 H   0  0  0  0  0  0
  -21.6630  -26.7479   22.1237 H   0  0  0  0  0  0
  -19.6897  -25.6321   21.1245 H   0  0  0  0  0  0
  -19.6704  -27.3236   20.6783 H   0  0  0  0  0  0
  -17.4186  -26.6699   21.4008 H   0  0  0  0  0  0
  -18.0283  -26.0120   22.9036 H   0  0  0  0  0  0
  -19.7909  -30.7253   24.2341 H   0  0  0  0  0  0
  -17.5003  -31.6302   24.5166 H   0  0  0  0  0  0
  -15.5337  -30.3048   23.7654 H   0  0  0  0  0  0
  -15.8626  -28.0889   22.7056 H   0  0  0  0  0  0
  -24.5934  -30.7028   25.7816 H   0  0  0  0  0  0
  -24.8855  -32.2907   26.4820 H   0  0  0  0  0  0
  -25.8081  -30.9005   27.0253 H   0  0  0  0  0  0
  -26.2823  -29.6843   24.1125 H   0  0  0  0  0  0
  -27.4033  -29.7287   25.4539 H   0  0  0  0  0  0
  -27.8652  -30.4385   23.9222 H   0  0  0  0  0  0
  -27.2713  -33.3612   26.2078 H   0  0  0  0  0  0
  -28.3870  -32.6866   25.0297 H   0  0  0  0  0  0
  -28.0718  -31.8400   26.5363 H   0  0  0  0  0  0
  -28.2646  -38.0092   24.7482 H   0  0  0  0  0  0
  -28.1021  -36.2630   24.6323 H   0  0  0  0  0  0
  -27.2284  -37.1533   25.8862 H   0  0  0  0  0  0
  -20.9275  -29.8725   21.6967 H   0  0  0  0  0  0
  -26.0203  -38.2873   24.1393 H   0  0  0  0  0  0
  -28.8185  -17.3450   22.8940 H   0  0  0  0  0  0
  -32.6705  -20.4293   23.1432 H   0  0  0  0  0  0
  -33.5891  -21.3860   21.9773 H   0  0  0  0  0  0
  -33.7311  -19.6339   21.9924 H   0  0  0  0  0  0
  -31.8235  -24.4645   19.1312 H   0  0  0  0  0  0
  -30.9724  -25.8296   18.4338 H   0  0  0  0  0  0
  -30.5115  -24.1987   17.9783 H   0  0  0  0  0  0
  -28.2784  -25.3464   18.5478 H   0  0  0  0  0  0
  -27.6446  -24.8569   20.1071 H   0  0  0  0  0  0
  -32.2937  -20.3224   20.1056 H   0  0  0  0  0  0
  -30.2679  -25.4515   20.7351 H   0  0  0  0  0  0
  -29.2740  -15.0235   21.8366 H   0  0  0  0  0  0
  -30.8195  -21.8567   22.1737 H   0  0  0  0  0  0
  1 25  1  0  0  0
  1 30  2  0  0  0
  1 82  1  0  0  0
  2  3  1  0  0  0
  2 25  1  0  0  0
  2 87  1  0  0  0
  2 88  1  0  0  0
  3  4  1  0  0  0
  3 89  1  0  0  0
  3 90  1  0  0  0
  4  5  1  0  0  0
  4 91  1  0  0  0
  4 92  1  0  0  0
  5  6  1  0  0  0
  5 26  1  0  0  0
  5 93  1  0  0  0
  6 25  1  0  0  0
  6 94  1  0  0  0
  6 95  1  0  0  0
  7  8  2  0  0  0
  7 26  1  0  0  0
  7 29  1  0  0  0
  8  9  1  0  0  0
  8 22  1  0  0  0
  9 10  1  0  0  0
  9 27  2  0  0  0
 10 11  2  0  0  0
 10 15  1  0  0  0
 11 12  1  0  0  0
 11 96  1  0  0  0
 12 13  2  0  0  0
 12 97  1  0  0  0
 13 14  1  0  0  0
 13 31  1  0  0  0
 14 15  2  0  0  0
 14 98  1  0  0  0
 15 99  1  0  0  0
 16 17  2  0  0  0
 16 21  1  0  0  0
 16 31  1  0  0  0
 17 18  1  0  0  0
 17100  1  0  0  0
 18 19  2  0  0  0
 18101  1  0  0  0
 19 20  1  0  0  0
 19 24  1  0  0  0
 20 21  2  0  0  0
 20102  1  0  0  0
 21 23  1  0  0  0
 22 28  1  0  0  0
 22 32  2  0  0  0
 26 27  1  0  0  0
 28103  1  0  0  0
 28104  1  0  0  0
 29105  1  0  0  0
 29106  1  0  0  0
 33 34  1  0  0  0
 33 66  1  0  0  0
 33 70  2  0  0  0
 34 36  1  0  0  0
 34 59  1  0  0  0
 34107  1  0  0  0
 35 44  2  0  0  0
 35 45  1  0  0  0
 35 68  1  0  0  0
 36 56  1  0  0  0
 36108  1  0  0  0
 37 39  1  0  0  0
 37 47  1  0  0  0
 37 66  1  0  0  0
 37109  1  0  0  0
 38 43  2  0  0  0
 38 46  1  0  0  0
 38 47  1  0  0  0
 39 64  1  0  0  0
 39 67  2  0  0  0
 40 52  1  0  0  0
 40 53  2  0  0  0
 40 58  1  0  0  0
 41110  1  0  0  0
 41111  1  0  0  0
 41112  1  0  0  0
 41 48  1  0  0  0
 42 43  1  0  0  0
 42 66  1  0  0  0
 42113  1  0  0  0
 42114  1  0  0  0
 43 44  1  0  0  0
 44115  1  0  0  0
 45 46  2  0  0  0
 45116  1  0  0  0
 46117  1  0  0  0
 47118  1  0  0  0
 47119  1  0  0  0
 48 56  1  0  0  0
 48 65  1  0  0  0
 48120  1  0  0  0
 49 50  1  0  0  0
 49 53  1  0  0  0
 49 64  1  0  0  0
 49121  1  0  0  0
 50 51  1  0  0  0
 50122  1  0  0  0
 50123  1  0  0  0
 51 52  1  0  0  0
 51124  1  0  0  0
 51125  1  0  0  0
 52126  1  0  0  0
 52127  1  0  0  0
 53 54  1  0  0  0
 54 55  2  0  0  0
 54128  1  0  0  0
 55 57  1  0  0  0
 55129  1  0  0  0
 56 69  2  0  0  0
 57 58  2  0  0  0
 57130  1  0  0  0
 58131  1  0  0  0
 59 60  1  0  0  0
 59 61  1  0  0  0
 59 62  1  0  0  0
 60132  1  0  0  0
 60133  1  0  0  0
 60134  1  0  0  0
 61135  1  0  0  0
 61136  1  0  0  0
 61137  1  0  0  0
 62138  1  0  0  0
 62139  1  0  0  0
 62140  1  0  0  0
 63 65  1  0  0  0
 63141  1  0  0  0
 63142  1  0  0  0
 63143  1  0  0  0
 64144  1  0  0  0
 65145  1  0  0  0
 68 78  1  0  0  0
 71 72  2  0  0  0
 71 81  1  0  0  0
 71146  1  0  0  0
 72 82  1  0  0  0
 72 86  1  0  0  0
 73 79  1  0  0  0
 73 81  2  0  0  0
 73 86  1  0  0  0
 74 75  1  0  0  0
 74 80  1  0  0  0
 74 84  2  0  0  0
 75 83  1  0  0  0
 75 85  2  0  0  0
 76147  1  0  0  0
 76148  1  0  0  0
 76149  1  0  0  0
 76 79  1  0  0  0
 77150  1  0  0  0
 77151  1  0  0  0
 77152  1  0  0  0
 77 80  1  0  0  0
 78 80  1  0  0  0
 78153  1  0  0  0
 78154  1  0  0  0
 79 83  1  0  0  0
 79155  1  0  0  0
 80156  1  0  0  0
 82157  1  0  0  0
 83158  1  0  0  0
M  ISO  4   1 100  68 101  78 101  82 100
M  END
> <chiral flag>
0

> <version>
0

> <s_m_source_file>
/data/baiqing/PycharmProjects/Reinvent-master-3.2/result/LINK_invent/BTK/process_docking_weight1_custom_product_contain_oxygen_bond_distance_aromatic_linkinvent_7_9_3/rearranged_h_0178.sdf

> <i_m_source_file_index>
78

> <r_mmod_Potential_Energy-OPLS-2005>
-149.577224731445

> <r_mmod_Stretch_Energy-OPLS-2005>
35.5174522399902

> <r_mmod_Bend_Energy-OPLS-2005>
113.25080871582

> <r_mmod_Torsional_Energy-OPLS-2005>
186.453689575195

> <r_mmod_Improper_Torsional_Energy-OPLS-2005>
2.85654830932617

> <r_mmod_Van_der_Waal_Energy-OPLS-2005>
143.17707824707

> <r_mmod_Electrostatic_Energy-OPLS-2005>
-397.725646972656

> <r_mmod_Solvation_Energy-OPLS-2005>
-242.181015014648

> <b_mmod_Minimization_Converged-OPLS-2005>
0

> <r_mmod_RMS_Derivative-OPLS-2005>
2.89198994636536

$$$$
78
                    3D
 Structure written by MMmdl.
161169  0  0  1  0            999 V2000
  -30.7612  -14.3838   20.6451 C   0  0  0  0  0  0
  -30.4142  -12.2797   19.4060 C   0  0  0  0  0  0
  -29.4863  -12.5136   18.1985 C   0  0  0  0  0  0
  -28.0092  -12.3780   18.6134 C   0  0  0  0  0  0
  -27.6666  -13.2029   19.8824 C   0  0  2  0  0  0
  -28.7059  -12.9519   20.9986 C   0  0  0  0  0  0
  -25.2606  -13.8159   20.5681 C   0  0  0  0  0  0
  -24.1846  -13.0444   20.9162 C   0  0  0  0  0  0
  -24.6387  -11.6906   20.8720 C   0  0  0  0  0  0
  -23.9049  -10.4296   21.0394 C   0  0  0  0  0  0
  -24.3603   -9.4217   21.9174 C   0  0  0  0  0  0
  -23.6284   -8.2252   22.0751 C   0  0  0  0  0  0
  -22.4269   -8.0280   21.3541 C   0  0  0  0  0  0
  -21.9897   -9.0251   20.4642 C   0  0  0  0  0  0
  -22.7219  -10.2135   20.3047 C   0  0  0  0  0  0
  -21.6851   -6.0733   22.5277 C   0  0  0  0  0  0
  -21.4011   -6.5636   23.8213 C   0  0  0  0  0  0
  -21.3660   -5.6789   24.9175 C   0  0  0  0  0  0
  -21.6046   -4.3052   24.7225 C   0  0  0  0  0  0
  -21.8817   -3.8145   23.4346 C   0  0  0  0  0  0
  -21.9192   -4.6961   22.3400 C   0  0  0  0  0  0
  -22.7871  -13.5248   21.1825 C   0  0  0  0  0  0
  -22.1661   -4.2147   21.0977 F   0  0  0  0  0  0
  -21.5631   -3.4537   25.7739 F   0  0  0  0  0  0
  -30.0473  -13.2416   20.4569 N   0  0  0  0  0  0
  -26.3045  -12.9323   20.3393 N   0  0  0  0  0  0
  -25.9316  -11.6483   20.5767 N   0  0  0  0  0  0
  -22.0504  -12.8252   22.0384 N   0  0  0  0  0  0
  -25.4348  -15.1878   20.4102 N   0  0  0  0  0  0
  -31.8169  -14.6063   20.0437 O   0  0  0  0  0  0
  -21.6636   -6.8877   21.4240 O   0  0  0  0  0  0
  -22.3566  -14.5558   20.6674 O   0  0  0  0  0  0
  -24.6119  -31.8709   23.2107 C   0  0  0  0  0  0
  -25.9031  -32.4833   23.8399 C   0  0  1  0  0  0
  -27.2384  -27.4721   20.0962 C   0  0  0  0  0  0
  -25.5903  -33.8631   24.2338 N   0  0  0  0  0  0
  -23.3983  -30.4926   21.5511 C   0  0  2  0  0  0
  -24.8476  -28.9638   20.1129 C   0  0  0  0  0  0
  -22.7391  -29.4672   22.5010 C   0  0  0  0  0  0
  -18.0279  -28.1371   22.8492 C   0  0  0  0  0  0
  -24.1487  -36.7305   23.2641 C   0  0  0  0  0  0
  -25.9221  -30.8504   21.3568 C   0  0  0  0  0  0
  -26.0047  -29.4888   20.7023 C   0  0  0  0  0  0
  -27.2072  -28.7517   20.6870 C   0  0  0  0  0  0
  -26.0709  -26.9531   19.4984 C   0  0  0  0  0  0
  -24.8737  -27.6945   19.5067 C   0  0  0  0  0  0
  -23.6046  -29.8227   20.1658 C   0  0  0  0  0  0
  -25.4110  -36.3115   24.0343 C   0  0  1  0  0  0
  -20.5864  -28.3655   23.1329 C   0  0  2  0  0  0
  -20.6776  -26.9396   22.5425 C   0  0  0  0  0  0
  -19.5756  -26.6386   21.5212 C   0  0  0  0  0  0
  -18.1933  -26.7920   22.1616 C   0  0  0  0  0  0
  -19.1526  -28.8828   23.2906 C   0  0  0  0  0  0
  -18.9456  -30.1435   23.8923 C   0  0  0  0  0  0
  -17.6460  -30.6584   24.0564 C   0  0  0  0  0  0
  -25.9036  -34.9483   23.5132 C   0  0  0  0  0  0
  -16.5355  -29.9089   23.6316 C   0  0  0  0  0  0
  -16.7270  -28.6502   23.0346 C   0  0  0  0  0  0
  -26.4476  -31.6603   25.0712 C   0  0  0  0  0  0
  -25.3746  -31.3705   26.1465 C   0  0  0  0  0  0
  -27.0297  -30.3050   24.6052 C   0  0  0  0  0  0
  -27.6053  -32.4323   25.7479 C   0  0  0  0  0  0
  -27.5589  -37.1805   24.8465 C   0  0  0  0  0  0
  -21.4127  -29.3021   22.3734 N   0  0  0  0  0  0
  -26.4296  -37.3800   23.9416 N   0  0  0  0  0  0
  -24.6623  -31.0835   22.0995 N   0  0  0  0  0  0
  -23.4168  -28.8228   23.3060 O   0  0  0  0  0  0
  -28.3900  -26.7244   20.1232 O   0  0  0  0  0  0
  -26.5592  -34.8933   22.4686 O   0  0  0  0  0  0
  -23.5322  -32.1446   23.7527 O   0  0  0  0  0  0
  -32.1646  -18.3338   21.8839 C   0  0  0  0  0  0
  -29.6656  -17.4407   22.3659 C   0  0  0  0  0  0
  -31.1772  -19.1818   22.4327 C   0  0  0  0  0  0
  -30.6398  -16.5825   21.7957 C   0  0  0  0  0  0
  -30.3176  -22.2899   21.4107 C   0  0  0  0  0  0
  -31.8399  -20.7020   24.3263 C   0  0  0  0  0  0
  -28.5881  -26.1978   22.4795 C   0  0  0  0  0  0
  -29.0956  -23.2074   21.3320 C   0  0  0  0  0  0
  -29.3837  -24.5784   20.6770 C   0  0  0  0  0  0
  -31.5149  -20.6158   22.8282 C   0  0  2  0  0  0
  -28.3413  -25.6444   21.0617 C   0  0  2  0  0  0
  -29.9209  -18.7331   22.6846 N   0  0  0  0  0  0
  -31.8991  -17.0447   21.5691 N   0  0  0  0  0  0
  -30.2160  -15.2605   21.5018 N   0  0  0  0  0  0
  -30.4322  -21.5475   22.5184 N   0  0  0  0  0  0
  -31.1393  -22.2579   20.4926 O   0  0  0  0  0  0
  -31.4589  -12.3633   19.1010 H   0  0  0  0  0  0
  -30.3021  -11.2618   19.7812 H   0  0  0  0  0  0
  -29.7165  -11.8036   17.4031 H   0  0  0  0  0  0
  -29.6629  -13.5068   17.7833 H   0  0  0  0  0  0
  -27.8106  -11.3211   18.7930 H   0  0  0  0  0  0
  -27.3589  -12.6719   17.7884 H   0  0  0  0  0  0
  -27.7231  -14.2559   19.6058 H   0  0  0  0  0  0
  -28.6686  -11.9093   21.3188 H   0  0  0  0  0  0
  -28.4602  -13.5302   21.8894 H   0  0  0  0  0  0
  -25.2752   -9.5699   22.4741 H   0  0  0  0  0  0
  -23.9998   -7.4650   22.7476 H   0  0  0  0  0  0
  -21.0830   -8.8761   19.8952 H   0  0  0  0  0  0
  -22.3671  -10.9666   19.6153 H   0  0  0  0  0  0
  -21.1999   -7.6144   23.9714 H   0  0  0  0  0  0
  -21.1484   -6.0520   25.9078 H   0  0  0  0  0  0
  -22.0594   -2.7606   23.2845 H   0  0  0  0  0  0
  -22.4112  -11.9912   22.4775 H   0  0  0  0  0  0
  -21.1129  -13.1297   22.2592 H   0  0  0  0  0  0
  -24.6685  -15.8442   20.5149 H   0  0  0  0  0  0
  -26.2891  -15.6252   20.0874 H   0  0  0  0  0  0
  -26.7109  -32.5565   23.1181 H   0  0  0  0  0  0
  -25.0079  -33.9799   25.0500 H   0  0  0  0  0  0
  -22.6852  -31.3076   21.4116 H   0  0  0  0  0  0
  -23.3756  -35.9628   23.3303 H   0  0  0  0  0  0
  -24.3587  -36.8914   22.2052 H   0  0  0  0  0  0
  -23.7223  -37.6505   23.6651 H   0  0  0  0  0  0
  -26.0255  -31.6194   20.5899 H   0  0  0  0  0  0
  -26.8122  -30.9050   21.9718 H   0  0  0  0  0  0
  -28.1024  -29.1472   21.1465 H   0  0  0  0  0  0
  -26.0868  -25.9749   19.0383 H   0  0  0  0  0  0
  -23.9837  -27.2838   19.0501 H   0  0  0  0  0  0
  -23.7023  -30.5959   19.4023 H   0  0  0  0  0  0
  -22.7308  -29.2348   19.8780 H   0  0  0  0  0  0
  -25.1281  -36.1988   25.0835 H   0  0  0  0  0  0
  -20.9957  -28.3237   24.1446 H   0  0  0  0  0  0
  -20.5693  -26.2265   23.3610 H   0  0  0  0  0  0
  -21.6652  -26.7461   22.1211 H   0  0  0  0  0  0
  -19.6927  -25.6298   21.1237 H   0  0  0  0  0  0
  -19.6708  -27.3199   20.6743 H   0  0  0  0  0  0
  -17.4210  -26.6678   21.4009 H   0  0  0  0  0  0
  -18.0317  -26.0051   22.8998 H   0  0  0  0  0  0
  -19.7934  -30.7230   24.2322 H   0  0  0  0  0  0
  -17.5022  -31.6265   24.5159 H   0  0  0  0  0  0
  -15.5354  -30.3002   23.7623 H   0  0  0  0  0  0
  -15.8668  -28.0829   22.7053 H   0  0  0  0  0  0
  -24.5913  -30.7063   25.7794 H   0  0  0  0  0  0
  -24.8955  -32.2864   26.4927 H   0  0  0  0  0  0
  -25.8103  -30.8859   27.0213 H   0  0  0  0  0  0
  -26.2825  -29.6820   24.1123 H   0  0  0  0  0  0
  -27.4097  -29.7273   25.4489 H   0  0  0  0  0  0
  -27.8647  -30.4365   23.9163 H   0  0  0  0  0  0
  -27.2670  -33.3605   26.2093 H   0  0  0  0  0  0
  -28.3850  -32.6916   25.0304 H   0  0  0  0  0  0
  -28.0739  -31.8428   26.5371 H   0  0  0  0  0  0
  -28.2600  -38.0113   24.7541 H   0  0  0  0  0  0
  -28.1091  -36.2646   24.6254 H   0  0  0  0  0  0
  -27.2312  -37.1413   25.8870 H   0  0  0  0  0  0
  -20.9292  -29.8714   21.6928 H   0  0  0  0  0  0
  -26.0187  -38.2872   24.1445 H   0  0  0  0  0  0
  -33.1701  -18.6857   21.7051 H   0  0  0  0  0  0
  -28.6619  -17.0909   22.5591 H   0  0  0  0  0  0
  -32.6866  -20.0623   24.5783 H   0  0  0  0  0  0
  -30.9947  -20.3829   24.9371 H   0  0  0  0  0  0
  -32.0998  -21.7196   24.6187 H   0  0  0  0  0  0
  -28.5904  -25.4085   23.2305 H   0  0  0  0  0  0
  -27.8135  -26.9053   22.7751 H   0  0  0  0  0  0
  -29.5479  -26.7116   22.5416 H   0  0  0  0  0  0
  -28.7148  -23.3484   22.3428 H   0  0  0  0  0  0
  -28.3046  -22.6938   20.7847 H   0  0  0  0  0  0
  -29.3840  -24.4465   19.5941 H   0  0  0  0  0  0
  -30.3820  -24.9340   20.9368 H   0  0  0  0  0  0
  -32.4108  -20.9143   22.2791 H   0  0  0  0  0  0
  -27.3573  -25.1728   21.0304 H   0  0  0  0  0  0
  -29.3356  -14.9780   21.9024 H   0  0  0  0  0  0
  -29.6889  -21.6028   23.2002 H   0  0  0  0  0  0
  1 25  1  0  0  0
  1 30  2  0  0  0
  1 84  1  0  0  0
  2  3  1  0  0  0
  2 25  1  0  0  0
  2 87  1  0  0  0
  2 88  1  0  0  0
  3  4  1  0  0  0
  3 89  1  0  0  0
  3 90  1  0  0  0
  4  5  1  0  0  0
  4 91  1  0  0  0
  4 92  1  0  0  0
  5  6  1  0  0  0
  5 26  1  0  0  0
  5 93  1  0  0  0
  6 25  1  0  0  0
  6 94  1  0  0  0
  6 95  1  0  0  0
  7  8  2  0  0  0
  7 26  1  0  0  0
  7 29  1  0  0  0
  8  9  1  0  0  0
  8 22  1  0  0  0
  9 10  1  0  0  0
  9 27  2  0  0  0
 10 11  2  0  0  0
 10 15  1  0  0  0
 11 12  1  0  0  0
 11 96  1  0  0  0
 12 13  2  0  0  0
 12 97  1  0  0  0
 13 14  1  0  0  0
 13 31  1  0  0  0
 14 15  2  0  0  0
 14 98  1  0  0  0
 15 99  1  0  0  0
 16 17  2  0  0  0
 16 21  1  0  0  0
 16 31  1  0  0  0
 17 18  1  0  0  0
 17100  1  0  0  0
 18 19  2  0  0  0
 18101  1  0  0  0
 19 20  1  0  0  0
 19 24  1  0  0  0
 20 21  2  0  0  0
 20102  1  0  0  0
 21 23  1  0  0  0
 22 28  1  0  0  0
 22 32  2  0  0  0
 26 27  1  0  0  0
 28103  1  0  0  0
 28104  1  0  0  0
 29105  1  0  0  0
 29106  1  0  0  0
 33 34  1  0  0  0
 33 66  1  0  0  0
 33 70  2  0  0  0
 34 36  1  0  0  0
 34 59  1  0  0  0
 34107  1  0  0  0
 35 44  2  0  0  0
 35 45  1  0  0  0
 35 68  1  0  0  0
 36 56  1  0  0  0
 36108  1  0  0  0
 37 39  1  0  0  0
 37 47  1  0  0  0
 37 66  1  0  0  0
 37109  1  0  0  0
 38 43  2  0  0  0
 38 46  1  0  0  0
 38 47  1  0  0  0
 39 64  1  0  0  0
 39 67  2  0  0  0
 40 52  1  0  0  0
 40 53  2  0  0  0
 40 58  1  0  0  0
 41110  1  0  0  0
 41111  1  0  0  0
 41112  1  0  0  0
 41 48  1  0  0  0
 42 43  1  0  0  0
 42 66  1  0  0  0
 42113  1  0  0  0
 42114  1  0  0  0
 43 44  1  0  0  0
 44115  1  0  0  0
 45 46  2  0  0  0
 45116  1  0  0  0
 46117  1  0  0  0
 47118  1  0  0  0
 47119  1  0  0  0
 48 56  1  0  0  0
 48 65  1  0  0  0
 48120  1  0  0  0
 49 50  1  0  0  0
 49 53  1  0  0  0
 49 64  1  0  0  0
 49121  1  0  0  0
 50 51  1  0  0  0
 50122  1  0  0  0
 50123  1  0  0  0
 51 52  1  0  0  0
 51124  1  0  0  0
 51125  1  0  0  0
 52126  1  0  0  0
 52127  1  0  0  0
 53 54  1  0  0  0
 54 55  2  0  0  0
 54128  1  0  0  0
 55 57  1  0  0  0
 55129  1  0  0  0
 56 69  2  0  0  0
 57 58  2  0  0  0
 57130  1  0  0  0
 58131  1  0  0  0
 59 60  1  0  0  0
 59 61  1  0  0  0
 59 62  1  0  0  0
 60132  1  0  0  0
 60133  1  0  0  0
 60134  1  0  0  0
 61135  1  0  0  0
 61136  1  0  0  0
 61137  1  0  0  0
 62138  1  0  0  0
 62139  1  0  0  0
 62140  1  0  0  0
 63 65  1  0  0  0
 63141  1  0  0  0
 63142  1  0  0  0
 63143  1  0  0  0
 64144  1  0  0  0
 65145  1  0  0  0
 68 81  1  0  0  0
 71 73  2  0  0  0
 71 83  1  0  0  0
 71146  1  0  0  0
 72 74  1  0  0  0
 72 82  2  0  0  0
 72147  1  0  0  0
 73 80  1  0  0  0
 73 82  1  0  0  0
 74 83  2  0  0  0
 74 84  1  0  0  0
 75 78  1  0  0  0
 75 85  1  0  0  0
 75 86  2  0  0  0
 76148  1  0  0  0
 76149  1  0  0  0
 76150  1  0  0  0
 76 80  1  0  0  0
 77151  1  0  0  0
 77152  1  0  0  0
 77153  1  0  0  0
 77 81  1  0  0  0
 78 79  1  0  0  0
 78154  1  0  0  0
 78155  1  0  0  0
 79 81  1  0  0  0
 79156  1  0  0  0
 79157  1  0  0  0
 80 85  1  0  0  0
 80158  1  0  0  0
 81159  1  0  0  0
 84160  1  0  0  0
 85161  1  0  0  0
M  ISO  4   1 100  68 101  81 101  84 100
M  END
> <chiral flag>
0

> <version>
0

> <s_m_source_file>
/data/baiqing/PycharmProjects/Reinvent-master-3.2/result/LINK_invent/BTK/process_docking_weight1_custom_product_contain_oxygen_bond_distance_aromatic_linkinvent_7_9_3/rearranged_h_0178.sdf

> <i_m_source_file_index>
79

> <r_mmod_Potential_Energy-OPLS-2005>
-184.167343139648

> <r_mmod_Stretch_Energy-OPLS-2005>
34.6846237182617

> <r_mmod_Bend_Energy-OPLS-2005>
90.0912628173828

> <r_mmod_Torsional_Energy-OPLS-2005>
209.951507568359

> <r_mmod_Improper_Torsional_Energy-OPLS-2005>
2.12408399581909

> <r_mmod_Van_der_Waal_Energy-OPLS-2005>
164.165390014648

> <r_mmod_Electrostatic_Energy-OPLS-2005>
-436.567199707031

> <r_mmod_Solvation_Energy-OPLS-2005>
-256.672454833984

> <b_mmod_Minimization_Converged-OPLS-2005>
0

> <r_mmod_RMS_Derivative-OPLS-2005>
1.09940302371979

$$$$
79
                    3D
 Structure written by MMmdl.
152160  0  0  1  0            999 V2000
  -30.6651  -14.5380   20.4757 C   0  0  0  0  0  0
  -30.4244  -12.3082   19.4552 C   0  0  0  0  0  0
  -29.5016  -12.4377   18.2233 C   0  0  0  0  0  0
  -28.0173  -12.3345   18.6285 C   0  0  0  0  0  0
  -27.6546  -13.2080   19.8606 C   0  0  2  0  0  0
  -28.6962  -13.0445   20.9915 C   0  0  0  0  0  0
  -25.2561  -13.8178   20.5675 C   0  0  0  0  0  0
  -24.1824  -13.0455   20.9205 C   0  0  0  0  0  0
  -24.6375  -11.6919   20.8751 C   0  0  0  0  0  0
  -23.9044  -10.4304   21.0410 C   0  0  0  0  0  0
  -24.3603   -9.4220   21.9182 C   0  0  0  0  0  0
  -23.6286   -8.2252   22.0748 C   0  0  0  0  0  0
  -22.4270   -8.0282   21.3542 C   0  0  0  0  0  0
  -21.9902   -9.0250   20.4645 C   0  0  0  0  0  0
  -22.7220  -10.2138   20.3058 C   0  0  0  0  0  0
  -21.6850   -6.0737   22.5285 C   0  0  0  0  0  0
  -21.4008   -6.5643   23.8216 C   0  0  0  0  0  0
  -21.3658   -5.6799   24.9181 C   0  0  0  0  0  0
  -21.6044   -4.3060   24.7233 C   0  0  0  0  0  0
  -21.8809   -3.8153   23.4354 C   0  0  0  0  0  0
  -21.9186   -4.6966   22.3409 C   0  0  0  0  0  0
  -22.7847  -13.5250   21.1876 C   0  0  0  0  0  0
  -22.1654   -4.2150   21.0984 F   0  0  0  0  0  0
  -21.5633   -3.4541   25.7748 F   0  0  0  0  0  0
  -30.0223  -13.3364   20.4290 N   0  0  0  0  0  0
  -26.2981  -12.9343   20.3305 N   0  0  0  0  0  0
  -25.9296  -11.6507   20.5761 N   0  0  0  0  0  0
  -22.0483  -12.8232   22.0426 N   0  0  0  0  0  0
  -25.4269  -15.1903   20.4068 N   0  0  0  0  0  0
  -31.8452  -14.6660   20.1342 O   0  0  0  0  0  0
  -21.6643   -6.8878   21.4245 O   0  0  0  0  0  0
  -22.3534  -14.5562   20.6738 O   0  0  0  0  0  0
  -24.6170  -31.8674   23.2084 C   0  0  0  0  0  0
  -25.9055  -32.4813   23.8392 C   0  0  1  0  0  0
  -27.2274  -27.4061   20.1062 C   0  0  0  0  0  0
  -25.5907  -33.8613   24.2317 N   0  0  0  0  0  0
  -23.4052  -30.4928   21.5500 C   0  0  2  0  0  0
  -24.8504  -28.9596   20.1127 C   0  0  0  0  0  0
  -22.7416  -29.4672   22.4979 C   0  0  0  0  0  0
  -18.0271  -28.1375   22.8489 C   0  0  0  0  0  0
  -24.1489  -36.7314   23.2638 C   0  0  0  0  0  0
  -25.9382  -30.8258   21.3656 C   0  0  0  0  0  0
  -26.0144  -29.4604   20.7088 C   0  0  0  0  0  0
  -27.2068  -28.6942   20.6976 C   0  0  0  0  0  0
  -26.0417  -26.9356   19.4924 C   0  0  0  0  0  0
  -24.8612  -27.6979   19.4987 C   0  0  0  0  0  0
  -23.6128  -29.8270   20.1643 C   0  0  0  0  0  0
  -25.4109  -36.3107   24.0335 C   0  0  1  0  0  0
  -20.5865  -28.3672   23.1300 C   0  0  2  0  0  0
  -20.6768  -26.9407   22.5410 C   0  0  0  0  0  0
  -19.5750  -26.6380   21.5206 C   0  0  0  0  0  0
  -18.1925  -26.7921   22.1616 C   0  0  0  0  0  0
  -19.1522  -28.8839   23.2891 C   0  0  0  0  0  0
  -18.9453  -30.1445   23.8903 C   0  0  0  0  0  0
  -17.6457  -30.6588   24.0559 C   0  0  0  0  0  0
  -25.9037  -34.9470   23.5119 C   0  0  0  0  0  0
  -16.5345  -29.9088   23.6331 C   0  0  0  0  0  0
  -16.7260  -28.6501   23.0354 C   0  0  0  0  0  0
  -26.4466  -31.6600   25.0734 C   0  0  0  0  0  0
  -25.3723  -31.3721   26.1477 C   0  0  0  0  0  0
  -27.0297  -30.3035   24.6137 C   0  0  0  0  0  0
  -27.6044  -32.4321   25.7498 C   0  0  0  0  0  0
  -27.5582  -37.1811   24.8460 C   0  0  0  0  0  0
  -21.4143  -29.3045   22.3710 N   0  0  0  0  0  0
  -26.4293  -37.3791   23.9408 N   0  0  0  0  0  0
  -24.6718  -31.0763   22.0993 N   0  0  0  0  0  0
  -23.4173  -28.8205   23.3027 O   0  0  0  0  0  0
  -28.3747  -26.6259   20.1532 O   0  0  0  0  0  0
  -26.5604  -34.8919   22.4684 O   0  0  0  0  0  0
  -23.5359  -32.1431   23.7474 O   0  0  0  0  0  0
  -29.9439  -18.0237   17.8845 C   0  0  0  0  0  0
  -29.7600  -19.2324   18.5637 C   0  0  0  0  0  0
  -30.0028  -16.8302   18.6157 C   0  0  0  0  0  0
  -29.6438  -19.2426   19.9685 C   0  0  0  0  0  0
  -29.8956  -16.8666   20.0308 C   0  0  0  0  0  0
  -29.0401  -22.8850   21.0030 C   0  0  0  0  0  0
  -29.7819  -21.7407   20.2378 C   0  0  0  0  0  0
  -29.3861  -24.3579   20.6558 C   0  0  0  0  0  0
  -28.1640  -25.1915   20.1867 C   0  0  0  0  0  0
  -29.6867  -18.0648   20.6677 N   0  0  0  0  0  0
  -29.3820  -20.4970   20.6079 N   0  0  0  0  0  0
  -29.8888  -15.6164   20.7451 N   0  0  0  0  0  0
  -28.1968  -22.6314   21.8728 O   0  0  0  0  0  0
  -30.6631  -21.9847   19.4043 O   0  0  0  0  0  0
  -30.1198  -15.6675   17.9353 F   0  0  0  0  0  0
  -31.4704  -12.3984   19.1570 H   0  0  0  0  0  0
  -30.3276  -11.3161   19.8988 H   0  0  0  0  0  0
  -29.7405  -11.6554   17.5011 H   0  0  0  0  0  0
  -29.6829  -13.3790   17.7097 H   0  0  0  0  0  0
  -27.8182  -11.2850   18.8490 H   0  0  0  0  0  0
  -27.3776  -12.5899   17.7827 H   0  0  0  0  0  0
  -27.6827  -14.2443   19.5238 H   0  0  0  0  0  0
  -28.6786  -12.0271   21.3849 H   0  0  0  0  0  0
  -28.4642  -13.6946   21.8364 H   0  0  0  0  0  0
  -25.2745   -9.5707   22.4752 H   0  0  0  0  0  0
  -24.0002   -7.4646   22.7464 H   0  0  0  0  0  0
  -21.0833   -8.8755   19.8949 H   0  0  0  0  0  0
  -22.3665  -10.9672   19.6163 H   0  0  0  0  0  0
  -21.1990   -7.6148   23.9721 H   0  0  0  0  0  0
  -21.1492   -6.0532   25.9085 H   0  0  0  0  0  0
  -22.0587   -2.7615   23.2855 H   0  0  0  0  0  0
  -22.4092  -11.9874   22.4784 H   0  0  0  0  0  0
  -21.1097  -13.1249   22.2638 H   0  0  0  0  0  0
  -24.6578  -15.8419   20.5197 H   0  0  0  0  0  0
  -26.2654  -15.6308   20.0518 H   0  0  0  0  0  0
  -26.7130  -32.5500   23.1159 H   0  0  0  0  0  0
  -25.0056  -33.9782   25.0459 H   0  0  0  0  0  0
  -22.6950  -31.3104   21.4112 H   0  0  0  0  0  0
  -23.3743  -35.9654   23.3302 H   0  0  0  0  0  0
  -24.3587  -36.8928   22.2053 H   0  0  0  0  0  0
  -23.7248  -37.6521   23.6652 H   0  0  0  0  0  0
  -26.0583  -31.5931   20.5990 H   0  0  0  0  0  0
  -26.8231  -30.8733   21.9885 H   0  0  0  0  0  0
  -28.1015  -29.0762   21.1690 H   0  0  0  0  0  0
  -26.0022  -25.9731   19.0056 H   0  0  0  0  0  0
  -23.9677  -27.3056   19.0329 H   0  0  0  0  0  0
  -23.7174  -30.6015   19.4036 H   0  0  0  0  0  0
  -22.7360  -29.2466   19.8713 H   0  0  0  0  0  0
  -25.1287  -36.1975   25.0829 H   0  0  0  0  0  0
  -20.9956  -28.3240   24.1420 H   0  0  0  0  0  0
  -20.5667  -26.2284   23.3601 H   0  0  0  0  0  0
  -21.6641  -26.7448   22.1207 H   0  0  0  0  0  0
  -19.6918  -25.6288   21.1244 H   0  0  0  0  0  0
  -19.6693  -27.3187   20.6731 H   0  0  0  0  0  0
  -17.4197  -26.6658   21.4018 H   0  0  0  0  0  0
  -18.0331  -26.0058   22.9010 H   0  0  0  0  0  0
  -19.7930  -30.7259   24.2271 H   0  0  0  0  0  0
  -17.5013  -31.6270   24.5159 H   0  0  0  0  0  0
  -15.5348  -30.2998   23.7654 H   0  0  0  0  0  0
  -15.8652  -28.0826   22.7076 H   0  0  0  0  0  0
  -24.5891  -30.7076   25.7810 H   0  0  0  0  0  0
  -24.8921  -32.2883   26.4925 H   0  0  0  0  0  0
  -25.8066  -30.8887   27.0235 H   0  0  0  0  0  0
  -26.2859  -29.6807   24.1152 H   0  0  0  0  0  0
  -27.4006  -29.7267   25.4620 H   0  0  0  0  0  0
  -27.8718  -30.4339   23.9335 H   0  0  0  0  0  0
  -27.2664  -33.3609   26.2103 H   0  0  0  0  0  0
  -28.3839  -32.6898   25.0316 H   0  0  0  0  0  0
  -28.0721  -31.8423   26.5390 H   0  0  0  0  0  0
  -28.2597  -38.0109   24.7509 H   0  0  0  0  0  0
  -28.1081  -36.2644   24.6282 H   0  0  0  0  0  0
  -27.2301  -37.1456   25.8861 H   0  0  0  0  0  0
  -20.9301  -29.8775   21.6942 H   0  0  0  0  0  0
  -26.0180  -38.2869   24.1402 H   0  0  0  0  0  0
  -30.0128  -18.0095   16.8073 H   0  0  0  0  0  0
  -29.6853  -20.1385   17.9800 H   0  0  0  0  0  0
  -30.1708  -24.3930   19.9008 H   0  0  0  0  0  0
  -29.8043  -24.8078   21.5553 H   0  0  0  0  0  0
  -27.3237  -24.9737   20.8498 H   0  0  0  0  0  0
  -27.8834  -24.8480   19.1904 H   0  0  0  0  0  0
  -28.7691  -20.4803   21.4116 H   0  0  0  0  0  0
  -29.0267  -15.4128   21.2234 H   0  0  0  0  0  0
  1 25  1  0  0  0
  1 30  2  0  0  0
  1 82  1  0  0  0
  2  3  1  0  0  0
  2 25  1  0  0  0
  2 86  1  0  0  0
  2 87  1  0  0  0
  3  4  1  0  0  0
  3 88  1  0  0  0
  3 89  1  0  0  0
  4  5  1  0  0  0
  4 90  1  0  0  0
  4 91  1  0  0  0
  5  6  1  0  0  0
  5 26  1  0  0  0
  5 92  1  0  0  0
  6 25  1  0  0  0
  6 93  1  0  0  0
  6 94  1  0  0  0
  7  8  2  0  0  0
  7 26  1  0  0  0
  7 29  1  0  0  0
  8  9  1  0  0  0
  8 22  1  0  0  0
  9 10  1  0  0  0
  9 27  2  0  0  0
 10 11  2  0  0  0
 10 15  1  0  0  0
 11 12  1  0  0  0
 11 95  1  0  0  0
 12 13  2  0  0  0
 12 96  1  0  0  0
 13 14  1  0  0  0
 13 31  1  0  0  0
 14 15  2  0  0  0
 14 97  1  0  0  0
 15 98  1  0  0  0
 16 17  2  0  0  0
 16 21  1  0  0  0
 16 31  1  0  0  0
 17 18  1  0  0  0
 17 99  1  0  0  0
 18 19  2  0  0  0
 18100  1  0  0  0
 19 20  1  0  0  0
 19 24  1  0  0  0
 20 21  2  0  0  0
 20101  1  0  0  0
 21 23  1  0  0  0
 22 28  1  0  0  0
 22 32  2  0  0  0
 26 27  1  0  0  0
 28102  1  0  0  0
 28103  1  0  0  0
 29104  1  0  0  0
 29105  1  0  0  0
 33 34  1  0  0  0
 33 66  1  0  0  0
 33 70  2  0  0  0
 34 36  1  0  0  0
 34 59  1  0  0  0
 34106  1  0  0  0
 35 44  2  0  0  0
 35 45  1  0  0  0
 35 68  1  0  0  0
 36 56  1  0  0  0
 36107  1  0  0  0
 37 39  1  0  0  0
 37 47  1  0  0  0
 37 66  1  0  0  0
 37108  1  0  0  0
 38 43  2  0  0  0
 38 46  1  0  0  0
 38 47  1  0  0  0
 39 64  1  0  0  0
 39 67  2  0  0  0
 40 52  1  0  0  0
 40 53  2  0  0  0
 40 58  1  0  0  0
 41109  1  0  0  0
 41110  1  0  0  0
 41111  1  0  0  0
 41 48  1  0  0  0
 42 43  1  0  0  0
 42 66  1  0  0  0
 42112  1  0  0  0
 42113  1  0  0  0
 43 44  1  0  0  0
 44114  1  0  0  0
 45 46  2  0  0  0
 45115  1  0  0  0
 46116  1  0  0  0
 47117  1  0  0  0
 47118  1  0  0  0
 48 56  1  0  0  0
 48 65  1  0  0  0
 48119  1  0  0  0
 49 50  1  0  0  0
 49 53  1  0  0  0
 49 64  1  0  0  0
 49120  1  0  0  0
 50 51  1  0  0  0
 50121  1  0  0  0
 50122  1  0  0  0
 51 52  1  0  0  0
 51123  1  0  0  0
 51124  1  0  0  0
 52125  1  0  0  0
 52126  1  0  0  0
 53 54  1  0  0  0
 54 55  2  0  0  0
 54127  1  0  0  0
 55 57  1  0  0  0
 55128  1  0  0  0
 56 69  2  0  0  0
 57 58  2  0  0  0
 57129  1  0  0  0
 58130  1  0  0  0
 59 60  1  0  0  0
 59 61  1  0  0  0
 59 62  1  0  0  0
 60131  1  0  0  0
 60132  1  0  0  0
 60133  1  0  0  0
 61134  1  0  0  0
 61135  1  0  0  0
 61136  1  0  0  0
 62137  1  0  0  0
 62138  1  0  0  0
 62139  1  0  0  0
 63 65  1  0  0  0
 63140  1  0  0  0
 63141  1  0  0  0
 63142  1  0  0  0
 64143  1  0  0  0
 65144  1  0  0  0
 68 79  1  0  0  0
 71 72  2  0  0  0
 71 73  1  0  0  0
 71145  1  0  0  0
 72 74  1  0  0  0
 72146  1  0  0  0
 73 75  2  0  0  0
 73 85  1  0  0  0
 74 80  2  0  0  0
 74 81  1  0  0  0
 75 80  1  0  0  0
 75 82  1  0  0  0
 76 77  1  0  0  0
 76 78  1  0  0  0
 76 83  2  0  0  0
 77 81  1  0  0  0
 77 84  2  0  0  0
 78 79  1  0  0  0
 78147  1  0  0  0
 78148  1  0  0  0
 79149  1  0  0  0
 79150  1  0  0  0
 81151  1  0  0  0
 82152  1  0  0  0
M  ISO  4   1 100  68 101  79 101  82 100
M  END
> <chiral flag>
0

> <version>
0

> <s_m_source_file>
/data/baiqing/PycharmProjects/Reinvent-master-3.2/result/LINK_invent/BTK/process_docking_weight1_custom_product_contain_oxygen_bond_distance_aromatic_linkinvent_7_9_3/rearranged_h_0178.sdf

> <i_m_source_file_index>
80

> <r_mmod_Potential_Energy-OPLS-2005>
-208.522613525391

> <r_mmod_Stretch_Energy-OPLS-2005>
47.634693145752

> <r_mmod_Bend_Energy-OPLS-2005>
100.887825012207

> <r_mmod_Torsional_Energy-OPLS-2005>
268.120330810547

> <r_mmod_Improper_Torsional_Energy-OPLS-2005>
6.27295684814453

> <r_mmod_Van_der_Waal_Energy-OPLS-2005>
165.951751708984

> <r_mmod_Electrostatic_Energy-OPLS-2005>
-582.187133789062

> <r_mmod_Solvation_Energy-OPLS-2005>
-240.539688110352

> <b_mmod_Minimization_Converged-OPLS-2005>
0

> <r_mmod_RMS_Derivative-OPLS-2005>
1.29048037528992

$$$$
80
                    3D
 Structure written by MMmdl.
156164  0  0  1  0            999 V2000
  -30.6576  -14.5594   20.5287 C   0  0  0  0  0  0
  -30.4379  -12.3542   19.4378 C   0  0  0  0  0  0
  -29.5056  -12.4969   18.2182 C   0  0  0  0  0  0
  -28.0261  -12.3409   18.6344 C   0  0  0  0  0  0
  -27.6516  -13.2101   19.8639 C   0  0  2  0  0  0
  -28.6992  -13.0595   20.9928 C   0  0  0  0  0  0
  -25.2525  -13.8174   20.5692 C   0  0  0  0  0  0
  -24.1791  -13.0442   20.9202 C   0  0  0  0  0  0
  -24.6375  -11.6922   20.8805 C   0  0  0  0  0  0
  -23.9074  -10.4300   21.0461 C   0  0  0  0  0  0
  -24.3615   -9.4193   21.9220 C   0  0  0  0  0  0
  -23.6270   -8.2238   22.0767 C   0  0  0  0  0  0
  -22.4249   -8.0297   21.3555 C   0  0  0  0  0  0
  -21.9929   -9.0290   20.4668 C   0  0  0  0  0  0
  -22.7278  -10.2148   20.3090 C   0  0  0  0  0  0
  -21.6834   -6.0751   22.5283 C   0  0  0  0  0  0
  -21.4033   -6.5640   23.8227 C   0  0  0  0  0  0
  -21.3672   -5.6771   24.9160 C   0  0  0  0  0  0
  -21.6029   -4.3035   24.7222 C   0  0  0  0  0  0
  -21.8806   -3.8155   23.4336 C   0  0  0  0  0  0
  -21.9183   -4.6980   22.3394 C   0  0  0  0  0  0
  -22.7821  -13.5261   21.1836 C   0  0  0  0  0  0
  -22.1634   -4.2169   21.0966 F   0  0  0  0  0  0
  -21.5635   -3.4518   25.7739 F   0  0  0  0  0  0
  -30.0152  -13.3689   20.4116 N   0  0  0  0  0  0
  -26.2956  -12.9363   20.3333 N   0  0  0  0  0  0
  -25.9293  -11.6527   20.5810 N   0  0  0  0  0  0
  -22.0388  -12.8336   22.0396 N   0  0  0  0  0  0
  -25.4191  -15.1905   20.4118 N   0  0  0  0  0  0
  -31.8472  -14.7026   20.2262 O   0  0  0  0  0  0
  -21.6604   -6.8894   21.4242 O   0  0  0  0  0  0
  -22.3566  -14.5554   20.6631 O   0  0  0  0  0  0
  -24.6249  -31.8665   23.2115 C   0  0  0  0  0  0
  -25.9121  -32.4807   23.8416 C   0  0  1  0  0  0
  -27.2099  -27.3696   20.1074 C   0  0  0  0  0  0
  -25.5984  -33.8612   24.2356 N   0  0  0  0  0  0
  -23.4112  -30.4966   21.5524 C   0  0  2  0  0  0
  -24.8562  -28.9702   20.1040 C   0  0  0  0  0  0
  -22.7463  -29.4655   22.4941 C   0  0  0  0  0  0
  -18.0294  -28.1373   22.8484 C   0  0  0  0  0  0
  -24.1490  -36.7310   23.2612 C   0  0  0  0  0  0
  -25.9524  -30.8145   21.3744 C   0  0  0  0  0  0
  -26.0260  -29.4520   20.7076 C   0  0  0  0  0  0
  -27.2097  -28.6627   20.7003 C   0  0  0  0  0  0
  -26.0210  -26.9411   19.4672 C   0  0  0  0  0  0
  -24.8549  -27.7194   19.4747 C   0  0  0  0  0  0
  -23.6229  -29.8431   20.1630 C   0  0  0  0  0  0
  -25.4105  -36.3102   24.0316 C   0  0  1  0  0  0
  -20.5885  -28.3678   23.1261 C   0  0  2  0  0  0
  -20.6797  -26.9400   22.5388 C   0  0  0  0  0  0
  -19.5775  -26.6369   21.5202 C   0  0  0  0  0  0
  -18.1950  -26.7929   22.1607 C   0  0  0  0  0  0
  -19.1542  -28.8844   23.2882 C   0  0  0  0  0  0
  -18.9457  -30.1443   23.8889 C   0  0  0  0  0  0
  -17.6457  -30.6576   24.0554 C   0  0  0  0  0  0
  -25.9048  -34.9463   23.5138 C   0  0  0  0  0  0
  -16.5347  -29.9068   23.6315 C   0  0  0  0  0  0
  -16.7281  -28.6486   23.0340 C   0  0  0  0  0  0
  -26.4534  -31.6598   25.0753 C   0  0  0  0  0  0
  -25.3796  -31.3724   26.1498 C   0  0  0  0  0  0
  -27.0348  -30.3016   24.6148 C   0  0  0  0  0  0
  -27.6084  -32.4324   25.7533 C   0  0  0  0  0  0
  -27.5583  -37.1804   24.8447 C   0  0  0  0  0  0
  -21.4178  -29.3053   22.3679 N   0  0  0  0  0  0
  -26.4295  -37.3781   23.9399 N   0  0  0  0  0  0
  -24.6823  -31.0721   22.1043 N   0  0  0  0  0  0
  -23.4208  -28.8165   23.2975 O   0  0  0  0  0  0
  -28.3129  -26.5167   20.1871 O   0  0  0  0  0  0
  -26.5530  -34.8925   22.4646 O   0  0  0  0  0  0
  -23.5430  -32.1409   23.7486 O   0  0  0  0  0  0
  -30.6299  -18.6668   22.9219 C   0  0  0  0  0  0
  -29.7941  -19.0766   21.9064 C   0  0  0  0  0  0
  -30.1347  -16.8745   21.3091 C   0  0  0  0  0  0
  -28.4151  -22.6466   21.0689 C   0  0  0  0  0  0
  -31.1067  -19.4723   24.0916 C   0  0  0  0  0  0
  -30.3992  -21.4534   19.9152 C   0  0  0  0  0  0
  -29.0340  -24.0358   20.6891 C   0  0  0  0  0  0
  -27.9876  -25.0856   20.1850 C   0  0  0  0  0  0
  -29.0753  -21.2682   20.6699 C   0  0  1  0  0  0
  -29.5097  -18.0352   20.9935 N   0  0  0  0  0  0
  -29.2540  -20.3939   21.8447 N   0  0  0  0  0  0
  -29.8418  -15.6327   20.6697 N   0  0  0  0  0  0
  -27.3845  -22.6409   21.7473 O   0  0  0  0  0  0
  -31.1648  -17.0120   22.7240 S   0  0  0  0  0  0
  -31.4800  -12.4750   19.1373 H   0  0  0  0  0  0
  -30.3650  -11.3611   19.8832 H   0  0  0  0  0  0
  -29.7618  -11.7538   17.4622 H   0  0  0  0  0  0
  -29.6537  -13.4687   17.7458 H   0  0  0  0  0  0
  -27.8608  -11.2900   18.8734 H   0  0  0  0  0  0
  -27.3711  -12.5729   17.7924 H   0  0  0  0  0  0
  -27.6726  -14.2456   19.5247 H   0  0  0  0  0  0
  -28.6970  -12.0510   21.4088 H   0  0  0  0  0  0
  -28.4691  -13.7215   21.8302 H   0  0  0  0  0  0
  -25.2750   -9.5655   22.4821 H   0  0  0  0  0  0
  -23.9954   -7.4644   22.7516 H   0  0  0  0  0  0
  -21.0855   -8.8866   19.9017 H   0  0  0  0  0  0
  -22.3760  -10.9705   19.6225 H   0  0  0  0  0  0
  -21.2023   -7.6152   23.9744 H   0  0  0  0  0  0
  -21.1505   -6.0489   25.9062 H   0  0  0  0  0  0
  -22.0575   -2.7634   23.2806 H   0  0  0  0  0  0
  -22.3895  -12.0002   22.4882 H   0  0  0  0  0  0
  -21.1044  -13.1531   22.2533 H   0  0  0  0  0  0
  -24.6460  -15.8366   20.5237 H   0  0  0  0  0  0
  -26.2490  -15.6407   20.0528 H   0  0  0  0  0  0
  -26.7172  -32.5513   23.1154 H   0  0  0  0  0  0
  -25.0322  -33.9815   25.0630 H   0  0  0  0  0  0
  -22.7009  -31.3165   21.4187 H   0  0  0  0  0  0
  -23.3779  -35.9626   23.3264 H   0  0  0  0  0  0
  -24.3591  -36.8939   22.2035 H   0  0  0  0  0  0
  -23.7241  -37.6501   23.6646 H   0  0  0  0  0  0
  -26.0750  -31.5847   20.6135 H   0  0  0  0  0  0
  -26.8359  -30.8594   21.9977 H   0  0  0  0  0  0
  -28.1093  -29.0279   21.1794 H   0  0  0  0  0  0
  -25.9519  -25.9832   18.9701 H   0  0  0  0  0  0
  -23.9593  -27.3505   18.9924 H   0  0  0  0  0  0
  -23.7348  -30.6253   19.4121 H   0  0  0  0  0  0
  -22.7433  -29.2674   19.8600 H   0  0  0  0  0  0
  -25.1287  -36.1952   25.0803 H   0  0  0  0  0  0
  -20.9984  -28.3271   24.1372 H   0  0  0  0  0  0
  -20.5725  -26.2281   23.3588 H   0  0  0  0  0  0
  -21.6674  -26.7470   22.1156 H   0  0  0  0  0  0
  -19.6948  -25.6276   21.1244 H   0  0  0  0  0  0
  -19.6729  -27.3169   20.6726 H   0  0  0  0  0  0
  -17.4225  -26.6658   21.4005 H   0  0  0  0  0  0
  -18.0347  -26.0069   22.8993 H   0  0  0  0  0  0
  -19.7924  -30.7274   24.2248 H   0  0  0  0  0  0
  -17.5006  -31.6259   24.5166 H   0  0  0  0  0  0
  -15.5349  -30.2971   23.7665 H   0  0  0  0  0  0
  -15.8672  -28.0829   22.7032 H   0  0  0  0  0  0
  -24.5973  -30.7042   25.7863 H   0  0  0  0  0  0
  -24.8999  -32.2903   26.4917 H   0  0  0  0  0  0
  -25.8174  -30.8931   27.0272 H   0  0  0  0  0  0
  -26.2887  -29.6774   24.1200 H   0  0  0  0  0  0
  -27.4092  -29.7235   25.4618 H   0  0  0  0  0  0
  -27.8762  -30.4295   23.9319 H   0  0  0  0  0  0
  -27.2675  -33.3617   26.2113 H   0  0  0  0  0  0
  -28.3924  -32.6894   25.0393 H   0  0  0  0  0  0
  -28.0729  -31.8454   26.5471 H   0  0  0  0  0  0
  -28.2567  -38.0129   24.7541 H   0  0  0  0  0  0
  -28.1121  -36.2671   24.6234 H   0  0  0  0  0  0
  -27.2309  -37.1395   25.8846 H   0  0  0  0  0  0
  -20.9328  -29.8796   21.6919 H   0  0  0  0  0  0
  -26.0189  -38.2845   24.1451 H   0  0  0  0  0  0
  -30.2924  -20.0451   24.5339 H   0  0  0  0  0  0
  -31.8803  -20.1783   23.7855 H   0  0  0  0  0  0
  -31.5188  -18.8340   24.8754 H   0  0  0  0  0  0
  -30.2524  -22.0213   18.9957 H   0  0  0  0  0  0
  -30.8192  -20.4895   19.6226 H   0  0  0  0  0  0
  -31.1375  -21.9732   20.5292 H   0  0  0  0  0  0
  -29.8286  -23.9294   19.9544 H   0  0  0  0  0  0
  -29.5100  -24.4133   21.5939 H   0  0  0  0  0  0
  -27.0814  -24.9480   20.7776 H   0  0  0  0  0  0
  -27.7429  -24.7984   19.1625 H   0  0  0  0  0  0
  -28.3816  -20.7534   20.0033 H   0  0  0  0  0  0
  -29.3201  -20.9121   22.7139 H   0  0  0  0  0  0
  -28.8657  -15.4591   20.4951 H   0  0  0  0  0  0
  1 25  1  0  0  0
  1 30  2  0  0  0
  1 82  1  0  0  0
  2  3  1  0  0  0
  2 25  1  0  0  0
  2 85  1  0  0  0
  2 86  1  0  0  0
  3  4  1  0  0  0
  3 87  1  0  0  0
  3 88  1  0  0  0
  4  5  1  0  0  0
  4 89  1  0  0  0
  4 90  1  0  0  0
  5  6  1  0  0  0
  5 26  1  0  0  0
  5 91  1  0  0  0
  6 25  1  0  0  0
  6 92  1  0  0  0
  6 93  1  0  0  0
  7  8  2  0  0  0
  7 26  1  0  0  0
  7 29  1  0  0  0
  8  9  1  0  0  0
  8 22  1  0  0  0
  9 10  1  0  0  0
  9 27  2  0  0  0
 10 11  2  0  0  0
 10 15  1  0  0  0
 11 12  1  0  0  0
 11 94  1  0  0  0
 12 13  2  0  0  0
 12 95  1  0  0  0
 13 14  1  0  0  0
 13 31  1  0  0  0
 14 15  2  0  0  0
 14 96  1  0  0  0
 15 97  1  0  0  0
 16 17  2  0  0  0
 16 21  1  0  0  0
 16 31  1  0  0  0
 17 18  1  0  0  0
 17 98  1  0  0  0
 18 19  2  0  0  0
 18 99  1  0  0  0
 19 20  1  0  0  0
 19 24  1  0  0  0
 20 21  2  0  0  0
 20100  1  0  0  0
 21 23  1  0  0  0
 22 28  1  0  0  0
 22 32  2  0  0  0
 26 27  1  0  0  0
 28101  1  0  0  0
 28102  1  0  0  0
 29103  1  0  0  0
 29104  1  0  0  0
 33 34  1  0  0  0
 33 66  1  0  0  0
 33 70  2  0  0  0
 34 36  1  0  0  0
 34 59  1  0  0  0
 34105  1  0  0  0
 35 44  2  0  0  0
 35 45  1  0  0  0
 35 68  1  0  0  0
 36 56  1  0  0  0
 36106  1  0  0  0
 37 39  1  0  0  0
 37 47  1  0  0  0
 37 66  1  0  0  0
 37107  1  0  0  0
 38 43  2  0  0  0
 38 46  1  0  0  0
 38 47  1  0  0  0
 39 64  1  0  0  0
 39 67  2  0  0  0
 40 52  1  0  0  0
 40 53  2  0  0  0
 40 58  1  0  0  0
 41108  1  0  0  0
 41109  1  0  0  0
 41110  1  0  0  0
 41 48  1  0  0  0
 42 43  1  0  0  0
 42 66  1  0  0  0
 42111  1  0  0  0
 42112  1  0  0  0
 43 44  1  0  0  0
 44113  1  0  0  0
 45 46  2  0  0  0
 45114  1  0  0  0
 46115  1  0  0  0
 47116  1  0  0  0
 47117  1  0  0  0
 48 56  1  0  0  0
 48 65  1  0  0  0
 48118  1  0  0  0
 49 50  1  0  0  0
 49 53  1  0  0  0
 49 64  1  0  0  0
 49119  1  0  0  0
 50 51  1  0  0  0
 50120  1  0  0  0
 50121  1  0  0  0
 51 52  1  0  0  0
 51122  1  0  0  0
 51123  1  0  0  0
 52124  1  0  0  0
 52125  1  0  0  0
 53 54  1  0  0  0
 54 55  2  0  0  0
 54126  1  0  0  0
 55 57  1  0  0  0
 55127  1  0  0  0
 56 69  2  0  0  0
 57 58  2  0  0  0
 57128  1  0  0  0
 58129  1  0  0  0
 59 60  1  0  0  0
 59 61  1  0  0  0
 59 62  1  0  0  0
 60130  1  0  0  0
 60131  1  0  0  0
 60132  1  0  0  0
 61133  1  0  0  0
 61134  1  0  0  0
 61135  1  0  0  0
 62136  1  0  0  0
 62137  1  0  0  0
 62138  1  0  0  0
 63 65  1  0  0  0
 63139  1  0  0  0
 63140  1  0  0  0
 63141  1  0  0  0
 64142  1  0  0  0
 65143  1  0  0  0
 68 78  1  0  0  0
 71 72  2  0  0  0
 71 75  1  0  0  0
 71 84  1  0  0  0
 72 80  1  0  0  0
 72 81  1  0  0  0
 73 80  2  0  0  0
 73 82  1  0  0  0
 73 84  1  0  0  0
 74 77  1  0  0  0
 74 79  1  0  0  0
 74 83  2  0  0  0
 75144  1  0  0  0
 75145  1  0  0  0
 75146  1  0  0  0
 76147  1  0  0  0
 76148  1  0  0  0
 76149  1  0  0  0
 76 79  1  0  0  0
 77 78  1  0  0  0
 77150  1  0  0  0
 77151  1  0  0  0
 78152  1  0  0  0
 78153  1  0  0  0
 79 81  1  0  0  0
 79154  1  0  0  0
 81155  1  0  0  0
 82156  1  0  0  0
M  ISO  4   1 100  68 101  78 101  82 100
M  END
> <chiral flag>
0

> <version>
0

> <s_m_source_file>
/data/baiqing/PycharmProjects/Reinvent-master-3.2/result/LINK_invent/BTK/process_docking_weight1_custom_product_contain_oxygen_bond_distance_aromatic_linkinvent_7_9_3/rearranged_h_0178.sdf

> <i_m_source_file_index>
81

> <r_mmod_Potential_Energy-OPLS-2005>
-125.102981567383

> <r_mmod_Stretch_Energy-OPLS-2005>
50.6741676330566

> <r_mmod_Bend_Energy-OPLS-2005>
119.648307800293

> <r_mmod_Torsional_Energy-OPLS-2005>
240.66096496582

> <r_mmod_Improper_Torsional_Energy-OPLS-2005>
11.1406135559082

> <r_mmod_Van_der_Waal_Energy-OPLS-2005>
133.159484863281

> <r_mmod_Electrostatic_Energy-OPLS-2005>
-486.994049072266

> <r_mmod_Solvation_Energy-OPLS-2005>
-229.920547485352

> <b_mmod_Minimization_Converged-OPLS-2005>
0

> <r_mmod_RMS_Derivative-OPLS-2005>
4.57236337661743

$$$$
81
                    3D
 Structure written by MMmdl.
162170  0  0  1  0            999 V2000
  -30.7770  -14.4912   20.4820 C   0  0  0  0  0  0
  -30.3887  -12.3005   19.4543 C   0  0  0  0  0  0
  -29.4884  -12.4706   18.2149 C   0  0  0  0  0  0
  -28.0069  -12.3531   18.6161 C   0  0  0  0  0  0
  -27.6454  -13.2247   19.8484 C   0  0  2  0  0  0
  -28.6856  -13.0822   20.9732 C   0  0  0  0  0  0
  -25.2538  -13.8226   20.5683 C   0  0  0  0  0  0
  -24.1804  -13.0472   20.9178 C   0  0  0  0  0  0
  -24.6378  -11.6954   20.8725 C   0  0  0  0  0  0
  -23.9064  -10.4324   21.0402 C   0  0  0  0  0  0
  -24.3626   -9.4238   21.9181 C   0  0  0  0  0  0
  -23.6301   -8.2272   22.0751 C   0  0  0  0  0  0
  -22.4287   -8.0300   21.3542 C   0  0  0  0  0  0
  -21.9927   -9.0271   20.4643 C   0  0  0  0  0  0
  -22.7247  -10.2155   20.3048 C   0  0  0  0  0  0
  -21.6865   -6.0740   22.5278 C   0  0  0  0  0  0
  -21.4020   -6.5634   23.8217 C   0  0  0  0  0  0
  -21.3659   -5.6788   24.9174 C   0  0  0  0  0  0
  -21.6046   -4.3049   24.7226 C   0  0  0  0  0  0
  -21.8817   -3.8144   23.4350 C   0  0  0  0  0  0
  -21.9197   -4.6967   22.3401 C   0  0  0  0  0  0
  -22.7832  -13.5266   21.1837 C   0  0  0  0  0  0
  -22.1657   -4.2149   21.0982 F   0  0  0  0  0  0
  -21.5637   -3.4533   25.7740 F   0  0  0  0  0  0
  -30.0142  -13.3584   20.4163 N   0  0  0  0  0  0
  -26.2945  -12.9414   20.3283 N   0  0  0  0  0  0
  -25.9296  -11.6561   20.5725 N   0  0  0  0  0  0
  -22.0485  -12.8247   22.0397 N   0  0  0  0  0  0
  -25.4280  -15.1933   20.4128 N   0  0  0  0  0  0
  -31.9797  -14.3988   20.2312 O   0  0  0  0  0  0
  -21.6650   -6.8895   21.4248 O   0  0  0  0  0  0
  -22.3522  -14.5579   20.6701 O   0  0  0  0  0  0
  -24.6129  -31.8682   23.2098 C   0  0  0  0  0  0
  -25.9023  -32.4811   23.8388 C   0  0  1  0  0  0
  -27.2231  -27.4247   20.1080 C   0  0  0  0  0  0
  -25.5897  -33.8619   24.2335 N   0  0  0  0  0  0
  -23.4010  -30.4902   21.5528 C   0  0  2  0  0  0
  -24.8438  -28.9550   20.1132 C   0  0  0  0  0  0
  -22.7420  -29.4650   22.5022 C   0  0  0  0  0  0
  -18.0273  -28.1371   22.8485 C   0  0  0  0  0  0
  -24.1490  -36.7288   23.2633 C   0  0  0  0  0  0
  -25.9270  -30.8318   21.3593 C   0  0  0  0  0  0
  -26.0017  -29.4665   20.7080 C   0  0  0  0  0  0
  -27.1952  -28.7111   20.6954 C   0  0  0  0  0  0
  -26.0501  -26.9312   19.4947 C   0  0  0  0  0  0
  -24.8643  -27.6918   19.4978 C   0  0  0  0  0  0
  -23.6051  -29.8196   20.1666 C   0  0  0  0  0  0
  -25.4117  -36.3120   24.0330 C   0  0  1  0  0  0
  -20.5860  -28.3661   23.1327 C   0  0  2  0  0  0
  -20.6765  -26.9391   22.5431 C   0  0  0  0  0  0
  -19.5757  -26.6380   21.5211 C   0  0  0  0  0  0
  -18.1929  -26.7906   22.1602 C   0  0  0  0  0  0
  -19.1520  -28.8827   23.2888 C   0  0  0  0  0  0
  -18.9451  -30.1433   23.8891 C   0  0  0  0  0  0
  -17.6450  -30.6571   24.0548 C   0  0  0  0  0  0
  -25.9036  -34.9471   23.5131 C   0  0  0  0  0  0
  -16.5349  -29.9065   23.6311 C   0  0  0  0  0  0
  -16.7261  -28.6481   23.0336 C   0  0  0  0  0  0
  -26.4471  -31.6581   25.0705 C   0  0  0  0  0  0
  -25.3766  -31.3660   26.1465 C   0  0  0  0  0  0
  -27.0289  -30.3031   24.6040 C   0  0  0  0  0  0
  -27.6053  -32.4305   25.7467 C   0  0  0  0  0  0
  -27.5581  -37.1820   24.8460 C   0  0  0  0  0  0
  -21.4147  -29.3052   22.3771 N   0  0  0  0  0  0
  -26.4305  -37.3810   23.9391 N   0  0  0  0  0  0
  -24.6649  -31.0788   22.1000 N   0  0  0  0  0  0
  -23.4190  -28.8168   23.3045 O   0  0  0  0  0  0
  -28.4041  -26.7134   20.1619 O   0  0  0  0  0  0
  -26.5596  -34.8909   22.4699 O   0  0  0  0  0  0
  -23.5323  -32.1421   23.7506 O   0  0  0  0  0  0
  -28.6852  -16.1348   22.5338 C   0  0  0  0  0  0
  -29.0381  -16.4235   21.2325 C   0  0  0  0  0  0
  -27.6836  -18.2177   21.7194 C   0  0  0  0  0  0
  -27.0255  -21.9203   21.3773 C   0  0  0  0  0  0
  -27.5524  -20.6339   22.0750 C   0  0  0  0  0  0
  -30.5816  -17.7412   18.4443 C   0  0  0  0  0  0
  -31.4069  -16.8604   21.0831 C   0  0  0  0  0  0
  -28.0804  -22.9170   20.8582 C   0  0  0  0  0  0
  -30.1359  -16.3338   18.9116 C   0  0  0  0  0  0
  -27.7235  -24.4262   20.9844 C   0  0  0  0  0  0
  -28.4225  -25.2995   19.9088 C   0  0  0  0  0  0
  -30.2762  -15.9927   20.4453 C   0  0  2  0  0  0
  -28.3843  -17.5866   20.7819 N   0  0  0  0  0  0
  -27.1632  -19.5046   21.4563 N   0  0  0  0  0  0
  -25.8180  -22.1200   21.2004 O   0  0  0  0  0  0
  -28.2457  -20.6821   23.0986 O   0  0  0  0  0  0
  -27.6019  -17.3265   23.2295 S   0  0  0  0  0  0
  -31.4387  -12.3207   19.1553 H   0  0  0  0  0  0
  -30.2405  -11.3179   19.9053 H   0  0  0  0  0  0
  -29.7309  -11.7112   17.4697 H   0  0  0  0  0  0
  -29.6717  -13.4348   17.7389 H   0  0  0  0  0  0
  -27.8112  -11.3027   18.8322 H   0  0  0  0  0  0
  -27.3615  -12.6065   17.7731 H   0  0  0  0  0  0
  -27.6714  -14.2628   19.5160 H   0  0  0  0  0  0
  -28.6627  -12.0684   21.3761 H   0  0  0  0  0  0
  -28.4363  -13.7222   21.8121 H   0  0  0  0  0  0
  -25.2781   -9.5714   22.4741 H   0  0  0  0  0  0
  -24.0016   -7.4668   22.7463 H   0  0  0  0  0  0
  -21.0868   -8.8785   19.8936 H   0  0  0  0  0  0
  -22.3716  -10.9685   19.6139 H   0  0  0  0  0  0
  -21.2010   -7.6146   23.9723 H   0  0  0  0  0  0
  -21.1475   -6.0513   25.9082 H   0  0  0  0  0  0
  -22.0596   -2.7606   23.2845 H   0  0  0  0  0  0
  -22.4123  -11.9915   22.4773 H   0  0  0  0  0  0
  -21.1083  -13.1226   22.2587 H   0  0  0  0  0  0
  -24.6697  -15.8547   20.5403 H   0  0  0  0  0  0
  -26.3028  -15.6360   20.1568 H   0  0  0  0  0  0
  -26.7099  -32.5508   23.1155 H   0  0  0  0  0  0
  -25.0084  -33.9800   25.0494 H   0  0  0  0  0  0
  -22.6885  -31.3055   21.4163 H   0  0  0  0  0  0
  -23.3754  -35.9615   23.3324 H   0  0  0  0  0  0
  -24.3577  -36.8874   22.2042 H   0  0  0  0  0  0
  -23.7208  -37.6494   23.6615 H   0  0  0  0  0  0
  -26.0362  -31.5965   20.5884 H   0  0  0  0  0  0
  -26.8189  -30.8884   21.9725 H   0  0  0  0  0  0
  -28.0935  -29.1014   21.1531 H   0  0  0  0  0  0
  -26.0309  -25.9652   19.0106 H   0  0  0  0  0  0
  -23.9742  -27.3006   19.0246 H   0  0  0  0  0  0
  -23.7155  -30.5940   19.4076 H   0  0  0  0  0  0
  -22.7271  -29.2402   19.8735 H   0  0  0  0  0  0
  -25.1287  -36.2013   25.0820 H   0  0  0  0  0  0
  -20.9933  -28.3231   24.1447 H   0  0  0  0  0  0
  -20.5674  -26.2266   23.3623 H   0  0  0  0  0  0
  -21.6630  -26.7434   22.1218 H   0  0  0  0  0  0
  -19.6936  -25.6303   21.1215 H   0  0  0  0  0  0
  -19.6695  -27.3208   20.6765 H   0  0  0  0  0  0
  -17.4202  -26.6660   21.4000 H   0  0  0  0  0  0
  -18.0305  -26.0043   22.8996 H   0  0  0  0  0  0
  -19.7935  -30.7245   24.2245 H   0  0  0  0  0  0
  -17.5011  -31.6236   24.5176 H   0  0  0  0  0  0
  -15.5345  -30.2962   23.7649 H   0  0  0  0  0  0
  -15.8657  -28.0804   22.7043 H   0  0  0  0  0  0
  -24.5925  -30.7024   25.7802 H   0  0  0  0  0  0
  -24.8968  -32.2812   26.4967 H   0  0  0  0  0  0
  -25.8148  -30.8792   27.0189 H   0  0  0  0  0  0
  -26.2800  -29.6779   24.1155 H   0  0  0  0  0  0
  -27.4165  -29.7273   25.4460 H   0  0  0  0  0  0
  -27.8597  -30.4378   23.9100 H   0  0  0  0  0  0
  -27.2664  -33.3587   26.2097 H   0  0  0  0  0  0
  -28.3842  -32.6893   25.0276 H   0  0  0  0  0  0
  -28.0734  -31.8392   26.5356 H   0  0  0  0  0  0
  -28.2618  -38.0105   24.7506 H   0  0  0  0  0  0
  -28.1067  -36.2633   24.6304 H   0  0  0  0  0  0
  -27.2296  -37.1487   25.8869 H   0  0  0  0  0  0
  -20.9325  -29.8815   21.7024 H   0  0  0  0  0  0
  -26.0195  -38.2895   24.1380 H   0  0  0  0  0  0
  -29.0887  -15.3633   23.1757 H   0  0  0  0  0  0
  -31.6499  -17.9005   18.5924 H   0  0  0  0  0  0
  -30.0487  -18.5388   18.9610 H   0  0  0  0  0  0
  -30.3944  -17.8711   17.3771 H   0  0  0  0  0  0
  -32.3539  -16.7966   20.5479 H   0  0  0  0  0  0
  -31.5964  -16.5652   22.1163 H   0  0  0  0  0  0
  -31.1439  -17.9181   21.1187 H   0  0  0  0  0  0
  -28.2184  -22.6796   19.8033 H   0  0  0  0  0  0
  -29.0367  -22.7197   21.3428 H   0  0  0  0  0  0
  -30.7208  -15.6432   18.3001 H   0  0  0  0  0  0
  -29.1051  -16.1571   18.6027 H   0  0  0  0  0  0
  -28.0278  -24.7669   21.9754 H   0  0  0  0  0  0
  -26.6449  -24.5775   20.9383 H   0  0  0  0  0  0
  -28.0502  -25.0725   18.9097 H   0  0  0  0  0  0
  -29.4792  -25.0267   19.8868 H   0  0  0  0  0  0
  -26.6264  -19.6206   20.6090 H   0  0  0  0  0  0
  1 25  1  0  0  0
  1 30  2  0  0  0
  1 82  1  0  0  0
  2  3  1  0  0  0
  2 25  1  0  0  0
  2 88  1  0  0  0
  2 89  1  0  0  0
  3  4  1  0  0  0
  3 90  1  0  0  0
  3 91  1  0  0  0
  4  5  1  0  0  0
  4 92  1  0  0  0
  4 93  1  0  0  0
  5  6  1  0  0  0
  5 26  1  0  0  0
  5 94  1  0  0  0
  6 25  1  0  0  0
  6 95  1  0  0  0
  6 96  1  0  0  0
  7  8  2  0  0  0
  7 26  1  0  0  0
  7 29  1  0  0  0
  8  9  1  0  0  0
  8 22  1  0  0  0
  9 10  1  0  0  0
  9 27  2  0  0  0
 10 11  2  0  0  0
 10 15  1  0  0  0
 11 12  1  0  0  0
 11 97  1  0  0  0
 12 13  2  0  0  0
 12 98  1  0  0  0
 13 14  1  0  0  0
 13 31  1  0  0  0
 14 15  2  0  0  0
 14 99  1  0  0  0
 15100  1  0  0  0
 16 17  2  0  0  0
 16 21  1  0  0  0
 16 31  1  0  0  0
 17 18  1  0  0  0
 17101  1  0  0  0
 18 19  2  0  0  0
 18102  1  0  0  0
 19 20  1  0  0  0
 19 24  1  0  0  0
 20 21  2  0  0  0
 20103  1  0  0  0
 21 23  1  0  0  0
 22 28  1  0  0  0
 22 32  2  0  0  0
 26 27  1  0  0  0
 28104  1  0  0  0
 28105  1  0  0  0
 29106  1  0  0  0
 29107  1  0  0  0
 33 34  1  0  0  0
 33 66  1  0  0  0
 33 70  2  0  0  0
 34 36  1  0  0  0
 34 59  1  0  0  0
 34108  1  0  0  0
 35 44  2  0  0  0
 35 45  1  0  0  0
 35 68  1  0  0  0
 36 56  1  0  0  0
 36109  1  0  0  0
 37 39  1  0  0  0
 37 47  1  0  0  0
 37 66  1  0  0  0
 37110  1  0  0  0
 38 43  2  0  0  0
 38 46  1  0  0  0
 38 47  1  0  0  0
 39 64  1  0  0  0
 39 67  2  0  0  0
 40 52  1  0  0  0
 40 53  2  0  0  0
 40 58  1  0  0  0
 41111  1  0  0  0
 41112  1  0  0  0
 41113  1  0  0  0
 41 48  1  0  0  0
 42 43  1  0  0  0
 42 66  1  0  0  0
 42114  1  0  0  0
 42115  1  0  0  0
 43 44  1  0  0  0
 44116  1  0  0  0
 45 46  2  0  0  0
 45117  1  0  0  0
 46118  1  0  0  0
 47119  1  0  0  0
 47120  1  0  0  0
 48 56  1  0  0  0
 48 65  1  0  0  0
 48121  1  0  0  0
 49 50  1  0  0  0
 49 53  1  0  0  0
 49 64  1  0  0  0
 49122  1  0  0  0
 50 51  1  0  0  0
 50123  1  0  0  0
 50124  1  0  0  0
 51 52  1  0  0  0
 51125  1  0  0  0
 51126  1  0  0  0
 52127  1  0  0  0
 52128  1  0  0  0
 53 54  1  0  0  0
 54 55  2  0  0  0
 54129  1  0  0  0
 55 57  1  0  0  0
 55130  1  0  0  0
 56 69  2  0  0  0
 57 58  2  0  0  0
 57131  1  0  0  0
 58132  1  0  0  0
 59 60  1  0  0  0
 59 61  1  0  0  0
 59 62  1  0  0  0
 60133  1  0  0  0
 60134  1  0  0  0
 60135  1  0  0  0
 61136  1  0  0  0
 61137  1  0  0  0
 61138  1  0  0  0
 62139  1  0  0  0
 62140  1  0  0  0
 62141  1  0  0  0
 63 65  1  0  0  0
 63142  1  0  0  0
 63143  1  0  0  0
 63144  1  0  0  0
 64145  1  0  0  0
 65146  1  0  0  0
 68 81  1  0  0  0
 71 72  2  0  0  0
 71 87  1  0  0  0
 71147  1  0  0  0
 72 82  1  0  0  0
 72 83  1  0  0  0
 73 83  2  0  0  0
 73 84  1  0  0  0
 73 87  1  0  0  0
 74 75  1  0  0  0
 74 78  1  0  0  0
 74 85  2  0  0  0
 75 84  1  0  0  0
 75 86  2  0  0  0
 76 79  1  0  0  0
 76148  1  0  0  0
 76149  1  0  0  0
 76150  1  0  0  0
 77151  1  0  0  0
 77152  1  0  0  0
 77153  1  0  0  0
 77 82  1  0  0  0
 78 80  1  0  0  0
 78154  1  0  0  0
 78155  1  0  0  0
 79 82  1  0  0  0
 79156  1  0  0  0
 79157  1  0  0  0
 80 81  1  0  0  0
 80158  1  0  0  0
 80159  1  0  0  0
 81160  1  0  0  0
 81161  1  0  0  0
 84162  1  0  0  0
M  ISO  4   1 100  68 101  81 101  82 100
M  END
> <chiral flag>
0

> <version>
0

> <s_m_source_file>
/data/baiqing/PycharmProjects/Reinvent-master-3.2/result/LINK_invent/BTK/process_docking_weight1_custom_product_contain_oxygen_bond_distance_aromatic_linkinvent_7_9_3/rearranged_h_0178.sdf

> <i_m_source_file_index>
82

> <r_mmod_Potential_Energy-OPLS-2005>
86.4506454467773

> <r_mmod_Stretch_Energy-OPLS-2005>
46.0996284484863

> <r_mmod_Bend_Energy-OPLS-2005>
159.622161865234

> <r_mmod_Torsional_Energy-OPLS-2005>
243.183258056641

> <r_mmod_Improper_Torsional_Energy-OPLS-2005>
14.302562713623

> <r_mmod_Van_der_Waal_Energy-OPLS-2005>
132.262237548828

> <r_mmod_Electrostatic_Energy-OPLS-2005>
-329.324432373047

> <r_mmod_Solvation_Energy-OPLS-2005>
-214.732879638672

> <b_mmod_Minimization_Converged-OPLS-2005>
0

> <r_mmod_RMS_Derivative-OPLS-2005>
3.23355484008789

$$$$
82
                    3D
 Structure written by MMmdl.
152160  0  0  1  0            999 V2000
  -30.6433  -14.6086   20.4602 C   0  0  0  0  0  0
  -30.4241  -12.3670   19.4579 C   0  0  0  0  0  0
  -29.5020  -12.4915   18.2260 C   0  0  0  0  0  0
  -28.0281  -12.3262   18.6428 C   0  0  0  0  0  0
  -27.6479  -13.2163   19.8571 C   0  0  2  0  0  0
  -28.6894  -13.0929   20.9936 C   0  0  0  0  0  0
  -25.2548  -13.8176   20.5761 C   0  0  0  0  0  0
  -24.1814  -13.0450   20.9222 C   0  0  0  0  0  0
  -24.6370  -11.6924   20.8766 C   0  0  0  0  0  0
  -23.9053  -10.4305   21.0419 C   0  0  0  0  0  0
  -24.3616   -9.4218   21.9176 C   0  0  0  0  0  0
  -23.6283   -8.2260   22.0761 C   0  0  0  0  0  0
  -22.4269   -8.0291   21.3561 C   0  0  0  0  0  0
  -21.9897   -9.0266   20.4680 C   0  0  0  0  0  0
  -22.7221  -10.2146   20.3073 C   0  0  0  0  0  0
  -21.6870   -6.0741   22.5290 C   0  0  0  0  0  0
  -21.4016   -6.5642   23.8211 C   0  0  0  0  0  0
  -21.3650   -5.6803   24.9173 C   0  0  0  0  0  0
  -21.6037   -4.3065   24.7238 C   0  0  0  0  0  0
  -21.8819   -3.8157   23.4364 C   0  0  0  0  0  0
  -21.9205   -4.6959   22.3418 C   0  0  0  0  0  0
  -22.7823  -13.5240   21.1873 C   0  0  0  0  0  0
  -22.1677   -4.2137   21.1000 F   0  0  0  0  0  0
  -21.5623   -3.4563   25.7757 F   0  0  0  0  0  0
  -30.0100  -13.3988   20.4275 N   0  0  0  0  0  0
  -26.2953  -12.9358   20.3291 N   0  0  0  0  0  0
  -25.9285  -11.6513   20.5731 N   0  0  0  0  0  0
  -22.0474  -12.8257   22.0436 N   0  0  0  0  0  0
  -25.4337  -15.1915   20.4337 N   0  0  0  0  0  0
  -31.8164  -14.7290   20.0942 O   0  0  0  0  0  0
  -21.6651   -6.8874   21.4249 O   0  0  0  0  0  0
  -22.3522  -14.5530   20.6672 O   0  0  0  0  0  0
  -24.6200  -31.8631   23.2073 C   0  0  0  0  0  0
  -25.9077  -32.4792   23.8374 C   0  0  1  0  0  0
  -27.2189  -27.3623   20.0927 C   0  0  0  0  0  0
  -25.5914  -33.8597   24.2291 N   0  0  0  0  0  0
  -23.4098  -30.4884   21.5505 C   0  0  2  0  0  0
  -24.8511  -28.9487   20.1131 C   0  0  0  0  0  0
  -22.7435  -29.4635   22.4976 C   0  0  0  0  0  0
  -18.0272  -28.1372   22.8489 C   0  0  0  0  0  0
  -24.1487  -36.7303   23.2631 C   0  0  0  0  0  0
  -25.9472  -30.8047   21.3722 C   0  0  0  0  0  0
  -26.0188  -29.4365   20.7114 C   0  0  0  0  0  0
  -27.2021  -28.6515   20.6971 C   0  0  0  0  0  0
  -26.0198  -26.9021   19.5024 C   0  0  0  0  0  0
  -24.8505  -27.6836   19.5059 C   0  0  0  0  0  0
  -23.6190  -29.8245   20.1648 C   0  0  0  0  0  0
  -25.4110  -36.3096   24.0322 C   0  0  1  0  0  0
  -20.5864  -28.3660   23.1300 C   0  0  2  0  0  0
  -20.6758  -26.9384   22.5424 C   0  0  0  0  0  0
  -19.5749  -26.6384   21.5205 C   0  0  0  0  0  0
  -18.1926  -26.7915   22.1615 C   0  0  0  0  0  0
  -19.1521  -28.8835   23.2891 C   0  0  0  0  0  0
  -18.9449  -30.1439   23.8902 C   0  0  0  0  0  0
  -17.6451  -30.6579   24.0556 C   0  0  0  0  0  0
  -25.9048  -34.9458   23.5109 C   0  0  0  0  0  0
  -16.5340  -29.9072   23.6331 C   0  0  0  0  0  0
  -16.7260  -28.6489   23.0349 C   0  0  0  0  0  0
  -26.4485  -31.6591   25.0731 C   0  0  0  0  0  0
  -25.3741  -31.3739   26.1478 C   0  0  0  0  0  0
  -27.0306  -30.3011   24.6167 C   0  0  0  0  0  0
  -27.6084  -32.4301   25.7455 C   0  0  0  0  0  0
  -27.5600  -37.1765   24.8437 C   0  0  0  0  0  0
  -21.4156  -29.3027   22.3707 N   0  0  0  0  0  0
  -26.4281  -37.3804   23.9433 N   0  0  0  0  0  0
  -24.6782  -31.0667   22.1002 N   0  0  0  0  0  0
  -23.4181  -28.8188   23.3045 O   0  0  0  0  0  0
  -28.3759  -26.5853   20.1285 O   0  0  0  0  0  0
  -26.5614  -34.8916   22.4670 O   0  0  0  0  0  0
  -23.5379  -32.1402   23.7423 O   0  0  0  0  0  0
  -29.6946  -18.4714   17.9811 C   0  0  0  0  0  0
  -29.4288  -19.0708   19.2000 C   0  0  0  0  0  0
  -29.8292  -16.8855   19.8847 C   0  0  0  0  0  0
  -29.6916  -19.0073   16.6233 C   0  0  0  0  0  0
  -28.8420  -22.8039   19.4879 C   0  0  0  0  0  0
  -28.4502  -23.9905   20.0515 C   0  0  0  0  0  0
  -28.8326  -21.4486   20.0954 C   0  0  0  0  0  0
  -28.5121  -25.3694   19.3278 C   0  0  0  0  0  0
  -29.4616  -18.1378   20.2849 N   0  0  0  0  0  0
  -28.9032  -19.8890   16.1659 N   0  0  0  0  0  0
  -29.2138  -20.5074   19.1960 N   0  0  0  0  0  0
  -29.8840  -15.7106   20.7286 N   0  0  0  0  0  0
  -28.5127  -21.1976   21.2594 O   0  0  0  0  0  0
  -27.9736  -24.1172   21.3007 O   0  0  0  0  0  0
  -30.1129  -16.7862   18.1486 S   0  0  0  0  0  0
  -31.4693  -12.4712   19.1587 H   0  0  0  0  0  0
  -30.3389  -11.3769   19.9066 H   0  0  0  0  0  0
  -29.7697  -11.7402   17.4829 H   0  0  0  0  0  0
  -29.6447  -13.4591   17.7429 H   0  0  0  0  0  0
  -27.8798  -11.2777   18.9017 H   0  0  0  0  0  0
  -27.3628  -12.5201   17.8008 H   0  0  0  0  0  0
  -27.6602  -14.2441   19.4976 H   0  0  0  0  0  0
  -28.6869  -12.0873   21.4136 H   0  0  0  0  0  0
  -28.4423  -13.7628   21.8189 H   0  0  0  0  0  0
  -25.2759   -9.5702   22.4719 H   0  0  0  0  0  0
  -24.0004   -7.4657   22.7465 H   0  0  0  0  0  0
  -21.0830   -8.8798   19.8984 H   0  0  0  0  0  0
  -22.3669  -10.9688   19.6202 H   0  0  0  0  0  0
  -21.1988   -7.6153   23.9711 H   0  0  0  0  0  0
  -21.1466   -6.0537   25.9074 H   0  0  0  0  0  0
  -22.0589   -2.7620   23.2874 H   0  0  0  0  0  0
  -22.4102  -11.9949   22.4876 H   0  0  0  0  0  0
  -21.1099  -13.1318   22.2646 H   0  0  0  0  0  0
  -24.6898  -15.8568   20.6097 H   0  0  0  0  0  0
  -26.3072  -15.6356   20.1842 H   0  0  0  0  0  0
  -26.7127  -32.5474   23.1113 H   0  0  0  0  0  0
  -25.0069  -33.9767   25.0440 H   0  0  0  0  0  0
  -22.7032  -31.3086   21.4116 H   0  0  0  0  0  0
  -23.3768  -35.9611   23.3239 H   0  0  0  0  0  0
  -24.3621  -36.8988   22.2067 H   0  0  0  0  0  0
  -23.7185  -37.6469   23.6676 H   0  0  0  0  0  0
  -26.0748  -31.5722   20.6086 H   0  0  0  0  0  0
  -26.8302  -30.8511   21.9989 H   0  0  0  0  0  0
  -28.1024  -29.0263   21.1636 H   0  0  0  0  0  0
  -25.9448  -25.9227   19.0575 H   0  0  0  0  0  0
  -23.9465  -27.2973   19.0558 H   0  0  0  0  0  0
  -23.7341  -30.6012   19.4078 H   0  0  0  0  0  0
  -22.7409  -29.2487   19.8657 H   0  0  0  0  0  0
  -25.1270  -36.1961   25.0807 H   0  0  0  0  0  0
  -20.9947  -28.3220   24.1422 H   0  0  0  0  0  0
  -20.5653  -26.2263   23.3621 H   0  0  0  0  0  0
  -21.6629  -26.7428   22.1220 H   0  0  0  0  0  0
  -19.6920  -25.6297   21.1232 H   0  0  0  0  0  0
  -19.6705  -27.3198   20.6739 H   0  0  0  0  0  0
  -17.4203  -26.6650   21.4008 H   0  0  0  0  0  0
  -18.0339  -26.0045   22.9011 H   0  0  0  0  0  0
  -19.7927  -30.7247   24.2272 H   0  0  0  0  0  0
  -17.5009  -31.6259   24.5157 H   0  0  0  0  0  0
  -15.5345  -30.2974   23.7664 H   0  0  0  0  0  0
  -15.8655  -28.0818   22.7056 H   0  0  0  0  0  0
  -24.5920  -30.7075   25.7819 H   0  0  0  0  0  0
  -24.8930  -32.2914   26.4869 H   0  0  0  0  0  0
  -25.8100  -30.8954   27.0261 H   0  0  0  0  0  0
  -26.2860  -29.6769   24.1217 H   0  0  0  0  0  0
  -27.4026  -29.7267   25.4663 H   0  0  0  0  0  0
  -27.8716  -30.4284   23.9354 H   0  0  0  0  0  0
  -27.2729  -33.3592   26.2063 H   0  0  0  0  0  0
  -28.3852  -32.6873   25.0241 H   0  0  0  0  0  0
  -28.0782  -31.8401   26.5339 H   0  0  0  0  0  0
  -28.2528  -38.0152   24.7634 H   0  0  0  0  0  0
  -28.1189  -36.2703   24.6056 H   0  0  0  0  0  0
  -27.2366  -37.1154   25.8844 H   0  0  0  0  0  0
  -20.9317  -29.8755   21.6932 H   0  0  0  0  0  0
  -26.0167  -38.2854   24.1560 H   0  0  0  0  0  0
  -30.4527  -18.5921   15.9578 H   0  0  0  0  0  0
  -29.2046  -22.8821   18.4718 H   0  0  0  0  0  0
  -27.8625  -25.3554   18.4536 H   0  0  0  0  0  0
  -29.5119  -25.4272   18.8977 H   0  0  0  0  0  0
  -28.1960  -20.1799   16.8322 H   0  0  0  0  0  0
  -29.3955  -20.9157   18.2904 H   0  0  0  0  0  0
  -29.0646  -15.5506   21.2926 H   0  0  0  0  0  0
  -27.9700  -23.2518   21.6960 H   0  0  0  0  0  0
  1 25  1  0  0  0
  1 30  2  0  0  0
  1 82  1  0  0  0
  2  3  1  0  0  0
  2 25  1  0  0  0
  2 86  1  0  0  0
  2 87  1  0  0  0
  3  4  1  0  0  0
  3 88  1  0  0  0
  3 89  1  0  0  0
  4  5  1  0  0  0
  4 90  1  0  0  0
  4 91  1  0  0  0
  5  6  1  0  0  0
  5 26  1  0  0  0
  5 92  1  0  0  0
  6 25  1  0  0  0
  6 93  1  0  0  0
  6 94  1  0  0  0
  7  8  2  0  0  0
  7 26  1  0  0  0
  7 29  1  0  0  0
  8  9  1  0  0  0
  8 22  1  0  0  0
  9 10  1  0  0  0
  9 27  2  0  0  0
 10 11  2  0  0  0
 10 15  1  0  0  0
 11 12  1  0  0  0
 11 95  1  0  0  0
 12 13  2  0  0  0
 12 96  1  0  0  0
 13 14  1  0  0  0
 13 31  1  0  0  0
 14 15  2  0  0  0
 14 97  1  0  0  0
 15 98  1  0  0  0
 16 17  2  0  0  0
 16 21  1  0  0  0
 16 31  1  0  0  0
 17 18  1  0  0  0
 17 99  1  0  0  0
 18 19  2  0  0  0
 18100  1  0  0  0
 19 20  1  0  0  0
 19 24  1  0  0  0
 20 21  2  0  0  0
 20101  1  0  0  0
 21 23  1  0  0  0
 22 28  1  0  0  0
 22 32  2  0  0  0
 26 27  1  0  0  0
 28102  1  0  0  0
 28103  1  0  0  0
 29104  1  0  0  0
 29105  1  0  0  0
 33 34  1  0  0  0
 33 66  1  0  0  0
 33 70  2  0  0  0
 34 36  1  0  0  0
 34 59  1  0  0  0
 34106  1  0  0  0
 35 44  2  0  0  0
 35 45  1  0  0  0
 35 68  1  0  0  0
 36 56  1  0  0  0
 36107  1  0  0  0
 37 39  1  0  0  0
 37 47  1  0  0  0
 37 66  1  0  0  0
 37108  1  0  0  0
 38 43  2  0  0  0
 38 46  1  0  0  0
 38 47  1  0  0  0
 39 64  1  0  0  0
 39 67  2  0  0  0
 40 52  1  0  0  0
 40 53  2  0  0  0
 40 58  1  0  0  0
 41109  1  0  0  0
 41110  1  0  0  0
 41111  1  0  0  0
 41 48  1  0  0  0
 42 43  1  0  0  0
 42 66  1  0  0  0
 42112  1  0  0  0
 42113  1  0  0  0
 43 44  1  0  0  0
 44114  1  0  0  0
 45 46  2  0  0  0
 45115  1  0  0  0
 46116  1  0  0  0
 47117  1  0  0  0
 47118  1  0  0  0
 48 56  1  0  0  0
 48 65  1  0  0  0
 48119  1  0  0  0
 49 50  1  0  0  0
 49 53  1  0  0  0
 49 64  1  0  0  0
 49120  1  0  0  0
 50 51  1  0  0  0
 50121  1  0  0  0
 50122  1  0  0  0
 51 52  1  0  0  0
 51123  1  0  0  0
 51124  1  0  0  0
 52125  1  0  0  0
 52126  1  0  0  0
 53 54  1  0  0  0
 54 55  2  0  0  0
 54127  1  0  0  0
 55 57  1  0  0  0
 55128  1  0  0  0
 56 69  2  0  0  0
 57 58  2  0  0  0
 57129  1  0  0  0
 58130  1  0  0  0
 59 60  1  0  0  0
 59 61  1  0  0  0
 59 62  1  0  0  0
 60131  1  0  0  0
 60132  1  0  0  0
 60133  1  0  0  0
 61134  1  0  0  0
 61135  1  0  0  0
 61136  1  0  0  0
 62137  1  0  0  0
 62138  1  0  0  0
 62139  1  0  0  0
 63 65  1  0  0  0
 63140  1  0  0  0
 63141  1  0  0  0
 63142  1  0  0  0
 64143  1  0  0  0
 65144  1  0  0  0
 68 78  1  0  0  0
 71 72  2  0  0  0
 71 74  1  0  0  0
 71 85  1  0  0  0
 72 79  1  0  0  0
 72 81  1  0  0  0
 73 79  2  0  0  0
 73 82  1  0  0  0
 73 85  1  0  0  0
 74 80  2  0  0  0
 74145  1  0  0  0
 75 76  2  0  0  0
 75 77  1  0  0  0
 75146  1  0  0  0
 76 78  1  0  0  0
 76 84  1  0  0  0
 77 81  1  0  0  0
 77 83  2  0  0  0
 78147  1  0  0  0
 78148  1  0  0  0
 80149  1  0  0  0
 81150  1  0  0  0
 82151  1  0  0  0
 84152  1  0  0  0
M  ISO  4   1 100  68 101  78 101  82 100
M  END
> <chiral flag>
0

> <version>
0

> <s_m_source_file>
/data/baiqing/PycharmProjects/Reinvent-master-3.2/result/LINK_invent/BTK/process_docking_weight1_custom_product_contain_oxygen_bond_distance_aromatic_linkinvent_7_9_3/rearranged_h_0178.sdf

> <i_m_source_file_index>
83

> <r_mmod_Potential_Energy-OPLS-2005>
-56.0781402587891

> <r_mmod_Stretch_Energy-OPLS-2005>
59.5751800537109

> <r_mmod_Bend_Energy-OPLS-2005>
154.54216003418

> <r_mmod_Torsional_Energy-OPLS-2005>
222.213027954102

> <r_mmod_Improper_Torsional_Energy-OPLS-2005>
6.11982774734497

> <r_mmod_Van_der_Waal_Energy-OPLS-2005>
124.863945007324

> <r_mmod_Electrostatic_Energy-OPLS-2005>
-393.179626464844

> <r_mmod_Solvation_Energy-OPLS-2005>
-267.208435058594

> <b_mmod_Minimization_Converged-OPLS-2005>
0

> <r_mmod_RMS_Derivative-OPLS-2005>
3.25799083709717

$$$$
83
                    3D
 Structure written by MMmdl.
152160  0  0  1  0            999 V2000
  -30.6727  -14.5615   20.4489 C   0  0  0  0  0  0
  -30.4230  -12.3309   19.4582 C   0  0  0  0  0  0
  -29.5065  -12.4793   18.2248 C   0  0  0  0  0  0
  -28.0267  -12.3401   18.6324 C   0  0  0  0  0  0
  -27.6534  -13.2155   19.8595 C   0  0  2  0  0  0
  -28.6964  -13.0817   20.9927 C   0  0  0  0  0  0
  -25.2570  -13.8174   20.5679 C   0  0  0  0  0  0
  -24.1831  -13.0443   20.9174 C   0  0  0  0  0  0
  -24.6393  -11.6911   20.8726 C   0  0  0  0  0  0
  -23.9058  -10.4288   21.0396 C   0  0  0  0  0  0
  -24.3604   -9.4205   21.9175 C   0  0  0  0  0  0
  -23.6280   -8.2238   22.0750 C   0  0  0  0  0  0
  -22.4261   -8.0275   21.3545 C   0  0  0  0  0  0
  -21.9896   -9.0247   20.4649 C   0  0  0  0  0  0
  -22.7225  -10.2122   20.3054 C   0  0  0  0  0  0
  -21.6853   -6.0720   22.5274 C   0  0  0  0  0  0
  -21.4016   -6.5625   23.8201 C   0  0  0  0  0  0
  -21.3663   -5.6778   24.9166 C   0  0  0  0  0  0
  -21.6044   -4.3043   24.7224 C   0  0  0  0  0  0
  -21.8819   -3.8136   23.4345 C   0  0  0  0  0  0
  -21.9194   -4.6952   22.3398 C   0  0  0  0  0  0
  -22.7858  -13.5249   21.1837 C   0  0  0  0  0  0
  -22.1663   -4.2133   21.0976 F   0  0  0  0  0  0
  -21.5629   -3.4535   25.7741 F   0  0  0  0  0  0
  -30.0204  -13.3654   20.4256 N   0  0  0  0  0  0
  -26.2994  -12.9354   20.3300 N   0  0  0  0  0  0
  -25.9316  -11.6508   20.5727 N   0  0  0  0  0  0
  -22.0487  -12.8251   22.0392 N   0  0  0  0  0  0
  -25.4299  -15.1889   20.4097 N   0  0  0  0  0  0
  -31.8720  -14.6486   20.1725 O   0  0  0  0  0  0
  -21.6641   -6.8867   21.4233 O   0  0  0  0  0  0
  -22.3554  -14.5570   20.6697 O   0  0  0  0  0  0
  -24.6196  -31.8636   23.2057 C   0  0  0  0  0  0
  -25.9061  -32.4801   23.8375 C   0  0  1  0  0  0
  -27.2319  -27.3806   20.0905 C   0  0  0  0  0  0
  -25.5894  -33.8599   24.2303 N   0  0  0  0  0  0
  -23.4097  -30.4856   21.5487 C   0  0  2  0  0  0
  -24.8534  -28.9437   20.1136 C   0  0  0  0  0  0
  -22.7438  -29.4627   22.4983 C   0  0  0  0  0  0
  -18.0276  -28.1380   22.8490 C   0  0  0  0  0  0
  -24.1482  -36.7313   23.2634 C   0  0  0  0  0  0
  -25.9431  -30.8118   21.3650 C   0  0  0  0  0  0
  -26.0171  -29.4413   20.7113 C   0  0  0  0  0  0
  -27.2051  -28.6671   20.6952 C   0  0  0  0  0  0
  -26.0380  -26.9035   19.5008 C   0  0  0  0  0  0
  -24.8611  -27.6774   19.5058 C   0  0  0  0  0  0
  -23.6190  -29.8174   20.1639 C   0  0  0  0  0  0
  -25.4102  -36.3100   24.0333 C   0  0  1  0  0  0
  -20.5866  -28.3664   23.1314 C   0  0  2  0  0  0
  -20.6760  -26.9398   22.5419 C   0  0  0  0  0  0
  -19.5740  -26.6381   21.5214 C   0  0  0  0  0  0
  -18.1919  -26.7923   22.1623 C   0  0  0  0  0  0
  -19.1524  -28.8842   23.2895 C   0  0  0  0  0  0
  -18.9452  -30.1444   23.8908 C   0  0  0  0  0  0
  -17.6451  -30.6582   24.0563 C   0  0  0  0  0  0
  -25.9036  -34.9467   23.5121 C   0  0  0  0  0  0
  -16.5343  -29.9083   23.6319 C   0  0  0  0  0  0
  -16.7264  -28.6501   23.0345 C   0  0  0  0  0  0
  -26.4468  -31.6595   25.0722 C   0  0  0  0  0  0
  -25.3723  -31.3724   26.1469 C   0  0  0  0  0  0
  -27.0287  -30.3026   24.6119 C   0  0  0  0  0  0
  -27.6042  -32.4319   25.7480 C   0  0  0  0  0  0
  -27.5591  -37.1792   24.8451 C   0  0  0  0  0  0
  -21.4160  -29.3027   22.3730 N   0  0  0  0  0  0
  -26.4281  -37.3798   23.9427 N   0  0  0  0  0  0
  -24.6764  -31.0696   22.0977 N   0  0  0  0  0  0
  -23.4196  -28.8168   23.3039 O   0  0  0  0  0  0
  -28.4098  -26.6407   20.1130 O   0  0  0  0  0  0
  -26.5610  -34.8926   22.4691 O   0  0  0  0  0  0
  -23.5371  -32.1411   23.7417 O   0  0  0  0  0  0
  -30.5437  -16.6824   18.3894 C   0  0  0  0  0  0
  -30.5605  -17.7379   17.4737 C   0  0  0  0  0  0
  -29.9757  -18.9591   17.8286 C   0  0  0  0  0  0
  -29.9648  -16.8454   19.6706 C   0  0  0  0  0  0
  -29.4133  -19.1080   19.1114 C   0  0  0  0  0  0
  -28.3127  -22.7361   19.4950 C   0  0  0  0  0  0
  -28.8820  -21.3952   20.1184 C   0  0  0  0  0  0
  -28.3492  -24.0683   20.3018 C   0  0  0  0  0  0
  -28.5286  -25.3608   19.4298 C   0  0  0  0  0  0
  -29.4065  -18.0603   20.0088 N   0  0  0  0  0  0
  -28.7623  -20.3787   19.2387 N   0  0  0  0  0  0
  -29.8928  -15.6772   20.5264 N   0  0  0  0  0  0
  -27.8154  -22.7271   18.3599 O   0  0  0  0  0  0
  -29.3417  -21.3104   21.2635 O   0  0  0  0  0  0
  -31.1086  -17.5618   16.2454 F   0  0  0  0  0  0
  -29.9336  -19.9792   16.9338 F   0  0  0  0  0  0
  -31.4709  -12.4170   19.1632 H   0  0  0  0  0  0
  -30.3189  -11.3412   19.9054 H   0  0  0  0  0  0
  -29.7572  -11.7225   17.4799 H   0  0  0  0  0  0
  -29.6683  -13.4470   17.7469 H   0  0  0  0  0  0
  -27.8490  -11.2885   18.8603 H   0  0  0  0  0  0
  -27.3822  -12.5810   17.7866 H   0  0  0  0  0  0
  -27.6696  -14.2473   19.5102 H   0  0  0  0  0  0
  -28.6818  -12.0749   21.4122 H   0  0  0  0  0  0
  -28.4668  -13.7577   21.8181 H   0  0  0  0  0  0
  -25.2738   -9.5684   22.4764 H   0  0  0  0  0  0
  -23.9984   -7.4627   22.7476 H   0  0  0  0  0  0
  -21.0815   -8.8772   19.8956 H   0  0  0  0  0  0
  -22.3681  -10.9661   19.6174 H   0  0  0  0  0  0
  -21.2008   -7.6128   23.9701 H   0  0  0  0  0  0
  -21.1492   -6.0512   25.9063 H   0  0  0  0  0  0
  -22.0603   -2.7599   23.2856 H   0  0  0  0  0  0
  -22.4079  -11.9911   22.4791 H   0  0  0  0  0  0
  -21.1115  -13.1308   22.2592 H   0  0  0  0  0  0
  -24.6645  -15.8457   20.5193 H   0  0  0  0  0  0
  -26.2804  -15.6273   20.0809 H   0  0  0  0  0  0
  -26.7128  -32.5492   23.1129 H   0  0  0  0  0  0
  -25.0030  -33.9753   25.0439 H   0  0  0  0  0  0
  -22.7001  -31.3036   21.4079 H   0  0  0  0  0  0
  -23.3751  -35.9636   23.3259 H   0  0  0  0  0  0
  -24.3593  -36.8970   22.2057 H   0  0  0  0  0  0
  -23.7214  -37.6496   23.6677 H   0  0  0  0  0  0
  -26.0595  -31.5748   20.5942 H   0  0  0  0  0  0
  -26.8295  -30.8669   21.9853 H   0  0  0  0  0  0
  -28.1054  -29.0507   21.1546 H   0  0  0  0  0  0
  -25.9814  -25.9285   19.0413 H   0  0  0  0  0  0
  -23.9635  -27.2866   19.0460 H   0  0  0  0  0  0
  -23.7324  -30.5912   19.4038 H   0  0  0  0  0  0
  -22.7411  -29.2407   19.8671 H   0  0  0  0  0  0
  -25.1265  -36.1957   25.0822 H   0  0  0  0  0  0
  -20.9941  -28.3219   24.1439 H   0  0  0  0  0  0
  -20.5648  -26.2272   23.3606 H   0  0  0  0  0  0
  -21.6635  -26.7433   22.1221 H   0  0  0  0  0  0
  -19.6898  -25.6293   21.1237 H   0  0  0  0  0  0
  -19.6668  -27.3193   20.6744 H   0  0  0  0  0  0
  -17.4183  -26.6667   21.4030 H   0  0  0  0  0  0
  -18.0317  -26.0068   22.9021 H   0  0  0  0  0  0
  -19.7926  -30.7260   24.2285 H   0  0  0  0  0  0
  -17.5005  -31.6261   24.5162 H   0  0  0  0  0  0
  -15.5344  -30.2989   23.7637 H   0  0  0  0  0  0
  -15.8662  -28.0821   22.7056 H   0  0  0  0  0  0
  -24.5898  -30.7060   25.7823 H   0  0  0  0  0  0
  -24.8911  -32.2884   26.4906 H   0  0  0  0  0  0
  -25.8069  -30.8913   27.0238 H   0  0  0  0  0  0
  -26.2831  -29.6802   24.1154 H   0  0  0  0  0  0
  -27.4019  -29.7254   25.4588 H   0  0  0  0  0  0
  -27.8689  -30.4334   23.9293 H   0  0  0  0  0  0
  -27.2662  -33.3616   26.2073 H   0  0  0  0  0  0
  -28.3839  -32.6883   25.0294 H   0  0  0  0  0  0
  -28.0722  -31.8434   26.5382 H   0  0  0  0  0  0
  -28.2561  -38.0139   24.7577 H   0  0  0  0  0  0
  -28.1134  -36.2677   24.6159 H   0  0  0  0  0  0
  -27.2332  -37.1304   25.8857 H   0  0  0  0  0  0
  -20.9334  -29.8771   21.6960 H   0  0  0  0  0  0
  -26.0161  -38.2862   24.1476 H   0  0  0  0  0  0
  -30.9660  -15.7459   18.0593 H   0  0  0  0  0  0
  -29.1458  -24.0099   21.0432 H   0  0  0  0  0  0
  -27.4128  -24.1334   20.8548 H   0  0  0  0  0  0
  -27.9260  -25.3277   18.5230 H   0  0  0  0  0  0
  -29.5519  -25.3390   19.0538 H   0  0  0  0  0  0
  -28.4209  -20.7410   18.3557 H   0  0  0  0  0  0
  -29.0159  -15.5571   21.0080 H   0  0  0  0  0  0
  1 25  1  0  0  0
  1 30  2  0  0  0
  1 82  1  0  0  0
  2  3  1  0  0  0
  2 25  1  0  0  0
  2 87  1  0  0  0
  2 88  1  0  0  0
  3  4  1  0  0  0
  3 89  1  0  0  0
  3 90  1  0  0  0
  4  5  1  0  0  0
  4 91  1  0  0  0
  4 92  1  0  0  0
  5  6  1  0  0  0
  5 26  1  0  0  0
  5 93  1  0  0  0
  6 25  1  0  0  0
  6 94  1  0  0  0
  6 95  1  0  0  0
  7  8  2  0  0  0
  7 26  1  0  0  0
  7 29  1  0  0  0
  8  9  1  0  0  0
  8 22  1  0  0  0
  9 10  1  0  0  0
  9 27  2  0  0  0
 10 11  2  0  0  0
 10 15  1  0  0  0
 11 12  1  0  0  0
 11 96  1  0  0  0
 12 13  2  0  0  0
 12 97  1  0  0  0
 13 14  1  0  0  0
 13 31  1  0  0  0
 14 15  2  0  0  0
 14 98  1  0  0  0
 15 99  1  0  0  0
 16 17  2  0  0  0
 16 21  1  0  0  0
 16 31  1  0  0  0
 17 18  1  0  0  0
 17100  1  0  0  0
 18 19  2  0  0  0
 18101  1  0  0  0
 19 20  1  0  0  0
 19 24  1  0  0  0
 20 21  2  0  0  0
 20102  1  0  0  0
 21 23  1  0  0  0
 22 28  1  0  0  0
 22 32  2  0  0  0
 26 27  1  0  0  0
 28103  1  0  0  0
 28104  1  0  0  0
 29105  1  0  0  0
 29106  1  0  0  0
 33 34  1  0  0  0
 33 66  1  0  0  0
 33 70  2  0  0  0
 34 36  1  0  0  0
 34 59  1  0  0  0
 34107  1  0  0  0
 35 44  2  0  0  0
 35 45  1  0  0  0
 35 68  1  0  0  0
 36 56  1  0  0  0
 36108  1  0  0  0
 37 39  1  0  0  0
 37 47  1  0  0  0
 37 66  1  0  0  0
 37109  1  0  0  0
 38 43  2  0  0  0
 38 46  1  0  0  0
 38 47  1  0  0  0
 39 64  1  0  0  0
 39 67  2  0  0  0
 40 52  1  0  0  0
 40 53  2  0  0  0
 40 58  1  0  0  0
 41110  1  0  0  0
 41111  1  0  0  0
 41112  1  0  0  0
 41 48  1  0  0  0
 42 43  1  0  0  0
 42 66  1  0  0  0
 42113  1  0  0  0
 42114  1  0  0  0
 43 44  1  0  0  0
 44115  1  0  0  0
 45 46  2  0  0  0
 45116  1  0  0  0
 46117  1  0  0  0
 47118  1  0  0  0
 47119  1  0  0  0
 48 56  1  0  0  0
 48 65  1  0  0  0
 48120  1  0  0  0
 49 50  1  0  0  0
 49 53  1  0  0  0
 49 64  1  0  0  0
 49121  1  0  0  0
 50 51  1  0  0  0
 50122  1  0  0  0
 50123  1  0  0  0
 51 52  1  0  0  0
 51124  1  0  0  0
 51125  1  0  0  0
 52126  1  0  0  0
 52127  1  0  0  0
 53 54  1  0  0  0
 54 55  2  0  0  0
 54128  1  0  0  0
 55 57  1  0  0  0
 55129  1  0  0  0
 56 69  2  0  0  0
 57 58  2  0  0  0
 57130  1  0  0  0
 58131  1  0  0  0
 59 60  1  0  0  0
 59 61  1  0  0  0
 59 62  1  0  0  0
 60132  1  0  0  0
 60133  1  0  0  0
 60134  1  0  0  0
 61135  1  0  0  0
 61136  1  0  0  0
 61137  1  0  0  0
 62138  1  0  0  0
 62139  1  0  0  0
 62140  1  0  0  0
 63 65  1  0  0  0
 63141  1  0  0  0
 63142  1  0  0  0
 63143  1  0  0  0
 64144  1  0  0  0
 65145  1  0  0  0
 68 79  1  0  0  0
 71 72  2  0  0  0
 71 74  1  0  0  0
 71146  1  0  0  0
 72 73  1  0  0  0
 72 85  1  0  0  0
 73 75  2  0  0  0
 73 86  1  0  0  0
 74 80  2  0  0  0
 74 82  1  0  0  0
 75 80  1  0  0  0
 75 81  1  0  0  0
 76 77  1  0  0  0
 76 78  1  0  0  0
 76 83  2  0  0  0
 77 81  1  0  0  0
 77 84  2  0  0  0
 78 79  1  0  0  0
 78147  1  0  0  0
 78148  1  0  0  0
 79149  1  0  0  0
 79150  1  0  0  0
 81151  1  0  0  0
 82152  1  0  0  0
M  ISO  4   1 100  68 101  79 101  82 100
M  END
> <chiral flag>
0

> <version>
0

> <s_m_source_file>
/data/baiqing/PycharmProjects/Reinvent-master-3.2/result/LINK_invent/BTK/process_docking_weight1_custom_product_contain_oxygen_bond_distance_aromatic_linkinvent_7_9_3/rearranged_h_0178.sdf

> <i_m_source_file_index>
84

> <r_mmod_Potential_Energy-OPLS-2005>
-159.221725463867

> <r_mmod_Stretch_Energy-OPLS-2005>
56.4610710144043

> <r_mmod_Bend_Energy-OPLS-2005>
138.247650146484

> <r_mmod_Torsional_Energy-OPLS-2005>
255.514938354492

> <r_mmod_Improper_Torsional_Energy-OPLS-2005>
9.89977359771729

> <r_mmod_Van_der_Waal_Energy-OPLS-2005>
154.810684204102

> <r_mmod_Electrostatic_Energy-OPLS-2005>
-567.250427246094

> <r_mmod_Solvation_Energy-OPLS-2005>
-237.424407958984

> <b_mmod_Minimization_Converged-OPLS-2005>
0

> <r_mmod_RMS_Derivative-OPLS-2005>
1.78407764434814

$$$$
84
                    3D
 Structure written by MMmdl.
168177  0  0  1  0            999 V2000
  -30.6140  -14.7570   20.4694 C   0  0  0  0  0  0
  -30.4325  -12.4515   19.4917 C   0  0  0  0  0  0
  -29.5148  -12.4819   18.2473 C   0  0  0  0  0  0
  -28.0379  -12.3119   18.6576 C   0  0  0  0  0  0
  -27.6420  -13.2306   19.8442 C   0  0  2  0  0  0
  -28.6824  -13.1764   20.9848 C   0  0  0  0  0  0
  -25.2546  -13.8236   20.5823 C   0  0  0  0  0  0
  -24.1790  -13.0463   20.9267 C   0  0  0  0  0  0
  -24.6358  -11.6938   20.8685 C   0  0  0  0  0  0
  -23.9014  -10.4301   21.0333 C   0  0  0  0  0  0
  -24.3600   -9.4245   21.9127 C   0  0  0  0  0  0
  -23.6314   -8.2278   22.0724 C   0  0  0  0  0  0
  -22.4288   -8.0278   21.3538 C   0  0  0  0  0  0
  -21.9879   -9.0236   20.4643 C   0  0  0  0  0  0
  -22.7176  -10.2120   20.3032 C   0  0  0  0  0  0
  -21.6857   -6.0728   22.5246 C   0  0  0  0  0  0
  -21.4017   -6.5631   23.8170 C   0  0  0  0  0  0
  -21.3668   -5.6772   24.9131 C   0  0  0  0  0  0
  -21.6027   -4.3031   24.7175 C   0  0  0  0  0  0
  -21.8839   -3.8137   23.4291 C   0  0  0  0  0  0
  -21.9223   -4.6972   22.3352 C   0  0  0  0  0  0
  -22.7833  -13.5231   21.1956 C   0  0  0  0  0  0
  -22.1698   -4.2163   21.0944 F   0  0  0  0  0  0
  -21.5625   -3.4526   25.7683 F   0  0  0  0  0  0
  -29.9897  -13.5253   20.4197 N   0  0  0  0  0  0
  -26.2918  -12.9451   20.3230 N   0  0  0  0  0  0
  -25.9278  -11.6555   20.5608 N   0  0  0  0  0  0
  -22.0449  -12.8176   22.0445 N   0  0  0  0  0  0
  -25.4302  -15.1997   20.4521 N   0  0  0  0  0  0
  -31.7754  -14.8549   20.0708 O   0  0  0  0  0  0
  -21.6661   -6.8884   21.4215 O   0  0  0  0  0  0
  -22.3476  -14.5524   20.6776 O   0  0  0  0  0  0
  -24.6268  -31.8590   23.1990 C   0  0  0  0  0  0
  -25.9116  -32.4780   23.8309 C   0  0  1  0  0  0
  -27.1887  -27.2596   20.1297 C   0  0  0  0  0  0
  -25.5926  -33.8588   24.2239 N   0  0  0  0  0  0
  -23.4188  -30.4901   21.5529 C   0  0  2  0  0  0
  -24.8525  -28.9423   20.1181 C   0  0  0  0  0  0
  -22.7460  -29.4616   22.4968 C   0  0  0  0  0  0
  -18.0315  -28.1438   22.8512 C   0  0  0  0  0  0
  -24.1498  -36.7253   23.2630 C   0  0  0  0  0  0
  -25.9683  -30.7794   21.3721 C   0  0  0  0  0  0
  -26.0363  -29.4032   20.7126 C   0  0  0  0  0  0
  -27.2083  -28.5816   20.6919 C   0  0  0  0  0  0
  -25.9630  -26.8591   19.5425 C   0  0  0  0  0  0
  -24.8226  -27.6747   19.5309 C   0  0  0  0  0  0
  -23.6306  -29.8357   20.1671 C   0  0  0  0  0  0
  -25.4115  -36.3046   24.0318 C   0  0  1  0  0  0
  -20.5904  -28.3696   23.1356 C   0  0  2  0  0  0
  -20.6783  -26.9421   22.5491 C   0  0  0  0  0  0
  -19.5775  -26.6434   21.5262 C   0  0  0  0  0  0
  -18.1947  -26.7998   22.1622 C   0  0  0  0  0  0
  -19.1572  -28.8900   23.2911 C   0  0  0  0  0  0
  -18.9443  -30.1515   23.8901 C   0  0  0  0  0  0
  -17.6434  -30.6600   24.0623 C   0  0  0  0  0  0
  -25.9052  -34.9447   23.5064 C   0  0  0  0  0  0
  -16.5342  -29.9095   23.6375 C   0  0  0  0  0  0
  -16.7298  -28.6541   23.0348 C   0  0  0  0  0  0
  -26.4481  -31.6594   25.0704 C   0  0  0  0  0  0
  -25.3729  -31.3836   26.1476 C   0  0  0  0  0  0
  -27.0246  -30.2976   24.6148 C   0  0  0  0  0  0
  -27.6124  -32.4285   25.7376 C   0  0  0  0  0  0
  -27.5632  -37.1697   24.8413 C   0  0  0  0  0  0
  -21.4173  -29.2984   22.3688 N   0  0  0  0  0  0
  -26.4266  -37.3780   23.9478 N   0  0  0  0  0  0
  -24.6917  -31.0566   22.0995 N   0  0  0  0  0  0
  -23.4202  -28.8207   23.3038 O   0  0  0  0  0  0
  -28.2989  -26.3727   20.1772 O   0  0  0  0  0  0
  -26.5645  -34.8894   22.4639 O   0  0  0  0  0  0
  -23.5400  -32.1490   23.7274 O   0  0  0  0  0  0
  -29.2910  -18.4551   21.1563 C   0  0  0  0  0  0
  -30.9691  -17.8505   19.6455 C   0  0  0  0  0  0
  -30.0601  -17.3448   20.5546 C   0  0  0  0  0  0
  -29.6861  -19.7642   20.7855 C   0  0  0  0  0  0
  -29.1609  -24.1645   22.1310 C   0  0  0  0  0  0
  -28.1352  -23.6200   23.1160 C   0  0  0  0  0  0
  -28.6370  -22.2850   23.6978 C   0  0  0  0  0  0
  -28.6187  -21.0655   22.7416 C   0  0  0  0  0  0
  -29.3539  -21.2040   21.3760 C   0  0  2  0  0  0
  -29.0363  -23.7932   20.6445 C   0  0  2  0  0  0
  -27.9333  -25.8770   17.3411 C   0  0  0  0  0  0
  -28.0741  -23.4097   17.6964 C   0  0  0  0  0  0
  -28.1525  -24.9061   19.8322 C   0  0  2  0  0  0
  -28.4744  -24.7799   18.2942 C   0  0  0  0  0  0
  -29.8746  -15.8847   20.8336 N   0  0  0  0  0  0
  -28.6750  -22.2787   20.5093 N   0  3  0  0  0  0
  -30.1145  -24.8125   22.5690 O   0  0  0  0  0  0
  -30.9377  -19.6096   19.5680 S   0  0  0  0  0  0
  -31.4743  -12.5509   19.1853 H   0  0  0  0  0  0
  -30.3582  -11.4829   19.9875 H   0  0  0  0  0  0
  -29.7946  -11.6878   17.5499 H   0  0  0  0  0  0
  -29.6410  -13.4216   17.7093 H   0  0  0  0  0  0
  -27.8895  -11.2654   18.9306 H   0  0  0  0  0  0
  -27.3845  -12.4952   17.8027 H   0  0  0  0  0  0
  -27.6402  -14.2462   19.4432 H   0  0  0  0  0  0
  -28.7255  -12.1838   21.4337 H   0  0  0  0  0  0
  -28.4072  -13.8648   21.7845 H   0  0  0  0  0  0
  -25.2773   -9.5738   22.4664 H   0  0  0  0  0  0
  -24.0028   -7.4688   22.7440 H   0  0  0  0  0  0
  -21.0800   -8.8711   19.9019 H   0  0  0  0  0  0
  -22.3566  -10.9627   19.6115 H   0  0  0  0  0  0
  -21.1995   -7.6122   23.9656 H   0  0  0  0  0  0
  -21.1478   -6.0497   25.9013 H   0  0  0  0  0  0
  -22.0626   -2.7614   23.2747 H   0  0  0  0  0  0
  -22.4086  -11.9883   22.4875 H   0  0  0  0  0  0
  -21.1024  -13.1100   22.2569 H   0  0  0  0  0  0
  -24.7259  -15.8694   20.7448 H   0  0  0  0  0  0
  -26.2869  -15.6445   20.1467 H   0  0  0  0  0  0
  -26.7160  -32.5443   23.1037 H   0  0  0  0  0  0
  -25.0100  -33.9719   25.0381 H   0  0  0  0  0  0
  -22.7099  -31.3117   21.4170 H   0  0  0  0  0  0
  -23.3806  -35.9530   23.3158 H   0  0  0  0  0  0
  -24.3630  -36.9010   22.2075 H   0  0  0  0  0  0
  -23.7131  -37.6346   23.6754 H   0  0  0  0  0  0
  -26.0991  -31.5428   20.6054 H   0  0  0  0  0  0
  -26.8451  -30.8258   22.0045 H   0  0  0  0  0  0
  -28.1214  -28.9341   21.1495 H   0  0  0  0  0  0
  -25.8273  -25.8930   19.0885 H   0  0  0  0  0  0
  -23.9063  -27.3081   19.0866 H   0  0  0  0  0  0
  -23.7532  -30.6181   19.4207 H   0  0  0  0  0  0
  -22.7436  -29.2789   19.8576 H   0  0  0  0  0  0
  -25.1247  -36.1893   25.0793 H   0  0  0  0  0  0
  -21.0024  -28.3315   24.1459 H   0  0  0  0  0  0
  -20.5713  -26.2248   23.3664 H   0  0  0  0  0  0
  -21.6654  -26.7488   22.1272 H   0  0  0  0  0  0
  -19.6891  -25.6346   21.1276 H   0  0  0  0  0  0
  -19.6764  -27.3245   20.6807 H   0  0  0  0  0  0
  -17.4235  -26.6874   21.3987 H   0  0  0  0  0  0
  -18.0244  -26.0149   22.8992 H   0  0  0  0  0  0
  -19.7916  -30.7402   24.2208 H   0  0  0  0  0  0
  -17.4962  -31.6265   24.5236 H   0  0  0  0  0  0
  -15.5325  -30.2948   23.7696 H   0  0  0  0  0  0
  -15.8723  -28.0851   22.6998 H   0  0  0  0  0  0
  -24.5871  -30.7159   25.7883 H   0  0  0  0  0  0
  -24.8949  -32.3053   26.4826 H   0  0  0  0  0  0
  -25.8093  -30.9118   27.0292 H   0  0  0  0  0  0
  -26.2752  -29.6747   24.1219 H   0  0  0  0  0  0
  -27.3927  -29.7221   25.4649 H   0  0  0  0  0  0
  -27.8669  -30.4160   23.9342 H   0  0  0  0  0  0
  -27.2837  -33.3592   26.2003 H   0  0  0  0  0  0
  -28.3894  -32.6808   25.0165 H   0  0  0  0  0  0
  -28.0845  -31.8365   26.5231 H   0  0  0  0  0  0
  -28.2514  -38.0123   24.7674 H   0  0  0  0  0  0
  -28.1246  -36.2663   24.5936 H   0  0  0  0  0  0
  -27.2426  -37.1013   25.8820 H   0  0  0  0  0  0
  -20.9312  -29.8612   21.6838 H   0  0  0  0  0  0
  -26.0137  -38.2792   24.1691 H   0  0  0  0  0  0
  -28.5175  -18.2575   21.8940 H   0  0  0  0  0  0
  -31.6659  -17.3281   18.9960 H   0  0  0  0  0  0
  -27.1674  -23.5146   22.6332 H   0  0  0  0  0  0
  -28.0137  -24.3508   23.9245 H   0  0  0  0  0  0
  -28.0388  -22.0544   24.5793 H   0  0  0  0  0  0
  -29.6479  -22.4211   24.0789 H   0  0  0  0  0  0
  -27.5977  -20.7115   22.5869 H   0  0  0  0  0  0
  -29.1124  -20.2720   23.2980 H   0  0  0  0  0  0
  -30.3381  -21.6166   21.6109 H   0  0  0  0  0  0
  -30.0425  -23.8651   20.2376 H   0  0  0  0  0  0
  -28.3947  -25.7816   16.3584 H   0  0  0  0  0  0
  -28.1540  -26.8912   17.6707 H   0  0  0  0  0  0
  -26.8608  -25.7872   17.1733 H   0  0  0  0  0  0
  -28.0749  -23.4189   16.6032 H   0  0  0  0  0  0
  -27.0714  -23.1244   18.0072 H   0  0  0  0  0  0
  -28.7686  -22.6209   17.9670 H   0  0  0  0  0  0
  -27.1212  -24.6091   20.0264 H   0  0  0  0  0  0
  -29.5587  -24.8746   18.2290 H   0  0  0  0  0  0
  -29.0231  -15.6511   21.3214 H   0  0  0  0  0  0
  -27.6821  -22.1560   20.6338 H   0  0  0  0  0  0
  -28.8646  -22.0204   19.5526 H   0  0  0  0  0  0
  1 25  1  0  0  0
  1 30  2  0  0  0
  1 85  1  0  0  0
  2  3  1  0  0  0
  2 25  1  0  0  0
  2 89  1  0  0  0
  2 90  1  0  0  0
  3  4  1  0  0  0
  3 91  1  0  0  0
  3 92  1  0  0  0
  4  5  1  0  0  0
  4 93  1  0  0  0
  4 94  1  0  0  0
  5  6  1  0  0  0
  5 26  1  0  0  0
  5 95  1  0  0  0
  6 25  1  0  0  0
  6 96  1  0  0  0
  6 97  1  0  0  0
  7  8  2  0  0  0
  7 26  1  0  0  0
  7 29  1  0  0  0
  8  9  1  0  0  0
  8 22  1  0  0  0
  9 10  1  0  0  0
  9 27  2  0  0  0
 10 11  2  0  0  0
 10 15  1  0  0  0
 11 12  1  0  0  0
 11 98  1  0  0  0
 12 13  2  0  0  0
 12 99  1  0  0  0
 13 14  1  0  0  0
 13 31  1  0  0  0
 14 15  2  0  0  0
 14100  1  0  0  0
 15101  1  0  0  0
 16 17  2  0  0  0
 16 21  1  0  0  0
 16 31  1  0  0  0
 17 18  1  0  0  0
 17102  1  0  0  0
 18 19  2  0  0  0
 18103  1  0  0  0
 19 20  1  0  0  0
 19 24  1  0  0  0
 20 21  2  0  0  0
 20104  1  0  0  0
 21 23  1  0  0  0
 22 28  1  0  0  0
 22 32  2  0  0  0
 26 27  1  0  0  0
 28105  1  0  0  0
 28106  1  0  0  0
 29107  1  0  0  0
 29108  1  0  0  0
 33 34  1  0  0  0
 33 66  1  0  0  0
 33 70  2  0  0  0
 34 36  1  0  0  0
 34 59  1  0  0  0
 34109  1  0  0  0
 35 44  2  0  0  0
 35 45  1  0  0  0
 35 68  1  0  0  0
 36 56  1  0  0  0
 36110  1  0  0  0
 37 39  1  0  0  0
 37 47  1  0  0  0
 37 66  1  0  0  0
 37111  1  0  0  0
 38 43  2  0  0  0
 38 46  1  0  0  0
 38 47  1  0  0  0
 39 64  1  0  0  0
 39 67  2  0  0  0
 40 52  1  0  0  0
 40 53  2  0  0  0
 40 58  1  0  0  0
 41112  1  0  0  0
 41113  1  0  0  0
 41114  1  0  0  0
 41 48  1  0  0  0
 42 43  1  0  0  0
 42 66  1  0  0  0
 42115  1  0  0  0
 42116  1  0  0  0
 43 44  1  0  0  0
 44117  1  0  0  0
 45 46  2  0  0  0
 45118  1  0  0  0
 46119  1  0  0  0
 47120  1  0  0  0
 47121  1  0  0  0
 48 56  1  0  0  0
 48 65  1  0  0  0
 48122  1  0  0  0
 49 50  1  0  0  0
 49 53  1  0  0  0
 49 64  1  0  0  0
 49123  1  0  0  0
 50 51  1  0  0  0
 50124  1  0  0  0
 50125  1  0  0  0
 51 52  1  0  0  0
 51126  1  0  0  0
 51127  1  0  0  0
 52128  1  0  0  0
 52129  1  0  0  0
 53 54  1  0  0  0
 54 55  2  0  0  0
 54130  1  0  0  0
 55 57  1  0  0  0
 55131  1  0  0  0
 56 69  2  0  0  0
 57 58  2  0  0  0
 57132  1  0  0  0
 58133  1  0  0  0
 59 60  1  0  0  0
 59 61  1  0  0  0
 59 62  1  0  0  0
 60134  1  0  0  0
 60135  1  0  0  0
 60136  1  0  0  0
 61137  1  0  0  0
 61138  1  0  0  0
 61139  1  0  0  0
 62140  1  0  0  0
 62141  1  0  0  0
 62142  1  0  0  0
 63 65  1  0  0  0
 63143  1  0  0  0
 63144  1  0  0  0
 63145  1  0  0  0
 64146  1  0  0  0
 65147  1  0  0  0
 68 83  1  0  0  0
 71 73  1  0  0  0
 71 74  2  0  0  0
 71148  1  0  0  0
 72 73  2  0  0  0
 72 88  1  0  0  0
 72149  1  0  0  0
 73 85  1  0  0  0
 74 88  1  0  0  0
 74 79  1  0  0  0
 75 76  1  0  0  0
 75 80  1  0  0  0
 75 87  2  0  0  0
 76 77  1  0  0  0
 76150  1  0  0  0
 76151  1  0  0  0
 77 78  1  0  0  0
 77152  1  0  0  0
 77153  1  0  0  0
 78 79  1  0  0  0
 78154  1  0  0  0
 78155  1  0  0  0
 79 86  1  0  0  0
 79156  1  0  0  0
 80 83  1  0  0  0
 80 86  1  0  0  0
 80157  1  0  0  0
 81158  1  0  0  0
 81159  1  0  0  0
 81160  1  0  0  0
 81 84  1  0  0  0
 82 84  1  0  0  0
 82161  1  0  0  0
 82162  1  0  0  0
 82163  1  0  0  0
 83 84  1  0  0  0
 83164  1  0  0  0
 84165  1  0  0  0
 85166  1  0  0  0
 86167  1  0  0  0
 86168  1  0  0  0
M  CHG  1  86   1
M  ISO  4   1 100  68 101  83 101  85 100
M  END
> <chiral flag>
0

> <version>
0

> <s_m_source_file>
/data/baiqing/PycharmProjects/Reinvent-master-3.2/result/LINK_invent/BTK/process_docking_weight1_custom_product_contain_oxygen_bond_distance_aromatic_linkinvent_7_9_3/rearranged_h_0178.sdf

> <i_m_source_file_index>
85

> <r_mmod_Potential_Energy-OPLS-2005>
13.3671388626099

> <r_mmod_Stretch_Energy-OPLS-2005>
142.644027709961

> <r_mmod_Bend_Energy-OPLS-2005>
194.012939453125

> <r_mmod_Torsional_Energy-OPLS-2005>
243.507064819336

> <r_mmod_Improper_Torsional_Energy-OPLS-2005>
4.82778120040894

> <r_mmod_Van_der_Waal_Energy-OPLS-2005>
130.449066162109

> <r_mmod_Electrostatic_Energy-OPLS-2005>
-322.141876220703

> <r_mmod_Solvation_Energy-OPLS-2005>
-468.656860351562

> <b_mmod_Minimization_Converged-OPLS-2005>
0

> <r_mmod_RMS_Derivative-OPLS-2005>
8.93669700622559

$$$$
85
                    3D
 Structure written by MMmdl.
149157  0  0  1  0            999 V2000
  -30.7062  -14.4815   20.5365 C   0  0  0  0  0  0
  -30.4173  -12.2988   19.4388 C   0  0  0  0  0  0
  -29.4981  -12.4992   18.2149 C   0  0  0  0  0  0
  -28.0159  -12.3684   18.6189 C   0  0  0  0  0  0
  -27.6603  -13.2103   19.8744 C   0  0  2  0  0  0
  -28.7000  -12.9936   20.9958 C   0  0  0  0  0  0
  -25.2584  -13.8172   20.5685 C   0  0  0  0  0  0
  -24.1835  -13.0444   20.9170 C   0  0  0  0  0  0
  -24.6391  -11.6911   20.8728 C   0  0  0  0  0  0
  -23.9059  -10.4295   21.0400 C   0  0  0  0  0  0
  -24.3613   -9.4212   21.9179 C   0  0  0  0  0  0
  -23.6290   -8.2247   22.0753 C   0  0  0  0  0  0
  -22.4272   -8.0282   21.3544 C   0  0  0  0  0  0
  -21.9905   -9.0254   20.4646 C   0  0  0  0  0  0
  -22.7231  -10.2134   20.3052 C   0  0  0  0  0  0
  -21.6853   -6.0735   22.5278 C   0  0  0  0  0  0
  -21.4014   -6.5639   23.8211 C   0  0  0  0  0  0
  -21.3659   -5.6792   24.9174 C   0  0  0  0  0  0
  -21.6044   -4.3055   24.7224 C   0  0  0  0  0  0
  -21.8820   -3.8146   23.4346 C   0  0  0  0  0  0
  -21.9193   -4.6963   22.3402 C   0  0  0  0  0  0
  -22.7858  -13.5240   21.1840 C   0  0  0  0  0  0
  -22.1662   -4.2149   21.0979 F   0  0  0  0  0  0
  -21.5628   -3.4538   25.7737 F   0  0  0  0  0  0
  -30.0315  -13.2989   20.4498 N   0  0  0  0  0  0
  -26.3018  -12.9346   20.3362 N   0  0  0  0  0  0
  -25.9319  -11.6501   20.5757 N   0  0  0  0  0  0
  -22.0502  -12.8233   22.0399 N   0  0  0  0  0  0
  -25.4321  -15.1889   20.4114 N   0  0  0  0  0  0
  -31.8574  -14.5927   20.1037 O   0  0  0  0  0  0
  -21.6639   -6.8877   21.4240 O   0  0  0  0  0  0
  -22.3542  -14.5549   20.6694 O   0  0  0  0  0  0
  -24.6144  -31.8685   23.2107 C   0  0  0  0  0  0
  -25.9038  -32.4827   23.8402 C   0  0  1  0  0  0
  -27.2307  -27.4399   20.0979 C   0  0  0  0  0  0
  -25.5895  -33.8625   24.2333 N   0  0  0  0  0  0
  -23.4026  -30.4924   21.5509 C   0  0  2  0  0  0
  -24.8502  -28.9616   20.1124 C   0  0  0  0  0  0
  -22.7412  -29.4660   22.4988 C   0  0  0  0  0  0
  -18.0273  -28.1376   22.8493 C   0  0  0  0  0  0
  -24.1486  -36.7317   23.2639 C   0  0  0  0  0  0
  -25.9314  -30.8365   21.3634 C   0  0  0  0  0  0
  -26.0108  -29.4720   20.7094 C   0  0  0  0  0  0
  -27.2078  -28.7184   20.6994 C   0  0  0  0  0  0
  -26.0568  -26.9462   19.4893 C   0  0  0  0  0  0
  -24.8675  -27.6975   19.4983 C   0  0  0  0  0  0
  -23.6110  -29.8264   20.1647 C   0  0  0  0  0  0
  -25.4106  -36.3116   24.0339 C   0  0  1  0  0  0
  -20.5864  -28.3662   23.1318 C   0  0  2  0  0  0
  -20.6763  -26.9399   22.5418 C   0  0  0  0  0  0
  -19.5743  -26.6385   21.5213 C   0  0  0  0  0  0
  -18.1920  -26.7924   22.1623 C   0  0  0  0  0  0
  -19.1522  -28.8836   23.2903 C   0  0  0  0  0  0
  -18.9450  -30.1442   23.8913 C   0  0  0  0  0  0
  -17.6453  -30.6583   24.0566 C   0  0  0  0  0  0
  -25.9032  -34.9479   23.5133 C   0  0  0  0  0  0
  -16.5344  -29.9086   23.6326 C   0  0  0  0  0  0
  -16.7262  -28.6502   23.0348 C   0  0  0  0  0  0
  -26.4468  -31.6601   25.0725 C   0  0  0  0  0  0
  -25.3739  -31.3701   26.1477 C   0  0  0  0  0  0
  -27.0296  -30.3046   24.6091 C   0  0  0  0  0  0
  -27.6048  -32.4317   25.7484 C   0  0  0  0  0  0
  -27.5581  -37.1813   24.8466 C   0  0  0  0  0  0
  -21.4140  -29.3031   22.3727 N   0  0  0  0  0  0
  -26.4295  -37.3797   23.9408 N   0  0  0  0  0  0
  -24.6677  -31.0793   22.1004 N   0  0  0  0  0  0
  -23.4186  -28.8202   23.3029 O   0  0  0  0  0  0
  -28.3637  -26.6573   20.1158 O   0  0  0  0  0  0
  -26.5594  -34.8928   22.4695 O   0  0  0  0  0  0
  -23.5337  -32.1431   23.7505 O   0  0  0  0  0  0
  -28.7338  -18.5569   21.6584 C   0  0  0  0  0  0
  -28.4680  -19.9636   21.6270 C   0  0  0  0  0  0
  -29.7666  -18.1898   20.8368 C   0  0  0  0  0  0
  -29.2870  -20.6778   20.7760 C   0  0  0  0  0  0
  -30.3177  -16.8891   20.5709 C   0  0  0  0  0  0
  -29.9480  -15.6543   20.9922 C   0  0  0  0  0  0
  -28.2049  -25.4160   20.6957 C   0  0  0  0  0  0
  -28.8796  -24.3082   20.3207 C   0  0  0  0  0  0
  -28.6012  -23.0280   20.9879 C   0  0  0  0  0  0
  -29.3145  -22.0086   20.4695 N   0  0  0  0  0  0
  -27.8049  -22.8851   21.9199 O   0  0  0  0  0  0
  -29.7878  -24.3799   19.3337 O   0  0  0  0  0  0
  -30.4161  -19.5836   20.0047 S   0  0  0  0  0  0
  -31.4644  -12.3751   19.1412 H   0  0  0  0  0  0
  -30.3022  -11.2921   19.8433 H   0  0  0  0  0  0
  -29.7391  -11.7709   17.4396 H   0  0  0  0  0  0
  -29.6751  -13.4828   17.7769 H   0  0  0  0  0  0
  -27.8197  -11.3133   18.8136 H   0  0  0  0  0  0
  -27.3712  -12.6467   17.7844 H   0  0  0  0  0  0
  -27.7042  -14.2582   19.5770 H   0  0  0  0  0  0
  -28.6763  -11.9557   21.3310 H   0  0  0  0  0  0
  -28.4596  -13.5770   21.8833 H   0  0  0  0  0  0
  -25.2759   -9.5689   22.4751 H   0  0  0  0  0  0
  -24.0000   -7.4640   22.7473 H   0  0  0  0  0  0
  -21.0836   -8.8771   19.8953 H   0  0  0  0  0  0
  -22.3689  -10.9671   19.6160 H   0  0  0  0  0  0
  -21.2006   -7.6147   23.9714 H   0  0  0  0  0  0
  -21.1481   -6.0522   25.9076 H   0  0  0  0  0  0
  -22.0599   -2.7609   23.2846 H   0  0  0  0  0  0
  -22.4116  -11.9890   22.4782 H   0  0  0  0  0  0
  -21.1122  -13.1262   22.2611 H   0  0  0  0  0  0
  -24.6704  -15.8490   20.5244 H   0  0  0  0  0  0
  -26.2945  -15.6267   20.1115 H   0  0  0  0  0  0
  -26.7112  -32.5544   23.1172 H   0  0  0  0  0  0
  -25.0053  -33.9789   25.0483 H   0  0  0  0  0  0
  -22.6910  -31.3090   21.4128 H   0  0  0  0  0  0
  -23.3743  -35.9656   23.3315 H   0  0  0  0  0  0
  -24.3580  -36.8915   22.2050 H   0  0  0  0  0  0
  -23.7243  -37.6530   23.6641 H   0  0  0  0  0  0
  -26.0429  -31.6036   20.5958 H   0  0  0  0  0  0
  -26.8195  -30.8898   21.9813 H   0  0  0  0  0  0
  -28.1037  -29.1027   21.1667 H   0  0  0  0  0  0
  -26.0613  -25.9734   19.0179 H   0  0  0  0  0  0
  -23.9761  -27.2988   19.0338 H   0  0  0  0  0  0
  -23.7172  -30.6022   19.4056 H   0  0  0  0  0  0
  -22.7355  -29.2452   19.8694 H   0  0  0  0  0  0
  -25.1283  -36.1986   25.0833 H   0  0  0  0  0  0
  -20.9956  -28.3226   24.1438 H   0  0  0  0  0  0
  -20.5665  -26.2269   23.3604 H   0  0  0  0  0  0
  -21.6635  -26.7442   22.1211 H   0  0  0  0  0  0
  -19.6904  -25.6300   21.1231 H   0  0  0  0  0  0
  -19.6684  -27.3206   20.6752 H   0  0  0  0  0  0
  -17.4192  -26.6677   21.4022 H   0  0  0  0  0  0
  -18.0318  -26.0060   22.9013 H   0  0  0  0  0  0
  -19.7927  -30.7253   24.2290 H   0  0  0  0  0  0
  -17.5009  -31.6265   24.5164 H   0  0  0  0  0  0
  -15.5345  -30.2993   23.7641 H   0  0  0  0  0  0
  -15.8662  -28.0828   22.7053 H   0  0  0  0  0  0
  -24.5912  -30.7047   25.7815 H   0  0  0  0  0  0
  -24.8929  -32.2853   26.4938 H   0  0  0  0  0  0
  -25.8098  -30.8863   27.0226 H   0  0  0  0  0  0
  -26.2836  -29.6812   24.1147 H   0  0  0  0  0  0
  -27.4075  -29.7276   25.4541 H   0  0  0  0  0  0
  -27.8667  -30.4370   23.9232 H   0  0  0  0  0  0
  -27.2670  -33.3603   26.2097 H   0  0  0  0  0  0
  -28.3838  -32.6898   25.0298 H   0  0  0  0  0  0
  -28.0739  -31.8419   26.5370 H   0  0  0  0  0  0
  -28.2610  -38.0100   24.7505 H   0  0  0  0  0  0
  -28.1065  -36.2632   24.6300 H   0  0  0  0  0  0
  -27.2299  -37.1476   25.8869 H   0  0  0  0  0  0
  -20.9298  -29.8757   21.6954 H   0  0  0  0  0  0
  -26.0188  -38.2879   24.1402 H   0  0  0  0  0  0
  -28.1604  -17.8791   22.2749 H   0  0  0  0  0  0
  -27.6754  -20.3866   22.2274 H   0  0  0  0  0  0
  -31.1739  -16.9407   19.9106 H   0  0  0  0  0  0
  -29.1012  -15.5624   21.6524 H   0  0  0  0  0  0
  -27.4648  -25.4202   21.4879 H   0  0  0  0  0  0
  -29.9480  -22.2991   19.7348 H   0  0  0  0  0  0
  -29.8051  -25.2845   19.0462 H   0  0  0  0  0  0
  1 25  1  0  0  0
  1 30  2  0  0  0
  1 76  1  0  0  0
  2  3  1  0  0  0
  2 25  1  0  0  0
  2 84  1  0  0  0
  2 85  1  0  0  0
  3  4  1  0  0  0
  3 86  1  0  0  0
  3 87  1  0  0  0
  4  5  1  0  0  0
  4 88  1  0  0  0
  4 89  1  0  0  0
  5  6  1  0  0  0
  5 26  1  0  0  0
  5 90  1  0  0  0
  6 25  1  0  0  0
  6 91  1  0  0  0
  6 92  1  0  0  0
  7  8  2  0  0  0
  7 26  1  0  0  0
  7 29  1  0  0  0
  8  9  1  0  0  0
  8 22  1  0  0  0
  9 10  1  0  0  0
  9 27  2  0  0  0
 10 11  2  0  0  0
 10 15  1  0  0  0
 11 12  1  0  0  0
 11 93  1  0  0  0
 12 13  2  0  0  0
 12 94  1  0  0  0
 13 14  1  0  0  0
 13 31  1  0  0  0
 14 15  2  0  0  0
 14 95  1  0  0  0
 15 96  1  0  0  0
 16 17  2  0  0  0
 16 21  1  0  0  0
 16 31  1  0  0  0
 17 18  1  0  0  0
 17 97  1  0  0  0
 18 19  2  0  0  0
 18 98  1  0  0  0
 19 20  1  0  0  0
 19 24  1  0  0  0
 20 21  2  0  0  0
 20 99  1  0  0  0
 21 23  1  0  0  0
 22 28  1  0  0  0
 22 32  2  0  0  0
 26 27  1  0  0  0
 28100  1  0  0  0
 28101  1  0  0  0
 29102  1  0  0  0
 29103  1  0  0  0
 33 34  1  0  0  0
 33 66  1  0  0  0
 33 70  2  0  0  0
 34 36  1  0  0  0
 34 59  1  0  0  0
 34104  1  0  0  0
 35 44  2  0  0  0
 35 45  1  0  0  0
 35 68  1  0  0  0
 36 56  1  0  0  0
 36105  1  0  0  0
 37 39  1  0  0  0
 37 47  1  0  0  0
 37 66  1  0  0  0
 37106  1  0  0  0
 38 43  2  0  0  0
 38 46  1  0  0  0
 38 47  1  0  0  0
 39 64  1  0  0  0
 39 67  2  0  0  0
 40 52  1  0  0  0
 40 53  2  0  0  0
 40 58  1  0  0  0
 41107  1  0  0  0
 41108  1  0  0  0
 41109  1  0  0  0
 41 48  1  0  0  0
 42 43  1  0  0  0
 42 66  1  0  0  0
 42110  1  0  0  0
 42111  1  0  0  0
 43 44  1  0  0  0
 44112  1  0  0  0
 45 46  2  0  0  0
 45113  1  0  0  0
 46114  1  0  0  0
 47115  1  0  0  0
 47116  1  0  0  0
 48 56  1  0  0  0
 48 65  1  0  0  0
 48117  1  0  0  0
 49 50  1  0  0  0
 49 53  1  0  0  0
 49 64  1  0  0  0
 49118  1  0  0  0
 50 51  1  0  0  0
 50119  1  0  0  0
 50120  1  0  0  0
 51 52  1  0  0  0
 51121  1  0  0  0
 51122  1  0  0  0
 52123  1  0  0  0
 52124  1  0  0  0
 53 54  1  0  0  0
 54 55  2  0  0  0
 54125  1  0  0  0
 55 57  1  0  0  0
 55126  1  0  0  0
 56 69  2  0  0  0
 57 58  2  0  0  0
 57127  1  0  0  0
 58128  1  0  0  0
 59 60  1  0  0  0
 59 61  1  0  0  0
 59 62  1  0  0  0
 60129  1  0  0  0
 60130  1  0  0  0
 60131  1  0  0  0
 61132  1  0  0  0
 61133  1  0  0  0
 61134  1  0  0  0
 62135  1  0  0  0
 62136  1  0  0  0
 62137  1  0  0  0
 63 65  1  0  0  0
 63138  1  0  0  0
 63139  1  0  0  0
 63140  1  0  0  0
 64141  1  0  0  0
 65142  1  0  0  0
 68 77  1  0  0  0
 71 72  1  0  0  0
 71 73  2  0  0  0
 71143  1  0  0  0
 72 74  2  0  0  0
 72144  1  0  0  0
 73 75  1  0  0  0
 73 83  1  0  0  0
 74 80  1  0  0  0
 74 83  1  0  0  0
 75 76  2  0  0  0
 75145  1  0  0  0
 76146  1  0  0  0
 77 78  2  0  0  0
 77147  1  0  0  0
 78 79  1  0  0  0
 78 82  1  0  0  0
 79 80  1  0  0  0
 79 81  2  0  0  0
 80148  1  0  0  0
 82149  1  0  0  0
M  ISO  4   1 100  68 101  76 100  77 101
M  END
> <chiral flag>
0

> <version>
0

> <s_m_source_file>
/data/baiqing/PycharmProjects/Reinvent-master-3.2/result/LINK_invent/BTK/process_docking_weight1_custom_product_contain_oxygen_bond_distance_aromatic_linkinvent_7_9_3/rearranged_h_0178.sdf

> <i_m_source_file_index>
86

> <r_mmod_Potential_Energy-OPLS-2005>
-111.817695617676

> <r_mmod_Stretch_Energy-OPLS-2005>
35.6576538085938

> <r_mmod_Bend_Energy-OPLS-2005>
102.638313293457

> <r_mmod_Torsional_Energy-OPLS-2005>
181.286987304688

> <r_mmod_Improper_Torsional_Energy-OPLS-2005>
3.82102179527283

> <r_mmod_Van_der_Waal_Energy-OPLS-2005>
145.665573120117

> <r_mmod_Electrostatic_Energy-OPLS-2005>
-389.795043945312

> <r_mmod_Solvation_Energy-OPLS-2005>
-206.42839050293

> <b_mmod_Minimization_Converged-OPLS-2005>
0

> <r_mmod_RMS_Derivative-OPLS-2005>
0.0684568807482719

$$$$
86
                    3D
 Structure written by MMmdl.
149157  0  0  1  0            999 V2000
  -30.5810  -14.7672   20.4579 C   0  0  0  0  0  0
  -30.4444  -12.4668   19.4765 C   0  0  0  0  0  0
  -29.5179  -12.5183   18.2396 C   0  0  0  0  0  0
  -28.0438  -12.3349   18.6513 C   0  0  0  0  0  0
  -27.6475  -13.2296   19.8556 C   0  0  2  0  0  0
  -28.6919  -13.1479   20.9916 C   0  0  0  0  0  0
  -25.2538  -13.8188   20.5686 C   0  0  0  0  0  0
  -24.1820  -13.0441   20.9200 C   0  0  0  0  0  0
  -24.6405  -11.6916   20.8736 C   0  0  0  0  0  0
  -23.9077  -10.4292   21.0397 C   0  0  0  0  0  0
  -24.3623   -9.4208   21.9176 C   0  0  0  0  0  0
  -23.6294   -8.2247   22.0749 C   0  0  0  0  0  0
  -22.4274   -8.0282   21.3546 C   0  0  0  0  0  0
  -21.9914   -9.0258   20.4649 C   0  0  0  0  0  0
  -22.7246  -10.2134   20.3053 C   0  0  0  0  0  0
  -21.6857   -6.0735   22.5278 C   0  0  0  0  0  0
  -21.4017   -6.5636   23.8212 C   0  0  0  0  0  0
  -21.3658   -5.6789   24.9171 C   0  0  0  0  0  0
  -21.6043   -4.3051   24.7223 C   0  0  0  0  0  0
  -21.8819   -3.8144   23.4344 C   0  0  0  0  0  0
  -21.9196   -4.6963   22.3400 C   0  0  0  0  0  0
  -22.7840  -13.5226   21.1856 C   0  0  0  0  0  0
  -22.1662   -4.2147   21.0979 F   0  0  0  0  0  0
  -21.5627   -3.4534   25.7737 F   0  0  0  0  0  0
  -29.9963  -13.5178   20.4209 N   0  0  0  0  0  0
  -26.2968  -12.9389   20.3283 N   0  0  0  0  0  0
  -25.9336  -11.6535   20.5740 N   0  0  0  0  0  0
  -22.0487  -12.8220   22.0416 N   0  0  0  0  0  0
  -25.4242  -15.1914   20.4096 N   0  0  0  0  0  0
  -31.7490  -14.9114   20.0882 O   0  0  0  0  0  0
  -21.6641   -6.8877   21.4240 O   0  0  0  0  0  0
  -22.3526  -14.5535   20.6705 O   0  0  0  0  0  0
  -24.6332  -31.8520   23.1968 C   0  0  0  0  0  0
  -25.9147  -32.4735   23.8318 C   0  0  1  0  0  0
  -27.2298  -27.2536   20.1151 C   0  0  0  0  0  0
  -25.5928  -33.8535   24.2241 N   0  0  0  0  0  0
  -23.4315  -30.4735   21.5408 C   0  0  2  0  0  0
  -24.8815  -28.9209   20.1040 C   0  0  0  0  0  0
  -22.7518  -29.4579   22.4912 C   0  0  0  0  0  0
  -18.0290  -28.1390   22.8479 C   0  0  0  0  0  0
  -24.1485  -36.7277   23.2643 C   0  0  0  0  0  0
  -25.9789  -30.7604   21.3799 C   0  0  0  0  0  0
  -26.0529  -29.3834   20.7175 C   0  0  0  0  0  0
  -27.2270  -28.5595   20.7184 C   0  0  0  0  0  0
  -26.0305  -26.8584   19.4812 C   0  0  0  0  0  0
  -24.8758  -27.6661   19.4755 C   0  0  0  0  0  0
  -23.6503  -29.8070   20.1563 C   0  0  0  0  0  0
  -25.4111  -36.3055   24.0329 C   0  0  1  0  0  0
  -20.5895  -28.3696   23.1269 C   0  0  2  0  0  0
  -20.6773  -26.9412   22.5412 C   0  0  0  0  0  0
  -19.5749  -26.6382   21.5213 C   0  0  0  0  0  0
  -18.1930  -26.7929   22.1628 C   0  0  0  0  0  0
  -19.1544  -28.8863   23.2866 C   0  0  0  0  0  0
  -18.9461  -30.1465   23.8879 C   0  0  0  0  0  0
  -17.6457  -30.6589   24.0559 C   0  0  0  0  0  0
  -25.9055  -34.9428   23.5093 C   0  0  0  0  0  0
  -16.5350  -29.9082   23.6337 C   0  0  0  0  0  0
  -16.7274  -28.6508   23.0344 C   0  0  0  0  0  0
  -26.4504  -31.6572   25.0724 C   0  0  0  0  0  0
  -25.3718  -31.3737   26.1444 C   0  0  0  0  0  0
  -27.0350  -30.2976   24.6239 C   0  0  0  0  0  0
  -27.6054  -32.4319   25.7493 C   0  0  0  0  0  0
  -27.5576  -37.1794   24.8467 C   0  0  0  0  0  0
  -21.4223  -29.3035   22.3660 N   0  0  0  0  0  0
  -26.4283  -37.3759   23.9413 N   0  0  0  0  0  0
  -24.7003  -31.0470   22.0952 N   0  0  0  0  0  0
  -23.4213  -28.8124   23.3019 O   0  0  0  0  0  0
  -28.2866  -26.3127   20.2260 O   0  0  0  0  0  0
  -26.5635  -34.8914   22.4665 O   0  0  0  0  0  0
  -23.5479  -32.1343   23.7257 O   0  0  0  0  0  0
  -29.0554  -18.2257   21.3677 C   0  0  0  0  0  0
  -29.8100  -17.3197   20.5606 C   0  0  0  0  0  0
  -30.4536  -17.9833   19.4795 C   0  0  0  0  0  0
  -30.2941  -19.3960   19.2593 C   0  0  0  0  0  0
  -29.4991  -20.2174   20.1162 C   0  0  0  0  0  0
  -28.4847  -25.3172   19.2366 C   0  0  0  0  0  0
  -28.7593  -23.9427   19.1839 C   0  0  0  0  0  0
  -28.8994  -22.8507   20.2290 C   0  0  0  0  0  0
  -28.9092  -19.5863   21.1762 N   0  0  0  0  0  0
  -29.7758  -15.8416   20.8118 N   0  0  0  0  0  0
  -29.3239  -21.6353   19.6951 N   0  0  0  0  0  0
  -28.6693  -23.0039   21.4299 O   0  0  0  0  0  0
  -28.9181  -23.4889   17.9263 O   0  0  0  0  0  0
  -31.1850  -17.2648   18.5924 F   0  0  0  0  0  0
  -30.8928  -19.9674   18.1834 F   0  0  0  0  0  0
  -31.4841  -12.6034   19.1738 H   0  0  0  0  0  0
  -30.3993  -11.4855   19.9506 H   0  0  0  0  0  0
  -29.8034  -11.7496   17.5204 H   0  0  0  0  0  0
  -29.6396  -13.4743   17.7274 H   0  0  0  0  0  0
  -27.9021  -11.2853   18.9105 H   0  0  0  0  0  0
  -27.3866  -12.5288   17.8026 H   0  0  0  0  0  0
  -27.6462  -14.2537   19.4816 H   0  0  0  0  0  0
  -28.7313  -12.1410   21.4092 H   0  0  0  0  0  0
  -28.4174  -13.8048   21.8185 H   0  0  0  0  0  0
  -25.2767   -9.5680   22.4754 H   0  0  0  0  0  0
  -23.9999   -7.4637   22.7469 H   0  0  0  0  0  0
  -21.0845   -8.8781   19.8961 H   0  0  0  0  0  0
  -22.3700  -10.9669   19.6164 H   0  0  0  0  0  0
  -21.2012   -7.6143   23.9709 H   0  0  0  0  0  0
  -21.1478   -6.0519   25.9073 H   0  0  0  0  0  0
  -22.0602   -2.7606   23.2843 H   0  0  0  0  0  0
  -22.4098  -11.9883   22.4811 H   0  0  0  0  0  0
  -21.1108  -13.1247   22.2622 H   0  0  0  0  0  0
  -24.6526  -15.8421   20.5089 H   0  0  0  0  0  0
  -26.2629  -15.6250   20.0453 H   0  0  0  0  0  0
  -26.7216  -32.5378   23.1059 H   0  0  0  0  0  0
  -25.0045  -33.9657   25.0367 H   0  0  0  0  0  0
  -22.7289  -31.2964   21.3953 H   0  0  0  0  0  0
  -23.3746  -35.9610   23.3296 H   0  0  0  0  0  0
  -24.3574  -36.8903   22.2060 H   0  0  0  0  0  0
  -23.7244  -37.6481   23.6666 H   0  0  0  0  0  0
  -26.1222  -31.5219   20.6123 H   0  0  0  0  0  0
  -26.8542  -30.8065   22.0163 H   0  0  0  0  0  0
  -28.1182  -28.9008   21.2258 H   0  0  0  0  0  0
  -25.9574  -25.8821   19.0243 H   0  0  0  0  0  0
  -23.9764  -27.3028   18.9979 H   0  0  0  0  0  0
  -23.7722  -30.5837   19.4001 H   0  0  0  0  0  0
  -22.7683  -29.2392   19.8535 H   0  0  0  0  0  0
  -25.1293  -36.1894   25.0821 H   0  0  0  0  0  0
  -20.9978  -28.3267   24.1392 H   0  0  0  0  0  0
  -20.5663  -26.2302   23.3614 H   0  0  0  0  0  0
  -21.6641  -26.7425   22.1210 H   0  0  0  0  0  0
  -19.6905  -25.6289   21.1245 H   0  0  0  0  0  0
  -19.6688  -27.3188   20.6740 H   0  0  0  0  0  0
  -17.4197  -26.6663   21.4035 H   0  0  0  0  0  0
  -18.0341  -26.0082   22.9037 H   0  0  0  0  0  0
  -19.7936  -30.7289   24.2242 H   0  0  0  0  0  0
  -17.5010  -31.6265   24.5165 H   0  0  0  0  0  0
  -15.5347  -30.2967   23.7686 H   0  0  0  0  0  0
  -15.8675  -28.0826   22.7054 H   0  0  0  0  0  0
  -24.5872  -30.7110   25.7775 H   0  0  0  0  0  0
  -24.8940  -32.2913   26.4880 H   0  0  0  0  0  0
  -25.8028  -30.8896   27.0212 H   0  0  0  0  0  0
  -26.2938  -29.6726   24.1247 H   0  0  0  0  0  0
  -27.3988  -29.7250   25.4780 H   0  0  0  0  0  0
  -27.8832  -30.4237   23.9508 H   0  0  0  0  0  0
  -27.2653  -33.3620   26.2058 H   0  0  0  0  0  0
  -28.3860  -32.6876   25.0317 H   0  0  0  0  0  0
  -28.0717  -31.8452   26.5418 H   0  0  0  0  0  0
  -28.2594  -38.0094   24.7505 H   0  0  0  0  0  0
  -28.1068  -36.2622   24.6282 H   0  0  0  0  0  0
  -27.2297  -37.1435   25.8873 H   0  0  0  0  0  0
  -20.9420  -29.8749   21.6852 H   0  0  0  0  0  0
  -26.0159  -38.2829   24.1408 H   0  0  0  0  0  0
  -28.5064  -17.8323   22.2108 H   0  0  0  0  0  0
  -28.4189  -25.8293   18.2853 H   0  0  0  0  0  0
  -28.9315  -15.5305   21.2686 H   0  0  0  0  0  0
  -29.5644  -21.7714   18.7214 H   0  0  0  0  0  0
  -28.8012  -24.2231   17.3377 H   0  0  0  0  0  0
  1 25  1  0  0  0
  1 30  2  0  0  0
  1 80  1  0  0  0
  2  3  1  0  0  0
  2 25  1  0  0  0
  2 86  1  0  0  0
  2 87  1  0  0  0
  3  4  1  0  0  0
  3 88  1  0  0  0
  3 89  1  0  0  0
  4  5  1  0  0  0
  4 90  1  0  0  0
  4 91  1  0  0  0
  5  6  1  0  0  0
  5 26  1  0  0  0
  5 92  1  0  0  0
  6 25  1  0  0  0
  6 93  1  0  0  0
  6 94  1  0  0  0
  7  8  2  0  0  0
  7 26  1  0  0  0
  7 29  1  0  0  0
  8  9  1  0  0  0
  8 22  1  0  0  0
  9 10  1  0  0  0
  9 27  2  0  0  0
 10 11  2  0  0  0
 10 15  1  0  0  0
 11 12  1  0  0  0
 11 95  1  0  0  0
 12 13  2  0  0  0
 12 96  1  0  0  0
 13 14  1  0  0  0
 13 31  1  0  0  0
 14 15  2  0  0  0
 14 97  1  0  0  0
 15 98  1  0  0  0
 16 17  2  0  0  0
 16 21  1  0  0  0
 16 31  1  0  0  0
 17 18  1  0  0  0
 17 99  1  0  0  0
 18 19  2  0  0  0
 18100  1  0  0  0
 19 20  1  0  0  0
 19 24  1  0  0  0
 20 21  2  0  0  0
 20101  1  0  0  0
 21 23  1  0  0  0
 22 28  1  0  0  0
 22 32  2  0  0  0
 26 27  1  0  0  0
 28102  1  0  0  0
 28103  1  0  0  0
 29104  1  0  0  0
 29105  1  0  0  0
 33 34  1  0  0  0
 33 66  1  0  0  0
 33 70  2  0  0  0
 34 36  1  0  0  0
 34 59  1  0  0  0
 34106  1  0  0  0
 35 44  2  0  0  0
 35 45  1  0  0  0
 35 68  1  0  0  0
 36 56  1  0  0  0
 36107  1  0  0  0
 37 39  1  0  0  0
 37 47  1  0  0  0
 37 66  1  0  0  0
 37108  1  0  0  0
 38 43  2  0  0  0
 38 46  1  0  0  0
 38 47  1  0  0  0
 39 64  1  0  0  0
 39 67  2  0  0  0
 40 52  1  0  0  0
 40 53  2  0  0  0
 40 58  1  0  0  0
 41109  1  0  0  0
 41110  1  0  0  0
 41111  1  0  0  0
 41 48  1  0  0  0
 42 43  1  0  0  0
 42 66  1  0  0  0
 42112  1  0  0  0
 42113  1  0  0  0
 43 44  1  0  0  0
 44114  1  0  0  0
 45 46  2  0  0  0
 45115  1  0  0  0
 46116  1  0  0  0
 47117  1  0  0  0
 47118  1  0  0  0
 48 56  1  0  0  0
 48 65  1  0  0  0
 48119  1  0  0  0
 49 50  1  0  0  0
 49 53  1  0  0  0
 49 64  1  0  0  0
 49120  1  0  0  0
 50 51  1  0  0  0
 50121  1  0  0  0
 50122  1  0  0  0
 51 52  1  0  0  0
 51123  1  0  0  0
 51124  1  0  0  0
 52125  1  0  0  0
 52126  1  0  0  0
 53 54  1  0  0  0
 54 55  2  0  0  0
 54127  1  0  0  0
 55 57  1  0  0  0
 55128  1  0  0  0
 56 69  2  0  0  0
 57 58  2  0  0  0
 57129  1  0  0  0
 58130  1  0  0  0
 59 60  1  0  0  0
 59 61  1  0  0  0
 59 62  1  0  0  0
 60131  1  0  0  0
 60132  1  0  0  0
 60133  1  0  0  0
 61134  1  0  0  0
 61135  1  0  0  0
 61136  1  0  0  0
 62137  1  0  0  0
 62138  1  0  0  0
 62139  1  0  0  0
 63 65  1  0  0  0
 63140  1  0  0  0
 63141  1  0  0  0
 63142  1  0  0  0
 64143  1  0  0  0
 65144  1  0  0  0
 68 76  1  0  0  0
 71 72  2  0  0  0
 71 79  1  0  0  0
 71145  1  0  0  0
 72 73  1  0  0  0
 72 80  1  0  0  0
 73 74  2  0  0  0
 73 84  1  0  0  0
 74 75  1  0  0  0
 74 85  1  0  0  0
 75 79  2  0  0  0
 75 81  1  0  0  0
 76 77  2  0  0  0
 76146  1  0  0  0
 77 78  1  0  0  0
 77 83  1  0  0  0
 78 81  1  0  0  0
 78 82  2  0  0  0
 80147  1  0  0  0
 81148  1  0  0  0
 83149  1  0  0  0
M  ISO  4   1 100  68 101  76 101  80 100
M  END
> <chiral flag>
0

> <version>
0

> <s_m_source_file>
/data/baiqing/PycharmProjects/Reinvent-master-3.2/result/LINK_invent/BTK/process_docking_weight1_custom_product_contain_oxygen_bond_distance_aromatic_linkinvent_7_9_3/rearranged_h_0178.sdf

> <i_m_source_file_index>
87

> <r_mmod_Potential_Energy-OPLS-2005>
-15.8366889953613

> <r_mmod_Stretch_Energy-OPLS-2005>
120.2841796875

> <r_mmod_Bend_Energy-OPLS-2005>
231.165390014648

> <r_mmod_Torsional_Energy-OPLS-2005>
217.214935302734

> <r_mmod_Improper_Torsional_Energy-OPLS-2005>
4.37438058853149

> <r_mmod_Van_der_Waal_Energy-OPLS-2005>
146.432846069336

> <r_mmod_Electrostatic_Energy-OPLS-2005>
-574.385864257812

> <r_mmod_Solvation_Energy-OPLS-2005>
-259.398315429688

> <b_mmod_Minimization_Converged-OPLS-2005>
0

> <r_mmod_RMS_Derivative-OPLS-2005>
1.10653507709503

$$$$
87
                    3D
 Structure written by MMmdl.
149157  0  0  1  0            999 V2000
  -30.5752  -14.7281   20.4598 C   0  0  0  0  0  0
  -30.4427  -12.4393   19.4638 C   0  0  0  0  0  0
  -29.5137  -12.5024   18.2298 C   0  0  0  0  0  0
  -28.0399  -12.3205   18.6459 C   0  0  0  0  0  0
  -27.6452  -13.2161   19.8501 C   0  0  2  0  0  0
  -28.6896  -13.1207   20.9849 C   0  0  0  0  0  0
  -25.2537  -13.8157   20.5664 C   0  0  0  0  0  0
  -24.1816  -13.0426   20.9198 C   0  0  0  0  0  0
  -24.6379  -11.6895   20.8732 C   0  0  0  0  0  0
  -23.9052  -10.4277   21.0404 C   0  0  0  0  0  0
  -24.3609   -9.4199   21.9182 C   0  0  0  0  0  0
  -23.6276   -8.2239   22.0759 C   0  0  0  0  0  0
  -22.4263   -8.0270   21.3546 C   0  0  0  0  0  0
  -21.9897   -9.0243   20.4648 C   0  0  0  0  0  0
  -22.7226  -10.2119   20.3050 C   0  0  0  0  0  0
  -21.6854   -6.0723   22.5275 C   0  0  0  0  0  0
  -21.4013   -6.5633   23.8206 C   0  0  0  0  0  0
  -21.3658   -5.6787   24.9172 C   0  0  0  0  0  0
  -21.6047   -4.3050   24.7226 C   0  0  0  0  0  0
  -21.8815   -3.8138   23.4350 C   0  0  0  0  0  0
  -21.9189   -4.6950   22.3405 C   0  0  0  0  0  0
  -22.7846  -13.5226   21.1870 C   0  0  0  0  0  0
  -22.1658   -4.2134   21.0984 F   0  0  0  0  0  0
  -21.5629   -3.4538   25.7744 F   0  0  0  0  0  0
  -29.9940  -13.4820   20.4119 N   0  0  0  0  0  0
  -26.2947  -12.9328   20.3254 N   0  0  0  0  0  0
  -25.9303  -11.6489   20.5729 N   0  0  0  0  0  0
  -22.0474  -12.8217   22.0415 N   0  0  0  0  0  0
  -25.4231  -15.1888   20.4076 N   0  0  0  0  0  0
  -31.7625  -14.8726   20.1465 O   0  0  0  0  0  0
  -21.6636   -6.8864   21.4237 O   0  0  0  0  0  0
  -22.3534  -14.5531   20.6712 O   0  0  0  0  0  0
  -24.6293  -31.8564   23.1971 C   0  0  0  0  0  0
  -25.9126  -32.4762   23.8320 C   0  0  1  0  0  0
  -27.2268  -27.2864   20.1326 C   0  0  0  0  0  0
  -25.5939  -33.8566   24.2264 N   0  0  0  0  0  0
  -23.4251  -30.4757   21.5411 C   0  0  2  0  0  0
  -24.8738  -28.9186   20.1163 C   0  0  0  0  0  0
  -22.7488  -29.4599   22.4926 C   0  0  0  0  0  0
  -18.0289  -28.1398   22.8482 C   0  0  0  0  0  0
  -24.1497  -36.7282   23.2642 C   0  0  0  0  0  0
  -25.9674  -30.7781   21.3710 C   0  0  0  0  0  0
  -26.0432  -29.3998   20.7183 C   0  0  0  0  0  0
  -27.2266  -28.5982   20.7081 C   0  0  0  0  0  0
  -26.0350  -26.8538   19.5183 C   0  0  0  0  0  0
  -24.8727  -27.6527   19.5060 C   0  0  0  0  0  0
  -23.6417  -29.8019   20.1596 C   0  0  0  0  0  0
  -25.4122  -36.3072   24.0334 C   0  0  1  0  0  0
  -20.5888  -28.3698   23.1287 C   0  0  2  0  0  0
  -20.6785  -26.9420   22.5411 C   0  0  0  0  0  0
  -19.5758  -26.6382   21.5221 C   0  0  0  0  0  0
  -18.1931  -26.7941   22.1616 C   0  0  0  0  0  0
  -19.1540  -28.8862   23.2882 C   0  0  0  0  0  0
  -18.9464  -30.1467   23.8898 C   0  0  0  0  0  0
  -17.6467  -30.6599   24.0561 C   0  0  0  0  0  0
  -25.9050  -34.9445   23.5094 C   0  0  0  0  0  0
  -16.5360  -29.9094   23.6337 C   0  0  0  0  0  0
  -16.7274  -28.6519   23.0352 C   0  0  0  0  0  0
  -26.4507  -31.6588   25.0707 C   0  0  0  0  0  0
  -25.3733  -31.3728   26.1428 C   0  0  0  0  0  0
  -27.0378  -30.3020   24.6167 C   0  0  0  0  0  0
  -27.6057  -32.4340   25.7485 C   0  0  0  0  0  0
  -27.5588  -37.1784   24.8464 C   0  0  0  0  0  0
  -21.4196  -29.3054   22.3683 N   0  0  0  0  0  0
  -26.4295  -37.3769   23.9416 N   0  0  0  0  0  0
  -24.6932  -31.0544   22.0935 N   0  0  0  0  0  0
  -23.4203  -28.8136   23.3014 O   0  0  0  0  0  0
  -28.3408  -26.4296   20.1198 O   0  0  0  0  0  0
  -26.5612  -34.8921   22.4654 O   0  0  0  0  0  0
  -23.5445  -32.1376   23.7285 O   0  0  0  0  0  0
  -29.3845  -19.8171   20.2169 C   0  0  0  0  0  0
  -30.6784  -19.4209   20.5449 C   0  0  0  0  0  0
  -29.7949  -17.2576   20.5053 C   0  0  0  0  0  0
  -29.0872  -22.4602   20.3259 C   0  0  0  0  0  0
  -28.8099  -21.1688   19.8856 C   0  0  0  0  0  0
  -28.5206  -23.8008   19.7844 C   0  0  0  0  0  0
  -28.2098  -25.0604   20.7122 C   0  0  0  0  0  0
  -30.8915  -18.0181   20.6866 N   0  0  0  0  0  0
  -31.7743  -20.2714   20.6973 N   0  0  0  0  0  0
  -29.7076  -15.7888   20.6495 N   0  0  0  0  0  0
  -28.3027  -23.9499   18.5767 O   0  0  0  0  0  0
  -27.8818  -21.0383   18.9228 O   0  0  0  0  0  0
  -28.3926  -18.3276   20.1562 S   0  0  0  0  0  0
  -31.4826  -12.5773   19.1632 H   0  0  0  0  0  0
  -30.3947  -11.4536   19.9296 H   0  0  0  0  0  0
  -29.7952  -11.7339   17.5086 H   0  0  0  0  0  0
  -29.6381  -13.4595   17.7211 H   0  0  0  0  0  0
  -27.9051  -11.2711   18.9123 H   0  0  0  0  0  0
  -27.3778  -12.5050   17.7987 H   0  0  0  0  0  0
  -27.6441  -14.2394   19.4749 H   0  0  0  0  0  0
  -28.7204  -12.1118   21.3984 H   0  0  0  0  0  0
  -28.4233  -13.7755   21.8162 H   0  0  0  0  0  0
  -25.2750   -9.5680   22.4763 H   0  0  0  0  0  0
  -23.9979   -7.4638   22.7489 H   0  0  0  0  0  0
  -21.0826   -8.8757   19.8957 H   0  0  0  0  0  0
  -22.3679  -10.9659   19.6160 H   0  0  0  0  0  0
  -21.2004   -7.6138   23.9703 H   0  0  0  0  0  0
  -21.1490   -6.0524   25.9073 H   0  0  0  0  0  0
  -22.0595   -2.7595   23.2858 H   0  0  0  0  0  0
  -22.4070  -11.9873   22.4806 H   0  0  0  0  0  0
  -21.1098  -13.1262   22.2619 H   0  0  0  0  0  0
  -24.6454  -15.8325   20.5088 H   0  0  0  0  0  0
  -26.2467  -15.6288   20.0199 H   0  0  0  0  0  0
  -26.7195  -32.5418   23.1064 H   0  0  0  0  0  0
  -25.0142  -33.9711   25.0448 H   0  0  0  0  0  0
  -22.7207  -31.2962   21.3907 H   0  0  0  0  0  0
  -23.3773  -35.9592   23.3276 H   0  0  0  0  0  0
  -24.3596  -36.8927   22.2061 H   0  0  0  0  0  0
  -23.7228  -37.6467   23.6682 H   0  0  0  0  0  0
  -26.0998  -31.5373   20.5995 H   0  0  0  0  0  0
  -26.8483  -30.8309   21.9991 H   0  0  0  0  0  0
  -28.1299  -28.9680   21.1720 H   0  0  0  0  0  0
  -26.0005  -25.8804   19.0494 H   0  0  0  0  0  0
  -23.9759  -27.2760   19.0346 H   0  0  0  0  0  0
  -23.7609  -30.5750   19.3996 H   0  0  0  0  0  0
  -22.7622  -29.2297   19.8580 H   0  0  0  0  0  0
  -25.1295  -36.1915   25.0826 H   0  0  0  0  0  0
  -20.9974  -28.3275   24.1414 H   0  0  0  0  0  0
  -20.5710  -26.2302   23.3613 H   0  0  0  0  0  0
  -21.6646  -26.7454   22.1184 H   0  0  0  0  0  0
  -19.6923  -25.6289   21.1267 H   0  0  0  0  0  0
  -19.6713  -27.3183   20.6746 H   0  0  0  0  0  0
  -17.4203  -26.6709   21.4015 H   0  0  0  0  0  0
  -18.0308  -26.0086   22.9009 H   0  0  0  0  0  0
  -19.7945  -30.7288   24.2262 H   0  0  0  0  0  0
  -17.5021  -31.6281   24.5157 H   0  0  0  0  0  0
  -15.5362  -30.3000   23.7671 H   0  0  0  0  0  0
  -15.8672  -28.0843   22.7069 H   0  0  0  0  0  0
  -24.5921  -30.7064   25.7749 H   0  0  0  0  0  0
  -24.8911  -32.2897   26.4832 H   0  0  0  0  0  0
  -25.8048  -30.8920   27.0215 H   0  0  0  0  0  0
  -26.2960  -29.6745   24.1210 H   0  0  0  0  0  0
  -27.4125  -29.7297   25.4663 H   0  0  0  0  0  0
  -27.8797  -30.4340   23.9366 H   0  0  0  0  0  0
  -27.2662  -33.3660   26.2020 H   0  0  0  0  0  0
  -28.3886  -32.6868   25.0323 H   0  0  0  0  0  0
  -28.0703  -31.8494   26.5435 H   0  0  0  0  0  0
  -28.2560  -38.0120   24.7539 H   0  0  0  0  0  0
  -28.1126  -36.2648   24.6246 H   0  0  0  0  0  0
  -27.2307  -37.1368   25.8864 H   0  0  0  0  0  0
  -20.9382  -29.8790   21.6892 H   0  0  0  0  0  0
  -26.0176  -38.2838   24.1426 H   0  0  0  0  0  0
  -29.8080  -22.5715   21.1229 H   0  0  0  0  0  0
  -28.8741  -25.0086   21.5746 H   0  0  0  0  0  0
  -27.2024  -24.9348   21.1097 H   0  0  0  0  0  0
  -31.7087  -21.2229   20.3552 H   0  0  0  0  0  0
  -32.7087  -19.8788   20.6621 H   0  0  0  0  0  0
  -28.7668  -15.4659   20.8064 H   0  0  0  0  0  0
  -27.7990  -20.1149   18.7212 H   0  0  0  0  0  0
  1 25  1  0  0  0
  1 30  2  0  0  0
  1 80  1  0  0  0
  2  3  1  0  0  0
  2 25  1  0  0  0
  2 84  1  0  0  0
  2 85  1  0  0  0
  3  4  1  0  0  0
  3 86  1  0  0  0
  3 87  1  0  0  0
  4  5  1  0  0  0
  4 88  1  0  0  0
  4 89  1  0  0  0
  5  6  1  0  0  0
  5 26  1  0  0  0
  5 90  1  0  0  0
  6 25  1  0  0  0
  6 91  1  0  0  0
  6 92  1  0  0  0
  7  8  2  0  0  0
  7 26  1  0  0  0
  7 29  1  0  0  0
  8  9  1  0  0  0
  8 22  1  0  0  0
  9 10  1  0  0  0
  9 27  2  0  0  0
 10 11  2  0  0  0
 10 15  1  0  0  0
 11 12  1  0  0  0
 11 93  1  0  0  0
 12 13  2  0  0  0
 12 94  1  0  0  0
 13 14  1  0  0  0
 13 31  1  0  0  0
 14 15  2  0  0  0
 14 95  1  0  0  0
 15 96  1  0  0  0
 16 17  2  0  0  0
 16 21  1  0  0  0
 16 31  1  0  0  0
 17 18  1  0  0  0
 17 97  1  0  0  0
 18 19  2  0  0  0
 18 98  1  0  0  0
 19 20  1  0  0  0
 19 24  1  0  0  0
 20 21  2  0  0  0
 20 99  1  0  0  0
 21 23  1  0  0  0
 22 28  1  0  0  0
 22 32  2  0  0  0
 26 27  1  0  0  0
 28100  1  0  0  0
 28101  1  0  0  0
 29102  1  0  0  0
 29103  1  0  0  0
 33 34  1  0  0  0
 33 66  1  0  0  0
 33 70  2  0  0  0
 34 36  1  0  0  0
 34 59  1  0  0  0
 34104  1  0  0  0
 35 44  2  0  0  0
 35 45  1  0  0  0
 35 68  1  0  0  0
 36 56  1  0  0  0
 36105  1  0  0  0
 37 39  1  0  0  0
 37 47  1  0  0  0
 37 66  1  0  0  0
 37106  1  0  0  0
 38 43  2  0  0  0
 38 46  1  0  0  0
 38 47  1  0  0  0
 39 64  1  0  0  0
 39 67  2  0  0  0
 40 52  1  0  0  0
 40 53  2  0  0  0
 40 58  1  0  0  0
 41107  1  0  0  0
 41108  1  0  0  0
 41109  1  0  0  0
 41 48  1  0  0  0
 42 43  1  0  0  0
 42 66  1  0  0  0
 42110  1  0  0  0
 42111  1  0  0  0
 43 44  1  0  0  0
 44112  1  0  0  0
 45 46  2  0  0  0
 45113  1  0  0  0
 46114  1  0  0  0
 47115  1  0  0  0
 47116  1  0  0  0
 48 56  1  0  0  0
 48 65  1  0  0  0
 48117  1  0  0  0
 49 50  1  0  0  0
 49 53  1  0  0  0
 49 64  1  0  0  0
 49118  1  0  0  0
 50 51  1  0  0  0
 50119  1  0  0  0
 50120  1  0  0  0
 51 52  1  0  0  0
 51121  1  0  0  0
 51122  1  0  0  0
 52123  1  0  0  0
 52124  1  0  0  0
 53 54  1  0  0  0
 54 55  2  0  0  0
 54125  1  0  0  0
 55 57  1  0  0  0
 55126  1  0  0  0
 56 69  2  0  0  0
 57 58  2  0  0  0
 57127  1  0  0  0
 58128  1  0  0  0
 59 60  1  0  0  0
 59 61  1  0  0  0
 59 62  1  0  0  0
 60129  1  0  0  0
 60130  1  0  0  0
 60131  1  0  0  0
 61132  1  0  0  0
 61133  1  0  0  0
 61134  1  0  0  0
 62135  1  0  0  0
 62136  1  0  0  0
 62137  1  0  0  0
 63 65  1  0  0  0
 63138  1  0  0  0
 63139  1  0  0  0
 63140  1  0  0  0
 64141  1  0  0  0
 65142  1  0  0  0
 68 77  1  0  0  0
 71 72  2  0  0  0
 71 75  1  0  0  0
 71 83  1  0  0  0
 72 78  1  0  0  0
 72 79  1  0  0  0
 73 78  2  0  0  0
 73 80  1  0  0  0
 73 83  1  0  0  0
 74 75  2  0  0  0
 74 76  1  0  0  0
 74143  1  0  0  0
 75 82  1  0  0  0
 76 77  1  0  0  0
 76 81  2  0  0  0
 77144  1  0  0  0
 77145  1  0  0  0
 79146  1  0  0  0
 79147  1  0  0  0
 80148  1  0  0  0
 82149  1  0  0  0
M  ISO  4   1 100  68 101  77 101  80 100
M  END
> <chiral flag>
0

> <version>
0

> <s_m_source_file>
/data/baiqing/PycharmProjects/Reinvent-master-3.2/result/LINK_invent/BTK/process_docking_weight1_custom_product_contain_oxygen_bond_distance_aromatic_linkinvent_7_9_3/rearranged_h_0178.sdf

> <i_m_source_file_index>
88

> <r_mmod_Potential_Energy-OPLS-2005>
83.5674514770508

> <r_mmod_Stretch_Energy-OPLS-2005>
105.239738464355

> <r_mmod_Bend_Energy-OPLS-2005>
160.800979614258

> <r_mmod_Torsional_Energy-OPLS-2005>
243.487777709961

> <r_mmod_Improper_Torsional_Energy-OPLS-2005>
8.58896636962891

> <r_mmod_Van_der_Waal_Energy-OPLS-2005>
113.768623352051

> <r_mmod_Electrostatic_Energy-OPLS-2005>
-348.193542480469

> <r_mmod_Solvation_Energy-OPLS-2005>
-272.93310546875

> <b_mmod_Minimization_Converged-OPLS-2005>
0

> <r_mmod_RMS_Derivative-OPLS-2005>
1.5338237285614

$$$$
88
                    3D
 Structure written by MMmdl.
156164  0  0  1  0            999 V2000
  -30.7413  -14.4080   20.5956 C   0  0  0  0  0  0
  -30.4169  -12.2681   19.4183 C   0  0  0  0  0  0
  -29.4980  -12.5056   18.2040 C   0  0  0  0  0  0
  -28.0123  -12.3948   18.6090 C   0  0  0  0  0  0
  -27.6710  -13.2050   19.8903 C   0  0  2  0  0  0
  -28.7110  -12.9285   20.9988 C   0  0  0  0  0  0
  -25.2625  -13.8181   20.5699 C   0  0  0  0  0  0
  -24.1857  -13.0453   20.9181 C   0  0  0  0  0  0
  -24.6408  -11.6916   20.8763 C   0  0  0  0  0  0
  -23.9064  -10.4300   21.0418 C   0  0  0  0  0  0
  -24.3620   -9.4231   21.9194 C   0  0  0  0  0  0
  -23.6300   -8.2262   22.0752 C   0  0  0  0  0  0
  -22.4273   -8.0303   21.3556 C   0  0  0  0  0  0
  -21.9925   -9.0282   20.4654 C   0  0  0  0  0  0
  -22.7250  -10.2146   20.3059 C   0  0  0  0  0  0
  -21.6853   -6.0751   22.5292 C   0  0  0  0  0  0
  -21.4013   -6.5640   23.8227 C   0  0  0  0  0  0
  -21.3655   -5.6784   24.9193 C   0  0  0  0  0  0
  -21.6056   -4.3055   24.7244 C   0  0  0  0  0  0
  -21.8815   -3.8151   23.4356 C   0  0  0  0  0  0
  -21.9193   -4.6973   22.3416 C   0  0  0  0  0  0
  -22.7869  -13.5264   21.1858 C   0  0  0  0  0  0
  -22.1658   -4.2161   21.0990 F   0  0  0  0  0  0
  -21.5629   -3.4536   25.7757 F   0  0  0  0  0  0
  -30.0435  -13.2452   20.4524 N   0  0  0  0  0  0
  -26.3071  -12.9344   20.3437 N   0  0  0  0  0  0
  -25.9336  -11.6497   20.5799 N   0  0  0  0  0  0
  -22.0489  -12.8246   22.0378 N   0  0  0  0  0  0
  -25.4388  -15.1907   20.4123 N   0  0  0  0  0  0
  -31.8547  -14.5627   20.0825 O   0  0  0  0  0  0
  -21.6636   -6.8896   21.4244 O   0  0  0  0  0  0
  -22.3571  -14.5585   20.6718 O   0  0  0  0  0  0
  -24.6133  -31.8696   23.2135 C   0  0  0  0  0  0
  -25.9041  -32.4832   23.8429 C   0  0  1  0  0  0
  -27.2494  -27.4661   20.0786 C   0  0  0  0  0  0
  -25.5904  -33.8622   24.2350 N   0  0  0  0  0  0
  -23.4031  -30.4913   21.5511 C   0  0  2  0  0  0
  -24.8536  -28.9571   20.1188 C   0  0  0  0  0  0
  -22.7432  -29.4657   22.4994 C   0  0  0  0  0  0
  -18.0260  -28.1374   22.8479 C   0  0  0  0  0  0
  -24.1498  -36.7313   23.2641 C   0  0  0  0  0  0
  -25.9327  -30.8356   21.3738 C   0  0  0  0  0  0
  -26.0103  -29.4721   20.7185 C   0  0  0  0  0  0
  -27.2106  -28.7287   20.7042 C   0  0  0  0  0  0
  -26.0766  -26.9503   19.4869 C   0  0  0  0  0  0
  -24.8789  -27.6899   19.5058 C   0  0  0  0  0  0
  -23.6157  -29.8225   20.1660 C   0  0  0  0  0  0
  -25.4115  -36.3118   24.0345 C   0  0  1  0  0  0
  -20.5857  -28.3673   23.1323 C   0  0  2  0  0  0
  -20.6764  -26.9411   22.5423 C   0  0  0  0  0  0
  -19.5743  -26.6387   21.5220 C   0  0  0  0  0  0
  -18.1906  -26.7936   22.1610 C   0  0  0  0  0  0
  -19.1511  -28.8850   23.2889 C   0  0  0  0  0  0
  -18.9433  -30.1456   23.8898 C   0  0  0  0  0  0
  -17.6438  -30.6582   24.0563 C   0  0  0  0  0  0
  -25.9031  -34.9485   23.5139 C   0  0  0  0  0  0
  -16.5329  -29.9089   23.6322 C   0  0  0  0  0  0
  -16.7248  -28.6500   23.0339 C   0  0  0  0  0  0
  -26.4459  -31.6614   25.0769 C   0  0  0  0  0  0
  -25.3748  -31.3783   26.1568 C   0  0  0  0  0  0
  -27.0237  -30.3023   24.6195 C   0  0  0  0  0  0
  -27.6094  -32.4308   25.7469 C   0  0  0  0  0  0
  -27.5588  -37.1818   24.8444 C   0  0  0  0  0  0
  -21.4161  -29.3030   22.3743 N   0  0  0  0  0  0
  -26.4293  -37.3811   23.9409 N   0  0  0  0  0  0
  -24.6670  -31.0803   22.1041 N   0  0  0  0  0  0
  -23.4204  -28.8193   23.3039 O   0  0  0  0  0  0
  -28.4148  -26.7417   20.0372 O   0  0  0  0  0  0
  -26.5585  -34.8935   22.4693 O   0  0  0  0  0  0
  -23.5330  -32.1454   23.7518 O   0  0  0  0  0  0
  -29.3257  -21.1115   19.8996 C   0  0  0  0  0  0
  -30.4823  -19.2950   18.9896 C   0  0  0  0  0  0
  -29.5608  -19.7045   19.9115 C   0  0  0  0  0  0
  -30.0542  -21.7714   18.9345 C   0  0  0  0  0  0
  -30.0514  -15.5135   21.2624 C   0  0  0  0  0  0
  -28.9214  -26.4929   18.7876 C   0  0  0  0  0  0
  -29.4538  -25.3228   18.3720 C   0  0  0  0  0  0
  -30.6221  -16.7227   21.4858 C   0  0  0  0  0  0
  -29.5411  -24.1412   19.2401 C   0  0  0  0  0  0
  -29.9303  -17.9226   22.1274 C   0  0  0  0  0  0
  -30.0207  -23.0794   18.5679 N   0  0  0  0  0  0
  -29.2454  -24.0963   20.4371 O   0  0  0  0  0  0
  -27.7581  -19.5097   21.8080 O   0  0  0  0  0  0
  -28.0647  -17.5868   20.1681 O   0  0  0  0  0  0
  -29.8987  -25.2348   17.1044 O   0  0  0  0  0  0
  -31.8950  -17.0422   21.1869 O   0  0  0  0  0  0
  -31.0676  -20.6426   18.0553 S   0  0  0  0  0  0
  -28.6503  -18.6480   21.0097 S   0  0  0  0  0  0
  -31.4661  -12.3339   19.1259 H   0  0  0  0  0  0
  -30.2871  -11.2529   19.7973 H   0  0  0  0  0  0
  -29.7253  -11.7847   17.4180 H   0  0  0  0  0  0
  -29.6961  -13.4936   17.7834 H   0  0  0  0  0  0
  -27.7944  -11.3388   18.7697 H   0  0  0  0  0  0
  -27.3734  -12.7143   17.7847 H   0  0  0  0  0  0
  -27.7326  -14.2628   19.6342 H   0  0  0  0  0  0
  -28.6761  -11.8742   21.2800 H   0  0  0  0  0  0
  -28.4762  -13.4539   21.9236 H   0  0  0  0  0  0
  -25.2770   -9.5717   22.4771 H   0  0  0  0  0  0
  -24.0043   -7.4635   22.7440 H   0  0  0  0  0  0
  -21.0878   -8.8801   19.8947 H   0  0  0  0  0  0
  -22.3735  -10.9688   19.6160 H   0  0  0  0  0  0
  -21.1985   -7.6139   23.9730 H   0  0  0  0  0  0
  -21.1471   -6.0513   25.9087 H   0  0  0  0  0  0
  -22.0586   -2.7616   23.2848 H   0  0  0  0  0  0
  -22.4036  -11.9876   22.4750 H   0  0  0  0  0  0
  -21.1114  -13.1316   22.2570 H   0  0  0  0  0  0
  -24.6817  -15.8553   20.5266 H   0  0  0  0  0  0
  -26.3072  -15.6295   20.1213 H   0  0  0  0  0  0
  -26.7095  -32.5526   23.1178 H   0  0  0  0  0  0
  -25.0111  -33.9779   25.0542 H   0  0  0  0  0  0
  -22.6885  -31.3046   21.4120 H   0  0  0  0  0  0
  -23.3786  -35.9611   23.3237 H   0  0  0  0  0  0
  -24.3607  -36.8991   22.2071 H   0  0  0  0  0  0
  -23.7212  -37.6484   23.6690 H   0  0  0  0  0  0
  -26.0590  -31.6059   20.6126 H   0  0  0  0  0  0
  -26.8175  -30.8769   21.9986 H   0  0  0  0  0  0
  -28.1102  -29.1252   21.1553 H   0  0  0  0  0  0
  -26.0959  -25.9800   19.0113 H   0  0  0  0  0  0
  -23.9910  -27.2822   19.0429 H   0  0  0  0  0  0
  -23.7269  -30.5980   19.4077 H   0  0  0  0  0  0
  -22.7439  -29.2377   19.8695 H   0  0  0  0  0  0
  -25.1281  -36.1988   25.0837 H   0  0  0  0  0  0
  -20.9915  -28.3247   24.1469 H   0  0  0  0  0  0
  -20.5694  -26.2283   23.3610 H   0  0  0  0  0  0
  -21.6636  -26.7458   22.1225 H   0  0  0  0  0  0
  -19.6899  -25.6299   21.1251 H   0  0  0  0  0  0
  -19.6692  -27.3206   20.6758 H   0  0  0  0  0  0
  -17.4203  -26.6717   21.3973 H   0  0  0  0  0  0
  -18.0246  -26.0060   22.8985 H   0  0  0  0  0  0
  -19.7910  -30.7263   24.2275 H   0  0  0  0  0  0
  -17.4989  -31.6261   24.5181 H   0  0  0  0  0  0
  -15.5320  -30.2984   23.7644 H   0  0  0  0  0  0
  -15.8654  -28.0818   22.7046 H   0  0  0  0  0  0
  -24.5761  -30.7319   25.7909 H   0  0  0  0  0  0
  -24.9156  -32.2983   26.5197 H   0  0  0  0  0  0
  -25.8096  -30.8759   27.0222 H   0  0  0  0  0  0
  -26.2760  -29.6827   24.1244 H   0  0  0  0  0  0
  -27.3907  -29.7254   25.4690 H   0  0  0  0  0  0
  -27.8668  -30.4239   23.9401 H   0  0  0  0  0  0
  -27.2786  -33.3660   26.1992 H   0  0  0  0  0  0
  -28.3921  -32.6756   25.0277 H   0  0  0  0  0  0
  -28.0747  -31.8457   26.5414 H   0  0  0  0  0  0
  -28.2599  -38.0125   24.7489 H   0  0  0  0  0  0
  -28.1062  -36.2637   24.6219 H   0  0  0  0  0  0
  -27.2297  -37.1467   25.8848 H   0  0  0  0  0  0
  -20.9340  -29.8727   21.6931 H   0  0  0  0  0  0
  -26.0166  -38.2881   24.1409 H   0  0  0  0  0  0
  -28.6054  -21.5704   20.5597 H   0  0  0  0  0  0
  -30.8212  -18.2837   18.8078 H   0  0  0  0  0  0
  -29.0246  -15.4095   21.5699 H   0  0  0  0  0  0
  -28.8452  -27.3644   18.1518 H   0  0  0  0  0  0
  -30.6162  -18.7212   22.4074 H   0  0  0  0  0  0
  -29.4200  -17.6075   23.0358 H   0  0  0  0  0  0
  -30.3321  -23.3063   17.6314 H   0  0  0  0  0  0
  -29.7136  -26.0598   16.6757 H   0  0  0  0  0  0
  -32.2908  -16.2794   20.7673 H   0  0  0  0  0  0
  1 25  1  0  0  0
  1 30  2  0  0  0
  1 75  1  0  0  0
  2  3  1  0  0  0
  2 25  1  0  0  0
  2 89  1  0  0  0
  2 90  1  0  0  0
  3  4  1  0  0  0
  3 91  1  0  0  0
  3 92  1  0  0  0
  4  5  1  0  0  0
  4 93  1  0  0  0
  4 94  1  0  0  0
  5  6  1  0  0  0
  5 26  1  0  0  0
  5 95  1  0  0  0
  6 25  1  0  0  0
  6 96  1  0  0  0
  6 97  1  0  0  0
  7  8  2  0  0  0
  7 26  1  0  0  0
  7 29  1  0  0  0
  8  9  1  0  0  0
  8 22  1  0  0  0
  9 10  1  0  0  0
  9 27  2  0  0  0
 10 11  2  0  0  0
 10 15  1  0  0  0
 11 12  1  0  0  0
 11 98  1  0  0  0
 12 13  2  0  0  0
 12 99  1  0  0  0
 13 14  1  0  0  0
 13 31  1  0  0  0
 14 15  2  0  0  0
 14100  1  0  0  0
 15101  1  0  0  0
 16 17  2  0  0  0
 16 21  1  0  0  0
 16 31  1  0  0  0
 17 18  1  0  0  0
 17102  1  0  0  0
 18 19  2  0  0  0
 18103  1  0  0  0
 19 20  1  0  0  0
 19 24  1  0  0  0
 20 21  2  0  0  0
 20104  1  0  0  0
 21 23  1  0  0  0
 22 28  1  0  0  0
 22 32  2  0  0  0
 26 27  1  0  0  0
 28105  1  0  0  0
 28106  1  0  0  0
 29107  1  0  0  0
 29108  1  0  0  0
 33 34  1  0  0  0
 33 66  1  0  0  0
 33 70  2  0  0  0
 34 36  1  0  0  0
 34 59  1  0  0  0
 34109  1  0  0  0
 35 44  2  0  0  0
 35 45  1  0  0  0
 35 68  1  0  0  0
 36 56  1  0  0  0
 36110  1  0  0  0
 37 39  1  0  0  0
 37 47  1  0  0  0
 37 66  1  0  0  0
 37111  1  0  0  0
 38 43  2  0  0  0
 38 46  1  0  0  0
 38 47  1  0  0  0
 39 64  1  0  0  0
 39 67  2  0  0  0
 40 52  1  0  0  0
 40 53  2  0  0  0
 40 58  1  0  0  0
 41112  1  0  0  0
 41113  1  0  0  0
 41114  1  0  0  0
 41 48  1  0  0  0
 42 43  1  0  0  0
 42 66  1  0  0  0
 42115  1  0  0  0
 42116  1  0  0  0
 43 44  1  0  0  0
 44117  1  0  0  0
 45 46  2  0  0  0
 45118  1  0  0  0
 46119  1  0  0  0
 47120  1  0  0  0
 47121  1  0  0  0
 48 56  1  0  0  0
 48 65  1  0  0  0
 48122  1  0  0  0
 49 50  1  0  0  0
 49 53  1  0  0  0
 49 64  1  0  0  0
 49123  1  0  0  0
 50 51  1  0  0  0
 50124  1  0  0  0
 50125  1  0  0  0
 51 52  1  0  0  0
 51126  1  0  0  0
 51127  1  0  0  0
 52128  1  0  0  0
 52129  1  0  0  0
 53 54  1  0  0  0
 54 55  2  0  0  0
 54130  1  0  0  0
 55 57  1  0  0  0
 55131  1  0  0  0
 56 69  2  0  0  0
 57 58  2  0  0  0
 57132  1  0  0  0
 58133  1  0  0  0
 59 60  1  0  0  0
 59 61  1  0  0  0
 59 62  1  0  0  0
 60134  1  0  0  0
 60135  1  0  0  0
 60136  1  0  0  0
 61137  1  0  0  0
 61138  1  0  0  0
 61139  1  0  0  0
 62140  1  0  0  0
 62141  1  0  0  0
 62142  1  0  0  0
 63 65  1  0  0  0
 63143  1  0  0  0
 63144  1  0  0  0
 63145  1  0  0  0
 64146  1  0  0  0
 65147  1  0  0  0
 68 76  1  0  0  0
 71 73  1  0  0  0
 71 74  2  0  0  0
 71148  1  0  0  0
 72 73  2  0  0  0
 72 87  1  0  0  0
 72149  1  0  0  0
 73 88  1  0  0  0
 74 81  1  0  0  0
 74 87  1  0  0  0
 75 78  2  0  0  0
 75150  1  0  0  0
 76 77  2  0  0  0
 76151  1  0  0  0
 77 79  1  0  0  0
 77 85  1  0  0  0
 78 80  1  0  0  0
 78 86  1  0  0  0
 79 81  1  0  0  0
 79 82  2  0  0  0
 80152  1  0  0  0
 80153  1  0  0  0
 80 88  1  0  0  0
 81154  1  0  0  0
 83 88  2  0  0  0
 84 88  2  0  0  0
 85155  1  0  0  0
 86156  1  0  0  0
M  ISO  4   1 100  68 101  75 100  76 101
M  END
> <chiral flag>
0

> <version>
0

> <s_m_source_file>
/data/baiqing/PycharmProjects/Reinvent-master-3.2/result/LINK_invent/BTK/process_docking_weight1_custom_product_contain_oxygen_bond_distance_aromatic_linkinvent_7_9_3/rearranged_h_0178.sdf

> <i_m_source_file_index>
89

> <r_mmod_Potential_Energy-OPLS-2005>
-148.715087890625

> <r_mmod_Stretch_Energy-OPLS-2005>
34.9999923706055

> <r_mmod_Bend_Energy-OPLS-2005>
108.623161315918

> <r_mmod_Torsional_Energy-OPLS-2005>
170.061447143555

> <r_mmod_Improper_Torsional_Energy-OPLS-2005>
3.37862348556519

> <r_mmod_Van_der_Waal_Energy-OPLS-2005>
141.599426269531

> <r_mmod_Electrostatic_Energy-OPLS-2005>
-364.909942626953

> <r_mmod_Solvation_Energy-OPLS-2005>
-252.17236328125

> <b_mmod_Minimization_Converged-OPLS-2005>
0

> <r_mmod_RMS_Derivative-OPLS-2005>
3.70142269134521

$$$$
89
                    3D
 Structure written by MMmdl.
155163  0  0  1  0            999 V2000
  -30.7273  -14.4355   20.5946 C   0  0  0  0  0  0
  -30.4135  -12.2933   19.4144 C   0  0  0  0  0  0
  -29.4876  -12.5062   18.2003 C   0  0  0  0  0  0
  -28.0086  -12.3732   18.6132 C   0  0  0  0  0  0
  -27.6601  -13.2073   19.8753 C   0  0  2  0  0  0
  -28.7010  -12.9808   20.9951 C   0  0  0  0  0  0
  -25.2575  -13.8170   20.5675 C   0  0  0  0  0  0
  -24.1832  -13.0446   20.9186 C   0  0  0  0  0  0
  -24.6391  -11.6912   20.8746 C   0  0  0  0  0  0
  -23.9067  -10.4295   21.0412 C   0  0  0  0  0  0
  -24.3620   -9.4209   21.9190 C   0  0  0  0  0  0
  -23.6293   -8.2244   22.0757 C   0  0  0  0  0  0
  -22.4276   -8.0285   21.3547 C   0  0  0  0  0  0
  -21.9914   -9.0260   20.4646 C   0  0  0  0  0  0
  -22.7243  -10.2138   20.3058 C   0  0  0  0  0  0
  -21.6853   -6.0741   22.5278 C   0  0  0  0  0  0
  -21.4011   -6.5645   23.8215 C   0  0  0  0  0  0
  -21.3658   -5.6795   24.9176 C   0  0  0  0  0  0
  -21.6046   -4.3058   24.7226 C   0  0  0  0  0  0
  -21.8817   -3.8153   23.4346 C   0  0  0  0  0  0
  -21.9190   -4.6969   22.3401 C   0  0  0  0  0  0
  -22.7853  -13.5240   21.1853 C   0  0  0  0  0  0
  -22.1659   -4.2157   21.0975 F   0  0  0  0  0  0
  -21.5631   -3.4541   25.7739 F   0  0  0  0  0  0
  -30.0339  -13.2755   20.4417 N   0  0  0  0  0  0
  -26.3010  -12.9339   20.3365 N   0  0  0  0  0  0
  -25.9317  -11.6500   20.5779 N   0  0  0  0  0  0
  -22.0491  -12.8221   22.0400 N   0  0  0  0  0  0
  -25.4302  -15.1889   20.4067 N   0  0  0  0  0  0
  -31.8438  -14.6050   20.0922 O   0  0  0  0  0  0
  -21.6636   -6.8884   21.4240 O   0  0  0  0  0  0
  -22.3542  -14.5550   20.6710 O   0  0  0  0  0  0
  -24.6106  -31.8693   23.2130 C   0  0  0  0  0  0
  -25.9014  -32.4831   23.8418 C   0  0  1  0  0  0
  -27.2457  -27.4615   20.0955 C   0  0  0  0  0  0
  -25.5887  -33.8630   24.2355 N   0  0  0  0  0  0
  -23.3989  -30.4910   21.5520 C   0  0  2  0  0  0
  -24.8499  -28.9595   20.1170 C   0  0  0  0  0  0
  -22.7400  -29.4647   22.5006 C   0  0  0  0  0  0
  -18.0258  -28.1384   22.8482 C   0  0  0  0  0  0
  -24.1482  -36.7321   23.2640 C   0  0  0  0  0  0
  -25.9228  -30.8432   21.3624 C   0  0  0  0  0  0
  -26.0043  -29.4753   20.7199 C   0  0  0  0  0  0
  -27.2032  -28.7312   20.7194 C   0  0  0  0  0  0
  -26.0811  -26.9616   19.4802 C   0  0  0  0  0  0
  -24.8804  -27.6973   19.4979 C   0  0  0  0  0  0
  -23.6085  -29.8211   20.1667 C   0  0  0  0  0  0
  -25.4100  -36.3119   24.0345 C   0  0  1  0  0  0
  -20.5849  -28.3660   23.1333 C   0  0  2  0  0  0
  -20.6751  -26.9398   22.5426 C   0  0  0  0  0  0
  -19.5733  -26.6385   21.5218 C   0  0  0  0  0  0
  -18.1902  -26.7927   22.1623 C   0  0  0  0  0  0
  -19.1509  -28.8839   23.2901 C   0  0  0  0  0  0
  -18.9446  -30.1441   23.8917 C   0  0  0  0  0  0
  -17.6452  -30.6591   24.0564 C   0  0  0  0  0  0
  -25.9027  -34.9480   23.5150 C   0  0  0  0  0  0
  -16.5338  -29.9098   23.6331 C   0  0  0  0  0  0
  -16.7251  -28.6517   23.0344 C   0  0  0  0  0  0
  -26.4464  -31.6588   25.0720 C   0  0  0  0  0  0
  -25.3749  -31.3675   26.1480 C   0  0  0  0  0  0
  -27.0287  -30.3045   24.6041 C   0  0  0  0  0  0
  -27.6042  -32.4296   25.7488 C   0  0  0  0  0  0
  -27.5578  -37.1811   24.8464 C   0  0  0  0  0  0
  -21.4127  -29.3026   22.3746 N   0  0  0  0  0  0
  -26.4291  -37.3796   23.9407 N   0  0  0  0  0  0
  -24.6622  -31.0815   22.1018 N   0  0  0  0  0  0
  -23.4177  -28.8181   23.3040 O   0  0  0  0  0  0
  -28.3737  -26.6772   20.0324 O   0  0  0  0  0  0
  -26.5579  -34.8924   22.4704 O   0  0  0  0  0  0
  -23.5305  -32.1421   23.7539 O   0  0  0  0  0  0
  -31.9703  -18.4597   21.7738 C   0  0  0  0  0  0
  -30.8719  -19.2285   21.4517 C   0  0  0  0  0  0
  -30.4999  -16.7727   21.3634 C   0  0  0  0  0  0
  -30.4907  -22.9174   21.0217 C   0  0  0  0  0  0
  -29.9070  -21.4835   21.1919 C   0  0  0  0  0  0
  -33.3359  -18.9565   22.1394 C   0  0  0  0  0  0
  -29.5208  -24.1039   21.1547 C   0  0  0  0  0  0
  -29.2292  -26.6828   21.1700 C   0  0  0  0  0  0
  -30.2044  -25.4931   21.0940 C   0  0  1  0  0  0
  -31.7454  -17.0806   21.7351 N   0  0  0  0  0  0
  -30.8949  -20.5885   21.3673 N   0  0  0  0  0  0
  -30.0594  -15.4321   21.2036 N   0  0  0  0  0  0
  -31.6922  -23.0920   20.7724 O   0  0  0  0  0  0
  -28.6966  -21.2354   21.1786 O   0  0  0  0  0  0
  -31.0708  -25.6141   22.1032 F   0  0  0  0  0  0
  -29.4822  -18.1911   21.1283 S   0  0  0  0  0  0
  -31.4589  -12.3797   19.1119 H   0  0  0  0  0  0
  -30.3031  -11.2815   19.8079 H   0  0  0  0  0  0
  -29.7218  -11.7845   17.4168 H   0  0  0  0  0  0
  -29.6616  -13.4931   17.7684 H   0  0  0  0  0  0
  -27.8102  -11.3173   18.8002 H   0  0  0  0  0  0
  -27.3598  -12.6606   17.7846 H   0  0  0  0  0  0
  -27.7070  -14.2568   19.5844 H   0  0  0  0  0  0
  -28.6704  -11.9447   21.3353 H   0  0  0  0  0  0
  -28.4646  -13.5803   21.8751 H   0  0  0  0  0  0
  -25.2768   -9.5684   22.4762 H   0  0  0  0  0  0
  -24.0007   -7.4634   22.7471 H   0  0  0  0  0  0
  -21.0852   -8.8783   19.8944 H   0  0  0  0  0  0
  -22.3715  -10.9682   19.6164 H   0  0  0  0  0  0
  -21.2002   -7.6155   23.9722 H   0  0  0  0  0  0
  -21.1481   -6.0525   25.9079 H   0  0  0  0  0  0
  -22.0597   -2.7615   23.2842 H   0  0  0  0  0  0
  -22.4097  -11.9866   22.4764 H   0  0  0  0  0  0
  -21.1115  -13.1249   22.2621 H   0  0  0  0  0  0
  -24.6619  -15.8437   20.5059 H   0  0  0  0  0  0
  -26.2774  -15.6247   20.0647 H   0  0  0  0  0  0
  -26.7089  -32.5573   23.1196 H   0  0  0  0  0  0
  -25.0044  -33.9799   25.0506 H   0  0  0  0  0  0
  -22.6860  -31.3065   21.4124 H   0  0  0  0  0  0
  -23.3740  -35.9659   23.3309 H   0  0  0  0  0  0
  -24.3584  -36.8927   22.2054 H   0  0  0  0  0  0
  -23.7236  -37.6533   23.6642 H   0  0  0  0  0  0
  -26.0213  -31.6044   20.5871 H   0  0  0  0  0  0
  -26.8158  -30.9090   21.9715 H   0  0  0  0  0  0
  -28.0880  -29.1454   21.1818 H   0  0  0  0  0  0
  -26.1034  -25.9969   18.9927 H   0  0  0  0  0  0
  -23.9941  -27.2941   19.0275 H   0  0  0  0  0  0
  -23.7131  -30.5949   19.4055 H   0  0  0  0  0  0
  -22.7348  -29.2362   19.8719 H   0  0  0  0  0  0
  -25.1272  -36.1999   25.0839 H   0  0  0  0  0  0
  -20.9923  -28.3217   24.1460 H   0  0  0  0  0  0
  -20.5670  -26.2261   23.3607 H   0  0  0  0  0  0
  -21.6619  -26.7450   22.1206 H   0  0  0  0  0  0
  -19.6899  -25.6299   21.1234 H   0  0  0  0  0  0
  -19.6686  -27.3210   20.6762 H   0  0  0  0  0  0
  -17.4178  -26.6676   21.4019 H   0  0  0  0  0  0
  -18.0295  -26.0076   22.9027 H   0  0  0  0  0  0
  -19.7923  -30.7235   24.2306 H   0  0  0  0  0  0
  -17.5013  -31.6278   24.5149 H   0  0  0  0  0  0
  -15.5342  -30.3008   23.7653 H   0  0  0  0  0  0
  -15.8643  -28.0848   22.7054 H   0  0  0  0  0  0
  -24.5916  -30.7033   25.7818 H   0  0  0  0  0  0
  -24.8948  -32.2824   26.4961 H   0  0  0  0  0  0
  -25.8112  -30.8819   27.0216 H   0  0  0  0  0  0
  -26.2805  -29.6824   24.1113 H   0  0  0  0  0  0
  -27.4111  -29.7259   25.4459 H   0  0  0  0  0  0
  -27.8620  -30.4397   23.9138 H   0  0  0  0  0  0
  -27.2667  -33.3589   26.2086 H   0  0  0  0  0  0
  -28.3850  -32.6859   25.0316 H   0  0  0  0  0  0
  -28.0708  -31.8403   26.5391 H   0  0  0  0  0  0
  -28.2588  -38.0114   24.7503 H   0  0  0  0  0  0
  -28.1075  -36.2640   24.6290 H   0  0  0  0  0  0
  -27.2289  -37.1464   25.8867 H   0  0  0  0  0  0
  -20.9284  -29.8763   21.6986 H   0  0  0  0  0  0
  -26.0188  -38.2877   24.1417 H   0  0  0  0  0  0
  -33.3308  -19.4281   23.1222 H   0  0  0  0  0  0
  -33.6982  -19.6914   21.4205 H   0  0  0  0  0  0
  -34.0661  -18.1477   22.1693 H   0  0  0  0  0  0
  -28.9740  -23.9995   22.0911 H   0  0  0  0  0  0
  -28.7853  -24.0216   20.3549 H   0  0  0  0  0  0
  -29.7974  -27.6131   21.1917 H   0  0  0  0  0  0
  -28.6489  -26.6297   22.0925 H   0  0  0  0  0  0
  -30.7939  -25.5779   20.1798 H   0  0  0  0  0  0
  -31.8067  -21.0306   21.3897 H   0  0  0  0  0  0
  -29.0962  -15.2442   21.4299 H   0  0  0  0  0  0
  1 25  1  0  0  0
  1 30  2  0  0  0
  1 82  1  0  0  0
  2  3  1  0  0  0
  2 25  1  0  0  0
  2 87  1  0  0  0
  2 88  1  0  0  0
  3  4  1  0  0  0
  3 89  1  0  0  0
  3 90  1  0  0  0
  4  5  1  0  0  0
  4 91  1  0  0  0
  4 92  1  0  0  0
  5  6  1  0  0  0
  5 26  1  0  0  0
  5 93  1  0  0  0
  6 25  1  0  0  0
  6 94  1  0  0  0
  6 95  1  0  0  0
  7  8  2  0  0  0
  7 26  1  0  0  0
  7 29  1  0  0  0
  8  9  1  0  0  0
  8 22  1  0  0  0
  9 10  1  0  0  0
  9 27  2  0  0  0
 10 11  2  0  0  0
 10 15  1  0  0  0
 11 12  1  0  0  0
 11 96  1  0  0  0
 12 13  2  0  0  0
 12 97  1  0  0  0
 13 14  1  0  0  0
 13 31  1  0  0  0
 14 15  2  0  0  0
 14 98  1  0  0  0
 15 99  1  0  0  0
 16 17  2  0  0  0
 16 21  1  0  0  0
 16 31  1  0  0  0
 17 18  1  0  0  0
 17100  1  0  0  0
 18 19  2  0  0  0
 18101  1  0  0  0
 19 20  1  0  0  0
 19 24  1  0  0  0
 20 21  2  0  0  0
 20102  1  0  0  0
 21 23  1  0  0  0
 22 28  1  0  0  0
 22 32  2  0  0  0
 26 27  1  0  0  0
 28103  1  0  0  0
 28104  1  0  0  0
 29105  1  0  0  0
 29106  1  0  0  0
 33 34  1  0  0  0
 33 66  1  0  0  0
 33 70  2  0  0  0
 34 36  1  0  0  0
 34 59  1  0  0  0
 34107  1  0  0  0
 35 44  2  0  0  0
 35 45  1  0  0  0
 35 68  1  0  0  0
 36 56  1  0  0  0
 36108  1  0  0  0
 37 39  1  0  0  0
 37 47  1  0  0  0
 37 66  1  0  0  0
 37109  1  0  0  0
 38 43  2  0  0  0
 38 46  1  0  0  0
 38 47  1  0  0  0
 39 64  1  0  0  0
 39 67  2  0  0  0
 40 52  1  0  0  0
 40 53  2  0  0  0
 40 58  1  0  0  0
 41110  1  0  0  0
 41111  1  0  0  0
 41112  1  0  0  0
 41 48  1  0  0  0
 42 43  1  0  0  0
 42 66  1  0  0  0
 42113  1  0  0  0
 42114  1  0  0  0
 43 44  1  0  0  0
 44115  1  0  0  0
 45 46  2  0  0  0
 45116  1  0  0  0
 46117  1  0  0  0
 47118  1  0  0  0
 47119  1  0  0  0
 48 56  1  0  0  0
 48 65  1  0  0  0
 48120  1  0  0  0
 49 50  1  0  0  0
 49 53  1  0  0  0
 49 64  1  0  0  0
 49121  1  0  0  0
 50 51  1  0  0  0
 50122  1  0  0  0
 50123  1  0  0  0
 51 52  1  0  0  0
 51124  1  0  0  0
 51125  1  0  0  0
 52126  1  0  0  0
 52127  1  0  0  0
 53 54  1  0  0  0
 54 55  2  0  0  0
 54128  1  0  0  0
 55 57  1  0  0  0
 55129  1  0  0  0
 56 69  2  0  0  0
 57 58  2  0  0  0
 57130  1  0  0  0
 58131  1  0  0  0
 59 60  1  0  0  0
 59 61  1  0  0  0
 59 62  1  0  0  0
 60132  1  0  0  0
 60133  1  0  0  0
 60134  1  0  0  0
 61135  1  0  0  0
 61136  1  0  0  0
 61137  1  0  0  0
 62138  1  0  0  0
 62139  1  0  0  0
 62140  1  0  0  0
 63 65  1  0  0  0
 63141  1  0  0  0
 63142  1  0  0  0
 63143  1  0  0  0
 64144  1  0  0  0
 65145  1  0  0  0
 68 78  1  0  0  0
 71 72  2  0  0  0
 71 76  1  0  0  0
 71 80  1  0  0  0
 72 81  1  0  0  0
 72 86  1  0  0  0
 73 80  2  0  0  0
 73 82  1  0  0  0
 73 86  1  0  0  0
 74 75  1  0  0  0
 74 77  1  0  0  0
 74 83  2  0  0  0
 75 81  1  0  0  0
 75 84  2  0  0  0
 76146  1  0  0  0
 76147  1  0  0  0
 76148  1  0  0  0
 77 79  1  0  0  0
 77149  1  0  0  0
 77150  1  0  0  0
 78 79  1  0  0  0
 78151  1  0  0  0
 78152  1  0  0  0
 79 85  1  0  0  0
 79153  1  0  0  0
 81154  1  0  0  0
 82155  1  0  0  0
M  ISO  4   1 100  68 101  78 101  82 100
M  END
> <chiral flag>
0

> <version>
0

> <s_m_source_file>
/data/baiqing/PycharmProjects/Reinvent-master-3.2/result/LINK_invent/BTK/process_docking_weight1_custom_product_contain_oxygen_bond_distance_aromatic_linkinvent_7_9_3/rearranged_h_0178.sdf

> <i_m_source_file_index>
90

> <r_mmod_Potential_Energy-OPLS-2005>
-163.453582763672

> <r_mmod_Stretch_Energy-OPLS-2005>
33.7387275695801

> <r_mmod_Bend_Energy-OPLS-2005>
105.888191223145

> <r_mmod_Torsional_Energy-OPLS-2005>
204.793975830078

> <r_mmod_Improper_Torsional_Energy-OPLS-2005>
3.52173638343811

> <r_mmod_Van_der_Waal_Energy-OPLS-2005>
137.37321472168

> <r_mmod_Electrostatic_Energy-OPLS-2005>
-416.418121337891

> <r_mmod_Solvation_Energy-OPLS-2005>
-241.591430664062

> <b_mmod_Minimization_Converged-OPLS-2005>
0

> <r_mmod_RMS_Derivative-OPLS-2005>
1.26466107368469

$$$$
90
                    3D
 Structure written by MMmdl.
158166  0  0  1  0            999 V2000
  -30.6807  -14.5108   20.5342 C   0  0  0  0  0  0
  -30.4204  -12.3182   19.4299 C   0  0  0  0  0  0
  -29.4909  -12.4976   18.2102 C   0  0  0  0  0  0
  -28.0133  -12.3574   18.6246 C   0  0  0  0  0  0
  -27.6579  -13.2080   19.8728 C   0  0  2  0  0  0
  -28.7007  -13.0111   20.9961 C   0  0  0  0  0  0
  -25.2596  -13.8175   20.5691 C   0  0  0  0  0  0
  -24.1843  -13.0457   20.9185 C   0  0  0  0  0  0
  -24.6389  -11.6921   20.8760 C   0  0  0  0  0  0
  -23.9053  -10.4309   21.0422 C   0  0  0  0  0  0
  -24.3603   -9.4223   21.9197 C   0  0  0  0  0  0
  -23.6283   -8.2258   22.0761 C   0  0  0  0  0  0
  -22.4274   -8.0291   21.3538 C   0  0  0  0  0  0
  -21.9901   -9.0279   20.4655 C   0  0  0  0  0  0
  -22.7225  -10.2163   20.3067 C   0  0  0  0  0  0
  -21.6860   -6.0736   22.5273 C   0  0  0  0  0  0
  -21.4024   -6.5641   23.8207 C   0  0  0  0  0  0
  -21.3658   -5.6791   24.9167 C   0  0  0  0  0  0
  -21.6038   -4.3054   24.7222 C   0  0  0  0  0  0
  -21.8821   -3.8143   23.4346 C   0  0  0  0  0  0
  -21.9200   -4.6959   22.3399 C   0  0  0  0  0  0
  -22.7868  -13.5273   21.1827 C   0  0  0  0  0  0
  -22.1665   -4.2134   21.0979 F   0  0  0  0  0  0
  -21.5618   -3.4545   25.7740 F   0  0  0  0  0  0
  -30.0287  -13.3165   20.4391 N   0  0  0  0  0  0
  -26.3016  -12.9333   20.3379 N   0  0  0  0  0  0
  -25.9320  -11.6499   20.5802 N   0  0  0  0  0  0
  -22.0488  -12.8299   22.0386 N   0  0  0  0  0  0
  -25.4358  -15.1887   20.4091 N   0  0  0  0  0  0
  -31.8327  -14.6529   20.1112 O   0  0  0  0  0  0
  -21.6643   -6.8883   21.4234 O   0  0  0  0  0  0
  -22.3577  -14.5578   20.6657 O   0  0  0  0  0  0
  -24.6161  -31.8644   23.2083 C   0  0  0  0  0  0
  -25.9054  -32.4788   23.8389 C   0  0  1  0  0  0
  -27.2405  -27.4188   20.1026 C   0  0  0  0  0  0
  -25.5917  -33.8591   24.2328 N   0  0  0  0  0  0
  -23.4059  -30.4857   21.5470 C   0  0  2  0  0  0
  -24.8563  -28.9526   20.1106 C   0  0  0  0  0  0
  -22.7413  -29.4627   22.4964 C   0  0  0  0  0  0
  -18.0274  -28.1361   22.8479 C   0  0  0  0  0  0
  -24.1487  -36.7291   23.2636 C   0  0  0  0  0  0
  -25.9364  -30.8263   21.3655 C   0  0  0  0  0  0
  -26.0154  -29.4593   20.7127 C   0  0  0  0  0  0
  -27.2097  -28.6990   20.7070 C   0  0  0  0  0  0
  -26.0659  -26.9372   19.4816 C   0  0  0  0  0  0
  -24.8777  -27.6921   19.4894 C   0  0  0  0  0  0
  -23.6165  -29.8171   20.1617 C   0  0  0  0  0  0
  -25.4105  -36.3082   24.0335 C   0  0  1  0  0  0
  -20.5869  -28.3644   23.1312 C   0  0  2  0  0  0
  -20.6759  -26.9374   22.5415 C   0  0  0  0  0  0
  -19.5746  -26.6380   21.5197 C   0  0  0  0  0  0
  -18.1929  -26.7907   22.1621 C   0  0  0  0  0  0
  -19.1525  -28.8822   23.2897 C   0  0  0  0  0  0
  -18.9443  -30.1429   23.8901 C   0  0  0  0  0  0
  -17.6447  -30.6567   24.0554 C   0  0  0  0  0  0
  -25.9029  -34.9450   23.5123 C   0  0  0  0  0  0
  -16.5340  -29.9063   23.6321 C   0  0  0  0  0  0
  -16.7268  -28.6491   23.0325 C   0  0  0  0  0  0
  -26.4497  -31.6569   25.0717 C   0  0  0  0  0  0
  -25.3787  -31.3659   26.1480 C   0  0  0  0  0  0
  -27.0316  -30.3010   24.6087 C   0  0  0  0  0  0
  -27.6067  -32.4290   25.7478 C   0  0  0  0  0  0
  -27.5575  -37.1787   24.8464 C   0  0  0  0  0  0
  -21.4143  -29.3015   22.3712 N   0  0  0  0  0  0
  -26.4281  -37.3777   23.9415 N   0  0  0  0  0  0
  -24.6701  -31.0742   22.0977 N   0  0  0  0  0  0
  -23.4176  -28.8180   23.3035 O   0  0  0  0  0  0
  -28.3962  -26.6593   20.1178 O   0  0  0  0  0  0
  -26.5576  -34.8905   22.4676 O   0  0  0  0  0  0
  -23.5350  -32.1415   23.7463 O   0  0  0  0  0  0
  -29.0276  -19.1676   20.9863 C   0  0  0  0  0  0
  -29.0092  -17.7734   21.2253 C   0  0  0  0  0  0
  -30.1105  -19.7431   20.2860 C   0  0  0  0  0  0
  -30.0660  -16.9526   20.7691 C   0  0  0  0  0  0
  -31.1342  -18.8517   19.8869 C   0  0  0  0  0  0
  -28.2522  -25.2846   20.2760 C   0  0  0  0  0  0
  -29.6044  -24.9803   20.5782 C   0  0  0  0  0  0
  -30.3471  -23.6491   20.9264 C   0  0  0  0  0  0
  -29.3695  -21.4909   18.6063 C   0  0  0  0  0  0
  -29.6706  -22.2498   21.0214 C   0  0  0  0  0  0
  -30.1388  -21.2510   19.9167 C   0  0  1  0  0  0
  -31.1111  -17.5249   20.1202 N   0  0  0  0  0  0
  -32.2487  -19.2748   19.1787 N   0  0  0  0  0  0
  -29.9309  -15.5403   20.9968 N   0  0  0  0  0  0
  -31.5603  -23.6574   21.1726 O   0  0  0  0  0  0
  -30.5199  -25.9774   20.6059 O   0  0  0  0  0  0
  -31.4642  -12.4129   19.1242 H   0  0  0  0  0  0
  -30.3225  -11.3128   19.8440 H   0  0  0  0  0  0
  -29.7315  -11.7602   17.4427 H   0  0  0  0  0  0
  -29.6536  -13.4768   17.7562 H   0  0  0  0  0  0
  -27.8306  -11.3027   18.8335 H   0  0  0  0  0  0
  -27.3575  -12.6172   17.7927 H   0  0  0  0  0  0
  -27.6940  -14.2527   19.5638 H   0  0  0  0  0  0
  -28.6820  -11.9812   21.3567 H   0  0  0  0  0  0
  -28.4636  -13.6264   21.8649 H   0  0  0  0  0  0
  -25.2745   -9.5703   22.4775 H   0  0  0  0  0  0
  -23.9982   -7.4659   22.7497 H   0  0  0  0  0  0
  -21.0817   -8.8813   19.8983 H   0  0  0  0  0  0
  -22.3676  -10.9708   19.6183 H   0  0  0  0  0  0
  -21.2024   -7.6153   23.9701 H   0  0  0  0  0  0
  -21.1466   -6.0527   25.9063 H   0  0  0  0  0  0
  -22.0597   -2.7603   23.2858 H   0  0  0  0  0  0
  -22.4088  -11.9981   22.4815 H   0  0  0  0  0  0
  -21.1103  -13.1349   22.2558 H   0  0  0  0  0  0
  -24.6732  -15.8483   20.5192 H   0  0  0  0  0  0
  -26.2874  -15.6211   20.0748 H   0  0  0  0  0  0
  -26.7115  -32.5517   23.1144 H   0  0  0  0  0  0
  -25.0111  -33.9753   25.0501 H   0  0  0  0  0  0
  -22.6970  -31.3035   21.4042 H   0  0  0  0  0  0
  -23.3737  -35.9635   23.3297 H   0  0  0  0  0  0
  -24.3585  -36.8906   22.2050 H   0  0  0  0  0  0
  -23.7258  -37.6502   23.6652 H   0  0  0  0  0  0
  -26.0554  -31.5955   20.6009 H   0  0  0  0  0  0
  -26.8206  -30.8755   21.9893 H   0  0  0  0  0  0
  -28.1036  -29.0832   21.1774 H   0  0  0  0  0  0
  -26.0657  -25.9752   18.9895 H   0  0  0  0  0  0
  -23.9912  -27.2999   19.0095 H   0  0  0  0  0  0
  -23.7178  -30.5911   19.4004 H   0  0  0  0  0  0
  -22.7446  -29.2298   19.8679 H   0  0  0  0  0  0
  -25.1278  -36.1927   25.0826 H   0  0  0  0  0  0
  -20.9968  -28.3197   24.1428 H   0  0  0  0  0  0
  -20.5645  -26.2235   23.3591 H   0  0  0  0  0  0
  -21.6624  -26.7394   22.1212 H   0  0  0  0  0  0
  -19.6895  -25.6295   21.1207 H   0  0  0  0  0  0
  -19.6698  -27.3198   20.6730 H   0  0  0  0  0  0
  -17.4192  -26.6636   21.4033 H   0  0  0  0  0  0
  -18.0345  -26.0049   22.9023 H   0  0  0  0  0  0
  -19.7916  -30.7243   24.2278 H   0  0  0  0  0  0
  -17.4995  -31.6245   24.5144 H   0  0  0  0  0  0
  -15.5338  -30.2960   23.7639 H   0  0  0  0  0  0
  -15.8672  -28.0823   22.7009 H   0  0  0  0  0  0
  -24.5958  -30.6992   25.7846 H   0  0  0  0  0  0
  -24.8983  -32.2796   26.4971 H   0  0  0  0  0  0
  -25.8191  -30.8823   27.0205 H   0  0  0  0  0  0
  -26.2837  -29.6762   24.1184 H   0  0  0  0  0  0
  -27.4122  -29.7254   25.4533 H   0  0  0  0  0  0
  -27.8666  -30.4325   23.9202 H   0  0  0  0  0  0
  -27.2675  -33.3573   26.2087 H   0  0  0  0  0  0
  -28.3866  -32.6871   25.0299 H   0  0  0  0  0  0
  -28.0751  -31.8397   26.5375 H   0  0  0  0  0  0
  -28.2577  -38.0093   24.7502 H   0  0  0  0  0  0
  -28.1081  -36.2623   24.6284 H   0  0  0  0  0  0
  -27.2293  -37.1411   25.8865 H   0  0  0  0  0  0
  -20.9283  -29.8760   21.6960 H   0  0  0  0  0  0
  -26.0160  -38.2849   24.1422 H   0  0  0  0  0  0
  -28.2018  -19.7814   21.3157 H   0  0  0  0  0  0
  -28.1616  -17.3464   21.7432 H   0  0  0  0  0  0
  -28.3968  -24.2665   20.4366 H   0  0  0  0  0  0
  -29.7788  -20.8830   17.7987 H   0  0  0  0  0  0
  -29.4270  -22.5320   18.2883 H   0  0  0  0  0  0
  -28.3146  -21.2346   18.7092 H   0  0  0  0  0  0
  -28.5846  -22.3131   21.0606 H   0  0  0  0  0  0
  -29.9748  -21.8578   21.9916 H   0  0  0  0  0  0
  -31.1803  -21.5000   19.7134 H   0  0  0  0  0  0
  -32.4523  -20.2585   19.0558 H   0  0  0  0  0  0
  -33.0170  -18.6402   18.9967 H   0  0  0  0  0  0
  -29.0473  -15.2549   21.3860 H   0  0  0  0  0  0
  -30.0445  -26.7714   20.3947 H   0  0  0  0  0  0
  1 25  1  0  0  0
  1 30  2  0  0  0
  1 84  1  0  0  0
  2  3  1  0  0  0
  2 25  1  0  0  0
  2 87  1  0  0  0
  2 88  1  0  0  0
  3  4  1  0  0  0
  3 89  1  0  0  0
  3 90  1  0  0  0
  4  5  1  0  0  0
  4 91  1  0  0  0
  4 92  1  0  0  0
  5  6  1  0  0  0
  5 26  1  0  0  0
  5 93  1  0  0  0
  6 25  1  0  0  0
  6 94  1  0  0  0
  6 95  1  0  0  0
  7  8  2  0  0  0
  7 26  1  0  0  0
  7 29  1  0  0  0
  8  9  1  0  0  0
  8 22  1  0  0  0
  9 10  1  0  0  0
  9 27  2  0  0  0
 10 11  2  0  0  0
 10 15  1  0  0  0
 11 12  1  0  0  0
 11 96  1  0  0  0
 12 13  2  0  0  0
 12 97  1  0  0  0
 13 14  1  0  0  0
 13 31  1  0  0  0
 14 15  2  0  0  0
 14 98  1  0  0  0
 15 99  1  0  0  0
 16 17  2  0  0  0
 16 21  1  0  0  0
 16 31  1  0  0  0
 17 18  1  0  0  0
 17100  1  0  0  0
 18 19  2  0  0  0
 18101  1  0  0  0
 19 20  1  0  0  0
 19 24  1  0  0  0
 20 21  2  0  0  0
 20102  1  0  0  0
 21 23  1  0  0  0
 22 28  1  0  0  0
 22 32  2  0  0  0
 26 27  1  0  0  0
 28103  1  0  0  0
 28104  1  0  0  0
 29105  1  0  0  0
 29106  1  0  0  0
 33 34  1  0  0  0
 33 66  1  0  0  0
 33 70  2  0  0  0
 34 36  1  0  0  0
 34 59  1  0  0  0
 34107  1  0  0  0
 35 44  2  0  0  0
 35 45  1  0  0  0
 35 68  1  0  0  0
 36 56  1  0  0  0
 36108  1  0  0  0
 37 39  1  0  0  0
 37 47  1  0  0  0
 37 66  1  0  0  0
 37109  1  0  0  0
 38 43  2  0  0  0
 38 46  1  0  0  0
 38 47  1  0  0  0
 39 64  1  0  0  0
 39 67  2  0  0  0
 40 52  1  0  0  0
 40 53  2  0  0  0
 40 58  1  0  0  0
 41110  1  0  0  0
 41111  1  0  0  0
 41112  1  0  0  0
 41 48  1  0  0  0
 42 43  1  0  0  0
 42 66  1  0  0  0
 42113  1  0  0  0
 42114  1  0  0  0
 43 44  1  0  0  0
 44115  1  0  0  0
 45 46  2  0  0  0
 45116  1  0  0  0
 46117  1  0  0  0
 47118  1  0  0  0
 47119  1  0  0  0
 48 56  1  0  0  0
 48 65  1  0  0  0
 48120  1  0  0  0
 49 50  1  0  0  0
 49 53  1  0  0  0
 49 64  1  0  0  0
 49121  1  0  0  0
 50 51  1  0  0  0
 50122  1  0  0  0
 50123  1  0  0  0
 51 52  1  0  0  0
 51124  1  0  0  0
 51125  1  0  0  0
 52126  1  0  0  0
 52127  1  0  0  0
 53 54  1  0  0  0
 54 55  2  0  0  0
 54128  1  0  0  0
 55 57  1  0  0  0
 55129  1  0  0  0
 56 69  2  0  0  0
 57 58  2  0  0  0
 57130  1  0  0  0
 58131  1  0  0  0
 59 60  1  0  0  0
 59 61  1  0  0  0
 59 62  1  0  0  0
 60132  1  0  0  0
 60133  1  0  0  0
 60134  1  0  0  0
 61135  1  0  0  0
 61136  1  0  0  0
 61137  1  0  0  0
 62138  1  0  0  0
 62139  1  0  0  0
 62140  1  0  0  0
 63 65  1  0  0  0
 63141  1  0  0  0
 63142  1  0  0  0
 63143  1  0  0  0
 64144  1  0  0  0
 65145  1  0  0  0
 68 76  1  0  0  0
 71 72  2  0  0  0
 71 73  1  0  0  0
 71146  1  0  0  0
 72 74  1  0  0  0
 72147  1  0  0  0
 73 75  2  0  0  0
 73 81  1  0  0  0
 74 82  2  0  0  0
 74 84  1  0  0  0
 75 82  1  0  0  0
 75 83  1  0  0  0
 76 77  2  0  0  0
 76148  1  0  0  0
 77 78  1  0  0  0
 77 86  1  0  0  0
 78 80  1  0  0  0
 78 85  2  0  0  0
 79149  1  0  0  0
 79150  1  0  0  0
 79151  1  0  0  0
 79 81  1  0  0  0
 80 81  1  0  0  0
 80152  1  0  0  0
 80153  1  0  0  0
 81154  1  0  0  0
 83155  1  0  0  0
 83156  1  0  0  0
 84157  1  0  0  0
 86158  1  0  0  0
M  ISO  4   1 100  68 101  76 101  84 100
M  END
> <chiral flag>
0

> <version>
0

> <s_m_source_file>
/data/baiqing/PycharmProjects/Reinvent-master-3.2/result/LINK_invent/BTK/process_docking_weight1_custom_product_contain_oxygen_bond_distance_aromatic_linkinvent_7_9_3/rearranged_h_0178.sdf

> <i_m_source_file_index>
91

> <r_mmod_Potential_Energy-OPLS-2005>
228.530624389648

> <r_mmod_Stretch_Energy-OPLS-2005>
73.8270645141602

> <r_mmod_Bend_Energy-OPLS-2005>
532.755554199219

> <r_mmod_Torsional_Energy-OPLS-2005>
191.386291503906

> <r_mmod_Improper_Torsional_Energy-OPLS-2005>
4.65403747558594

> <r_mmod_Van_der_Waal_Energy-OPLS-2005>
213.920440673828

> <r_mmod_Electrostatic_Energy-OPLS-2005>
-541.527709960938

> <r_mmod_Solvation_Energy-OPLS-2005>
-263.728393554688

> <b_mmod_Minimization_Converged-OPLS-2005>
0

> <r_mmod_RMS_Derivative-OPLS-2005>
2.00585603713989

$$$$
91
                    3D
 Structure written by MMmdl.
158166  0  0  1  0            999 V2000
  -30.7257  -14.4953   20.5978 C   0  0  0  0  0  0
  -30.4181  -12.3344   19.4334 C   0  0  0  0  0  0
  -29.4923  -12.5203   18.2148 C   0  0  0  0  0  0
  -28.0149  -12.3718   18.6248 C   0  0  0  0  0  0
  -27.6578  -13.2183   19.8755 C   0  0  2  0  0  0
  -28.6987  -13.0276   21.0022 C   0  0  0  0  0  0
  -25.2567  -13.8192   20.5714 C   0  0  0  0  0  0
  -24.1818  -13.0446   20.9169 C   0  0  0  0  0  0
  -24.6384  -11.6919   20.8715 C   0  0  0  0  0  0
  -23.9050  -10.4296   21.0390 C   0  0  0  0  0  0
  -24.3599   -9.4219   21.9172 C   0  0  0  0  0  0
  -23.6286   -8.2251   22.0749 C   0  0  0  0  0  0
  -22.4270   -8.0268   21.3532 C   0  0  0  0  0  0
  -21.9910   -9.0233   20.4627 C   0  0  0  0  0  0
  -22.7239  -10.2118   20.3032 C   0  0  0  0  0  0
  -21.6845   -6.0719   22.5272 C   0  0  0  0  0  0
  -21.4017   -6.5625   23.8201 C   0  0  0  0  0  0
  -21.3658   -5.6787   24.9172 C   0  0  0  0  0  0
  -21.6052   -4.3050   24.7232 C   0  0  0  0  0  0
  -21.8816   -3.8134   23.4349 C   0  0  0  0  0  0
  -21.9192   -4.6949   22.3407 C   0  0  0  0  0  0
  -22.7840  -13.5228   21.1839 C   0  0  0  0  0  0
  -22.1661   -4.2139   21.0982 F   0  0  0  0  0  0
  -21.5631   -3.4540   25.7743 F   0  0  0  0  0  0
  -30.0320  -13.3294   20.4523 N   0  0  0  0  0  0
  -26.3001  -12.9378   20.3371 N   0  0  0  0  0  0
  -25.9312  -11.6516   20.5749 N   0  0  0  0  0  0
  -22.0480  -12.8173   22.0365 N   0  0  0  0  0  0
  -25.4316  -15.1921   20.4198 N   0  0  0  0  0  0
  -31.8209  -14.6681   20.0569 O   0  0  0  0  0  0
  -21.6629   -6.8868   21.4230 O   0  0  0  0  0  0
  -22.3525  -14.5547   20.6724 O   0  0  0  0  0  0
  -24.6169  -31.8651   23.2054 C   0  0  0  0  0  0
  -25.9053  -32.4811   23.8362 C   0  0  1  0  0  0
  -27.2448  -27.4188   20.1057 C   0  0  0  0  0  0
  -25.5903  -33.8608   24.2295 N   0  0  0  0  0  0
  -23.4086  -30.4848   21.5460 C   0  0  2  0  0  0
  -24.8615  -28.9513   20.1112 C   0  0  0  0  0  0
  -22.7431  -29.4639   22.4981 C   0  0  0  0  0  0
  -18.0268  -28.1374   22.8483 C   0  0  0  0  0  0
  -24.1487  -36.7297   23.2644 C   0  0  0  0  0  0
  -25.9363  -30.8280   21.3606 C   0  0  0  0  0  0
  -26.0210  -29.4609   20.7095 C   0  0  0  0  0  0
  -27.2192  -28.7031   20.7013 C   0  0  0  0  0  0
  -26.0720  -26.9317   19.4926 C   0  0  0  0  0  0
  -24.8835  -27.6875   19.4966 C   0  0  0  0  0  0
  -23.6179  -29.8133   20.1626 C   0  0  0  0  0  0
  -25.4118  -36.3101   24.0333 C   0  0  1  0  0  0
  -20.5862  -28.3669   23.1308 C   0  0  2  0  0  0
  -20.6776  -26.9414   22.5387 C   0  0  0  0  0  0
  -19.5747  -26.6393   21.5191 C   0  0  0  0  0  0
  -18.1915  -26.7919   22.1608 C   0  0  0  0  0  0
  -19.1523  -28.8835   23.2882 C   0  0  0  0  0  0
  -18.9467  -30.1437   23.8913 C   0  0  0  0  0  0
  -17.6486  -30.6590   24.0568 C   0  0  0  0  0  0
  -25.9058  -34.9472   23.5122 C   0  0  0  0  0  0
  -16.5364  -29.9102   23.6340 C   0  0  0  0  0  0
  -16.7265  -28.6514   23.0363 C   0  0  0  0  0  0
  -26.4486  -31.6599   25.0691 C   0  0  0  0  0  0
  -25.3735  -31.3645   26.1408 C   0  0  0  0  0  0
  -27.0400  -30.3090   24.6033 C   0  0  0  0  0  0
  -27.6021  -32.4342   25.7497 C   0  0  0  0  0  0
  -27.5574  -37.1811   24.8471 C   0  0  0  0  0  0
  -21.4154  -29.3050   22.3730 N   0  0  0  0  0  0
  -26.4300  -37.3791   23.9407 N   0  0  0  0  0  0
  -24.6721  -31.0732   22.0970 N   0  0  0  0  0  0
  -23.4179  -28.8183   23.3038 O   0  0  0  0  0  0
  -28.3692  -26.6162   20.1463 O   0  0  0  0  0  0
  -26.5625  -34.8922   22.4682 O   0  0  0  0  0  0
  -23.5355  -32.1405   23.7438 O   0  0  0  0  0  0
  -31.4754  -19.5250   21.8114 C   0  0  0  0  0  0
  -32.3607  -18.4423   21.9832 C   0  0  0  0  0  0
  -30.1212  -19.3012   21.4738 C   0  0  0  0  0  0
  -30.5867  -16.8483   21.4233 C   0  0  0  0  0  0
  -31.9214  -17.1154   21.8191 C   0  0  0  0  0  0
  -29.6926  -17.9480   21.2704 C   0  0  0  0  0  0
  -29.1834  -20.4630   21.4821 C   0  0  0  0  0  0
  -29.1096  -24.2600   20.7709 C   0  0  0  0  0  0
  -28.9376  -23.2971   23.1117 C   0  0  0  0  0  0
  -28.1795  -25.4799   21.0247 C   0  0  0  0  0  0
  -28.7758  -22.9835   21.6045 C   0  0  2  0  0  0
  -30.1039  -15.4993   21.2577 N   0  0  0  0  0  0
  -29.5586  -21.7523   21.2488 N   0  0  0  0  0  0
  -27.9130  -20.2645   21.8390 N   0  3  0  0  0  0
  -30.0592  -24.3175   19.9833 O   0  0  0  0  0  0
  -32.7863  -16.1094   22.1015 F   0  0  0  0  0  0
  -28.3957  -17.6811   20.9680 F   0  0  0  0  0  0
  -31.4609  -12.4320   19.1267 H   0  0  0  0  0  0
  -30.3245  -11.3253   19.8379 H   0  0  0  0  0  0
  -29.7408  -11.7964   17.4382 H   0  0  0  0  0  0
  -29.6528  -13.5065   17.7758 H   0  0  0  0  0  0
  -27.8305  -11.3159   18.8259 H   0  0  0  0  0  0
  -27.3670  -12.6401   17.7904 H   0  0  0  0  0  0
  -27.6933  -14.2632   19.5650 H   0  0  0  0  0  0
  -28.6749  -11.9995   21.3675 H   0  0  0  0  0  0
  -28.4485  -13.6471   21.8642 H   0  0  0  0  0  0
  -25.2735   -9.5705   22.4749 H   0  0  0  0  0  0
  -23.9988   -7.4652   22.7473 H   0  0  0  0  0  0
  -21.0850   -8.8748   19.8919 H   0  0  0  0  0  0
  -22.3701  -10.9644   19.6125 H   0  0  0  0  0  0
  -21.2004   -7.6128   23.9712 H   0  0  0  0  0  0
  -21.1486   -6.0513   25.9079 H   0  0  0  0  0  0
  -22.0596   -2.7596   23.2861 H   0  0  0  0  0  0
  -22.4077  -11.9773   22.4655 H   0  0  0  0  0  0
  -21.1092  -13.1163   22.2597 H   0  0  0  0  0  0
  -24.6716  -15.8527   20.5389 H   0  0  0  0  0  0
  -26.2992  -15.6339   20.1413 H   0  0  0  0  0  0
  -26.7122  -32.5544   23.1125 H   0  0  0  0  0  0
  -25.0076  -33.9766   25.0458 H   0  0  0  0  0  0
  -22.7000  -31.3017   21.3998 H   0  0  0  0  0  0
  -23.3758  -35.9615   23.3310 H   0  0  0  0  0  0
  -24.3580  -36.8915   22.2055 H   0  0  0  0  0  0
  -23.7223  -37.6487   23.6682 H   0  0  0  0  0  0
  -26.0387  -31.5894   20.5864 H   0  0  0  0  0  0
  -26.8267  -30.8910   21.9732 H   0  0  0  0  0  0
  -28.1112  -29.0863   21.1775 H   0  0  0  0  0  0
  -26.0740  -25.9576   19.0232 H   0  0  0  0  0  0
  -23.9956  -27.2911   19.0238 H   0  0  0  0  0  0
  -23.7157  -30.5837   19.3970 H   0  0  0  0  0  0
  -22.7463  -29.2222   19.8731 H   0  0  0  0  0  0
  -25.1278  -36.1979   25.0824 H   0  0  0  0  0  0
  -20.9936  -28.3243   24.1444 H   0  0  0  0  0  0
  -20.5719  -26.2276   23.3566 H   0  0  0  0  0  0
  -21.6633  -26.7490   22.1148 H   0  0  0  0  0  0
  -19.6930  -25.6310   21.1209 H   0  0  0  0  0  0
  -19.6692  -27.3219   20.6732 H   0  0  0  0  0  0
  -17.4183  -26.6678   21.4006 H   0  0  0  0  0  0
  -18.0313  -26.0032   22.8979 H   0  0  0  0  0  0
  -19.7952  -30.7210   24.2317 H   0  0  0  0  0  0
  -17.5050  -31.6279   24.5133 H   0  0  0  0  0  0
  -15.5377  -30.3018   23.7660 H   0  0  0  0  0  0
  -15.8648  -28.0847   22.7107 H   0  0  0  0  0  0
  -24.5935  -30.7003   25.7674 H   0  0  0  0  0  0
  -24.8904  -32.2772   26.4891 H   0  0  0  0  0  0
  -25.8032  -30.8754   27.0154 H   0  0  0  0  0  0
  -26.2972  -29.6783   24.1135 H   0  0  0  0  0  0
  -27.4318  -29.7371   25.4453 H   0  0  0  0  0  0
  -27.8694  -30.4493   23.9098 H   0  0  0  0  0  0
  -27.2637  -33.3663   26.2024 H   0  0  0  0  0  0
  -28.3873  -32.6865   25.0367 H   0  0  0  0  0  0
  -28.0631  -31.8499   26.5462 H   0  0  0  0  0  0
  -28.2554  -38.0142   24.7563 H   0  0  0  0  0  0
  -28.1108  -36.2671   24.6270 H   0  0  0  0  0  0
  -27.2275  -37.1410   25.8865 H   0  0  0  0  0  0
  -20.9330  -29.8816   21.6969 H   0  0  0  0  0  0
  -26.0187  -38.2862   24.1415 H   0  0  0  0  0  0
  -31.8449  -20.5236   21.9970 H   0  0  0  0  0  0
  -33.3808  -18.6240   22.2860 H   0  0  0  0  0  0
  -28.0558  -23.8086   23.5016 H   0  0  0  0  0  0
  -29.7994  -23.9381   23.3002 H   0  0  0  0  0  0
  -29.0682  -22.3992   23.7169 H   0  0  0  0  0  0
  -28.3371  -25.8173   22.0495 H   0  0  0  0  0  0
  -27.1536  -25.1150   20.9759 H   0  0  0  0  0  0
  -27.7249  -22.7619   21.4169 H   0  0  0  0  0  0
  -29.1605  -15.3221   21.5628 H   0  0  0  0  0  0
  -30.4648  -21.9147   20.8207 H   0  0  0  0  0  0
  -27.5844  -19.3127   21.9276 H   0  0  0  0  0  0
  -27.2552  -21.0226   21.9033 H   0  0  0  0  0  0
  1 25  1  0  0  0
  1 30  2  0  0  0
  1 82  1  0  0  0
  2  3  1  0  0  0
  2 25  1  0  0  0
  2 88  1  0  0  0
  2 89  1  0  0  0
  3  4  1  0  0  0
  3 90  1  0  0  0
  3 91  1  0  0  0
  4  5  1  0  0  0
  4 92  1  0  0  0
  4 93  1  0  0  0
  5  6  1  0  0  0
  5 26  1  0  0  0
  5 94  1  0  0  0
  6 25  1  0  0  0
  6 95  1  0  0  0
  6 96  1  0  0  0
  7  8  2  0  0  0
  7 26  1  0  0  0
  7 29  1  0  0  0
  8  9  1  0  0  0
  8 22  1  0  0  0
  9 10  1  0  0  0
  9 27  2  0  0  0
 10 11  2  0  0  0
 10 15  1  0  0  0
 11 12  1  0  0  0
 11 97  1  0  0  0
 12 13  2  0  0  0
 12 98  1  0  0  0
 13 14  1  0  0  0
 13 31  1  0  0  0
 14 15  2  0  0  0
 14 99  1  0  0  0
 15100  1  0  0  0
 16 17  2  0  0  0
 16 21  1  0  0  0
 16 31  1  0  0  0
 17 18  1  0  0  0
 17101  1  0  0  0
 18 19  2  0  0  0
 18102  1  0  0  0
 19 20  1  0  0  0
 19 24  1  0  0  0
 20 21  2  0  0  0
 20103  1  0  0  0
 21 23  1  0  0  0
 22 28  1  0  0  0
 22 32  2  0  0  0
 26 27  1  0  0  0
 28104  1  0  0  0
 28105  1  0  0  0
 29106  1  0  0  0
 29107  1  0  0  0
 33 34  1  0  0  0
 33 66  1  0  0  0
 33 70  2  0  0  0
 34 36  1  0  0  0
 34 59  1  0  0  0
 34108  1  0  0  0
 35 44  2  0  0  0
 35 45  1  0  0  0
 35 68  1  0  0  0
 36 56  1  0  0  0
 36109  1  0  0  0
 37 39  1  0  0  0
 37 47  1  0  0  0
 37 66  1  0  0  0
 37110  1  0  0  0
 38 43  2  0  0  0
 38 46  1  0  0  0
 38 47  1  0  0  0
 39 64  1  0  0  0
 39 67  2  0  0  0
 40 52  1  0  0  0
 40 53  2  0  0  0
 40 58  1  0  0  0
 41111  1  0  0  0
 41112  1  0  0  0
 41113  1  0  0  0
 41 48  1  0  0  0
 42 43  1  0  0  0
 42 66  1  0  0  0
 42114  1  0  0  0
 42115  1  0  0  0
 43 44  1  0  0  0
 44116  1  0  0  0
 45 46  2  0  0  0
 45117  1  0  0  0
 46118  1  0  0  0
 47119  1  0  0  0
 47120  1  0  0  0
 48 56  1  0  0  0
 48 65  1  0  0  0
 48121  1  0  0  0
 49 50  1  0  0  0
 49 53  1  0  0  0
 49 64  1  0  0  0
 49122  1  0  0  0
 50 51  1  0  0  0
 50123  1  0  0  0
 50124  1  0  0  0
 51 52  1  0  0  0
 51125  1  0  0  0
 51126  1  0  0  0
 52127  1  0  0  0
 52128  1  0  0  0
 53 54  1  0  0  0
 54 55  2  0  0  0
 54129  1  0  0  0
 55 57  1  0  0  0
 55130  1  0  0  0
 56 69  2  0  0  0
 57 58  2  0  0  0
 57131  1  0  0  0
 58132  1  0  0  0
 59 60  1  0  0  0
 59 61  1  0  0  0
 59 62  1  0  0  0
 60133  1  0  0  0
 60134  1  0  0  0
 60135  1  0  0  0
 61136  1  0  0  0
 61137  1  0  0  0
 61138  1  0  0  0
 62139  1  0  0  0
 62140  1  0  0  0
 62141  1  0  0  0
 63 65  1  0  0  0
 63142  1  0  0  0
 63143  1  0  0  0
 63144  1  0  0  0
 64145  1  0  0  0
 65146  1  0  0  0
 68 80  1  0  0  0
 71 72  2  0  0  0
 71 73  1  0  0  0
 71147  1  0  0  0
 72 75  1  0  0  0
 72148  1  0  0  0
 73 76  2  0  0  0
 73 77  1  0  0  0
 74 75  2  0  0  0
 74 76  1  0  0  0
 74 82  1  0  0  0
 75 86  1  0  0  0
 76 87  1  0  0  0
 77 83  1  0  0  0
 77 84  2  0  0  0
 78 80  1  0  0  0
 78 81  1  0  0  0
 78 85  2  0  0  0
 79149  1  0  0  0
 79150  1  0  0  0
 79151  1  0  0  0
 79 81  1  0  0  0
 80152  1  0  0  0
 80153  1  0  0  0
 81 83  1  0  0  0
 81154  1  0  0  0
 82155  1  0  0  0
 83156  1  0  0  0
 84157  1  0  0  0
 84158  1  0  0  0
M  CHG  1  84   1
M  ISO  4   1 100  68 101  80 101  82 100
M  END
> <chiral flag>
0

> <version>
0

> <s_m_source_file>
/data/baiqing/PycharmProjects/Reinvent-master-3.2/result/LINK_invent/BTK/process_docking_weight1_custom_product_contain_oxygen_bond_distance_aromatic_linkinvent_7_9_3/rearranged_h_0178.sdf

> <i_m_source_file_index>
92

> <r_mmod_Potential_Energy-OPLS-2005>
-308.578704833984

> <r_mmod_Stretch_Energy-OPLS-2005>
49.7548408508301

> <r_mmod_Bend_Energy-OPLS-2005>
100.757286071777

> <r_mmod_Torsional_Energy-OPLS-2005>
245.841094970703

> <r_mmod_Improper_Torsional_Energy-OPLS-2005>
4.5682201385498

> <r_mmod_Van_der_Waal_Energy-OPLS-2005>
160.57633972168

> <r_mmod_Electrostatic_Energy-OPLS-2005>
-425.197113037109

> <r_mmod_Solvation_Energy-OPLS-2005>
-461.302673339844

> <b_mmod_Minimization_Converged-OPLS-2005>
0

> <r_mmod_RMS_Derivative-OPLS-2005>
3.09350204467773

$$$$
92
                    3D
 Structure written by MMmdl.
151159  0  0  1  0            999 V2000
  -30.7027  -14.4918   20.5503 C   0  0  0  0  0  0
  -30.4140  -12.3124   19.4276 C   0  0  0  0  0  0
  -29.4944  -12.5132   18.2049 C   0  0  0  0  0  0
  -28.0150  -12.3726   18.6180 C   0  0  0  0  0  0
  -27.6588  -13.2134   19.8745 C   0  0  2  0  0  0
  -28.7022  -13.0154   20.9982 C   0  0  0  0  0  0
  -25.2565  -13.8157   20.5692 C   0  0  0  0  0  0
  -24.1822  -13.0429   20.9164 C   0  0  0  0  0  0
  -24.6396  -11.6894   20.8716 C   0  0  0  0  0  0
  -23.9063  -10.4284   21.0390 C   0  0  0  0  0  0
  -24.3627   -9.4209   21.9170 C   0  0  0  0  0  0
  -23.6300   -8.2249   22.0743 C   0  0  0  0  0  0
  -22.4280   -8.0282   21.3543 C   0  0  0  0  0  0
  -21.9914   -9.0245   20.4641 C   0  0  0  0  0  0
  -22.7234  -10.2127   20.3032 C   0  0  0  0  0  0
  -21.6855   -6.0741   22.5273 C   0  0  0  0  0  0
  -21.4002   -6.5638   23.8214 C   0  0  0  0  0  0
  -21.3667   -5.6792   24.9173 C   0  0  0  0  0  0
  -21.6053   -4.3052   24.7224 C   0  0  0  0  0  0
  -21.8814   -3.8150   23.4345 C   0  0  0  0  0  0
  -21.9192   -4.6972   22.3395 C   0  0  0  0  0  0
  -22.7842  -13.5229   21.1859 C   0  0  0  0  0  0
  -22.1656   -4.2161   21.0970 F   0  0  0  0  0  0
  -21.5661   -3.4532   25.7739 F   0  0  0  0  0  0
  -30.0258  -13.3152   20.4343 N   0  0  0  0  0  0
  -26.3023  -12.9351   20.3401 N   0  0  0  0  0  0
  -25.9339  -11.6492   20.5774 N   0  0  0  0  0  0
  -22.0503  -12.8207   22.0414 N   0  0  0  0  0  0
  -25.4287  -15.1878   20.4177 N   0  0  0  0  0  0
  -31.8471  -14.6392   20.1153 O   0  0  0  0  0  0
  -21.6647   -6.8881   21.4232 O   0  0  0  0  0  0
  -22.3512  -14.5549   20.6736 O   0  0  0  0  0  0
  -24.6195  -31.8693   23.2121 C   0  0  0  0  0  0
  -25.9083  -32.4824   23.8410 C   0  0  1  0  0  0
  -27.2109  -27.3896   20.0909 C   0  0  0  0  0  0
  -25.5937  -33.8628   24.2336 N   0  0  0  0  0  0
  -23.4075  -30.4986   21.5545 C   0  0  2  0  0  0
  -24.8488  -28.9727   20.1111 C   0  0  0  0  0  0
  -22.7435  -29.4687   22.4980 C   0  0  0  0  0  0
  -18.0285  -28.1383   22.8501 C   0  0  0  0  0  0
  -24.1470  -36.7287   23.2598 C   0  0  0  0  0  0
  -25.9461  -30.8170   21.3798 C   0  0  0  0  0  0
  -26.0168  -29.4536   20.7170 C   0  0  0  0  0  0
  -27.2016  -28.6695   20.7081 C   0  0  0  0  0  0
  -26.0196  -26.9577   19.4542 C   0  0  0  0  0  0
  -24.8474  -27.7254   19.4769 C   0  0  0  0  0  0
  -23.6149  -29.8419   20.1664 C   0  0  0  0  0  0
  -25.4070  -36.3103   24.0337 C   0  0  1  0  0  0
  -20.5883  -28.3701   23.1297 C   0  0  2  0  0  0
  -20.6787  -26.9430   22.5418 C   0  0  0  0  0  0
  -19.5747  -26.6393   21.5236 C   0  0  0  0  0  0
  -18.1925  -26.7929   22.1638 C   0  0  0  0  0  0
  -19.1536  -28.8855   23.2893 C   0  0  0  0  0  0
  -18.9457  -30.1467   23.8900 C   0  0  0  0  0  0
  -17.6457  -30.6593   24.0575 C   0  0  0  0  0  0
  -25.9061  -34.9485   23.5138 C   0  0  0  0  0  0
  -16.5345  -29.9091   23.6335 C   0  0  0  0  0  0
  -16.7270  -28.6509   23.0358 C   0  0  0  0  0  0
  -26.4488  -31.6602   25.0757 C   0  0  0  0  0  0
  -25.3730  -31.3732   26.1492 C   0  0  0  0  0  0
  -27.0319  -30.3014   24.6198 C   0  0  0  0  0  0
  -27.6073  -32.4322   25.7517 C   0  0  0  0  0  0
  -27.5649  -37.1657   24.8342 C   0  0  0  0  0  0
  -21.4167  -29.3067   22.3701 N   0  0  0  0  0  0
  -26.4179  -37.3871   23.9575 N   0  0  0  0  0  0
  -24.6762  -31.0755   22.1057 N   0  0  0  0  0  0
  -23.4195  -28.8222   23.3024 O   0  0  0  0  0  0
  -28.3310  -26.5626   20.1365 O   0  0  0  0  0  0
  -26.5627  -34.8948   22.4704 O   0  0  0  0  0  0
  -23.5377  -32.1495   23.7475 O   0  0  0  0  0  0
  -29.5873  -18.0821   21.2473 C   0  0  0  0  0  0
  -28.3675  -18.0974   21.8957 C   0  0  0  0  0  0
  -29.0533  -20.3237   21.0334 C   0  0  0  0  0  0
  -29.1079  -24.1410   20.4144 C   0  0  0  0  0  0
  -28.5830  -22.7842   21.0136 C   0  0  0  0  0  0
  -30.5649  -16.9243   21.0734 C   0  0  0  0  0  0
  -28.0137  -25.1477   19.9866 C   0  0  0  0  0  0
  -29.9433  -19.3573   20.7485 N   0  0  0  0  0  0
  -27.7028  -17.0562   22.5405 N   0  0  0  0  0  0
  -29.2870  -21.6865   20.6471 N   0  0  0  0  0  0
  -30.0137  -15.5518   21.0204 N   0  0  0  0  0  0
  -30.3129  -24.3765   20.2549 O   0  0  0  0  0  0
  -27.6011  -22.7634   21.7647 O   0  0  0  0  0  0
  -27.6538  -19.6971   21.9113 S   0  0  0  0  0  0
  -31.4625  -12.3880   19.1365 H   0  0  0  0  0  0
  -30.2892  -11.3054   19.8273 H   0  0  0  0  0  0
  -29.7350  -11.7880   17.4256 H   0  0  0  0  0  0
  -29.6653  -13.4985   17.7654 H   0  0  0  0  0  0
  -27.8329  -11.3160   18.8188 H   0  0  0  0  0  0
  -27.3607  -12.6413   17.7863 H   0  0  0  0  0  0
  -27.6958  -14.2609   19.5743 H   0  0  0  0  0  0
  -28.6820  -11.9880   21.3644 H   0  0  0  0  0  0
  -28.4735  -13.6402   21.8631 H   0  0  0  0  0  0
  -25.2784   -9.5702   22.4748 H   0  0  0  0  0  0
  -24.0030   -7.4635   22.7454 H   0  0  0  0  0  0
  -21.0848   -8.8732   19.8947 H   0  0  0  0  0  0
  -22.3680  -10.9650   19.6138 H   0  0  0  0  0  0
  -21.1958   -7.6138   23.9710 H   0  0  0  0  0  0
  -21.1511   -6.0528   25.9082 H   0  0  0  0  0  0
  -22.0592   -2.7615   23.2837 H   0  0  0  0  0  0
  -22.4119  -11.9863   22.4779 H   0  0  0  0  0  0
  -21.1117  -13.1209   22.2605 H   0  0  0  0  0  0
  -24.6765  -15.8461   20.5873 H   0  0  0  0  0  0
  -26.3267  -15.6405   20.2917 H   0  0  0  0  0  0
  -26.7151  -32.5513   23.1164 H   0  0  0  0  0  0
  -25.0057  -33.9795   25.0459 H   0  0  0  0  0  0
  -22.6988  -31.3188   21.4185 H   0  0  0  0  0  0
  -23.3871  -35.9457   23.2919 H   0  0  0  0  0  0
  -24.3685  -36.9263   22.2099 H   0  0  0  0  0  0
  -23.6979  -37.6276   23.6832 H   0  0  0  0  0  0
  -26.0755  -31.5848   20.6162 H   0  0  0  0  0  0
  -26.8266  -30.8564   22.0091 H   0  0  0  0  0  0
  -28.0943  -29.0286   21.2021 H   0  0  0  0  0  0
  -25.9504  -26.0175   18.9291 H   0  0  0  0  0  0
  -23.9517  -27.3554   18.9977 H   0  0  0  0  0  0
  -23.7228  -30.6195   19.4093 H   0  0  0  0  0  0
  -22.7380  -29.2636   19.8690 H   0  0  0  0  0  0
  -25.1174  -36.1893   25.0798 H   0  0  0  0  0  0
  -20.9971  -28.3273   24.1420 H   0  0  0  0  0  0
  -20.5737  -26.2313   23.3623 H   0  0  0  0  0  0
  -21.6649  -26.7507   22.1172 H   0  0  0  0  0  0
  -19.6919  -25.6313   21.1250 H   0  0  0  0  0  0
  -19.6658  -27.3226   20.6784 H   0  0  0  0  0  0
  -17.4211  -26.6718   21.4021 H   0  0  0  0  0  0
  -18.0289  -26.0059   22.9011 H   0  0  0  0  0  0
  -19.7938  -30.7294   24.2243 H   0  0  0  0  0  0
  -17.5015  -31.6269   24.5177 H   0  0  0  0  0  0
  -15.5352  -30.2995   23.7658 H   0  0  0  0  0  0
  -15.8674  -28.0833   22.7063 H   0  0  0  0  0  0
  -24.5891  -30.7106   25.7807 H   0  0  0  0  0  0
  -24.8948  -32.2900   26.4939 H   0  0  0  0  0  0
  -25.8049  -30.8877   27.0248 H   0  0  0  0  0  0
  -26.2892  -29.6778   24.1204 H   0  0  0  0  0  0
  -27.3986  -29.7253   25.4705 H   0  0  0  0  0  0
  -27.8780  -30.4281   23.9442 H   0  0  0  0  0  0
  -27.2692  -33.3607   26.2122 H   0  0  0  0  0  0
  -28.3857  -32.6900   25.0327 H   0  0  0  0  0  0
  -28.0762  -31.8431   26.5405 H   0  0  0  0  0  0
  -28.2174  -38.0399   24.8213 H   0  0  0  0  0  0
  -28.1618  -36.3102   24.5138 H   0  0  0  0  0  0
  -27.2553  -36.9998   25.8677 H   0  0  0  0  0  0
  -20.9346  -29.8771   21.6899 H   0  0  0  0  0  0
  -26.0031  -38.2809   24.2069 H   0  0  0  0  0  0
  -31.2802  -16.9459   21.8970 H   0  0  0  0  0  0
  -31.1514  -17.1023   20.1704 H   0  0  0  0  0  0
  -27.1215  -24.9228   20.5728 H   0  0  0  0  0  0
  -27.7800  -24.9379   18.9429 H   0  0  0  0  0  0
  -28.2217  -16.3153   22.9987 H   0  0  0  0  0  0
  -26.8327  -17.2444   23.0301 H   0  0  0  0  0  0
  -30.0829  -21.8620   20.0503 H   0  0  0  0  0  0
  -29.0585  -15.4230   21.3171 H   0  0  0  0  0  0
  1 25  1  0  0  0
  1 30  2  0  0  0
  1 81  1  0  0  0
  2  3  1  0  0  0
  2 25  1  0  0  0
  2 85  1  0  0  0
  2 86  1  0  0  0
  3  4  1  0  0  0
  3 87  1  0  0  0
  3 88  1  0  0  0
  4  5  1  0  0  0
  4 89  1  0  0  0
  4 90  1  0  0  0
  5  6  1  0  0  0
  5 26  1  0  0  0
  5 91  1  0  0  0
  6 25  1  0  0  0
  6 92  1  0  0  0
  6 93  1  0  0  0
  7  8  2  0  0  0
  7 26  1  0  0  0
  7 29  1  0  0  0
  8  9  1  0  0  0
  8 22  1  0  0  0
  9 10  1  0  0  0
  9 27  2  0  0  0
 10 11  2  0  0  0
 10 15  1  0  0  0
 11 12  1  0  0  0
 11 94  1  0  0  0
 12 13  2  0  0  0
 12 95  1  0  0  0
 13 14  1  0  0  0
 13 31  1  0  0  0
 14 15  2  0  0  0
 14 96  1  0  0  0
 15 97  1  0  0  0
 16 17  2  0  0  0
 16 21  1  0  0  0
 16 31  1  0  0  0
 17 18  1  0  0  0
 17 98  1  0  0  0
 18 19  2  0  0  0
 18 99  1  0  0  0
 19 20  1  0  0  0
 19 24  1  0  0  0
 20 21  2  0  0  0
 20100  1  0  0  0
 21 23  1  0  0  0
 22 28  1  0  0  0
 22 32  2  0  0  0
 26 27  1  0  0  0
 28101  1  0  0  0
 28102  1  0  0  0
 29103  1  0  0  0
 29104  1  0  0  0
 33 34  1  0  0  0
 33 66  1  0  0  0
 33 70  2  0  0  0
 34 36  1  0  0  0
 34 59  1  0  0  0
 34105  1  0  0  0
 35 44  2  0  0  0
 35 45  1  0  0  0
 35 68  1  0  0  0
 36 56  1  0  0  0
 36106  1  0  0  0
 37 39  1  0  0  0
 37 47  1  0  0  0
 37 66  1  0  0  0
 37107  1  0  0  0
 38 43  2  0  0  0
 38 46  1  0  0  0
 38 47  1  0  0  0
 39 64  1  0  0  0
 39 67  2  0  0  0
 40 52  1  0  0  0
 40 53  2  0  0  0
 40 58  1  0  0  0
 41108  1  0  0  0
 41109  1  0  0  0
 41110  1  0  0  0
 41 48  1  0  0  0
 42 43  1  0  0  0
 42 66  1  0  0  0
 42111  1  0  0  0
 42112  1  0  0  0
 43 44  1  0  0  0
 44113  1  0  0  0
 45 46  2  0  0  0
 45114  1  0  0  0
 46115  1  0  0  0
 47116  1  0  0  0
 47117  1  0  0  0
 48 56  1  0  0  0
 48 65  1  0  0  0
 48118  1  0  0  0
 49 50  1  0  0  0
 49 53  1  0  0  0
 49 64  1  0  0  0
 49119  1  0  0  0
 50 51  1  0  0  0
 50120  1  0  0  0
 50121  1  0  0  0
 51 52  1  0  0  0
 51122  1  0  0  0
 51123  1  0  0  0
 52124  1  0  0  0
 52125  1  0  0  0
 53 54  1  0  0  0
 54 55  2  0  0  0
 54126  1  0  0  0
 55 57  1  0  0  0
 55127  1  0  0  0
 56 69  2  0  0  0
 57 58  2  0  0  0
 57128  1  0  0  0
 58129  1  0  0  0
 59 60  1  0  0  0
 59 61  1  0  0  0
 59 62  1  0  0  0
 60130  1  0  0  0
 60131  1  0  0  0
 60132  1  0  0  0
 61133  1  0  0  0
 61134  1  0  0  0
 61135  1  0  0  0
 62136  1  0  0  0
 62137  1  0  0  0
 62138  1  0  0  0
 63 65  1  0  0  0
 63139  1  0  0  0
 63140  1  0  0  0
 63141  1  0  0  0
 64142  1  0  0  0
 65143  1  0  0  0
 68 77  1  0  0  0
 71 72  2  0  0  0
 71 76  1  0  0  0
 71 78  1  0  0  0
 72 79  1  0  0  0
 72 84  1  0  0  0
 73 78  2  0  0  0
 73 80  1  0  0  0
 73 84  1  0  0  0
 74 75  1  0  0  0
 74 77  1  0  0  0
 74 82  2  0  0  0
 75 80  1  0  0  0
 75 83  2  0  0  0
 76 81  1  0  0  0
 76144  1  0  0  0
 76145  1  0  0  0
 77146  1  0  0  0
 77147  1  0  0  0
 79148  1  0  0  0
 79149  1  0  0  0
 80150  1  0  0  0
 81151  1  0  0  0
M  ISO  4   1 100  68 101  77 101  81 100
M  END
> <chiral flag>
0

> <version>
0

> <s_m_source_file>
/data/baiqing/PycharmProjects/Reinvent-master-3.2/result/LINK_invent/BTK/process_docking_weight1_custom_product_contain_oxygen_bond_distance_aromatic_linkinvent_7_9_3/rearranged_h_0178.sdf

> <i_m_source_file_index>
93

> <r_mmod_Potential_Energy-OPLS-2005>
-124.345359802246

> <r_mmod_Stretch_Energy-OPLS-2005>
45.7907867431641

> <r_mmod_Bend_Energy-OPLS-2005>
107.658111572266

> <r_mmod_Torsional_Energy-OPLS-2005>
203.146011352539

> <r_mmod_Improper_Torsional_Energy-OPLS-2005>
6.6712760925293

> <r_mmod_Van_der_Waal_Energy-OPLS-2005>
137.916809082031

> <r_mmod_Electrostatic_Energy-OPLS-2005>
-402.436889648438

> <r_mmod_Solvation_Energy-OPLS-2005>
-245.871658325195

> <b_mmod_Minimization_Converged-OPLS-2005>
0

> <r_mmod_RMS_Derivative-OPLS-2005>
2.90633630752563

$$$$
93
                    3D
 Structure written by MMmdl.
152160  0  0  1  0            999 V2000
  -30.7196  -14.4818   20.5709 C   0  0  0  0  0  0
  -30.4210  -12.3187   19.4182 C   0  0  0  0  0  0
  -29.4855  -12.5018   18.2058 C   0  0  0  0  0  0
  -28.0092  -12.3581   18.6231 C   0  0  0  0  0  0
  -27.6562  -13.2124   19.8703 C   0  0  2  0  0  0
  -28.7027  -13.0186   20.9922 C   0  0  0  0  0  0
  -25.2543  -13.8189   20.5670 C   0  0  0  0  0  0
  -24.1811  -13.0452   20.9200 C   0  0  0  0  0  0
  -24.6377  -11.6922   20.8762 C   0  0  0  0  0  0
  -23.9067  -10.4298   21.0414 C   0  0  0  0  0  0
  -24.3624   -9.4215   21.9186 C   0  0  0  0  0  0
  -23.6297   -8.2248   22.0748 C   0  0  0  0  0  0
  -22.4275   -8.0283   21.3546 C   0  0  0  0  0  0
  -21.9921   -9.0261   20.4651 C   0  0  0  0  0  0
  -22.7247  -10.2141   20.3062 C   0  0  0  0  0  0
  -21.6848   -6.0741   22.5285 C   0  0  0  0  0  0
  -21.4014   -6.5647   23.8223 C   0  0  0  0  0  0
  -21.3654   -5.6794   24.9174 C   0  0  0  0  0  0
  -21.6039   -4.3060   24.7229 C   0  0  0  0  0  0
  -21.8818   -3.8152   23.4351 C   0  0  0  0  0  0
  -21.9199   -4.6967   22.3404 C   0  0  0  0  0  0
  -22.7826  -13.5225   21.1878 C   0  0  0  0  0  0
  -22.1656   -4.2153   21.0987 F   0  0  0  0  0  0
  -21.5629   -3.4548   25.7743 F   0  0  0  0  0  0
  -30.0319  -13.3133   20.4312 N   0  0  0  0  0  0
  -26.2987  -12.9373   20.3375 N   0  0  0  0  0  0
  -25.9311  -11.6527   20.5811 N   0  0  0  0  0  0
  -22.0484  -12.8192   22.0432 N   0  0  0  0  0  0
  -25.4255  -15.1899   20.4016 N   0  0  0  0  0  0
  -31.8618  -14.6253   20.1214 O   0  0  0  0  0  0
  -21.6642   -6.8881   21.4237 O   0  0  0  0  0  0
  -22.3515  -14.5536   20.6726 O   0  0  0  0  0  0
  -24.6181  -31.8639   23.2112 C   0  0  0  0  0  0
  -25.9061  -32.4789   23.8384 C   0  0  1  0  0  0
  -27.2183  -27.3940   20.0686 C   0  0  0  0  0  0
  -25.5906  -33.8586   24.2312 N   0  0  0  0  0  0
  -23.4042  -30.4930   21.5536 C   0  0  2  0  0  0
  -24.8430  -28.9614   20.1137 C   0  0  0  0  0  0
  -22.7413  -29.4646   22.4991 C   0  0  0  0  0  0
  -18.0274  -28.1358   22.8497 C   0  0  0  0  0  0
  -24.1496  -36.7312   23.2634 C   0  0  0  0  0  0
  -25.9406  -30.8130   21.3722 C   0  0  0  0  0  0
  -26.0101  -29.4477   20.7135 C   0  0  0  0  0  0
  -27.1954  -28.6691   20.6934 C   0  0  0  0  0  0
  -26.0211  -26.9426   19.4577 C   0  0  0  0  0  0
  -24.8457  -27.7084   19.4884 C   0  0  0  0  0  0
  -23.6097  -29.8327   20.1673 C   0  0  0  0  0  0
  -25.4115  -36.3085   24.0323 C   0  0  1  0  0  0
  -20.5861  -28.3644   23.1324 C   0  0  2  0  0  0
  -20.6758  -26.9373   22.5422 C   0  0  0  0  0  0
  -19.5732  -26.6379   21.5211 C   0  0  0  0  0  0
  -18.1918  -26.7900   22.1628 C   0  0  0  0  0  0
  -19.1518  -28.8817   23.2910 C   0  0  0  0  0  0
  -18.9439  -30.1432   23.8908 C   0  0  0  0  0  0
  -17.6438  -30.6563   24.0560 C   0  0  0  0  0  0
  -25.9048  -34.9446   23.5119 C   0  0  0  0  0  0
  -16.5338  -29.9060   23.6318 C   0  0  0  0  0  0
  -16.7259  -28.6477   23.0339 C   0  0  0  0  0  0
  -26.4489  -31.6557   25.0709 C   0  0  0  0  0  0
  -25.3776  -31.3621   26.1469 C   0  0  0  0  0  0
  -27.0304  -30.2989   24.6086 C   0  0  0  0  0  0
  -27.6068  -32.4272   25.7472 C   0  0  0  0  0  0
  -27.5583  -37.1816   24.8466 C   0  0  0  0  0  0
  -21.4137  -29.3019   22.3725 N   0  0  0  0  0  0
  -26.4297  -37.3768   23.9395 N   0  0  0  0  0  0
  -24.6730  -31.0713   22.1027 N   0  0  0  0  0  0
  -23.4188  -28.8163   23.3009 O   0  0  0  0  0  0
  -28.3978  -26.6555   20.0845 O   0  0  0  0  0  0
  -26.5613  -34.8901   22.4685 O   0  0  0  0  0  0
  -23.5370  -32.1412   23.7492 O   0  0  0  0  0  0
  -29.6025  -17.9259   20.8263 C   0  0  0  0  0  0
  -30.4382  -16.8706   21.2550 C   0  0  0  0  0  0
  -30.0319  -19.2444   21.0511 C   0  0  0  0  0  0
  -31.9078  -18.4498   22.0674 C   0  0  0  0  0  0
  -28.8999  -22.7919   20.1184 C   0  0  0  0  0  0
  -29.0500  -24.2760   20.5326 C   0  0  0  0  0  0
  -29.7170  -21.7344   20.8870 C   0  0  0  0  0  0
  -28.4664  -25.3124   19.5330 C   0  0  0  0  0  0
  -31.5882  -17.1708   21.8901 N   0  0  0  0  0  0
  -31.1846  -19.4931   21.6777 N   0  0  0  0  0  0
  -30.0054  -15.5237   21.0485 N   0  0  0  0  0  0
  -29.2792  -20.3506   20.6292 N   0  0  0  0  0  0
  -28.1331  -22.4408   19.2138 O   0  0  0  0  0  0
  -33.0698  -18.7114   22.7074 F   0  0  0  0  0  0
  -31.4612  -12.4220   19.1012 H   0  0  0  0  0  0
  -30.3346  -11.3104   19.8285 H   0  0  0  0  0  0
  -29.7251  -11.7736   17.4300 H   0  0  0  0  0  0
  -29.6454  -13.4858   17.7619 H   0  0  0  0  0  0
  -27.8217  -11.3050   18.8347 H   0  0  0  0  0  0
  -27.3561  -12.6223   17.7911 H   0  0  0  0  0  0
  -27.6926  -14.2561   19.5573 H   0  0  0  0  0  0
  -28.6790  -11.9913   21.3607 H   0  0  0  0  0  0
  -28.4660  -13.6410   21.8570 H   0  0  0  0  0  0
  -25.2758   -9.5687   22.4769 H   0  0  0  0  0  0
  -24.0010   -7.4631   22.7456 H   0  0  0  0  0  0
  -21.0857   -8.8780   19.8955 H   0  0  0  0  0  0
  -22.3701  -10.9679   19.6183 H   0  0  0  0  0  0
  -21.1997   -7.6156   23.9720 H   0  0  0  0  0  0
  -21.1476   -6.0531   25.9084 H   0  0  0  0  0  0
  -22.0603   -2.7616   23.2854 H   0  0  0  0  0  0
  -22.4104  -11.9836   22.4773 H   0  0  0  0  0  0
  -21.1115  -13.1213   22.2692 H   0  0  0  0  0  0
  -24.6490  -15.8386   20.4811 H   0  0  0  0  0  0
  -26.2622  -15.6228   20.0317 H   0  0  0  0  0  0
  -26.7119  -32.5469   23.1128 H   0  0  0  0  0  0
  -25.0020  -33.9740   25.0430 H   0  0  0  0  0  0
  -22.6956  -31.3123   21.4190 H   0  0  0  0  0  0
  -23.3737  -35.9677   23.3309 H   0  0  0  0  0  0
  -24.3603  -36.8919   22.2054 H   0  0  0  0  0  0
  -23.7295  -37.6534   23.6646 H   0  0  0  0  0  0
  -26.0688  -31.5789   20.6067 H   0  0  0  0  0  0
  -26.8241  -30.8568   21.9964 H   0  0  0  0  0  0
  -28.0950  -29.0410   21.1650 H   0  0  0  0  0  0
  -25.9273  -26.0093   18.9303 H   0  0  0  0  0  0
  -23.9484  -27.3273   19.0171 H   0  0  0  0  0  0
  -23.7225  -30.6081   19.4083 H   0  0  0  0  0  0
  -22.7309  -29.2557   19.8698 H   0  0  0  0  0  0
  -25.1306  -36.1943   25.0820 H   0  0  0  0  0  0
  -20.9970  -28.3199   24.1434 H   0  0  0  0  0  0
  -20.5651  -26.2237   23.3603 H   0  0  0  0  0  0
  -21.6631  -26.7406   22.1215 H   0  0  0  0  0  0
  -19.6891  -25.6303   21.1206 H   0  0  0  0  0  0
  -19.6673  -27.3219   20.6761 H   0  0  0  0  0  0
  -17.4194  -26.6652   21.4032 H   0  0  0  0  0  0
  -18.0320  -26.0040   22.9017 H   0  0  0  0  0  0
  -19.7913  -30.7247   24.2280 H   0  0  0  0  0  0
  -17.4982  -31.6241   24.5158 H   0  0  0  0  0  0
  -15.5330  -30.2958   23.7621 H   0  0  0  0  0  0
  -15.8665  -28.0797   22.7037 H   0  0  0  0  0  0
  -24.5988  -30.6928   25.7802 H   0  0  0  0  0  0
  -24.8925  -32.2742   26.4943 H   0  0  0  0  0  0
  -25.8173  -30.8782   27.0199 H   0  0  0  0  0  0
  -26.2813  -29.6756   24.1188 H   0  0  0  0  0  0
  -27.4111  -29.7228   25.4528 H   0  0  0  0  0  0
  -27.8646  -30.4285   23.9190 H   0  0  0  0  0  0
  -27.2687  -33.3561   26.2076 H   0  0  0  0  0  0
  -28.3861  -32.6849   25.0286 H   0  0  0  0  0  0
  -28.0747  -31.8370   26.5363 H   0  0  0  0  0  0
  -28.2608  -38.0100   24.7488 H   0  0  0  0  0  0
  -28.1069  -36.2636   24.6319 H   0  0  0  0  0  0
  -27.2293  -37.1496   25.8864 H   0  0  0  0  0  0
  -20.9278  -29.8773   21.6989 H   0  0  0  0  0  0
  -26.0182  -38.2846   24.1383 H   0  0  0  0  0  0
  -28.6691  -17.7246   20.3162 H   0  0  0  0  0  0
  -30.1046  -24.4826   20.7100 H   0  0  0  0  0  0
  -28.5431  -24.3863   21.4897 H   0  0  0  0  0  0
  -29.6558  -21.9449   21.9560 H   0  0  0  0  0  0
  -30.7634  -21.8469   20.5992 H   0  0  0  0  0  0
  -27.5254  -24.9120   19.1773 H   0  0  0  0  0  0
  -29.1035  -25.3543   18.6475 H   0  0  0  0  0  0
  -29.0339  -15.3346   21.2269 H   0  0  0  0  0  0
  -28.4417  -20.2307   20.0678 H   0  0  0  0  0  0
  1 25  1  0  0  0
  1 30  2  0  0  0
  1 81  1  0  0  0
  2  3  1  0  0  0
  2 25  1  0  0  0
  2 85  1  0  0  0
  2 86  1  0  0  0
  3  4  1  0  0  0
  3 87  1  0  0  0
  3 88  1  0  0  0
  4  5  1  0  0  0
  4 89  1  0  0  0
  4 90  1  0  0  0
  5  6  1  0  0  0
  5 26  1  0  0  0
  5 91  1  0  0  0
  6 25  1  0  0  0
  6 92  1  0  0  0
  6 93  1  0  0  0
  7  8  2  0  0  0
  7 26  1  0  0  0
  7 29  1  0  0  0
  8  9  1  0  0  0
  8 22  1  0  0  0
  9 10  1  0  0  0
  9 27  2  0  0  0
 10 11  2  0  0  0
 10 15  1  0  0  0
 11 12  1  0  0  0
 11 94  1  0  0  0
 12 13  2  0  0  0
 12 95  1  0  0  0
 13 14  1  0  0  0
 13 31  1  0  0  0
 14 15  2  0  0  0
 14 96  1  0  0  0
 15 97  1  0  0  0
 16 17  2  0  0  0
 16 21  1  0  0  0
 16 31  1  0  0  0
 17 18  1  0  0  0
 17 98  1  0  0  0
 18 19  2  0  0  0
 18 99  1  0  0  0
 19 20  1  0  0  0
 19 24  1  0  0  0
 20 21  2  0  0  0
 20100  1  0  0  0
 21 23  1  0  0  0
 22 28  1  0  0  0
 22 32  2  0  0  0
 26 27  1  0  0  0
 28101  1  0  0  0
 28102  1  0  0  0
 29103  1  0  0  0
 29104  1  0  0  0
 33 34  1  0  0  0
 33 66  1  0  0  0
 33 70  2  0  0  0
 34 36  1  0  0  0
 34 59  1  0  0  0
 34105  1  0  0  0
 35 44  2  0  0  0
 35 45  1  0  0  0
 35 68  1  0  0  0
 36 56  1  0  0  0
 36106  1  0  0  0
 37 39  1  0  0  0
 37 47  1  0  0  0
 37 66  1  0  0  0
 37107  1  0  0  0
 38 43  2  0  0  0
 38 46  1  0  0  0
 38 47  1  0  0  0
 39 64  1  0  0  0
 39 67  2  0  0  0
 40 52  1  0  0  0
 40 53  2  0  0  0
 40 58  1  0  0  0
 41108  1  0  0  0
 41109  1  0  0  0
 41110  1  0  0  0
 41 48  1  0  0  0
 42 43  1  0  0  0
 42 66  1  0  0  0
 42111  1  0  0  0
 42112  1  0  0  0
 43 44  1  0  0  0
 44113  1  0  0  0
 45 46  2  0  0  0
 45114  1  0  0  0
 46115  1  0  0  0
 47116  1  0  0  0
 47117  1  0  0  0
 48 56  1  0  0  0
 48 65  1  0  0  0
 48118  1  0  0  0
 49 50  1  0  0  0
 49 53  1  0  0  0
 49 64  1  0  0  0
 49119  1  0  0  0
 50 51  1  0  0  0
 50120  1  0  0  0
 50121  1  0  0  0
 51 52  1  0  0  0
 51122  1  0  0  0
 51123  1  0  0  0
 52124  1  0  0  0
 52125  1  0  0  0
 53 54  1  0  0  0
 54 55  2  0  0  0
 54126  1  0  0  0
 55 57  1  0  0  0
 55127  1  0  0  0
 56 69  2  0  0  0
 57 58  2  0  0  0
 57128  1  0  0  0
 58129  1  0  0  0
 59 60  1  0  0  0
 59 61  1  0  0  0
 59 62  1  0  0  0
 60130  1  0  0  0
 60131  1  0  0  0
 60132  1  0  0  0
 61133  1  0  0  0
 61134  1  0  0  0
 61135  1  0  0  0
 62136  1  0  0  0
 62137  1  0  0  0
 62138  1  0  0  0
 63 65  1  0  0  0
 63139  1  0  0  0
 63140  1  0  0  0
 63141  1  0  0  0
 64142  1  0  0  0
 65143  1  0  0  0
 68 78  1  0  0  0
 71 72  2  0  0  0
 71 73  1  0  0  0
 71144  1  0  0  0
 72 79  1  0  0  0
 72 81  1  0  0  0
 73 80  2  0  0  0
 73 82  1  0  0  0
 74 79  2  0  0  0
 74 80  1  0  0  0
 74 84  1  0  0  0
 75 76  1  0  0  0
 75 77  1  0  0  0
 75 83  2  0  0  0
 76 78  1  0  0  0
 76145  1  0  0  0
 76146  1  0  0  0
 77 82  1  0  0  0
 77147  1  0  0  0
 77148  1  0  0  0
 78149  1  0  0  0
 78150  1  0  0  0
 81151  1  0  0  0
 82152  1  0  0  0
M  ISO  4   1 100  68 101  78 101  81 100
M  END
> <chiral flag>
0

> <version>
0

> <s_m_source_file>
/data/baiqing/PycharmProjects/Reinvent-master-3.2/result/LINK_invent/BTK/process_docking_weight1_custom_product_contain_oxygen_bond_distance_aromatic_linkinvent_7_9_3/rearranged_h_0178.sdf

> <i_m_source_file_index>
94

> <r_mmod_Potential_Energy-OPLS-2005>
-607.071472167969

> <r_mmod_Stretch_Energy-OPLS-2005>
40.3954811096191

> <r_mmod_Bend_Energy-OPLS-2005>
120.078247070312

> <r_mmod_Torsional_Energy-OPLS-2005>
198.633941650391

> <r_mmod_Improper_Torsional_Energy-OPLS-2005>
4.61350679397583

> <r_mmod_Van_der_Waal_Energy-OPLS-2005>
173.417510986328

> <r_mmod_Electrostatic_Energy-OPLS-2005>
-911.296630859375

> <r_mmod_Solvation_Energy-OPLS-2005>
-250.516860961914

> <b_mmod_Minimization_Converged-OPLS-2005>
0

> <r_mmod_RMS_Derivative-OPLS-2005>
2.52007865905762

$$$$
94
                    3D
 Structure written by MMmdl.
150158  0  0  1  0            999 V2000
  -30.6769  -14.5154   20.5253 C   0  0  0  0  0  0
  -30.4246  -12.3174   19.4369 C   0  0  0  0  0  0
  -29.5007  -12.5015   18.2140 C   0  0  0  0  0  0
  -28.0204  -12.3605   18.6217 C   0  0  0  0  0  0
  -27.6595  -13.2089   19.8703 C   0  0  2  0  0  0
  -28.7008  -13.0130   20.9964 C   0  0  0  0  0  0
  -25.2583  -13.8159   20.5671 C   0  0  0  0  0  0
  -24.1839  -13.0437   20.9186 C   0  0  0  0  0  0
  -24.6392  -11.6905   20.8733 C   0  0  0  0  0  0
  -23.9059  -10.4292   21.0406 C   0  0  0  0  0  0
  -24.3613   -9.4209   21.9184 C   0  0  0  0  0  0
  -23.6291   -8.2243   22.0754 C   0  0  0  0  0  0
  -22.4273   -8.0279   21.3546 C   0  0  0  0  0  0
  -21.9905   -9.0254   20.4651 C   0  0  0  0  0  0
  -22.7230  -10.2135   20.3055 C   0  0  0  0  0  0
  -21.6854   -6.0733   22.5281 C   0  0  0  0  0  0
  -21.4013   -6.5636   23.8213 C   0  0  0  0  0  0
  -21.3659   -5.6790   24.9175 C   0  0  0  0  0  0
  -21.6044   -4.3053   24.7226 C   0  0  0  0  0  0
  -21.8819   -3.8144   23.4346 C   0  0  0  0  0  0
  -21.9193   -4.6962   22.3404 C   0  0  0  0  0  0
  -22.7861  -13.5239   21.1847 C   0  0  0  0  0  0
  -22.1664   -4.2147   21.0982 F   0  0  0  0  0  0
  -21.5630   -3.4536   25.7737 F   0  0  0  0  0  0
  -30.0311  -13.3174   20.4437 N   0  0  0  0  0  0
  -26.3011  -12.9332   20.3330 N   0  0  0  0  0  0
  -25.9318  -11.6493   20.5749 N   0  0  0  0  0  0
  -22.0496  -12.8240   22.0402 N   0  0  0  0  0  0
  -25.4299  -15.1876   20.4053 N   0  0  0  0  0  0
  -31.8317  -14.6630   20.1135 O   0  0  0  0  0  0
  -21.6637   -6.8875   21.4241 O   0  0  0  0  0  0
  -22.3553  -14.5546   20.6689 O   0  0  0  0  0  0
  -24.6173  -31.8655   23.2086 C   0  0  0  0  0  0
  -25.9060  -32.4808   23.8383 C   0  0  1  0  0  0
  -27.2331  -27.4091   20.0892 C   0  0  0  0  0  0
  -25.5906  -33.8609   24.2313 N   0  0  0  0  0  0
  -23.4058  -30.4901   21.5501 C   0  0  2  0  0  0
  -24.8508  -28.9553   20.1115 C   0  0  0  0  0  0
  -22.7423  -29.4645   22.4979 C   0  0  0  0  0  0
  -18.0269  -28.1375   22.8491 C   0  0  0  0  0  0
  -24.1488  -36.7311   23.2636 C   0  0  0  0  0  0
  -25.9386  -30.8223   21.3662 C   0  0  0  0  0  0
  -26.0139  -29.4568   20.7087 C   0  0  0  0  0  0
  -27.2055  -28.6904   20.6956 C   0  0  0  0  0  0
  -26.0430  -26.9258   19.4946 C   0  0  0  0  0  0
  -24.8618  -27.6902   19.5016 C   0  0  0  0  0  0
  -23.6139  -29.8244   20.1640 C   0  0  0  0  0  0
  -25.4104  -36.3106   24.0339 C   0  0  1  0  0  0
  -20.5863  -28.3660   23.1318 C   0  0  2  0  0  0
  -20.6759  -26.9393   22.5421 C   0  0  0  0  0  0
  -19.5739  -26.6381   21.5214 C   0  0  0  0  0  0
  -18.1917  -26.7920   22.1623 C   0  0  0  0  0  0
  -19.1520  -28.8836   23.2898 C   0  0  0  0  0  0
  -18.9446  -30.1445   23.8899 C   0  0  0  0  0  0
  -17.6448  -30.6580   24.0563 C   0  0  0  0  0  0
  -25.9039  -34.9471   23.5125 C   0  0  0  0  0  0
  -16.5339  -29.9080   23.6327 C   0  0  0  0  0  0
  -16.7258  -28.6499   23.0345 C   0  0  0  0  0  0
  -26.4475  -31.6598   25.0727 C   0  0  0  0  0  0
  -25.3740  -31.3714   26.1480 C   0  0  0  0  0  0
  -27.0300  -30.3031   24.6125 C   0  0  0  0  0  0
  -27.6055  -32.4316   25.7480 C   0  0  0  0  0  0
  -27.5594  -37.1786   24.8445 C   0  0  0  0  0  0
  -21.4145  -29.3025   22.3723 N   0  0  0  0  0  0
  -26.4280  -37.3803   23.9432 N   0  0  0  0  0  0
  -24.6724  -31.0739   22.0997 N   0  0  0  0  0  0
  -23.4188  -28.8177   23.3022 O   0  0  0  0  0  0
  -28.3864  -26.6405   20.1434 O   0  0  0  0  0  0
  -26.5602  -34.8929   22.4689 O   0  0  0  0  0  0
  -23.5362  -32.1419   23.7469 O   0  0  0  0  0  0
  -28.8457  -17.7440   20.8146 C   0  0  0  0  0  0
  -29.7276  -19.5310   19.6152 C   0  0  0  0  0  0
  -29.9799  -16.9305   20.5390 C   0  0  0  0  0  0
  -30.8966  -18.7516   19.3914 C   0  0  0  0  0  0
  -28.4977  -25.5118   19.3534 C   0  0  0  0  0  0
  -29.4865  -20.7859   18.7940 C   0  0  0  0  0  0
  -28.8094  -24.2708   19.8113 C   0  0  0  0  0  0
  -28.9185  -23.1534   18.8588 C   0  0  0  0  0  0
  -28.7085  -19.0225   20.3619 N   0  0  0  0  0  0
  -31.0210  -17.4798   19.8586 N   0  0  0  0  0  0
  -29.9175  -15.5530   20.9479 N   0  0  0  0  0  0
  -29.2094  -21.9543   19.4304 N   0  0  0  0  0  0
  -29.5566  -20.6734   17.5624 O   0  0  0  0  0  0
  -28.7583  -23.3102   17.6421 O   0  0  0  0  0  0
  -29.0197  -24.0603   21.1195 O   0  0  0  0  0  0
  -31.9215  -19.2456   18.6550 F   0  0  0  0  0  0
  -31.4706  -12.4103   19.1392 H   0  0  0  0  0  0
  -30.3208  -11.3115   19.8468 H   0  0  0  0  0  0
  -29.7471  -11.7715   17.4416 H   0  0  0  0  0  0
  -29.6675  -13.4838   17.7687 H   0  0  0  0  0  0
  -27.8333  -11.3056   18.8254 H   0  0  0  0  0  0
  -27.3723  -12.6266   17.7859 H   0  0  0  0  0  0
  -27.6955  -14.2526   19.5580 H   0  0  0  0  0  0
  -28.6804  -11.9830   21.3556 H   0  0  0  0  0  0
  -28.4609  -13.6295   21.8641 H   0  0  0  0  0  0
  -25.2764   -9.5684   22.4750 H   0  0  0  0  0  0
  -24.0006   -7.4631   22.7468 H   0  0  0  0  0  0
  -21.0835   -8.8768   19.8959 H   0  0  0  0  0  0
  -22.3689  -10.9668   19.6157 H   0  0  0  0  0  0
  -21.2003   -7.6144   23.9713 H   0  0  0  0  0  0
  -21.1483   -6.0522   25.9079 H   0  0  0  0  0  0
  -22.0598   -2.7606   23.2846 H   0  0  0  0  0  0
  -22.4103  -11.9903   22.4800 H   0  0  0  0  0  0
  -21.1115  -13.1276   22.2601 H   0  0  0  0  0  0
  -24.6537  -15.8349   20.4921 H   0  0  0  0  0  0
  -26.2604  -15.6174   20.0202 H   0  0  0  0  0  0
  -26.7128  -32.5505   23.1140 H   0  0  0  0  0  0
  -25.0051  -33.9764   25.0455 H   0  0  0  0  0  0
  -22.6953  -31.3079   21.4127 H   0  0  0  0  0  0
  -23.3766  -35.9625   23.3252 H   0  0  0  0  0  0
  -24.3599  -36.8972   22.2060 H   0  0  0  0  0  0
  -23.7212  -37.6493   23.6675 H   0  0  0  0  0  0
  -26.0589  -31.5890   20.5997 H   0  0  0  0  0  0
  -26.8237  -30.8708   21.9888 H   0  0  0  0  0  0
  -28.1019  -29.0700   21.1655 H   0  0  0  0  0  0
  -26.0039  -25.9481   19.0366 H   0  0  0  0  0  0
  -23.9649  -27.2949   19.0444 H   0  0  0  0  0  0
  -23.7212  -30.6001   19.4048 H   0  0  0  0  0  0
  -22.7368  -29.2453   19.8691 H   0  0  0  0  0  0
  -25.1271  -36.1959   25.0827 H   0  0  0  0  0  0
  -20.9957  -28.3226   24.1438 H   0  0  0  0  0  0
  -20.5665  -26.2261   23.3605 H   0  0  0  0  0  0
  -21.6629  -26.7434   22.1211 H   0  0  0  0  0  0
  -19.6899  -25.6295   21.1235 H   0  0  0  0  0  0
  -19.6688  -27.3201   20.6752 H   0  0  0  0  0  0
  -17.4191  -26.6669   21.4021 H   0  0  0  0  0  0
  -18.0314  -26.0059   22.9016 H   0  0  0  0  0  0
  -19.7924  -30.7262   24.2265 H   0  0  0  0  0  0
  -17.5004  -31.6260   24.5164 H   0  0  0  0  0  0
  -15.5340  -30.2982   23.7654 H   0  0  0  0  0  0
  -15.8655  -28.0828   22.7050 H   0  0  0  0  0  0
  -24.5890  -30.7088   25.7819 H   0  0  0  0  0  0
  -24.8960  -32.2877   26.4954 H   0  0  0  0  0  0
  -25.8094  -30.8857   27.0223 H   0  0  0  0  0  0
  -26.2845  -29.6794   24.1178 H   0  0  0  0  0  0
  -27.4052  -29.7269   25.4594 H   0  0  0  0  0  0
  -27.8695  -30.4330   23.9288 H   0  0  0  0  0  0
  -27.2677  -33.3602   26.2091 H   0  0  0  0  0  0
  -28.3841  -32.6898   25.0291 H   0  0  0  0  0  0
  -28.0753  -31.8422   26.5365 H   0  0  0  0  0  0
  -28.2550  -38.0146   24.7601 H   0  0  0  0  0  0
  -28.1151  -36.2688   24.6125 H   0  0  0  0  0  0
  -27.2336  -37.1265   25.8848 H   0  0  0  0  0  0
  -20.9307  -29.8756   21.6953 H   0  0  0  0  0  0
  -26.0164  -38.2867   24.1496 H   0  0  0  0  0  0
  -28.0031  -17.3436   21.3602 H   0  0  0  0  0  0
  -28.3144  -25.7349   18.3099 H   0  0  0  0  0  0
  -29.0453  -15.2763   21.3708 H   0  0  0  0  0  0
  -29.2350  -21.9508   20.4389 H   0  0  0  0  0  0
  -28.9076  -24.8991   21.5486 H   0  0  0  0  0  0
  1 25  1  0  0  0
  1 30  2  0  0  0
  1 81  1  0  0  0
  2  3  1  0  0  0
  2 25  1  0  0  0
  2 87  1  0  0  0
  2 88  1  0  0  0
  3  4  1  0  0  0
  3 89  1  0  0  0
  3 90  1  0  0  0
  4  5  1  0  0  0
  4 91  1  0  0  0
  4 92  1  0  0  0
  5  6  1  0  0  0
  5 26  1  0  0  0
  5 93  1  0  0  0
  6 25  1  0  0  0
  6 94  1  0  0  0
  6 95  1  0  0  0
  7  8  2  0  0  0
  7 26  1  0  0  0
  7 29  1  0  0  0
  8  9  1  0  0  0
  8 22  1  0  0  0
  9 10  1  0  0  0
  9 27  2  0  0  0
 10 11  2  0  0  0
 10 15  1  0  0  0
 11 12  1  0  0  0
 11 96  1  0  0  0
 12 13  2  0  0  0
 12 97  1  0  0  0
 13 14  1  0  0  0
 13 31  1  0  0  0
 14 15  2  0  0  0
 14 98  1  0  0  0
 15 99  1  0  0  0
 16 17  2  0  0  0
 16 21  1  0  0  0
 16 31  1  0  0  0
 17 18  1  0  0  0
 17100  1  0  0  0
 18 19  2  0  0  0
 18101  1  0  0  0
 19 20  1  0  0  0
 19 24  1  0  0  0
 20 21  2  0  0  0
 20102  1  0  0  0
 21 23  1  0  0  0
 22 28  1  0  0  0
 22 32  2  0  0  0
 26 27  1  0  0  0
 28103  1  0  0  0
 28104  1  0  0  0
 29105  1  0  0  0
 29106  1  0  0  0
 33 34  1  0  0  0
 33 66  1  0  0  0
 33 70  2  0  0  0
 34 36  1  0  0  0
 34 59  1  0  0  0
 34107  1  0  0  0
 35 44  2  0  0  0
 35 45  1  0  0  0
 35 68  1  0  0  0
 36 56  1  0  0  0
 36108  1  0  0  0
 37 39  1  0  0  0
 37 47  1  0  0  0
 37 66  1  0  0  0
 37109  1  0  0  0
 38 43  2  0  0  0
 38 46  1  0  0  0
 38 47  1  0  0  0
 39 64  1  0  0  0
 39 67  2  0  0  0
 40 52  1  0  0  0
 40 53  2  0  0  0
 40 58  1  0  0  0
 41110  1  0  0  0
 41111  1  0  0  0
 41112  1  0  0  0
 41 48  1  0  0  0
 42 43  1  0  0  0
 42 66  1  0  0  0
 42113  1  0  0  0
 42114  1  0  0  0
 43 44  1  0  0  0
 44115  1  0  0  0
 45 46  2  0  0  0
 45116  1  0  0  0
 46117  1  0  0  0
 47118  1  0  0  0
 47119  1  0  0  0
 48 56  1  0  0  0
 48 65  1  0  0  0
 48120  1  0  0  0
 49 50  1  0  0  0
 49 53  1  0  0  0
 49 64  1  0  0  0
 49121  1  0  0  0
 50 51  1  0  0  0
 50122  1  0  0  0
 50123  1  0  0  0
 51 52  1  0  0  0
 51124  1  0  0  0
 51125  1  0  0  0
 52126  1  0  0  0
 52127  1  0  0  0
 53 54  1  0  0  0
 54 55  2  0  0  0
 54128  1  0  0  0
 55 57  1  0  0  0
 55129  1  0  0  0
 56 69  2  0  0  0
 57 58  2  0  0  0
 57130  1  0  0  0
 58131  1  0  0  0
 59 60  1  0  0  0
 59 61  1  0  0  0
 59 62  1  0  0  0
 60132  1  0  0  0
 60133  1  0  0  0
 60134  1  0  0  0
 61135  1  0  0  0
 61136  1  0  0  0
 61137  1  0  0  0
 62138  1  0  0  0
 62139  1  0  0  0
 62140  1  0  0  0
 63 65  1  0  0  0
 63141  1  0  0  0
 63142  1  0  0  0
 63143  1  0  0  0
 64144  1  0  0  0
 65145  1  0  0  0
 68 75  1  0  0  0
 71 73  2  0  0  0
 71 79  1  0  0  0
 71146  1  0  0  0
 72 74  1  0  0  0
 72 76  1  0  0  0
 72 79  2  0  0  0
 73 80  1  0  0  0
 73 81  1  0  0  0
 74 80  2  0  0  0
 74 86  1  0  0  0
 75 77  2  0  0  0
 75147  1  0  0  0
 76 82  1  0  0  0
 76 83  2  0  0  0
 77 78  1  0  0  0
 77 85  1  0  0  0
 78 82  1  0  0  0
 78 84  2  0  0  0
 81148  1  0  0  0
 82149  1  0  0  0
 85150  1  0  0  0
M  ISO  4   1 100  68 101  75 101  81 100
M  END
> <chiral flag>
0

> <version>
0

> <s_m_source_file>
/data/baiqing/PycharmProjects/Reinvent-master-3.2/result/LINK_invent/BTK/process_docking_weight1_custom_product_contain_oxygen_bond_distance_aromatic_linkinvent_7_9_3/rearranged_h_0178.sdf

> <i_m_source_file_index>
95

> <r_mmod_Potential_Energy-OPLS-2005>
-85.8296432495117

> <r_mmod_Stretch_Energy-OPLS-2005>
47.3978881835938

> <r_mmod_Bend_Energy-OPLS-2005>
105.240081787109

> <r_mmod_Torsional_Energy-OPLS-2005>
230.334686279297

> <r_mmod_Improper_Torsional_Energy-OPLS-2005>
6.67361497879028

> <r_mmod_Van_der_Waal_Energy-OPLS-2005>
172.157135009766

> <r_mmod_Electrostatic_Energy-OPLS-2005>
-391.125854492188

> <r_mmod_Solvation_Energy-OPLS-2005>
-276.089752197266

> <b_mmod_Minimization_Converged-OPLS-2005>
0

> <r_mmod_RMS_Derivative-OPLS-2005>
0.71078097820282

$$$$
95
                    3D
 Structure written by MMmdl.
153161  0  0  1  0            999 V2000
  -30.7406  -14.5062   20.5199 C   0  0  0  0  0  0
  -30.4138  -12.3062   19.4648 C   0  0  0  0  0  0
  -29.5039  -12.4721   18.2300 C   0  0  0  0  0  0
  -28.0281  -12.3275   18.6431 C   0  0  0  0  0  0
  -27.6577  -13.2170   19.8594 C   0  0  2  0  0  0
  -28.6983  -13.0922   20.9976 C   0  0  0  0  0  0
  -25.2579  -13.8178   20.5696 C   0  0  0  0  0  0
  -24.1838  -13.0454   20.9194 C   0  0  0  0  0  0
  -24.6421  -11.6917   20.8747 C   0  0  0  0  0  0
  -23.9084  -10.4298   21.0403 C   0  0  0  0  0  0
  -24.3618   -9.4216   21.9192 C   0  0  0  0  0  0
  -23.6299   -8.2246   22.0766 C   0  0  0  0  0  0
  -22.4281   -8.0274   21.3542 C   0  0  0  0  0  0
  -21.9920   -9.0248   20.4633 C   0  0  0  0  0  0
  -22.7259  -10.2138   20.3045 C   0  0  0  0  0  0
  -21.6851   -6.0736   22.5279 C   0  0  0  0  0  0
  -21.4021   -6.5642   23.8217 C   0  0  0  0  0  0
  -21.3664   -5.6794   24.9174 C   0  0  0  0  0  0
  -21.6040   -4.3060   24.7221 C   0  0  0  0  0  0
  -21.8820   -3.8150   23.4350 C   0  0  0  0  0  0
  -21.9196   -4.6964   22.3399 C   0  0  0  0  0  0
  -22.7857  -13.5231   21.1843 C   0  0  0  0  0  0
  -22.1660   -4.2148   21.0980 F   0  0  0  0  0  0
  -21.5629   -3.4539   25.7739 F   0  0  0  0  0  0
  -30.0289  -13.3508   20.4313 N   0  0  0  0  0  0
  -26.3015  -12.9379   20.3293 N   0  0  0  0  0  0
  -25.9348  -11.6530   20.5761 N   0  0  0  0  0  0
  -22.0479  -12.8178   22.0377 N   0  0  0  0  0  0
  -25.4252  -15.1905   20.4066 N   0  0  0  0  0  0
  -31.8976  -14.5933   20.1082 O   0  0  0  0  0  0
  -21.6644   -6.8877   21.4244 O   0  0  0  0  0  0
  -22.3556  -14.5545   20.6724 O   0  0  0  0  0  0
  -24.6199  -31.8719   23.2116 C   0  0  0  0  0  0
  -25.9099  -32.4836   23.8396 C   0  0  1  0  0  0
  -27.2095  -27.4258   20.0799 C   0  0  0  0  0  0
  -25.6004  -33.8625   24.2374 N   0  0  0  0  0  0
  -23.4026  -30.5019   21.5568 C   0  0  2  0  0  0
  -24.8414  -28.9848   20.1062 C   0  0  0  0  0  0
  -22.7422  -29.4680   22.5012 C   0  0  0  0  0  0
  -18.0282  -28.1377   22.8494 C   0  0  0  0  0  0
  -24.1457  -36.7295   23.2626 C   0  0  0  0  0  0
  -25.9345  -30.8413   21.3573 C   0  0  0  0  0  0
  -26.0099  -29.4768   20.7020 C   0  0  0  0  0  0
  -27.1992  -28.7037   20.6877 C   0  0  0  0  0  0
  -26.0252  -26.9830   19.4398 C   0  0  0  0  0  0
  -24.8473  -27.7391   19.4698 C   0  0  0  0  0  0
  -23.6069  -29.8492   20.1668 C   0  0  0  0  0  0
  -25.4069  -36.3100   24.0349 C   0  0  1  0  0  0
  -20.5889  -28.3630   23.1317 C   0  0  2  0  0  0
  -20.6780  -26.9392   22.5358 C   0  0  0  0  0  0
  -19.5733  -26.6445   21.5161 C   0  0  0  0  0  0
  -18.1917  -26.7936   22.1595 C   0  0  0  0  0  0
  -19.1536  -28.8818   23.2893 C   0  0  0  0  0  0
  -18.9464  -30.1441   23.8867 C   0  0  0  0  0  0
  -17.6451  -30.6562   24.0584 C   0  0  0  0  0  0
  -25.9039  -34.9472   23.5141 C   0  0  0  0  0  0
  -16.5337  -29.9048   23.6384 C   0  0  0  0  0  0
  -16.7278  -28.6499   23.0362 C   0  0  0  0  0  0
  -26.4504  -31.6579   25.0695 C   0  0  0  0  0  0
  -25.3794  -31.3667   26.1472 C   0  0  0  0  0  0
  -27.0339  -30.3050   24.5984 C   0  0  0  0  0  0
  -27.6104  -32.4261   25.7470 C   0  0  0  0  0  0
  -27.5549  -37.1754   24.8488 C   0  0  0  0  0  0
  -21.4145  -29.3011   22.3721 N   0  0  0  0  0  0
  -26.4260  -37.3798   23.9452 N   0  0  0  0  0  0
  -24.6727  -31.0836   22.1021 N   0  0  0  0  0  0
  -23.4195  -28.8207   23.3049 O   0  0  0  0  0  0
  -28.3390  -26.6167   20.1431 O   0  0  0  0  0  0
  -26.5539  -34.8917   22.4648 O   0  0  0  0  0  0
  -23.5399  -32.1463   23.7532 O   0  0  0  0  0  0
  -28.4253  -18.1902   21.1185 C   0  0  0  0  0  0
  -29.7690  -18.1639   20.8370 C   0  0  0  0  0  0
  -29.3881  -20.4252   20.7000 C   0  0  0  0  0  0
  -28.8998  -22.7611   20.0939 C   0  0  0  0  0  0
  -27.4277  -25.0213   21.7670 C   0  0  0  0  0  0
  -30.6793  -16.9610   20.7107 C   0  0  0  0  0  0
  -29.3137  -24.2544   20.1919 C   0  0  0  0  0  0
  -28.0861  -25.2025   20.3751 C   0  0  2  0  0  0
  -30.3054  -19.4510   20.6229 N   0  0  0  0  0  0
  -29.7400  -21.7956   20.5162 N   0  0  0  0  0  0
  -30.0814  -15.6231   20.8880 N   0  0  0  0  0  0
  -27.8139  -22.4863   19.5761 O   0  0  0  0  0  0
  -27.7785  -19.8131   21.0973 S   0  0  0  0  0  0
  -31.4670  -12.3618   19.1760 H   0  0  0  0  0  0
  -30.2817  -11.3197   19.9108 H   0  0  0  0  0  0
  -29.7586  -11.7262   17.4744 H   0  0  0  0  0  0
  -29.6735  -13.4473   17.7714 H   0  0  0  0  0  0
  -27.8660  -11.2784   18.8944 H   0  0  0  0  0  0
  -27.3766  -12.5395   17.7963 H   0  0  0  0  0  0
  -27.6774  -14.2442   19.5002 H   0  0  0  0  0  0
  -28.6714  -12.0992   21.4462 H   0  0  0  0  0  0
  -28.4678  -13.7916   21.8006 H   0  0  0  0  0  0
  -25.2757   -9.5701   22.4770 H   0  0  0  0  0  0
  -23.9999   -7.4652   22.7498 H   0  0  0  0  0  0
  -21.0854   -8.8758   19.8933 H   0  0  0  0  0  0
  -22.3714  -10.9659   19.6136 H   0  0  0  0  0  0
  -21.2018   -7.6148   23.9716 H   0  0  0  0  0  0
  -21.1485   -6.0526   25.9081 H   0  0  0  0  0  0
  -22.0596   -2.7603   23.2846 H   0  0  0  0  0  0
  -22.4069  -11.9802   22.4685 H   0  0  0  0  0  0
  -21.1095  -13.1187   22.2537 H   0  0  0  0  0  0
  -24.6496  -15.8357   20.5072 H   0  0  0  0  0  0
  -26.2484  -15.6203   20.0040 H   0  0  0  0  0  0
  -26.7166  -32.5564   23.1163 H   0  0  0  0  0  0
  -25.0298  -33.9819   25.0616 H   0  0  0  0  0  0
  -22.6921  -31.3189   21.4258 H   0  0  0  0  0  0
  -23.3757  -35.9615   23.3308 H   0  0  0  0  0  0
  -24.3551  -36.8892   22.2045 H   0  0  0  0  0  0
  -23.7201  -37.6475   23.6638 H   0  0  0  0  0  0
  -26.0251  -31.6078   20.5841 H   0  0  0  0  0  0
  -26.8310  -30.9083   21.9613 H   0  0  0  0  0  0
  -28.0928  -29.0737   21.1697 H   0  0  0  0  0  0
  -25.9663  -26.0554   18.8942 H   0  0  0  0  0  0
  -23.9573  -27.3621   18.9867 H   0  0  0  0  0  0
  -23.7022  -30.6292   19.4115 H   0  0  0  0  0  0
  -22.7288  -29.2710   19.8751 H   0  0  0  0  0  0
  -25.1240  -36.1949   25.0860 H   0  0  0  0  0  0
  -20.9981  -28.3173   24.1435 H   0  0  0  0  0  0
  -20.5727  -26.2211   23.3522 H   0  0  0  0  0  0
  -21.6636  -26.7485   22.1079 H   0  0  0  0  0  0
  -19.6890  -25.6394   21.1105 H   0  0  0  0  0  0
  -19.6663  -27.3345   20.6760 H   0  0  0  0  0  0
  -17.4206  -26.6776   21.3980 H   0  0  0  0  0  0
  -18.0255  -26.0046   22.8943 H   0  0  0  0  0  0
  -19.7930  -30.7310   24.2192 H   0  0  0  0  0  0
  -17.4990  -31.6235   24.5187 H   0  0  0  0  0  0
  -15.5313  -30.2912   23.7740 H   0  0  0  0  0  0
  -15.8696  -28.0813   22.7029 H   0  0  0  0  0  0
  -24.6005  -30.6984   25.7783 H   0  0  0  0  0  0
  -24.8964  -32.2812   26.4914 H   0  0  0  0  0  0
  -25.8187  -30.8829   27.0214 H   0  0  0  0  0  0
  -26.2834  -29.6791   24.1144 H   0  0  0  0  0  0
  -27.4238  -29.7285   25.4374 H   0  0  0  0  0  0
  -27.8615  -30.4401   23.9024 H   0  0  0  0  0  0
  -27.2813  -33.3602   26.2010 H   0  0  0  0  0  0
  -28.3958  -32.6734   25.0333 H   0  0  0  0  0  0
  -28.0732  -31.8410   26.5404 H   0  0  0  0  0  0
  -28.2595  -38.0006   24.7530 H   0  0  0  0  0  0
  -28.0989  -36.2547   24.6341 H   0  0  0  0  0  0
  -27.2267  -37.1473   25.8883 H   0  0  0  0  0  0
  -20.9311  -29.8737   21.6953 H   0  0  0  0  0  0
  -26.0144  -38.2867   24.1514 H   0  0  0  0  0  0
  -27.7684  -17.3602   21.3298 H   0  0  0  0  0  0
  -27.1283  -23.9877   21.9345 H   0  0  0  0  0  0
  -26.5232  -25.6226   21.8841 H   0  0  0  0  0  0
  -28.1162  -25.2982   22.5659 H   0  0  0  0  0  0
  -31.5168  -17.0626   21.4020 H   0  0  0  0  0  0
  -31.1192  -16.9998   19.7115 H   0  0  0  0  0  0
  -29.8355  -24.5095   19.2691 H   0  0  0  0  0  0
  -30.0169  -24.4028   21.0107 H   0  0  0  0  0  0
  -27.3851  -24.8564   19.6273 H   0  0  0  0  0  0
  -30.6936  -22.0623   20.7329 H   0  0  0  0  0  0
  -29.1242  -15.5506   21.1857 H   0  0  0  0  0  0
  1 25  1  0  0  0
  1 30  2  0  0  0
  1 81  1  0  0  0
  2  3  1  0  0  0
  2 25  1  0  0  0
  2 84  1  0  0  0
  2 85  1  0  0  0
  3  4  1  0  0  0
  3 86  1  0  0  0
  3 87  1  0  0  0
  4  5  1  0  0  0
  4 88  1  0  0  0
  4 89  1  0  0  0
  5  6  1  0  0  0
  5 26  1  0  0  0
  5 90  1  0  0  0
  6 25  1  0  0  0
  6 91  1  0  0  0
  6 92  1  0  0  0
  7  8  2  0  0  0
  7 26  1  0  0  0
  7 29  1  0  0  0
  8  9  1  0  0  0
  8 22  1  0  0  0
  9 10  1  0  0  0
  9 27  2  0  0  0
 10 11  2  0  0  0
 10 15  1  0  0  0
 11 12  1  0  0  0
 11 93  1  0  0  0
 12 13  2  0  0  0
 12 94  1  0  0  0
 13 14  1  0  0  0
 13 31  1  0  0  0
 14 15  2  0  0  0
 14 95  1  0  0  0
 15 96  1  0  0  0
 16 17  2  0  0  0
 16 21  1  0  0  0
 16 31  1  0  0  0
 17 18  1  0  0  0
 17 97  1  0  0  0
 18 19  2  0  0  0
 18 98  1  0  0  0
 19 20  1  0  0  0
 19 24  1  0  0  0
 20 21  2  0  0  0
 20 99  1  0  0  0
 21 23  1  0  0  0
 22 28  1  0  0  0
 22 32  2  0  0  0
 26 27  1  0  0  0
 28100  1  0  0  0
 28101  1  0  0  0
 29102  1  0  0  0
 29103  1  0  0  0
 33 34  1  0  0  0
 33 66  1  0  0  0
 33 70  2  0  0  0
 34 36  1  0  0  0
 34 59  1  0  0  0
 34104  1  0  0  0
 35 44  2  0  0  0
 35 45  1  0  0  0
 35 68  1  0  0  0
 36 56  1  0  0  0
 36105  1  0  0  0
 37 39  1  0  0  0
 37 47  1  0  0  0
 37 66  1  0  0  0
 37106  1  0  0  0
 38 43  2  0  0  0
 38 46  1  0  0  0
 38 47  1  0  0  0
 39 64  1  0  0  0
 39 67  2  0  0  0
 40 52  1  0  0  0
 40 53  2  0  0  0
 40 58  1  0  0  0
 41107  1  0  0  0
 41108  1  0  0  0
 41109  1  0  0  0
 41 48  1  0  0  0
 42 43  1  0  0  0
 42 66  1  0  0  0
 42110  1  0  0  0
 42111  1  0  0  0
 43 44  1  0  0  0
 44112  1  0  0  0
 45 46  2  0  0  0
 45113  1  0  0  0
 46114  1  0  0  0
 47115  1  0  0  0
 47116  1  0  0  0
 48 56  1  0  0  0
 48 65  1  0  0  0
 48117  1  0  0  0
 49 50  1  0  0  0
 49 53  1  0  0  0
 49 64  1  0  0  0
 49118  1  0  0  0
 50 51  1  0  0  0
 50119  1  0  0  0
 50120  1  0  0  0
 51 52  1  0  0  0
 51121  1  0  0  0
 51122  1  0  0  0
 52123  1  0  0  0
 52124  1  0  0  0
 53 54  1  0  0  0
 54 55  2  0  0  0
 54125  1  0  0  0
 55 57  1  0  0  0
 55126  1  0  0  0
 56 69  2  0  0  0
 57 58  2  0  0  0
 57127  1  0  0  0
 58128  1  0  0  0
 59 60  1  0  0  0
 59 61  1  0  0  0
 59 62  1  0  0  0
 60129  1  0  0  0
 60130  1  0  0  0
 60131  1  0  0  0
 61132  1  0  0  0
 61133  1  0  0  0
 61134  1  0  0  0
 62135  1  0  0  0
 62136  1  0  0  0
 62137  1  0  0  0
 63 65  1  0  0  0
 63138  1  0  0  0
 63139  1  0  0  0
 63140  1  0  0  0
 64141  1  0  0  0
 65142  1  0  0  0
 68 78  1  0  0  0
 71 72  2  0  0  0
 71 83  1  0  0  0
 71143  1  0  0  0
 72 76  1  0  0  0
 72 79  1  0  0  0
 73 79  2  0  0  0
 73 80  1  0  0  0
 73 83  1  0  0  0
 74 77  1  0  0  0
 74 80  1  0  0  0
 74 82  2  0  0  0
 75144  1  0  0  0
 75145  1  0  0  0
 75146  1  0  0  0
 75 78  1  0  0  0
 76 81  1  0  0  0
 76147  1  0  0  0
 76148  1  0  0  0
 77 78  1  0  0  0
 77149  1  0  0  0
 77150  1  0  0  0
 78151  1  0  0  0
 80152  1  0  0  0
 81153  1  0  0  0
M  ISO  4   1 100  68 101  78 101  81 100
M  END
> <chiral flag>
0

> <version>
0

> <s_m_source_file>
/data/baiqing/PycharmProjects/Reinvent-master-3.2/result/LINK_invent/BTK/process_docking_weight1_custom_product_contain_oxygen_bond_distance_aromatic_linkinvent_7_9_3/rearranged_h_0178.sdf

> <i_m_source_file_index>
96

> <r_mmod_Potential_Energy-OPLS-2005>
-246.690048217773

> <r_mmod_Stretch_Energy-OPLS-2005>
40.6743431091309

> <r_mmod_Bend_Energy-OPLS-2005>
100.595634460449

> <r_mmod_Torsional_Energy-OPLS-2005>
202.216873168945

> <r_mmod_Improper_Torsional_Energy-OPLS-2005>
4.95717620849609

> <r_mmod_Van_der_Waal_Energy-OPLS-2005>
149.421035766602

> <r_mmod_Electrostatic_Energy-OPLS-2005>
-534.807922363281

> <r_mmod_Solvation_Energy-OPLS-2005>
-235.324279785156

> <b_mmod_Minimization_Converged-OPLS-2005>
0

> <r_mmod_RMS_Derivative-OPLS-2005>
5.51196002960205

$$$$
