0
                    3D
 Structure written by MMmdl.
157165  0  0  1  0            999 V2000
  -30.6612  -14.5500   20.5344 C   0  0  0  0  0  0
  -30.4338  -12.3428   19.4381 C   0  0  0  0  0  0
  -29.5025  -12.4966   18.2165 C   0  0  0  0  0  0
  -28.0244  -12.3479   18.6298 C   0  0  0  0  0  0
  -27.6586  -13.2078   19.8688 C   0  0  2  0  0  0
  -28.7023  -13.0278   20.9947 C   0  0  0  0  0  0
  -25.2592  -13.8160   20.5686 C   0  0  0  0  0  0
  -24.1842  -13.0436   20.9180 C   0  0  0  0  0  0
  -24.6395  -11.6905   20.8735 C   0  0  0  0  0  0
  -23.9057  -10.4293   21.0399 C   0  0  0  0  0  0
  -24.3608   -9.4211   21.9179 C   0  0  0  0  0  0
  -23.6284   -8.2245   22.0752 C   0  0  0  0  0  0
  -22.4268   -8.0279   21.3541 C   0  0  0  0  0  0
  -21.9899   -9.0252   20.4644 C   0  0  0  0  0  0
  -22.7226  -10.2134   20.3052 C   0  0  0  0  0  0
  -21.6854   -6.0733   22.5276 C   0  0  0  0  0  0
  -21.4014   -6.5636   23.8209 C   0  0  0  0  0  0
  -21.3661   -5.6787   24.9167 C   0  0  0  0  0  0
  -21.6045   -4.3051   24.7217 C   0  0  0  0  0  0
  -21.8820   -3.8147   23.4337 C   0  0  0  0  0  0
  -21.9192   -4.6962   22.3396 C   0  0  0  0  0  0
  -22.7866  -13.5237   21.1835 C   0  0  0  0  0  0
  -22.1664   -4.2153   21.0971 F   0  0  0  0  0  0
  -21.5626   -3.4531   25.7727 F   0  0  0  0  0  0
  -30.0262  -13.3461   20.4354 N   0  0  0  0  0  0
  -26.3017  -12.9326   20.3344 N   0  0  0  0  0  0
  -25.9323  -11.6488   20.5769 N   0  0  0  0  0  0
  -22.0500  -12.8245   22.0391 N   0  0  0  0  0  0
  -25.4320  -15.1875   20.4092 N   0  0  0  0  0  0
  -31.8095  -14.7327   20.1233 O   0  0  0  0  0  0
  -21.6634   -6.8877   21.4240 O   0  0  0  0  0  0
  -22.3556  -14.5540   20.6675 O   0  0  0  0  0  0
  -24.6210  -31.8640   23.2068 C   0  0  0  0  0  0
  -25.9080  -32.4800   23.8378 C   0  0  1  0  0  0
  -27.2263  -27.3717   20.1026 C   0  0  0  0  0  0
  -25.5915  -33.8601   24.2306 N   0  0  0  0  0  0
  -23.4115  -30.4906   21.5485 C   0  0  2  0  0  0
  -24.8566  -28.9546   20.1114 C   0  0  0  0  0  0
  -22.7443  -29.4653   22.4950 C   0  0  0  0  0  0
  -18.0282  -28.1375   22.8490 C   0  0  0  0  0  0
  -24.1491  -36.7310   23.2637 C   0  0  0  0  0  0
  -25.9489  -30.8106   21.3710 C   0  0  0  0  0  0
  -26.0230  -29.4430   20.7132 C   0  0  0  0  0  0
  -27.2100  -28.6612   20.7037 C   0  0  0  0  0  0
  -26.0372  -26.9288   19.4728 C   0  0  0  0  0  0
  -24.8623  -27.6997   19.4857 C   0  0  0  0  0  0
  -23.6226  -29.8279   20.1623 C   0  0  0  0  0  0
  -25.4113  -36.3101   24.0332 C   0  0  1  0  0  0
  -20.5880  -28.3678   23.1289 C   0  0  2  0  0  0
  -20.6772  -26.9407   22.5405 C   0  0  0  0  0  0
  -19.5745  -26.6383   21.5206 C   0  0  0  0  0  0
  -18.1928  -26.7921   22.1623 C   0  0  0  0  0  0
  -19.1533  -28.8842   23.2890 C   0  0  0  0  0  0
  -18.9458  -30.1447   23.8905 C   0  0  0  0  0  0
  -17.6460  -30.6582   24.0566 C   0  0  0  0  0  0
  -25.9044  -34.9465   23.5118 C   0  0  0  0  0  0
  -16.5352  -29.9083   23.6326 C   0  0  0  0  0  0
  -16.7271  -28.6497   23.0351 C   0  0  0  0  0  0
  -26.4480  -31.6596   25.0729 C   0  0  0  0  0  0
  -25.3734  -31.3720   26.1469 C   0  0  0  0  0  0
  -27.0305  -30.3025   24.6143 C   0  0  0  0  0  0
  -27.6046  -32.4318   25.7496 C   0  0  0  0  0  0
  -27.5581  -37.1812   24.8464 C   0  0  0  0  0  0
  -21.4163  -29.3045   22.3691 N   0  0  0  0  0  0
  -26.4297  -37.3788   23.9406 N   0  0  0  0  0  0
  -24.6791  -31.0702   22.0994 N   0  0  0  0  0  0
  -23.4196  -28.8184   23.2998 O   0  0  0  0  0  0
  -28.3629  -26.5623   20.1579 O   0  0  0  0  0  0
  -26.5604  -34.8921   22.4679 O   0  0  0  0  0  0
  -23.5386  -32.1406   23.7437 O   0  0  0  0  0  0
  -28.4342  -17.2529   22.7356 C   0  0  0  0  0  0
  -27.4955  -17.9334   23.5277 C   0  0  0  0  0  0
  -28.0173  -19.9890   22.3534 C   0  0  0  0  0  0
  -29.1781  -17.9121   21.7222 C   0  0  0  0  0  0
  -28.9776  -19.3325   21.5421 C   0  0  0  0  0  0
  -27.2829  -19.3037   23.3338 C   0  0  0  0  0  0
  -29.0473  -22.6383   20.0728 C   0  0  0  0  0  0
  -30.1665  -17.0419   20.9004 C   0  0  0  0  0  0
  -29.7260  -20.2012   20.5020 C   0  0  0  0  0  0
  -29.2854  -24.1435   20.4276 C   0  0  0  0  0  0
  -28.1740  -25.1303   19.9232 C   0  0  0  0  0  0
  -29.7316  -21.6768   20.7419 N   0  0  0  0  0  0
  -29.8809  -15.5817   20.9310 N   0  0  0  0  0  0
  -28.2535  -22.3436   19.1776 O   0  0  0  0  0  0
  -26.1294  -20.1466   24.3007 Cl  0  0  0  0  0  0
  -31.4757  -12.4590   19.1364 H   0  0  0  0  0  0
  -30.3547  -11.3401   19.8607 H   0  0  0  0  0  0
  -29.7538  -11.7548   17.4574 H   0  0  0  0  0  0
  -29.6586  -13.4723   17.7536 H   0  0  0  0  0  0
  -27.8497  -11.2941   18.8492 H   0  0  0  0  0  0
  -27.3706  -12.5957   17.7926 H   0  0  0  0  0  0
  -27.6889  -14.2482   19.5445 H   0  0  0  0  0  0
  -28.6943  -12.0013   21.3647 H   0  0  0  0  0  0
  -28.4583  -13.6516   21.8560 H   0  0  0  0  0  0
  -25.2752   -9.5690   22.4753 H   0  0  0  0  0  0
  -23.9994   -7.4639   22.7474 H   0  0  0  0  0  0
  -21.0830   -8.8762   19.8950 H   0  0  0  0  0  0
  -22.3678  -10.9667   19.6162 H   0  0  0  0  0  0
  -21.2011   -7.6146   23.9712 H   0  0  0  0  0  0
  -21.1483   -6.0516   25.9072 H   0  0  0  0  0  0
  -22.0602   -2.7609   23.2827 H   0  0  0  0  0  0
  -22.4100  -11.9902   22.4787 H   0  0  0  0  0  0
  -21.1121  -13.1289   22.2586 H   0  0  0  0  0  0
  -24.6663  -15.8424   20.5240 H   0  0  0  0  0  0
  -26.2819  -15.6296   20.0831 H   0  0  0  0  0  0
  -26.7149  -32.5485   23.1132 H   0  0  0  0  0  0
  -25.0077  -33.9756   25.0458 H   0  0  0  0  0  0
  -22.7033  -31.3100   21.4089 H   0  0  0  0  0  0
  -23.3747  -35.9649   23.3306 H   0  0  0  0  0  0
  -24.3588  -36.8916   22.2050 H   0  0  0  0  0  0
  -23.7245  -37.6519   23.6645 H   0  0  0  0  0  0
  -26.0754  -31.5763   20.6047 H   0  0  0  0  0  0
  -26.8323  -30.8573   21.9967 H   0  0  0  0  0  0
  -28.1056  -29.0323   21.1827 H   0  0  0  0  0  0
  -25.9842  -25.9765   18.9657 H   0  0  0  0  0  0
  -23.9687  -27.3210   19.0088 H   0  0  0  0  0  0
  -23.7385  -30.6048   19.4057 H   0  0  0  0  0  0
  -22.7440  -29.2543   19.8618 H   0  0  0  0  0  0
  -25.1292  -36.1964   25.0823 H   0  0  0  0  0  0
  -20.9981  -28.3247   24.1404 H   0  0  0  0  0  0
  -20.5671  -26.2287   23.3599 H   0  0  0  0  0  0
  -21.6641  -26.7437   22.1199 H   0  0  0  0  0  0
  -19.6909  -25.6296   21.1227 H   0  0  0  0  0  0
  -19.6682  -27.3200   20.6740 H   0  0  0  0  0  0
  -17.4196  -26.6669   21.4027 H   0  0  0  0  0  0
  -18.0338  -26.0060   22.9015 H   0  0  0  0  0  0
  -19.7938  -30.7259   24.2279 H   0  0  0  0  0  0
  -17.5017  -31.6263   24.5163 H   0  0  0  0  0  0
  -15.5354  -30.2989   23.7641 H   0  0  0  0  0  0
  -15.8671  -28.0818   22.7061 H   0  0  0  0  0  0
  -24.5917  -30.7048   25.7818 H   0  0  0  0  0  0
  -24.8915  -32.2881   26.4896 H   0  0  0  0  0  0
  -25.8083  -30.8915   27.0241 H   0  0  0  0  0  0
  -26.2857  -29.6798   24.1170 H   0  0  0  0  0  0
  -27.4020  -29.7251   25.4620 H   0  0  0  0  0  0
  -27.8724  -30.4321   23.9338 H   0  0  0  0  0  0
  -27.2658  -33.3612   26.2086 H   0  0  0  0  0  0
  -28.3855  -32.6884   25.0326 H   0  0  0  0  0  0
  -28.0715  -31.8435   26.5405 H   0  0  0  0  0  0
  -28.2606  -38.0104   24.7507 H   0  0  0  0  0  0
  -28.1068  -36.2633   24.6296 H   0  0  0  0  0  0
  -27.2298  -37.1474   25.8868 H   0  0  0  0  0  0
  -20.9322  -29.8787   21.6933 H   0  0  0  0  0  0
  -26.0183  -38.2868   24.1397 H   0  0  0  0  0  0
  -28.5684  -16.2011   22.9393 H   0  0  0  0  0  0
  -26.9389  -17.4002   24.2846 H   0  0  0  0  0  0
  -27.8199  -21.0438   22.2361 H   0  0  0  0  0  0
  -31.1739  -17.2155   21.2827 H   0  0  0  0  0  0
  -30.1645  -17.3735   19.8610 H   0  0  0  0  0  0
  -29.3080  -19.9845   19.5180 H   0  0  0  0  0  0
  -30.7650  -19.8719   20.4621 H   0  0  0  0  0  0
  -30.2459  -24.4378   20.0051 H   0  0  0  0  0  0
  -29.3819  -24.2358   21.5096 H   0  0  0  0  0  0
  -27.2497  -24.8058   20.4046 H   0  0  0  0  0  0
  -28.0407  -24.9890   18.8495 H   0  0  0  0  0  0
  -30.3679  -21.9949   21.4611 H   0  0  0  0  0  0
  -28.9454  -15.3270   21.2036 H   0  0  0  0  0  0
  1 25  1  0  0  0
  1 30  2  0  0  0
  1 83  1  0  0  0
  2  3  1  0  0  0
  2 25  1  0  0  0
  2 86  1  0  0  0
  2 87  1  0  0  0
  3  4  1  0  0  0
  3 88  1  0  0  0
  3 89  1  0  0  0
  4  5  1  0  0  0
  4 90  1  0  0  0
  4 91  1  0  0  0
  5  6  1  0  0  0
  5 26  1  0  0  0
  5 92  1  0  0  0
  6 25  1  0  0  0
  6 93  1  0  0  0
  6 94  1  0  0  0
  7  8  2  0  0  0
  7 26  1  0  0  0
  7 29  1  0  0  0
  8  9  1  0  0  0
  8 22  1  0  0  0
  9 10  1  0  0  0
  9 27  2  0  0  0
 10 11  2  0  0  0
 10 15  1  0  0  0
 11 12  1  0  0  0
 11 95  1  0  0  0
 12 13  2  0  0  0
 12 96  1  0  0  0
 13 14  1  0  0  0
 13 31  1  0  0  0
 14 15  2  0  0  0
 14 97  1  0  0  0
 15 98  1  0  0  0
 16 17  2  0  0  0
 16 21  1  0  0  0
 16 31  1  0  0  0
 17 18  1  0  0  0
 17 99  1  0  0  0
 18 19  2  0  0  0
 18100  1  0  0  0
 19 20  1  0  0  0
 19 24  1  0  0  0
 20 21  2  0  0  0
 20101  1  0  0  0
 21 23  1  0  0  0
 22 28  1  0  0  0
 22 32  2  0  0  0
 26 27  1  0  0  0
 28102  1  0  0  0
 28103  1  0  0  0
 29104  1  0  0  0
 29105  1  0  0  0
 33 34  1  0  0  0
 33 66  1  0  0  0
 33 70  2  0  0  0
 34 36  1  0  0  0
 34 59  1  0  0  0
 34106  1  0  0  0
 35 44  2  0  0  0
 35 45  1  0  0  0
 35 68  1  0  0  0
 36 56  1  0  0  0
 36107  1  0  0  0
 37 39  1  0  0  0
 37 47  1  0  0  0
 37 66  1  0  0  0
 37108  1  0  0  0
 38 43  2  0  0  0
 38 46  1  0  0  0
 38 47  1  0  0  0
 39 64  1  0  0  0
 39 67  2  0  0  0
 40 52  1  0  0  0
 40 53  2  0  0  0
 40 58  1  0  0  0
 41109  1  0  0  0
 41110  1  0  0  0
 41111  1  0  0  0
 41 48  1  0  0  0
 42 43  1  0  0  0
 42 66  1  0  0  0
 42112  1  0  0  0
 42113  1  0  0  0
 43 44  1  0  0  0
 44114  1  0  0  0
 45 46  2  0  0  0
 45115  1  0  0  0
 46116  1  0  0  0
 47117  1  0  0  0
 47118  1  0  0  0
 48 56  1  0  0  0
 48 65  1  0  0  0
 48119  1  0  0  0
 49 50  1  0  0  0
 49 53  1  0  0  0
 49 64  1  0  0  0
 49120  1  0  0  0
 50 51  1  0  0  0
 50121  1  0  0  0
 50122  1  0  0  0
 51 52  1  0  0  0
 51123  1  0  0  0
 51124  1  0  0  0
 52125  1  0  0  0
 52126  1  0  0  0
 53 54  1  0  0  0
 54 55  2  0  0  0
 54127  1  0  0  0
 55 57  1  0  0  0
 55128  1  0  0  0
 56 69  2  0  0  0
 57 58  2  0  0  0
 57129  1  0  0  0
 58130  1  0  0  0
 59 60  1  0  0  0
 59 61  1  0  0  0
 59 62  1  0  0  0
 60131  1  0  0  0
 60132  1  0  0  0
 60133  1  0  0  0
 61134  1  0  0  0
 61135  1  0  0  0
 61136  1  0  0  0
 62137  1  0  0  0
 62138  1  0  0  0
 62139  1  0  0  0
 63 65  1  0  0  0
 63140  1  0  0  0
 63141  1  0  0  0
 63142  1  0  0  0
 64143  1  0  0  0
 65144  1  0  0  0
 68 81  1  0  0  0
 71 72  2  0  0  0
 71 74  1  0  0  0
 71145  1  0  0  0
 72 76  1  0  0  0
 72146  1  0  0  0
 73 75  1  0  0  0
 73 76  2  0  0  0
 73147  1  0  0  0
 74 75  2  0  0  0
 74 78  1  0  0  0
 75 79  1  0  0  0
 76 85  1  0  0  0
 77 80  1  0  0  0
 77 82  1  0  0  0
 77 84  2  0  0  0
 78 83  1  0  0  0
 78148  1  0  0  0
 78149  1  0  0  0
 79 82  1  0  0  0
 79150  1  0  0  0
 79151  1  0  0  0
 80 81  1  0  0  0
 80152  1  0  0  0
 80153  1  0  0  0
 81154  1  0  0  0
 81155  1  0  0  0
 82156  1  0  0  0
 83157  1  0  0  0
M  ISO  4   1 100  68 101  81 101  83 100
M  END
> <chiral flag>
0

> <version>
0

> <s_m_source_file>
/data/baiqing/PycharmProjects/Reinvent-master-3.2/result/LINK_invent/BTK/process_docking_weight1_custom_product_contain_oxygen_bond_distance_aromatic_linkinvent_7_9_3/rearranged_h_0042.sdf

> <i_m_source_file_index>
1

> <r_mmod_Potential_Energy-OPLS-2005>
-182.189315795898

> <r_mmod_Stretch_Energy-OPLS-2005>
58.0350608825684

> <r_mmod_Bend_Energy-OPLS-2005>
109.580299377441

> <r_mmod_Torsional_Energy-OPLS-2005>
188.141021728516

> <r_mmod_Improper_Torsional_Energy-OPLS-2005>
4.43008613586426

> <r_mmod_Van_der_Waal_Energy-OPLS-2005>
155.260589599609

> <r_mmod_Electrostatic_Energy-OPLS-2005>
-487.123382568359

> <r_mmod_Solvation_Energy-OPLS-2005>
-238.051879882812

> <b_mmod_Minimization_Converged-OPLS-2005>
0

> <r_mmod_RMS_Derivative-OPLS-2005>
0.921364545822144

$$$$
1
                    3D
 Structure written by MMmdl.
166175  0  0  1  0            999 V2000
  -30.5920  -14.6761   20.5114 C   0  0  0  0  0  0
  -30.4476  -12.4188   19.4658 C   0  0  0  0  0  0
  -29.5154  -12.5186   18.2373 C   0  0  0  0  0  0
  -28.0412  -12.3362   18.6475 C   0  0  0  0  0  0
  -27.6556  -13.2140   19.8662 C   0  0  2  0  0  0
  -28.6952  -13.0703   21.0009 C   0  0  0  0  0  0
  -25.2565  -13.8177   20.5681 C   0  0  0  0  0  0
  -24.1824  -13.0445   20.9186 C   0  0  0  0  0  0
  -24.6380  -11.6913   20.8739 C   0  0  0  0  0  0
  -23.9049  -10.4299   21.0419 C   0  0  0  0  0  0
  -24.3602   -9.4215   21.9196 C   0  0  0  0  0  0
  -23.6267   -8.2267   22.0767 C   0  0  0  0  0  0
  -22.4252   -8.0307   21.3562 C   0  0  0  0  0  0
  -21.9877   -9.0282   20.4667 C   0  0  0  0  0  0
  -22.7206  -10.2152   20.3066 C   0  0  0  0  0  0
  -21.6850   -6.0734   22.5276 C   0  0  0  0  0  0
  -21.4012   -6.5630   23.8211 C   0  0  0  0  0  0
  -21.3656   -5.6777   24.9163 C   0  0  0  0  0  0
  -21.6054   -4.3049   24.7218 C   0  0  0  0  0  0
  -21.8815   -3.8139   23.4334 C   0  0  0  0  0  0
  -21.9183   -4.6965   22.3393 C   0  0  0  0  0  0
  -22.7845  -13.5260   21.1837 C   0  0  0  0  0  0
  -22.1660   -4.2151   21.0964 F   0  0  0  0  0  0
  -21.5621   -3.4520   25.7732 F   0  0  0  0  0  0
  -30.0121  -13.4327   20.4510 N   0  0  0  0  0  0
  -26.2991  -12.9346   20.3297 N   0  0  0  0  0  0
  -25.9314  -11.6507   20.5753 N   0  0  0  0  0  0
  -22.0450  -12.8296   22.0391 N   0  0  0  0  0  0
  -25.4294  -15.1903   20.4153 N   0  0  0  0  0  0
  -31.7285  -14.8671   20.0696 O   0  0  0  0  0  0
  -21.6635   -6.8902   21.4244 O   0  0  0  0  0  0
  -22.3555  -14.5557   20.6653 O   0  0  0  0  0  0
  -24.6297  -31.8595   23.1965 C   0  0  0  0  0  0
  -25.9129  -32.4789   23.8312 C   0  0  1  0  0  0
  -27.2405  -27.2957   20.1303 C   0  0  0  0  0  0
  -25.5937  -33.8585   24.2251 N   0  0  0  0  0  0
  -23.4256  -30.4784   21.5411 C   0  0  2  0  0  0
  -24.8751  -28.9194   20.1199 C   0  0  0  0  0  0
  -22.7494  -29.4628   22.4929 C   0  0  0  0  0  0
  -18.0301  -28.1420   22.8479 C   0  0  0  0  0  0
  -24.1493  -36.7292   23.2638 C   0  0  0  0  0  0
  -25.9673  -30.7832   21.3688 C   0  0  0  0  0  0
  -26.0442  -29.4043   20.7179 C   0  0  0  0  0  0
  -27.2293  -28.6065   20.7081 C   0  0  0  0  0  0
  -26.0423  -26.8602   19.5202 C   0  0  0  0  0  0
  -24.8766  -27.6532   19.5129 C   0  0  0  0  0  0
  -23.6444  -29.8052   20.1602 C   0  0  0  0  0  0
  -25.4120  -36.3083   24.0322 C   0  0  1  0  0  0
  -20.5903  -28.3724   23.1292 C   0  0  2  0  0  0
  -20.6806  -26.9445   22.5433 C   0  0  0  0  0  0
  -19.5784  -26.6407   21.5237 C   0  0  0  0  0  0
  -18.1951  -26.7964   22.1618 C   0  0  0  0  0  0
  -19.1554  -28.8887   23.2882 C   0  0  0  0  0  0
  -18.9478  -30.1484   23.8913 C   0  0  0  0  0  0
  -17.6476  -30.6606   24.0592 C   0  0  0  0  0  0
  -25.9060  -34.9460   23.5085 C   0  0  0  0  0  0
  -16.5369  -29.9116   23.6340 C   0  0  0  0  0  0
  -16.7284  -28.6542   23.0340 C   0  0  0  0  0  0
  -26.4486  -31.6615   25.0699 C   0  0  0  0  0  0
  -25.3696  -31.3816   26.1418 C   0  0  0  0  0  0
  -27.0322  -30.3034   24.6173 C   0  0  0  0  0  0
  -27.6057  -32.4349   25.7447 C   0  0  0  0  0  0
  -27.5583  -37.1792   24.8452 C   0  0  0  0  0  0
  -21.4207  -29.3053   22.3657 N   0  0  0  0  0  0
  -26.4289  -37.3785   23.9402 N   0  0  0  0  0  0
  -24.6929  -31.0578   22.0926 N   0  0  0  0  0  0
  -23.4197  -28.8198   23.3046 O   0  0  0  0  0  0
  -28.3843  -26.4742   20.1369 O   0  0  0  0  0  0
  -26.5636  -34.8927   22.4657 O   0  0  0  0  0  0
  -23.5452  -32.1400   23.7279 O   0  0  0  0  0  0
  -30.1607  -17.8051   19.5884 C   0  0  0  0  0  0
  -28.8812  -19.3718   21.5188 C   0  0  0  0  0  0
  -29.9099  -19.2005   19.3525 C   0  0  0  0  0  0
  -29.2673  -20.0396   20.3240 C   0  0  0  0  0  0
  -29.7456  -17.1438   20.7756 C   0  0  0  0  0  0
  -29.0942  -17.9755   21.7319 C   0  0  0  0  0  0
  -32.1528  -24.4455   20.7740 C   0  0  0  0  0  0
  -32.0975  -23.1564   21.5732 C   0  0  0  0  0  0
  -30.7531  -25.0565   20.7683 C   0  0  0  0  0  0
  -31.1300  -22.1839   20.8963 C   0  0  0  0  0  0
  -29.6427  -24.1397   20.1755 C   0  0  2  0  0  0
  -30.2866  -19.7578   17.9893 C   0  0  0  0  0  0
  -28.9032  -21.5809   20.0826 C   0  0  0  0  0  0
  -28.2784  -24.9888   20.3092 C   0  0  0  0  0  0
  -29.8109  -15.6909   21.0077 N   0  0  0  0  0  0
  -29.7237  -22.6857   20.7469 N   0  3  1  0  0  0
  -28.5035  -17.2745   23.1966 Cl  0  0  0  0  0  0
  -31.4865  -12.5611   19.1631 H   0  0  0  0  0  0
  -30.4029  -11.4230   19.9086 H   0  0  0  0  0  0
  -29.7871  -11.7735   17.4896 H   0  0  0  0  0  0
  -29.6437  -13.4914   17.7586 H   0  0  0  0  0  0
  -27.8971  -11.2829   18.8945 H   0  0  0  0  0  0
  -27.3847  -12.5455   17.8037 H   0  0  0  0  0  0
  -27.6743  -14.2475   19.5204 H   0  0  0  0  0  0
  -28.7134  -12.0443   21.3701 H   0  0  0  0  0  0
  -28.4239  -13.6863   21.8598 H   0  0  0  0  0  0
  -25.2758   -9.5666   22.4771 H   0  0  0  0  0  0
  -23.9963   -7.4639   22.7477 H   0  0  0  0  0  0
  -21.0797   -8.8803   19.8982 H   0  0  0  0  0  0
  -22.3671  -10.9697   19.6185 H   0  0  0  0  0  0
  -21.2016   -7.6148   23.9705 H   0  0  0  0  0  0
  -21.1479   -6.0520   25.9067 H   0  0  0  0  0  0
  -22.0595   -2.7604   23.2833 H   0  0  0  0  0  0
  -22.4036  -11.9978   22.4848 H   0  0  0  0  0  0
  -21.1087  -13.1402   22.2589 H   0  0  0  0  0  0
  -24.6679  -15.8475   20.5528 H   0  0  0  0  0  0
  -26.2792  -15.6279   20.0835 H   0  0  0  0  0  0
  -26.7212  -32.5462   23.1073 H   0  0  0  0  0  0
  -25.0076  -33.9732   25.0388 H   0  0  0  0  0  0
  -22.7208  -31.2993   21.3928 H   0  0  0  0  0  0
  -23.3764  -35.9617   23.3295 H   0  0  0  0  0  0
  -24.3579  -36.8923   22.2051 H   0  0  0  0  0  0
  -23.7232  -37.6481   23.6675 H   0  0  0  0  0  0
  -26.0982  -31.5409   20.5953 H   0  0  0  0  0  0
  -26.8483  -30.8411   21.9956 H   0  0  0  0  0  0
  -28.1302  -28.9817   21.1741 H   0  0  0  0  0  0
  -25.9863  -25.8981   19.0361 H   0  0  0  0  0  0
  -23.9793  -27.2738   19.0436 H   0  0  0  0  0  0
  -23.7719  -30.5804   19.4038 H   0  0  0  0  0  0
  -22.7635  -29.2395   19.8520 H   0  0  0  0  0  0
  -25.1304  -36.1923   25.0815 H   0  0  0  0  0  0
  -20.9999  -28.3332   24.1415 H   0  0  0  0  0  0
  -20.5756  -26.2336   23.3640 H   0  0  0  0  0  0
  -21.6674  -26.7500   22.1216 H   0  0  0  0  0  0
  -19.6959  -25.6318   21.1279 H   0  0  0  0  0  0
  -19.6741  -27.3216   20.6771 H   0  0  0  0  0  0
  -17.4238  -26.6732   21.4001 H   0  0  0  0  0  0
  -18.0314  -26.0110   22.9008 H   0  0  0  0  0  0
  -19.7951  -30.7302   24.2287 H   0  0  0  0  0  0
  -17.5029  -31.6276   24.5215 H   0  0  0  0  0  0
  -15.5371  -30.3027   23.7657 H   0  0  0  0  0  0
  -15.8682  -28.0873   22.7033 H   0  0  0  0  0  0
  -24.5809  -30.7252   25.7716 H   0  0  0  0  0  0
  -24.8977  -32.3041   26.4826 H   0  0  0  0  0  0
  -25.7973  -30.8954   27.0198 H   0  0  0  0  0  0
  -26.2899  -29.6780   24.1211 H   0  0  0  0  0  0
  -27.4025  -29.7297   25.4675 H   0  0  0  0  0  0
  -27.8759  -30.4302   23.9389 H   0  0  0  0  0  0
  -27.2665  -33.3625   26.2067 H   0  0  0  0  0  0
  -28.3822  -32.6965   25.0246 H   0  0  0  0  0  0
  -28.0786  -31.8469   26.5319 H   0  0  0  0  0  0
  -28.2610  -38.0081   24.7510 H   0  0  0  0  0  0
  -28.1075  -36.2625   24.6265 H   0  0  0  0  0  0
  -27.2320  -37.1420   25.8859 H   0  0  0  0  0  0
  -20.9408  -29.8699   21.6788 H   0  0  0  0  0  0
  -26.0176  -38.2855   24.1430 H   0  0  0  0  0  0
  -30.6269  -17.2178   18.8099 H   0  0  0  0  0  0
  -28.3661  -19.9315   22.2861 H   0  0  0  0  0  0
  -32.4945  -24.2519   19.7555 H   0  0  0  0  0  0
  -32.8731  -25.1327   21.2202 H   0  0  0  0  0  0
  -31.7944  -23.3504   22.6035 H   0  0  0  0  0  0
  -33.0920  -22.7090   21.6240 H   0  0  0  0  0  0
  -30.8054  -25.9879   20.2016 H   0  0  0  0  0  0
  -30.4877  -25.3393   21.7889 H   0  0  0  0  0  0
  -31.1468  -21.2700   21.4911 H   0  0  0  0  0  0
  -31.5280  -21.9198   19.9157 H   0  0  0  0  0  0
  -29.8598  -24.0536   19.1099 H   0  0  0  0  0  0
  -30.7404  -18.9926   17.3584 H   0  0  0  0  0  0
  -30.9980  -20.5780   18.0742 H   0  0  0  0  0  0
  -29.4013  -20.1160   17.4621 H   0  0  0  0  0  0
  -27.8627  -21.7254   20.3724 H   0  0  0  0  0  0
  -28.9167  -21.7727   19.0111 H   0  0  0  0  0  0
  -27.8565  -24.8177   21.3001 H   0  0  0  0  0  0
  -27.5650  -24.5715   19.6011 H   0  0  0  0  0  0
  -29.0497  -15.3508   21.5745 H   0  0  0  0  0  0
  -29.3756  -22.7410   21.6937 H   0  0  0  0  0  0
  1 25  1  0  0  0
  1 30  2  0  0  0
  1 85  1  0  0  0
  2  3  1  0  0  0
  2 25  1  0  0  0
  2 88  1  0  0  0
  2 89  1  0  0  0
  3  4  1  0  0  0
  3 90  1  0  0  0
  3 91  1  0  0  0
  4  5  1  0  0  0
  4 92  1  0  0  0
  4 93  1  0  0  0
  5  6  1  0  0  0
  5 26  1  0  0  0
  5 94  1  0  0  0
  6 25  1  0  0  0
  6 95  1  0  0  0
  6 96  1  0  0  0
  7  8  2  0  0  0
  7 26  1  0  0  0
  7 29  1  0  0  0
  8  9  1  0  0  0
  8 22  1  0  0  0
  9 10  1  0  0  0
  9 27  2  0  0  0
 10 11  2  0  0  0
 10 15  1  0  0  0
 11 12  1  0  0  0
 11 97  1  0  0  0
 12 13  2  0  0  0
 12 98  1  0  0  0
 13 14  1  0  0  0
 13 31  1  0  0  0
 14 15  2  0  0  0
 14 99  1  0  0  0
 15100  1  0  0  0
 16 17  2  0  0  0
 16 21  1  0  0  0
 16 31  1  0  0  0
 17 18  1  0  0  0
 17101  1  0  0  0
 18 19  2  0  0  0
 18102  1  0  0  0
 19 20  1  0  0  0
 19 24  1  0  0  0
 20 21  2  0  0  0
 20103  1  0  0  0
 21 23  1  0  0  0
 22 28  1  0  0  0
 22 32  2  0  0  0
 26 27  1  0  0  0
 28104  1  0  0  0
 28105  1  0  0  0
 29106  1  0  0  0
 29107  1  0  0  0
 33 34  1  0  0  0
 33 66  1  0  0  0
 33 70  2  0  0  0
 34 36  1  0  0  0
 34 59  1  0  0  0
 34108  1  0  0  0
 35 44  2  0  0  0
 35 45  1  0  0  0
 35 68  1  0  0  0
 36 56  1  0  0  0
 36109  1  0  0  0
 37 39  1  0  0  0
 37 47  1  0  0  0
 37 66  1  0  0  0
 37110  1  0  0  0
 38 43  2  0  0  0
 38 46  1  0  0  0
 38 47  1  0  0  0
 39 64  1  0  0  0
 39 67  2  0  0  0
 40 52  1  0  0  0
 40 53  2  0  0  0
 40 58  1  0  0  0
 41111  1  0  0  0
 41112  1  0  0  0
 41113  1  0  0  0
 41 48  1  0  0  0
 42 43  1  0  0  0
 42 66  1  0  0  0
 42114  1  0  0  0
 42115  1  0  0  0
 43 44  1  0  0  0
 44116  1  0  0  0
 45 46  2  0  0  0
 45117  1  0  0  0
 46118  1  0  0  0
 47119  1  0  0  0
 47120  1  0  0  0
 48 56  1  0  0  0
 48 65  1  0  0  0
 48121  1  0  0  0
 49 50  1  0  0  0
 49 53  1  0  0  0
 49 64  1  0  0  0
 49122  1  0  0  0
 50 51  1  0  0  0
 50123  1  0  0  0
 50124  1  0  0  0
 51 52  1  0  0  0
 51125  1  0  0  0
 51126  1  0  0  0
 52127  1  0  0  0
 52128  1  0  0  0
 53 54  1  0  0  0
 54 55  2  0  0  0
 54129  1  0  0  0
 55 57  1  0  0  0
 55130  1  0  0  0
 56 69  2  0  0  0
 57 58  2  0  0  0
 57131  1  0  0  0
 58132  1  0  0  0
 59 60  1  0  0  0
 59 61  1  0  0  0
 59 62  1  0  0  0
 60133  1  0  0  0
 60134  1  0  0  0
 60135  1  0  0  0
 61136  1  0  0  0
 61137  1  0  0  0
 61138  1  0  0  0
 62139  1  0  0  0
 62140  1  0  0  0
 62141  1  0  0  0
 63 65  1  0  0  0
 63142  1  0  0  0
 63143  1  0  0  0
 63144  1  0  0  0
 64145  1  0  0  0
 65146  1  0  0  0
 68 84  1  0  0  0
 71 73  2  0  0  0
 71 75  1  0  0  0
 71147  1  0  0  0
 72 74  2  0  0  0
 72 76  1  0  0  0
 72148  1  0  0  0
 73 74  1  0  0  0
 73 82  1  0  0  0
 74 83  1  0  0  0
 75 76  2  0  0  0
 75 85  1  0  0  0
 76 87  1  0  0  0
 77 78  1  0  0  0
 77 79  1  0  0  0
 77149  1  0  0  0
 77150  1  0  0  0
 78 80  1  0  0  0
 78151  1  0  0  0
 78152  1  0  0  0
 79 81  1  0  0  0
 79153  1  0  0  0
 79154  1  0  0  0
 80 86  1  0  0  0
 80155  1  0  0  0
 80156  1  0  0  0
 81 84  1  0  0  0
 81 86  1  0  0  0
 81157  1  0  0  0
 82158  1  0  0  0
 82159  1  0  0  0
 82160  1  0  0  0
 83161  1  0  0  0
 83162  1  0  0  0
 83 86  1  0  0  0
 84163  1  0  0  0
 84164  1  0  0  0
 85165  1  0  0  0
 86166  1  0  0  0
M  CHG  1  86   1
M  ISO  4   1 100  68 101  84 101  85 100
M  END
> <chiral flag>
0

> <version>
0

> <s_m_source_file>
/data/baiqing/PycharmProjects/Reinvent-master-3.2/result/LINK_invent/BTK/process_docking_weight1_custom_product_contain_oxygen_bond_distance_aromatic_linkinvent_7_9_3/rearranged_h_0042.sdf

> <i_m_source_file_index>
2

> <r_mmod_Potential_Energy-OPLS-2005>
60.7081298828125

> <r_mmod_Stretch_Energy-OPLS-2005>
110.387329101562

> <r_mmod_Bend_Energy-OPLS-2005>
165.873397827148

> <r_mmod_Torsional_Energy-OPLS-2005>
261.310089111328

> <r_mmod_Improper_Torsional_Energy-OPLS-2005>
3.57412576675415

> <r_mmod_Van_der_Waal_Energy-OPLS-2005>
144.112380981445

> <r_mmod_Electrostatic_Energy-OPLS-2005>
-254.216445922852

> <r_mmod_Solvation_Energy-OPLS-2005>
-427.716400146484

> <b_mmod_Minimization_Converged-OPLS-2005>
0

> <r_mmod_RMS_Derivative-OPLS-2005>
2.92729926109314

$$$$
2
                    3D
 Structure written by MMmdl.
163171  0  0  1  0            999 V2000
  -30.6660  -14.5045   20.5575 C   0  0  0  0  0  0
  -30.4315  -12.3201   19.4202 C   0  0  0  0  0  0
  -29.4948  -12.4784   18.2046 C   0  0  0  0  0  0
  -28.0170  -12.3424   18.6230 C   0  0  0  0  0  0
  -27.6595  -13.1993   19.8669 C   0  0  2  0  0  0
  -28.7016  -12.9900   20.9873 C   0  0  0  0  0  0
  -25.2627  -13.8172   20.5732 C   0  0  0  0  0  0
  -24.1847  -13.0459   20.9225 C   0  0  0  0  0  0
  -24.6360  -11.6910   20.8735 C   0  0  0  0  0  0
  -23.9004  -10.4282   21.0398 C   0  0  0  0  0  0
  -24.3572   -9.4205   21.9177 C   0  0  0  0  0  0
  -23.6275   -8.2219   22.0762 C   0  0  0  0  0  0
  -22.4260   -8.0243   21.3538 C   0  0  0  0  0  0
  -21.9873   -9.0207   20.4628 C   0  0  0  0  0  0
  -22.7187  -10.2101   20.3036 C   0  0  0  0  0  0
  -21.6842   -6.0721   22.5293 C   0  0  0  0  0  0
  -21.4012   -6.5643   23.8222 C   0  0  0  0  0  0
  -21.3661   -5.6802   24.9189 C   0  0  0  0  0  0
  -21.6027   -4.3059   24.7245 C   0  0  0  0  0  0
  -21.8811   -3.8143   23.4371 C   0  0  0  0  0  0
  -21.9198   -4.6953   22.3421 C   0  0  0  0  0  0
  -22.7872  -13.5274   21.1861 C   0  0  0  0  0  0
  -22.1660   -4.2137   21.0999 F   0  0  0  0  0  0
  -21.5611   -3.4544   25.7756 F   0  0  0  0  0  0
  -30.0273  -13.3095   20.4331 N   0  0  0  0  0  0
  -26.3015  -12.9292   20.3325 N   0  0  0  0  0  0
  -25.9275  -11.6472   20.5737 N   0  0  0  0  0  0
  -22.0444  -12.8262   22.0388 N   0  0  0  0  0  0
  -25.4424  -15.1885   20.4228 N   0  0  0  0  0  0
  -31.7957  -14.7070   20.1045 O   0  0  0  0  0  0
  -21.6627   -6.8847   21.4241 O   0  0  0  0  0  0
  -22.3568  -14.5584   20.6717 O   0  0  0  0  0  0
  -24.6177  -31.8640   23.2085 C   0  0  0  0  0  0
  -25.9056  -32.4805   23.8380 C   0  0  1  0  0  0
  -27.2321  -27.3913   20.0969 C   0  0  0  0  0  0
  -25.5915  -33.8603   24.2321 N   0  0  0  0  0  0
  -23.4084  -30.4849   21.5480 C   0  0  2  0  0  0
  -24.8503  -28.9372   20.1189 C   0  0  0  0  0  0
  -22.7398  -29.4592   22.4921 C   0  0  0  0  0  0
  -18.0276  -28.1411   22.8566 C   0  0  0  0  0  0
  -24.1497  -36.7302   23.2635 C   0  0  0  0  0  0
  -25.9370  -30.8143   21.3617 C   0  0  0  0  0  0
  -26.0128  -29.4434   20.7113 C   0  0  0  0  0  0
  -27.2026  -28.6758   20.6987 C   0  0  0  0  0  0
  -26.0472  -26.9029   19.5053 C   0  0  0  0  0  0
  -24.8624  -27.6651   19.5205 C   0  0  0  0  0  0
  -23.6228  -29.8205   20.1637 C   0  0  0  0  0  0
  -25.4112  -36.3083   24.0341 C   0  0  1  0  0  0
  -20.5914  -28.3569   23.1243 C   0  0  2  0  0  0
  -20.6702  -26.9231   22.5531 C   0  0  0  0  0  0
  -19.5608  -26.6186   21.5426 C   0  0  0  0  0  0
  -18.1808  -26.7912   22.1819 C   0  0  0  0  0  0
  -19.1604  -28.8828   23.2877 C   0  0  0  0  0  0
  -18.9609  -30.1502   23.8809 C   0  0  0  0  0  0
  -17.6615  -30.6679   24.0478 C   0  0  0  0  0  0
  -25.9030  -34.9457   23.5122 C   0  0  0  0  0  0
  -16.5438  -29.9185   23.6394 C   0  0  0  0  0  0
  -16.7280  -28.6561   23.0504 C   0  0  0  0  0  0
  -26.4468  -31.6597   25.0720 C   0  0  0  0  0  0
  -25.3705  -31.3733   26.1451 C   0  0  0  0  0  0
  -27.0314  -30.3048   24.6102 C   0  0  0  0  0  0
  -27.6044  -32.4302   25.7493 C   0  0  0  0  0  0
  -27.5578  -37.1805   24.8464 C   0  0  0  0  0  0
  -21.4160  -29.2808   22.3460 N   0  0  0  0  0  0
  -26.4293  -37.3766   23.9410 N   0  0  0  0  0  0
  -24.6740  -31.0678   22.0995 N   0  0  0  0  0  0
  -23.4103  -28.8271   23.3138 O   0  0  0  0  0  0
  -28.4095  -26.6612   20.1432 O   0  0  0  0  0  0
  -26.5566  -34.8916   22.4657 O   0  0  0  0  0  0
  -23.5358  -32.1397   23.7471 O   0  0  0  0  0  0
  -28.5893  -17.5525   19.4089 C   0  0  0  0  0  0
  -29.3345  -17.9593   20.5327 C   0  0  0  0  0  0
  -29.2221  -19.3204   20.9666 C   0  0  0  0  0  0
  -28.3375  -20.2449   20.3069 C   0  0  0  0  0  0
  -27.5905  -19.7816   19.1815 C   0  0  0  0  0  0
  -27.7419  -18.4460   18.7341 C   0  0  0  0  0  0
  -28.1373  -24.1395   20.3459 C   0  0  0  0  0  0
  -30.0414  -19.7713   22.1730 C   0  0  0  0  0  0
  -26.6202  -20.6952   18.4274 C   0  0  0  0  0  0
  -29.6131  -22.5747   19.0556 C   0  0  0  0  0  0
  -30.2688  -16.9302   21.2249 C   0  0  0  0  0  0
  -28.1066  -21.6949   20.8483 C   0  0  0  0  0  0
  -28.5649  -25.3754   19.4831 C   0  0  0  0  0  0
  -29.9164  -15.5011   21.0785 N   0  0  0  0  0  0
  -28.5847  -22.8728   20.0589 N   0  0  0  0  0  0
  -27.3642  -24.3378   21.2896 O   0  0  0  0  0  0
  -26.8834  -17.8569   17.3520 Cl  0  0  0  0  0  0
  -31.4695  -12.4392   19.1078 H   0  0  0  0  0  0
  -30.3631  -11.3105   19.8269 H   0  0  0  0  0  0
  -29.7314  -11.7238   17.4519 H   0  0  0  0  0  0
  -29.6625  -13.4457   17.7301 H   0  0  0  0  0  0
  -27.8395  -11.2895   18.8512 H   0  0  0  0  0  0
  -27.3596  -12.5861   17.7879 H   0  0  0  0  0  0
  -27.6992  -14.2419   19.5574 H   0  0  0  0  0  0
  -28.6851  -11.9533   21.3257 H   0  0  0  0  0  0
  -28.4544  -13.5898   21.8641 H   0  0  0  0  0  0
  -25.2692   -9.5729   22.4784 H   0  0  0  0  0  0
  -23.9976   -7.4640   22.7529 H   0  0  0  0  0  0
  -21.0789   -8.8734   19.8946 H   0  0  0  0  0  0
  -22.3629  -10.9650   19.6165 H   0  0  0  0  0  0
  -21.1995   -7.6147   23.9752 H   0  0  0  0  0  0
  -21.1497   -6.0511   25.9105 H   0  0  0  0  0  0
  -22.0590   -2.7606   23.2886 H   0  0  0  0  0  0
  -22.3984  -11.9898   22.4777 H   0  0  0  0  0  0
  -21.1084  -13.1363   22.2579 H   0  0  0  0  0  0
  -24.6920  -15.8556   20.5642 H   0  0  0  0  0  0
  -26.3007  -15.6244   20.1130 H   0  0  0  0  0  0
  -26.7089  -32.5512   23.1102 H   0  0  0  0  0  0
  -25.0154  -33.9774   25.0529 H   0  0  0  0  0  0
  -22.6949  -31.3023   21.4162 H   0  0  0  0  0  0
  -23.3758  -35.9634   23.3292 H   0  0  0  0  0  0
  -24.3585  -36.8920   22.2046 H   0  0  0  0  0  0
  -23.7271  -37.6518   23.6641 H   0  0  0  0  0  0
  -26.0385  -31.5709   20.5840 H   0  0  0  0  0  0
  -26.8267  -30.8772   21.9744 H   0  0  0  0  0  0
  -28.1025  -29.0619   21.1574 H   0  0  0  0  0  0
  -26.0122  -25.9234   19.0509 H   0  0  0  0  0  0
  -23.9608  -27.2639   19.0802 H   0  0  0  0  0  0
  -23.7588  -30.6024   19.4171 H   0  0  0  0  0  0
  -22.7417  -29.2588   19.8489 H   0  0  0  0  0  0
  -25.1293  -36.1928   25.0835 H   0  0  0  0  0  0
  -21.0091  -28.3212   24.1328 H   0  0  0  0  0  0
  -20.5684  -26.2209   23.3818 H   0  0  0  0  0  0
  -21.6512  -26.7203   22.1178 H   0  0  0  0  0  0
  -19.6625  -25.6026   21.1617 H   0  0  0  0  0  0
  -19.6601  -27.2795   20.6824 H   0  0  0  0  0  0
  -17.4056  -26.6656   21.4255 H   0  0  0  0  0  0
  -18.0092  -26.0233   22.9374 H   0  0  0  0  0  0
  -19.8122  -30.7278   24.2099 H   0  0  0  0  0  0
  -17.5259  -31.6411   24.4971 H   0  0  0  0  0  0
  -15.5452  -30.3088   23.7819 H   0  0  0  0  0  0
  -15.8591  -28.0863   22.7469 H   0  0  0  0  0  0
  -24.5869  -30.7098   25.7782 H   0  0  0  0  0  0
  -24.8911  -32.2909   26.4870 H   0  0  0  0  0  0
  -25.8017  -30.8907   27.0233 H   0  0  0  0  0  0
  -26.2865  -29.6800   24.1148 H   0  0  0  0  0  0
  -27.4088  -29.7293   25.4573 H   0  0  0  0  0  0
  -27.8687  -30.4416   23.9254 H   0  0  0  0  0  0
  -27.2678  -33.3597   26.2103 H   0  0  0  0  0  0
  -28.3844  -32.6871   25.0305 H   0  0  0  0  0  0
  -28.0699  -31.8390   26.5390 H   0  0  0  0  0  0
  -28.2594  -38.0103   24.7495 H   0  0  0  0  0  0
  -28.1079  -36.2633   24.6300 H   0  0  0  0  0  0
  -27.2288  -37.1457   25.8866 H   0  0  0  0  0  0
  -20.9439  -29.8038   21.6221 H   0  0  0  0  0  0
  -26.0180  -38.2850   24.1376 H   0  0  0  0  0  0
  -28.6640  -16.5440   19.0375 H   0  0  0  0  0  0
  -30.9769  -19.2207   22.2629 H   0  0  0  0  0  0
  -29.4616  -19.6194   23.0848 H   0  0  0  0  0  0
  -30.3382  -20.8184   22.1194 H   0  0  0  0  0  0
  -27.1258  -21.1495   17.5779 H   0  0  0  0  0  0
  -26.1977  -21.4914   19.0342 H   0  0  0  0  0  0
  -25.7616  -20.1468   18.0376 H   0  0  0  0  0  0
  -29.1636  -22.1244   18.1712 H   0  0  0  0  0  0
  -30.2051  -23.4210   18.7159 H   0  0  0  0  0  0
  -30.3311  -21.8624   19.4612 H   0  0  0  0  0  0
  -30.2839  -17.1019   22.3017 H   0  0  0  0  0  0
  -31.2838  -17.1150   20.8674 H   0  0  0  0  0  0
  -28.4854  -21.7998   21.8624 H   0  0  0  0  0  0
  -27.0309  -21.7928   20.9981 H   0  0  0  0  0  0
  -28.0912  -25.3522   18.5005 H   0  0  0  0  0  0
  -29.6359  -25.3314   19.3008 H   0  0  0  0  0  0
  -29.0062  -15.2402   21.4243 H   0  0  0  0  0  0
  1 25  1  0  0  0
  1 30  2  0  0  0
  1 84  1  0  0  0
  2  3  1  0  0  0
  2 25  1  0  0  0
  2 88  1  0  0  0
  2 89  1  0  0  0
  3  4  1  0  0  0
  3 90  1  0  0  0
  3 91  1  0  0  0
  4  5  1  0  0  0
  4 92  1  0  0  0
  4 93  1  0  0  0
  5  6  1  0  0  0
  5 26  1  0  0  0
  5 94  1  0  0  0
  6 25  1  0  0  0
  6 95  1  0  0  0
  6 96  1  0  0  0
  7  8  2  0  0  0
  7 26  1  0  0  0
  7 29  1  0  0  0
  8  9  1  0  0  0
  8 22  1  0  0  0
  9 10  1  0  0  0
  9 27  2  0  0  0
 10 11  2  0  0  0
 10 15  1  0  0  0
 11 12  1  0  0  0
 11 97  1  0  0  0
 12 13  2  0  0  0
 12 98  1  0  0  0
 13 14  1  0  0  0
 13 31  1  0  0  0
 14 15  2  0  0  0
 14 99  1  0  0  0
 15100  1  0  0  0
 16 17  2  0  0  0
 16 21  1  0  0  0
 16 31  1  0  0  0
 17 18  1  0  0  0
 17101  1  0  0  0
 18 19  2  0  0  0
 18102  1  0  0  0
 19 20  1  0  0  0
 19 24  1  0  0  0
 20 21  2  0  0  0
 20103  1  0  0  0
 21 23  1  0  0  0
 22 28  1  0  0  0
 22 32  2  0  0  0
 26 27  1  0  0  0
 28104  1  0  0  0
 28105  1  0  0  0
 29106  1  0  0  0
 29107  1  0  0  0
 33 34  1  0  0  0
 33 66  1  0  0  0
 33 70  2  0  0  0
 34 36  1  0  0  0
 34 59  1  0  0  0
 34108  1  0  0  0
 35 44  2  0  0  0
 35 45  1  0  0  0
 35 68  1  0  0  0
 36 56  1  0  0  0
 36109  1  0  0  0
 37 39  1  0  0  0
 37 47  1  0  0  0
 37 66  1  0  0  0
 37110  1  0  0  0
 38 43  2  0  0  0
 38 46  1  0  0  0
 38 47  1  0  0  0
 39 64  1  0  0  0
 39 67  2  0  0  0
 40 52  1  0  0  0
 40 53  2  0  0  0
 40 58  1  0  0  0
 41111  1  0  0  0
 41112  1  0  0  0
 41113  1  0  0  0
 41 48  1  0  0  0
 42 43  1  0  0  0
 42 66  1  0  0  0
 42114  1  0  0  0
 42115  1  0  0  0
 43 44  1  0  0  0
 44116  1  0  0  0
 45 46  2  0  0  0
 45117  1  0  0  0
 46118  1  0  0  0
 47119  1  0  0  0
 47120  1  0  0  0
 48 56  1  0  0  0
 48 65  1  0  0  0
 48121  1  0  0  0
 49 50  1  0  0  0
 49 53  1  0  0  0
 49 64  1  0  0  0
 49122  1  0  0  0
 50 51  1  0  0  0
 50123  1  0  0  0
 50124  1  0  0  0
 51 52  1  0  0  0
 51125  1  0  0  0
 51126  1  0  0  0
 52127  1  0  0  0
 52128  1  0  0  0
 53 54  1  0  0  0
 54 55  2  0  0  0
 54129  1  0  0  0
 55 57  1  0  0  0
 55130  1  0  0  0
 56 69  2  0  0  0
 57 58  2  0  0  0
 57131  1  0  0  0
 58132  1  0  0  0
 59 60  1  0  0  0
 59 61  1  0  0  0
 59 62  1  0  0  0
 60133  1  0  0  0
 60134  1  0  0  0
 60135  1  0  0  0
 61136  1  0  0  0
 61137  1  0  0  0
 61138  1  0  0  0
 62139  1  0  0  0
 62140  1  0  0  0
 62141  1  0  0  0
 63 65  1  0  0  0
 63142  1  0  0  0
 63143  1  0  0  0
 63144  1  0  0  0
 64145  1  0  0  0
 65146  1  0  0  0
 68 83  1  0  0  0
 71 72  2  0  0  0
 71 76  1  0  0  0
 71147  1  0  0  0
 72 73  1  0  0  0
 72 81  1  0  0  0
 73 74  2  0  0  0
 73 78  1  0  0  0
 74 75  1  0  0  0
 74 82  1  0  0  0
 75 76  2  0  0  0
 75 79  1  0  0  0
 76 87  1  0  0  0
 77 83  1  0  0  0
 77 85  1  0  0  0
 77 86  2  0  0  0
 78148  1  0  0  0
 78149  1  0  0  0
 78150  1  0  0  0
 79151  1  0  0  0
 79152  1  0  0  0
 79153  1  0  0  0
 80 85  1  0  0  0
 80154  1  0  0  0
 80155  1  0  0  0
 80156  1  0  0  0
 81 84  1  0  0  0
 81157  1  0  0  0
 81158  1  0  0  0
 82 85  1  0  0  0
 82159  1  0  0  0
 82160  1  0  0  0
 83161  1  0  0  0
 83162  1  0  0  0
 84163  1  0  0  0
M  ISO  4   1 100  68 101  83 101  84 100
M  END
> <chiral flag>
0

> <version>
0

> <s_m_source_file>
/data/baiqing/PycharmProjects/Reinvent-master-3.2/result/LINK_invent/BTK/process_docking_weight1_custom_product_contain_oxygen_bond_distance_aromatic_linkinvent_7_9_3/rearranged_h_0042.sdf

> <i_m_source_file_index>
3

> <r_mmod_Potential_Energy-OPLS-2005>
-60.4300003051758

> <r_mmod_Stretch_Energy-OPLS-2005>
60.0414772033691

> <r_mmod_Bend_Energy-OPLS-2005>
125.691673278809

> <r_mmod_Torsional_Energy-OPLS-2005>
200.504852294922

> <r_mmod_Improper_Torsional_Energy-OPLS-2005>
3.51833271980286

> <r_mmod_Van_der_Waal_Energy-OPLS-2005>
164.360412597656

> <r_mmod_Electrostatic_Energy-OPLS-2005>
-405.952239990234

> <r_mmod_Solvation_Energy-OPLS-2005>
-228.475402832031

> <b_mmod_Minimization_Converged-OPLS-2005>
0

> <r_mmod_RMS_Derivative-OPLS-2005>
4.83749198913574

$$$$
3
                    3D
 Structure written by MMmdl.
162170  0  0  1  0            999 V2000
  -30.5746  -14.6872   20.5158 C   0  0  0  0  0  0
  -30.4500  -12.4264   19.4554 C   0  0  0  0  0  0
  -29.5137  -12.5214   18.2278 C   0  0  0  0  0  0
  -28.0361  -12.3474   18.6370 C   0  0  0  0  0  0
  -27.6534  -13.2132   19.8661 C   0  0  2  0  0  0
  -28.6975  -13.0570   20.9947 C   0  0  0  0  0  0
  -25.2510  -13.8100   20.5557 C   0  0  0  0  0  0
  -24.1809  -13.0393   20.9174 C   0  0  0  0  0  0
  -24.6395  -11.6874   20.8758 C   0  0  0  0  0  0
  -23.9064  -10.4268   21.0422 C   0  0  0  0  0  0
  -24.3614   -9.4184   21.9198 C   0  0  0  0  0  0
  -23.6283   -8.2226   22.0761 C   0  0  0  0  0  0
  -22.4268   -8.0272   21.3546 C   0  0  0  0  0  0
  -21.9907   -9.0247   20.4650 C   0  0  0  0  0  0
  -22.7240  -10.2121   20.3064 C   0  0  0  0  0  0
  -21.6848   -6.0730   22.5280 C   0  0  0  0  0  0
  -21.4010   -6.5635   23.8213 C   0  0  0  0  0  0
  -21.3656   -5.6789   24.9174 C   0  0  0  0  0  0
  -21.6045   -4.3052   24.7227 C   0  0  0  0  0  0
  -21.8819   -3.8143   23.4348 C   0  0  0  0  0  0
  -21.9189   -4.6959   22.3402 C   0  0  0  0  0  0
  -22.7837  -13.5204   21.1842 C   0  0  0  0  0  0
  -22.1660   -4.2146   21.0981 F   0  0  0  0  0  0
  -21.5629   -3.4537   25.7739 F   0  0  0  0  0  0
  -30.0081  -13.4365   20.4403 N   0  0  0  0  0  0
  -26.2980  -12.9306   20.3304 N   0  0  0  0  0  0
  -25.9331  -11.6472   20.5792 N   0  0  0  0  0  0
  -22.0479  -12.8212   22.0412 N   0  0  0  0  0  0
  -25.4113  -15.1779   20.3720 N   0  0  0  0  0  0
  -31.7239  -14.8899   20.1090 O   0  0  0  0  0  0
  -21.6629   -6.8872   21.4241 O   0  0  0  0  0  0
  -22.3527  -14.5514   20.6691 O   0  0  0  0  0  0
  -24.6257  -31.8584   23.1984 C   0  0  0  0  0  0
  -25.9100  -32.4768   23.8328 C   0  0  1  0  0  0
  -27.2380  -27.3065   20.1370 C   0  0  0  0  0  0
  -25.5917  -33.8567   24.2264 N   0  0  0  0  0  0
  -23.4209  -30.4756   21.5419 C   0  0  2  0  0  0
  -24.8700  -28.9135   20.1249 C   0  0  0  0  0  0
  -22.7472  -29.4604   22.4949 C   0  0  0  0  0  0
  -18.0284  -28.1373   22.8478 C   0  0  0  0  0  0
  -24.1491  -36.7287   23.2643 C   0  0  0  0  0  0
  -25.9598  -30.7854   21.3685 C   0  0  0  0  0  0
  -26.0369  -29.4056   20.7224 C   0  0  0  0  0  0
  -27.2248  -28.6169   20.7090 C   0  0  0  0  0  0
  -26.0472  -26.8534   19.5340 C   0  0  0  0  0  0
  -24.8766  -27.6422   19.5229 C   0  0  0  0  0  0
  -23.6386  -29.7976   20.1624 C   0  0  0  0  0  0
  -25.4114  -36.3077   24.0335 C   0  0  1  0  0  0
  -20.5882  -28.3675   23.1290 C   0  0  2  0  0  0
  -20.6772  -26.9401   22.5410 C   0  0  0  0  0  0
  -19.5753  -26.6378   21.5207 C   0  0  0  0  0  0
  -18.1930  -26.7917   22.1616 C   0  0  0  0  0  0
  -19.1535  -28.8843   23.2876 C   0  0  0  0  0  0
  -18.9462  -30.1444   23.8893 C   0  0  0  0  0  0
  -17.6464  -30.6580   24.0554 C   0  0  0  0  0  0
  -25.9053  -34.9447   23.5103 C   0  0  0  0  0  0
  -16.5355  -29.9074   23.6328 C   0  0  0  0  0  0
  -16.7272  -28.6491   23.0347 C   0  0  0  0  0  0
  -26.4486  -31.6578   25.0698 C   0  0  0  0  0  0
  -25.3722  -31.3715   26.1429 C   0  0  0  0  0  0
  -27.0335  -30.3010   24.6136 C   0  0  0  0  0  0
  -27.6047  -32.4314   25.7469 C   0  0  0  0  0  0
  -27.5581  -37.1794   24.8466 C   0  0  0  0  0  0
  -21.4187  -29.3028   22.3692 N   0  0  0  0  0  0
  -26.4290  -37.3771   23.9414 N   0  0  0  0  0  0
  -24.6874  -31.0575   22.0938 N   0  0  0  0  0  0
  -23.4194  -28.8161   23.3040 O   0  0  0  0  0  0
  -28.4012  -26.5308   20.0505 O   0  0  0  0  0  0
  -26.5622  -34.8915   22.4670 O   0  0  0  0  0  0
  -23.5418  -32.1388   23.7309 O   0  0  0  0  0  0
  -30.5949  -18.0083   20.2321 C   0  0  0  0  0  0
  -30.4592  -19.4397   20.2117 C   0  0  0  0  0  0
  -28.3758  -19.2582   21.4163 C   0  0  0  0  0  0
  -29.3474  -20.1172   20.8126 C   0  0  0  0  0  0
  -28.5579  -17.8307   21.4991 C   0  0  0  0  0  0
  -29.6630  -17.1582   20.8861 C   0  0  0  0  0  0
  -31.5635  -20.2428   19.5450 C   0  0  0  0  0  0
  -27.1222  -19.8867   22.0288 C   0  0  0  0  0  0
  -27.5487  -17.0217   22.3153 C   0  0  0  0  0  0
  -29.2679  -21.7096   20.9844 C   0  0  0  0  0  0
  -27.9887  -23.8512   19.9858 C   0  0  0  0  0  0
  -28.5421  -25.1851   20.6678 C   0  0  0  0  0  0
  -29.7291  -15.6833   20.9507 N   0  0  0  0  0  0
  -28.8691  -22.5993   19.8235 N   0  3  0  0  0  0
  -31.4871  -12.5792   19.1518 H   0  0  0  0  0  0
  -30.4111  -11.4278   19.8937 H   0  0  0  0  0  0
  -29.7870  -11.7700   17.4858 H   0  0  0  0  0  0
  -29.6452  -13.4901   17.7431 H   0  0  0  0  0  0
  -27.8781  -11.2929   18.8661 H   0  0  0  0  0  0
  -27.3816  -12.5754   17.7950 H   0  0  0  0  0  0
  -27.6721  -14.2506   19.5314 H   0  0  0  0  0  0
  -28.7243  -12.0248   21.3471 H   0  0  0  0  0  0
  -28.4294  -13.6539   21.8670 H   0  0  0  0  0  0
  -25.2760   -9.5655   22.4773 H   0  0  0  0  0  0
  -23.9988   -7.4613   22.7479 H   0  0  0  0  0  0
  -21.0840   -8.8767   19.8955 H   0  0  0  0  0  0
  -22.3706  -10.9661   19.6171 H   0  0  0  0  0  0
  -21.2001   -7.6145   23.9714 H   0  0  0  0  0  0
  -21.1480   -6.0521   25.9077 H   0  0  0  0  0  0
  -22.0601   -2.7607   23.2849 H   0  0  0  0  0  0
  -22.4087  -11.9871   22.4803 H   0  0  0  0  0  0
  -21.1103  -13.1251   22.2622 H   0  0  0  0  0  0
  -24.6283  -15.8178   20.4464 H   0  0  0  0  0  0
  -26.2401  -15.6096   19.9844 H   0  0  0  0  0  0
  -26.7163  -32.5446   23.1075 H   0  0  0  0  0  0
  -25.0066  -33.9708   25.0409 H   0  0  0  0  0  0
  -22.7145  -31.2947   21.3913 H   0  0  0  0  0  0
  -23.3755  -35.9616   23.3301 H   0  0  0  0  0  0
  -24.3585  -36.8908   22.2057 H   0  0  0  0  0  0
  -23.7239  -37.6486   23.6665 H   0  0  0  0  0  0
  -26.0862  -31.5430   20.5943 H   0  0  0  0  0  0
  -26.8421  -30.8429   21.9942 H   0  0  0  0  0  0
  -28.1316  -29.0059   21.1500 H   0  0  0  0  0  0
  -26.0226  -25.8868   19.0519 H   0  0  0  0  0  0
  -23.9826  -27.2588   19.0507 H   0  0  0  0  0  0
  -23.7608  -30.5678   19.4003 H   0  0  0  0  0  0
  -22.7587  -29.2260   19.8615 H   0  0  0  0  0  0
  -25.1291  -36.1929   25.0827 H   0  0  0  0  0  0
  -20.9961  -28.3240   24.1416 H   0  0  0  0  0  0
  -20.5667  -26.2280   23.3605 H   0  0  0  0  0  0
  -21.6640  -26.7428   22.1210 H   0  0  0  0  0  0
  -19.6920  -25.6290   21.1233 H   0  0  0  0  0  0
  -19.6697  -27.3186   20.6735 H   0  0  0  0  0  0
  -17.4201  -26.6663   21.4017 H   0  0  0  0  0  0
  -18.0330  -26.0054   22.9010 H   0  0  0  0  0  0
  -19.7940  -30.7251   24.2264 H   0  0  0  0  0  0
  -17.5021  -31.6262   24.5147 H   0  0  0  0  0  0
  -15.5352  -30.2973   23.7656 H   0  0  0  0  0  0
  -15.8671  -28.0809   22.7067 H   0  0  0  0  0  0
  -24.5899  -30.7063   25.7757 H   0  0  0  0  0  0
  -24.8910  -32.2881   26.4855 H   0  0  0  0  0  0
  -25.8047  -30.8895   27.0207 H   0  0  0  0  0  0
  -26.2900  -29.6756   24.1179 H   0  0  0  0  0  0
  -27.4074  -29.7266   25.4622 H   0  0  0  0  0  0
  -27.8750  -30.4314   23.9326 H   0  0  0  0  0  0
  -27.2661  -33.3618   26.2042 H   0  0  0  0  0  0
  -28.3858  -32.6869   25.0297 H   0  0  0  0  0  0
  -28.0714  -31.8446   26.5390 H   0  0  0  0  0  0
  -28.2588  -38.0099   24.7517 H   0  0  0  0  0  0
  -28.1087  -36.2630   24.6287 H   0  0  0  0  0  0
  -27.2303  -37.1432   25.8869 H   0  0  0  0  0  0
  -20.9369  -29.8745   21.6894 H   0  0  0  0  0  0
  -26.0176  -38.2849   24.1412 H   0  0  0  0  0  0
  -31.4521  -17.5565   19.7523 H   0  0  0  0  0  0
  -32.2564  -19.5973   19.0040 H   0  0  0  0  0  0
  -32.1401  -20.7949   20.2879 H   0  0  0  0  0  0
  -31.1545  -20.9497   18.8239 H   0  0  0  0  0  0
  -27.3071  -20.1848   23.0611 H   0  0  0  0  0  0
  -26.2631  -19.2183   22.0201 H   0  0  0  0  0  0
  -26.7942  -20.7620   21.4687 H   0  0  0  0  0  0
  -26.5829  -17.0049   21.8159 H   0  0  0  0  0  0
  -27.4077  -17.4792   23.2947 H   0  0  0  0  0  0
  -27.8385  -15.9918   22.5109 H   0  0  0  0  0  0
  -30.2518  -22.0464   21.3119 H   0  0  0  0  0  0
  -28.6330  -21.9598   21.8325 H   0  0  0  0  0  0
  -27.6964  -24.1244   18.9720 H   0  0  0  0  0  0
  -27.0600  -23.5628   20.4782 H   0  0  0  0  0  0
  -29.6170  -25.0558   20.7927 H   0  0  0  0  0  0
  -28.1576  -25.2420   21.6867 H   0  0  0  0  0  0
  -28.8834  -15.2785   21.3197 H   0  0  0  0  0  0
  -28.3628  -21.9901   19.2013 H   0  0  0  0  0  0
  -29.7097  -22.8559   19.3304 H   0  0  0  0  0  0
  1 25  1  0  0  0
  1 30  2  0  0  0
  1 83  1  0  0  0
  2  3  1  0  0  0
  2 25  1  0  0  0
  2 85  1  0  0  0
  2 86  1  0  0  0
  3  4  1  0  0  0
  3 87  1  0  0  0
  3 88  1  0  0  0
  4  5  1  0  0  0
  4 89  1  0  0  0
  4 90  1  0  0  0
  5  6  1  0  0  0
  5 26  1  0  0  0
  5 91  1  0  0  0
  6 25  1  0  0  0
  6 92  1  0  0  0
  6 93  1  0  0  0
  7  8  2  0  0  0
  7 26  1  0  0  0
  7 29  1  0  0  0
  8  9  1  0  0  0
  8 22  1  0  0  0
  9 10  1  0  0  0
  9 27  2  0  0  0
 10 11  2  0  0  0
 10 15  1  0  0  0
 11 12  1  0  0  0
 11 94  1  0  0  0
 12 13  2  0  0  0
 12 95  1  0  0  0
 13 14  1  0  0  0
 13 31  1  0  0  0
 14 15  2  0  0  0
 14 96  1  0  0  0
 15 97  1  0  0  0
 16 17  2  0  0  0
 16 21  1  0  0  0
 16 31  1  0  0  0
 17 18  1  0  0  0
 17 98  1  0  0  0
 18 19  2  0  0  0
 18 99  1  0  0  0
 19 20  1  0  0  0
 19 24  1  0  0  0
 20 21  2  0  0  0
 20100  1  0  0  0
 21 23  1  0  0  0
 22 28  1  0  0  0
 22 32  2  0  0  0
 26 27  1  0  0  0
 28101  1  0  0  0
 28102  1  0  0  0
 29103  1  0  0  0
 29104  1  0  0  0
 33 34  1  0  0  0
 33 66  1  0  0  0
 33 70  2  0  0  0
 34 36  1  0  0  0
 34 59  1  0  0  0
 34105  1  0  0  0
 35 44  2  0  0  0
 35 45  1  0  0  0
 35 68  1  0  0  0
 36 56  1  0  0  0
 36106  1  0  0  0
 37 39  1  0  0  0
 37 47  1  0  0  0
 37 66  1  0  0  0
 37107  1  0  0  0
 38 43  2  0  0  0
 38 46  1  0  0  0
 38 47  1  0  0  0
 39 64  1  0  0  0
 39 67  2  0  0  0
 40 52  1  0  0  0
 40 53  2  0  0  0
 40 58  1  0  0  0
 41108  1  0  0  0
 41109  1  0  0  0
 41110  1  0  0  0
 41 48  1  0  0  0
 42 43  1  0  0  0
 42 66  1  0  0  0
 42111  1  0  0  0
 42112  1  0  0  0
 43 44  1  0  0  0
 44113  1  0  0  0
 45 46  2  0  0  0
 45114  1  0  0  0
 46115  1  0  0  0
 47116  1  0  0  0
 47117  1  0  0  0
 48 56  1  0  0  0
 48 65  1  0  0  0
 48118  1  0  0  0
 49 50  1  0  0  0
 49 53  1  0  0  0
 49 64  1  0  0  0
 49119  1  0  0  0
 50 51  1  0  0  0
 50120  1  0  0  0
 50121  1  0  0  0
 51 52  1  0  0  0
 51122  1  0  0  0
 51123  1  0  0  0
 52124  1  0  0  0
 52125  1  0  0  0
 53 54  1  0  0  0
 54 55  2  0  0  0
 54126  1  0  0  0
 55 57  1  0  0  0
 55127  1  0  0  0
 56 69  2  0  0  0
 57 58  2  0  0  0
 57128  1  0  0  0
 58129  1  0  0  0
 59 60  1  0  0  0
 59 61  1  0  0  0
 59 62  1  0  0  0
 60130  1  0  0  0
 60131  1  0  0  0
 60132  1  0  0  0
 61133  1  0  0  0
 61134  1  0  0  0
 61135  1  0  0  0
 62136  1  0  0  0
 62137  1  0  0  0
 62138  1  0  0  0
 63 65  1  0  0  0
 63139  1  0  0  0
 63140  1  0  0  0
 63141  1  0  0  0
 64142  1  0  0  0
 65143  1  0  0  0
 68 82  1  0  0  0
 71 72  2  0  0  0
 71 76  1  0  0  0
 71144  1  0  0  0
 72 74  1  0  0  0
 72 77  1  0  0  0
 73 74  2  0  0  0
 73 75  1  0  0  0
 73 78  1  0  0  0
 74 80  1  0  0  0
 75 76  2  0  0  0
 75 79  1  0  0  0
 76 83  1  0  0  0
 77145  1  0  0  0
 77146  1  0  0  0
 77147  1  0  0  0
 78148  1  0  0  0
 78149  1  0  0  0
 78150  1  0  0  0
 79151  1  0  0  0
 79152  1  0  0  0
 79153  1  0  0  0
 80 84  1  0  0  0
 80154  1  0  0  0
 80155  1  0  0  0
 81 82  1  0  0  0
 81 84  1  0  0  0
 81156  1  0  0  0
 81157  1  0  0  0
 82158  1  0  0  0
 82159  1  0  0  0
 83160  1  0  0  0
 84161  1  0  0  0
 84162  1  0  0  0
M  CHG  1  84   1
M  ISO  4   1 100  68 101  82 101  83 100
M  END
> <chiral flag>
0

> <version>
0

> <s_m_source_file>
/data/baiqing/PycharmProjects/Reinvent-master-3.2/result/LINK_invent/BTK/process_docking_weight1_custom_product_contain_oxygen_bond_distance_aromatic_linkinvent_7_9_3/rearranged_h_0042.sdf

> <i_m_source_file_index>
4

> <r_mmod_Potential_Energy-OPLS-2005>
-28.7761363983154

> <r_mmod_Stretch_Energy-OPLS-2005>
99.2483978271484

> <r_mmod_Bend_Energy-OPLS-2005>
187.980224609375

> <r_mmod_Torsional_Energy-OPLS-2005>
240.333587646484

> <r_mmod_Improper_Torsional_Energy-OPLS-2005>
4.75300598144531

> <r_mmod_Van_der_Waal_Energy-OPLS-2005>
142.026794433594

> <r_mmod_Electrostatic_Energy-OPLS-2005>
-308.031127929688

> <r_mmod_Solvation_Energy-OPLS-2005>
-449.472808837891

> <b_mmod_Minimization_Converged-OPLS-2005>
0

> <r_mmod_RMS_Derivative-OPLS-2005>
0.707411468029022

$$$$
4
                    3D
 Structure written by MMmdl.
155163  0  0  1  0            999 V2000
  -29.9322  -14.5973   20.9464 C   0  0  0  0  0  0
  -30.4467  -12.5425   19.4910 C   0  0  0  0  0  0
  -29.6317  -12.6915   18.1744 C   0  0  0  0  0  0
  -28.0994  -12.6513   18.3695 C   0  0  0  0  0  0
  -27.6260  -13.5073   19.6505 C   0  0  2  0  0  0
  -28.4754  -12.7596   20.7556 C   0  0  0  0  0  0
  -25.0255  -14.9033   21.1897 C   0  0  0  0  0  0
  -24.4090  -14.4086   21.2887 C   0  0  0  0  0  0
  -25.3495  -12.5572   20.4313 C   0  0  0  0  0  0
  -24.5848  -10.8130   20.5282 C   0  0  0  0  0  0
  -24.7671   -9.7793   21.5936 C   0  0  0  0  0  0
  -23.9391   -8.6028   21.9400 C   0  0  0  0  0  0
  -22.7160   -8.2775   21.2856 C   0  0  0  0  0  0
  -22.4292   -9.2380   20.2842 C   0  0  0  0  0  0
  -23.3052  -10.3582   19.9433 C   0  0  0  0  0  0
  -21.8330   -6.2264   22.5064 C   0  0  0  0  0  0
  -21.5049   -6.6572   23.8134 C   0  0  0  0  0  0
  -21.3967   -5.7392   24.8861 C   0  0  0  0  0  0
  -21.6045   -4.3637   24.6747 C   0  0  0  0  0  0
  -21.8777   -3.9057   23.3755 C   0  0  0  0  0  0
  -21.9711   -4.8197   22.3009 C   0  0  0  0  0  0
  -22.7717  -14.7258   21.7467 C   0  0  0  0  0  0
  -22.1901   -4.3204   21.0603 F   0  0  0  0  0  0
  -21.5383   -3.4897   25.7114 F   0  0  0  0  0  0
  -29.7645  -13.2997   20.5679 N   0  0  0  0  0  0
  -26.1192  -13.7215   20.1165 N   0  0  0  0  0  0
  -25.9518  -12.5783   19.5352 N   0  0  0  0  0  0
  -21.9508  -13.8534   22.4026 N   0  0  0  0  0  0
  -24.9168  -16.1228   21.9521 N   0  0  0  0  0  0
  -31.0439  -15.0864   20.6110 O   0  0  0  0  0  0
  -21.8851   -7.1284   21.4323 O   0  0  0  0  0  0
  -22.1438  -15.4797   21.0263 O   0  0  0  0  0  0
  -24.7810  -31.6488   23.0678 C   0  0  0  0  0  0
  -25.9887  -32.3716   23.7569 C   0  0  1  0  0  0
  -26.5889  -25.3724   20.2361 C   0  0  0  0  0  0
  -25.6025  -33.7647   24.1286 N   0  0  0  0  0  0
  -23.6092  -30.2437   21.4588 C   0  0  2  0  0  0
  -24.9247  -28.3310   20.0968 C   0  0  0  0  0  0
  -22.7960  -29.3595   22.4457 C   0  0  0  0  0  0
  -18.0328  -28.1447   22.8405 C   0  0  0  0  0  0
  -24.1486  -36.6838   23.2689 C   0  0  0  0  0  0
  -26.1748  -29.8855   21.5282 C   0  0  0  0  0  0
  -26.0836  -28.3335   20.8635 C   0  0  0  0  0  0
  -26.8769  -26.9156   20.8832 C   0  0  0  0  0  0
  -25.5785  -25.9281   19.3512 C   0  0  0  0  0  0
  -24.7980  -27.1699   19.3064 C   0  0  0  0  0  0
  -23.8720  -29.4924   20.1063 C   0  0  0  0  0  0
  -25.4177  -36.2479   24.0203 C   0  0  1  0  0  0
  -20.5974  -28.3788   23.1008 C   0  0  2  0  0  0
  -20.6726  -26.9374   22.5438 C   0  0  0  0  0  0
  -19.5743  -26.6306   21.5218 C   0  0  0  0  0  0
  -18.1920  -26.7957   22.1587 C   0  0  0  0  0  0
  -19.1614  -28.8963   23.2671 C   0  0  0  0  0  0
  -18.9537  -30.1532   23.8746 C   0  0  0  0  0  0
  -17.6529  -30.6618   24.0524 C   0  0  0  0  0  0
  -25.9226  -34.8894   23.4676 C   0  0  0  0  0  0
  -16.5403  -29.9099   23.6370 C   0  0  0  0  0  0
  -16.7313  -28.6525   23.0378 C   0  0  0  0  0  0
  -26.4764  -31.6345   25.0671 C   0  0  0  0  0  0
  -25.3583  -31.3972   26.1117 C   0  0  0  0  0  0
  -27.0899  -30.2624   24.7383 C   0  0  0  0  0  0
  -27.5999  -32.4520   25.7488 C   0  0  0  0  0  0
  -27.5512  -37.1566   24.8468 C   0  0  0  0  0  0
  -21.4556  -29.2847   22.3214 N   0  0  0  0  0  0
  -26.4197  -37.3373   23.9423 N   0  0  0  0  0  0
  -24.9089  -30.6654   22.0648 N   0  0  0  0  0  0
  -23.3985  -28.7348   23.3213 O   0  0  0  0  0  0
  -27.0506  -23.5366   20.1542 O   0  0  0  0  0  0
  -26.6050  -34.8705   22.4421 O   0  0  0  0  0  0
  -23.6679  -32.0270   23.4923 O   0  0  0  0  0  0
  -24.0746  -12.5102   22.1699 C   0  0  0  0  0  0
  -23.3677  -13.3249   19.7817 C   0  0  0  0  0  0
  -26.0883  -13.4648   22.5996 C   0  0  0  0  0  0
  -24.5452  -15.1283   19.0121 C   0  0  0  0  0  0
  -26.2460  -16.3472   19.9389 C   0  0  0  0  0  0
  -27.1910  -15.1635   21.5719 C   0  0  0  0  0  0
  -22.0325  -13.0169   19.1114 C   0  0  0  0  0  0
  -26.7807  -12.8804   23.8114 C   0  0  0  0  0  0
  -23.9583  -15.7546   17.7683 C   0  0  0  0  0  0
  -26.6531  -18.8338   19.8657 C   0  0  0  0  0  0
  -28.7849  -15.2733   21.5915 N   0  0  0  0  0  0
  -26.3415  -21.0606   20.1808 N   0  0  0  0  0  0
  -31.4661  -12.9011   19.3445 H   0  0  0  0  0  0
  -30.5347  -11.4925   19.7746 H   0  0  0  0  0  0
  -29.9453  -11.9425   17.4465 H   0  0  0  0  0  0
  -29.8849  -13.6552   17.7305 H   0  0  0  0  0  0
  -27.8364  -11.5928   18.4323 H   0  0  0  0  0  0
  -27.6136  -13.0271   17.4685 H   0  0  0  0  0  0
  -27.9615  -14.4936   19.3285 H   0  0  0  0  0  0
  -28.4450  -11.6756   20.6220 H   0  0  0  0  0  0
  -28.2388  -12.8616   21.7970 H   0  0  0  0  0  0
  -25.6241   -9.9380   22.2318 H   0  0  0  0  0  0
  -24.2809   -7.9586   22.7367 H   0  0  0  0  0  0
  -21.5473   -9.0857   19.6791 H   0  0  0  0  0  0
  -22.9993  -10.8723   19.0579 H   0  0  0  0  0  0
  -21.3447   -7.7092   23.9982 H   0  0  0  0  0  0
  -21.1655   -6.0984   25.8791 H   0  0  0  0  0  0
  -22.0122   -2.8492   23.1960 H   0  0  0  0  0  0
  -22.3430  -13.0528   22.8716 H   0  0  0  0  0  0
  -20.9600  -14.0296   22.4486 H   0  0  0  0  0  0
  -24.0333  -16.5235   22.2395 H   0  0  0  0  0  0
  -25.6371  -16.8216   21.8295 H   0  0  0  0  0  0
  -26.8108  -32.3990   23.0401 H   0  0  0  0  0  0
  -24.9888  -33.8512   24.9252 H   0  0  0  0  0  0
  -23.0080  -31.1236   21.2234 H   0  0  0  0  0  0
  -23.3797  -35.9111   23.3196 H   0  0  0  0  0  0
  -24.3505  -36.8733   22.2135 H   0  0  0  0  0  0
  -23.7200  -37.5905   23.6970 H   0  0  0  0  0  0
  -26.5798  -30.5158   20.7362 H   0  0  0  0  0  0
  -26.9699  -29.8576   22.2550 H   0  0  0  0  0  0
  -27.7303  -26.9299   21.5469 H   0  0  0  0  0  0
  -25.2098  -25.1927   18.6504 H   0  0  0  0  0  0
  -23.9778  -27.1661   18.6023 H   0  0  0  0  0  0
  -24.2020  -30.2188   19.3628 H   0  0  0  0  0  0
  -22.9264  -29.1033   19.7235 H   0  0  0  0  0  0
  -25.1444  -36.1078   25.0683 H   0  0  0  0  0  0
  -21.0025  -28.3487   24.1150 H   0  0  0  0  0  0
  -20.5466  -26.2446   23.3775 H   0  0  0  0  0  0
  -21.6591  -26.7160   22.1342 H   0  0  0  0  0  0
  -19.6882  -25.6177   21.1346 H   0  0  0  0  0  0
  -19.6745  -27.3036   20.6692 H   0  0  0  0  0  0
  -17.4202  -26.6711   21.3973 H   0  0  0  0  0  0
  -18.0265  -26.0128   22.9004 H   0  0  0  0  0  0
  -19.8025  -30.7359   24.2064 H   0  0  0  0  0  0
  -17.5093  -31.6288   24.5154 H   0  0  0  0  0  0
  -15.5406  -30.2972   23.7781 H   0  0  0  0  0  0
  -15.8700  -28.0803   22.7196 H   0  0  0  0  0  0
  -24.5819  -30.7263   25.7419 H   0  0  0  0  0  0
  -24.8732  -32.3294   26.4021 H   0  0  0  0  0  0
  -25.7544  -30.9473   27.0230 H   0  0  0  0  0  0
  -26.3599  -29.5679   24.3227 H   0  0  0  0  0  0
  -27.4684  -29.7814   25.6414 H   0  0  0  0  0  0
  -27.9460  -30.3535   24.0697 H   0  0  0  0  0  0
  -27.2386  -33.4019   26.1442 H   0  0  0  0  0  0
  -28.4084  -32.6763   25.0517 H   0  0  0  0  0  0
  -28.0379  -31.9127   26.5900 H   0  0  0  0  0  0
  -28.2423  -37.9952   24.7523 H   0  0  0  0  0  0
  -28.1108  -36.2458   24.6283 H   0  0  0  0  0  0
  -27.2234  -37.1161   25.8869 H   0  0  0  0  0  0
  -21.0054  -29.8418   21.6085 H   0  0  0  0  0  0
  -25.9921  -38.2363   24.1470 H   0  0  0  0  0  0
  -23.5816  -11.7588   22.7753 H   0  0  0  0  0  0
  -21.4402  -12.3293   19.7147 H   0  0  0  0  0  0
  -22.1753  -12.6087   18.1112 H   0  0  0  0  0  0
  -21.4502  -13.9320   19.0039 H   0  0  0  0  0  0
  -26.1248  -12.9306   24.6793 H   0  0  0  0  0  0
  -27.6916  -13.4359   24.0378 H   0  0  0  0  0  0
  -27.0341  -11.8353   23.6328 H   0  0  0  0  0  0
  -24.6347  -15.5981   16.9270 H   0  0  0  0  0  0
  -23.8233  -16.8273   17.9043 H   0  0  0  0  0  0
  -22.9943  -15.3082   17.5223 H   0  0  0  0  0  0
  -26.7987  -18.8900   18.7861 H   0  0  0  0  0  0
  -27.6681  -18.7880   20.2619 H   0  0  0  0  0  0
  -29.0842  -16.1978   21.8670 H   0  0  0  0  0  0
  -25.4319  -21.0983   20.6337 H   0  0  0  0  0  0
  1 25  1  0  0  0
  1 30  2  0  0  0
  1 81  1  0  0  0
  2  3  1  0  0  0
  2 25  1  0  0  0
  2 83  1  0  0  0
  2 84  1  0  0  0
  3  4  1  0  0  0
  3 85  1  0  0  0
  3 86  1  0  0  0
  4  5  1  0  0  0
  4 87  1  0  0  0
  4 88  1  0  0  0
  5  6  1  0  0  0
  5 26  1  0  0  0
  5 89  1  0  0  0
  6 25  1  0  0  0
  6 90  1  0  0  0
  6 91  1  0  0  0
  7  8  2  0  0  0
  7 26  1  0  0  0
  7 29  1  0  0  0
  8  9  1  0  0  0
  8 22  1  0  0  0
  9 10  1  0  0  0
  9 27  2  0  0  0
 10 11  2  0  0  0
 10 15  1  0  0  0
 11 12  1  0  0  0
 11 92  1  0  0  0
 12 13  2  0  0  0
 12 93  1  0  0  0
 13 14  1  0  0  0
 13 31  1  0  0  0
 14 15  2  0  0  0
 14 94  1  0  0  0
 15 95  1  0  0  0
 16 17  2  0  0  0
 16 21  1  0  0  0
 16 31  1  0  0  0
 17 18  1  0  0  0
 17 96  1  0  0  0
 18 19  2  0  0  0
 18 97  1  0  0  0
 19 20  1  0  0  0
 19 24  1  0  0  0
 20 21  2  0  0  0
 20 98  1  0  0  0
 21 23  1  0  0  0
 22 28  1  0  0  0
 22 32  2  0  0  0
 26 27  1  0  0  0
 28 99  1  0  0  0
 28100  1  0  0  0
 29101  1  0  0  0
 29102  1  0  0  0
 33 34  1  0  0  0
 33 66  1  0  0  0
 33 70  2  0  0  0
 34 36  1  0  0  0
 34 59  1  0  0  0
 34103  1  0  0  0
 35 44  2  0  0  0
 35 45  1  0  0  0
 35 68  1  0  0  0
 36 56  1  0  0  0
 36104  1  0  0  0
 37 39  1  0  0  0
 37 47  1  0  0  0
 37 66  1  0  0  0
 37105  1  0  0  0
 38 43  2  0  0  0
 38 46  1  0  0  0
 38 47  1  0  0  0
 39 64  1  0  0  0
 39 67  2  0  0  0
 40 52  1  0  0  0
 40 53  2  0  0  0
 40 58  1  0  0  0
 41106  1  0  0  0
 41107  1  0  0  0
 41108  1  0  0  0
 41 48  1  0  0  0
 42 43  1  0  0  0
 42 66  1  0  0  0
 42109  1  0  0  0
 42110  1  0  0  0
 43 44  1  0  0  0
 44111  1  0  0  0
 45 46  2  0  0  0
 45112  1  0  0  0
 46113  1  0  0  0
 47114  1  0  0  0
 47115  1  0  0  0
 48 56  1  0  0  0
 48 65  1  0  0  0
 48116  1  0  0  0
 49 50  1  0  0  0
 49 53  1  0  0  0
 49 64  1  0  0  0
 49117  1  0  0  0
 50 51  1  0  0  0
 50118  1  0  0  0
 50119  1  0  0  0
 51 52  1  0  0  0
 51120  1  0  0  0
 51121  1  0  0  0
 52122  1  0  0  0
 52123  1  0  0  0
 53 54  1  0  0  0
 54 55  2  0  0  0
 54124  1  0  0  0
 55 57  1  0  0  0
 55125  1  0  0  0
 56 69  2  0  0  0
 57 58  2  0  0  0
 57126  1  0  0  0
 58127  1  0  0  0
 59 60  1  0  0  0
 59 61  1  0  0  0
 59 62  1  0  0  0
 60128  1  0  0  0
 60129  1  0  0  0
 60130  1  0  0  0
 61131  1  0  0  0
 61132  1  0  0  0
 61133  1  0  0  0
 62134  1  0  0  0
 62135  1  0  0  0
 62136  1  0  0  0
 63 65  1  0  0  0
 63137  1  0  0  0
 63138  1  0  0  0
 63139  1  0  0  0
 64140  1  0  0  0
 65141  1  0  0  0
 68 82  1  0  0  0
 71 72  2  0  0  0
 71 73  1  0  0  0
 71142  1  0  0  0
 72 74  1  0  0  0
 72 77  1  0  0  0
 73 76  2  0  0  0
 73 78  1  0  0  0
 74 75  2  0  0  0
 74 79  1  0  0  0
 75 76  1  0  0  0
 75 80  1  0  0  0
 76 81  1  0  0  0
 77143  1  0  0  0
 77144  1  0  0  0
 77145  1  0  0  0
 78146  1  0  0  0
 78147  1  0  0  0
 78148  1  0  0  0
 79149  1  0  0  0
 79150  1  0  0  0
 79151  1  0  0  0
 80 82  1  0  0  0
 80152  1  0  0  0
 80153  1  0  0  0
 81154  1  0  0  0
 82155  1  0  0  0
M  ISO  4   1 100  68 101  81 100  82 101
M  END
> <chiral flag>
0

> <version>
0

> <s_m_source_file>
/data/baiqing/PycharmProjects/Reinvent-master-3.2/result/LINK_invent/BTK/process_docking_weight1_custom_product_contain_oxygen_bond_distance_aromatic_linkinvent_7_9_3/rearranged_h_0042.sdf

> <i_m_source_file_index>
5

> <r_mmod_Potential_Energy-OPLS-2005>
29692.912109375

> <r_mmod_Stretch_Energy-OPLS-2005>
18539.638671875

> <r_mmod_Bend_Energy-OPLS-2005>
1925.36584472656

> <r_mmod_Torsional_Energy-OPLS-2005>
491.037994384766

> <r_mmod_Improper_Torsional_Energy-OPLS-2005>
58.5986289978027

> <r_mmod_Van_der_Waal_Energy-OPLS-2005>
4613.7021484375

> <r_mmod_Electrostatic_Energy-OPLS-2005>
-376.154205322266

> <r_mmod_Solvation_Energy-OPLS-2005>
-226.082733154297

> <b_mmod_Minimization_Converged-OPLS-2005>
0

> <r_mmod_RMS_Derivative-OPLS-2005>
3.08804988861084

$$$$
5
                    3D
 Structure written by MMmdl.
166175  0  0  1  0            999 V2000
  -30.5919  -14.7412   20.3800 C   0  0  0  0  0  0
  -30.4269  -12.4258   19.4741 C   0  0  0  0  0  0
  -29.5155  -12.5043   18.2316 C   0  0  0  0  0  0
  -28.0404  -12.3264   18.6419 C   0  0  0  0  0  0
  -27.6405  -13.2306   19.8380 C   0  0  2  0  0  0
  -28.6877  -13.1642   20.9732 C   0  0  0  0  0  0
  -25.2522  -13.8177   20.5596 C   0  0  0  0  0  0
  -24.1813  -13.0424   20.9107 C   0  0  0  0  0  0
  -24.6416  -11.6918   20.8696 C   0  0  0  0  0  0
  -23.9098  -10.4310   21.0408 C   0  0  0  0  0  0
  -24.3645   -9.4202   21.9181 C   0  0  0  0  0  0
  -23.6296   -8.2255   22.0764 C   0  0  0  0  0  0
  -22.4274   -8.0300   21.3556 C   0  0  0  0  0  0
  -21.9921   -9.0269   20.4647 C   0  0  0  0  0  0
  -22.7286  -10.2120   20.3043 C   0  0  0  0  0  0
  -21.6847   -6.0725   22.5276 C   0  0  0  0  0  0
  -21.4012   -6.5622   23.8205 C   0  0  0  0  0  0
  -21.3684   -5.6759   24.9156 C   0  0  0  0  0  0
  -21.6079   -4.3039   24.7207 C   0  0  0  0  0  0
  -21.8839   -3.8129   23.4316 C   0  0  0  0  0  0
  -21.9177   -4.6945   22.3373 C   0  0  0  0  0  0
  -22.7848  -13.5217   21.1808 C   0  0  0  0  0  0
  -22.1641   -4.2157   21.0946 F   0  0  0  0  0  0
  -21.5653   -3.4519   25.7700 F   0  0  0  0  0  0
  -29.9915  -13.5042   20.3922 N   0  0  0  0  0  0
  -26.2941  -12.9391   20.3174 N   0  0  0  0  0  0
  -25.9331  -11.6550   20.5695 N   0  0  0  0  0  0
  -22.0432  -12.8237   22.0359 N   0  0  0  0  0  0
  -25.4227  -15.1903   20.4106 N   0  0  0  0  0  0
  -31.7860  -14.8293   20.0716 O   0  0  0  0  0  0
  -21.6629   -6.8889   21.4250 O   0  0  0  0  0  0
  -22.3573  -14.5534   20.6639 O   0  0  0  0  0  0
  -24.6289  -31.8554   23.1918 C   0  0  0  0  0  0
  -25.9117  -32.4768   23.8263 C   0  0  1  0  0  0
  -27.2255  -27.2653   20.1250 C   0  0  0  0  0  0
  -25.5891  -33.8550   24.2206 N   0  0  0  0  0  0
  -23.4263  -30.4751   21.5353 C   0  0  2  0  0  0
  -24.8727  -28.9109   20.1174 C   0  0  0  0  0  0
  -22.7495  -29.4622   22.4889 C   0  0  0  0  0  0
  -18.0285  -28.1423   22.8486 C   0  0  0  0  0  0
  -24.1492  -36.7292   23.2639 C   0  0  0  0  0  0
  -25.9689  -30.7730   21.3656 C   0  0  0  0  0  0
  -26.0469  -29.3888   20.7166 C   0  0  0  0  0  0
  -27.2273  -28.5801   20.7027 C   0  0  0  0  0  0
  -26.0263  -26.8426   19.5157 C   0  0  0  0  0  0
  -24.8646  -27.6435   19.5102 C   0  0  0  0  0  0
  -23.6458  -29.8004   20.1553 C   0  0  0  0  0  0
  -25.4120  -36.3070   24.0316 C   0  0  1  0  0  0
  -20.5899  -28.3729   23.1276 C   0  0  2  0  0  0
  -20.6783  -26.9448   22.5426 C   0  0  0  0  0  0
  -19.5752  -26.6402   21.5236 C   0  0  0  0  0  0
  -18.1927  -26.7955   22.1641 C   0  0  0  0  0  0
  -19.1543  -28.8886   23.2887 C   0  0  0  0  0  0
  -18.9462  -30.1478   23.8916 C   0  0  0  0  0  0
  -17.6462  -30.6611   24.0577 C   0  0  0  0  0  0
  -25.9064  -34.9441   23.5087 C   0  0  0  0  0  0
  -16.5354  -29.9119   23.6332 C   0  0  0  0  0  0
  -16.7270  -28.6549   23.0326 C   0  0  0  0  0  0
  -26.4457  -31.6578   25.0647 C   0  0  0  0  0  0
  -25.3662  -31.3739   26.1361 C   0  0  0  0  0  0
  -27.0294  -30.2983   24.6136 C   0  0  0  0  0  0
  -27.6013  -32.4310   25.7436 C   0  0  0  0  0  0
  -27.5597  -37.1794   24.8455 C   0  0  0  0  0  0
  -21.4202  -29.3056   22.3641 N   0  0  0  0  0  0
  -26.4297  -37.3779   23.9415 N   0  0  0  0  0  0
  -24.6944  -31.0514   22.0895 N   0  0  0  0  0  0
  -23.4199  -28.8140   23.2978 O   0  0  0  0  0  0
  -28.3408  -26.4023   20.0882 O   0  0  0  0  0  0
  -26.5670  -34.8936   22.4679 O   0  0  0  0  0  0
  -23.5447  -32.1357   23.7236 O   0  0  0  0  0  0
  -30.5404  -18.5215   17.8982 C   0  0  0  0  0  0
  -30.5494  -17.3237   18.6398 C   0  0  0  0  0  0
  -29.2605  -18.4499   20.3628 C   0  0  0  0  0  0
  -29.8856  -19.6883   18.3495 C   0  0  0  0  0  0
  -29.2675  -19.7209   19.6327 C   0  0  0  0  0  0
  -29.8920  -17.2202   19.8858 C   0  0  0  0  0  0
  -29.2640  -24.8955   21.7386 C   0  0  0  0  0  0
  -30.5518  -24.1761   21.3071 C   0  0  0  0  0  0
  -28.4193  -23.7172   19.5898 C   0  0  0  0  0  0
  -28.2440  -24.9862   20.5894 C   0  0  2  0  0  0
  -30.3140  -22.6777   20.9988 C   0  0  2  0  0  0
  -29.8203  -20.8715   17.3869 C   0  0  0  0  0  0
  -31.6528  -22.0670   20.5312 C   0  0  0  0  0  0
  -28.5233  -21.0686   20.1040 C   0  0  0  0  0  0
  -29.8017  -15.8787   20.5338 N   0  0  0  0  0  0
  -29.2222  -22.4473   19.9960 N   0  3  1  0  0  0
  -31.4737  -12.5208   19.1779 H   0  0  0  0  0  0
  -30.3358  -11.4486   19.9506 H   0  0  0  0  0  0
  -29.7934  -11.7400   17.5077 H   0  0  0  0  0  0
  -29.6575  -13.4632   17.7313 H   0  0  0  0  0  0
  -27.9146  -11.2814   18.9214 H   0  0  0  0  0  0
  -27.3743  -12.4891   17.7929 H   0  0  0  0  0  0
  -27.6329  -14.2518   19.4542 H   0  0  0  0  0  0
  -28.7139  -12.1724   21.4245 H   0  0  0  0  0  0
  -28.4395  -13.8620   21.7759 H   0  0  0  0  0  0
  -25.2795   -9.5603   22.4766 H   0  0  0  0  0  0
  -23.9968   -7.4639   22.7497 H   0  0  0  0  0  0
  -21.0831   -8.8780   19.8982 H   0  0  0  0  0  0
  -22.3757  -10.9642   19.6120 H   0  0  0  0  0  0
  -21.2007   -7.6133   23.9713 H   0  0  0  0  0  0
  -21.1502   -6.0475   25.9065 H   0  0  0  0  0  0
  -22.0602   -2.7595   23.2767 H   0  0  0  0  0  0
  -22.3962  -11.9840   22.4705 H   0  0  0  0  0  0
  -21.1085  -13.1351   22.2604 H   0  0  0  0  0  0
  -24.6674  -15.8498   20.5581 H   0  0  0  0  0  0
  -26.2755  -15.6283   20.0882 H   0  0  0  0  0  0
  -26.7177  -32.5419   23.1008 H   0  0  0  0  0  0
  -24.9917  -33.9662   25.0262 H   0  0  0  0  0  0
  -22.7234  -31.2966   21.3842 H   0  0  0  0  0  0
  -23.3772  -35.9613   23.3259 H   0  0  0  0  0  0
  -24.3595  -36.8972   22.2070 H   0  0  0  0  0  0
  -23.7228  -37.6462   23.6700 H   0  0  0  0  0  0
  -26.0977  -31.5296   20.5894 H   0  0  0  0  0  0
  -26.8514  -30.8314   21.9909 H   0  0  0  0  0  0
  -28.1325  -28.9500   21.1609 H   0  0  0  0  0  0
  -25.9830  -25.8742   19.0364 H   0  0  0  0  0  0
  -23.9635  -27.2714   19.0400 H   0  0  0  0  0  0
  -23.7738  -30.5709   19.3939 H   0  0  0  0  0  0
  -22.7638  -29.2345   19.8503 H   0  0  0  0  0  0
  -25.1309  -36.1901   25.0805 H   0  0  0  0  0  0
  -20.9995  -28.3316   24.1392 H   0  0  0  0  0  0
  -20.5692  -26.2337   23.3625 H   0  0  0  0  0  0
  -21.6643  -26.7464   22.1207 H   0  0  0  0  0  0
  -19.6903  -25.6306   21.1263 H   0  0  0  0  0  0
  -19.6682  -27.3215   20.6761 H   0  0  0  0  0  0
  -17.4194  -26.6696   21.4047 H   0  0  0  0  0  0
  -18.0320  -26.0111   22.9046 H   0  0  0  0  0  0
  -19.7931  -30.7295   24.2290 H   0  0  0  0  0  0
  -17.5010  -31.6280   24.5189 H   0  0  0  0  0  0
  -15.5362  -30.3027   23.7627 H   0  0  0  0  0  0
  -15.8667  -28.0877   22.7008 H   0  0  0  0  0  0
  -24.5795  -30.7174   25.7628 H   0  0  0  0  0  0
  -24.8923  -32.2935   26.4806 H   0  0  0  0  0  0
  -25.7926  -30.8825   27.0120 H   0  0  0  0  0  0
  -26.2862  -29.6737   24.1178 H   0  0  0  0  0  0
  -27.3973  -29.7239   25.4648 H   0  0  0  0  0  0
  -27.8738  -30.4226   23.9361 H   0  0  0  0  0  0
  -27.2603  -33.3606   26.2015 H   0  0  0  0  0  0
  -28.3826  -32.6894   25.0266 H   0  0  0  0  0  0
  -28.0687  -31.8441   26.5360 H   0  0  0  0  0  0
  -28.2567  -38.0135   24.7566 H   0  0  0  0  0  0
  -28.1139  -36.2676   24.6192 H   0  0  0  0  0  0
  -27.2326  -37.1329   25.8856 H   0  0  0  0  0  0
  -20.9373  -29.8779   21.6857 H   0  0  0  0  0  0
  -26.0169  -38.2846   24.1442 H   0  0  0  0  0  0
  -31.0130  -18.5178   16.9274 H   0  0  0  0  0  0
  -31.0286  -16.4665   18.1899 H   0  0  0  0  0  0
  -28.7243  -18.4079   21.3018 H   0  0  0  0  0  0
  -29.5035  -25.8933   22.1123 H   0  0  0  0  0  0
  -28.8200  -24.3676   22.5841 H   0  0  0  0  0  0
  -31.3011  -24.2660   22.0961 H   0  0  0  0  0  0
  -30.9821  -24.6804   20.4408 H   0  0  0  0  0  0
  -28.9595  -24.0961   18.7202 H   0  0  0  0  0  0
  -27.4466  -23.4373   19.1858 H   0  0  0  0  0  0
  -27.2626  -24.8829   21.0556 H   0  0  0  0  0  0
  -30.0190  -22.1906   21.9309 H   0  0  0  0  0  0
  -30.2583  -20.6239   16.4197 H   0  0  0  0  0  0
  -30.3594  -21.7413   17.7607 H   0  0  0  0  0  0
  -28.7846  -21.1508   17.1860 H   0  0  0  0  0  0
  -32.0743  -22.6140   19.6852 H   0  0  0  0  0  0
  -31.5663  -21.0212   20.2426 H   0  0  0  0  0  0
  -32.3937  -22.1083   21.3325 H   0  0  0  0  0  0
  -28.1456  -20.9459   21.1204 H   0  0  0  0  0  0
  -27.6242  -21.1132   19.4863 H   0  0  0  0  0  0
  -28.9205  -15.6970   20.9936 H   0  0  0  0  0  0
  -29.7480  -22.3013   19.1491 H   0  0  0  0  0  0
  1 25  1  0  0  0
  1 30  2  0  0  0
  1 85  1  0  0  0
  2  3  1  0  0  0
  2 25  1  0  0  0
  2 87  1  0  0  0
  2 88  1  0  0  0
  3  4  1  0  0  0
  3 89  1  0  0  0
  3 90  1  0  0  0
  4  5  1  0  0  0
  4 91  1  0  0  0
  4 92  1  0  0  0
  5  6  1  0  0  0
  5 26  1  0  0  0
  5 93  1  0  0  0
  6 25  1  0  0  0
  6 94  1  0  0  0
  6 95  1  0  0  0
  7  8  2  0  0  0
  7 26  1  0  0  0
  7 29  1  0  0  0
  8  9  1  0  0  0
  8 22  1  0  0  0
  9 10  1  0  0  0
  9 27  2  0  0  0
 10 11  2  0  0  0
 10 15  1  0  0  0
 11 12  1  0  0  0
 11 96  1  0  0  0
 12 13  2  0  0  0
 12 97  1  0  0  0
 13 14  1  0  0  0
 13 31  1  0  0  0
 14 15  2  0  0  0
 14 98  1  0  0  0
 15 99  1  0  0  0
 16 17  2  0  0  0
 16 21  1  0  0  0
 16 31  1  0  0  0
 17 18  1  0  0  0
 17100  1  0  0  0
 18 19  2  0  0  0
 18101  1  0  0  0
 19 20  1  0  0  0
 19 24  1  0  0  0
 20 21  2  0  0  0
 20102  1  0  0  0
 21 23  1  0  0  0
 22 28  1  0  0  0
 22 32  2  0  0  0
 26 27  1  0  0  0
 28103  1  0  0  0
 28104  1  0  0  0
 29105  1  0  0  0
 29106  1  0  0  0
 33 34  1  0  0  0
 33 66  1  0  0  0
 33 70  2  0  0  0
 34 36  1  0  0  0
 34 59  1  0  0  0
 34107  1  0  0  0
 35 44  2  0  0  0
 35 45  1  0  0  0
 35 68  1  0  0  0
 36 56  1  0  0  0
 36108  1  0  0  0
 37 39  1  0  0  0
 37 47  1  0  0  0
 37 66  1  0  0  0
 37109  1  0  0  0
 38 43  2  0  0  0
 38 46  1  0  0  0
 38 47  1  0  0  0
 39 64  1  0  0  0
 39 67  2  0  0  0
 40 52  1  0  0  0
 40 53  2  0  0  0
 40 58  1  0  0  0
 41110  1  0  0  0
 41111  1  0  0  0
 41112  1  0  0  0
 41 48  1  0  0  0
 42 43  1  0  0  0
 42 66  1  0  0  0
 42113  1  0  0  0
 42114  1  0  0  0
 43 44  1  0  0  0
 44115  1  0  0  0
 45 46  2  0  0  0
 45116  1  0  0  0
 46117  1  0  0  0
 47118  1  0  0  0
 47119  1  0  0  0
 48 56  1  0  0  0
 48 65  1  0  0  0
 48120  1  0  0  0
 49 50  1  0  0  0
 49 53  1  0  0  0
 49 64  1  0  0  0
 49121  1  0  0  0
 50 51  1  0  0  0
 50122  1  0  0  0
 50123  1  0  0  0
 51 52  1  0  0  0
 51124  1  0  0  0
 51125  1  0  0  0
 52126  1  0  0  0
 52127  1  0  0  0
 53 54  1  0  0  0
 54 55  2  0  0  0
 54128  1  0  0  0
 55 57  1  0  0  0
 55129  1  0  0  0
 56 69  2  0  0  0
 57 58  2  0  0  0
 57130  1  0  0  0
 58131  1  0  0  0
 59 60  1  0  0  0
 59 61  1  0  0  0
 59 62  1  0  0  0
 60132  1  0  0  0
 60133  1  0  0  0
 60134  1  0  0  0
 61135  1  0  0  0
 61136  1  0  0  0
 61137  1  0  0  0
 62138  1  0  0  0
 62139  1  0  0  0
 62140  1  0  0  0
 63 65  1  0  0  0
 63141  1  0  0  0
 63142  1  0  0  0
 63143  1  0  0  0
 64144  1  0  0  0
 65145  1  0  0  0
 68 80  1  0  0  0
 71 72  2  0  0  0
 71 74  1  0  0  0
 71146  1  0  0  0
 72 76  1  0  0  0
 72147  1  0  0  0
 73 75  1  0  0  0
 73 76  2  0  0  0
 73148  1  0  0  0
 74 75  2  0  0  0
 74 82  1  0  0  0
 75 84  1  0  0  0
 76 85  1  0  0  0
 77 78  1  0  0  0
 77 80  1  0  0  0
 77149  1  0  0  0
 77150  1  0  0  0
 78 81  1  0  0  0
 78151  1  0  0  0
 78152  1  0  0  0
 79 80  1  0  0  0
 79 86  1  0  0  0
 79153  1  0  0  0
 79154  1  0  0  0
 80155  1  0  0  0
 81 83  1  0  0  0
 81 86  1  0  0  0
 81156  1  0  0  0
 82157  1  0  0  0
 82158  1  0  0  0
 82159  1  0  0  0
 83160  1  0  0  0
 83161  1  0  0  0
 83162  1  0  0  0
 84163  1  0  0  0
 84164  1  0  0  0
 84 86  1  0  0  0
 85165  1  0  0  0
 86166  1  0  0  0
M  CHG  1  86   1
M  ISO  4   1 100  68 101  80 101  85 100
M  END
> <chiral flag>
0

> <version>
0

> <s_m_source_file>
/data/baiqing/PycharmProjects/Reinvent-master-3.2/result/LINK_invent/BTK/process_docking_weight1_custom_product_contain_oxygen_bond_distance_aromatic_linkinvent_7_9_3/rearranged_h_0042.sdf

> <i_m_source_file_index>
6

> <r_mmod_Potential_Energy-OPLS-2005>
178.653289794922

> <r_mmod_Stretch_Energy-OPLS-2005>
137.35205078125

> <r_mmod_Bend_Energy-OPLS-2005>
186.894760131836

> <r_mmod_Torsional_Energy-OPLS-2005>
309.540069580078

> <r_mmod_Improper_Torsional_Energy-OPLS-2005>
5.50371313095093

> <r_mmod_Van_der_Waal_Energy-OPLS-2005>
137.262603759766

> <r_mmod_Electrostatic_Energy-OPLS-2005>
-258.924926757812

> <r_mmod_Solvation_Energy-OPLS-2005>
-420.699859619141

> <b_mmod_Minimization_Converged-OPLS-2005>
0

> <r_mmod_RMS_Derivative-OPLS-2005>
5.7585825920105

$$$$
6
                    3D
 Structure written by MMmdl.
164173  0  0  1  0            999 V2000
  -29.8897  -16.8163   20.2549 C   0  0  0  0  0  0
  -30.2621  -14.0032   19.4856 C   0  0  0  0  0  0
  -29.5635  -13.0425   18.4232 C   0  0  0  0  0  0
  -28.2659  -12.4243   18.9394 C   0  0  0  0  0  0
  -27.5732  -13.4686   19.8216 C   0  0  2  0  0  0
  -28.4954  -14.2792   20.8277 C   0  0  0  0  0  0
  -25.2136  -13.8559   20.6002 C   0  0  0  0  0  0
  -24.1680  -13.0488   20.9374 C   0  0  0  0  0  0
  -24.6600  -11.7076   20.8741 C   0  0  0  0  0  0
  -23.9305  -10.4347   21.0314 C   0  0  0  0  0  0
  -24.3769   -9.4249   21.9126 C   0  0  0  0  0  0
  -23.6387   -8.2304   22.0734 C   0  0  0  0  0  0
  -22.4357   -8.0340   21.3540 C   0  0  0  0  0  0
  -22.0044   -9.0320   20.4622 C   0  0  0  0  0  0
  -22.7433  -10.2173   20.3001 C   0  0  0  0  0  0
  -21.6885   -6.0775   22.5277 C   0  0  0  0  0  0
  -21.4032   -6.5662   23.8215 C   0  0  0  0  0  0
  -21.3670   -5.6805   24.9171 C   0  0  0  0  0  0
  -21.6046   -4.3068   24.7215 C   0  0  0  0  0  0
  -21.8814   -3.8169   23.4332 C   0  0  0  0  0  0
  -21.9203   -4.6996   22.3395 C   0  0  0  0  0  0
  -22.7637  -13.5065   21.1961 C   0  0  0  0  0  0
  -22.1666   -4.2182   21.0971 F   0  0  0  0  0  0
  -21.5630   -3.4546   25.7722 F   0  0  0  0  0  0
  -29.4304  -15.2690   20.0828 N   0  0  0  0  0  0
  -26.2853  -13.0251   20.3577 N   0  0  0  0  0  0
  -25.9633  -11.7124   20.5678 N   0  0  0  0  0  0
  -22.0342  -12.7998   22.0506 N   0  0  0  0  0  0
  -25.3405  -15.2327   20.4385 N   0  0  0  0  0  0
  -31.1093  -16.4240   20.3571 O   0  0  0  0  0  0
  -21.6687   -6.8945   21.4250 O   0  0  0  0  0  0
  -22.3250  -14.5332   20.6786 O   0  0  0  0  0  0
  -24.7615  -31.6990   23.0858 C   0  0  0  0  0  0
  -25.9787  -32.3991   23.7707 C   0  0  1  0  0  0
  -27.2692  -25.8944   20.2762 C   0  0  0  0  0  0
  -25.6016  -33.7862   24.1498 N   0  0  0  0  0  0
  -23.6224  -30.2620   21.4600 C   0  0  2  0  0  0
  -25.0837  -28.4265   20.1455 C   0  0  0  0  0  0
  -22.8115  -29.3764   22.4516 C   0  0  0  0  0  0
  -18.0381  -28.1460   22.8413 C   0  0  0  0  0  0
  -24.1483  -36.6946   23.2680 C   0  0  0  0  0  0
  -26.2265  -30.1646   21.4691 C   0  0  0  0  0  0
  -26.2842  -28.6374   20.8324 C   0  0  0  0  0  0
  -27.3194  -27.4332   20.8372 C   0  0  0  0  0  0
  -26.0305  -26.0966   19.5276 C   0  0  0  0  0  0
  -25.0451  -27.1863   19.4642 C   0  0  0  0  0  0
  -23.9166  -29.4780   20.1332 C   0  0  0  0  0  0
  -25.4162  -36.2621   24.0231 C   0  0  1  0  0  0
  -20.6054  -28.3835   23.1012 C   0  0  2  0  0  0
  -20.6793  -26.9420   22.5428 C   0  0  0  0  0  0
  -19.5786  -26.6338   21.5230 C   0  0  0  0  0  0
  -18.1968  -26.7970   22.1606 C   0  0  0  0  0  0
  -19.1668  -28.8991   23.2668 C   0  0  0  0  0  0
  -18.9558  -30.1557   23.8743 C   0  0  0  0  0  0
  -17.6537  -30.6617   24.0530 C   0  0  0  0  0  0
  -25.9192  -34.9028   23.4767 C   0  0  0  0  0  0
  -16.5421  -29.9085   23.6367 C   0  0  0  0  0  0
  -16.7357  -28.6518   23.0376 C   0  0  0  0  0  0
  -26.4717  -31.6392   25.0659 C   0  0  0  0  0  0
  -25.3584  -31.3914   26.1133 C   0  0  0  0  0  0
  -27.0776  -30.2661   24.7117 C   0  0  0  0  0  0
  -27.6008  -32.4458   25.7513 C   0  0  0  0  0  0
  -27.5524  -37.1628   24.8472 C   0  0  0  0  0  0
  -21.4695  -29.2916   22.3255 N   0  0  0  0  0  0
  -26.4223  -37.3468   23.9411 N   0  0  0  0  0  0
  -24.9051  -30.7613   22.0572 N   0  0  0  0  0  0
  -23.4178  -28.7513   23.3235 O   0  0  0  0  0  0
  -28.1731  -24.3398   20.3085 O   0  0  0  0  0  0
  -26.5958  -34.8765   22.4470 O   0  0  0  0  0  0
  -23.6472  -32.0432   23.5303 O   0  0  0  0  0  0
  -30.7274  -22.7018   18.1070 C   0  0  0  0  0  0
  -31.3189  -21.6834   17.3256 C   0  0  0  0  0  0
  -32.4682  -21.2874   18.0634 C   0  0  0  0  0  0
  -32.2184  -21.0924   19.4801 C   0  0  0  0  0  0
  -30.7603  -20.9005   19.8410 C   0  0  0  0  0  0
  -30.6965  -22.3421   19.4918 C   0  0  0  0  0  0
  -28.4991  -20.9237   18.7000 C   0  0  0  0  0  0
  -31.1414  -19.3099   21.3414 C   0  0  0  0  0  0
  -29.3907  -20.7654   21.6777 C   0  0  0  0  0  0
  -31.2151  -18.8776   18.9282 C   0  0  0  0  0  0
  -28.3735  -22.1445   20.3197 C   0  0  1  0  0  0
  -33.8398  -21.2258   17.4253 C   0  0  0  0  0  0
  -33.4096  -21.0959   20.4381 C   0  0  0  0  0  0
  -30.3430  -20.5327   16.9211 C   0  0  0  0  0  0
  -29.6828  -19.8834   18.0856 N   0  0  0  0  0  0
  -29.3755  -18.6416   20.1521 N   0  0  0  0  0  0
  -27.5257  -21.0695   17.9553 O   0  0  0  0  0  0
  -31.0716  -23.5694   20.6678 Cl  0  0  0  0  0  0
  -31.1204  -14.4207   18.9580 H   0  0  0  0  0  0
  -30.7274  -13.4193   20.2823 H   0  0  0  0  0  0
  -30.2525  -12.2611   18.0998 H   0  0  0  0  0  0
  -29.3387  -13.6291   17.5317 H   0  0  0  0  0  0
  -28.5020  -11.5448   19.5398 H   0  0  0  0  0  0
  -27.6276  -12.0940   18.1181 H   0  0  0  0  0  0
  -27.2874  -14.2207   19.0840 H   0  0  0  0  0  0
  -29.0081  -13.6211   21.5321 H   0  0  0  0  0  0
  -27.8641  -14.9007   21.4620 H   0  0  0  0  0  0
  -25.2899   -9.5710   22.4731 H   0  0  0  0  0  0
  -24.0072   -7.4699   22.7475 H   0  0  0  0  0  0
  -21.0972   -8.8863   19.8926 H   0  0  0  0  0  0
  -22.3882  -10.9708   19.6113 H   0  0  0  0  0  0
  -21.2021   -7.6170   23.9731 H   0  0  0  0  0  0
  -21.1496   -6.0529   25.9078 H   0  0  0  0  0  0
  -22.0578   -2.7633   23.2820 H   0  0  0  0  0  0
  -22.4043  -11.9716   22.4936 H   0  0  0  0  0  0
  -21.0907  -13.0901   22.2651 H   0  0  0  0  0  0
  -24.5526  -15.8641   20.5392 H   0  0  0  0  0  0
  -26.1818  -15.6937   20.1176 H   0  0  0  0  0  0
  -26.7985  -32.4335   23.0518 H   0  0  0  0  0  0
  -24.9925  -33.8755   24.9496 H   0  0  0  0  0  0
  -22.9961  -31.1180   21.1997 H   0  0  0  0  0  0
  -23.3781  -35.9238   23.3238 H   0  0  0  0  0  0
  -24.3517  -36.8761   22.2117 H   0  0  0  0  0  0
  -23.7224  -37.6054   23.6892 H   0  0  0  0  0  0
  -26.5092  -30.8329   20.6545 H   0  0  0  0  0  0
  -27.0536  -30.2536   22.1598 H   0  0  0  0  0  0
  -28.2142  -27.6465   21.4056 H   0  0  0  0  0  0
  -25.7371  -25.2270   18.9564 H   0  0  0  0  0  0
  -24.1696  -26.9964   18.8579 H   0  0  0  0  0  0
  -24.1538  -30.2014   19.3525 H   0  0  0  0  0  0
  -23.0063  -28.9822   19.7912 H   0  0  0  0  0  0
  -25.1415  -36.1268   25.0719 H   0  0  0  0  0  0
  -21.0099  -28.3506   24.1157 H   0  0  0  0  0  0
  -20.5565  -26.2480   23.3758 H   0  0  0  0  0  0
  -21.6647  -26.7216   22.1306 H   0  0  0  0  0  0
  -19.6917  -25.6212   21.1353 H   0  0  0  0  0  0
  -19.6760  -27.3072   20.6705 H   0  0  0  0  0  0
  -17.4245  -26.6732   21.3999 H   0  0  0  0  0  0
  -18.0309  -26.0145   22.9027 H   0  0  0  0  0  0
  -19.8031  -30.7412   24.2050 H   0  0  0  0  0  0
  -17.5080  -31.6279   24.5168 H   0  0  0  0  0  0
  -15.5414  -30.2939   23.7780 H   0  0  0  0  0  0
  -15.8760  -28.0791   22.7173 H   0  0  0  0  0  0
  -24.5853  -30.7180   25.7411 H   0  0  0  0  0  0
  -24.8694  -32.3191   26.4115 H   0  0  0  0  0  0
  -25.7596  -30.9371   27.0203 H   0  0  0  0  0  0
  -26.3599  -29.6000   24.2322 H   0  0  0  0  0  0
  -27.4099  -29.7475   25.6123 H   0  0  0  0  0  0
  -27.9617  -30.3631   24.0815 H   0  0  0  0  0  0
  -27.2440  -33.3928   26.1575 H   0  0  0  0  0  0
  -28.4061  -32.6751   25.0521 H   0  0  0  0  0  0
  -28.0402  -31.8956   26.5844 H   0  0  0  0  0  0
  -28.2482  -37.9969   24.7484 H   0  0  0  0  0  0
  -28.1069  -36.2480   24.6336 H   0  0  0  0  0  0
  -27.2230  -37.1290   25.8869 H   0  0  0  0  0  0
  -21.0203  -29.8434   21.6080 H   0  0  0  0  0  0
  -25.9979  -38.2477   24.1435 H   0  0  0  0  0  0
  -30.8978  -23.7394   17.8600 H   0  0  0  0  0  0
  -31.0100  -18.4264   21.9690 H   0  0  0  0  0  0
  -32.0557  -19.6713   21.7905 H   0  0  0  0  0  0
  -29.6808  -21.3679   22.5383 H   0  0  0  0  0  0
  -28.5843  -20.1586   22.0921 H   0  0  0  0  0  0
  -31.1194  -17.8820   18.5114 H   0  0  0  0  0  0
  -32.2051  -18.9563   18.4807 H   0  0  0  0  0  0
  -27.3370  -21.9586   20.6012 H   0  0  0  0  0  0
  -33.7527  -20.9590   16.3716 H   0  0  0  0  0  0
  -34.4633  -20.4755   17.9133 H   0  0  0  0  0  0
  -34.3346  -22.1951   17.5024 H   0  0  0  0  0  0
  -33.8447  -20.1007   20.5357 H   0  0  0  0  0  0
  -33.1295  -21.4732   21.4224 H   0  0  0  0  0  0
  -34.1933  -21.7618   20.0764 H   0  0  0  0  0  0
  -30.9003  -19.7760   16.3681 H   0  0  0  0  0  0
  -29.5965  -20.9190   16.2256 H   0  0  0  0  0  0
  -28.3733  -18.7442   20.0896 H   0  0  0  0  0  0
  1 25  1  0  0  0
  1 30  2  0  0  0
  1 86  1  0  0  0
  2  3  1  0  0  0
  2 25  1  0  0  0
  2 89  1  0  0  0
  2 90  1  0  0  0
  3  4  1  0  0  0
  3 91  1  0  0  0
  3 92  1  0  0  0
  4  5  1  0  0  0
  4 93  1  0  0  0
  4 94  1  0  0  0
  5  6  1  0  0  0
  5 26  1  0  0  0
  5 95  1  0  0  0
  6 25  1  0  0  0
  6 96  1  0  0  0
  6 97  1  0  0  0
  7  8  2  0  0  0
  7 26  1  0  0  0
  7 29  1  0  0  0
  8  9  1  0  0  0
  8 22  1  0  0  0
  9 10  1  0  0  0
  9 27  2  0  0  0
 10 11  2  0  0  0
 10 15  1  0  0  0
 11 12  1  0  0  0
 11 98  1  0  0  0
 12 13  2  0  0  0
 12 99  1  0  0  0
 13 14  1  0  0  0
 13 31  1  0  0  0
 14 15  2  0  0  0
 14100  1  0  0  0
 15101  1  0  0  0
 16 17  2  0  0  0
 16 21  1  0  0  0
 16 31  1  0  0  0
 17 18  1  0  0  0
 17102  1  0  0  0
 18 19  2  0  0  0
 18103  1  0  0  0
 19 20  1  0  0  0
 19 24  1  0  0  0
 20 21  2  0  0  0
 20104  1  0  0  0
 21 23  1  0  0  0
 22 28  1  0  0  0
 22 32  2  0  0  0
 26 27  1  0  0  0
 28105  1  0  0  0
 28106  1  0  0  0
 29107  1  0  0  0
 29108  1  0  0  0
 33 34  1  0  0  0
 33 66  1  0  0  0
 33 70  2  0  0  0
 34 36  1  0  0  0
 34 59  1  0  0  0
 34109  1  0  0  0
 35 44  2  0  0  0
 35 45  1  0  0  0
 35 68  1  0  0  0
 36 56  1  0  0  0
 36110  1  0  0  0
 37 39  1  0  0  0
 37 47  1  0  0  0
 37 66  1  0  0  0
 37111  1  0  0  0
 38 43  2  0  0  0
 38 46  1  0  0  0
 38 47  1  0  0  0
 39 64  1  0  0  0
 39 67  2  0  0  0
 40 52  1  0  0  0
 40 53  2  0  0  0
 40 58  1  0  0  0
 41112  1  0  0  0
 41113  1  0  0  0
 41114  1  0  0  0
 41 48  1  0  0  0
 42 43  1  0  0  0
 42 66  1  0  0  0
 42115  1  0  0  0
 42116  1  0  0  0
 43 44  1  0  0  0
 44117  1  0  0  0
 45 46  2  0  0  0
 45118  1  0  0  0
 46119  1  0  0  0
 47120  1  0  0  0
 47121  1  0  0  0
 48 56  1  0  0  0
 48 65  1  0  0  0
 48122  1  0  0  0
 49 50  1  0  0  0
 49 53  1  0  0  0
 49 64  1  0  0  0
 49123  1  0  0  0
 50 51  1  0  0  0
 50124  1  0  0  0
 50125  1  0  0  0
 51 52  1  0  0  0
 51126  1  0  0  0
 51127  1  0  0  0
 52128  1  0  0  0
 52129  1  0  0  0
 53 54  1  0  0  0
 54 55  2  0  0  0
 54130  1  0  0  0
 55 57  1  0  0  0
 55131  1  0  0  0
 56 69  2  0  0  0
 57 58  2  0  0  0
 57132  1  0  0  0
 58133  1  0  0  0
 59 60  1  0  0  0
 59 61  1  0  0  0
 59 62  1  0  0  0
 60134  1  0  0  0
 60135  1  0  0  0
 60136  1  0  0  0
 61137  1  0  0  0
 61138  1  0  0  0
 61139  1  0  0  0
 62140  1  0  0  0
 62141  1  0  0  0
 62142  1  0  0  0
 63 65  1  0  0  0
 63143  1  0  0  0
 63144  1  0  0  0
 63145  1  0  0  0
 64146  1  0  0  0
 65147  1  0  0  0
 68 81  1  0  0  0
 71 72  2  0  0  0
 71 76  1  0  0  0
 71148  1  0  0  0
 72 73  1  0  0  0
 72 84  1  0  0  0
 73 74  2  0  0  0
 73 82  1  0  0  0
 74 75  1  0  0  0
 74 83  1  0  0  0
 75 76  2  0  0  0
 75 86  1  0  0  0
 76 88  1  0  0  0
 77 81  1  0  0  0
 77 85  1  0  0  0
 77 87  2  0  0  0
 78 79  1  0  0  0
 78 80  1  0  0  0
 78149  1  0  0  0
 78150  1  0  0  0
 79 81  1  0  0  0
 79151  1  0  0  0
 79152  1  0  0  0
 80 85  1  0  0  0
 80153  1  0  0  0
 80154  1  0  0  0
 81155  1  0  0  0
 82156  1  0  0  0
 82157  1  0  0  0
 82158  1  0  0  0
 83159  1  0  0  0
 83160  1  0  0  0
 83161  1  0  0  0
 84 85  1  0  0  0
 84162  1  0  0  0
 84163  1  0  0  0
 86164  1  0  0  0
M  ISO  4   1 100  68 101  81 101  86 100
M  END
> <chiral flag>
0

> <version>
0

> <s_m_source_file>
/data/baiqing/PycharmProjects/Reinvent-master-3.2/result/LINK_invent/BTK/process_docking_weight1_custom_product_contain_oxygen_bond_distance_aromatic_linkinvent_7_9_3/rearranged_h_0042.sdf

> <i_m_source_file_index>
7

> <r_mmod_Potential_Energy-OPLS-2005>
15146.8603515625

> <r_mmod_Stretch_Energy-OPLS-2005>
8020.166015625

> <r_mmod_Bend_Energy-OPLS-2005>
1321.81384277344

> <r_mmod_Torsional_Energy-OPLS-2005>
770.065856933594

> <r_mmod_Improper_Torsional_Energy-OPLS-2005>
53.2837142944336

> <r_mmod_Van_der_Waal_Energy-OPLS-2005>
2079.841796875

> <r_mmod_Electrostatic_Energy-OPLS-2005>
-358.45556640625

> <r_mmod_Solvation_Energy-OPLS-2005>
-228.083404541016

> <b_mmod_Minimization_Converged-OPLS-2005>
0

> <r_mmod_RMS_Derivative-OPLS-2005>
2.23622465133667

$$$$
7
                    3D
 Structure written by MMmdl.
158166  0  0  1  0            999 V2000
  -30.6701  -14.5306   20.5184 C   0  0  0  0  0  0
  -30.4283  -12.3231   19.4461 C   0  0  0  0  0  0
  -29.5034  -12.4992   18.2212 C   0  0  0  0  0  0
  -28.0242  -12.3559   18.6303 C   0  0  0  0  0  0
  -27.6619  -13.2087   19.8757 C   0  0  2  0  0  0
  -28.7044  -13.0208   21.0043 C   0  0  0  0  0  0
  -25.2590  -13.8155   20.5680 C   0  0  0  0  0  0
  -24.1844  -13.0437   20.9178 C   0  0  0  0  0  0
  -24.6397  -11.6904   20.8736 C   0  0  0  0  0  0
  -23.9062  -10.4293   21.0402 C   0  0  0  0  0  0
  -24.3613   -9.4207   21.9181 C   0  0  0  0  0  0
  -23.6291   -8.2244   22.0753 C   0  0  0  0  0  0
  -22.4275   -8.0280   21.3542 C   0  0  0  0  0  0
  -21.9907   -9.0252   20.4646 C   0  0  0  0  0  0
  -22.7233  -10.2132   20.3055 C   0  0  0  0  0  0
  -21.6855   -6.0734   22.5280 C   0  0  0  0  0  0
  -21.4011   -6.5637   23.8212 C   0  0  0  0  0  0
  -21.3659   -5.6790   24.9174 C   0  0  0  0  0  0
  -21.6048   -4.3055   24.7225 C   0  0  0  0  0  0
  -21.8819   -3.8146   23.4348 C   0  0  0  0  0  0
  -21.9190   -4.6961   22.3403 C   0  0  0  0  0  0
  -22.7869  -13.5238   21.1847 C   0  0  0  0  0  0
  -22.1663   -4.2145   21.0981 F   0  0  0  0  0  0
  -21.5630   -3.4540   25.7739 F   0  0  0  0  0  0
  -30.0348  -13.3255   20.4521 N   0  0  0  0  0  0
  -26.3031  -12.9333   20.3371 N   0  0  0  0  0  0
  -25.9328  -11.6494   20.5775 N   0  0  0  0  0  0
  -22.0509  -12.8230   22.0400 N   0  0  0  0  0  0
  -25.4319  -15.1872   20.4080 N   0  0  0  0  0  0
  -31.8054  -14.7072   20.0693 O   0  0  0  0  0  0
  -21.6640   -6.8875   21.4244 O   0  0  0  0  0  0
  -22.3557  -14.5548   20.6698 O   0  0  0  0  0  0
  -24.6187  -31.8655   23.2089 C   0  0  0  0  0  0
  -25.9066  -32.4807   23.8390 C   0  0  1  0  0  0
  -27.2262  -27.3885   20.1026 C   0  0  0  0  0  0
  -25.5907  -33.8606   24.2316 N   0  0  0  0  0  0
  -23.4081  -30.4919   21.5493 C   0  0  2  0  0  0
  -24.8533  -28.9581   20.1096 C   0  0  0  0  0  0
  -22.7432  -29.4655   22.4953 C   0  0  0  0  0  0
  -18.0280  -28.1375   22.8477 C   0  0  0  0  0  0
  -24.1497  -36.7310   23.2638 C   0  0  0  0  0  0
  -25.9427  -30.8183   21.3691 C   0  0  0  0  0  0
  -26.0177  -29.4518   20.7109 C   0  0  0  0  0  0
  -27.2058  -28.6760   20.7017 C   0  0  0  0  0  0
  -26.0429  -26.9366   19.4707 C   0  0  0  0  0  0
  -24.8639  -27.7028   19.4832 C   0  0  0  0  0  0
  -23.6187  -29.8304   20.1620 C   0  0  0  0  0  0
  -25.4115  -36.3101   24.0339 C   0  0  1  0  0  0
  -20.5875  -28.3670   23.1292 C   0  0  2  0  0  0
  -20.6771  -26.9400   22.5406 C   0  0  0  0  0  0
  -19.5754  -26.6376   21.5202 C   0  0  0  0  0  0
  -18.1930  -26.7920   22.1611 C   0  0  0  0  0  0
  -19.1530  -28.8834   23.2885 C   0  0  0  0  0  0
  -18.9460  -30.1438   23.8901 C   0  0  0  0  0  0
  -17.6462  -30.6579   24.0558 C   0  0  0  0  0  0
  -25.9039  -34.9465   23.5122 C   0  0  0  0  0  0
  -16.5351  -29.9080   23.6322 C   0  0  0  0  0  0
  -16.7269  -28.6498   23.0341 C   0  0  0  0  0  0
  -26.4482  -31.6596   25.0726 C   0  0  0  0  0  0
  -25.3749  -31.3705   26.1478 C   0  0  0  0  0  0
  -27.0313  -30.3034   24.6116 C   0  0  0  0  0  0
  -27.6048  -32.4321   25.7494 C   0  0  0  0  0  0
  -27.5588  -37.1810   24.8464 C   0  0  0  0  0  0
  -21.4154  -29.3043   22.3701 N   0  0  0  0  0  0
  -26.4298  -37.3786   23.9411 N   0  0  0  0  0  0
  -24.6752  -31.0736   22.1004 N   0  0  0  0  0  0
  -23.4192  -28.8187   23.2997 O   0  0  0  0  0  0
  -28.3717  -26.5988   20.1608 O   0  0  0  0  0  0
  -26.5603  -34.8914   22.4683 O   0  0  0  0  0  0
  -23.5369  -32.1419   23.7470 O   0  0  0  0  0  0
  -31.4278  -18.0077   21.8316 C   0  0  0  0  0  0
  -31.3551  -20.3739   22.3802 C   0  0  0  0  0  0
  -30.3117  -18.1514   20.9851 C   0  0  0  0  0  0
  -29.6990  -19.4504   20.8411 C   0  0  0  0  0  0
  -30.2378  -20.5875   21.5440 C   0  0  0  0  0  0
  -31.9459  -19.1082   22.5263 C   0  0  0  0  0  0
  -28.4623  -19.5752   19.9600 C   0  0  0  0  0  0
  -29.8742  -16.8981   20.1881 C   0  0  0  0  0  0
  -29.2642  -24.2717   20.7166 C   0  0  0  0  0  0
  -29.0624  -22.7235   20.5445 C   0  0  0  0  0  0
  -28.2143  -25.1617   19.9824 C   0  0  0  0  0  0
  -29.7780  -21.9363   21.5654 N   0  0  0  0  0  0
  -29.8898  -15.5784   20.8681 N   0  0  0  0  0  0
  -33.3200  -18.9088   23.5515 Cl  0  0  0  0  0  0
  -31.4742  -12.4185   19.1494 H   0  0  0  0  0  0
  -30.3288  -11.3186   19.8602 H   0  0  0  0  0  0
  -29.7504  -11.7640   17.4538 H   0  0  0  0  0  0
  -29.6679  -13.4785   17.7689 H   0  0  0  0  0  0
  -27.8424  -11.3013   18.8401 H   0  0  0  0  0  0
  -27.3743  -12.6146   17.7937 H   0  0  0  0  0  0
  -27.6957  -14.2509   19.5588 H   0  0  0  0  0  0
  -28.6863  -11.9941   21.3728 H   0  0  0  0  0  0
  -28.4670  -13.6470   21.8655 H   0  0  0  0  0  0
  -25.2759   -9.5682   22.4751 H   0  0  0  0  0  0
  -24.0000   -7.4634   22.7473 H   0  0  0  0  0  0
  -21.0836   -8.8770   19.8951 H   0  0  0  0  0  0
  -22.3692  -10.9669   19.6162 H   0  0  0  0  0  0
  -21.2005   -7.6145   23.9712 H   0  0  0  0  0  0
  -21.1483   -6.0523   25.9075 H   0  0  0  0  0  0
  -22.0599   -2.7609   23.2850 H   0  0  0  0  0  0
  -22.4124  -11.9884   22.4778 H   0  0  0  0  0  0
  -21.1129  -13.1259   22.2616 H   0  0  0  0  0  0
  -24.6655  -15.8429   20.5128 H   0  0  0  0  0  0
  -26.2821  -15.6232   20.0756 H   0  0  0  0  0  0
  -26.7133  -32.5501   23.1144 H   0  0  0  0  0  0
  -25.0060  -33.9761   25.0465 H   0  0  0  0  0  0
  -22.6976  -31.3098   21.4110 H   0  0  0  0  0  0
  -23.3749  -35.9655   23.3309 H   0  0  0  0  0  0
  -24.3588  -36.8918   22.2051 H   0  0  0  0  0  0
  -23.7260  -37.6518   23.6651 H   0  0  0  0  0  0
  -26.0638  -31.5859   20.6039 H   0  0  0  0  0  0
  -26.8279  -30.8662   21.9916 H   0  0  0  0  0  0
  -28.1001  -29.0486   21.1813 H   0  0  0  0  0  0
  -26.0036  -25.9842   18.9633 H   0  0  0  0  0  0
  -23.9724  -27.3207   19.0050 H   0  0  0  0  0  0
  -23.7334  -30.6092   19.4069 H   0  0  0  0  0  0
  -22.7403  -29.2572   19.8609 H   0  0  0  0  0  0
  -25.1295  -36.1965   25.0833 H   0  0  0  0  0  0
  -20.9967  -28.3240   24.1413 H   0  0  0  0  0  0
  -20.5669  -26.2276   23.3599 H   0  0  0  0  0  0
  -21.6644  -26.7438   22.1204 H   0  0  0  0  0  0
  -19.6920  -25.6288   21.1230 H   0  0  0  0  0  0
  -19.6701  -27.3183   20.6729 H   0  0  0  0  0  0
  -17.4203  -26.6659   21.4011 H   0  0  0  0  0  0
  -18.0337  -26.0060   22.9006 H   0  0  0  0  0  0
  -19.7941  -30.7243   24.2277 H   0  0  0  0  0  0
  -17.5025  -31.6264   24.5153 H   0  0  0  0  0  0
  -15.5353  -30.2986   23.7647 H   0  0  0  0  0  0
  -15.8668  -28.0823   22.7053 H   0  0  0  0  0  0
  -24.5932  -30.7032   25.7830 H   0  0  0  0  0  0
  -24.8927  -32.2859   26.4917 H   0  0  0  0  0  0
  -25.8115  -30.8894   27.0243 H   0  0  0  0  0  0
  -26.2862  -29.6787   24.1173 H   0  0  0  0  0  0
  -27.4076  -29.7272   25.4578 H   0  0  0  0  0  0
  -27.8705  -30.4336   23.9278 H   0  0  0  0  0  0
  -27.2661  -33.3618   26.2080 H   0  0  0  0  0  0
  -28.3862  -32.6884   25.0328 H   0  0  0  0  0  0
  -28.0712  -31.8439   26.5409 H   0  0  0  0  0  0
  -28.2603  -38.0109   24.7507 H   0  0  0  0  0  0
  -28.1089  -36.2636   24.6301 H   0  0  0  0  0  0
  -27.2303  -37.1469   25.8866 H   0  0  0  0  0  0
  -20.9308  -29.8791   21.6950 H   0  0  0  0  0  0
  -26.0187  -38.2866   24.1404 H   0  0  0  0  0  0
  -31.9100  -17.0462   21.9378 H   0  0  0  0  0  0
  -31.7864  -21.1968   22.9322 H   0  0  0  0  0  0
  -28.7273  -19.4687   18.9080 H   0  0  0  0  0  0
  -27.9352  -20.5123   20.0806 H   0  0  0  0  0  0
  -27.7299  -18.8103   20.2150 H   0  0  0  0  0  0
  -30.4993  -16.8532   19.2938 H   0  0  0  0  0  0
  -28.8618  -17.0115   19.8079 H   0  0  0  0  0  0
  -30.2675  -24.5483   20.3913 H   0  0  0  0  0  0
  -29.2109  -24.5226   21.7769 H   0  0  0  0  0  0
  -29.3600  -22.4103   19.5423 H   0  0  0  0  0  0
  -27.9957  -22.5217   20.6453 H   0  0  0  0  0  0
  -27.2454  -24.8402   20.3673 H   0  0  0  0  0  0
  -28.2217  -24.9380   18.9150 H   0  0  0  0  0  0
  -30.2123  -22.5120   22.2820 H   0  0  0  0  0  0
  -29.0208  -15.3217   21.3106 H   0  0  0  0  0  0
  1 25  1  0  0  0
  1 30  2  0  0  0
  1 83  1  0  0  0
  2  3  1  0  0  0
  2 25  1  0  0  0
  2 85  1  0  0  0
  2 86  1  0  0  0
  3  4  1  0  0  0
  3 87  1  0  0  0
  3 88  1  0  0  0
  4  5  1  0  0  0
  4 89  1  0  0  0
  4 90  1  0  0  0
  5  6  1  0  0  0
  5 26  1  0  0  0
  5 91  1  0  0  0
  6 25  1  0  0  0
  6 92  1  0  0  0
  6 93  1  0  0  0
  7  8  2  0  0  0
  7 26  1  0  0  0
  7 29  1  0  0  0
  8  9  1  0  0  0
  8 22  1  0  0  0
  9 10  1  0  0  0
  9 27  2  0  0  0
 10 11  2  0  0  0
 10 15  1  0  0  0
 11 12  1  0  0  0
 11 94  1  0  0  0
 12 13  2  0  0  0
 12 95  1  0  0  0
 13 14  1  0  0  0
 13 31  1  0  0  0
 14 15  2  0  0  0
 14 96  1  0  0  0
 15 97  1  0  0  0
 16 17  2  0  0  0
 16 21  1  0  0  0
 16 31  1  0  0  0
 17 18  1  0  0  0
 17 98  1  0  0  0
 18 19  2  0  0  0
 18 99  1  0  0  0
 19 20  1  0  0  0
 19 24  1  0  0  0
 20 21  2  0  0  0
 20100  1  0  0  0
 21 23  1  0  0  0
 22 28  1  0  0  0
 22 32  2  0  0  0
 26 27  1  0  0  0
 28101  1  0  0  0
 28102  1  0  0  0
 29103  1  0  0  0
 29104  1  0  0  0
 33 34  1  0  0  0
 33 66  1  0  0  0
 33 70  2  0  0  0
 34 36  1  0  0  0
 34 59  1  0  0  0
 34105  1  0  0  0
 35 44  2  0  0  0
 35 45  1  0  0  0
 35 68  1  0  0  0
 36 56  1  0  0  0
 36106  1  0  0  0
 37 39  1  0  0  0
 37 47  1  0  0  0
 37 66  1  0  0  0
 37107  1  0  0  0
 38 43  2  0  0  0
 38 46  1  0  0  0
 38 47  1  0  0  0
 39 64  1  0  0  0
 39 67  2  0  0  0
 40 52  1  0  0  0
 40 53  2  0  0  0
 40 58  1  0  0  0
 41108  1  0  0  0
 41109  1  0  0  0
 41110  1  0  0  0
 41 48  1  0  0  0
 42 43  1  0  0  0
 42 66  1  0  0  0
 42111  1  0  0  0
 42112  1  0  0  0
 43 44  1  0  0  0
 44113  1  0  0  0
 45 46  2  0  0  0
 45114  1  0  0  0
 46115  1  0  0  0
 47116  1  0  0  0
 47117  1  0  0  0
 48 56  1  0  0  0
 48 65  1  0  0  0
 48118  1  0  0  0
 49 50  1  0  0  0
 49 53  1  0  0  0
 49 64  1  0  0  0
 49119  1  0  0  0
 50 51  1  0  0  0
 50120  1  0  0  0
 50121  1  0  0  0
 51 52  1  0  0  0
 51122  1  0  0  0
 51123  1  0  0  0
 52124  1  0  0  0
 52125  1  0  0  0
 53 54  1  0  0  0
 54 55  2  0  0  0
 54126  1  0  0  0
 55 57  1  0  0  0
 55127  1  0  0  0
 56 69  2  0  0  0
 57 58  2  0  0  0
 57128  1  0  0  0
 58129  1  0  0  0
 59 60  1  0  0  0
 59 61  1  0  0  0
 59 62  1  0  0  0
 60130  1  0  0  0
 60131  1  0  0  0
 60132  1  0  0  0
 61133  1  0  0  0
 61134  1  0  0  0
 61135  1  0  0  0
 62136  1  0  0  0
 62137  1  0  0  0
 62138  1  0  0  0
 63 65  1  0  0  0
 63139  1  0  0  0
 63140  1  0  0  0
 63141  1  0  0  0
 64142  1  0  0  0
 65143  1  0  0  0
 68 81  1  0  0  0
 71 73  2  0  0  0
 71 76  1  0  0  0
 71144  1  0  0  0
 72 75  1  0  0  0
 72 76  2  0  0  0
 72145  1  0  0  0
 73 74  1  0  0  0
 73 78  1  0  0  0
 74 75  2  0  0  0
 74 77  1  0  0  0
 75 82  1  0  0  0
 76 84  1  0  0  0
 77146  1  0  0  0
 77147  1  0  0  0
 77148  1  0  0  0
 78 83  1  0  0  0
 78149  1  0  0  0
 78150  1  0  0  0
 79 80  1  0  0  0
 79 81  1  0  0  0
 79151  1  0  0  0
 79152  1  0  0  0
 80 82  1  0  0  0
 80153  1  0  0  0
 80154  1  0  0  0
 81155  1  0  0  0
 81156  1  0  0  0
 82157  1  0  0  0
 83158  1  0  0  0
M  ISO  4   1 100  68 101  81 101  83 100
M  END
> <chiral flag>
0

> <version>
0

> <s_m_source_file>
/data/baiqing/PycharmProjects/Reinvent-master-3.2/result/LINK_invent/BTK/process_docking_weight1_custom_product_contain_oxygen_bond_distance_aromatic_linkinvent_7_9_3/rearranged_h_0042.sdf

> <i_m_source_file_index>
8

> <r_mmod_Potential_Energy-OPLS-2005>
-48.6670417785645

> <r_mmod_Stretch_Energy-OPLS-2005>
53.8427619934082

> <r_mmod_Bend_Energy-OPLS-2005>
140.825271606445

> <r_mmod_Torsional_Energy-OPLS-2005>
210.361236572266

> <r_mmod_Improper_Torsional_Energy-OPLS-2005>
8.9606237411499

> <r_mmod_Van_der_Waal_Energy-OPLS-2005>
155.922485351562

> <r_mmod_Electrostatic_Energy-OPLS-2005>
-416.872253417969

> <r_mmod_Solvation_Energy-OPLS-2005>
-224.769577026367

> <b_mmod_Minimization_Converged-OPLS-2005>
0

> <r_mmod_RMS_Derivative-OPLS-2005>
0.930342376232147

$$$$
8
                    3D
 Structure written by MMmdl.
162170  0  0  1  0            999 V2000
  -30.7854  -14.3664   20.6784 C   0  0  0  0  0  0
  -30.4124  -12.2969   19.3923 C   0  0  0  0  0  0
  -29.4797  -12.5176   18.1891 C   0  0  0  0  0  0
  -28.0065  -12.3735   18.6116 C   0  0  0  0  0  0
  -27.6631  -13.2060   19.8752 C   0  0  2  0  0  0
  -28.7029  -12.9676   20.9917 C   0  0  0  0  0  0
  -25.2601  -13.8171   20.5678 C   0  0  0  0  0  0
  -24.1850  -13.0449   20.9169 C   0  0  0  0  0  0
  -24.6396  -11.6910   20.8736 C   0  0  0  0  0  0
  -23.9065  -10.4299   21.0409 C   0  0  0  0  0  0
  -24.3620   -9.4212   21.9181 C   0  0  0  0  0  0
  -23.6293   -8.2249   22.0754 C   0  0  0  0  0  0
  -22.4273   -8.0290   21.3549 C   0  0  0  0  0  0
  -21.9914   -9.0264   20.4647 C   0  0  0  0  0  0
  -22.7243  -10.2139   20.3052 C   0  0  0  0  0  0
  -21.6853   -6.0741   22.5280 C   0  0  0  0  0  0
  -21.4008   -6.5642   23.8213 C   0  0  0  0  0  0
  -21.3657   -5.6796   24.9176 C   0  0  0  0  0  0
  -21.6046   -4.3060   24.7227 C   0  0  0  0  0  0
  -21.8821   -3.8150   23.4345 C   0  0  0  0  0  0
  -21.9191   -4.6969   22.3400 C   0  0  0  0  0  0
  -22.7869  -13.5248   21.1830 C   0  0  0  0  0  0
  -22.1661   -4.2158   21.0980 F   0  0  0  0  0  0
  -21.5630   -3.4538   25.7735 F   0  0  0  0  0  0
  -30.0424  -13.2533   20.4461 N   0  0  0  0  0  0
  -26.3035  -12.9336   20.3372 N   0  0  0  0  0  0
  -25.9319  -11.6495   20.5764 N   0  0  0  0  0  0
  -22.0500  -12.8242   22.0383 N   0  0  0  0  0  0
  -25.4338  -15.1887   20.4092 N   0  0  0  0  0  0
  -31.8261  -14.6150   20.0652 O   0  0  0  0  0  0
  -21.6637   -6.8885   21.4242 O   0  0  0  0  0  0
  -22.3558  -14.5561   20.6687 O   0  0  0  0  0  0
  -24.6084  -31.8700   23.2107 C   0  0  0  0  0  0
  -25.8990  -32.4837   23.8394 C   0  0  1  0  0  0
  -27.2353  -27.4719   20.0882 C   0  0  0  0  0  0
  -25.5865  -33.8628   24.2330 N   0  0  0  0  0  0
  -23.3970  -30.4905   21.5514 C   0  0  2  0  0  0
  -24.8443  -28.9590   20.1156 C   0  0  0  0  0  0
  -22.7390  -29.4647   22.5004 C   0  0  0  0  0  0
  -18.0272  -28.1380   22.8480 C   0  0  0  0  0  0
  -24.1487  -36.7337   23.2638 C   0  0  0  0  0  0
  -25.9185  -30.8467   21.3562 C   0  0  0  0  0  0
  -26.0002  -29.4795   20.7127 C   0  0  0  0  0  0
  -27.2006  -28.7407   20.7021 C   0  0  0  0  0  0
  -26.0713  -26.9521   19.4882 C   0  0  0  0  0  0
  -24.8723  -27.6919   19.5040 C   0  0  0  0  0  0
  -23.6036  -29.8215   20.1652 C   0  0  0  0  0  0
  -25.4107  -36.3127   24.0340 C   0  0  1  0  0  0
  -20.5858  -28.3659   23.1344 C   0  0  2  0  0  0
  -20.6768  -26.9394   22.5432 C   0  0  0  0  0  0
  -19.5753  -26.6401   21.5217 C   0  0  0  0  0  0
  -18.1923  -26.7923   22.1621 C   0  0  0  0  0  0
  -19.1515  -28.8834   23.2907 C   0  0  0  0  0  0
  -18.9445  -30.1442   23.8906 C   0  0  0  0  0  0
  -17.6445  -30.6576   24.0568 C   0  0  0  0  0  0
  -25.9025  -34.9486   23.5140 C   0  0  0  0  0  0
  -16.5337  -29.9084   23.6326 C   0  0  0  0  0  0
  -16.7259  -28.6517   23.0319 C   0  0  0  0  0  0
  -26.4437  -31.6596   25.0694 C   0  0  0  0  0  0
  -25.3707  -31.3699   26.1449 C   0  0  0  0  0  0
  -27.0254  -30.3054   24.6014 C   0  0  0  0  0  0
  -27.6024  -32.4299   25.7455 C   0  0  0  0  0  0
  -27.5584  -37.1813   24.8456 C   0  0  0  0  0  0
  -21.4120  -29.3023   22.3745 N   0  0  0  0  0  0
  -26.4304  -37.3799   23.9399 N   0  0  0  0  0  0
  -24.6598  -31.0829   22.0996 N   0  0  0  0  0  0
  -23.4168  -28.8189   23.3037 O   0  0  0  0  0  0
  -28.3960  -26.7482   20.0535 O   0  0  0  0  0  0
  -26.5599  -34.8933   22.4705 O   0  0  0  0  0  0
  -23.5291  -32.1436   23.7536 O   0  0  0  0  0  0
  -31.9921  -17.7851   20.5864 C   0  0  0  0  0  0
  -32.1137  -19.0538   20.0066 C   0  0  0  0  0  0
  -31.1174  -17.5645   21.6680 C   0  0  0  0  0  0
  -30.3143  -18.6370   22.1530 C   0  0  0  0  0  0
  -30.4925  -19.9488   21.6128 C   0  0  0  0  0  0
  -31.3977  -20.1380   20.5343 C   0  0  0  0  0  0
  -29.3105  -18.3908   23.2772 C   0  0  0  0  0  0
  -31.1584  -16.1849   22.3283 C   0  0  0  0  0  0
  -29.8374  -21.1831   22.2541 C   0  0  0  0  0  0
  -28.4957  -24.3983   20.6678 C   0  0  0  0  0  0
  -28.8338  -23.4041   21.7973 C   0  0  0  0  0  0
  -28.5527  -25.8570   21.1532 C   0  0  0  0  0  0
  -30.3557  -15.1536   21.6721 N   0  0  0  0  0  0
  -29.0708  -22.0249   21.3085 N   0  3  0  0  0  0
  -31.6851  -21.6979   19.8397 Cl  0  0  0  0  0  0
  -31.4540  -12.3956   19.0813 H   0  0  0  0  0  0
  -30.3162  -11.2784   19.7717 H   0  0  0  0  0  0
  -29.7130  -11.8036   17.3981 H   0  0  0  0  0  0
  -29.6486  -13.5090   17.7670 H   0  0  0  0  0  0
  -27.8180  -11.3155   18.8014 H   0  0  0  0  0  0
  -27.3511  -12.6560   17.7870 H   0  0  0  0  0  0
  -27.7163  -14.2573   19.5903 H   0  0  0  0  0  0
  -28.6697  -11.9290   21.3247 H   0  0  0  0  0  0
  -28.4520  -13.5621   21.8704 H   0  0  0  0  0  0
  -25.2763   -9.5691   22.4755 H   0  0  0  0  0  0
  -24.0005   -7.4642   22.7472 H   0  0  0  0  0  0
  -21.0845   -8.8784   19.8949 H   0  0  0  0  0  0
  -22.3705  -10.9682   19.6163 H   0  0  0  0  0  0
  -21.1995   -7.6149   23.9723 H   0  0  0  0  0  0
  -21.1476   -6.0520   25.9082 H   0  0  0  0  0  0
  -22.0600   -2.7613   23.2841 H   0  0  0  0  0  0
  -22.4100  -11.9903   22.4780 H   0  0  0  0  0  0
  -21.1112  -13.1272   22.2564 H   0  0  0  0  0  0
  -24.6719  -15.8493   20.5192 H   0  0  0  0  0  0
  -26.2954  -15.6252   20.1044 H   0  0  0  0  0  0
  -26.7046  -32.5583   23.1154 H   0  0  0  0  0  0
  -24.9965  -33.9794   25.0443 H   0  0  0  0  0  0
  -22.6837  -31.3052   21.4128 H   0  0  0  0  0  0
  -23.3737  -35.9678   23.3306 H   0  0  0  0  0  0
  -24.3573  -36.8951   22.2048 H   0  0  0  0  0  0
  -23.7253  -37.6553   23.6642 H   0  0  0  0  0  0
  -26.0114  -31.6059   20.5778 H   0  0  0  0  0  0
  -26.8133  -30.9134   21.9636 H   0  0  0  0  0  0
  -28.0963  -29.1390   21.1578 H   0  0  0  0  0  0
  -26.0961  -25.9843   19.0066 H   0  0  0  0  0  0
  -23.9853  -27.2862   19.0369 H   0  0  0  0  0  0
  -23.7039  -30.5938   19.4013 H   0  0  0  0  0  0
  -22.7297  -29.2355   19.8771 H   0  0  0  0  0  0
  -25.1272  -36.2017   25.0835 H   0  0  0  0  0  0
  -20.9936  -28.3205   24.1475 H   0  0  0  0  0  0
  -20.5707  -26.2226   23.3595 H   0  0  0  0  0  0
  -21.6634  -26.7466   22.1190 H   0  0  0  0  0  0
  -19.6911  -25.6328   21.1210 H   0  0  0  0  0  0
  -19.6709  -27.3242   20.6776 H   0  0  0  0  0  0
  -17.4200  -26.6675   21.4018 H   0  0  0  0  0  0
  -18.0309  -26.0078   22.9030 H   0  0  0  0  0  0
  -19.7923  -30.7256   24.2271 H   0  0  0  0  0  0
  -17.5005  -31.6250   24.5174 H   0  0  0  0  0  0
  -15.5336  -30.2978   23.7659 H   0  0  0  0  0  0
  -15.8668  -28.0860   22.6982 H   0  0  0  0  0  0
  -24.5880  -30.7040   25.7799 H   0  0  0  0  0  0
  -24.8878  -32.2845   26.4900 H   0  0  0  0  0  0
  -25.8056  -30.8876   27.0209 H   0  0  0  0  0  0
  -26.2777  -29.6832   24.1081 H   0  0  0  0  0  0
  -27.4067  -29.7277   25.4442 H   0  0  0  0  0  0
  -27.8578  -30.4397   23.9099 H   0  0  0  0  0  0
  -27.2654  -33.3604   26.2043 H   0  0  0  0  0  0
  -28.3819  -32.6856   25.0258 H   0  0  0  0  0  0
  -28.0682  -31.8396   26.5359 H   0  0  0  0  0  0
  -28.2597  -38.0115   24.7511 H   0  0  0  0  0  0
  -28.1087  -36.2647   24.6275 H   0  0  0  0  0  0
  -27.2289  -37.1458   25.8855 H   0  0  0  0  0  0
  -20.9259  -29.8755   21.6988 H   0  0  0  0  0  0
  -26.0209  -38.2881   24.1403 H   0  0  0  0  0  0
  -32.6101  -16.9834   20.2094 H   0  0  0  0  0  0
  -32.7977  -19.2060   19.1840 H   0  0  0  0  0  0
  -29.0259  -17.3439   23.3691 H   0  0  0  0  0  0
  -28.3742  -18.9182   23.0957 H   0  0  0  0  0  0
  -29.7176  -18.7175   24.2355 H   0  0  0  0  0  0
  -30.8856  -16.2395   23.3809 H   0  0  0  0  0  0
  -32.2010  -15.8597   22.3521 H   0  0  0  0  0  0
  -30.6557  -21.7660   22.6776 H   0  0  0  0  0  0
  -29.1983  -20.9438   23.1005 H   0  0  0  0  0  0
  -27.5110  -24.1805   20.2530 H   0  0  0  0  0  0
  -29.2091  -24.2844   19.8510 H   0  0  0  0  0  0
  -28.0471  -23.3934   22.5530 H   0  0  0  0  0  0
  -29.7350  -23.7607   22.2977 H   0  0  0  0  0  0
  -29.5248  -26.0620   21.6035 H   0  0  0  0  0  0
  -27.8099  -26.0267   21.9367 H   0  0  0  0  0  0
  -29.4805  -14.9032   22.1063 H   0  0  0  0  0  0
  -28.2010  -21.5766   21.0712 H   0  0  0  0  0  0
  -29.6336  -22.0820   20.4726 H   0  0  0  0  0  0
  1 25  1  0  0  0
  1 30  2  0  0  0
  1 83  1  0  0  0
  2  3  1  0  0  0
  2 25  1  0  0  0
  2 86  1  0  0  0
  2 87  1  0  0  0
  3  4  1  0  0  0
  3 88  1  0  0  0
  3 89  1  0  0  0
  4  5  1  0  0  0
  4 90  1  0  0  0
  4 91  1  0  0  0
  5  6  1  0  0  0
  5 26  1  0  0  0
  5 92  1  0  0  0
  6 25  1  0  0  0
  6 93  1  0  0  0
  6 94  1  0  0  0
  7  8  2  0  0  0
  7 26  1  0  0  0
  7 29  1  0  0  0
  8  9  1  0  0  0
  8 22  1  0  0  0
  9 10  1  0  0  0
  9 27  2  0  0  0
 10 11  2  0  0  0
 10 15  1  0  0  0
 11 12  1  0  0  0
 11 95  1  0  0  0
 12 13  2  0  0  0
 12 96  1  0  0  0
 13 14  1  0  0  0
 13 31  1  0  0  0
 14 15  2  0  0  0
 14 97  1  0  0  0
 15 98  1  0  0  0
 16 17  2  0  0  0
 16 21  1  0  0  0
 16 31  1  0  0  0
 17 18  1  0  0  0
 17 99  1  0  0  0
 18 19  2  0  0  0
 18100  1  0  0  0
 19 20  1  0  0  0
 19 24  1  0  0  0
 20 21  2  0  0  0
 20101  1  0  0  0
 21 23  1  0  0  0
 22 28  1  0  0  0
 22 32  2  0  0  0
 26 27  1  0  0  0
 28102  1  0  0  0
 28103  1  0  0  0
 29104  1  0  0  0
 29105  1  0  0  0
 33 34  1  0  0  0
 33 66  1  0  0  0
 33 70  2  0  0  0
 34 36  1  0  0  0
 34 59  1  0  0  0
 34106  1  0  0  0
 35 44  2  0  0  0
 35 45  1  0  0  0
 35 68  1  0  0  0
 36 56  1  0  0  0
 36107  1  0  0  0
 37 39  1  0  0  0
 37 47  1  0  0  0
 37 66  1  0  0  0
 37108  1  0  0  0
 38 43  2  0  0  0
 38 46  1  0  0  0
 38 47  1  0  0  0
 39 64  1  0  0  0
 39 67  2  0  0  0
 40 52  1  0  0  0
 40 53  2  0  0  0
 40 58  1  0  0  0
 41109  1  0  0  0
 41110  1  0  0  0
 41111  1  0  0  0
 41 48  1  0  0  0
 42 43  1  0  0  0
 42 66  1  0  0  0
 42112  1  0  0  0
 42113  1  0  0  0
 43 44  1  0  0  0
 44114  1  0  0  0
 45 46  2  0  0  0
 45115  1  0  0  0
 46116  1  0  0  0
 47117  1  0  0  0
 47118  1  0  0  0
 48 56  1  0  0  0
 48 65  1  0  0  0
 48119  1  0  0  0
 49 50  1  0  0  0
 49 53  1  0  0  0
 49 64  1  0  0  0
 49120  1  0  0  0
 50 51  1  0  0  0
 50121  1  0  0  0
 50122  1  0  0  0
 51 52  1  0  0  0
 51123  1  0  0  0
 51124  1  0  0  0
 52125  1  0  0  0
 52126  1  0  0  0
 53 54  1  0  0  0
 54 55  2  0  0  0
 54127  1  0  0  0
 55 57  1  0  0  0
 55128  1  0  0  0
 56 69  2  0  0  0
 57 58  2  0  0  0
 57129  1  0  0  0
 58130  1  0  0  0
 59 60  1  0  0  0
 59 61  1  0  0  0
 59 62  1  0  0  0
 60131  1  0  0  0
 60132  1  0  0  0
 60133  1  0  0  0
 61134  1  0  0  0
 61135  1  0  0  0
 61136  1  0  0  0
 62137  1  0  0  0
 62138  1  0  0  0
 62139  1  0  0  0
 63 65  1  0  0  0
 63140  1  0  0  0
 63141  1  0  0  0
 63142  1  0  0  0
 64143  1  0  0  0
 65144  1  0  0  0
 68 82  1  0  0  0
 71 72  2  0  0  0
 71 73  1  0  0  0
 71145  1  0  0  0
 72 76  1  0  0  0
 72146  1  0  0  0
 73 74  2  0  0  0
 73 78  1  0  0  0
 74 75  1  0  0  0
 74 77  1  0  0  0
 75 76  2  0  0  0
 75 79  1  0  0  0
 76 85  1  0  0  0
 77147  1  0  0  0
 77148  1  0  0  0
 77149  1  0  0  0
 78 83  1  0  0  0
 78150  1  0  0  0
 78151  1  0  0  0
 79 84  1  0  0  0
 79152  1  0  0  0
 79153  1  0  0  0
 80 81  1  0  0  0
 80 82  1  0  0  0
 80154  1  0  0  0
 80155  1  0  0  0
 81 84  1  0  0  0
 81156  1  0  0  0
 81157  1  0  0  0
 82158  1  0  0  0
 82159  1  0  0  0
 83160  1  0  0  0
 84161  1  0  0  0
 84162  1  0  0  0
M  CHG  1  84   1
M  ISO  4   1 100  68 101  82 101  83 100
M  END
> <chiral flag>
0

> <version>
0

> <s_m_source_file>
/data/baiqing/PycharmProjects/Reinvent-master-3.2/result/LINK_invent/BTK/process_docking_weight1_custom_product_contain_oxygen_bond_distance_aromatic_linkinvent_7_9_3/rearranged_h_0042.sdf

> <i_m_source_file_index>
9

> <r_mmod_Potential_Energy-OPLS-2005>
-295.577819824219

> <r_mmod_Stretch_Energy-OPLS-2005>
34.9578819274902

> <r_mmod_Bend_Energy-OPLS-2005>
89.9558258056641

> <r_mmod_Torsional_Energy-OPLS-2005>
223.701080322266

> <r_mmod_Improper_Torsional_Energy-OPLS-2005>
2.83457374572754

> <r_mmod_Van_der_Waal_Energy-OPLS-2005>
162.120910644531

> <r_mmod_Electrostatic_Energy-OPLS-2005>
-359.950836181641

> <r_mmod_Solvation_Energy-OPLS-2005>
-456.227752685547

> <b_mmod_Minimization_Converged-OPLS-2005>
0

> <r_mmod_RMS_Derivative-OPLS-2005>
1.92470240592957

$$$$
9
                    3D
 Structure written by MMmdl.
164173  0  0  1  0            999 V2000
  -30.5771  -14.7602   20.5249 C   0  0  0  0  0  0
  -30.4487  -12.4745   19.4757 C   0  0  0  0  0  0
  -29.5182  -12.5325   18.2415 C   0  0  0  0  0  0
  -28.0437  -12.3458   18.6489 C   0  0  0  0  0  0
  -27.6522  -13.2244   19.8648 C   0  0  2  0  0  0
  -28.6945  -13.1125   21.0005 C   0  0  0  0  0  0
  -25.2493  -13.8136   20.5561 C   0  0  0  0  0  0
  -24.1809  -13.0407   20.9173 C   0  0  0  0  0  0
  -24.6396  -11.6890   20.8734 C   0  0  0  0  0  0
  -23.9061  -10.4277   21.0392 C   0  0  0  0  0  0
  -24.3604   -9.4203   21.9186 C   0  0  0  0  0  0
  -23.6272   -8.2243   22.0753 C   0  0  0  0  0  0
  -22.4263   -8.0277   21.3529 C   0  0  0  0  0  0
  -21.9891   -9.0260   20.4644 C   0  0  0  0  0  0
  -22.7216  -10.2139   20.3053 C   0  0  0  0  0  0
  -21.6864   -6.0718   22.5267 C   0  0  0  0  0  0
  -21.4025   -6.5629   23.8194 C   0  0  0  0  0  0
  -21.3651   -5.6784   24.9161 C   0  0  0  0  0  0
  -21.6043   -4.3047   24.7214 C   0  0  0  0  0  0
  -21.8826   -3.8129   23.4342 C   0  0  0  0  0  0
  -21.9192   -4.6941   22.3392 C   0  0  0  0  0  0
  -22.7839  -13.5222   21.1841 C   0  0  0  0  0  0
  -22.1666   -4.2122   21.0966 F   0  0  0  0  0  0
  -21.5610   -3.4531   25.7730 F   0  0  0  0  0  0
  -30.0050  -13.5031   20.4500 N   0  0  0  0  0  0
  -26.2977  -12.9358   20.3297 N   0  0  0  0  0  0
  -25.9342  -11.6509   20.5783 N   0  0  0  0  0  0
  -22.0470  -12.8243   22.0421 N   0  0  0  0  0  0
  -25.4063  -15.1822   20.3746 N   0  0  0  0  0  0
  -31.6834  -14.9690   20.0167 O   0  0  0  0  0  0
  -21.6640   -6.8870   21.4230 O   0  0  0  0  0  0
  -22.3536  -14.5536   20.6682 O   0  0  0  0  0  0
  -24.6341  -31.8535   23.1978 C   0  0  0  0  0  0
  -25.9161  -32.4734   23.8324 C   0  0  1  0  0  0
  -27.2217  -27.2339   20.1226 C   0  0  0  0  0  0
  -25.5950  -33.8539   24.2250 N   0  0  0  0  0  0
  -23.4316  -30.4779   21.5416 C   0  0  2  0  0  0
  -24.8793  -28.9245   20.1095 C   0  0  0  0  0  0
  -22.7514  -29.4597   22.4895 C   0  0  0  0  0  0
  -18.0299  -28.1389   22.8479 C   0  0  0  0  0  0
  -24.1490  -36.7272   23.2642 C   0  0  0  0  0  0
  -25.9816  -30.7551   21.3857 C   0  0  0  0  0  0
  -26.0523  -29.3762   20.7254 C   0  0  0  0  0  0
  -27.2214  -28.5422   20.7272 C   0  0  0  0  0  0
  -26.0227  -26.8710   19.4617 C   0  0  0  0  0  0
  -24.8707  -27.6796   19.4683 C   0  0  0  0  0  0
  -23.6517  -29.8146   20.1580 C   0  0  0  0  0  0
  -25.4118  -36.3046   24.0328 C   0  0  1  0  0  0
  -20.5907  -28.3704   23.1253 C   0  0  2  0  0  0
  -20.6781  -26.9415   22.5402 C   0  0  0  0  0  0
  -19.5752  -26.6376   21.5211 C   0  0  0  0  0  0
  -18.1936  -26.7927   22.1625 C   0  0  0  0  0  0
  -19.1554  -28.8863   23.2863 C   0  0  0  0  0  0
  -18.9478  -30.1459   23.8885 C   0  0  0  0  0  0
  -17.6476  -30.6583   24.0564 C   0  0  0  0  0  0
  -25.9062  -34.9422   23.5091 C   0  0  0  0  0  0
  -16.5365  -29.9082   23.6330 C   0  0  0  0  0  0
  -16.7285  -28.6501   23.0352 C   0  0  0  0  0  0
  -26.4512  -31.6571   25.0732 C   0  0  0  0  0  0
  -25.3721  -31.3756   26.1449 C   0  0  0  0  0  0
  -27.0370  -30.2973   24.6260 C   0  0  0  0  0  0
  -27.6054  -32.4324   25.7496 C   0  0  0  0  0  0
  -27.5573  -37.1793   24.8468 C   0  0  0  0  0  0
  -21.4221  -29.3046   22.3627 N   0  0  0  0  0  0
  -26.4281  -37.3752   23.9401 N   0  0  0  0  0  0
  -24.7015  -31.0480   22.0969 N   0  0  0  0  0  0
  -23.4201  -28.8143   23.3005 O   0  0  0  0  0  0
  -28.3087  -26.3132   20.2094 O   0  0  0  0  0  0
  -26.5639  -34.8895   22.4657 O   0  0  0  0  0  0
  -23.5489  -32.1372   23.7261 O   0  0  0  0  0  0
  -27.9669  -17.1120   21.4389 C   0  0  0  0  0  0
  -29.8846  -18.4033   20.7134 C   0  0  0  0  0  0
  -27.2222  -18.2960   21.5796 C   0  0  0  0  0  0
  -29.1304  -19.6687   20.8289 C   0  0  0  0  0  0
  -29.3136  -17.0924   21.0335 C   0  0  0  0  0  0
  -27.7983  -19.5573   21.3129 C   0  0  0  0  0  0
  -29.0487  -23.7075   20.3785 C   0  0  0  0  0  0
  -28.0403  -23.9448   17.2420 C   0  0  0  0  0  0
  -28.6129  -22.5524   17.5215 C   0  0  0  0  0  0
  -28.5783  -25.0401   18.1723 C   0  0  0  0  0  0
  -28.1240  -21.9613   18.8533 C   0  0  0  0  0  0
  -28.1993  -24.8956   19.6667 C   0  0  2  0  0  0
  -25.7891  -18.1978   22.0782 C   0  0  0  0  0  0
  -29.7380  -21.1476   20.5909 C   0  0  0  0  0  0
  -28.9526  -22.3518   20.0040 N   0  0  0  0  0  0
  -29.8831  -15.7238   21.2332 N   0  0  0  0  0  0
  -29.8091  -24.0378   21.2948 O   0  0  0  0  0  0
  -26.8493  -20.9598   21.6853 Cl  0  0  0  0  0  0
  -31.4853  -12.6260   19.1695 H   0  0  0  0  0  0
  -30.4176  -11.4846   19.9336 H   0  0  0  0  0  0
  -29.8038  -11.7674   17.5191 H   0  0  0  0  0  0
  -29.6410  -13.4904   17.7323 H   0  0  0  0  0  0
  -27.8993  -11.2921   18.8926 H   0  0  0  0  0  0
  -27.3905  -12.5552   17.8018 H   0  0  0  0  0  0
  -27.6601  -14.2560   19.5121 H   0  0  0  0  0  0
  -28.7352  -12.0905   21.3797 H   0  0  0  0  0  0
  -28.4014  -13.7303   21.8504 H   0  0  0  0  0  0
  -25.2745   -9.5683   22.4765 H   0  0  0  0  0  0
  -23.9959   -7.4652   22.7497 H   0  0  0  0  0  0
  -21.0805   -8.8801   19.8973 H   0  0  0  0  0  0
  -22.3673  -10.9684   19.6169 H   0  0  0  0  0  0
  -21.2044   -7.6147   23.9698 H   0  0  0  0  0  0
  -21.1455   -6.0511   25.9060 H   0  0  0  0  0  0
  -22.0608   -2.7584   23.2856 H   0  0  0  0  0  0
  -22.4060  -11.9906   22.4826 H   0  0  0  0  0  0
  -21.1090  -13.1295   22.2624 H   0  0  0  0  0  0
  -24.6222  -15.8180   20.4652 H   0  0  0  0  0  0
  -26.2255  -15.6176   19.9704 H   0  0  0  0  0  0
  -26.7229  -32.5375   23.1065 H   0  0  0  0  0  0
  -25.0072  -33.9665   25.0376 H   0  0  0  0  0  0
  -22.7281  -31.3007   21.3966 H   0  0  0  0  0  0
  -23.3730  -35.9630   23.3325 H   0  0  0  0  0  0
  -24.3559  -36.8862   22.2048 H   0  0  0  0  0  0
  -23.7273  -37.6491   23.6651 H   0  0  0  0  0  0
  -26.1301  -31.5163   20.6187 H   0  0  0  0  0  0
  -26.8553  -30.8007   22.0239 H   0  0  0  0  0  0
  -28.1123  -28.8814   21.2371 H   0  0  0  0  0  0
  -25.9248  -25.9364   18.9347 H   0  0  0  0  0  0
  -23.9744  -27.3312   18.9728 H   0  0  0  0  0  0
  -23.7774  -30.5932   19.4051 H   0  0  0  0  0  0
  -22.7691  -29.2527   19.8485 H   0  0  0  0  0  0
  -25.1296  -36.1890   25.0823 H   0  0  0  0  0  0
  -21.0004  -28.3299   24.1372 H   0  0  0  0  0  0
  -20.5670  -26.2324   23.3618 H   0  0  0  0  0  0
  -21.6649  -26.7423   22.1202 H   0  0  0  0  0  0
  -19.6910  -25.6287   21.1234 H   0  0  0  0  0  0
  -19.6680  -27.3187   20.6742 H   0  0  0  0  0  0
  -17.4202  -26.6674   21.4033 H   0  0  0  0  0  0
  -18.0336  -26.0074   22.9024 H   0  0  0  0  0  0
  -19.7958  -30.7281   24.2245 H   0  0  0  0  0  0
  -17.5032  -31.6257   24.5175 H   0  0  0  0  0  0
  -15.5366  -30.2984   23.7658 H   0  0  0  0  0  0
  -15.8685  -28.0814   22.7073 H   0  0  0  0  0  0
  -24.5885  -30.7115   25.7782 H   0  0  0  0  0  0
  -24.8947  -32.2959   26.4834 H   0  0  0  0  0  0
  -25.8031  -30.8952   27.0246 H   0  0  0  0  0  0
  -26.2984  -29.6698   24.1267 H   0  0  0  0  0  0
  -27.4006  -29.7252   25.4806 H   0  0  0  0  0  0
  -27.8871  -30.4214   23.9549 H   0  0  0  0  0  0
  -27.2647  -33.3624   26.2053 H   0  0  0  0  0  0
  -28.3870  -32.6885   25.0332 H   0  0  0  0  0  0
  -28.0719  -31.8474   26.5430 H   0  0  0  0  0  0
  -28.2611  -38.0066   24.7463 H   0  0  0  0  0  0
  -28.1037  -36.2595   24.6348 H   0  0  0  0  0  0
  -27.2281  -37.1504   25.8867 H   0  0  0  0  0  0
  -20.9412  -29.8774   21.6832 H   0  0  0  0  0  0
  -26.0158  -38.2821   24.1380 H   0  0  0  0  0  0
  -27.4884  -16.1834   21.7139 H   0  0  0  0  0  0
  -30.9284  -18.4560   20.4385 H   0  0  0  0  0  0
  -26.9504  -23.9158   17.2866 H   0  0  0  0  0  0
  -28.2831  -24.2167   16.2139 H   0  0  0  0  0  0
  -29.7032  -22.5646   17.4766 H   0  0  0  0  0  0
  -28.2935  -21.8913   16.7142 H   0  0  0  0  0  0
  -28.2000  -25.9909   17.7953 H   0  0  0  0  0  0
  -29.6620  -25.1098   18.0746 H   0  0  0  0  0  0
  -28.1256  -20.8772   18.7438 H   0  0  0  0  0  0
  -27.0811  -22.2230   19.0360 H   0  0  0  0  0  0
  -27.1733  -24.5506   19.7742 H   0  0  0  0  0  0
  -25.5102  -17.1711   22.3137 H   0  0  0  0  0  0
  -25.0994  -18.5697   21.3198 H   0  0  0  0  0  0
  -25.6509  -18.7846   22.9865 H   0  0  0  0  0  0
  -30.6282  -21.0296   19.9723 H   0  0  0  0  0  0
  -30.1156  -21.4594   21.5654 H   0  0  0  0  0  0
  -29.2511  -15.1984   21.8187 H   0  0  0  0  0  0
  1 25  1  0  0  0
  1 30  2  0  0  0
  1 86  1  0  0  0
  2  3  1  0  0  0
  2 25  1  0  0  0
  2 89  1  0  0  0
  2 90  1  0  0  0
  3  4  1  0  0  0
  3 91  1  0  0  0
  3 92  1  0  0  0
  4  5  1  0  0  0
  4 93  1  0  0  0
  4 94  1  0  0  0
  5  6  1  0  0  0
  5 26  1  0  0  0
  5 95  1  0  0  0
  6 25  1  0  0  0
  6 96  1  0  0  0
  6 97  1  0  0  0
  7  8  2  0  0  0
  7 26  1  0  0  0
  7 29  1  0  0  0
  8  9  1  0  0  0
  8 22  1  0  0  0
  9 10  1  0  0  0
  9 27  2  0  0  0
 10 11  2  0  0  0
 10 15  1  0  0  0
 11 12  1  0  0  0
 11 98  1  0  0  0
 12 13  2  0  0  0
 12 99  1  0  0  0
 13 14  1  0  0  0
 13 31  1  0  0  0
 14 15  2  0  0  0
 14100  1  0  0  0
 15101  1  0  0  0
 16 17  2  0  0  0
 16 21  1  0  0  0
 16 31  1  0  0  0
 17 18  1  0  0  0
 17102  1  0  0  0
 18 19  2  0  0  0
 18103  1  0  0  0
 19 20  1  0  0  0
 19 24  1  0  0  0
 20 21  2  0  0  0
 20104  1  0  0  0
 21 23  1  0  0  0
 22 28  1  0  0  0
 22 32  2  0  0  0
 26 27  1  0  0  0
 28105  1  0  0  0
 28106  1  0  0  0
 29107  1  0  0  0
 29108  1  0  0  0
 33 34  1  0  0  0
 33 66  1  0  0  0
 33 70  2  0  0  0
 34 36  1  0  0  0
 34 59  1  0  0  0
 34109  1  0  0  0
 35 44  2  0  0  0
 35 45  1  0  0  0
 35 68  1  0  0  0
 36 56  1  0  0  0
 36110  1  0  0  0
 37 39  1  0  0  0
 37 47  1  0  0  0
 37 66  1  0  0  0
 37111  1  0  0  0
 38 43  2  0  0  0
 38 46  1  0  0  0
 38 47  1  0  0  0
 39 64  1  0  0  0
 39 67  2  0  0  0
 40 52  1  0  0  0
 40 53  2  0  0  0
 40 58  1  0  0  0
 41112  1  0  0  0
 41113  1  0  0  0
 41114  1  0  0  0
 41 48  1  0  0  0
 42 43  1  0  0  0
 42 66  1  0  0  0
 42115  1  0  0  0
 42116  1  0  0  0
 43 44  1  0  0  0
 44117  1  0  0  0
 45 46  2  0  0  0
 45118  1  0  0  0
 46119  1  0  0  0
 47120  1  0  0  0
 47121  1  0  0  0
 48 56  1  0  0  0
 48 65  1  0  0  0
 48122  1  0  0  0
 49 50  1  0  0  0
 49 53  1  0  0  0
 49 64  1  0  0  0
 49123  1  0  0  0
 50 51  1  0  0  0
 50124  1  0  0  0
 50125  1  0  0  0
 51 52  1  0  0  0
 51126  1  0  0  0
 51127  1  0  0  0
 52128  1  0  0  0
 52129  1  0  0  0
 53 54  1  0  0  0
 54 55  2  0  0  0
 54130  1  0  0  0
 55 57  1  0  0  0
 55131  1  0  0  0
 56 69  2  0  0  0
 57 58  2  0  0  0
 57132  1  0  0  0
 58133  1  0  0  0
 59 60  1  0  0  0
 59 61  1  0  0  0
 59 62  1  0  0  0
 60134  1  0  0  0
 60135  1  0  0  0
 60136  1  0  0  0
 61137  1  0  0  0
 61138  1  0  0  0
 61139  1  0  0  0
 62140  1  0  0  0
 62141  1  0  0  0
 62142  1  0  0  0
 63 65  1  0  0  0
 63143  1  0  0  0
 63144  1  0  0  0
 63145  1  0  0  0
 64146  1  0  0  0
 65147  1  0  0  0
 68 82  1  0  0  0
 71 73  2  0  0  0
 71 75  1  0  0  0
 71148  1  0  0  0
 72 74  1  0  0  0
 72 75  2  0  0  0
 72149  1  0  0  0
 73 76  1  0  0  0
 73 83  1  0  0  0
 74 76  2  0  0  0
 74 84  1  0  0  0
 75 86  1  0  0  0
 76 88  1  0  0  0
 77 82  1  0  0  0
 77 85  1  0  0  0
 77 87  2  0  0  0
 78 79  1  0  0  0
 78 80  1  0  0  0
 78150  1  0  0  0
 78151  1  0  0  0
 79 81  1  0  0  0
 79152  1  0  0  0
 79153  1  0  0  0
 80 82  1  0  0  0
 80154  1  0  0  0
 80155  1  0  0  0
 81 85  1  0  0  0
 81156  1  0  0  0
 81157  1  0  0  0
 82158  1  0  0  0
 83159  1  0  0  0
 83160  1  0  0  0
 83161  1  0  0  0
 84 85  1  0  0  0
 84162  1  0  0  0
 84163  1  0  0  0
 86164  1  0  0  0
M  ISO  4   1 100  68 101  82 101  86 100
M  END
> <chiral flag>
0

> <version>
0

> <s_m_source_file>
/data/baiqing/PycharmProjects/Reinvent-master-3.2/result/LINK_invent/BTK/process_docking_weight1_custom_product_contain_oxygen_bond_distance_aromatic_linkinvent_7_9_3/rearranged_h_0042.sdf

> <i_m_source_file_index>
10

> <r_mmod_Potential_Energy-OPLS-2005>
356.303466796875

> <r_mmod_Stretch_Energy-OPLS-2005>
161.812316894531

> <r_mmod_Bend_Energy-OPLS-2005>
228.680877685547

> <r_mmod_Torsional_Energy-OPLS-2005>
266.815460205078

> <r_mmod_Improper_Torsional_Energy-OPLS-2005>
7.58805656433105

> <r_mmod_Van_der_Waal_Energy-OPLS-2005>
145.318511962891

> <r_mmod_Electrostatic_Energy-OPLS-2005>
-326.1689453125

> <r_mmod_Solvation_Energy-OPLS-2005>
-226.582580566406

> <b_mmod_Minimization_Converged-OPLS-2005>
0

> <r_mmod_RMS_Derivative-OPLS-2005>
2.30291604995728

$$$$
10
                    3D
 Structure written by MMmdl.
164173  0  0  1  0            999 V2000
  -30.5763  -14.7896   20.4857 C   0  0  0  0  0  0
  -30.4297  -12.4967   19.4599 C   0  0  0  0  0  0
  -29.4997  -12.4895   18.2210 C   0  0  0  0  0  0
  -28.0239  -12.3077   18.6277 C   0  0  0  0  0  0
  -27.6205  -13.2285   19.8105 C   0  0  2  0  0  0
  -28.6643  -13.1630   20.9479 C   0  0  0  0  0  0
  -25.2385  -13.8171   20.5591 C   0  0  0  0  0  0
  -24.1687  -13.0429   20.9231 C   0  0  0  0  0  0
  -24.6249  -11.6930   20.8640 C   0  0  0  0  0  0
  -23.8903  -10.4297   21.0329 C   0  0  0  0  0  0
  -24.3477   -9.4237   21.9112 C   0  0  0  0  0  0
  -23.6213   -8.2241   22.0706 C   0  0  0  0  0  0
  -22.4178   -8.0216   21.3548 C   0  0  0  0  0  0
  -21.9784   -9.0152   20.4624 C   0  0  0  0  0  0
  -22.7062  -10.2072   20.2999 C   0  0  0  0  0  0
  -21.6815   -6.0659   22.5293 C   0  0  0  0  0  0
  -21.4022   -6.5583   23.8212 C   0  0  0  0  0  0
  -21.3707   -5.6763   24.9190 C   0  0  0  0  0  0
  -21.6014   -4.3011   24.7272 C   0  0  0  0  0  0
  -21.8825   -3.8084   23.4411 C   0  0  0  0  0  0
  -21.9186   -4.6892   22.3442 C   0  0  0  0  0  0
  -22.7719  -13.5192   21.2042 C   0  0  0  0  0  0
  -22.1643   -4.2052   21.1031 F   0  0  0  0  0  0
  -21.5643   -3.4525   25.7800 F   0  0  0  0  0  0
  -29.9662  -13.5545   20.3885 N   0  0  0  0  0  0
  -26.2739  -12.9375   20.2981 N   0  0  0  0  0  0
  -25.9139  -11.6533   20.5520 N   0  0  0  0  0  0
  -22.0397  -12.8089   22.0584 N   0  0  0  0  0  0
  -25.4130  -15.1887   20.4054 N   0  0  0  0  0  0
  -31.7766  -14.8870   20.2063 O   0  0  0  0  0  0
  -21.6617   -6.8765   21.4221 O   0  0  0  0  0  0
  -22.3405  -14.5536   20.6966 O   0  0  0  0  0  0
  -24.6273  -31.8567   23.2043 C   0  0  0  0  0  0
  -25.9119  -32.4755   23.8365 C   0  0  1  0  0  0
  -27.1732  -27.2348   20.1610 C   0  0  0  0  0  0
  -25.5924  -33.8539   24.2306 N   0  0  0  0  0  0
  -23.4172  -30.4896   21.5463 C   0  0  2  0  0  0
  -24.8570  -28.9396   20.1018 C   0  0  0  0  0  0
  -22.7460  -29.4636   22.4906 C   0  0  0  0  0  0
  -18.0268  -28.1409   22.8476 C   0  0  0  0  0  0
  -24.1469  -36.7278   23.2649 C   0  0  0  0  0  0
  -25.9646  -30.7644   21.3819 C   0  0  0  0  0  0
  -26.0297  -29.3866   20.7225 C   0  0  0  0  0  0
  -27.1955  -28.5519   20.7343 C   0  0  0  0  0  0
  -25.9850  -26.8564   19.5002 C   0  0  0  0  0  0
  -24.8448  -27.6851   19.4656 C   0  0  0  0  0  0
  -23.6329  -29.8399   20.1546 C   0  0  0  0  0  0
  -25.4100  -36.3059   24.0341 C   0  0  1  0  0  0
  -20.5859  -28.3748   23.1302 C   0  0  2  0  0  0
  -20.6758  -26.9454   22.5474 C   0  0  0  0  0  0
  -19.5759  -26.6430   21.5227 C   0  0  0  0  0  0
  -18.1955  -26.7922   22.1669 C   0  0  0  0  0  0
  -19.1507  -28.8889   23.2865 C   0  0  0  0  0  0
  -18.9421  -30.1501   23.8869 C   0  0  0  0  0  0
  -17.6414  -30.6614   24.0528 C   0  0  0  0  0  0
  -25.9044  -34.9437   23.5122 C   0  0  0  0  0  0
  -16.5310  -29.9099   23.6298 C   0  0  0  0  0  0
  -16.7246  -28.6508   23.0336 C   0  0  0  0  0  0
  -26.4503  -31.6556   25.0748 C   0  0  0  0  0  0
  -25.3761  -31.3661   26.1510 C   0  0  0  0  0  0
  -27.0336  -30.2955   24.6221 C   0  0  0  0  0  0
  -27.6054  -32.4316   25.7503 C   0  0  0  0  0  0
  -27.5565  -37.1791   24.8476 C   0  0  0  0  0  0
  -21.4177  -29.3073   22.3670 N   0  0  0  0  0  0
  -26.4264  -37.3768   23.9423 N   0  0  0  0  0  0
  -24.6898  -31.0574   22.1014 N   0  0  0  0  0  0
  -23.4186  -28.8196   23.3001 O   0  0  0  0  0  0
  -28.2438  -26.3118   20.1594 O   0  0  0  0  0  0
  -26.5620  -34.8906   22.4700 O   0  0  0  0  0  0
  -23.5445  -32.1413   23.7380 O   0  0  0  0  0  0
  -27.4461  -19.5598   17.6758 C   0  0  0  0  0  0
  -28.0702  -18.3470   17.3840 C   0  0  0  0  0  0
  -27.8325  -20.2895   18.8083 C   0  0  0  0  0  0
  -28.9718  -17.7787   18.3036 C   0  0  0  0  0  0
  -28.8027  -19.8197   19.7233 C   0  0  0  0  0  0
  -29.2498  -18.3953   19.5763 C   0  0  0  0  0  0
  -28.7809  -23.6209   20.2895 C   0  0  0  0  0  0
  -27.1817  -23.5295   22.6934 C   0  0  0  0  0  0
  -26.8774  -24.6933   21.7361 C   0  0  0  0  0  0
  -27.5327  -22.2240   21.9255 C   0  0  0  0  0  0
  -28.1559  -24.9934   20.9202 C   0  0  2  0  0  0
  -29.6750  -16.5109   17.8158 C   0  0  0  0  0  0
  -29.3330  -21.0051   20.6662 C   0  0  0  0  0  0
  -30.0040  -17.4625   20.6455 C   0  0  0  0  0  0
  -28.5713  -22.3571   20.8813 N   0  0  0  0  0  0
  -29.7790  -15.9183   20.6788 N   0  0  0  0  0  0
  -29.5171  -23.7325   19.3026 O   0  0  0  0  0  0
  -31.4646  -12.6525   19.1501 H   0  0  0  0  0  0
  -30.4112  -11.5307   19.9577 H   0  0  0  0  0  0
  -29.8010  -11.6861   17.5449 H   0  0  0  0  0  0
  -29.6114  -13.4129   17.6561 H   0  0  0  0  0  0
  -27.8806  -11.2634   18.9075 H   0  0  0  0  0  0
  -27.3774  -12.4753   17.7666 H   0  0  0  0  0  0
  -27.6038  -14.2390   19.4066 H   0  0  0  0  0  0
  -28.7072  -12.1464   21.3408 H   0  0  0  0  0  0
  -28.3632  -13.8043   21.7787 H   0  0  0  0  0  0
  -25.2591   -9.5773   22.4717 H   0  0  0  0  0  0
  -23.9941   -7.4632   22.7409 H   0  0  0  0  0  0
  -21.0716   -8.8585   19.8937 H   0  0  0  0  0  0
  -22.3403  -10.9565   19.6119 H   0  0  0  0  0  0
  -21.1996   -7.6087   23.9702 H   0  0  0  0  0  0
  -21.1529   -6.0504   25.9109 H   0  0  0  0  0  0
  -22.0565   -2.7535   23.2961 H   0  0  0  0  0  0
  -22.3967  -11.9647   22.4822 H   0  0  0  0  0  0
  -21.1079  -13.1190   22.2987 H   0  0  0  0  0  0
  -24.6549  -15.8519   20.5341 H   0  0  0  0  0  0
  -26.2259  -15.6134   19.9859 H   0  0  0  0  0  0
  -26.7168  -32.5371   23.1094 H   0  0  0  0  0  0
  -25.0041  -33.9692   25.0411 H   0  0  0  0  0  0
  -22.7132  -31.3161   21.4177 H   0  0  0  0  0  0
  -23.3729  -35.9602   23.3304 H   0  0  0  0  0  0
  -24.3568  -36.8904   22.2064 H   0  0  0  0  0  0
  -23.7209  -37.6466   23.6679 H   0  0  0  0  0  0
  -26.1157  -31.5318   20.6218 H   0  0  0  0  0  0
  -26.8391  -30.8054   22.0190 H   0  0  0  0  0  0
  -28.0944  -28.9033   21.2240 H   0  0  0  0  0  0
  -25.9315  -25.8933   19.0120 H   0  0  0  0  0  0
  -23.9507  -27.3504   18.9538 H   0  0  0  0  0  0
  -23.7670  -30.6345   19.4185 H   0  0  0  0  0  0
  -22.7407  -29.2992   19.8330 H   0  0  0  0  0  0
  -25.1264  -36.1917   25.0821 H   0  0  0  0  0  0
  -20.9940  -28.3378   24.1423 H   0  0  0  0  0  0
  -20.5571  -26.2408   23.3721 H   0  0  0  0  0  0
  -21.6680  -26.7448   22.1403 H   0  0  0  0  0  0
  -19.6996  -25.6382   21.1206 H   0  0  0  0  0  0
  -19.6681  -27.3267   20.6781 H   0  0  0  0  0  0
  -17.4201  -26.6561   21.4120 H   0  0  0  0  0  0
  -18.0485  -26.0108   22.9131 H   0  0  0  0  0  0
  -19.7885  -30.7327   24.2254 H   0  0  0  0  0  0
  -17.4949  -31.6319   24.5096 H   0  0  0  0  0  0
  -15.5314  -30.3003   23.7613 H   0  0  0  0  0  0
  -15.8655  -28.0824   22.7078 H   0  0  0  0  0  0
  -24.6009  -30.6917   25.7901 H   0  0  0  0  0  0
  -24.8886  -32.2783   26.4927 H   0  0  0  0  0  0
  -25.8166  -30.8910   27.0283 H   0  0  0  0  0  0
  -26.2912  -29.6735   24.1232 H   0  0  0  0  0  0
  -27.3981  -29.7206   25.4739 H   0  0  0  0  0  0
  -27.8810  -30.4225   23.9492 H   0  0  0  0  0  0
  -27.2665  -33.3659   26.1983 H   0  0  0  0  0  0
  -28.3888  -32.6794   25.0341 H   0  0  0  0  0  0
  -28.0676  -31.8499   26.5486 H   0  0  0  0  0  0
  -28.2584  -38.0084   24.7502 H   0  0  0  0  0  0
  -28.1053  -36.2616   24.6305 H   0  0  0  0  0  0
  -27.2302  -37.1454   25.8884 H   0  0  0  0  0  0
  -20.9363  -29.8796   21.6886 H   0  0  0  0  0  0
  -26.0150  -38.2825   24.1428 H   0  0  0  0  0  0
  -26.7215  -19.9613   16.9821 H   0  0  0  0  0  0
  -27.8342  -17.8643   16.4425 H   0  0  0  0  0  0
  -27.3897  -21.2675   18.9256 H   0  0  0  0  0  0
  -26.3290  -23.3614   23.3556 H   0  0  0  0  0  0
  -28.0122  -23.8093   23.3503 H   0  0  0  0  0  0
  -26.5570  -25.5602   22.3182 H   0  0  0  0  0  0
  -26.0389  -24.4243   21.0913 H   0  0  0  0  0  0
  -26.6423  -21.8196   21.4420 H   0  0  0  0  0  0
  -27.8154  -21.4765   22.6693 H   0  0  0  0  0  0
  -28.8784  -25.2298   21.6955 H   0  0  0  0  0  0
  -29.1392  -15.6182   18.1322 H   0  0  0  0  0  0
  -30.7043  -16.4640   18.1704 H   0  0  0  0  0  0
  -29.7546  -16.4714   16.7290 H   0  0  0  0  0  0
  -30.2917  -21.2663   20.2241 H   0  0  0  0  0  0
  -29.5894  -20.5751   21.6376 H   0  0  0  0  0  0
  -31.0668  -17.6738   20.5771 H   0  0  0  0  0  0
  -29.7129  -17.8345   21.6325 H   0  0  0  0  0  0
  -28.8179  -15.6647   20.8376 H   0  0  0  0  0  0
  1 25  1  0  0  0
  1 30  2  0  0  0
  1 86  1  0  0  0
  2  3  1  0  0  0
  2 25  1  0  0  0
  2 88  1  0  0  0
  2 89  1  0  0  0
  3  4  1  0  0  0
  3 90  1  0  0  0
  3 91  1  0  0  0
  4  5  1  0  0  0
  4 92  1  0  0  0
  4 93  1  0  0  0
  5  6  1  0  0  0
  5 26  1  0  0  0
  5 94  1  0  0  0
  6 25  1  0  0  0
  6 95  1  0  0  0
  6 96  1  0  0  0
  7  8  2  0  0  0
  7 26  1  0  0  0
  7 29  1  0  0  0
  8  9  1  0  0  0
  8 22  1  0  0  0
  9 10  1  0  0  0
  9 27  2  0  0  0
 10 11  2  0  0  0
 10 15  1  0  0  0
 11 12  1  0  0  0
 11 97  1  0  0  0
 12 13  2  0  0  0
 12 98  1  0  0  0
 13 14  1  0  0  0
 13 31  1  0  0  0
 14 15  2  0  0  0
 14 99  1  0  0  0
 15100  1  0  0  0
 16 17  2  0  0  0
 16 21  1  0  0  0
 16 31  1  0  0  0
 17 18  1  0  0  0
 17101  1  0  0  0
 18 19  2  0  0  0
 18102  1  0  0  0
 19 20  1  0  0  0
 19 24  1  0  0  0
 20 21  2  0  0  0
 20103  1  0  0  0
 21 23  1  0  0  0
 22 28  1  0  0  0
 22 32  2  0  0  0
 26 27  1  0  0  0
 28104  1  0  0  0
 28105  1  0  0  0
 29106  1  0  0  0
 29107  1  0  0  0
 33 34  1  0  0  0
 33 66  1  0  0  0
 33 70  2  0  0  0
 34 36  1  0  0  0
 34 59  1  0  0  0
 34108  1  0  0  0
 35 44  2  0  0  0
 35 45  1  0  0  0
 35 68  1  0  0  0
 36 56  1  0  0  0
 36109  1  0  0  0
 37 39  1  0  0  0
 37 47  1  0  0  0
 37 66  1  0  0  0
 37110  1  0  0  0
 38 43  2  0  0  0
 38 46  1  0  0  0
 38 47  1  0  0  0
 39 64  1  0  0  0
 39 67  2  0  0  0
 40 52  1  0  0  0
 40 53  2  0  0  0
 40 58  1  0  0  0
 41111  1  0  0  0
 41112  1  0  0  0
 41113  1  0  0  0
 41 48  1  0  0  0
 42 43  1  0  0  0
 42 66  1  0  0  0
 42114  1  0  0  0
 42115  1  0  0  0
 43 44  1  0  0  0
 44116  1  0  0  0
 45 46  2  0  0  0
 45117  1  0  0  0
 46118  1  0  0  0
 47119  1  0  0  0
 47120  1  0  0  0
 48 56  1  0  0  0
 48 65  1  0  0  0
 48121  1  0  0  0
 49 50  1  0  0  0
 49 53  1  0  0  0
 49 64  1  0  0  0
 49122  1  0  0  0
 50 51  1  0  0  0
 50123  1  0  0  0
 50124  1  0  0  0
 51 52  1  0  0  0
 51125  1  0  0  0
 51126  1  0  0  0
 52127  1  0  0  0
 52128  1  0  0  0
 53 54  1  0  0  0
 54 55  2  0  0  0
 54129  1  0  0  0
 55 57  1  0  0  0
 55130  1  0  0  0
 56 69  2  0  0  0
 57 58  2  0  0  0
 57131  1  0  0  0
 58132  1  0  0  0
 59 60  1  0  0  0
 59 61  1  0  0  0
 59 62  1  0  0  0
 60133  1  0  0  0
 60134  1  0  0  0
 60135  1  0  0  0
 61136  1  0  0  0
 61137  1  0  0  0
 61138  1  0  0  0
 62139  1  0  0  0
 62140  1  0  0  0
 62141  1  0  0  0
 63 65  1  0  0  0
 63142  1  0  0  0
 63143  1  0  0  0
 63144  1  0  0  0
 64145  1  0  0  0
 65146  1  0  0  0
 68 81  1  0  0  0
 71 72  2  0  0  0
 71 73  1  0  0  0
 71147  1  0  0  0
 72 74  1  0  0  0
 72148  1  0  0  0
 73 75  2  0  0  0
 73149  1  0  0  0
 74 76  2  0  0  0
 74 82  1  0  0  0
 75 76  1  0  0  0
 75 83  1  0  0  0
 76 84  1  0  0  0
 77 81  1  0  0  0
 77 85  1  0  0  0
 77 87  2  0  0  0
 78 79  1  0  0  0
 78 80  1  0  0  0
 78150  1  0  0  0
 78151  1  0  0  0
 79 81  1  0  0  0
 79152  1  0  0  0
 79153  1  0  0  0
 80 85  1  0  0  0
 80154  1  0  0  0
 80155  1  0  0  0
 81156  1  0  0  0
 82157  1  0  0  0
 82158  1  0  0  0
 82159  1  0  0  0
 83 85  1  0  0  0
 83160  1  0  0  0
 83161  1  0  0  0
 84 86  1  0  0  0
 84162  1  0  0  0
 84163  1  0  0  0
 86164  1  0  0  0
M  ISO  4   1 100  68 101  81 101  86 100
M  END
> <chiral flag>
0

> <version>
0

> <s_m_source_file>
/data/baiqing/PycharmProjects/Reinvent-master-3.2/result/LINK_invent/BTK/process_docking_weight1_custom_product_contain_oxygen_bond_distance_aromatic_linkinvent_7_9_3/rearranged_h_0042.sdf

> <i_m_source_file_index>
11

> <r_mmod_Potential_Energy-OPLS-2005>
340.431457519531

> <r_mmod_Stretch_Energy-OPLS-2005>
186.283142089844

> <r_mmod_Bend_Energy-OPLS-2005>
231.342987060547

> <r_mmod_Torsional_Energy-OPLS-2005>
275.912109375

> <r_mmod_Improper_Torsional_Energy-OPLS-2005>
6.1631965637207

> <r_mmod_Van_der_Waal_Energy-OPLS-2005>
139.273300170898

> <r_mmod_Electrostatic_Energy-OPLS-2005>
-371.861907958984

> <r_mmod_Solvation_Energy-OPLS-2005>
-234.721588134766

> <b_mmod_Minimization_Converged-OPLS-2005>
0

> <r_mmod_RMS_Derivative-OPLS-2005>
9.87630748748779

$$$$
11
                    3D
 Structure written by MMmdl.
167176  0  0  1  0            999 V2000
  -30.6321  -14.6625   20.5275 C   0  0  0  0  0  0
  -30.4267  -12.4167   19.4638 C   0  0  0  0  0  0
  -29.5007  -12.5071   18.2289 C   0  0  0  0  0  0
  -28.0208  -12.3496   18.6348 C   0  0  0  0  0  0
  -27.6402  -13.2278   19.8567 C   0  0  2  0  0  0
  -28.6813  -13.1091   20.9954 C   0  0  0  0  0  0
  -25.2474  -13.8193   20.5672 C   0  0  0  0  0  0
  -24.1790  -13.0402   20.9185 C   0  0  0  0  0  0
  -24.6386  -11.6883   20.8726 C   0  0  0  0  0  0
  -23.9081  -10.4256   21.0384 C   0  0  0  0  0  0
  -24.3622   -9.4187   21.9166 C   0  0  0  0  0  0
  -23.6288   -8.2238   22.0740 C   0  0  0  0  0  0
  -22.4264   -8.0271   21.3547 C   0  0  0  0  0  0
  -21.9913   -9.0238   20.4664 C   0  0  0  0  0  0
  -22.7250  -10.2108   20.3050 C   0  0  0  0  0  0
  -21.6866   -6.0756   22.5296 C   0  0  0  0  0  0
  -21.4024   -6.5646   23.8234 C   0  0  0  0  0  0
  -21.3663   -5.6780   24.9178 C   0  0  0  0  0  0
  -21.6062   -4.3044   24.7228 C   0  0  0  0  0  0
  -21.8819   -3.8151   23.4337 C   0  0  0  0  0  0
  -21.9193   -4.6981   22.3405 C   0  0  0  0  0  0
  -22.7818  -13.5170   21.1891 C   0  0  0  0  0  0
  -22.1657   -4.2194   21.0975 F   0  0  0  0  0  0
  -21.5641   -3.4513   25.7725 F   0  0  0  0  0  0
  -30.0035  -13.4459   20.4376 N   0  0  0  0  0  0
  -26.2902  -12.9403   20.3283 N   0  0  0  0  0  0
  -25.9307  -11.6534   20.5729 N   0  0  0  0  0  0
  -22.0528  -12.8112   22.0458 N   0  0  0  0  0  0
  -25.4076  -15.1941   20.4152 N   0  0  0  0  0  0
  -31.7707  -14.8225   20.0780 O   0  0  0  0  0  0
  -21.6628   -6.8873   21.4250 O   0  0  0  0  0  0
  -22.3481  -14.5477   20.6771 O   0  0  0  0  0  0
  -24.6296  -31.8627   23.2027 C   0  0  0  0  0  0
  -25.9129  -32.4803   23.8364 C   0  0  1  0  0  0
  -27.2190  -27.3004   20.1222 C   0  0  0  0  0  0
  -25.5916  -33.8603   24.2290 N   0  0  0  0  0  0
  -23.4240  -30.4924   21.5476 C   0  0  2  0  0  0
  -24.8635  -28.9464   20.1235 C   0  0  0  0  0  0
  -22.7491  -29.4675   22.4931 C   0  0  0  0  0  0
  -18.0312  -28.1380   22.8503 C   0  0  0  0  0  0
  -24.1487  -36.7293   23.2648 C   0  0  0  0  0  0
  -25.9711  -30.7910   21.3739 C   0  0  0  0  0  0
  -26.0425  -29.4203   20.7101 C   0  0  0  0  0  0
  -27.2266  -28.6169   20.6859 C   0  0  0  0  0  0
  -25.9860  -26.8689   19.5711 C   0  0  0  0  0  0
  -24.8343  -27.6702   19.5531 C   0  0  0  0  0  0
  -23.6402  -29.8363   20.1637 C   0  0  0  0  0  0
  -25.4120  -36.3119   24.0345 C   0  0  1  0  0  0
  -20.5912  -28.3717   23.1266 C   0  0  2  0  0  0
  -20.6806  -26.9435   22.5413 C   0  0  0  0  0  0
  -19.5764  -26.6390   21.5240 C   0  0  0  0  0  0
  -18.1946  -26.7928   22.1635 C   0  0  0  0  0  0
  -19.1561  -28.8859   23.2892 C   0  0  0  0  0  0
  -18.9473  -30.1456   23.8915 C   0  0  0  0  0  0
  -17.6468  -30.6592   24.0568 C   0  0  0  0  0  0
  -25.9047  -34.9481   23.5129 C   0  0  0  0  0  0
  -16.5362  -29.9088   23.6326 C   0  0  0  0  0  0
  -16.7289  -28.6497   23.0355 C   0  0  0  0  0  0
  -26.4490  -31.6609   25.0737 C   0  0  0  0  0  0
  -25.3682  -31.3754   26.1437 C   0  0  0  0  0  0
  -27.0312  -30.3006   24.6196 C   0  0  0  0  0  0
  -27.6049  -32.4332   25.7471 C   0  0  0  0  0  0
  -27.5595  -37.1807   24.8462 C   0  0  0  0  0  0
  -21.4201  -29.3063   22.3637 N   0  0  0  0  0  0
  -26.4314  -37.3798   23.9405 N   0  0  0  0  0  0
  -24.6951  -31.0649   22.0971 N   0  0  0  0  0  0
  -23.4212  -28.8205   23.3020 O   0  0  0  0  0  0
  -28.3470  -26.4444   20.1365 O   0  0  0  0  0  0
  -26.5643  -34.8939   22.4702 O   0  0  0  0  0  0
  -23.5457  -32.1422   23.7354 O   0  0  0  0  0  0
  -30.5399  -19.2259   19.6706 C   0  0  0  0  0  0
  -30.4909  -17.8109   19.8038 C   0  0  0  0  0  0
  -30.1987  -20.1046   20.7300 C   0  0  0  0  0  0
  -29.8092  -19.4798   21.9557 C   0  0  0  0  0  0
  -29.7632  -18.0358   22.1060 C   0  0  0  0  0  0
  -30.0902  -17.1666   21.0020 C   0  0  0  0  0  0
  -29.3183  -24.0114   20.4022 C   0  0  0  0  0  0
  -27.0257  -23.5073   18.0930 C   0  0  0  0  0  0
  -27.7005  -22.1697   18.4023 C   0  0  0  0  0  0
  -27.9424  -24.7160   18.3651 C   0  0  0  0  0  0
  -27.9558  -21.9829   19.9056 C   0  0  0  0  0  0
  -28.1615  -24.9798   19.8813 C   0  0  2  0  0  0
  -29.4749  -20.4130   23.1206 C   0  0  0  0  0  0
  -30.3681  -21.6753   20.5540 C   0  0  0  0  0  0
  -29.3823  -17.4458   23.4862 C   0  0  0  0  0  0
  -29.2046  -22.6249   20.3303 N   0  0  0  0  0  0
  -29.9024  -15.7048   21.0367 N   0  0  0  0  0  0
  -30.3476  -24.5371   20.8363 O   0  0  0  0  0  0
  -28.0924  -17.6711   23.7383 F   0  0  0  0  0  0
  -29.5795  -16.1355   23.6097 F   0  0  0  0  0  0
  -30.1090  -18.0161   24.4509 F   0  0  0  0  0  0
  -31.4690  -12.5410   19.1592 H   0  0  0  0  0  0
  -30.3634  -11.4255   19.9130 H   0  0  0  0  0  0
  -29.7645  -11.7404   17.5013 H   0  0  0  0  0  0
  -29.6497  -13.4664   17.7330 H   0  0  0  0  0  0
  -27.8469  -11.2959   18.8604 H   0  0  0  0  0  0
  -27.3703  -12.5845   17.7923 H   0  0  0  0  0  0
  -27.6471  -14.2614   19.5064 H   0  0  0  0  0  0
  -28.6942  -12.0966   21.4015 H   0  0  0  0  0  0
  -28.4079  -13.7635   21.8244 H   0  0  0  0  0  0
  -25.2781   -9.5667   22.4708 H   0  0  0  0  0  0
  -24.0032   -7.4621   22.7415 H   0  0  0  0  0  0
  -21.0876   -8.8738   19.8966 H   0  0  0  0  0  0
  -22.3705  -10.9624   19.6134 H   0  0  0  0  0  0
  -21.2011   -7.6150   23.9753 H   0  0  0  0  0  0
  -21.1503   -6.0511   25.9097 H   0  0  0  0  0  0
  -22.0603   -2.7622   23.2827 H   0  0  0  0  0  0
  -22.4132  -11.9718   22.4759 H   0  0  0  0  0  0
  -21.1225  -13.1206   22.2837 H   0  0  0  0  0  0
  -24.6278  -15.8308   20.5405 H   0  0  0  0  0  0
  -26.2553  -15.6598   20.1176 H   0  0  0  0  0  0
  -26.7194  -32.5465   23.1115 H   0  0  0  0  0  0
  -24.9975  -33.9723   25.0377 H   0  0  0  0  0  0
  -22.7212  -31.3168   21.4092 H   0  0  0  0  0  0
  -23.3779  -35.9598   23.3325 H   0  0  0  0  0  0
  -24.3572  -36.8883   22.2056 H   0  0  0  0  0  0
  -23.7202  -37.6478   23.6655 H   0  0  0  0  0  0
  -26.1185  -31.5597   20.6139 H   0  0  0  0  0  0
  -26.8464  -30.8265   22.0138 H   0  0  0  0  0  0
  -28.1362  -28.9907   21.1330 H   0  0  0  0  0  0
  -25.8443  -25.8831   19.1684 H   0  0  0  0  0  0
  -23.9183  -27.2780   19.1364 H   0  0  0  0  0  0
  -23.7797  -30.6173   19.4155 H   0  0  0  0  0  0
  -22.7535  -29.2840   19.8498 H   0  0  0  0  0  0
  -25.1321  -36.1988   25.0847 H   0  0  0  0  0  0
  -21.0049  -28.3313   24.1371 H   0  0  0  0  0  0
  -20.5753  -26.2335   23.3633 H   0  0  0  0  0  0
  -21.6663  -26.7483   22.1175 H   0  0  0  0  0  0
  -19.6929  -25.6312   21.1254 H   0  0  0  0  0  0
  -19.6683  -27.3217   20.6778 H   0  0  0  0  0  0
  -17.4237  -26.6730   21.4010 H   0  0  0  0  0  0
  -18.0292  -26.0060   22.9002 H   0  0  0  0  0  0
  -19.7936  -30.7278   24.2291 H   0  0  0  0  0  0
  -17.5009  -31.6271   24.5154 H   0  0  0  0  0  0
  -15.5352  -30.2991   23.7618 H   0  0  0  0  0  0
  -15.8695  -28.0817   22.7052 H   0  0  0  0  0  0
  -24.5793  -30.7214   25.7707 H   0  0  0  0  0  0
  -24.8966  -32.2939   26.4926 H   0  0  0  0  0  0
  -25.7941  -30.8809   27.0171 H   0  0  0  0  0  0
  -26.2882  -29.6749   24.1215 H   0  0  0  0  0  0
  -27.3982  -29.7274   25.4725 H   0  0  0  0  0  0
  -27.8791  -30.4277   23.9450 H   0  0  0  0  0  0
  -27.2654  -33.3593   26.2109 H   0  0  0  0  0  0
  -28.3787  -32.6937   25.0247 H   0  0  0  0  0  0
  -28.0800  -31.8424   26.5304 H   0  0  0  0  0  0
  -28.2646  -38.0070   24.7522 H   0  0  0  0  0  0
  -28.1064  -36.2618   24.6304 H   0  0  0  0  0  0
  -27.2318  -37.1476   25.8860 H   0  0  0  0  0  0
  -20.9388  -29.8757   21.6819 H   0  0  0  0  0  0
  -26.0219  -38.2890   24.1363 H   0  0  0  0  0  0
  -30.8537  -19.6438   18.7247 H   0  0  0  0  0  0
  -30.7514  -17.2058   18.9479 H   0  0  0  0  0  0
  -26.1034  -23.5843   18.6720 H   0  0  0  0  0  0
  -26.7137  -23.5099   17.0485 H   0  0  0  0  0  0
  -28.6280  -22.0784   17.8362 H   0  0  0  0  0  0
  -27.0638  -21.3583   18.0467 H   0  0  0  0  0  0
  -27.5205  -25.5914   17.8745 H   0  0  0  0  0  0
  -28.8975  -24.5800   17.8565 H   0  0  0  0  0  0
  -27.9581  -20.9154   20.1136 H   0  0  0  0  0  0
  -27.1202  -22.3494   20.5019 H   0  0  0  0  0  0
  -27.2773  -24.6850   20.4472 H   0  0  0  0  0  0
  -30.3835  -20.7164   23.6413 H   0  0  0  0  0  0
  -28.8064  -19.9716   23.8532 H   0  0  0  0  0  0
  -28.9740  -21.3171   22.7764 H   0  0  0  0  0  0
  -31.0409  -21.8296   19.7078 H   0  0  0  0  0  0
  -30.9419  -22.0277   21.4131 H   0  0  0  0  0  0
  -29.0661  -15.4029   21.5187 H   0  0  0  0  0  0
  1 25  1  0  0  0
  1 30  2  0  0  0
  1 87  1  0  0  0
  2  3  1  0  0  0
  2 25  1  0  0  0
  2 92  1  0  0  0
  2 93  1  0  0  0
  3  4  1  0  0  0
  3 94  1  0  0  0
  3 95  1  0  0  0
  4  5  1  0  0  0
  4 96  1  0  0  0
  4 97  1  0  0  0
  5  6  1  0  0  0
  5 26  1  0  0  0
  5 98  1  0  0  0
  6 25  1  0  0  0
  6 99  1  0  0  0
  6100  1  0  0  0
  7  8  2  0  0  0
  7 26  1  0  0  0
  7 29  1  0  0  0
  8  9  1  0  0  0
  8 22  1  0  0  0
  9 10  1  0  0  0
  9 27  2  0  0  0
 10 11  2  0  0  0
 10 15  1  0  0  0
 11 12  1  0  0  0
 11101  1  0  0  0
 12 13  2  0  0  0
 12102  1  0  0  0
 13 14  1  0  0  0
 13 31  1  0  0  0
 14 15  2  0  0  0
 14103  1  0  0  0
 15104  1  0  0  0
 16 17  2  0  0  0
 16 21  1  0  0  0
 16 31  1  0  0  0
 17 18  1  0  0  0
 17105  1  0  0  0
 18 19  2  0  0  0
 18106  1  0  0  0
 19 20  1  0  0  0
 19 24  1  0  0  0
 20 21  2  0  0  0
 20107  1  0  0  0
 21 23  1  0  0  0
 22 28  1  0  0  0
 22 32  2  0  0  0
 26 27  1  0  0  0
 28108  1  0  0  0
 28109  1  0  0  0
 29110  1  0  0  0
 29111  1  0  0  0
 33 34  1  0  0  0
 33 66  1  0  0  0
 33 70  2  0  0  0
 34 36  1  0  0  0
 34 59  1  0  0  0
 34112  1  0  0  0
 35 44  2  0  0  0
 35 45  1  0  0  0
 35 68  1  0  0  0
 36 56  1  0  0  0
 36113  1  0  0  0
 37 39  1  0  0  0
 37 47  1  0  0  0
 37 66  1  0  0  0
 37114  1  0  0  0
 38 43  2  0  0  0
 38 46  1  0  0  0
 38 47  1  0  0  0
 39 64  1  0  0  0
 39 67  2  0  0  0
 40 52  1  0  0  0
 40 53  2  0  0  0
 40 58  1  0  0  0
 41115  1  0  0  0
 41116  1  0  0  0
 41117  1  0  0  0
 41 48  1  0  0  0
 42 43  1  0  0  0
 42 66  1  0  0  0
 42118  1  0  0  0
 42119  1  0  0  0
 43 44  1  0  0  0
 44120  1  0  0  0
 45 46  2  0  0  0
 45121  1  0  0  0
 46122  1  0  0  0
 47123  1  0  0  0
 47124  1  0  0  0
 48 56  1  0  0  0
 48 65  1  0  0  0
 48125  1  0  0  0
 49 50  1  0  0  0
 49 53  1  0  0  0
 49 64  1  0  0  0
 49126  1  0  0  0
 50 51  1  0  0  0
 50127  1  0  0  0
 50128  1  0  0  0
 51 52  1  0  0  0
 51129  1  0  0  0
 51130  1  0  0  0
 52131  1  0  0  0
 52132  1  0  0  0
 53 54  1  0  0  0
 54 55  2  0  0  0
 54133  1  0  0  0
 55 57  1  0  0  0
 55134  1  0  0  0
 56 69  2  0  0  0
 57 58  2  0  0  0
 57135  1  0  0  0
 58136  1  0  0  0
 59 60  1  0  0  0
 59 61  1  0  0  0
 59 62  1  0  0  0
 60137  1  0  0  0
 60138  1  0  0  0
 60139  1  0  0  0
 61140  1  0  0  0
 61141  1  0  0  0
 61142  1  0  0  0
 62143  1  0  0  0
 62144  1  0  0  0
 62145  1  0  0  0
 63 65  1  0  0  0
 63146  1  0  0  0
 63147  1  0  0  0
 63148  1  0  0  0
 64149  1  0  0  0
 65150  1  0  0  0
 68 82  1  0  0  0
 71 72  2  0  0  0
 71 73  1  0  0  0
 71151  1  0  0  0
 72 76  1  0  0  0
 72152  1  0  0  0
 73 74  2  0  0  0
 73 84  1  0  0  0
 74 75  1  0  0  0
 74 83  1  0  0  0
 75 76  2  0  0  0
 75 85  1  0  0  0
 76 87  1  0  0  0
 77 82  1  0  0  0
 77 86  1  0  0  0
 77 88  2  0  0  0
 78 79  1  0  0  0
 78 80  1  0  0  0
 78153  1  0  0  0
 78154  1  0  0  0
 79 81  1  0  0  0
 79155  1  0  0  0
 79156  1  0  0  0
 80 82  1  0  0  0
 80157  1  0  0  0
 80158  1  0  0  0
 81 86  1  0  0  0
 81159  1  0  0  0
 81160  1  0  0  0
 82161  1  0  0  0
 83162  1  0  0  0
 83163  1  0  0  0
 83164  1  0  0  0
 84 86  1  0  0  0
 84165  1  0  0  0
 84166  1  0  0  0
 85 89  1  0  0  0
 85 90  1  0  0  0
 85 91  1  0  0  0
 87167  1  0  0  0
M  ISO  4   1 100  68 101  82 101  87 100
M  END
> <chiral flag>
0

> <version>
0

> <s_m_source_file>
/data/baiqing/PycharmProjects/Reinvent-master-3.2/result/LINK_invent/BTK/process_docking_weight1_custom_product_contain_oxygen_bond_distance_aromatic_linkinvent_7_9_3/rearranged_h_0042.sdf

> <i_m_source_file_index>
12

> <r_mmod_Potential_Energy-OPLS-2005>
283.467620849609

> <r_mmod_Stretch_Energy-OPLS-2005>
107.952987670898

> <r_mmod_Bend_Energy-OPLS-2005>
148.610809326172

> <r_mmod_Torsional_Energy-OPLS-2005>
264.948577880859

> <r_mmod_Improper_Torsional_Energy-OPLS-2005>
3.56104803085327

> <r_mmod_Van_der_Waal_Energy-OPLS-2005>
170.955505371094

> <r_mmod_Electrostatic_Energy-OPLS-2005>
-250.854248046875

> <r_mmod_Solvation_Energy-OPLS-2005>
-218.109466552734

> <b_mmod_Minimization_Converged-OPLS-2005>
0

> <r_mmod_RMS_Derivative-OPLS-2005>
5.06295204162598

$$$$
12
                    3D
 Structure written by MMmdl.
162170  0  0  1  0            999 V2000
  -30.6836  -14.5497   20.5091 C   0  0  0  0  0  0
  -30.4275  -12.3291   19.4554 C   0  0  0  0  0  0
  -29.5072  -12.4908   18.2264 C   0  0  0  0  0  0
  -28.0279  -12.3510   18.6364 C   0  0  0  0  0  0
  -27.6633  -13.2148   19.8741 C   0  0  2  0  0  0
  -28.7059  -13.0433   21.0048 C   0  0  0  0  0  0
  -25.2599  -13.8177   20.5701 C   0  0  0  0  0  0
  -24.1850  -13.0451   20.9192 C   0  0  0  0  0  0
  -24.6421  -11.6926   20.8747 C   0  0  0  0  0  0
  -23.9080  -10.4305   21.0410 C   0  0  0  0  0  0
  -24.3624   -9.4210   21.9181 C   0  0  0  0  0  0
  -23.6305   -8.2242   22.0737 C   0  0  0  0  0  0
  -22.4283   -8.0289   21.3541 C   0  0  0  0  0  0
  -21.9929   -9.0262   20.4632 C   0  0  0  0  0  0
  -22.7261  -10.2142   20.3050 C   0  0  0  0  0  0
  -21.6848   -6.0748   22.5285 C   0  0  0  0  0  0
  -21.4012   -6.5642   23.8220 C   0  0  0  0  0  0
  -21.3657   -5.6786   24.9176 C   0  0  0  0  0  0
  -21.6044   -4.3051   24.7225 C   0  0  0  0  0  0
  -21.8823   -3.8153   23.4342 C   0  0  0  0  0  0
  -21.9196   -4.6978   22.3402 C   0  0  0  0  0  0
  -22.7876  -13.5247   21.1860 C   0  0  0  0  0  0
  -22.1671   -4.2165   21.0979 F   0  0  0  0  0  0
  -21.5624   -3.4531   25.7731 F   0  0  0  0  0  0
  -30.0366  -13.3457   20.4503 N   0  0  0  0  0  0
  -26.3048  -12.9366   20.3376 N   0  0  0  0  0  0
  -25.9357  -11.6521   20.5780 N   0  0  0  0  0  0
  -22.0501  -12.8227   22.0393 N   0  0  0  0  0  0
  -25.4311  -15.1888   20.4104 N   0  0  0  0  0  0
  -31.7921  -14.7134   20.0000 O   0  0  0  0  0  0
  -21.6645   -6.8902   21.4247 O   0  0  0  0  0  0
  -22.3574  -14.5564   20.6709 O   0  0  0  0  0  0
  -24.6229  -31.8635   23.2032 C   0  0  0  0  0  0
  -25.9084  -32.4796   23.8343 C   0  0  1  0  0  0
  -27.2214  -27.3576   20.0890 C   0  0  0  0  0  0
  -25.5932  -33.8593   24.2281 N   0  0  0  0  0  0
  -23.4130  -30.4927   21.5439 C   0  0  2  0  0  0
  -24.8544  -28.9533   20.1089 C   0  0  0  0  0  0
  -22.7462  -29.4666   22.4897 C   0  0  0  0  0  0
  -18.0296  -28.1383   22.8503 C   0  0  0  0  0  0
  -24.1486  -36.7272   23.2627 C   0  0  0  0  0  0
  -25.9527  -30.8008   21.3719 C   0  0  0  0  0  0
  -26.0228  -29.4320   20.7143 C   0  0  0  0  0  0
  -27.2055  -28.6416   20.7040 C   0  0  0  0  0  0
  -26.0293  -26.9324   19.4516 C   0  0  0  0  0  0
  -24.8560  -27.7043   19.4742 C   0  0  0  0  0  0
  -23.6262  -29.8321   20.1575 C   0  0  0  0  0  0
  -25.4111  -36.3086   24.0334 C   0  0  1  0  0  0
  -20.5910  -28.3675   23.1272 C   0  0  2  0  0  0
  -20.6797  -26.9406   22.5396 C   0  0  0  0  0  0
  -19.5764  -26.6390   21.5199 C   0  0  0  0  0  0
  -18.1940  -26.7932   22.1615 C   0  0  0  0  0  0
  -19.1556  -28.8834   23.2898 C   0  0  0  0  0  0
  -18.9486  -30.1445   23.8910 C   0  0  0  0  0  0
  -17.6488  -30.6592   24.0582 C   0  0  0  0  0  0
  -25.9055  -34.9466   23.5108 C   0  0  0  0  0  0
  -16.5376  -29.9102   23.6346 C   0  0  0  0  0  0
  -16.7285  -28.6519   23.0361 C   0  0  0  0  0  0
  -26.4492  -31.6593   25.0694 C   0  0  0  0  0  0
  -25.3756  -31.3751   26.1439 C   0  0  0  0  0  0
  -27.0295  -30.3016   24.6088 C   0  0  0  0  0  0
  -27.6037  -32.4317   25.7475 C   0  0  0  0  0  0
  -27.5575  -37.1790   24.8472 C   0  0  0  0  0  0
  -21.4168  -29.3064   22.3659 N   0  0  0  0  0  0
  -26.4288  -37.3786   23.9411 N   0  0  0  0  0  0
  -24.6818  -31.0700   22.0967 N   0  0  0  0  0  0
  -23.4210  -28.8193   23.2942 O   0  0  0  0  0  0
  -28.3593  -26.5427   20.1265 O   0  0  0  0  0  0
  -26.5612  -34.8942   22.4663 O   0  0  0  0  0  0
  -23.5408  -32.1389   23.7416 O   0  0  0  0  0  0
  -32.3122  -17.4093   21.4221 C   0  0  0  0  0  0
  -33.6120  -19.4006   20.9726 C   0  0  0  0  0  0
  -33.5303  -18.1038   21.4944 C   0  0  0  0  0  0
  -31.1602  -17.9755   20.8206 C   0  0  0  0  0  0
  -31.2076  -19.3682   20.4114 C   0  0  0  0  0  0
  -32.4743  -20.0262   20.4392 C   0  0  0  0  0  0
  -34.7615  -17.4339   22.0743 C   0  0  0  0  0  0
  -29.9568  -17.0302   20.5453 C   0  0  0  0  0  0
  -29.9874  -20.1915   19.8915 C   0  0  0  0  0  0
  -29.2326  -24.0883   20.3110 C   0  0  0  0  0  0
  -29.0292  -22.6002   19.8076 C   0  0  0  0  0  0
  -28.2162  -25.1369   19.7332 C   0  0  0  0  0  0
  -29.9647  -15.5972   20.9869 N   0  0  0  0  0  0
  -29.8417  -21.5549   20.5261 N   0  3  0  0  0  0
  -32.7086  -21.6129   19.7847 Cl  0  0  0  0  0  0
  -31.4751  -12.4105   19.1588 H   0  0  0  0  0  0
  -30.3209  -11.3307   19.8828 H   0  0  0  0  0  0
  -29.7574  -11.7431   17.4722 H   0  0  0  0  0  0
  -29.6733  -13.4630   17.7609 H   0  0  0  0  0  0
  -27.8473  -11.2984   18.8564 H   0  0  0  0  0  0
  -27.3789  -12.6000   17.7964 H   0  0  0  0  0  0
  -27.6967  -14.2541   19.5466 H   0  0  0  0  0  0
  -28.6890  -12.0212   21.3871 H   0  0  0  0  0  0
  -28.4634  -13.6801   21.8557 H   0  0  0  0  0  0
  -25.2771   -9.5685   22.4750 H   0  0  0  0  0  0
  -24.0011   -7.4638   22.7450 H   0  0  0  0  0  0
  -21.0866   -8.8799   19.8934 H   0  0  0  0  0  0
  -22.3739  -10.9680   19.6152 H   0  0  0  0  0  0
  -21.1995   -7.6144   23.9737 H   0  0  0  0  0  0
  -21.1472   -6.0503   25.9081 H   0  0  0  0  0  0
  -22.0601   -2.7617   23.2832 H   0  0  0  0  0  0
  -22.4107  -11.9887   22.4775 H   0  0  0  0  0  0
  -21.1105  -13.1232   22.2566 H   0  0  0  0  0  0
  -24.6578  -15.8386   20.5028 H   0  0  0  0  0  0
  -26.2809  -15.6287   20.0816 H   0  0  0  0  0  0
  -26.7144  -32.5459   23.1090 H   0  0  0  0  0  0
  -25.0170  -33.9736   25.0486 H   0  0  0  0  0  0
  -22.7077  -31.3138   21.4042 H   0  0  0  0  0  0
  -23.3774  -35.9578   23.3311 H   0  0  0  0  0  0
  -24.3608  -36.8868   22.2043 H   0  0  0  0  0  0
  -23.7223  -37.6466   23.6645 H   0  0  0  0  0  0
  -26.0882  -31.5642   20.6051 H   0  0  0  0  0  0
  -26.8359  -30.8435   21.9992 H   0  0  0  0  0  0
  -28.1016  -29.0062   21.1844 H   0  0  0  0  0  0
  -25.9686  -25.9943   18.9215 H   0  0  0  0  0  0
  -23.9625  -27.3404   18.9856 H   0  0  0  0  0  0
  -23.7461  -30.6085   19.4002 H   0  0  0  0  0  0
  -22.7480  -29.2583   19.8552 H   0  0  0  0  0  0
  -25.1309  -36.1926   25.0834 H   0  0  0  0  0  0
  -21.0012  -28.3249   24.1389 H   0  0  0  0  0  0
  -20.5680  -26.2293   23.3597 H   0  0  0  0  0  0
  -21.6665  -26.7441   22.1194 H   0  0  0  0  0  0
  -19.6934  -25.6299   21.1221 H   0  0  0  0  0  0
  -19.6704  -27.3209   20.6740 H   0  0  0  0  0  0
  -17.4221  -26.6690   21.4010 H   0  0  0  0  0  0
  -18.0355  -26.0065   22.9008 H   0  0  0  0  0  0
  -19.7970  -30.7267   24.2258 H   0  0  0  0  0  0
  -17.5060  -31.6272   24.5184 H   0  0  0  0  0  0
  -15.5379  -30.3029   23.7639 H   0  0  0  0  0  0
  -15.8695  -28.0846   22.7054 H   0  0  0  0  0  0
  -24.5938  -30.7072   25.7818 H   0  0  0  0  0  0
  -24.8944  -32.2929   26.4818 H   0  0  0  0  0  0
  -25.8122  -30.8995   27.0227 H   0  0  0  0  0  0
  -26.2820  -29.6810   24.1122 H   0  0  0  0  0  0
  -27.4043  -29.7222   25.4529 H   0  0  0  0  0  0
  -27.8702  -30.4328   23.9272 H   0  0  0  0  0  0
  -27.2619  -33.3614   26.2035 H   0  0  0  0  0  0
  -28.3875  -32.6860   25.0334 H   0  0  0  0  0  0
  -28.0662  -31.8442   26.5414 H   0  0  0  0  0  0
  -28.2591  -38.0085   24.7540 H   0  0  0  0  0  0
  -28.1075  -36.2624   24.6289 H   0  0  0  0  0  0
  -27.2318  -37.1445   25.8882 H   0  0  0  0  0  0
  -20.9305  -29.8812   21.6928 H   0  0  0  0  0  0
  -26.0171  -38.2855   24.1439 H   0  0  0  0  0  0
  -32.2969  -16.3965   21.7940 H   0  0  0  0  0  0
  -34.5556  -19.9279   20.9720 H   0  0  0  0  0  0
  -34.5018  -16.7972   22.9209 H   0  0  0  0  0  0
  -35.4844  -18.1751   22.4194 H   0  0  0  0  0  0
  -35.2448  -16.8170   21.3154 H   0  0  0  0  0  0
  -29.7945  -17.0236   19.4654 H   0  0  0  0  0  0
  -29.0613  -17.4816   20.9733 H   0  0  0  0  0  0
  -29.0600  -19.6362   20.0260 H   0  0  0  0  0  0
  -30.1193  -20.3086   18.8152 H   0  0  0  0  0  0
  -30.2480  -24.4136   20.0787 H   0  0  0  0  0  0
  -29.1472  -24.1095   21.3982 H   0  0  0  0  0  0
  -29.2709  -22.5673   18.7442 H   0  0  0  0  0  0
  -27.9795  -22.3179   19.8894 H   0  0  0  0  0  0
  -27.2458  -24.7595   20.0526 H   0  0  0  0  0  0
  -28.2365  -25.0926   18.6442 H   0  0  0  0  0  0
  -29.1188  -15.3127   21.4568 H   0  0  0  0  0  0
  -30.7828  -21.9145   20.5928 H   0  0  0  0  0  0
  -29.4891  -21.4382   21.4626 H   0  0  0  0  0  0
  1 25  1  0  0  0
  1 30  2  0  0  0
  1 83  1  0  0  0
  2  3  1  0  0  0
  2 25  1  0  0  0
  2 86  1  0  0  0
  2 87  1  0  0  0
  3  4  1  0  0  0
  3 88  1  0  0  0
  3 89  1  0  0  0
  4  5  1  0  0  0
  4 90  1  0  0  0
  4 91  1  0  0  0
  5  6  1  0  0  0
  5 26  1  0  0  0
  5 92  1  0  0  0
  6 25  1  0  0  0
  6 93  1  0  0  0
  6 94  1  0  0  0
  7  8  2  0  0  0
  7 26  1  0  0  0
  7 29  1  0  0  0
  8  9  1  0  0  0
  8 22  1  0  0  0
  9 10  1  0  0  0
  9 27  2  0  0  0
 10 11  2  0  0  0
 10 15  1  0  0  0
 11 12  1  0  0  0
 11 95  1  0  0  0
 12 13  2  0  0  0
 12 96  1  0  0  0
 13 14  1  0  0  0
 13 31  1  0  0  0
 14 15  2  0  0  0
 14 97  1  0  0  0
 15 98  1  0  0  0
 16 17  2  0  0  0
 16 21  1  0  0  0
 16 31  1  0  0  0
 17 18  1  0  0  0
 17 99  1  0  0  0
 18 19  2  0  0  0
 18100  1  0  0  0
 19 20  1  0  0  0
 19 24  1  0  0  0
 20 21  2  0  0  0
 20101  1  0  0  0
 21 23  1  0  0  0
 22 28  1  0  0  0
 22 32  2  0  0  0
 26 27  1  0  0  0
 28102  1  0  0  0
 28103  1  0  0  0
 29104  1  0  0  0
 29105  1  0  0  0
 33 34  1  0  0  0
 33 66  1  0  0  0
 33 70  2  0  0  0
 34 36  1  0  0  0
 34 59  1  0  0  0
 34106  1  0  0  0
 35 44  2  0  0  0
 35 45  1  0  0  0
 35 68  1  0  0  0
 36 56  1  0  0  0
 36107  1  0  0  0
 37 39  1  0  0  0
 37 47  1  0  0  0
 37 66  1  0  0  0
 37108  1  0  0  0
 38 43  2  0  0  0
 38 46  1  0  0  0
 38 47  1  0  0  0
 39 64  1  0  0  0
 39 67  2  0  0  0
 40 52  1  0  0  0
 40 53  2  0  0  0
 40 58  1  0  0  0
 41109  1  0  0  0
 41110  1  0  0  0
 41111  1  0  0  0
 41 48  1  0  0  0
 42 43  1  0  0  0
 42 66  1  0  0  0
 42112  1  0  0  0
 42113  1  0  0  0
 43 44  1  0  0  0
 44114  1  0  0  0
 45 46  2  0  0  0
 45115  1  0  0  0
 46116  1  0  0  0
 47117  1  0  0  0
 47118  1  0  0  0
 48 56  1  0  0  0
 48 65  1  0  0  0
 48119  1  0  0  0
 49 50  1  0  0  0
 49 53  1  0  0  0
 49 64  1  0  0  0
 49120  1  0  0  0
 50 51  1  0  0  0
 50121  1  0  0  0
 50122  1  0  0  0
 51 52  1  0  0  0
 51123  1  0  0  0
 51124  1  0  0  0
 52125  1  0  0  0
 52126  1  0  0  0
 53 54  1  0  0  0
 54 55  2  0  0  0
 54127  1  0  0  0
 55 57  1  0  0  0
 55128  1  0  0  0
 56 69  2  0  0  0
 57 58  2  0  0  0
 57129  1  0  0  0
 58130  1  0  0  0
 59 60  1  0  0  0
 59 61  1  0  0  0
 59 62  1  0  0  0
 60131  1  0  0  0
 60132  1  0  0  0
 60133  1  0  0  0
 61134  1  0  0  0
 61135  1  0  0  0
 61136  1  0  0  0
 62137  1  0  0  0
 62138  1  0  0  0
 62139  1  0  0  0
 63 65  1  0  0  0
 63140  1  0  0  0
 63141  1  0  0  0
 63142  1  0  0  0
 64143  1  0  0  0
 65144  1  0  0  0
 68 82  1  0  0  0
 71 73  2  0  0  0
 71 74  1  0  0  0
 71145  1  0  0  0
 72 73  1  0  0  0
 72 76  2  0  0  0
 72146  1  0  0  0
 73 77  1  0  0  0
 74 75  2  0  0  0
 74 78  1  0  0  0
 75 76  1  0  0  0
 75 79  1  0  0  0
 76 85  1  0  0  0
 77147  1  0  0  0
 77148  1  0  0  0
 77149  1  0  0  0
 78 83  1  0  0  0
 78150  1  0  0  0
 78151  1  0  0  0
 79 84  1  0  0  0
 79152  1  0  0  0
 79153  1  0  0  0
 80 81  1  0  0  0
 80 82  1  0  0  0
 80154  1  0  0  0
 80155  1  0  0  0
 81 84  1  0  0  0
 81156  1  0  0  0
 81157  1  0  0  0
 82158  1  0  0  0
 82159  1  0  0  0
 83160  1  0  0  0
 84161  1  0  0  0
 84162  1  0  0  0
M  CHG  1  84   1
M  ISO  4   1 100  68 101  82 101  83 100
M  END
> <chiral flag>
0

> <version>
0

> <s_m_source_file>
/data/baiqing/PycharmProjects/Reinvent-master-3.2/result/LINK_invent/BTK/process_docking_weight1_custom_product_contain_oxygen_bond_distance_aromatic_linkinvent_7_9_3/rearranged_h_0042.sdf

> <i_m_source_file_index>
13

> <r_mmod_Potential_Energy-OPLS-2005>
-232.319183349609

> <r_mmod_Stretch_Energy-OPLS-2005>
67.4217758178711

> <r_mmod_Bend_Energy-OPLS-2005>
127.566444396973

> <r_mmod_Torsional_Energy-OPLS-2005>
202.11833190918

> <r_mmod_Improper_Torsional_Energy-OPLS-2005>
6.01743364334106

> <r_mmod_Van_der_Waal_Energy-OPLS-2005>
159.071258544922

> <r_mmod_Electrostatic_Energy-OPLS-2005>
-348.550415039062

> <r_mmod_Solvation_Energy-OPLS-2005>
-475.49951171875

> <b_mmod_Minimization_Converged-OPLS-2005>
0

> <r_mmod_RMS_Derivative-OPLS-2005>
3.31654524803162

$$$$
13
                    3D
 Structure written by MMmdl.
154162  0  0  1  0            999 V2000
  -30.6119  -14.6437   20.4979 C   0  0  0  0  0  0
  -30.4403  -12.3940   19.4515 C   0  0  0  0  0  0
  -29.5094  -12.5113   18.2238 C   0  0  0  0  0  0
  -28.0320  -12.3481   18.6345 C   0  0  0  0  0  0
  -27.6553  -13.2156   19.8650 C   0  0  2  0  0  0
  -28.6990  -13.0631   20.9942 C   0  0  0  0  0  0
  -25.2572  -13.8167   20.5682 C   0  0  0  0  0  0
  -24.1836  -13.0437   20.9189 C   0  0  0  0  0  0
  -24.6400  -11.6905   20.8733 C   0  0  0  0  0  0
  -23.9064  -10.4291   21.0407 C   0  0  0  0  0  0
  -24.3616   -9.4207   21.9187 C   0  0  0  0  0  0
  -23.6293   -8.2243   22.0755 C   0  0  0  0  0  0
  -22.4276   -8.0283   21.3544 C   0  0  0  0  0  0
  -21.9910   -9.0255   20.4646 C   0  0  0  0  0  0
  -22.7236  -10.2135   20.3056 C   0  0  0  0  0  0
  -21.6853   -6.0739   22.5282 C   0  0  0  0  0  0
  -21.4013   -6.5642   23.8215 C   0  0  0  0  0  0
  -21.3658   -5.6793   24.9178 C   0  0  0  0  0  0
  -21.6045   -4.3057   24.7226 C   0  0  0  0  0  0
  -21.8817   -3.8149   23.4346 C   0  0  0  0  0  0
  -21.9193   -4.6966   22.3405 C   0  0  0  0  0  0
  -22.7857  -13.5236   21.1852 C   0  0  0  0  0  0
  -22.1663   -4.2153   21.0981 F   0  0  0  0  0  0
  -21.5628   -3.4541   25.7738 F   0  0  0  0  0  0
  -30.0145  -13.4110   20.4334 N   0  0  0  0  0  0
  -26.3002  -12.9346   20.3322 N   0  0  0  0  0  0
  -25.9330  -11.6499   20.5748 N   0  0  0  0  0  0
  -22.0495  -12.8227   22.0403 N   0  0  0  0  0  0
  -25.4287  -15.1886   20.4102 N   0  0  0  0  0  0
  -31.7689  -14.8178   20.1040 O   0  0  0  0  0  0
  -21.6639   -6.8881   21.4242 O   0  0  0  0  0  0
  -22.3544  -14.5549   20.6710 O   0  0  0  0  0  0
  -24.6273  -31.8595   23.2018 C   0  0  0  0  0  0
  -25.9118  -32.4776   23.8352 C   0  0  1  0  0  0
  -27.2219  -27.3120   20.1124 C   0  0  0  0  0  0
  -25.5938  -33.8576   24.2284 N   0  0  0  0  0  0
  -23.4208  -30.4851   21.5452 C   0  0  2  0  0  0
  -24.8667  -28.9419   20.1103 C   0  0  0  0  0  0
  -22.7481  -29.4628   22.4926 C   0  0  0  0  0  0
  -18.0291  -28.1391   22.8491 C   0  0  0  0  0  0
  -24.1493  -36.7290   23.2636 C   0  0  0  0  0  0
  -25.9637  -30.7891   21.3735 C   0  0  0  0  0  0
  -26.0375  -29.4163   20.7150 C   0  0  0  0  0  0
  -27.2186  -28.6135   20.7063 C   0  0  0  0  0  0
  -26.0253  -26.8968   19.4805 C   0  0  0  0  0  0
  -24.8632  -27.6879   19.4844 C   0  0  0  0  0  0
  -23.6354  -29.8221   20.1601 C   0  0  0  0  0  0
  -25.4114  -36.3080   24.0332 C   0  0  1  0  0  0
  -20.5895  -28.3697   23.1279 C   0  0  2  0  0  0
  -20.6782  -26.9420   22.5407 C   0  0  0  0  0  0
  -19.5752  -26.6396   21.5215 C   0  0  0  0  0  0
  -18.1935  -26.7935   22.1628 C   0  0  0  0  0  0
  -19.1546  -28.8859   23.2883 C   0  0  0  0  0  0
  -18.9461  -30.1461   23.8900 C   0  0  0  0  0  0
  -17.6461  -30.6591   24.0567 C   0  0  0  0  0  0
  -25.9050  -34.9451   23.5103 C   0  0  0  0  0  0
  -16.5355  -29.9090   23.6331 C   0  0  0  0  0  0
  -16.7277  -28.6506   23.0354 C   0  0  0  0  0  0
  -26.4498  -31.6581   25.0720 C   0  0  0  0  0  0
  -25.3728  -31.3721   26.1445 C   0  0  0  0  0  0
  -27.0336  -30.3001   24.6172 C   0  0  0  0  0  0
  -27.6055  -32.4312   25.7495 C   0  0  0  0  0  0
  -27.5587  -37.1798   24.8457 C   0  0  0  0  0  0
  -21.4194  -29.3048   22.3669 N   0  0  0  0  0  0
  -26.4288  -37.3779   23.9418 N   0  0  0  0  0  0
  -24.6897  -31.0613   22.0969 N   0  0  0  0  0  0
  -23.4203  -28.8162   23.3002 O   0  0  0  0  0  0
  -28.3323  -26.4487   20.1653 O   0  0  0  0  0  0
  -26.5616  -34.8914   22.4669 O   0  0  0  0  0  0
  -23.5434  -32.1399   23.7344 O   0  0  0  0  0  0
  -29.7847  -19.3942   21.7939 C   0  0  0  0  0  0
  -29.9941  -19.2279   19.4083 C   0  0  0  0  0  0
  -29.9084  -20.0682   20.5518 C   0  0  0  0  0  0
  -29.7845  -17.9688   21.8996 C   0  0  0  0  0  0
  -29.9171  -17.1295   20.7548 C   0  0  0  0  0  0
  -29.9890  -17.8002   19.4965 C   0  0  0  0  0  0
  -29.2544  -24.0058   20.3439 C   0  0  0  0  0  0
  -29.6588  -17.3409   23.2776 C   0  0  0  0  0  0
  -30.1672  -21.6223   20.4838 C   0  0  0  0  0  0
  -28.0805  -24.9939   19.9735 C   0  0  0  0  0  0
  -29.8067  -15.6750   20.9007 N   0  0  0  0  0  0
  -29.0824  -22.6413   20.2731 N   0  0  0  0  0  0
  -30.3417  -24.4822   20.6804 O   0  0  0  0  0  0
  -30.0243  -16.8954   18.0231 Cl  0  0  0  0  0  0
  -31.4813  -12.5229   19.1501 H   0  0  0  0  0  0
  -30.3778  -11.3964   19.8891 H   0  0  0  0  0  0
  -29.7744  -11.7627   17.4763 H   0  0  0  0  0  0
  -29.6515  -13.4821   17.7465 H   0  0  0  0  0  0
  -27.8676  -11.2945   18.8634 H   0  0  0  0  0  0
  -27.3782  -12.5817   17.7935 H   0  0  0  0  0  0
  -27.6760  -14.2523   19.5284 H   0  0  0  0  0  0
  -28.7103  -12.0385   21.3687 H   0  0  0  0  0  0
  -28.4417  -13.6862   21.8518 H   0  0  0  0  0  0
  -25.2764   -9.5688   22.4760 H   0  0  0  0  0  0
  -24.0008   -7.4634   22.7475 H   0  0  0  0  0  0
  -21.0841   -8.8770   19.8952 H   0  0  0  0  0  0
  -22.3695  -10.9672   19.6163 H   0  0  0  0  0  0
  -21.2004   -7.6149   23.9718 H   0  0  0  0  0  0
  -21.1483   -6.0525   25.9080 H   0  0  0  0  0  0
  -22.0597   -2.7612   23.2845 H   0  0  0  0  0  0
  -22.4098  -11.9879   22.4781 H   0  0  0  0  0  0
  -21.1117  -13.1259   22.2613 H   0  0  0  0  0  0
  -24.6598  -15.8418   20.5155 H   0  0  0  0  0  0
  -26.2763  -15.6270   20.0728 H   0  0  0  0  0  0
  -26.7188  -32.5445   23.1103 H   0  0  0  0  0  0
  -25.0088  -33.9717   25.0432 H   0  0  0  0  0  0
  -22.7152  -31.3062   21.4030 H   0  0  0  0  0  0
  -23.3752  -35.9622   23.3283 H   0  0  0  0  0  0
  -24.3586  -36.8917   22.2051 H   0  0  0  0  0  0
  -23.7238  -37.6489   23.6656 H   0  0  0  0  0  0
  -26.0975  -31.5523   20.6054 H   0  0  0  0  0  0
  -26.8431  -30.8369   22.0038 H   0  0  0  0  0  0
  -28.1163  -28.9728   21.1906 H   0  0  0  0  0  0
  -25.9510  -25.9427   18.9820 H   0  0  0  0  0  0
  -23.9670  -27.3206   19.0036 H   0  0  0  0  0  0
  -23.7548  -30.5985   19.4035 H   0  0  0  0  0  0
  -22.7549  -29.2524   19.8575 H   0  0  0  0  0  0
  -25.1288  -36.1934   25.0824 H   0  0  0  0  0  0
  -20.9999  -28.3276   24.1394 H   0  0  0  0  0  0
  -20.5694  -26.2302   23.3603 H   0  0  0  0  0  0
  -21.6649  -26.7455   22.1198 H   0  0  0  0  0  0
  -19.6908  -25.6307   21.1240 H   0  0  0  0  0  0
  -19.6690  -27.3208   20.6745 H   0  0  0  0  0  0
  -17.4209  -26.6686   21.4029 H   0  0  0  0  0  0
  -18.0332  -26.0074   22.9021 H   0  0  0  0  0  0
  -19.7932  -30.7283   24.2273 H   0  0  0  0  0  0
  -17.5010  -31.6267   24.5177 H   0  0  0  0  0  0
  -15.5354  -30.2993   23.7643 H   0  0  0  0  0  0
  -15.8676  -28.0824   22.7071 H   0  0  0  0  0  0
  -24.5917  -30.7050   25.7784 H   0  0  0  0  0  0
  -24.8903  -32.2886   26.4854 H   0  0  0  0  0  0
  -25.8059  -30.8925   27.0232 H   0  0  0  0  0  0
  -26.2911  -29.6757   24.1191 H   0  0  0  0  0  0
  -27.4023  -29.7253   25.4677 H   0  0  0  0  0  0
  -27.8783  -30.4279   23.9398 H   0  0  0  0  0  0
  -27.2669  -33.3614   26.2073 H   0  0  0  0  0  0
  -28.3872  -32.6873   25.0331 H   0  0  0  0  0  0
  -28.0714  -31.8435   26.5415 H   0  0  0  0  0  0
  -28.2581  -38.0123   24.7554 H   0  0  0  0  0  0
  -28.1113  -36.2657   24.6221 H   0  0  0  0  0  0
  -27.2315  -37.1376   25.8861 H   0  0  0  0  0  0
  -20.9368  -29.8772   21.6883 H   0  0  0  0  0  0
  -26.0164  -38.2848   24.1438 H   0  0  0  0  0  0
  -29.7322  -19.9882   22.6966 H   0  0  0  0  0  0
  -30.0971  -19.6832   18.4336 H   0  0  0  0  0  0
  -29.6942  -18.0911   24.0678 H   0  0  0  0  0  0
  -30.4737  -16.6379   23.4531 H   0  0  0  0  0  0
  -28.7160  -16.8010   23.3671 H   0  0  0  0  0  0
  -30.9041  -21.7843   19.6954 H   0  0  0  0  0  0
  -30.6875  -21.8905   21.4047 H   0  0  0  0  0  0
  -27.2128  -24.6911   20.5612 H   0  0  0  0  0  0
  -27.8451  -24.8133   18.9246 H   0  0  0  0  0  0
  -28.9434  -15.3639   21.3172 H   0  0  0  0  0  0
  -28.1727  -22.2953   19.9985 H   0  0  0  0  0  0
  1 25  1  0  0  0
  1 30  2  0  0  0
  1 81  1  0  0  0
  2  3  1  0  0  0
  2 25  1  0  0  0
  2 85  1  0  0  0
  2 86  1  0  0  0
  3  4  1  0  0  0
  3 87  1  0  0  0
  3 88  1  0  0  0
  4  5  1  0  0  0
  4 89  1  0  0  0
  4 90  1  0  0  0
  5  6  1  0  0  0
  5 26  1  0  0  0
  5 91  1  0  0  0
  6 25  1  0  0  0
  6 92  1  0  0  0
  6 93  1  0  0  0
  7  8  2  0  0  0
  7 26  1  0  0  0
  7 29  1  0  0  0
  8  9  1  0  0  0
  8 22  1  0  0  0
  9 10  1  0  0  0
  9 27  2  0  0  0
 10 11  2  0  0  0
 10 15  1  0  0  0
 11 12  1  0  0  0
 11 94  1  0  0  0
 12 13  2  0  0  0
 12 95  1  0  0  0
 13 14  1  0  0  0
 13 31  1  0  0  0
 14 15  2  0  0  0
 14 96  1  0  0  0
 15 97  1  0  0  0
 16 17  2  0  0  0
 16 21  1  0  0  0
 16 31  1  0  0  0
 17 18  1  0  0  0
 17 98  1  0  0  0
 18 19  2  0  0  0
 18 99  1  0  0  0
 19 20  1  0  0  0
 19 24  1  0  0  0
 20 21  2  0  0  0
 20100  1  0  0  0
 21 23  1  0  0  0
 22 28  1  0  0  0
 22 32  2  0  0  0
 26 27  1  0  0  0
 28101  1  0  0  0
 28102  1  0  0  0
 29103  1  0  0  0
 29104  1  0  0  0
 33 34  1  0  0  0
 33 66  1  0  0  0
 33 70  2  0  0  0
 34 36  1  0  0  0
 34 59  1  0  0  0
 34105  1  0  0  0
 35 44  2  0  0  0
 35 45  1  0  0  0
 35 68  1  0  0  0
 36 56  1  0  0  0
 36106  1  0  0  0
 37 39  1  0  0  0
 37 47  1  0  0  0
 37 66  1  0  0  0
 37107  1  0  0  0
 38 43  2  0  0  0
 38 46  1  0  0  0
 38 47  1  0  0  0
 39 64  1  0  0  0
 39 67  2  0  0  0
 40 52  1  0  0  0
 40 53  2  0  0  0
 40 58  1  0  0  0
 41108  1  0  0  0
 41109  1  0  0  0
 41110  1  0  0  0
 41 48  1  0  0  0
 42 43  1  0  0  0
 42 66  1  0  0  0
 42111  1  0  0  0
 42112  1  0  0  0
 43 44  1  0  0  0
 44113  1  0  0  0
 45 46  2  0  0  0
 45114  1  0  0  0
 46115  1  0  0  0
 47116  1  0  0  0
 47117  1  0  0  0
 48 56  1  0  0  0
 48 65  1  0  0  0
 48118  1  0  0  0
 49 50  1  0  0  0
 49 53  1  0  0  0
 49 64  1  0  0  0
 49119  1  0  0  0
 50 51  1  0  0  0
 50120  1  0  0  0
 50121  1  0  0  0
 51 52  1  0  0  0
 51122  1  0  0  0
 51123  1  0  0  0
 52124  1  0  0  0
 52125  1  0  0  0
 53 54  1  0  0  0
 54 55  2  0  0  0
 54126  1  0  0  0
 55 57  1  0  0  0
 55127  1  0  0  0
 56 69  2  0  0  0
 57 58  2  0  0  0
 57128  1  0  0  0
 58129  1  0  0  0
 59 60  1  0  0  0
 59 61  1  0  0  0
 59 62  1  0  0  0
 60130  1  0  0  0
 60131  1  0  0  0
 60132  1  0  0  0
 61133  1  0  0  0
 61134  1  0  0  0
 61135  1  0  0  0
 62136  1  0  0  0
 62137  1  0  0  0
 62138  1  0  0  0
 63 65  1  0  0  0
 63139  1  0  0  0
 63140  1  0  0  0
 63141  1  0  0  0
 64142  1  0  0  0
 65143  1  0  0  0
 68 80  1  0  0  0
 71 73  2  0  0  0
 71 74  1  0  0  0
 71144  1  0  0  0
 72 73  1  0  0  0
 72 76  2  0  0  0
 72145  1  0  0  0
 73 79  1  0  0  0
 74 75  2  0  0  0
 74 78  1  0  0  0
 75 76  1  0  0  0
 75 81  1  0  0  0
 76 84  1  0  0  0
 77 80  1  0  0  0
 77 82  1  0  0  0
 77 83  2  0  0  0
 78146  1  0  0  0
 78147  1  0  0  0
 78148  1  0  0  0
 79 82  1  0  0  0
 79149  1  0  0  0
 79150  1  0  0  0
 80151  1  0  0  0
 80152  1  0  0  0
 81153  1  0  0  0
 82154  1  0  0  0
M  ISO  4   1 100  68 101  80 101  81 100
M  END
> <chiral flag>
0

> <version>
0

> <s_m_source_file>
/data/baiqing/PycharmProjects/Reinvent-master-3.2/result/LINK_invent/BTK/process_docking_weight1_custom_product_contain_oxygen_bond_distance_aromatic_linkinvent_7_9_3/rearranged_h_0042.sdf

> <i_m_source_file_index>
14

> <r_mmod_Potential_Energy-OPLS-2005>
-41.1504745483398

> <r_mmod_Stretch_Energy-OPLS-2005>
81.0010604858398

> <r_mmod_Bend_Energy-OPLS-2005>
132.125564575195

> <r_mmod_Torsional_Energy-OPLS-2005>
238.992340087891

> <r_mmod_Improper_Torsional_Energy-OPLS-2005>
5.04323720932007

> <r_mmod_Van_der_Waal_Energy-OPLS-2005>
142.125686645508

> <r_mmod_Electrostatic_Energy-OPLS-2005>
-441.619171142578

> <r_mmod_Solvation_Energy-OPLS-2005>
-250.109649658203

> <b_mmod_Minimization_Converged-OPLS-2005>
0

> <r_mmod_RMS_Derivative-OPLS-2005>
0.892560303211212

$$$$
14
                    3D
 Structure written by MMmdl.
173182  0  0  1  0            999 V2000
  -30.7949  -14.3328   20.7211 C   0  0  0  0  0  0
  -30.4132  -12.2935   19.3831 C   0  0  0  0  0  0
  -29.4767  -12.5323   18.1859 C   0  0  0  0  0  0
  -28.0040  -12.3814   18.6078 C   0  0  0  0  0  0
  -27.6650  -13.2024   19.8790 C   0  0  2  0  0  0
  -28.7031  -12.9420   20.9917 C   0  0  0  0  0  0
  -25.2600  -13.8160   20.5676 C   0  0  0  0  0  0
  -24.1842  -13.0442   20.9165 C   0  0  0  0  0  0
  -24.6389  -11.6907   20.8729 C   0  0  0  0  0  0
  -23.9055  -10.4294   21.0405 C   0  0  0  0  0  0
  -24.3609   -9.4212   21.9182 C   0  0  0  0  0  0
  -23.6288   -8.2245   22.0755 C   0  0  0  0  0  0
  -22.4272   -8.0281   21.3545 C   0  0  0  0  0  0
  -21.9904   -9.0254   20.4647 C   0  0  0  0  0  0
  -22.7228  -10.2134   20.3055 C   0  0  0  0  0  0
  -21.6851   -6.0734   22.5280 C   0  0  0  0  0  0
  -21.4013   -6.5639   23.8212 C   0  0  0  0  0  0
  -21.3660   -5.6793   24.9174 C   0  0  0  0  0  0
  -21.6046   -4.3055   24.7225 C   0  0  0  0  0  0
  -21.8819   -3.8147   23.4347 C   0  0  0  0  0  0
  -21.9192   -4.6964   22.3404 C   0  0  0  0  0  0
  -22.7867  -13.5243   21.1840 C   0  0  0  0  0  0
  -22.1660   -4.2149   21.0982 F   0  0  0  0  0  0
  -21.5630   -3.4541   25.7738 F   0  0  0  0  0  0
  -30.0479  -13.2306   20.4547 N   0  0  0  0  0  0
  -26.3037  -12.9322   20.3384 N   0  0  0  0  0  0
  -25.9313  -11.6482   20.5760 N   0  0  0  0  0  0
  -22.0505  -12.8235   22.0395 N   0  0  0  0  0  0
  -25.4342  -15.1875   20.4091 N   0  0  0  0  0  0
  -31.7845  -14.6514   20.0539 O   0  0  0  0  0  0
  -21.6638   -6.8878   21.4241 O   0  0  0  0  0  0
  -22.3551  -14.5550   20.6693 O   0  0  0  0  0  0
  -24.6098  -31.8714   23.2118 C   0  0  0  0  0  0
  -25.9009  -32.4841   23.8406 C   0  0  1  0  0  0
  -27.2392  -27.4793   20.0890 C   0  0  0  0  0  0
  -25.5880  -33.8637   24.2345 N   0  0  0  0  0  0
  -23.3967  -30.4935   21.5507 C   0  0  2  0  0  0
  -24.8461  -28.9636   20.1141 C   0  0  0  0  0  0
  -22.7387  -29.4671   22.4997 C   0  0  0  0  0  0
  -18.0269  -28.1375   22.8495 C   0  0  0  0  0  0
  -24.1487  -36.7323   23.2640 C   0  0  0  0  0  0
  -25.9197  -30.8509   21.3580 C   0  0  0  0  0  0
  -26.0013  -29.4862   20.7104 C   0  0  0  0  0  0
  -27.2027  -28.7489   20.7012 C   0  0  0  0  0  0
  -26.0760  -26.9608   19.4865 C   0  0  0  0  0  0
  -24.8756  -27.6969   19.5021 C   0  0  0  0  0  0
  -23.6037  -29.8230   20.1654 C   0  0  0  0  0  0
  -25.4106  -36.3126   24.0348 C   0  0  1  0  0  0
  -20.5856  -28.3657   23.1330 C   0  0  2  0  0  0
  -20.6759  -26.9397   22.5422 C   0  0  0  0  0  0
  -19.5741  -26.6383   21.5214 C   0  0  0  0  0  0
  -18.1918  -26.7921   22.1625 C   0  0  0  0  0  0
  -19.1518  -28.8830   23.2912 C   0  0  0  0  0  0
  -18.9448  -30.1432   23.8930 C   0  0  0  0  0  0
  -17.6453  -30.6584   24.0565 C   0  0  0  0  0  0
  -25.9029  -34.9490   23.5146 C   0  0  0  0  0  0
  -16.5343  -29.9091   23.6320 C   0  0  0  0  0  0
  -16.7260  -28.6504   23.0351 C   0  0  0  0  0  0
  -26.4464  -31.6602   25.0712 C   0  0  0  0  0  0
  -25.3747  -31.3701   26.1473 C   0  0  0  0  0  0
  -27.0286  -30.3049   24.6047 C   0  0  0  0  0  0
  -27.6042  -32.4319   25.7476 C   0  0  0  0  0  0
  -27.5588  -37.1814   24.8467 C   0  0  0  0  0  0
  -21.4120  -29.3029   22.3738 N   0  0  0  0  0  0
  -26.4301  -37.3802   23.9410 N   0  0  0  0  0  0
  -24.6601  -31.0851   22.0996 N   0  0  0  0  0  0
  -23.4179  -28.8215   23.3024 O   0  0  0  0  0  0
  -28.3864  -26.7310   20.0820 O   0  0  0  0  0  0
  -26.5591  -34.8936   22.4705 O   0  0  0  0  0  0
  -23.5302  -32.1440   23.7540 O   0  0  0  0  0  0
  -33.8654  -24.0239   22.4634 C   0  0  0  0  0  0
  -33.8150  -22.8610   23.2479 C   0  0  0  0  0  0
  -33.0197  -25.1027   22.7626 C   0  0  0  0  0  0
  -33.0941  -17.1553   23.3421 C   0  0  0  0  0  0
  -32.4798  -16.1788   22.5346 C   0  0  0  0  0  0
  -30.9088  -17.8572   24.1562 C   0  0  0  0  0  0
  -32.9186  -22.7564   24.3355 C   0  0  0  0  0  0
  -32.3123  -17.9918   24.1634 C   0  0  0  0  0  0
  -32.1097  -25.0296   23.8382 C   0  0  0  0  0  0
  -32.0468  -23.8477   24.6349 C   0  0  0  0  0  0
  -31.0711  -16.0326   22.5330 C   0  0  0  0  0  0
  -30.2909  -16.8774   23.3549 C   0  0  0  0  0  0
  -32.9586  -21.4985   25.1655 C   0  0  0  0  0  0
  -31.0545  -23.7441   25.7971 C   0  0  0  0  0  0
  -32.9733  -19.0260   25.0546 C   0  0  0  0  0  0
  -31.2173  -26.2433   24.0932 C   0  0  0  0  0  0
  -29.8403  -26.5601   22.0289 C   0  0  0  0  0  0
  -28.5974  -26.0213   21.3029 C   0  0  0  0  0  0
  -30.3943  -15.0222   21.7971 N   0  0  0  0  0  0
  -32.9068  -20.3572   24.4719 N   0  0  0  0  0  0
  -29.9093  -26.0757   23.4300 N   0  3  0  0  0  0
  -33.0283  -21.5398   26.3961 O   0  0  0  0  0  0
  -28.5695  -16.7121   23.3986 Cl  0  0  0  0  0  0
  -31.4549  -12.3972   19.0736 H   0  0  0  0  0  0
  -30.3154  -11.2686   19.7448 H   0  0  0  0  0  0
  -29.7078  -11.8326   17.3816 H   0  0  0  0  0  0
  -29.6428  -13.5319   17.7812 H   0  0  0  0  0  0
  -27.8151  -11.3226   18.7885 H   0  0  0  0  0  0
  -27.3464  -12.6714   17.7875 H   0  0  0  0  0  0
  -27.7240  -14.2569   19.6081 H   0  0  0  0  0  0
  -28.6635  -11.8983   21.3070 H   0  0  0  0  0  0
  -28.4430  -13.5181   21.8797 H   0  0  0  0  0  0
  -25.2754   -9.5690   22.4757 H   0  0  0  0  0  0
  -24.0001   -7.4637   22.7472 H   0  0  0  0  0  0
  -21.0836   -8.8771   19.8952 H   0  0  0  0  0  0
  -22.3687  -10.9674   19.6165 H   0  0  0  0  0  0
  -21.2004   -7.6146   23.9715 H   0  0  0  0  0  0
  -21.1483   -6.0523   25.9077 H   0  0  0  0  0  0
  -22.0598   -2.7610   23.2848 H   0  0  0  0  0  0
  -22.4113  -11.9888   22.4774 H   0  0  0  0  0  0
  -21.1127  -13.1272   22.2609 H   0  0  0  0  0  0
  -24.6758  -15.8500   20.5290 H   0  0  0  0  0  0
  -26.3014  -15.6259   20.1247 H   0  0  0  0  0  0
  -26.7085  -32.5587   23.1186 H   0  0  0  0  0  0
  -25.0028  -33.9802   25.0487 H   0  0  0  0  0  0
  -22.6838  -31.3093   21.4120 H   0  0  0  0  0  0
  -23.3751  -35.9656   23.3310 H   0  0  0  0  0  0
  -24.3590  -36.8925   22.2053 H   0  0  0  0  0  0
  -23.7234  -37.6531   23.6640 H   0  0  0  0  0  0
  -26.0220  -31.6170   20.5879 H   0  0  0  0  0  0
  -26.8107  -30.9100   21.9712 H   0  0  0  0  0  0
  -28.0952  -29.1533   21.1572 H   0  0  0  0  0  0
  -26.0985  -25.9885   19.0143 H   0  0  0  0  0  0
  -23.9868  -27.2888   19.0404 H   0  0  0  0  0  0
  -23.7040  -30.5969   19.4034 H   0  0  0  0  0  0
  -22.7305  -29.2368   19.8736 H   0  0  0  0  0  0
  -25.1278  -36.2006   25.0841 H   0  0  0  0  0  0
  -20.9953  -28.3222   24.1449 H   0  0  0  0  0  0
  -20.5663  -26.2267   23.3608 H   0  0  0  0  0  0
  -21.6632  -26.7445   22.1215 H   0  0  0  0  0  0
  -19.6905  -25.6300   21.1230 H   0  0  0  0  0  0
  -19.6682  -27.3208   20.6755 H   0  0  0  0  0  0
  -17.4188  -26.6676   21.4023 H   0  0  0  0  0  0
  -18.0314  -26.0057   22.9013 H   0  0  0  0  0  0
  -19.7925  -30.7230   24.2327 H   0  0  0  0  0  0
  -17.5013  -31.6273   24.5153 H   0  0  0  0  0  0
  -15.5348  -30.3008   23.7620 H   0  0  0  0  0  0
  -15.8659  -28.0829   22.7061 H   0  0  0  0  0  0
  -24.5887  -30.7091   25.7809 H   0  0  0  0  0  0
  -24.8984  -32.2867   26.4962 H   0  0  0  0  0  0
  -25.8106  -30.8824   27.0201 H   0  0  0  0  0  0
  -26.2805  -29.6828   24.1117 H   0  0  0  0  0  0
  -27.4082  -29.7266   25.4482 H   0  0  0  0  0  0
  -27.8637  -30.4382   23.9165 H   0  0  0  0  0  0
  -27.2640  -33.3591   26.2098 H   0  0  0  0  0  0
  -28.3827  -32.6927   25.0294 H   0  0  0  0  0  0
  -28.0741  -31.8422   26.5357 H   0  0  0  0  0  0
  -28.2606  -38.0109   24.7515 H   0  0  0  0  0  0
  -28.1079  -36.2641   24.6286 H   0  0  0  0  0  0
  -27.2310  -37.1464   25.8871 H   0  0  0  0  0  0
  -20.9268  -29.8758   21.6975 H   0  0  0  0  0  0
  -26.0203  -38.2889   24.1402 H   0  0  0  0  0  0
  -34.5610  -24.0912   21.6379 H   0  0  0  0  0  0
  -34.4911  -22.0478   23.0198 H   0  0  0  0  0  0
  -33.0744  -25.9948   22.1532 H   0  0  0  0  0  0
  -34.1719  -17.2475   23.3381 H   0  0  0  0  0  0
  -33.1129  -15.5356   21.9412 H   0  0  0  0  0  0
  -30.3008  -18.4960   24.7803 H   0  0  0  0  0  0
  -30.6261  -22.7444   25.8685 H   0  0  0  0  0  0
  -30.2027  -24.4141   25.7090 H   0  0  0  0  0  0
  -31.5562  -23.9621   26.7405 H   0  0  0  0  0  0
  -34.0185  -18.7632   25.2250 H   0  0  0  0  0  0
  -32.4869  -19.0053   26.0319 H   0  0  0  0  0  0
  -31.7028  -27.1587   23.7496 H   0  0  0  0  0  0
  -31.0751  -26.3855   25.1642 H   0  0  0  0  0  0
  -29.8282  -27.6501   22.0398 H   0  0  0  0  0  0
  -30.7286  -26.2606   21.4725 H   0  0  0  0  0  0
  -27.7236  -26.0784   21.9571 H   0  0  0  0  0  0
  -28.7310  -24.9642   21.0701 H   0  0  0  0  0  0
  -29.4902  -14.7623   22.1614 H   0  0  0  0  0  0
  -32.8289  -20.4231   23.4674 H   0  0  0  0  0  0
  -29.2205  -26.5683   23.9777 H   0  0  0  0  0  0
  -29.6829  -25.0947   23.4656 H   0  0  0  0  0  0
  1 25  1  0  0  0
  1 30  2  0  0  0
  1 89  1  0  0  0
  2  3  1  0  0  0
  2 25  1  0  0  0
  2 94  1  0  0  0
  2 95  1  0  0  0
  3  4  1  0  0  0
  3 96  1  0  0  0
  3 97  1  0  0  0
  4  5  1  0  0  0
  4 98  1  0  0  0
  4 99  1  0  0  0
  5  6  1  0  0  0
  5 26  1  0  0  0
  5100  1  0  0  0
  6 25  1  0  0  0
  6101  1  0  0  0
  6102  1  0  0  0
  7  8  2  0  0  0
  7 26  1  0  0  0
  7 29  1  0  0  0
  8  9  1  0  0  0
  8 22  1  0  0  0
  9 10  1  0  0  0
  9 27  2  0  0  0
 10 11  2  0  0  0
 10 15  1  0  0  0
 11 12  1  0  0  0
 11103  1  0  0  0
 12 13  2  0  0  0
 12104  1  0  0  0
 13 14  1  0  0  0
 13 31  1  0  0  0
 14 15  2  0  0  0
 14105  1  0  0  0
 15106  1  0  0  0
 16 17  2  0  0  0
 16 21  1  0  0  0
 16 31  1  0  0  0
 17 18  1  0  0  0
 17107  1  0  0  0
 18 19  2  0  0  0
 18108  1  0  0  0
 19 20  1  0  0  0
 19 24  1  0  0  0
 20 21  2  0  0  0
 20109  1  0  0  0
 21 23  1  0  0  0
 22 28  1  0  0  0
 22 32  2  0  0  0
 26 27  1  0  0  0
 28110  1  0  0  0
 28111  1  0  0  0
 29112  1  0  0  0
 29113  1  0  0  0
 33 34  1  0  0  0
 33 66  1  0  0  0
 33 70  2  0  0  0
 34 36  1  0  0  0
 34 59  1  0  0  0
 34114  1  0  0  0
 35 44  2  0  0  0
 35 45  1  0  0  0
 35 68  1  0  0  0
 36 56  1  0  0  0
 36115  1  0  0  0
 37 39  1  0  0  0
 37 47  1  0  0  0
 37 66  1  0  0  0
 37116  1  0  0  0
 38 43  2  0  0  0
 38 46  1  0  0  0
 38 47  1  0  0  0
 39 64  1  0  0  0
 39 67  2  0  0  0
 40 52  1  0  0  0
 40 53  2  0  0  0
 40 58  1  0  0  0
 41117  1  0  0  0
 41118  1  0  0  0
 41119  1  0  0  0
 41 48  1  0  0  0
 42 43  1  0  0  0
 42 66  1  0  0  0
 42120  1  0  0  0
 42121  1  0  0  0
 43 44  1  0  0  0
 44122  1  0  0  0
 45 46  2  0  0  0
 45123  1  0  0  0
 46124  1  0  0  0
 47125  1  0  0  0
 47126  1  0  0  0
 48 56  1  0  0  0
 48 65  1  0  0  0
 48127  1  0  0  0
 49 50  1  0  0  0
 49 53  1  0  0  0
 49 64  1  0  0  0
 49128  1  0  0  0
 50 51  1  0  0  0
 50129  1  0  0  0
 50130  1  0  0  0
 51 52  1  0  0  0
 51131  1  0  0  0
 51132  1  0  0  0
 52133  1  0  0  0
 52134  1  0  0  0
 53 54  1  0  0  0
 54 55  2  0  0  0
 54135  1  0  0  0
 55 57  1  0  0  0
 55136  1  0  0  0
 56 69  2  0  0  0
 57 58  2  0  0  0
 57137  1  0  0  0
 58138  1  0  0  0
 59 60  1  0  0  0
 59 61  1  0  0  0
 59 62  1  0  0  0
 60139  1  0  0  0
 60140  1  0  0  0
 60141  1  0  0  0
 61142  1  0  0  0
 61143  1  0  0  0
 61144  1  0  0  0
 62145  1  0  0  0
 62146  1  0  0  0
 62147  1  0  0  0
 63 65  1  0  0  0
 63148  1  0  0  0
 63149  1  0  0  0
 63150  1  0  0  0
 64151  1  0  0  0
 65152  1  0  0  0
 68 88  1  0  0  0
 71 72  2  0  0  0
 71 73  1  0  0  0
 71153  1  0  0  0
 72 77  1  0  0  0
 72154  1  0  0  0
 73 79  2  0  0  0
 73155  1  0  0  0
 74 75  2  0  0  0
 74 78  1  0  0  0
 74156  1  0  0  0
 75 81  1  0  0  0
 75157  1  0  0  0
 76 78  2  0  0  0
 76 82  1  0  0  0
 76158  1  0  0  0
 77 80  2  0  0  0
 77 83  1  0  0  0
 78 85  1  0  0  0
 79 80  1  0  0  0
 79 86  1  0  0  0
 80 84  1  0  0  0
 81 82  2  0  0  0
 81 89  1  0  0  0
 82 93  1  0  0  0
 83 90  1  0  0  0
 83 92  2  0  0  0
 84159  1  0  0  0
 84160  1  0  0  0
 84161  1  0  0  0
 85 90  1  0  0  0
 85162  1  0  0  0
 85163  1  0  0  0
 86 91  1  0  0  0
 86164  1  0  0  0
 86165  1  0  0  0
 87 88  1  0  0  0
 87 91  1  0  0  0
 87166  1  0  0  0
 87167  1  0  0  0
 88168  1  0  0  0
 88169  1  0  0  0
 89170  1  0  0  0
 90171  1  0  0  0
 91172  1  0  0  0
 91173  1  0  0  0
M  CHG  1  91   1
M  ISO  4   1 100  68 101  88 101  89 100
M  END
> <chiral flag>
0

> <version>
0

> <s_m_source_file>
/data/baiqing/PycharmProjects/Reinvent-master-3.2/result/LINK_invent/BTK/process_docking_weight1_custom_product_contain_oxygen_bond_distance_aromatic_linkinvent_7_9_3/rearranged_h_0042.sdf

> <i_m_source_file_index>
15

> <r_mmod_Potential_Energy-OPLS-2005>
-290.924713134766

> <r_mmod_Stretch_Energy-OPLS-2005>
36.2875366210938

> <r_mmod_Bend_Energy-OPLS-2005>
91.4507217407227

> <r_mmod_Torsional_Energy-OPLS-2005>
255.070236206055

> <r_mmod_Improper_Torsional_Energy-OPLS-2005>
1.74439787864685

> <r_mmod_Van_der_Waal_Energy-OPLS-2005>
178.66259765625

> <r_mmod_Electrostatic_Energy-OPLS-2005>
-395.149475097656

> <r_mmod_Solvation_Energy-OPLS-2005>
-465.874877929688

> <b_mmod_Minimization_Converged-OPLS-2005>
0

> <r_mmod_RMS_Derivative-OPLS-2005>
0.676693618297577

$$$$
15
                    3D
 Structure written by MMmdl.
159167  0  0  1  0            999 V2000
  -30.6074  -14.7733   20.4334 C   0  0  0  0  0  0
  -30.4391  -12.4557   19.4883 C   0  0  0  0  0  0
  -29.5206  -12.4612   18.2462 C   0  0  0  0  0  0
  -28.0393  -12.3269   18.6527 C   0  0  0  0  0  0
  -27.6440  -13.2355   19.8482 C   0  0  2  0  0  0
  -28.6898  -13.1911   20.9828 C   0  0  0  0  0  0
  -25.2561  -13.8212   20.5724 C   0  0  0  0  0  0
  -24.1852  -13.0443   20.9227 C   0  0  0  0  0  0
  -24.6433  -11.6914   20.8753 C   0  0  0  0  0  0
  -23.9113  -10.4287   21.0395 C   0  0  0  0  0  0
  -24.3653   -9.4207   21.9176 C   0  0  0  0  0  0
  -23.6326   -8.2250   22.0740 C   0  0  0  0  0  0
  -22.4304   -8.0300   21.3545 C   0  0  0  0  0  0
  -21.9951   -9.0265   20.4632 C   0  0  0  0  0  0
  -22.7282  -10.2141   20.3045 C   0  0  0  0  0  0
  -21.6872   -6.0764   22.5285 C   0  0  0  0  0  0
  -21.4009   -6.5657   23.8220 C   0  0  0  0  0  0
  -21.3665   -5.6800   24.9187 C   0  0  0  0  0  0
  -21.6047   -4.3062   24.7231 C   0  0  0  0  0  0
  -21.8819   -3.8169   23.4344 C   0  0  0  0  0  0
  -21.9204   -4.6997   22.3409 C   0  0  0  0  0  0
  -22.7873  -13.5212   21.1900 C   0  0  0  0  0  0
  -22.1665   -4.2183   21.0987 F   0  0  0  0  0  0
  -21.5632   -3.4544   25.7739 F   0  0  0  0  0  0
  -29.9874  -13.5413   20.3920 N   0  0  0  0  0  0
  -26.2980  -12.9404   20.3297 N   0  0  0  0  0  0
  -25.9358  -11.6549   20.5760 N   0  0  0  0  0  0
  -22.0537  -12.8145   22.0425 N   0  0  0  0  0  0
  -25.4266  -15.1923   20.4124 N   0  0  0  0  0  0
  -31.8007  -14.8638   20.1358 O   0  0  0  0  0  0
  -21.6660   -6.8903   21.4238 O   0  0  0  0  0  0
  -22.3536  -14.5529   20.6799 O   0  0  0  0  0  0
  -24.6370  -31.8526   23.1990 C   0  0  0  0  0  0
  -25.9172  -32.4740   23.8333 C   0  0  1  0  0  0
  -27.2159  -27.2333   20.1071 C   0  0  0  0  0  0
  -25.5967  -33.8544   24.2262 N   0  0  0  0  0  0
  -23.4317  -30.4767   21.5458 C   0  0  2  0  0  0
  -24.8740  -28.9227   20.1079 C   0  0  0  0  0  0
  -22.7513  -29.4590   22.4928 C   0  0  0  0  0  0
  -18.0281  -28.1395   22.8465 C   0  0  0  0  0  0
  -24.1493  -36.7276   23.2637 C   0  0  0  0  0  0
  -25.9818  -30.7518   21.3843 C   0  0  0  0  0  0
  -26.0487  -29.3741   20.7202 C   0  0  0  0  0  0
  -27.2167  -28.5420   20.7134 C   0  0  0  0  0  0
  -26.0163  -26.8682   19.4524 C   0  0  0  0  0  0
  -24.8643  -27.6790   19.4649 C   0  0  0  0  0  0
  -23.6474  -29.8142   20.1608 C   0  0  0  0  0  0
  -25.4114  -36.3061   24.0329 C   0  0  1  0  0  0
  -20.5888  -28.3711   23.1263 C   0  0  2  0  0  0
  -20.6768  -26.9425   22.5409 C   0  0  0  0  0  0
  -19.5749  -26.6381   21.5205 C   0  0  0  0  0  0
  -18.1926  -26.7930   22.1609 C   0  0  0  0  0  0
  -19.1541  -28.8866   23.2861 C   0  0  0  0  0  0
  -18.9461  -30.1456   23.8902 C   0  0  0  0  0  0
  -17.6463  -30.6592   24.0558 C   0  0  0  0  0  0
  -25.9059  -34.9428   23.5084 C   0  0  0  0  0  0
  -16.5349  -29.9092   23.6335 C   0  0  0  0  0  0
  -16.7268  -28.6508   23.0361 C   0  0  0  0  0  0
  -26.4507  -31.6584   25.0745 C   0  0  0  0  0  0
  -25.3703  -31.3756   26.1447 C   0  0  0  0  0  0
  -27.0369  -30.2994   24.6285 C   0  0  0  0  0  0
  -27.6058  -32.4340   25.7526 C   0  0  0  0  0  0
  -27.5586  -37.1791   24.8458 C   0  0  0  0  0  0
  -21.4225  -29.3061   22.3671 N   0  0  0  0  0  0
  -26.4287  -37.3768   23.9410 N   0  0  0  0  0  0
  -24.7028  -31.0456   22.0989 N   0  0  0  0  0  0
  -23.4203  -28.8109   23.3021 O   0  0  0  0  0  0
  -28.3195  -26.3363   20.1954 O   0  0  0  0  0  0
  -26.5640  -34.8906   22.4671 O   0  0  0  0  0  0
  -23.5506  -32.1372   23.7280 O   0  0  0  0  0  0
  -28.3442  -18.0943   17.0001 C   0  0  0  0  0  0
  -27.5395  -19.2043   17.2322 C   0  0  0  0  0  0
  -29.2023  -17.6253   18.0060 C   0  0  0  0  0  0
  -29.3237  -18.2831   19.2754 C   0  0  0  0  0  0
  -28.7105  -19.6442   19.3723 C   0  0  0  0  0  0
  -27.7054  -19.9548   18.3985 C   0  0  0  0  0  0
  -29.9709  -16.3675   17.6347 C   0  0  0  0  0  0
  -30.1063  -17.4289   20.3846 C   0  0  0  0  0  0
  -29.0012  -20.8625   20.3763 C   0  0  0  0  0  0
  -28.8817  -23.6186   20.5105 C   0  0  0  0  0  0
  -28.2839  -24.9018   19.6967 C   0  0  0  0  0  0
  -29.8194  -15.9151   20.5684 N   0  0  0  0  0  0
  -29.0003  -22.2796   19.7385 N   0  3  0  0  0  0
  -26.5801  -21.2665   18.5718 Cl  0  0  0  0  0  0
  -31.4813  -12.5799   19.1857 H   0  0  0  0  0  0
  -30.3842  -11.4923   19.9983 H   0  0  0  0  0  0
  -29.7875  -11.6379   17.5825 H   0  0  0  0  0  0
  -29.6782  -13.3680   17.6653 H   0  0  0  0  0  0
  -27.8728  -11.2825   18.9170 H   0  0  0  0  0  0
  -27.3947  -12.5256   17.7970 H   0  0  0  0  0  0
  -27.6282  -14.2525   19.4574 H   0  0  0  0  0  0
  -28.7300  -12.2023   21.4405 H   0  0  0  0  0  0
  -28.4277  -13.8868   21.7824 H   0  0  0  0  0  0
  -25.2785   -9.5721   22.4756 H   0  0  0  0  0  0
  -24.0075   -7.4646   22.7433 H   0  0  0  0  0  0
  -21.0917   -8.8768   19.8896 H   0  0  0  0  0  0
  -22.3730  -10.9698   19.6180 H   0  0  0  0  0  0
  -21.1957   -7.6154   23.9733 H   0  0  0  0  0  0
  -21.1490   -6.0527   25.9095 H   0  0  0  0  0  0
  -22.0581   -2.7630   23.2837 H   0  0  0  0  0  0
  -22.4208  -11.9809   22.4772 H   0  0  0  0  0  0
  -21.1135  -13.1106   22.2612 H   0  0  0  0  0  0
  -24.6575  -15.8457   20.5091 H   0  0  0  0  0  0
  -26.2651  -15.6260   20.0469 H   0  0  0  0  0  0
  -26.7247  -32.5337   23.1067 H   0  0  0  0  0  0
  -25.0099  -33.9677   25.0397 H   0  0  0  0  0  0
  -22.7301  -31.3018   21.4022 H   0  0  0  0  0  0
  -23.3768  -35.9596   23.3270 H   0  0  0  0  0  0
  -24.3579  -36.8942   22.2058 H   0  0  0  0  0  0
  -23.7223  -37.6456   23.6680 H   0  0  0  0  0  0
  -26.1291  -31.5095   20.6148 H   0  0  0  0  0  0
  -26.8577  -30.7945   22.0201 H   0  0  0  0  0  0
  -28.1123  -28.8807   21.2128 H   0  0  0  0  0  0
  -25.9047  -25.9359   18.9244 H   0  0  0  0  0  0
  -23.9661  -27.3356   18.9696 H   0  0  0  0  0  0
  -23.7757  -30.5935   19.4094 H   0  0  0  0  0  0
  -22.7626  -29.2551   19.8498 H   0  0  0  0  0  0
  -25.1301  -36.1909   25.0824 H   0  0  0  0  0  0
  -20.9957  -28.3272   24.1390 H   0  0  0  0  0  0
  -20.5652  -26.2321   23.3616 H   0  0  0  0  0  0
  -21.6635  -26.7432   22.1213 H   0  0  0  0  0  0
  -19.6918  -25.6284   21.1257 H   0  0  0  0  0  0
  -19.6702  -27.3173   20.6720 H   0  0  0  0  0  0
  -17.4196  -26.6682   21.4005 H   0  0  0  0  0  0
  -18.0335  -26.0071   22.9015 H   0  0  0  0  0  0
  -19.7936  -30.7272   24.2285 H   0  0  0  0  0  0
  -17.5013  -31.6266   24.5168 H   0  0  0  0  0  0
  -15.5355  -30.3006   23.7648 H   0  0  0  0  0  0
  -15.8659  -28.0819   22.7110 H   0  0  0  0  0  0
  -24.5907  -30.7076   25.7757 H   0  0  0  0  0  0
  -24.8844  -32.2925   26.4793 H   0  0  0  0  0  0
  -25.7980  -30.8980   27.0272 H   0  0  0  0  0  0
  -26.2973  -29.6740   24.1268 H   0  0  0  0  0  0
  -27.3979  -29.7268   25.4838 H   0  0  0  0  0  0
  -27.8878  -30.4255   23.9590 H   0  0  0  0  0  0
  -27.2673  -33.3670   26.2045 H   0  0  0  0  0  0
  -28.3889  -32.6865   25.0363 H   0  0  0  0  0  0
  -28.0700  -31.8505   26.5489 H   0  0  0  0  0  0
  -28.2576  -38.0119   24.7547 H   0  0  0  0  0  0
  -28.1129  -36.2654   24.6242 H   0  0  0  0  0  0
  -27.2316  -37.1387   25.8866 H   0  0  0  0  0  0
  -20.9433  -29.8805   21.6878 H   0  0  0  0  0  0
  -26.0173  -38.2848   24.1415 H   0  0  0  0  0  0
  -28.2424  -17.5594   16.0655 H   0  0  0  0  0  0
  -26.8073  -19.5042   16.4950 H   0  0  0  0  0  0
  -30.1387  -16.2859   16.5600 H   0  0  0  0  0  0
  -29.3833  -15.5040   17.9339 H   0  0  0  0  0  0
  -30.9577  -16.3176   18.0928 H   0  0  0  0  0  0
  -29.9552  -17.9134   21.3492 H   0  0  0  0  0  0
  -31.1729  -17.5410   20.1794 H   0  0  0  0  0  0
  -29.9480  -20.6953   20.8911 H   0  0  0  0  0  0
  -28.2241  -20.8387   21.1426 H   0  0  0  0  0  0
  -28.2655  -23.4596   21.3959 H   0  0  0  0  0  0
  -29.8762  -23.8700   20.8777 H   0  0  0  0  0  0
  -27.2742  -24.5924   19.4542 H   0  0  0  0  0  0
  -28.7982  -24.9377   18.7369 H   0  0  0  0  0  0
  -28.8732  -15.7197   20.8551 H   0  0  0  0  0  0
  -28.1818  -22.2448   19.1441 H   0  0  0  0  0  0
  -29.7956  -22.3307   19.1213 H   0  0  0  0  0  0
  1 25  1  0  0  0
  1 30  2  0  0  0
  1 82  1  0  0  0
  2  3  1  0  0  0
  2 25  1  0  0  0
  2 85  1  0  0  0
  2 86  1  0  0  0
  3  4  1  0  0  0
  3 87  1  0  0  0
  3 88  1  0  0  0
  4  5  1  0  0  0
  4 89  1  0  0  0
  4 90  1  0  0  0
  5  6  1  0  0  0
  5 26  1  0  0  0
  5 91  1  0  0  0
  6 25  1  0  0  0
  6 92  1  0  0  0
  6 93  1  0  0  0
  7  8  2  0  0  0
  7 26  1  0  0  0
  7 29  1  0  0  0
  8  9  1  0  0  0
  8 22  1  0  0  0
  9 10  1  0  0  0
  9 27  2  0  0  0
 10 11  2  0  0  0
 10 15  1  0  0  0
 11 12  1  0  0  0
 11 94  1  0  0  0
 12 13  2  0  0  0
 12 95  1  0  0  0
 13 14  1  0  0  0
 13 31  1  0  0  0
 14 15  2  0  0  0
 14 96  1  0  0  0
 15 97  1  0  0  0
 16 17  2  0  0  0
 16 21  1  0  0  0
 16 31  1  0  0  0
 17 18  1  0  0  0
 17 98  1  0  0  0
 18 19  2  0  0  0
 18 99  1  0  0  0
 19 20  1  0  0  0
 19 24  1  0  0  0
 20 21  2  0  0  0
 20100  1  0  0  0
 21 23  1  0  0  0
 22 28  1  0  0  0
 22 32  2  0  0  0
 26 27  1  0  0  0
 28101  1  0  0  0
 28102  1  0  0  0
 29103  1  0  0  0
 29104  1  0  0  0
 33 34  1  0  0  0
 33 66  1  0  0  0
 33 70  2  0  0  0
 34 36  1  0  0  0
 34 59  1  0  0  0
 34105  1  0  0  0
 35 44  2  0  0  0
 35 45  1  0  0  0
 35 68  1  0  0  0
 36 56  1  0  0  0
 36106  1  0  0  0
 37 39  1  0  0  0
 37 47  1  0  0  0
 37 66  1  0  0  0
 37107  1  0  0  0
 38 43  2  0  0  0
 38 46  1  0  0  0
 38 47  1  0  0  0
 39 64  1  0  0  0
 39 67  2  0  0  0
 40 52  1  0  0  0
 40 53  2  0  0  0
 40 58  1  0  0  0
 41108  1  0  0  0
 41109  1  0  0  0
 41110  1  0  0  0
 41 48  1  0  0  0
 42 43  1  0  0  0
 42 66  1  0  0  0
 42111  1  0  0  0
 42112  1  0  0  0
 43 44  1  0  0  0
 44113  1  0  0  0
 45 46  2  0  0  0
 45114  1  0  0  0
 46115  1  0  0  0
 47116  1  0  0  0
 47117  1  0  0  0
 48 56  1  0  0  0
 48 65  1  0  0  0
 48118  1  0  0  0
 49 50  1  0  0  0
 49 53  1  0  0  0
 49 64  1  0  0  0
 49119  1  0  0  0
 50 51  1  0  0  0
 50120  1  0  0  0
 50121  1  0  0  0
 51 52  1  0  0  0
 51122  1  0  0  0
 51123  1  0  0  0
 52124  1  0  0  0
 52125  1  0  0  0
 53 54  1  0  0  0
 54 55  2  0  0  0
 54126  1  0  0  0
 55 57  1  0  0  0
 55127  1  0  0  0
 56 69  2  0  0  0
 57 58  2  0  0  0
 57128  1  0  0  0
 58129  1  0  0  0
 59 60  1  0  0  0
 59 61  1  0  0  0
 59 62  1  0  0  0
 60130  1  0  0  0
 60131  1  0  0  0
 60132  1  0  0  0
 61133  1  0  0  0
 61134  1  0  0  0
 61135  1  0  0  0
 62136  1  0  0  0
 62137  1  0  0  0
 62138  1  0  0  0
 63 65  1  0  0  0
 63139  1  0  0  0
 63140  1  0  0  0
 63141  1  0  0  0
 64142  1  0  0  0
 65143  1  0  0  0
 68 81  1  0  0  0
 71 72  2  0  0  0
 71 73  1  0  0  0
 71144  1  0  0  0
 72 76  1  0  0  0
 72145  1  0  0  0
 73 74  2  0  0  0
 73 77  1  0  0  0
 74 75  1  0  0  0
 74 78  1  0  0  0
 75 76  2  0  0  0
 75 79  1  0  0  0
 76 84  1  0  0  0
 77146  1  0  0  0
 77147  1  0  0  0
 77148  1  0  0  0
 78 82  1  0  0  0
 78149  1  0  0  0
 78150  1  0  0  0
 79 83  1  0  0  0
 79151  1  0  0  0
 79152  1  0  0  0
 80 81  1  0  0  0
 80 83  1  0  0  0
 80153  1  0  0  0
 80154  1  0  0  0
 81155  1  0  0  0
 81156  1  0  0  0
 82157  1  0  0  0
 83158  1  0  0  0
 83159  1  0  0  0
M  CHG  1  83   1
M  ISO  4   1 100  68 101  81 101  82 100
M  END
> <chiral flag>
0

> <version>
0

> <s_m_source_file>
/data/baiqing/PycharmProjects/Reinvent-master-3.2/result/LINK_invent/BTK/process_docking_weight1_custom_product_contain_oxygen_bond_distance_aromatic_linkinvent_7_9_3/rearranged_h_0042.sdf

> <i_m_source_file_index>
16

> <r_mmod_Potential_Energy-OPLS-2005>
66.4594802856445

> <r_mmod_Stretch_Energy-OPLS-2005>
164.268478393555

> <r_mmod_Bend_Energy-OPLS-2005>
210.89892578125

> <r_mmod_Torsional_Energy-OPLS-2005>
232.336547851562

> <r_mmod_Improper_Torsional_Energy-OPLS-2005>
5.71688413619995

> <r_mmod_Van_der_Waal_Energy-OPLS-2005>
155.382034301758

> <r_mmod_Electrostatic_Energy-OPLS-2005>
-352.3515625

> <r_mmod_Solvation_Energy-OPLS-2005>
-450.513122558594

> <b_mmod_Minimization_Converged-OPLS-2005>
0

> <r_mmod_RMS_Derivative-OPLS-2005>
3.5761604309082

$$$$
16
                    3D
 Structure written by MMmdl.
165173  0  0  1  0            999 V2000
  -30.6444  -14.5516   20.5604 C   0  0  0  0  0  0
  -30.4478  -12.3551   19.4236 C   0  0  0  0  0  0
  -29.5063  -12.5068   18.2085 C   0  0  0  0  0  0
  -28.0273  -12.3481   18.6230 C   0  0  0  0  0  0
  -27.6609  -13.2005   19.8668 C   0  0  2  0  0  0
  -28.7068  -12.9980   20.9860 C   0  0  0  0  0  0
  -25.2613  -13.8145   20.5672 C   0  0  0  0  0  0
  -24.1853  -13.0436   20.9173 C   0  0  0  0  0  0
  -24.6396  -11.6899   20.8734 C   0  0  0  0  0  0
  -23.9059  -10.4290   21.0412 C   0  0  0  0  0  0
  -24.3613   -9.4208   21.9190 C   0  0  0  0  0  0
  -23.6285   -8.2244   22.0760 C   0  0  0  0  0  0
  -22.4269   -8.0286   21.3548 C   0  0  0  0  0  0
  -21.9904   -9.0260   20.4650 C   0  0  0  0  0  0
  -22.7235  -10.2138   20.3058 C   0  0  0  0  0  0
  -21.6850   -6.0742   22.5281 C   0  0  0  0  0  0
  -21.4011   -6.5646   23.8216 C   0  0  0  0  0  0
  -21.3654   -5.6795   24.9174 C   0  0  0  0  0  0
  -21.6043   -4.3055   24.7222 C   0  0  0  0  0  0
  -21.8820   -3.8152   23.4341 C   0  0  0  0  0  0
  -21.9193   -4.6972   22.3397 C   0  0  0  0  0  0
  -22.7878  -13.5249   21.1828 C   0  0  0  0  0  0
  -22.1663   -4.2159   21.0972 F   0  0  0  0  0  0
  -21.5625   -3.4534   25.7732 F   0  0  0  0  0  0
  -30.0276  -13.3418   20.4304 N   0  0  0  0  0  0
  -26.3028  -12.9288   20.3324 N   0  0  0  0  0  0
  -25.9318  -11.6463   20.5753 N   0  0  0  0  0  0
  -22.0501  -12.8255   22.0382 N   0  0  0  0  0  0
  -25.4376  -15.1862   20.4085 N   0  0  0  0  0  0
  -31.7968  -14.7598   20.1671 O   0  0  0  0  0  0
  -21.6635   -6.8884   21.4239 O   0  0  0  0  0  0
  -22.3580  -14.5562   20.6680 O   0  0  0  0  0  0
  -24.6211  -31.8642   23.2045 C   0  0  0  0  0  0
  -25.9077  -32.4817   23.8353 C   0  0  1  0  0  0
  -27.2406  -27.3781   20.1099 C   0  0  0  0  0  0
  -25.5918  -33.8611   24.2281 N   0  0  0  0  0  0
  -23.4129  -30.4857   21.5455 C   0  0  2  0  0  0
  -24.8614  -28.9421   20.1163 C   0  0  0  0  0  0
  -22.7457  -29.4640   22.4942 C   0  0  0  0  0  0
  -18.0277  -28.1409   22.8478 C   0  0  0  0  0  0
  -24.1485  -36.7285   23.2638 C   0  0  0  0  0  0
  -25.9477  -30.8118   21.3656 C   0  0  0  0  0  0
  -26.0252  -29.4419   20.7133 C   0  0  0  0  0  0
  -27.2200  -28.6717   20.6984 C   0  0  0  0  0  0
  -26.0561  -26.9122   19.4967 C   0  0  0  0  0  0
  -24.8756  -27.6797   19.5011 C   0  0  0  0  0  0
  -23.6254  -29.8156   20.1623 C   0  0  0  0  0  0
  -25.4118  -36.3100   24.0332 C   0  0  1  0  0  0
  -20.5876  -28.3698   23.1291 C   0  0  2  0  0  0
  -20.6765  -26.9421   22.5425 C   0  0  0  0  0  0
  -19.5749  -26.6392   21.5223 C   0  0  0  0  0  0
  -18.1919  -26.7950   22.1618 C   0  0  0  0  0  0
  -19.1535  -28.8868   23.2878 C   0  0  0  0  0  0
  -18.9466  -30.1462   23.8907 C   0  0  0  0  0  0
  -17.6473  -30.6614   24.0577 C   0  0  0  0  0  0
  -25.9052  -34.9479   23.5105 C   0  0  0  0  0  0
  -16.5356  -29.9125   23.6338 C   0  0  0  0  0  0
  -16.7270  -28.6541   23.0352 C   0  0  0  0  0  0
  -26.4473  -31.6629   25.0716 C   0  0  0  0  0  0
  -25.3715  -31.3784   26.1444 C   0  0  0  0  0  0
  -27.0303  -30.3068   24.6134 C   0  0  0  0  0  0
  -27.6039  -32.4351   25.7486 C   0  0  0  0  0  0
  -27.5580  -37.1796   24.8477 C   0  0  0  0  0  0
  -21.4171  -29.3058   22.3702 N   0  0  0  0  0  0
  -26.4295  -37.3798   23.9420 N   0  0  0  0  0  0
  -24.6789  -31.0694   22.0964 N   0  0  0  0  0  0
  -23.4217  -28.8172   23.2991 O   0  0  0  0  0  0
  -28.3937  -26.5979   20.1015 O   0  0  0  0  0  0
  -26.5607  -34.8940   22.4660 O   0  0  0  0  0  0
  -23.5377  -32.1389   23.7405 O   0  0  0  0  0  0
  -30.1447  -18.2204   23.5177 C   0  0  0  0  0  0
  -30.1754  -18.0269   20.7272 C   0  0  0  0  0  0
  -30.2675  -19.3960   22.7474 C   0  0  0  0  0  0
  -30.0325  -16.9524   22.9167 C   0  0  0  0  0  0
  -30.2667  -19.3243   21.3282 C   0  0  0  0  0  0
  -30.0746  -16.8350   21.5083 C   0  0  0  0  0  0
  -30.4016  -20.7121   23.4944 C   0  0  0  0  0  0
  -29.8351  -15.7317   23.8037 C   0  0  0  0  0  0
  -29.5320  -23.9753   18.6465 C   0  0  0  0  0  0
  -30.4704  -20.5989   20.4566 C   0  0  0  0  0  0
  -29.7139  -22.9982   21.0564 C   0  0  0  0  0  0
  -28.2716  -25.2083   20.5355 C   0  0  0  0  0  0
  -29.4844  -24.2828   20.1561 C   0  0  2  0  0  0
  -29.8045  -15.5504   20.9286 N   0  0  0  0  0  0
  -29.3949  -21.6510   20.4600 N   0  3  0  0  0  0
  -31.4856  -12.4973   19.1168 H   0  0  0  0  0  0
  -30.3937  -11.3476   19.8382 H   0  0  0  0  0  0
  -29.7613  -11.7736   17.4416 H   0  0  0  0  0  0
  -29.6529  -13.4878   17.7541 H   0  0  0  0  0  0
  -27.8534  -11.2927   18.8365 H   0  0  0  0  0  0
  -27.3732  -12.6003   17.7873 H   0  0  0  0  0  0
  -27.6952  -14.2428   19.5501 H   0  0  0  0  0  0
  -28.7074  -11.9605   21.3227 H   0  0  0  0  0  0
  -28.4587  -13.5890   21.8682 H   0  0  0  0  0  0
  -25.2762   -9.5686   22.4759 H   0  0  0  0  0  0
  -23.9999   -7.4637   22.7479 H   0  0  0  0  0  0
  -21.0836   -8.8778   19.8955 H   0  0  0  0  0  0
  -22.3700  -10.9675   19.6162 H   0  0  0  0  0  0
  -21.2004   -7.6153   23.9724 H   0  0  0  0  0  0
  -21.1472   -6.0520   25.9081 H   0  0  0  0  0  0
  -22.0604   -2.7613   23.2833 H   0  0  0  0  0  0
  -22.4081  -11.9895   22.4755 H   0  0  0  0  0  0
  -21.1127  -13.1314   22.2578 H   0  0  0  0  0  0
  -24.6755  -15.8463   20.5205 H   0  0  0  0  0  0
  -26.2889  -15.6217   20.0767 H   0  0  0  0  0  0
  -26.7150  -32.5507   23.1110 H   0  0  0  0  0  0
  -25.0158  -33.9775   25.0483 H   0  0  0  0  0  0
  -22.7040  -31.3031   21.4017 H   0  0  0  0  0  0
  -23.3760  -35.9603   23.3339 H   0  0  0  0  0  0
  -24.3576  -36.8863   22.2048 H   0  0  0  0  0  0
  -23.7218  -37.6491   23.6624 H   0  0  0  0  0  0
  -26.0684  -31.5738   20.5943 H   0  0  0  0  0  0
  -26.8317  -30.8656   21.9886 H   0  0  0  0  0  0
  -28.1186  -29.0571   21.1581 H   0  0  0  0  0  0
  -26.0341  -25.9534   18.9996 H   0  0  0  0  0  0
  -23.9851  -27.2924   19.0263 H   0  0  0  0  0  0
  -23.7440  -30.5894   19.4034 H   0  0  0  0  0  0
  -22.7465  -29.2414   19.8622 H   0  0  0  0  0  0
  -25.1292  -36.1948   25.0824 H   0  0  0  0  0  0
  -20.9970  -28.3270   24.1411 H   0  0  0  0  0  0
  -20.5664  -26.2314   23.3624 H   0  0  0  0  0  0
  -21.6633  -26.7453   22.1220 H   0  0  0  0  0  0
  -19.6924  -25.6301   21.1251 H   0  0  0  0  0  0
  -19.6705  -27.3201   20.6757 H   0  0  0  0  0  0
  -17.4196  -26.6706   21.4012 H   0  0  0  0  0  0
  -18.0311  -26.0087   22.9016 H   0  0  0  0  0  0
  -19.7950  -30.7266   24.2277 H   0  0  0  0  0  0
  -17.5047  -31.6292   24.5186 H   0  0  0  0  0  0
  -15.5362  -30.3050   23.7670 H   0  0  0  0  0  0
  -15.8658  -28.0886   22.7065 H   0  0  0  0  0  0
  -24.5906  -30.7112   25.7791 H   0  0  0  0  0  0
  -24.8878  -32.2966   26.4802 H   0  0  0  0  0  0
  -25.8031  -30.9029   27.0262 H   0  0  0  0  0  0
  -26.2874  -29.6846   24.1133 H   0  0  0  0  0  0
  -27.4018  -29.7298   25.4608 H   0  0  0  0  0  0
  -27.8731  -30.4400   23.9341 H   0  0  0  0  0  0
  -27.2674  -33.3676   26.2040 H   0  0  0  0  0  0
  -28.3864  -32.6879   25.0319 H   0  0  0  0  0  0
  -28.0687  -31.8489   26.5422 H   0  0  0  0  0  0
  -28.2609  -38.0082   24.7508 H   0  0  0  0  0  0
  -28.1046  -36.2606   24.6303 H   0  0  0  0  0  0
  -27.2288  -37.1462   25.8878 H   0  0  0  0  0  0
  -20.9334  -29.8812   21.6939 H   0  0  0  0  0  0
  -26.0172  -38.2867   24.1433 H   0  0  0  0  0  0
  -30.1255  -18.2922   24.5967 H   0  0  0  0  0  0
  -30.1735  -17.9401   19.6494 H   0  0  0  0  0  0
  -30.6725  -20.5414   24.5371 H   0  0  0  0  0  0
  -29.4560  -21.2544   23.4900 H   0  0  0  0  0  0
  -31.1824  -21.3412   23.0699 H   0  0  0  0  0  0
  -29.8092  -16.0016   24.8602 H   0  0  0  0  0  0
  -30.6414  -15.0113   23.6627 H   0  0  0  0  0  0
  -28.8895  -15.2420   23.5713 H   0  0  0  0  0  0
  -30.4562  -23.4645   18.3711 H   0  0  0  0  0  0
  -29.4923  -24.8958   18.0621 H   0  0  0  0  0  0
  -28.6906  -23.3568   18.3329 H   0  0  0  0  0  0
  -30.5675  -20.2725   19.4209 H   0  0  0  0  0  0
  -31.4445  -21.0287   20.6910 H   0  0  0  0  0  0
  -29.1633  -23.1019   21.9914 H   0  0  0  0  0  0
  -30.7615  -23.0056   21.3595 H   0  0  0  0  0  0
  -28.1813  -25.2415   21.6214 H   0  0  0  0  0  0
  -27.3580  -24.7347   20.1778 H   0  0  0  0  0  0
  -30.3550  -24.9081   20.3629 H   0  0  0  0  0  0
  -28.8765  -15.2038   21.1138 H   0  0  0  0  0  0
  -28.5696  -21.2694   20.8924 H   0  0  0  0  0  0
  -29.1674  -21.8150   19.4934 H   0  0  0  0  0  0
  1 25  1  0  0  0
  1 30  2  0  0  0
  1 84  1  0  0  0
  2  3  1  0  0  0
  2 25  1  0  0  0
  2 86  1  0  0  0
  2 87  1  0  0  0
  3  4  1  0  0  0
  3 88  1  0  0  0
  3 89  1  0  0  0
  4  5  1  0  0  0
  4 90  1  0  0  0
  4 91  1  0  0  0
  5  6  1  0  0  0
  5 26  1  0  0  0
  5 92  1  0  0  0
  6 25  1  0  0  0
  6 93  1  0  0  0
  6 94  1  0  0  0
  7  8  2  0  0  0
  7 26  1  0  0  0
  7 29  1  0  0  0
  8  9  1  0  0  0
  8 22  1  0  0  0
  9 10  1  0  0  0
  9 27  2  0  0  0
 10 11  2  0  0  0
 10 15  1  0  0  0
 11 12  1  0  0  0
 11 95  1  0  0  0
 12 13  2  0  0  0
 12 96  1  0  0  0
 13 14  1  0  0  0
 13 31  1  0  0  0
 14 15  2  0  0  0
 14 97  1  0  0  0
 15 98  1  0  0  0
 16 17  2  0  0  0
 16 21  1  0  0  0
 16 31  1  0  0  0
 17 18  1  0  0  0
 17 99  1  0  0  0
 18 19  2  0  0  0
 18100  1  0  0  0
 19 20  1  0  0  0
 19 24  1  0  0  0
 20 21  2  0  0  0
 20101  1  0  0  0
 21 23  1  0  0  0
 22 28  1  0  0  0
 22 32  2  0  0  0
 26 27  1  0  0  0
 28102  1  0  0  0
 28103  1  0  0  0
 29104  1  0  0  0
 29105  1  0  0  0
 33 34  1  0  0  0
 33 66  1  0  0  0
 33 70  2  0  0  0
 34 36  1  0  0  0
 34 59  1  0  0  0
 34106  1  0  0  0
 35 44  2  0  0  0
 35 45  1  0  0  0
 35 68  1  0  0  0
 36 56  1  0  0  0
 36107  1  0  0  0
 37 39  1  0  0  0
 37 47  1  0  0  0
 37 66  1  0  0  0
 37108  1  0  0  0
 38 43  2  0  0  0
 38 46  1  0  0  0
 38 47  1  0  0  0
 39 64  1  0  0  0
 39 67  2  0  0  0
 40 52  1  0  0  0
 40 53  2  0  0  0
 40 58  1  0  0  0
 41109  1  0  0  0
 41110  1  0  0  0
 41111  1  0  0  0
 41 48  1  0  0  0
 42 43  1  0  0  0
 42 66  1  0  0  0
 42112  1  0  0  0
 42113  1  0  0  0
 43 44  1  0  0  0
 44114  1  0  0  0
 45 46  2  0  0  0
 45115  1  0  0  0
 46116  1  0  0  0
 47117  1  0  0  0
 47118  1  0  0  0
 48 56  1  0  0  0
 48 65  1  0  0  0
 48119  1  0  0  0
 49 50  1  0  0  0
 49 53  1  0  0  0
 49 64  1  0  0  0
 49120  1  0  0  0
 50 51  1  0  0  0
 50121  1  0  0  0
 50122  1  0  0  0
 51 52  1  0  0  0
 51123  1  0  0  0
 51124  1  0  0  0
 52125  1  0  0  0
 52126  1  0  0  0
 53 54  1  0  0  0
 54 55  2  0  0  0
 54127  1  0  0  0
 55 57  1  0  0  0
 55128  1  0  0  0
 56 69  2  0  0  0
 57 58  2  0  0  0
 57129  1  0  0  0
 58130  1  0  0  0
 59 60  1  0  0  0
 59 61  1  0  0  0
 59 62  1  0  0  0
 60131  1  0  0  0
 60132  1  0  0  0
 60133  1  0  0  0
 61134  1  0  0  0
 61135  1  0  0  0
 61136  1  0  0  0
 62137  1  0  0  0
 62138  1  0  0  0
 62139  1  0  0  0
 63 65  1  0  0  0
 63140  1  0  0  0
 63141  1  0  0  0
 63142  1  0  0  0
 64143  1  0  0  0
 65144  1  0  0  0
 68 82  1  0  0  0
 71 73  2  0  0  0
 71 74  1  0  0  0
 71145  1  0  0  0
 72 75  2  0  0  0
 72 76  1  0  0  0
 72146  1  0  0  0
 73 75  1  0  0  0
 73 77  1  0  0  0
 74 76  2  0  0  0
 74 78  1  0  0  0
 75 80  1  0  0  0
 76 84  1  0  0  0
 77147  1  0  0  0
 77148  1  0  0  0
 77149  1  0  0  0
 78150  1  0  0  0
 78151  1  0  0  0
 78152  1  0  0  0
 79153  1  0  0  0
 79154  1  0  0  0
 79155  1  0  0  0
 79 83  1  0  0  0
 80 85  1  0  0  0
 80156  1  0  0  0
 80157  1  0  0  0
 81 83  1  0  0  0
 81 85  1  0  0  0
 81158  1  0  0  0
 81159  1  0  0  0
 82 83  1  0  0  0
 82160  1  0  0  0
 82161  1  0  0  0
 83162  1  0  0  0
 84163  1  0  0  0
 85164  1  0  0  0
 85165  1  0  0  0
M  CHG  1  85   1
M  ISO  4   1 100  68 101  82 101  84 100
M  END
> <chiral flag>
0

> <version>
0

> <s_m_source_file>
/data/baiqing/PycharmProjects/Reinvent-master-3.2/result/LINK_invent/BTK/process_docking_weight1_custom_product_contain_oxygen_bond_distance_aromatic_linkinvent_7_9_3/rearranged_h_0042.sdf

> <i_m_source_file_index>
17

> <r_mmod_Potential_Energy-OPLS-2005>
-156.883117675781

> <r_mmod_Stretch_Energy-OPLS-2005>
56.8630409240723

> <r_mmod_Bend_Energy-OPLS-2005>
123.026565551758

> <r_mmod_Torsional_Energy-OPLS-2005>
287.85107421875

> <r_mmod_Improper_Torsional_Energy-OPLS-2005>
7.91521024703979

> <r_mmod_Van_der_Waal_Energy-OPLS-2005>
144.30549621582

> <r_mmod_Electrostatic_Energy-OPLS-2005>
-338.553100585938

> <r_mmod_Solvation_Energy-OPLS-2005>
-463.413452148438

> <b_mmod_Minimization_Converged-OPLS-2005>
0

> <r_mmod_RMS_Derivative-OPLS-2005>
1.86529576778412

$$$$
17
                    3D
 Structure written by MMmdl.
158167  0  0  1  0            999 V2000
  -30.5796  -14.6643   20.5009 C   0  0  0  0  0  0
  -30.4488  -12.4111   19.4560 C   0  0  0  0  0  0
  -29.5159  -12.4992   18.2254 C   0  0  0  0  0  0
  -28.0320  -12.3546   18.6277 C   0  0  0  0  0  0
  -27.6553  -13.2146   19.8646 C   0  0  2  0  0  0
  -28.6971  -13.0468   20.9927 C   0  0  0  0  0  0
  -25.2572  -13.8172   20.5610 C   0  0  0  0  0  0
  -24.1833  -13.0453   20.9132 C   0  0  0  0  0  0
  -24.6383  -11.6916   20.8700 C   0  0  0  0  0  0
  -23.9035  -10.4306   21.0381 C   0  0  0  0  0  0
  -24.3608   -9.4244   21.9167 C   0  0  0  0  0  0
  -23.6305   -8.2273   22.0752 C   0  0  0  0  0  0
  -22.4292   -8.0296   21.3541 C   0  0  0  0  0  0
  -21.9898   -9.0255   20.4638 C   0  0  0  0  0  0
  -22.7202  -10.2140   20.3036 C   0  0  0  0  0  0
  -21.6876   -6.0750   22.5268 C   0  0  0  0  0  0
  -21.4029   -6.5656   23.8205 C   0  0  0  0  0  0
  -21.3646   -5.6802   24.9153 C   0  0  0  0  0  0
  -21.6037   -4.3065   24.7202 C   0  0  0  0  0  0
  -21.8837   -3.8162   23.4326 C   0  0  0  0  0  0
  -21.9214   -4.6979   22.3383 C   0  0  0  0  0  0
  -22.7861  -13.5249   21.1797 C   0  0  0  0  0  0
  -22.1677   -4.2171   21.0959 F   0  0  0  0  0  0
  -21.5609   -3.4534   25.7708 F   0  0  0  0  0  0
  -30.0070  -13.4211   20.4399 N   0  0  0  0  0  0
  -26.2991  -12.9329   20.3281 N   0  0  0  0  0  0
  -25.9321  -11.6491   20.5744 N   0  0  0  0  0  0
  -22.0514  -12.8252   22.0362 N   0  0  0  0  0  0
  -25.4314  -15.1882   20.3991 N   0  0  0  0  0  0
  -31.7193  -14.8665   20.0680 O   0  0  0  0  0  0
  -21.6676   -6.8885   21.4229 O   0  0  0  0  0  0
  -22.3559  -14.5572   20.6667 O   0  0  0  0  0  0
  -24.6230  -31.8595   23.1967 C   0  0  0  0  0  0
  -25.9068  -32.4792   23.8302 C   0  0  1  0  0  0
  -27.2522  -27.3438   20.1145 C   0  0  0  0  0  0
  -25.5883  -33.8587   24.2236 N   0  0  0  0  0  0
  -23.4183  -30.4797   21.5359 C   0  0  2  0  0  0
  -24.8718  -28.9180   20.1273 C   0  0  0  0  0  0
  -22.7425  -29.4675   22.4921 C   0  0  0  0  0  0
  -18.0290  -28.1435   22.8553 C   0  0  0  0  0  0
  -24.1462  -36.7256   23.2646 C   0  0  0  0  0  0
  -25.9550  -30.8004   21.3606 C   0  0  0  0  0  0
  -26.0387  -29.4210   20.7201 C   0  0  0  0  0  0
  -27.2323  -28.6435   20.7055 C   0  0  0  0  0  0
  -26.0632  -26.8730   19.5256 C   0  0  0  0  0  0
  -24.8804  -27.6458   19.5316 C   0  0  0  0  0  0
  -23.6350  -29.7944   20.1600 C   0  0  0  0  0  0
  -25.4089  -36.3079   24.0331 C   0  0  1  0  0  0
  -20.5883  -28.3712   23.1295 C   0  0  2  0  0  0
  -20.6792  -26.9439   22.5422 C   0  0  0  0  0  0
  -19.5748  -26.6439   21.5241 C   0  0  0  0  0  0
  -18.1917  -26.8009   22.1635 C   0  0  0  0  0  0
  -19.1542  -28.8873   23.2948 C   0  0  0  0  0  0
  -18.9509  -30.1496   23.8932 C   0  0  0  0  0  0
  -17.6515  -30.6653   24.0599 C   0  0  0  0  0  0
  -25.9021  -34.9470   23.5080 C   0  0  0  0  0  0
  -16.5383  -29.9182   23.6365 C   0  0  0  0  0  0
  -16.7277  -28.6586   23.0391 C   0  0  0  0  0  0
  -26.4461  -31.6614   25.0671 C   0  0  0  0  0  0
  -25.3707  -31.3807   26.1399 C   0  0  0  0  0  0
  -27.0281  -30.3047   24.6094 C   0  0  0  0  0  0
  -27.5994  -32.4357   25.7469 C   0  0  0  0  0  0
  -27.5548  -37.1774   24.8468 C   0  0  0  0  0  0
  -21.4140  -29.3087   22.3664 N   0  0  0  0  0  0
  -26.4255  -37.3786   23.9435 N   0  0  0  0  0  0
  -24.6835  -31.0627   22.0897 N   0  0  0  0  0  0
  -23.4144  -28.8215   23.3002 O   0  0  0  0  0  0
  -28.4003  -26.5487   20.0424 O   0  0  0  0  0  0
  -26.5623  -34.8953   22.4663 O   0  0  0  0  0  0
  -23.5402  -32.1362   23.7327 O   0  0  0  0  0  0
  -28.8879  -19.3916   21.2956 C   0  0  0  0  0  0
  -30.0205  -17.6755   19.4055 C   0  0  0  0  0  0
  -29.1801  -19.9651   20.0255 C   0  0  0  0  0  0
  -29.7090  -17.1155   20.6695 C   0  0  0  0  0  0
  -29.1606  -18.0269   21.6161 C   0  0  0  0  0  0
  -29.7695  -19.0476   19.0908 C   0  0  0  0  0  0
  -28.4583  -23.9355   19.8214 C   0  0  0  0  0  0
  -29.5843  -23.9434   22.4980 C   0  0  0  0  0  0
  -29.6099  -25.2278   21.6652 C   0  0  0  0  0  0
  -29.5916  -22.6511   21.6439 C   0  0  0  0  0  0
  -28.4049  -25.2395   20.7245 C   0  0  1  0  0  0
  -28.7100  -21.4248   19.5798 C   0  0  0  0  0  0
  -28.8643  -22.7219   20.3617 N   0  0  0  0  0  0
  -29.7819  -15.6774   20.9718 N   0  0  0  0  0  0
  -28.0791  -24.0258   18.6494 O   0  0  0  0  0  0
  -28.7796  -17.4759   23.2110 Cl  0  0  0  0  0  0
  -30.1467  -19.5388   17.4765 Cl  0  0  0  0  0  0
  -31.4852  -12.5679   19.1525 H   0  0  0  0  0  0
  -30.4153  -11.4154   19.8996 H   0  0  0  0  0  0
  -29.7804  -11.7220   17.5054 H   0  0  0  0  0  0
  -29.6677  -13.4522   17.7158 H   0  0  0  0  0  0
  -27.8499  -11.3016   18.8439 H   0  0  0  0  0  0
  -27.3901  -12.6045   17.7813 H   0  0  0  0  0  0
  -27.6784  -14.2536   19.5359 H   0  0  0  0  0  0
  -28.7221  -12.0120   21.3380 H   0  0  0  0  0  0
  -28.4354  -13.6416   21.8683 H   0  0  0  0  0  0
  -25.2753   -9.5767   22.4726 H   0  0  0  0  0  0
  -24.0052   -7.4687   22.7472 H   0  0  0  0  0  0
  -21.0836   -8.8737   19.8950 H   0  0  0  0  0  0
  -22.3634  -10.9670   19.6149 H   0  0  0  0  0  0
  -21.2033   -7.6171   23.9706 H   0  0  0  0  0  0
  -21.1430   -6.0520   25.9055 H   0  0  0  0  0  0
  -22.0634   -2.7630   23.2796 H   0  0  0  0  0  0
  -22.4154  -11.9915   22.4722 H   0  0  0  0  0  0
  -21.1143  -13.1283   22.2587 H   0  0  0  0  0  0
  -24.6671  -15.8458   20.5012 H   0  0  0  0  0  0
  -26.2743  -15.6161   20.0391 H   0  0  0  0  0  0
  -26.7138  -32.5458   23.1057 H   0  0  0  0  0  0
  -25.0011  -33.9742   25.0373 H   0  0  0  0  0  0
  -22.7143  -31.3015   21.3814 H   0  0  0  0  0  0
  -23.3758  -35.9555   23.3311 H   0  0  0  0  0  0
  -24.3554  -36.8872   22.2065 H   0  0  0  0  0  0
  -23.7204  -37.6453   23.6667 H   0  0  0  0  0  0
  -26.0661  -31.5586   20.5833 H   0  0  0  0  0  0
  -26.8428  -30.8662   21.9779 H   0  0  0  0  0  0
  -28.1334  -29.0393   21.1542 H   0  0  0  0  0  0
  -26.0555  -25.8983   19.0563 H   0  0  0  0  0  0
  -23.9823  -27.2465   19.0803 H   0  0  0  0  0  0
  -23.7557  -30.5581   19.3910 H   0  0  0  0  0  0
  -22.7595  -29.2153   19.8594 H   0  0  0  0  0  0
  -25.1307  -36.1865   25.0833 H   0  0  0  0  0  0
  -20.9988  -28.3296   24.1405 H   0  0  0  0  0  0
  -20.5711  -26.2309   23.3621 H   0  0  0  0  0  0
  -21.6655  -26.7525   22.1166 H   0  0  0  0  0  0
  -19.6892  -25.6364   21.1250 H   0  0  0  0  0  0
  -19.6680  -27.3276   20.6799 H   0  0  0  0  0  0
  -17.4193  -26.6792   21.4036 H   0  0  0  0  0  0
  -18.0293  -26.0169   22.9026 H   0  0  0  0  0  0
  -19.7980  -30.7340   24.2256 H   0  0  0  0  0  0
  -17.5091  -31.6328   24.5226 H   0  0  0  0  0  0
  -15.5391  -30.3125   23.7722 H   0  0  0  0  0  0
  -15.8657  -28.0955   22.7078 H   0  0  0  0  0  0
  -24.5863  -30.7148   25.7782 H   0  0  0  0  0  0
  -24.8911  -32.3020   26.4734 H   0  0  0  0  0  0
  -25.8034  -30.9079   27.0216 H   0  0  0  0  0  0
  -26.2841  -29.6825   24.1100 H   0  0  0  0  0  0
  -27.4009  -29.7265   25.4556 H   0  0  0  0  0  0
  -27.8694  -30.4383   23.9279 H   0  0  0  0  0  0
  -27.2569  -33.3689   26.1955 H   0  0  0  0  0  0
  -28.3867  -32.6841   25.0339 H   0  0  0  0  0  0
  -28.0556  -31.8515   26.5473 H   0  0  0  0  0  0
  -28.2554  -38.0079   24.7548 H   0  0  0  0  0  0
  -28.1049  -36.2624   24.6246 H   0  0  0  0  0  0
  -27.2276  -37.1360   25.8868 H   0  0  0  0  0  0
  -20.9263  -29.8775   21.6893 H   0  0  0  0  0  0
  -26.0099  -38.2821   24.1544 H   0  0  0  0  0  0
  -28.3817  -19.9789   22.0443 H   0  0  0  0  0  0
  -30.4033  -17.0346   18.6241 H   0  0  0  0  0  0
  -28.6790  -23.9623   23.1035 H   0  0  0  0  0  0
  -30.4153  -23.9302   23.2040 H   0  0  0  0  0  0
  -30.5414  -25.3074   21.1018 H   0  0  0  0  0  0
  -29.5686  -26.0976   22.3244 H   0  0  0  0  0  0
  -29.1640  -21.8760   22.2700 H   0  0  0  0  0  0
  -30.6186  -22.3529   21.4312 H   0  0  0  0  0  0
  -27.4997  -25.1576   21.3264 H   0  0  0  0  0  0
  -27.6380  -21.3311   19.3980 H   0  0  0  0  0  0
  -29.1381  -21.6321   18.6002 H   0  0  0  0  0  0
  -29.0026  -15.3448   21.5196 H   0  0  0  0  0  0
  1 25  1  0  0  0
  1 30  2  0  0  0
  1 84  1  0  0  0
  2  3  1  0  0  0
  2 25  1  0  0  0
  2 88  1  0  0  0
  2 89  1  0  0  0
  3  4  1  0  0  0
  3 90  1  0  0  0
  3 91  1  0  0  0
  4  5  1  0  0  0
  4 92  1  0  0  0
  4 93  1  0  0  0
  5  6  1  0  0  0
  5 26  1  0  0  0
  5 94  1  0  0  0
  6 25  1  0  0  0
  6 95  1  0  0  0
  6 96  1  0  0  0
  7  8  2  0  0  0
  7 26  1  0  0  0
  7 29  1  0  0  0
  8  9  1  0  0  0
  8 22  1  0  0  0
  9 10  1  0  0  0
  9 27  2  0  0  0
 10 11  2  0  0  0
 10 15  1  0  0  0
 11 12  1  0  0  0
 11 97  1  0  0  0
 12 13  2  0  0  0
 12 98  1  0  0  0
 13 14  1  0  0  0
 13 31  1  0  0  0
 14 15  2  0  0  0
 14 99  1  0  0  0
 15100  1  0  0  0
 16 17  2  0  0  0
 16 21  1  0  0  0
 16 31  1  0  0  0
 17 18  1  0  0  0
 17101  1  0  0  0
 18 19  2  0  0  0
 18102  1  0  0  0
 19 20  1  0  0  0
 19 24  1  0  0  0
 20 21  2  0  0  0
 20103  1  0  0  0
 21 23  1  0  0  0
 22 28  1  0  0  0
 22 32  2  0  0  0
 26 27  1  0  0  0
 28104  1  0  0  0
 28105  1  0  0  0
 29106  1  0  0  0
 29107  1  0  0  0
 33 34  1  0  0  0
 33 66  1  0  0  0
 33 70  2  0  0  0
 34 36  1  0  0  0
 34 59  1  0  0  0
 34108  1  0  0  0
 35 44  2  0  0  0
 35 45  1  0  0  0
 35 68  1  0  0  0
 36 56  1  0  0  0
 36109  1  0  0  0
 37 39  1  0  0  0
 37 47  1  0  0  0
 37 66  1  0  0  0
 37110  1  0  0  0
 38 43  2  0  0  0
 38 46  1  0  0  0
 38 47  1  0  0  0
 39 64  1  0  0  0
 39 67  2  0  0  0
 40 52  1  0  0  0
 40 53  2  0  0  0
 40 58  1  0  0  0
 41111  1  0  0  0
 41112  1  0  0  0
 41113  1  0  0  0
 41 48  1  0  0  0
 42 43  1  0  0  0
 42 66  1  0  0  0
 42114  1  0  0  0
 42115  1  0  0  0
 43 44  1  0  0  0
 44116  1  0  0  0
 45 46  2  0  0  0
 45117  1  0  0  0
 46118  1  0  0  0
 47119  1  0  0  0
 47120  1  0  0  0
 48 56  1  0  0  0
 48 65  1  0  0  0
 48121  1  0  0  0
 49 50  1  0  0  0
 49 53  1  0  0  0
 49 64  1  0  0  0
 49122  1  0  0  0
 50 51  1  0  0  0
 50123  1  0  0  0
 50124  1  0  0  0
 51 52  1  0  0  0
 51125  1  0  0  0
 51126  1  0  0  0
 52127  1  0  0  0
 52128  1  0  0  0
 53 54  1  0  0  0
 54 55  2  0  0  0
 54129  1  0  0  0
 55 57  1  0  0  0
 55130  1  0  0  0
 56 69  2  0  0  0
 57 58  2  0  0  0
 57131  1  0  0  0
 58132  1  0  0  0
 59 60  1  0  0  0
 59 61  1  0  0  0
 59 62  1  0  0  0
 60133  1  0  0  0
 60134  1  0  0  0
 60135  1  0  0  0
 61136  1  0  0  0
 61137  1  0  0  0
 61138  1  0  0  0
 62139  1  0  0  0
 62140  1  0  0  0
 62141  1  0  0  0
 63 65  1  0  0  0
 63142  1  0  0  0
 63143  1  0  0  0
 63144  1  0  0  0
 64145  1  0  0  0
 65146  1  0  0  0
 68 81  1  0  0  0
 71 73  2  0  0  0
 71 75  1  0  0  0
 71147  1  0  0  0
 72 74  1  0  0  0
 72 76  2  0  0  0
 72148  1  0  0  0
 73 76  1  0  0  0
 73 82  1  0  0  0
 74 75  2  0  0  0
 74 84  1  0  0  0
 75 86  1  0  0  0
 76 87  1  0  0  0
 77 81  1  0  0  0
 77 83  1  0  0  0
 77 85  2  0  0  0
 78 79  1  0  0  0
 78 80  1  0  0  0
 78149  1  0  0  0
 78150  1  0  0  0
 79 81  1  0  0  0
 79151  1  0  0  0
 79152  1  0  0  0
 80 83  1  0  0  0
 80153  1  0  0  0
 80154  1  0  0  0
 81155  1  0  0  0
 82 83  1  0  0  0
 82156  1  0  0  0
 82157  1  0  0  0
 84158  1  0  0  0
M  ISO  4   1 100  68 101  81 101  84 100
M  END
> <chiral flag>
0

> <version>
0

> <s_m_source_file>
/data/baiqing/PycharmProjects/Reinvent-master-3.2/result/LINK_invent/BTK/process_docking_weight1_custom_product_contain_oxygen_bond_distance_aromatic_linkinvent_7_9_3/rearranged_h_0042.sdf

> <i_m_source_file_index>
18

> <r_mmod_Potential_Energy-OPLS-2005>
127.831809997559

> <r_mmod_Stretch_Energy-OPLS-2005>
91.3547592163086

> <r_mmod_Bend_Energy-OPLS-2005>
156.50798034668

> <r_mmod_Torsional_Energy-OPLS-2005>
275.944213867188

> <r_mmod_Improper_Torsional_Energy-OPLS-2005>
5.25798749923706

> <r_mmod_Van_der_Waal_Energy-OPLS-2005>
147.189987182617

> <r_mmod_Electrostatic_Energy-OPLS-2005>
-362.141204833984

> <r_mmod_Solvation_Energy-OPLS-2005>
-232.733947753906

> <b_mmod_Minimization_Converged-OPLS-2005>
0

> <r_mmod_RMS_Derivative-OPLS-2005>
4.76626634597778

$$$$
18
                    3D
 Structure written by MMmdl.
151159  0  0  1  0            999 V2000
  -30.6289  -14.6638   20.4779 C   0  0  0  0  0  0
  -30.4302  -12.4052   19.4456 C   0  0  0  0  0  0
  -29.4963  -12.5094   18.2195 C   0  0  0  0  0  0
  -28.0195  -12.3565   18.6344 C   0  0  0  0  0  0
  -27.6459  -13.2267   19.8633 C   0  0  2  0  0  0
  -28.6995  -13.1039   20.9867 C   0  0  0  0  0  0
  -25.2507  -13.8185   20.5725 C   0  0  0  0  0  0
  -24.1800  -13.0428   20.9233 C   0  0  0  0  0  0
  -24.6388  -11.6913   20.8792 C   0  0  0  0  0  0
  -23.9068  -10.4290   21.0432 C   0  0  0  0  0  0
  -24.3623   -9.4188   21.9195 C   0  0  0  0  0  0
  -23.6296   -8.2222   22.0745 C   0  0  0  0  0  0
  -22.4277   -8.0268   21.3529 C   0  0  0  0  0  0
  -21.9900   -9.0260   20.4652 C   0  0  0  0  0  0
  -22.7230  -10.2142   20.3080 C   0  0  0  0  0  0
  -21.6849   -6.0738   22.5280 C   0  0  0  0  0  0
  -21.4019   -6.5649   23.8215 C   0  0  0  0  0  0
  -21.3669   -5.6801   24.9179 C   0  0  0  0  0  0
  -21.6040   -4.3058   24.7224 C   0  0  0  0  0  0
  -21.8818   -3.8151   23.4345 C   0  0  0  0  0  0
  -21.9185   -4.6964   22.3399 C   0  0  0  0  0  0
  -22.7822  -13.5207   21.1872 C   0  0  0  0  0  0
  -22.1658   -4.2154   21.0975 F   0  0  0  0  0  0
  -21.5615   -3.4540   25.7736 F   0  0  0  0  0  0
  -30.0082  -13.4430   20.4058 N   0  0  0  0  0  0
  -26.2961  -12.9389   20.3383 N   0  0  0  0  0  0
  -25.9329  -11.6530   20.5835 N   0  0  0  0  0  0
  -22.0476  -12.8250   22.0472 N   0  0  0  0  0  0
  -25.4071  -15.1916   20.4096 N   0  0  0  0  0  0
  -31.8158  -14.8046   20.1761 O   0  0  0  0  0  0
  -21.6624   -6.8880   21.4244 O   0  0  0  0  0  0
  -22.3530  -14.5516   20.6702 O   0  0  0  0  0  0
  -24.6267  -31.8580   23.2035 C   0  0  0  0  0  0
  -25.9104  -32.4776   23.8371 C   0  0  1  0  0  0
  -27.2284  -27.3119   20.1126 C   0  0  0  0  0  0
  -25.5924  -33.8586   24.2292 N   0  0  0  0  0  0
  -23.4233  -30.4836   21.5439 C   0  0  2  0  0  0
  -24.8708  -28.9393   20.1093 C   0  0  0  0  0  0
  -22.7490  -29.4616   22.4897 C   0  0  0  0  0  0
  -18.0302  -28.1375   22.8490 C   0  0  0  0  0  0
  -24.1489  -36.7300   23.2640 C   0  0  0  0  0  0
  -25.9664  -30.7858   21.3795 C   0  0  0  0  0  0
  -26.0401  -29.4151   20.7158 C   0  0  0  0  0  0
  -27.2210  -28.6133   20.7061 C   0  0  0  0  0  0
  -26.0344  -26.8940   19.4780 C   0  0  0  0  0  0
  -24.8701  -27.6854   19.4812 C   0  0  0  0  0  0
  -23.6410  -29.8226   20.1579 C   0  0  0  0  0  0
  -25.4113  -36.3083   24.0330 C   0  0  1  0  0  0
  -20.5903  -28.3689   23.1258 C   0  0  2  0  0  0
  -20.6779  -26.9400   22.5408 C   0  0  0  0  0  0
  -19.5763  -26.6362   21.5208 C   0  0  0  0  0  0
  -18.1946  -26.7911   22.1624 C   0  0  0  0  0  0
  -19.1561  -28.8844   23.2872 C   0  0  0  0  0  0
  -18.9467  -30.1442   23.8897 C   0  0  0  0  0  0
  -17.6474  -30.6570   24.0557 C   0  0  0  0  0  0
  -25.9049  -34.9455   23.5102 C   0  0  0  0  0  0
  -16.5364  -29.9072   23.6315 C   0  0  0  0  0  0
  -16.7297  -28.6486   23.0342 C   0  0  0  0  0  0
  -26.4501  -31.6605   25.0746 C   0  0  0  0  0  0
  -25.3750  -31.3783   26.1495 C   0  0  0  0  0  0
  -27.0328  -30.3011   24.6222 C   0  0  0  0  0  0
  -27.6059  -32.4356   25.7503 C   0  0  0  0  0  0
  -27.5588  -37.1804   24.8457 C   0  0  0  0  0  0
  -21.4203  -29.3046   22.3647 N   0  0  0  0  0  0
  -26.4288  -37.3777   23.9411 N   0  0  0  0  0  0
  -24.6906  -31.0589   22.0992 N   0  0  0  0  0  0
  -23.4206  -28.8129   23.2965 O   0  0  0  0  0  0
  -28.3481  -26.4609   20.1678 O   0  0  0  0  0  0
  -26.5609  -34.8914   22.4662 O   0  0  0  0  0  0
  -23.5421  -32.1391   23.7345 O   0  0  0  0  0  0
  -29.3649  -19.4620   19.8148 C   0  0  0  0  0  0
  -30.8430  -17.8539   21.5769 C   0  0  0  0  0  0
  -30.1422  -20.1342   20.7930 C   0  0  0  0  0  0
  -30.0296  -17.1880   20.6266 C   0  0  0  0  0  0
  -29.2994  -18.0351   19.7423 C   0  0  0  0  0  0
  -30.8986  -19.2795   21.6579 C   0  0  0  0  0  0
  -29.3227  -24.0546   20.4428 C   0  0  0  0  0  0
  -30.2465  -21.7115   20.9176 C   0  0  0  0  0  0
  -28.1375  -24.9977   19.9799 C   0  0  0  0  0  0
  -29.7969  -15.7410   20.6420 N   0  0  0  0  0  0
  -29.2282  -22.6796   20.3663 N   0  0  0  0  0  0
  -30.3413  -24.5809   20.8964 O   0  0  0  0  0  0
  -28.5075  -17.4691   18.8008 F   0  0  0  0  0  0
  -31.9243  -19.9629   22.8709 Cl  0  0  0  0  0  0
  -31.4703  -12.5287   19.1410 H   0  0  0  0  0  0
  -30.3597  -11.4156   19.9004 H   0  0  0  0  0  0
  -29.7514  -11.7469   17.4817 H   0  0  0  0  0  0
  -29.6434  -13.4732   17.7299 H   0  0  0  0  0  0
  -27.8494  -11.3042   18.8596 H   0  0  0  0  0  0
  -27.3651  -12.5941   17.7949 H   0  0  0  0  0  0
  -27.6489  -14.2606   19.5185 H   0  0  0  0  0  0
  -28.7172  -12.0923   21.3944 H   0  0  0  0  0  0
  -28.4526  -13.7604   21.8230 H   0  0  0  0  0  0
  -25.2762   -9.5663   22.4793 H   0  0  0  0  0  0
  -23.9986   -7.4619   22.7466 H   0  0  0  0  0  0
  -21.0809   -8.8814   19.8994 H   0  0  0  0  0  0
  -22.3668  -10.9714   19.6233 H   0  0  0  0  0  0
  -21.2029   -7.6166   23.9735 H   0  0  0  0  0  0
  -21.1492   -6.0525   25.9088 H   0  0  0  0  0  0
  -22.0581   -2.7612   23.2847 H   0  0  0  0  0  0
  -22.4064  -11.9933   22.4921 H   0  0  0  0  0  0
  -21.1117  -13.1330   22.2688 H   0  0  0  0  0  0
  -24.6084  -15.8140   20.4818 H   0  0  0  0  0  0
  -26.2205  -15.6466   20.0186 H   0  0  0  0  0  0
  -26.7163  -32.5439   23.1116 H   0  0  0  0  0  0
  -25.0114  -33.9743   25.0460 H   0  0  0  0  0  0
  -22.7191  -31.3059   21.4002 H   0  0  0  0  0  0
  -23.3742  -35.9639   23.3299 H   0  0  0  0  0  0
  -24.3577  -36.8927   22.2054 H   0  0  0  0  0  0
  -23.7250  -37.6506   23.6659 H   0  0  0  0  0  0
  -26.1060  -31.5537   20.6176 H   0  0  0  0  0  0
  -26.8425  -30.8257   22.0154 H   0  0  0  0  0  0
  -28.1191  -28.9741   21.1885 H   0  0  0  0  0  0
  -25.9707  -25.9399   18.9763 H   0  0  0  0  0  0
  -23.9746  -27.3193   18.9968 H   0  0  0  0  0  0
  -23.7714  -30.6034   19.4077 H   0  0  0  0  0  0
  -22.7601  -29.2596   19.8446 H   0  0  0  0  0  0
  -25.1295  -36.1941   25.0823 H   0  0  0  0  0  0
  -21.0017  -28.3267   24.1367 H   0  0  0  0  0  0
  -20.5639  -26.2315   23.3628 H   0  0  0  0  0  0
  -21.6649  -26.7389   22.1230 H   0  0  0  0  0  0
  -19.6919  -25.6263   21.1255 H   0  0  0  0  0  0
  -19.6696  -27.3159   20.6726 H   0  0  0  0  0  0
  -17.4209  -26.6658   21.4027 H   0  0  0  0  0  0
  -18.0352  -26.0052   22.9026 H   0  0  0  0  0  0
  -19.7944  -30.7251   24.2272 H   0  0  0  0  0  0
  -17.5022  -31.6246   24.5175 H   0  0  0  0  0  0
  -15.5363  -30.2970   23.7624 H   0  0  0  0  0  0
  -15.8706  -28.0802   22.7046 H   0  0  0  0  0  0
  -24.5829  -30.7247   25.7835 H   0  0  0  0  0  0
  -24.9068  -32.2982   26.5010 H   0  0  0  0  0  0
  -25.8065  -30.8865   27.0221 H   0  0  0  0  0  0
  -26.2900  -29.6780   24.1218 H   0  0  0  0  0  0
  -27.3979  -29.7265   25.4751 H   0  0  0  0  0  0
  -27.8809  -30.4291   23.9484 H   0  0  0  0  0  0
  -27.2645  -33.3628   26.2125 H   0  0  0  0  0  0
  -28.3832  -32.6978   25.0312 H   0  0  0  0  0  0
  -28.0771  -31.8471   26.5387 H   0  0  0  0  0  0
  -28.2595  -38.0113   24.7488 H   0  0  0  0  0  0
  -28.1088  -36.2635   24.6273 H   0  0  0  0  0  0
  -27.2310  -37.1453   25.8864 H   0  0  0  0  0  0
  -20.9373  -29.8808   21.6902 H   0  0  0  0  0  0
  -26.0169  -38.2849   24.1411 H   0  0  0  0  0  0
  -28.8030  -20.0459   19.1023 H   0  0  0  0  0  0
  -31.4099  -17.2705   22.2886 H   0  0  0  0  0  0
  -31.2212  -21.9947   20.5151 H   0  0  0  0  0  0
  -30.3054  -21.9420   21.9834 H   0  0  0  0  0  0
  -27.2538  -24.6861   20.5386 H   0  0  0  0  0  0
  -27.9396  -24.7985   18.9264 H   0  0  0  0  0  0
  -28.8229  -15.4827   20.6301 H   0  0  0  0  0  0
  -28.3810  -22.2884   19.9795 H   0  0  0  0  0  0
  1 25  1  0  0  0
  1 30  2  0  0  0
  1 80  1  0  0  0
  2  3  1  0  0  0
  2 25  1  0  0  0
  2 85  1  0  0  0
  2 86  1  0  0  0
  3  4  1  0  0  0
  3 87  1  0  0  0
  3 88  1  0  0  0
  4  5  1  0  0  0
  4 89  1  0  0  0
  4 90  1  0  0  0
  5  6  1  0  0  0
  5 26  1  0  0  0
  5 91  1  0  0  0
  6 25  1  0  0  0
  6 92  1  0  0  0
  6 93  1  0  0  0
  7  8  2  0  0  0
  7 26  1  0  0  0
  7 29  1  0  0  0
  8  9  1  0  0  0
  8 22  1  0  0  0
  9 10  1  0  0  0
  9 27  2  0  0  0
 10 11  2  0  0  0
 10 15  1  0  0  0
 11 12  1  0  0  0
 11 94  1  0  0  0
 12 13  2  0  0  0
 12 95  1  0  0  0
 13 14  1  0  0  0
 13 31  1  0  0  0
 14 15  2  0  0  0
 14 96  1  0  0  0
 15 97  1  0  0  0
 16 17  2  0  0  0
 16 21  1  0  0  0
 16 31  1  0  0  0
 17 18  1  0  0  0
 17 98  1  0  0  0
 18 19  2  0  0  0
 18 99  1  0  0  0
 19 20  1  0  0  0
 19 24  1  0  0  0
 20 21  2  0  0  0
 20100  1  0  0  0
 21 23  1  0  0  0
 22 28  1  0  0  0
 22 32  2  0  0  0
 26 27  1  0  0  0
 28101  1  0  0  0
 28102  1  0  0  0
 29103  1  0  0  0
 29104  1  0  0  0
 33 34  1  0  0  0
 33 66  1  0  0  0
 33 70  2  0  0  0
 34 36  1  0  0  0
 34 59  1  0  0  0
 34105  1  0  0  0
 35 44  2  0  0  0
 35 45  1  0  0  0
 35 68  1  0  0  0
 36 56  1  0  0  0
 36106  1  0  0  0
 37 39  1  0  0  0
 37 47  1  0  0  0
 37 66  1  0  0  0
 37107  1  0  0  0
 38 43  2  0  0  0
 38 46  1  0  0  0
 38 47  1  0  0  0
 39 64  1  0  0  0
 39 67  2  0  0  0
 40 52  1  0  0  0
 40 53  2  0  0  0
 40 58  1  0  0  0
 41108  1  0  0  0
 41109  1  0  0  0
 41110  1  0  0  0
 41 48  1  0  0  0
 42 43  1  0  0  0
 42 66  1  0  0  0
 42111  1  0  0  0
 42112  1  0  0  0
 43 44  1  0  0  0
 44113  1  0  0  0
 45 46  2  0  0  0
 45114  1  0  0  0
 46115  1  0  0  0
 47116  1  0  0  0
 47117  1  0  0  0
 48 56  1  0  0  0
 48 65  1  0  0  0
 48118  1  0  0  0
 49 50  1  0  0  0
 49 53  1  0  0  0
 49 64  1  0  0  0
 49119  1  0  0  0
 50 51  1  0  0  0
 50120  1  0  0  0
 50121  1  0  0  0
 51 52  1  0  0  0
 51122  1  0  0  0
 51123  1  0  0  0
 52124  1  0  0  0
 52125  1  0  0  0
 53 54  1  0  0  0
 54 55  2  0  0  0
 54126  1  0  0  0
 55 57  1  0  0  0
 55127  1  0  0  0
 56 69  2  0  0  0
 57 58  2  0  0  0
 57128  1  0  0  0
 58129  1  0  0  0
 59 60  1  0  0  0
 59 61  1  0  0  0
 59 62  1  0  0  0
 60130  1  0  0  0
 60131  1  0  0  0
 60132  1  0  0  0
 61133  1  0  0  0
 61134  1  0  0  0
 61135  1  0  0  0
 62136  1  0  0  0
 62137  1  0  0  0
 62138  1  0  0  0
 63 65  1  0  0  0
 63139  1  0  0  0
 63140  1  0  0  0
 63141  1  0  0  0
 64142  1  0  0  0
 65143  1  0  0  0
 68 79  1  0  0  0
 71 73  2  0  0  0
 71 75  1  0  0  0
 71144  1  0  0  0
 72 74  1  0  0  0
 72 76  2  0  0  0
 72145  1  0  0  0
 73 76  1  0  0  0
 73 78  1  0  0  0
 74 75  2  0  0  0
 74 80  1  0  0  0
 75 83  1  0  0  0
 76 84  1  0  0  0
 77 79  1  0  0  0
 77 81  1  0  0  0
 77 82  2  0  0  0
 78 81  1  0  0  0
 78146  1  0  0  0
 78147  1  0  0  0
 79148  1  0  0  0
 79149  1  0  0  0
 80150  1  0  0  0
 81151  1  0  0  0
M  ISO  4   1 100  68 101  79 101  80 100
M  END
> <chiral flag>
0

> <version>
0

> <s_m_source_file>
/data/baiqing/PycharmProjects/Reinvent-master-3.2/result/LINK_invent/BTK/process_docking_weight1_custom_product_contain_oxygen_bond_distance_aromatic_linkinvent_7_9_3/rearranged_h_0042.sdf

> <i_m_source_file_index>
19

> <r_mmod_Potential_Energy-OPLS-2005>
-25.7990455627441

> <r_mmod_Stretch_Energy-OPLS-2005>
85.2908935546875

> <r_mmod_Bend_Energy-OPLS-2005>
136.071228027344

> <r_mmod_Torsional_Energy-OPLS-2005>
229.793701171875

> <r_mmod_Improper_Torsional_Energy-OPLS-2005>
7.59127473831177

> <r_mmod_Van_der_Waal_Energy-OPLS-2005>
140.256484985352

> <r_mmod_Electrostatic_Energy-OPLS-2005>
-432.100402832031

> <r_mmod_Solvation_Energy-OPLS-2005>
-248.761001586914

> <b_mmod_Minimization_Converged-OPLS-2005>
0

> <r_mmod_RMS_Derivative-OPLS-2005>
3.38507628440857

$$$$
19
                    3D
 Structure written by MMmdl.
156164  0  0  1  0            999 V2000
  -30.6835  -14.5295   20.5632 C   0  0  0  0  0  0
  -30.4341  -12.3320   19.4599 C   0  0  0  0  0  0
  -29.5156  -12.5135   18.2312 C   0  0  0  0  0  0
  -28.0307  -12.3770   18.6224 C   0  0  0  0  0  0
  -27.6662  -13.2184   19.8767 C   0  0  2  0  0  0
  -28.7035  -13.0154   21.0082 C   0  0  0  0  0  0
  -25.2565  -13.8191   20.5664 C   0  0  0  0  0  0
  -24.1842  -13.0447   20.9158 C   0  0  0  0  0  0
  -24.6418  -11.6921   20.8694 C   0  0  0  0  0  0
  -23.9083  -10.4304   21.0363 C   0  0  0  0  0  0
  -24.3628   -9.4221   21.9158 C   0  0  0  0  0  0
  -23.6309   -8.2253   22.0750 C   0  0  0  0  0  0
  -22.4293   -8.0281   21.3536 C   0  0  0  0  0  0
  -21.9910   -9.0256   20.4634 C   0  0  0  0  0  0
  -22.7236  -10.2135   20.3035 C   0  0  0  0  0  0
  -21.6862   -6.0727   22.5286 C   0  0  0  0  0  0
  -21.4006   -6.5627   23.8219 C   0  0  0  0  0  0
  -21.3667   -5.6780   24.9180 C   0  0  0  0  0  0
  -21.6059   -4.3047   24.7224 C   0  0  0  0  0  0
  -21.8821   -3.8135   23.4344 C   0  0  0  0  0  0
  -21.9185   -4.6952   22.3396 C   0  0  0  0  0  0
  -22.7849  -13.5228   21.1816 C   0  0  0  0  0  0
  -22.1667   -4.2156   21.0977 F   0  0  0  0  0  0
  -21.5632   -3.4528   25.7725 F   0  0  0  0  0  0
  -30.0437  -13.3243   20.4779 N   0  0  0  0  0  0
  -26.3049  -12.9409   20.3348 N   0  0  0  0  0  0
  -25.9364  -11.6556   20.5732 N   0  0  0  0  0  0
  -22.0492  -12.8248   22.0382 N   0  0  0  0  0  0
  -25.4221  -15.1916   20.4098 N   0  0  0  0  0  0
  -31.7525  -14.7466   19.9898 O   0  0  0  0  0  0
  -21.6655   -6.8875   21.4250 O   0  0  0  0  0  0
  -22.3526  -14.5518   20.6638 O   0  0  0  0  0  0
  -24.6172  -31.8680   23.2057 C   0  0  0  0  0  0
  -25.9059  -32.4821   23.8363 C   0  0  1  0  0  0
  -27.2388  -27.4039   20.0943 C   0  0  0  0  0  0
  -25.5908  -33.8615   24.2294 N   0  0  0  0  0  0
  -23.4038  -30.4913   21.5488 C   0  0  2  0  0  0
  -24.8511  -28.9550   20.1082 C   0  0  0  0  0  0
  -22.7420  -29.4658   22.4983 C   0  0  0  0  0  0
  -18.0286  -28.1375   22.8515 C   0  0  0  0  0  0
  -24.1480  -36.7317   23.2640 C   0  0  0  0  0  0
  -25.9357  -30.8241   21.3604 C   0  0  0  0  0  0
  -26.0125  -29.4546   20.7110 C   0  0  0  0  0  0
  -27.2027  -28.6869   20.7030 C   0  0  0  0  0  0
  -26.0539  -26.9384   19.4688 C   0  0  0  0  0  0
  -24.8706  -27.6981   19.4839 C   0  0  0  0  0  0
  -23.6118  -29.8222   20.1632 C   0  0  0  0  0  0
  -25.4104  -36.3130   24.0345 C   0  0  1  0  0  0
  -20.5875  -28.3665   23.1339 C   0  0  2  0  0  0
  -20.6779  -26.9406   22.5434 C   0  0  0  0  0  0
  -19.5749  -26.6395   21.5234 C   0  0  0  0  0  0
  -18.1926  -26.7917   22.1638 C   0  0  0  0  0  0
  -19.1530  -28.8832   23.2926 C   0  0  0  0  0  0
  -18.9462  -30.1446   23.8939 C   0  0  0  0  0  0
  -17.6468  -30.6588   24.0572 C   0  0  0  0  0  0
  -25.9057  -34.9493   23.5128 C   0  0  0  0  0  0
  -16.5365  -29.9098   23.6326 C   0  0  0  0  0  0
  -16.7277  -28.6503   23.0367 C   0  0  0  0  0  0
  -26.4456  -31.6601   25.0696 C   0  0  0  0  0  0
  -25.3690  -31.3734   26.1420 C   0  0  0  0  0  0
  -27.0262  -30.3054   24.6053 C   0  0  0  0  0  0
  -27.6023  -32.4315   25.7469 C   0  0  0  0  0  0
  -27.5579  -37.1818   24.8464 C   0  0  0  0  0  0
  -21.4142  -29.3034   22.3726 N   0  0  0  0  0  0
  -26.4294  -37.3809   23.9408 N   0  0  0  0  0  0
  -24.6711  -31.0744   22.0976 N   0  0  0  0  0  0
  -23.4193  -28.8203   23.3040 O   0  0  0  0  0  0
  -28.4155  -26.6650   20.1388 O   0  0  0  0  0  0
  -26.5626  -34.8946   22.4701 O   0  0  0  0  0  0
  -23.5369  -32.1436   23.7460 O   0  0  0  0  0  0
  -32.2584  -19.3377   19.8693 C   0  0  0  0  0  0
  -31.5944  -18.1111   20.0798 C   0  0  0  0  0  0
  -31.6310  -20.5625   20.1758 C   0  0  0  0  0  0
  -29.6476  -19.3341   20.8718 C   0  0  0  0  0  0
  -30.2755  -18.0860   20.5802 C   0  0  0  0  0  0
  -30.3139  -20.5812   20.6858 C   0  0  0  0  0  0
  -29.4760  -16.7617   20.6878 C   0  0  0  0  0  0
  -29.6828  -21.9228   21.1302 C   0  0  0  0  0  0
  -29.4132  -24.3886   20.5607 C   0  0  0  0  0  0
  -28.4145  -25.2679   19.7485 C   0  0  0  0  0  0
  -30.0431  -15.5047   21.2482 N   0  0  0  0  0  0
  -29.5257  -22.9702   20.0723 N   0  3  0  0  0  0
  -31.4835  -12.4255   19.1716 H   0  0  0  0  0  0
  -30.3307  -11.3257   19.8716 H   0  0  0  0  0  0
  -29.7670  -11.7776   17.4663 H   0  0  0  0  0  0
  -29.6928  -13.4940   17.7851 H   0  0  0  0  0  0
  -27.8315  -11.3210   18.8102 H   0  0  0  0  0  0
  -27.3934  -12.6576   17.7824 H   0  0  0  0  0  0
  -27.7046  -14.2652   19.5773 H   0  0  0  0  0  0
  -28.6803  -11.9828   21.3617 H   0  0  0  0  0  0
  -28.4426  -13.6174   21.8786 H   0  0  0  0  0  0
  -25.2792   -9.5691   22.4706 H   0  0  0  0  0  0
  -24.0017   -7.4654   22.7474 H   0  0  0  0  0  0
  -21.0838   -8.8776   19.8954 H   0  0  0  0  0  0
  -22.3713  -10.9659   19.6117 H   0  0  0  0  0  0
  -21.2012   -7.6140   23.9721 H   0  0  0  0  0  0
  -21.1486   -6.0511   25.9087 H   0  0  0  0  0  0
  -22.0587   -2.7601   23.2844 H   0  0  0  0  0  0
  -22.4145  -11.9953   22.4824 H   0  0  0  0  0  0
  -21.1085  -13.1246   22.2523 H   0  0  0  0  0  0
  -24.6428  -15.8342   20.5127 H   0  0  0  0  0  0
  -26.2743  -15.6454   20.1092 H   0  0  0  0  0  0
  -26.7118  -32.5520   23.1109 H   0  0  0  0  0  0
  -25.0006  -33.9756   25.0407 H   0  0  0  0  0  0
  -22.6947  -31.3102   21.4081 H   0  0  0  0  0  0
  -23.3744  -35.9644   23.3328 H   0  0  0  0  0  0
  -24.3587  -36.8918   22.2052 H   0  0  0  0  0  0
  -23.7221  -37.6534   23.6632 H   0  0  0  0  0  0
  -26.0422  -31.5858   20.5857 H   0  0  0  0  0  0
  -26.8283  -30.8881   21.9722 H   0  0  0  0  0  0
  -28.0930  -29.0729   21.1774 H   0  0  0  0  0  0
  -26.0098  -25.9920   18.9546 H   0  0  0  0  0  0
  -23.9804  -27.3114   19.0053 H   0  0  0  0  0  0
  -23.7113  -30.5944   19.3979 H   0  0  0  0  0  0
  -22.7352  -29.2406   19.8748 H   0  0  0  0  0  0
  -25.1277  -36.1997   25.0837 H   0  0  0  0  0  0
  -20.9986  -28.3227   24.1455 H   0  0  0  0  0  0
  -20.5703  -26.2274   23.3619 H   0  0  0  0  0  0
  -21.6641  -26.7465   22.1212 H   0  0  0  0  0  0
  -19.6916  -25.6315   21.1251 H   0  0  0  0  0  0
  -19.6678  -27.3220   20.6766 H   0  0  0  0  0  0
  -17.4210  -26.6721   21.4028 H   0  0  0  0  0  0
  -18.0297  -26.0041   22.9005 H   0  0  0  0  0  0
  -19.7946  -30.7250   24.2317 H   0  0  0  0  0  0
  -17.5032  -31.6265   24.5171 H   0  0  0  0  0  0
  -15.5366  -30.3024   23.7600 H   0  0  0  0  0  0
  -15.8682  -28.0829   22.7072 H   0  0  0  0  0  0
  -24.5898  -30.7030   25.7770 H   0  0  0  0  0  0
  -24.8803  -32.2888   26.4777 H   0  0  0  0  0  0
  -25.8019  -30.8988   27.0231 H   0  0  0  0  0  0
  -26.2796  -29.6857   24.1066 H   0  0  0  0  0  0
  -27.4014  -29.7251   25.4494 H   0  0  0  0  0  0
  -27.8633  -30.4397   23.9191 H   0  0  0  0  0  0
  -27.2656  -33.3640   26.2005 H   0  0  0  0  0  0
  -28.3849  -32.6840   25.0301 H   0  0  0  0  0  0
  -28.0638  -31.8442   26.5420 H   0  0  0  0  0  0
  -28.2615  -38.0108   24.7549 H   0  0  0  0  0  0
  -28.1078  -36.2657   24.6247 H   0  0  0  0  0  0
  -27.2321  -37.1416   25.8880 H   0  0  0  0  0  0
  -20.9301  -29.8741   21.6933 H   0  0  0  0  0  0
  -26.0198  -38.2898   24.1405 H   0  0  0  0  0  0
  -33.2621  -19.3381   19.4672 H   0  0  0  0  0  0
  -32.1019  -17.1973   19.8196 H   0  0  0  0  0  0
  -32.1749  -21.4846   20.0288 H   0  0  0  0  0  0
  -28.6381  -19.3318   21.2573 H   0  0  0  0  0  0
  -29.0816  -16.5433   19.6957 H   0  0  0  0  0  0
  -28.5949  -16.9694   21.2981 H   0  0  0  0  0  0
  -30.3127  -22.3113   21.9290 H   0  0  0  0  0  0
  -28.7070  -21.7354   21.5821 H   0  0  0  0  0  0
  -29.1047  -24.3986   21.6082 H   0  0  0  0  0  0
  -30.4044  -24.8454   20.5453 H   0  0  0  0  0  0
  -27.4406  -24.8113   19.9029 H   0  0  0  0  0  0
  -28.6307  -25.2157   18.6791 H   0  0  0  0  0  0
  -29.4342  -15.1138   21.9503 H   0  0  0  0  0  0
  -30.3200  -22.9108   19.4551 H   0  0  0  0  0  0
  -28.7167  -22.7315   19.5211 H   0  0  0  0  0  0
  1 25  1  0  0  0
  1 30  2  0  0  0
  1 81  1  0  0  0
  2  3  1  0  0  0
  2 25  1  0  0  0
  2 83  1  0  0  0
  2 84  1  0  0  0
  3  4  1  0  0  0
  3 85  1  0  0  0
  3 86  1  0  0  0
  4  5  1  0  0  0
  4 87  1  0  0  0
  4 88  1  0  0  0
  5  6  1  0  0  0
  5 26  1  0  0  0
  5 89  1  0  0  0
  6 25  1  0  0  0
  6 90  1  0  0  0
  6 91  1  0  0  0
  7  8  2  0  0  0
  7 26  1  0  0  0
  7 29  1  0  0  0
  8  9  1  0  0  0
  8 22  1  0  0  0
  9 10  1  0  0  0
  9 27  2  0  0  0
 10 11  2  0  0  0
 10 15  1  0  0  0
 11 12  1  0  0  0
 11 92  1  0  0  0
 12 13  2  0  0  0
 12 93  1  0  0  0
 13 14  1  0  0  0
 13 31  1  0  0  0
 14 15  2  0  0  0
 14 94  1  0  0  0
 15 95  1  0  0  0
 16 17  2  0  0  0
 16 21  1  0  0  0
 16 31  1  0  0  0
 17 18  1  0  0  0
 17 96  1  0  0  0
 18 19  2  0  0  0
 18 97  1  0  0  0
 19 20  1  0  0  0
 19 24  1  0  0  0
 20 21  2  0  0  0
 20 98  1  0  0  0
 21 23  1  0  0  0
 22 28  1  0  0  0
 22 32  2  0  0  0
 26 27  1  0  0  0
 28 99  1  0  0  0
 28100  1  0  0  0
 29101  1  0  0  0
 29102  1  0  0  0
 33 34  1  0  0  0
 33 66  1  0  0  0
 33 70  2  0  0  0
 34 36  1  0  0  0
 34 59  1  0  0  0
 34103  1  0  0  0
 35 44  2  0  0  0
 35 45  1  0  0  0
 35 68  1  0  0  0
 36 56  1  0  0  0
 36104  1  0  0  0
 37 39  1  0  0  0
 37 47  1  0  0  0
 37 66  1  0  0  0
 37105  1  0  0  0
 38 43  2  0  0  0
 38 46  1  0  0  0
 38 47  1  0  0  0
 39 64  1  0  0  0
 39 67  2  0  0  0
 40 52  1  0  0  0
 40 53  2  0  0  0
 40 58  1  0  0  0
 41106  1  0  0  0
 41107  1  0  0  0
 41108  1  0  0  0
 41 48  1  0  0  0
 42 43  1  0  0  0
 42 66  1  0  0  0
 42109  1  0  0  0
 42110  1  0  0  0
 43 44  1  0  0  0
 44111  1  0  0  0
 45 46  2  0  0  0
 45112  1  0  0  0
 46113  1  0  0  0
 47114  1  0  0  0
 47115  1  0  0  0
 48 56  1  0  0  0
 48 65  1  0  0  0
 48116  1  0  0  0
 49 50  1  0  0  0
 49 53  1  0  0  0
 49 64  1  0  0  0
 49117  1  0  0  0
 50 51  1  0  0  0
 50118  1  0  0  0
 50119  1  0  0  0
 51 52  1  0  0  0
 51120  1  0  0  0
 51121  1  0  0  0
 52122  1  0  0  0
 52123  1  0  0  0
 53 54  1  0  0  0
 54 55  2  0  0  0
 54124  1  0  0  0
 55 57  1  0  0  0
 55125  1  0  0  0
 56 69  2  0  0  0
 57 58  2  0  0  0
 57126  1  0  0  0
 58127  1  0  0  0
 59 60  1  0  0  0
 59 61  1  0  0  0
 59 62  1  0  0  0
 60128  1  0  0  0
 60129  1  0  0  0
 60130  1  0  0  0
 61131  1  0  0  0
 61132  1  0  0  0
 61133  1  0  0  0
 62134  1  0  0  0
 62135  1  0  0  0
 62136  1  0  0  0
 63 65  1  0  0  0
 63137  1  0  0  0
 63138  1  0  0  0
 63139  1  0  0  0
 64140  1  0  0  0
 65141  1  0  0  0
 68 80  1  0  0  0
 71 72  2  0  0  0
 71 73  1  0  0  0
 71142  1  0  0  0
 72 75  1  0  0  0
 72143  1  0  0  0
 73 76  2  0  0  0
 73144  1  0  0  0
 74 75  2  0  0  0
 74 76  1  0  0  0
 74145  1  0  0  0
 75 77  1  0  0  0
 76 78  1  0  0  0
 77 81  1  0  0  0
 77146  1  0  0  0
 77147  1  0  0  0
 78 82  1  0  0  0
 78148  1  0  0  0
 78149  1  0  0  0
 79 80  1  0  0  0
 79 82  1  0  0  0
 79150  1  0  0  0
 79151  1  0  0  0
 80152  1  0  0  0
 80153  1  0  0  0
 81154  1  0  0  0
 82155  1  0  0  0
 82156  1  0  0  0
M  CHG  1  82   1
M  ISO  4   1 100  68 101  80 101  81 100
M  END
> <chiral flag>
0

> <version>
0

> <s_m_source_file>
/data/baiqing/PycharmProjects/Reinvent-master-3.2/result/LINK_invent/BTK/process_docking_weight1_custom_product_contain_oxygen_bond_distance_aromatic_linkinvent_7_9_3/rearranged_h_0042.sdf

> <i_m_source_file_index>
20

> <r_mmod_Potential_Energy-OPLS-2005>
-209.389038085938

> <r_mmod_Stretch_Energy-OPLS-2005>
50.0219573974609

> <r_mmod_Bend_Energy-OPLS-2005>
120.731338500977

> <r_mmod_Torsional_Energy-OPLS-2005>
232.536804199219

> <r_mmod_Improper_Torsional_Energy-OPLS-2005>
6.64321374893188

> <r_mmod_Van_der_Waal_Energy-OPLS-2005>
145.139739990234

> <r_mmod_Electrostatic_Energy-OPLS-2005>
-312.71630859375

> <r_mmod_Solvation_Energy-OPLS-2005>
-471.622131347656

> <b_mmod_Minimization_Converged-OPLS-2005>
0

> <r_mmod_RMS_Derivative-OPLS-2005>
3.84647035598755

$$$$
20
                    3D
 Structure written by MMmdl.
161170  0  0  1  0            999 V2000
  -30.5401  -15.0737   20.4477 C   0  0  0  0  0  0
  -30.4371  -12.6859   19.5038 C   0  0  0  0  0  0
  -29.5222  -12.5335   18.2674 C   0  0  0  0  0  0
  -28.0635  -12.2952   18.6976 C   0  0  0  0  0  0
  -27.6189  -13.2592   19.8256 C   0  0  2  0  0  0
  -28.6613  -13.3702   20.9575 C   0  0  0  0  0  0
  -25.2433  -13.8244   20.5756 C   0  0  0  0  0  0
  -24.1751  -13.0446   20.9245 C   0  0  0  0  0  0
  -24.6382  -11.6933   20.8763 C   0  0  0  0  0  0
  -23.9074  -10.4294   21.0407 C   0  0  0  0  0  0
  -24.3621   -9.4207   21.9192 C   0  0  0  0  0  0
  -23.6290   -8.2241   22.0764 C   0  0  0  0  0  0
  -22.4271   -8.0276   21.3546 C   0  0  0  0  0  0
  -21.9908   -9.0250   20.4647 C   0  0  0  0  0  0
  -22.7244  -10.2127   20.3053 C   0  0  0  0  0  0
  -21.6846   -6.0730   22.5275 C   0  0  0  0  0  0
  -21.4017   -6.5640   23.8207 C   0  0  0  0  0  0
  -21.3653   -5.6799   24.9175 C   0  0  0  0  0  0
  -21.6042   -4.3059   24.7228 C   0  0  0  0  0  0
  -21.8818   -3.8147   23.4351 C   0  0  0  0  0  0
  -21.9191   -4.6961   22.3406 C   0  0  0  0  0  0
  -22.7763  -13.5205   21.1879 C   0  0  0  0  0  0
  -22.1660   -4.2140   21.0981 F   0  0  0  0  0  0
  -21.5620   -3.4555   25.7748 F   0  0  0  0  0  0
  -29.9130  -13.8202   20.3318 N   0  0  0  0  0  0
  -26.2842  -12.9493   20.3240 N   0  0  0  0  0  0
  -25.9318  -11.6616   20.5756 N   0  0  0  0  0  0
  -22.0430  -12.8176   22.0435 N   0  0  0  0  0  0
  -25.4134  -15.1973   20.4204 N   0  0  0  0  0  0
  -31.7543  -15.0679   20.2105 O   0  0  0  0  0  0
  -21.6633   -6.8869   21.4232 O   0  0  0  0  0  0
  -22.3440  -14.5501   20.6705 O   0  0  0  0  0  0
  -24.6507  -31.8385   23.1737 C   0  0  0  0  0  0
  -25.9256  -32.4673   23.8160 C   0  0  1  0  0  0
  -27.2331  -27.0510   20.2048 C   0  0  0  0  0  0
  -25.5973  -33.8473   24.2116 N   0  0  0  0  0  0
  -23.4605  -30.4507   21.5206 C   0  0  2  0  0  0
  -24.9142  -28.8460   20.1241 C   0  0  0  0  0  0
  -22.7606  -29.4541   22.4808 C   0  0  0  0  0  0
  -18.0315  -28.1453   22.8505 C   0  0  0  0  0  0
  -24.1455  -36.7219   23.2648 C   0  0  0  0  0  0
  -26.0186  -30.6884   21.3789 C   0  0  0  0  0  0
  -26.0947  -29.2822   20.7438 C   0  0  0  0  0  0
  -27.2547  -28.4064   20.7557 C   0  0  0  0  0  0
  -26.0227  -26.7277   19.5561 C   0  0  0  0  0  0
  -24.8949  -27.5811   19.5121 C   0  0  0  0  0  0
  -23.6943  -29.7597   20.1476 C   0  0  0  0  0  0
  -25.4103  -36.3016   24.0314 C   0  0  1  0  0  0
  -20.5935  -28.3773   23.1247 C   0  0  2  0  0  0
  -20.6785  -26.9468   22.5425 C   0  0  0  0  0  0
  -19.5743  -26.6439   21.5235 C   0  0  0  0  0  0
  -18.1937  -26.7990   22.1648 C   0  0  0  0  0  0
  -19.1584  -28.8926   23.2867 C   0  0  0  0  0  0
  -18.9486  -30.1511   23.8898 C   0  0  0  0  0  0
  -17.6491  -30.6631   24.0592 C   0  0  0  0  0  0
  -25.9079  -34.9402   23.5034 C   0  0  0  0  0  0
  -16.5380  -29.9134   23.6358 C   0  0  0  0  0  0
  -16.7305  -28.6554   23.0391 C   0  0  0  0  0  0
  -26.4529  -31.6572   25.0653 C   0  0  0  0  0  0
  -25.3678  -31.3851   26.1330 C   0  0  0  0  0  0
  -27.0387  -30.2946   24.6305 C   0  0  0  0  0  0
  -27.6027  -32.4340   25.7488 C   0  0  0  0  0  0
  -27.5550  -37.1770   24.8476 C   0  0  0  0  0  0
  -21.4282  -29.3066   22.3574 N   0  0  0  0  0  0
  -26.4253  -37.3750   23.9436 N   0  0  0  0  0  0
  -24.7300  -31.0187   22.0792 N   0  0  0  0  0  0
  -23.4204  -28.8137   23.3039 O   0  0  0  0  0  0
  -28.2929  -26.0504   20.1511 O   0  0  0  0  0  0
  -26.5669  -34.8937   22.4618 O   0  0  0  0  0  0
  -23.5611  -32.1289   23.6922 O   0  0  0  0  0  0
  -29.3700  -19.1285   23.9624 C   0  0  0  0  0  0
  -30.0510  -17.9286   24.0329 C   0  0  0  0  0  0
  -29.0736  -19.6584   22.7124 C   0  0  0  0  0  0
  -30.3012  -17.1609   22.8795 C   0  0  0  0  0  0
  -29.4365  -19.0773   21.4694 C   0  0  0  0  0  0
  -29.9081  -17.5824   21.5413 C   0  0  0  0  0  0
  -28.5010  -23.0978   20.1116 C   0  0  0  0  0  0
  -29.6855  -23.4188   22.6839 C   0  0  0  0  0  0
  -29.2944  -24.7545   22.0167 C   0  0  0  0  0  0
  -30.2052  -22.3890   21.6549 C   0  0  0  0  0  0
  -28.2877  -24.6192   20.8513 C   0  0  1  0  0  0
  -30.9651  -15.8305   23.2440 C   0  0  0  0  0  0
  -29.2175  -20.3375   20.3598 C   0  0  0  0  0  0
  -29.1612  -21.9491   20.7090 N   0  0  0  0  0  0
  -29.8288  -16.3376   20.5882 N   0  0  0  0  0  0
  -27.9533  -22.9511   19.0168 O   0  0  0  0  0  0
  -31.4628  -12.8592   19.1751 H   0  0  0  0  0  0
  -30.4622  -11.7631   20.0852 H   0  0  0  0  0  0
  -29.8682  -11.7140   17.6353 H   0  0  0  0  0  0
  -29.5774  -13.4379   17.6598 H   0  0  0  0  0  0
  -27.9864  -11.2646   19.0497 H   0  0  0  0  0  0
  -27.3973  -12.3762   17.8380 H   0  0  0  0  0  0
  -27.5572  -14.2400   19.3540 H   0  0  0  0  0  0
  -28.7925  -12.4225   21.4789 H   0  0  0  0  0  0
  -28.3302  -14.0974   21.6999 H   0  0  0  0  0  0
  -25.2774   -9.5673   22.4758 H   0  0  0  0  0  0
  -23.9993   -7.4632   22.7482 H   0  0  0  0  0  0
  -21.0845   -8.8758   19.8952 H   0  0  0  0  0  0
  -22.3713  -10.9646   19.6143 H   0  0  0  0  0  0
  -21.2018   -7.6146   23.9703 H   0  0  0  0  0  0
  -21.1469   -6.0535   25.9069 H   0  0  0  0  0  0
  -22.0604   -2.7604   23.2864 H   0  0  0  0  0  0
  -22.4074  -11.9830   22.4779 H   0  0  0  0  0  0
  -21.1043  -13.1168   22.2659 H   0  0  0  0  0  0
  -24.6555  -15.8586   20.5435 H   0  0  0  0  0  0
  -26.2694  -15.6313   20.1026 H   0  0  0  0  0  0
  -26.7353  -32.5284   23.0904 H   0  0  0  0  0  0
  -25.0096  -33.9532   25.0257 H   0  0  0  0  0  0
  -22.7669  -31.2777   21.3521 H   0  0  0  0  0  0
  -23.3732  -35.9530   23.3297 H   0  0  0  0  0  0
  -24.3539  -36.8850   22.2064 H   0  0  0  0  0  0
  -23.7175  -37.6404   23.6673 H   0  0  0  0  0  0
  -26.1814  -31.4239   20.5899 H   0  0  0  0  0  0
  -26.8861  -30.7573   22.0245 H   0  0  0  0  0  0
  -28.1581  -28.7499   21.2399 H   0  0  0  0  0  0
  -25.9450  -25.7590   19.0840 H   0  0  0  0  0  0
  -23.9987  -27.2338   19.0160 H   0  0  0  0  0  0
  -23.8411  -30.5216   19.3818 H   0  0  0  0  0  0
  -22.8050  -29.2050   19.8371 H   0  0  0  0  0  0
  -25.1285  -36.1814   25.0798 H   0  0  0  0  0  0
  -21.0068  -28.3380   24.1358 H   0  0  0  0  0  0
  -20.5689  -26.2389   23.3668 H   0  0  0  0  0  0
  -21.6651  -26.7468   22.1226 H   0  0  0  0  0  0
  -19.6880  -25.6347   21.1275 H   0  0  0  0  0  0
  -19.6675  -27.3226   20.6759 H   0  0  0  0  0  0
  -17.4219  -26.6795   21.4040 H   0  0  0  0  0  0
  -18.0287  -26.0129   22.9034 H   0  0  0  0  0  0
  -19.7960  -30.7337   24.2269 H   0  0  0  0  0  0
  -17.5051  -31.6308   24.5197 H   0  0  0  0  0  0
  -15.5383  -30.3053   23.7681 H   0  0  0  0  0  0
  -15.8708  -28.0867   22.7141 H   0  0  0  0  0  0
  -24.5901  -30.7116   25.7721 H   0  0  0  0  0  0
  -24.8817  -32.3059   26.4542 H   0  0  0  0  0  0
  -25.7953  -30.9232   27.0235 H   0  0  0  0  0  0
  -26.3017  -29.6690   24.1254 H   0  0  0  0  0  0
  -27.3878  -29.7253   25.4930 H   0  0  0  0  0  0
  -27.8969  -30.4137   23.9695 H   0  0  0  0  0  0
  -27.2598  -33.3683   26.1936 H   0  0  0  0  0  0
  -28.3945  -32.6813   25.0413 H   0  0  0  0  0  0
  -28.0547  -31.8531   26.5534 H   0  0  0  0  0  0
  -28.2591  -38.0047   24.7552 H   0  0  0  0  0  0
  -28.1022  -36.2599   24.6256 H   0  0  0  0  0  0
  -27.2307  -37.1385   25.8889 H   0  0  0  0  0  0
  -20.9506  -29.8757   21.6711 H   0  0  0  0  0  0
  -26.0097  -38.2803   24.1469 H   0  0  0  0  0  0
  -29.1193  -19.6716   24.8669 H   0  0  0  0  0  0
  -30.3245  -17.5675   25.0161 H   0  0  0  0  0  0
  -28.5874  -20.6196   22.7465 H   0  0  0  0  0  0
  -28.8376  -23.0083   23.2326 H   0  0  0  0  0  0
  -30.4574  -23.6081   23.4312 H   0  0  0  0  0  0
  -30.1966  -25.2503   21.6575 H   0  0  0  0  0  0
  -28.8791  -25.4228   22.7724 H   0  0  0  0  0  0
  -30.6694  -21.5527   22.1721 H   0  0  0  0  0  0
  -31.0231  -22.8313   21.0819 H   0  0  0  0  0  0
  -27.3004  -24.5295   21.3036 H   0  0  0  0  0  0
  -31.2471  -15.7734   24.2957 H   0  0  0  0  0  0
  -31.8977  -15.6901   22.6996 H   0  0  0  0  0  0
  -30.2934  -14.9881   23.0859 H   0  0  0  0  0  0
  -28.2941  -20.1160   19.8244 H   0  0  0  0  0  0
  -30.0057  -20.2220   19.6144 H   0  0  0  0  0  0
  -28.9022  -16.2500   20.1986 H   0  0  0  0  0  0
  1 25  1  0  0  0
  1 30  2  0  0  0
  1 85  1  0  0  0
  2  3  1  0  0  0
  2 25  1  0  0  0
  2 87  1  0  0  0
  2 88  1  0  0  0
  3  4  1  0  0  0
  3 89  1  0  0  0
  3 90  1  0  0  0
  4  5  1  0  0  0
  4 91  1  0  0  0
  4 92  1  0  0  0
  5  6  1  0  0  0
  5 26  1  0  0  0
  5 93  1  0  0  0
  6 25  1  0  0  0
  6 94  1  0  0  0
  6 95  1  0  0  0
  7  8  2  0  0  0
  7 26  1  0  0  0
  7 29  1  0  0  0
  8  9  1  0  0  0
  8 22  1  0  0  0
  9 10  1  0  0  0
  9 27  2  0  0  0
 10 11  2  0  0  0
 10 15  1  0  0  0
 11 12  1  0  0  0
 11 96  1  0  0  0
 12 13  2  0  0  0
 12 97  1  0  0  0
 13 14  1  0  0  0
 13 31  1  0  0  0
 14 15  2  0  0  0
 14 98  1  0  0  0
 15 99  1  0  0  0
 16 17  2  0  0  0
 16 21  1  0  0  0
 16 31  1  0  0  0
 17 18  1  0  0  0
 17100  1  0  0  0
 18 19  2  0  0  0
 18101  1  0  0  0
 19 20  1  0  0  0
 19 24  1  0  0  0
 20 21  2  0  0  0
 20102  1  0  0  0
 21 23  1  0  0  0
 22 28  1  0  0  0
 22 32  2  0  0  0
 26 27  1  0  0  0
 28103  1  0  0  0
 28104  1  0  0  0
 29105  1  0  0  0
 29106  1  0  0  0
 33 34  1  0  0  0
 33 66  1  0  0  0
 33 70  2  0  0  0
 34 36  1  0  0  0
 34 59  1  0  0  0
 34107  1  0  0  0
 35 44  2  0  0  0
 35 45  1  0  0  0
 35 68  1  0  0  0
 36 56  1  0  0  0
 36108  1  0  0  0
 37 39  1  0  0  0
 37 47  1  0  0  0
 37 66  1  0  0  0
 37109  1  0  0  0
 38 43  2  0  0  0
 38 46  1  0  0  0
 38 47  1  0  0  0
 39 64  1  0  0  0
 39 67  2  0  0  0
 40 52  1  0  0  0
 40 53  2  0  0  0
 40 58  1  0  0  0
 41110  1  0  0  0
 41111  1  0  0  0
 41112  1  0  0  0
 41 48  1  0  0  0
 42 43  1  0  0  0
 42 66  1  0  0  0
 42113  1  0  0  0
 42114  1  0  0  0
 43 44  1  0  0  0
 44115  1  0  0  0
 45 46  2  0  0  0
 45116  1  0  0  0
 46117  1  0  0  0
 47118  1  0  0  0
 47119  1  0  0  0
 48 56  1  0  0  0
 48 65  1  0  0  0
 48120  1  0  0  0
 49 50  1  0  0  0
 49 53  1  0  0  0
 49 64  1  0  0  0
 49121  1  0  0  0
 50 51  1  0  0  0
 50122  1  0  0  0
 50123  1  0  0  0
 51 52  1  0  0  0
 51124  1  0  0  0
 51125  1  0  0  0
 52126  1  0  0  0
 52127  1  0  0  0
 53 54  1  0  0  0
 54 55  2  0  0  0
 54128  1  0  0  0
 55 57  1  0  0  0
 55129  1  0  0  0
 56 69  2  0  0  0
 57 58  2  0  0  0
 57130  1  0  0  0
 58131  1  0  0  0
 59 60  1  0  0  0
 59 61  1  0  0  0
 59 62  1  0  0  0
 60132  1  0  0  0
 60133  1  0  0  0
 60134  1  0  0  0
 61135  1  0  0  0
 61136  1  0  0  0
 61137  1  0  0  0
 62138  1  0  0  0
 62139  1  0  0  0
 62140  1  0  0  0
 63 65  1  0  0  0
 63141  1  0  0  0
 63142  1  0  0  0
 63143  1  0  0  0
 64144  1  0  0  0
 65145  1  0  0  0
 68 81  1  0  0  0
 71 72  2  0  0  0
 71 73  1  0  0  0
 71146  1  0  0  0
 72 74  1  0  0  0
 72147  1  0  0  0
 73 75  2  0  0  0
 73148  1  0  0  0
 74 76  2  0  0  0
 74 82  1  0  0  0
 75 76  1  0  0  0
 75 83  1  0  0  0
 76 85  1  0  0  0
 77 81  1  0  0  0
 77 84  1  0  0  0
 77 86  2  0  0  0
 78 79  1  0  0  0
 78 80  1  0  0  0
 78149  1  0  0  0
 78150  1  0  0  0
 79 81  1  0  0  0
 79151  1  0  0  0
 79152  1  0  0  0
 80 84  1  0  0  0
 80153  1  0  0  0
 80154  1  0  0  0
 81155  1  0  0  0
 82156  1  0  0  0
 82157  1  0  0  0
 82158  1  0  0  0
 83 84  1  0  0  0
 83159  1  0  0  0
 83160  1  0  0  0
 85161  1  0  0  0
M  ISO  4   1 100  68 101  81 101  85 100
M  END
> <chiral flag>
0

> <version>
0

> <s_m_source_file>
/data/baiqing/PycharmProjects/Reinvent-master-3.2/result/LINK_invent/BTK/process_docking_weight1_custom_product_contain_oxygen_bond_distance_aromatic_linkinvent_7_9_3/rearranged_h_0042.sdf

> <i_m_source_file_index>
21

> <r_mmod_Potential_Energy-OPLS-2005>
1022.38555908203

> <r_mmod_Stretch_Energy-OPLS-2005>
435.584838867188

> <r_mmod_Bend_Energy-OPLS-2005>
395.681671142578

> <r_mmod_Torsional_Energy-OPLS-2005>
332.807250976562

> <r_mmod_Improper_Torsional_Energy-OPLS-2005>
9.79482936859131

> <r_mmod_Van_der_Waal_Energy-OPLS-2005>
157.663299560547

> <r_mmod_Electrostatic_Energy-OPLS-2005>
-357.325622558594

> <r_mmod_Solvation_Energy-OPLS-2005>
-229.863891601562

> <b_mmod_Minimization_Converged-OPLS-2005>
0

> <r_mmod_RMS_Derivative-OPLS-2005>
3.83902597427368

$$$$
21
                    3D
 Structure written by MMmdl.
170179  0  0  1  0            999 V2000
  -30.7050  -14.5944   20.5522 C   0  0  0  0  0  0
  -30.4063  -12.3938   19.4717 C   0  0  0  0  0  0
  -29.4874  -12.5091   18.2409 C   0  0  0  0  0  0
  -28.0172  -12.3277   18.6669 C   0  0  0  0  0  0
  -27.6417  -13.2241   19.8773 C   0  0  2  0  0  0
  -28.6835  -13.0885   21.0097 C   0  0  0  0  0  0
  -25.2457  -13.8220   20.5723 C   0  0  0  0  0  0
  -24.1755  -13.0437   20.9271 C   0  0  0  0  0  0
  -24.6372  -11.6924   20.8844 C   0  0  0  0  0  0
  -23.9076  -10.4282   21.0437 C   0  0  0  0  0  0
  -24.3651   -9.4183   21.9181 C   0  0  0  0  0  0
  -23.6309   -8.2235   22.0765 C   0  0  0  0  0  0
  -22.4272   -8.0306   21.3567 C   0  0  0  0  0  0
  -21.9939   -9.0266   20.4658 C   0  0  0  0  0  0
  -22.7283  -10.2132   20.3053 C   0  0  0  0  0  0
  -21.6852   -6.0761   22.5288 C   0  0  0  0  0  0
  -21.4007   -6.5661   23.8224 C   0  0  0  0  0  0
  -21.3663   -5.6809   24.9182 C   0  0  0  0  0  0
  -21.6024   -4.3065   24.7215 C   0  0  0  0  0  0
  -21.8818   -3.8171   23.4335 C   0  0  0  0  0  0
  -21.9191   -4.6997   22.3398 C   0  0  0  0  0  0
  -22.7766  -13.5222   21.1865 C   0  0  0  0  0  0
  -22.1659   -4.2190   21.0972 F   0  0  0  0  0  0
  -21.5635   -3.4542   25.7725 F   0  0  0  0  0  0
  -29.9866  -13.4350   20.4379 N   0  0  0  0  0  0
  -26.2913  -12.9417   20.3444 N   0  0  0  0  0  0
  -25.9309  -11.6561   20.5910 N   0  0  0  0  0  0
  -22.0451  -12.8173   22.0459 N   0  0  0  0  0  0
  -25.4014  -15.1942   20.4122 N   0  0  0  0  0  0
  -31.8593  -14.6531   20.1307 O   0  0  0  0  0  0
  -21.6643   -6.8890   21.4244 O   0  0  0  0  0  0
  -22.3431  -14.5529   20.6756 O   0  0  0  0  0  0
  -24.6149  -31.8655   23.2096 C   0  0  0  0  0  0
  -25.9010  -32.4809   23.8431 C   0  0  1  0  0  0
  -27.2267  -27.4049   20.1069 C   0  0  0  0  0  0
  -25.5828  -33.8597   24.2355 N   0  0  0  0  0  0
  -23.4043  -30.4904   21.5502 C   0  0  2  0  0  0
  -24.8532  -28.9453   20.1285 C   0  0  0  0  0  0
  -22.7379  -29.4632   22.4963 C   0  0  0  0  0  0
  -18.0327  -28.1356   22.8412 C   0  0  0  0  0  0
  -24.1498  -36.7324   23.2643 C   0  0  0  0  0  0
  -25.9404  -30.8208   21.3735 C   0  0  0  0  0  0
  -26.0165  -29.4527   20.7225 C   0  0  0  0  0  0
  -27.2107  -28.6889   20.7101 C   0  0  0  0  0  0
  -26.0555  -26.9246   19.4873 C   0  0  0  0  0  0
  -24.8703  -27.6842   19.5053 C   0  0  0  0  0  0
  -23.6201  -29.8223   20.1690 C   0  0  0  0  0  0
  -25.4107  -36.3106   24.0355 C   0  0  1  0  0  0
  -20.5889  -28.3600   23.1298 C   0  0  2  0  0  0
  -20.6766  -26.9339   22.5428 C   0  0  0  0  0  0
  -19.5897  -26.6485   21.5102 C   0  0  0  0  0  0
  -18.2011  -26.7969   22.1418 C   0  0  0  0  0  0
  -19.1554  -28.8791   23.2876 C   0  0  0  0  0  0
  -18.9411  -30.1372   23.8882 C   0  0  0  0  0  0
  -17.6375  -30.6469   24.0524 C   0  0  0  0  0  0
  -25.9018  -34.9447   23.5153 C   0  0  0  0  0  0
  -16.5287  -29.9003   23.6220 C   0  0  0  0  0  0
  -16.7317  -28.6436   23.0273 C   0  0  0  0  0  0
  -26.4438  -31.6608   25.0778 C   0  0  0  0  0  0
  -25.3728  -31.3672   26.1540 C   0  0  0  0  0  0
  -27.0236  -30.3034   24.6163 C   0  0  0  0  0  0
  -27.6015  -32.4326   25.7520 C   0  0  0  0  0  0
  -27.5574  -37.1807   24.8461 C   0  0  0  0  0  0
  -21.4125  -29.2938   22.3634 N   0  0  0  0  0  0
  -26.4287  -37.3780   23.9407 N   0  0  0  0  0  0
  -24.6716  -31.0749   22.1030 N   0  0  0  0  0  0
  -23.4118  -28.8203   23.3073 O   0  0  0  0  0  0
  -28.3715  -26.6347   20.0623 O   0  0  0  0  0  0
  -26.5569  -34.8870   22.4719 O   0  0  0  0  0  0
  -23.5330  -32.1436   23.7411 O   0  0  0  0  0  0
  -28.1110  -17.6893   19.3835 C   0  0  0  0  0  0
  -28.6264  -17.7609   20.6855 C   0  0  0  0  0  0
  -28.8378  -19.0700   21.2462 C   0  0  0  0  0  0
  -28.5586  -20.2946   20.5059 C   0  0  0  0  0  0
  -28.1076  -20.1467   19.1537 C   0  0  0  0  0  0
  -27.8696  -18.8499   18.6272 C   0  0  0  0  0  0
  -29.0059  -24.2217   20.3814 C   0  0  0  0  0  0
  -30.0230  -24.1093   19.5091 C   0  0  0  0  0  0
  -26.3468  -24.3868   21.7784 C   0  0  0  0  0  0
  -27.5085  -25.3591   22.1361 C   0  0  0  0  0  0
  -26.7739  -23.1539   20.9270 C   0  0  0  0  0  0
  -28.5684  -25.5629   21.0236 C   0  0  2  0  0  0
  -29.4169  -19.1018   22.6606 C   0  0  0  0  0  0
  -27.9114  -21.3337   18.2097 C   0  0  0  0  0  0
  -28.9147  -16.4038   21.4094 C   0  0  0  0  0  0
  -28.9143  -21.6883   21.1648 C   0  0  0  0  0  0
  -30.2059  -15.7662   21.0505 N   0  0  0  0  0  0
  -28.2466  -23.0341   20.9594 N   0  3  1  0  0  0
  -27.3120  -18.6261   17.0032 Cl  0  0  0  0  0  0
  -31.4459  -12.4900   19.1592 H   0  0  0  0  0  0
  -30.3281  -11.4024   19.9212 H   0  0  0  0  0  0
  -29.7630  -11.7572   17.4994 H   0  0  0  0  0  0
  -29.6198  -13.4817   17.7674 H   0  0  0  0  0  0
  -27.8868  -11.2834   18.9479 H   0  0  0  0  0  0
  -27.3439  -12.5012   17.8258 H   0  0  0  0  0  0
  -27.6615  -14.2556   19.5263 H   0  0  0  0  0  0
  -28.7016  -12.0681   21.3976 H   0  0  0  0  0  0
  -28.4405  -13.7085   21.8703 H   0  0  0  0  0  0
  -25.2815   -9.5665   22.4737 H   0  0  0  0  0  0
  -24.0043   -7.4659   22.7518 H   0  0  0  0  0  0
  -21.0860   -8.8795   19.8995 H   0  0  0  0  0  0
  -22.3765  -10.9669   19.6165 H   0  0  0  0  0  0
  -21.1992   -7.6165   23.9740 H   0  0  0  0  0  0
  -21.1484   -6.0525   25.9085 H   0  0  0  0  0  0
  -22.0593   -2.7636   23.2822 H   0  0  0  0  0  0
  -22.4153  -11.9821   22.4719 H   0  0  0  0  0  0
  -21.1100  -13.1192   22.2816 H   0  0  0  0  0  0
  -24.6034  -15.8117   20.4950 H   0  0  0  0  0  0
  -26.2099  -15.6460   20.0091 H   0  0  0  0  0  0
  -26.7070  -32.5528   23.1171 H   0  0  0  0  0  0
  -24.9959  -33.9809   25.0478 H   0  0  0  0  0  0
  -22.6945  -31.3094   21.4113 H   0  0  0  0  0  0
  -23.3738  -35.9672   23.3326 H   0  0  0  0  0  0
  -24.3609  -36.8921   22.2051 H   0  0  0  0  0  0
  -23.7260  -37.6538   23.6660 H   0  0  0  0  0  0
  -26.0625  -31.5869   20.6073 H   0  0  0  0  0  0
  -26.8221  -30.8693   22.0014 H   0  0  0  0  0  0
  -28.1154  -29.0767   21.1596 H   0  0  0  0  0  0
  -26.0652  -25.9641   18.9881 H   0  0  0  0  0  0
  -23.9755  -27.2933   19.0398 H   0  0  0  0  0  0
  -23.7389  -30.6018   19.4173 H   0  0  0  0  0  0
  -22.7444  -29.2479   19.8701 H   0  0  0  0  0  0
  -25.1284  -36.1973   25.0847 H   0  0  0  0  0  0
  -20.9973  -28.3220   24.1424 H   0  0  0  0  0  0
  -20.5380  -26.2134   23.3516 H   0  0  0  0  0  0
  -21.6668  -26.7321   22.1354 H   0  0  0  0  0  0
  -19.7138  -25.6467   21.0971 H   0  0  0  0  0  0
  -19.6885  -27.3494   20.6808 H   0  0  0  0  0  0
  -17.4454  -26.7059   21.3600 H   0  0  0  0  0  0
  -18.0185  -25.9951   22.8544 H   0  0  0  0  0  0
  -19.7854  -30.7196   24.2254 H   0  0  0  0  0  0
  -17.4925  -31.6098   24.5174 H   0  0  0  0  0  0
  -15.5253  -30.2861   23.7460 H   0  0  0  0  0  0
  -15.8775  -28.0741   22.6904 H   0  0  0  0  0  0
  -24.5911  -30.6982   25.7929 H   0  0  0  0  0  0
  -24.8868  -32.2772   26.5053 H   0  0  0  0  0  0
  -25.8087  -30.8843   27.0288 H   0  0  0  0  0  0
  -26.2772  -29.6834   24.1150 H   0  0  0  0  0  0
  -27.3927  -29.7228   25.4639 H   0  0  0  0  0  0
  -27.8679  -30.4380   23.9384 H   0  0  0  0  0  0
  -27.2652  -33.3622   26.2111 H   0  0  0  0  0  0
  -28.3768  -32.6859   25.0292 H   0  0  0  0  0  0
  -28.0738  -31.8444   26.5397 H   0  0  0  0  0  0
  -28.2583  -38.0114   24.7481 H   0  0  0  0  0  0
  -28.1075  -36.2613   24.6318 H   0  0  0  0  0  0
  -27.2298  -37.1516   25.8873 H   0  0  0  0  0  0
  -20.9282  -29.8658   21.6857 H   0  0  0  0  0  0
  -26.0189  -38.2865   24.1367 H   0  0  0  0  0  0
  -27.9288  -16.7202   18.9397 H   0  0  0  0  0  0
  -30.5763  -24.9872   19.2059 H   0  0  0  0  0  0
  -30.3472  -23.1612   19.1051 H   0  0  0  0  0  0
  -25.5469  -24.9293   21.2760 H   0  0  0  0  0  0
  -25.9068  -24.0328   22.7120 H   0  0  0  0  0  0
  -28.0505  -24.9329   22.9868 H   0  0  0  0  0  0
  -27.1276  -26.3080   22.5166 H   0  0  0  0  0  0
  -26.4281  -23.2719   19.9016 H   0  0  0  0  0  0
  -26.2936  -22.2515   21.3054 H   0  0  0  0  0  0
  -29.4714  -25.9020   21.5353 H   0  0  0  0  0  0
  -29.8864  -20.0399   22.9569 H   0  0  0  0  0  0
  -28.6336  -18.8714   23.3830 H   0  0  0  0  0  0
  -30.2029  -18.3507   22.7561 H   0  0  0  0  0  0
  -26.8520  -21.5549   18.0592 H   0  0  0  0  0  0
  -28.3613  -21.1245   17.2348 H   0  0  0  0  0  0
  -28.3878  -22.2426   18.5460 H   0  0  0  0  0  0
  -28.0752  -15.7328   21.2572 H   0  0  0  0  0  0
  -28.9357  -16.5593   22.4913 H   0  0  0  0  0  0
  -29.9936  -21.8223   21.1141 H   0  0  0  0  0  0
  -28.6782  -21.5649   22.2176 H   0  0  0  0  0  0
  -30.9544  -16.4426   21.0960 H   0  0  0  0  0  0
  -28.3043  -23.2592   21.9419 H   0  0  0  0  0  0
  1 25  1  0  0  0
  1 30  2  0  0  0
  1 87  1  0  0  0
  2  3  1  0  0  0
  2 25  1  0  0  0
  2 90  1  0  0  0
  2 91  1  0  0  0
  3  4  1  0  0  0
  3 92  1  0  0  0
  3 93  1  0  0  0
  4  5  1  0  0  0
  4 94  1  0  0  0
  4 95  1  0  0  0
  5  6  1  0  0  0
  5 26  1  0  0  0
  5 96  1  0  0  0
  6 25  1  0  0  0
  6 97  1  0  0  0
  6 98  1  0  0  0
  7  8  2  0  0  0
  7 26  1  0  0  0
  7 29  1  0  0  0
  8  9  1  0  0  0
  8 22  1  0  0  0
  9 10  1  0  0  0
  9 27  2  0  0  0
 10 11  2  0  0  0
 10 15  1  0  0  0
 11 12  1  0  0  0
 11 99  1  0  0  0
 12 13  2  0  0  0
 12100  1  0  0  0
 13 14  1  0  0  0
 13 31  1  0  0  0
 14 15  2  0  0  0
 14101  1  0  0  0
 15102  1  0  0  0
 16 17  2  0  0  0
 16 21  1  0  0  0
 16 31  1  0  0  0
 17 18  1  0  0  0
 17103  1  0  0  0
 18 19  2  0  0  0
 18104  1  0  0  0
 19 20  1  0  0  0
 19 24  1  0  0  0
 20 21  2  0  0  0
 20105  1  0  0  0
 21 23  1  0  0  0
 22 28  1  0  0  0
 22 32  2  0  0  0
 26 27  1  0  0  0
 28106  1  0  0  0
 28107  1  0  0  0
 29108  1  0  0  0
 29109  1  0  0  0
 33 34  1  0  0  0
 33 66  1  0  0  0
 33 70  2  0  0  0
 34 36  1  0  0  0
 34 59  1  0  0  0
 34110  1  0  0  0
 35 44  2  0  0  0
 35 45  1  0  0  0
 35 68  1  0  0  0
 36 56  1  0  0  0
 36111  1  0  0  0
 37 39  1  0  0  0
 37 47  1  0  0  0
 37 66  1  0  0  0
 37112  1  0  0  0
 38 43  2  0  0  0
 38 46  1  0  0  0
 38 47  1  0  0  0
 39 64  1  0  0  0
 39 67  2  0  0  0
 40 52  1  0  0  0
 40 53  2  0  0  0
 40 58  1  0  0  0
 41113  1  0  0  0
 41114  1  0  0  0
 41115  1  0  0  0
 41 48  1  0  0  0
 42 43  1  0  0  0
 42 66  1  0  0  0
 42116  1  0  0  0
 42117  1  0  0  0
 43 44  1  0  0  0
 44118  1  0  0  0
 45 46  2  0  0  0
 45119  1  0  0  0
 46120  1  0  0  0
 47121  1  0  0  0
 47122  1  0  0  0
 48 56  1  0  0  0
 48 65  1  0  0  0
 48123  1  0  0  0
 49 50  1  0  0  0
 49 53  1  0  0  0
 49 64  1  0  0  0
 49124  1  0  0  0
 50 51  1  0  0  0
 50125  1  0  0  0
 50126  1  0  0  0
 51 52  1  0  0  0
 51127  1  0  0  0
 51128  1  0  0  0
 52129  1  0  0  0
 52130  1  0  0  0
 53 54  1  0  0  0
 54 55  2  0  0  0
 54131  1  0  0  0
 55 57  1  0  0  0
 55132  1  0  0  0
 56 69  2  0  0  0
 57 58  2  0  0  0
 57133  1  0  0  0
 58134  1  0  0  0
 59 60  1  0  0  0
 59 61  1  0  0  0
 59 62  1  0  0  0
 60135  1  0  0  0
 60136  1  0  0  0
 60137  1  0  0  0
 61138  1  0  0  0
 61139  1  0  0  0
 61140  1  0  0  0
 62141  1  0  0  0
 62142  1  0  0  0
 62143  1  0  0  0
 63 65  1  0  0  0
 63144  1  0  0  0
 63145  1  0  0  0
 63146  1  0  0  0
 64147  1  0  0  0
 65148  1  0  0  0
 68 82  1  0  0  0
 71 72  2  0  0  0
 71 76  1  0  0  0
 71149  1  0  0  0
 72 73  1  0  0  0
 72 85  1  0  0  0
 73 74  2  0  0  0
 73 83  1  0  0  0
 74 75  1  0  0  0
 74 86  1  0  0  0
 75 76  2  0  0  0
 75 84  1  0  0  0
 76 89  1  0  0  0
 77 78  2  0  0  0
 77 82  1  0  0  0
 77 88  1  0  0  0
 78150  1  0  0  0
 78151  1  0  0  0
 79 80  1  0  0  0
 79 81  1  0  0  0
 79152  1  0  0  0
 79153  1  0  0  0
 80 82  1  0  0  0
 80154  1  0  0  0
 80155  1  0  0  0
 81 88  1  0  0  0
 81156  1  0  0  0
 81157  1  0  0  0
 82158  1  0  0  0
 83159  1  0  0  0
 83160  1  0  0  0
 83161  1  0  0  0
 84162  1  0  0  0
 84163  1  0  0  0
 84164  1  0  0  0
 85 87  1  0  0  0
 85165  1  0  0  0
 85166  1  0  0  0
 86167  1  0  0  0
 86168  1  0  0  0
 86 88  1  0  0  0
 87169  1  0  0  0
 88170  1  0  0  0
M  CHG  1  88   1
M  ISO  4   1 100  68 101  82 101  87 100
M  END
> <chiral flag>
0

> <version>
0

> <s_m_source_file>
/data/baiqing/PycharmProjects/Reinvent-master-3.2/result/LINK_invent/BTK/process_docking_weight1_custom_product_contain_oxygen_bond_distance_aromatic_linkinvent_7_9_3/rearranged_h_0042.sdf

> <i_m_source_file_index>
22

> <r_mmod_Potential_Energy-OPLS-2005>
64.5734786987305

> <r_mmod_Stretch_Energy-OPLS-2005>
72.7022552490234

> <r_mmod_Bend_Energy-OPLS-2005>
261.519256591797

> <r_mmod_Torsional_Energy-OPLS-2005>
306.4912109375

> <r_mmod_Improper_Torsional_Energy-OPLS-2005>
3.43669486045837

> <r_mmod_Van_der_Waal_Energy-OPLS-2005>
151.098846435547

> <r_mmod_Electrostatic_Energy-OPLS-2005>
-326.660217285156

> <r_mmod_Solvation_Energy-OPLS-2005>
-434.133483886719

> <b_mmod_Minimization_Converged-OPLS-2005>
0

> <r_mmod_RMS_Derivative-OPLS-2005>
8.23279190063477

$$$$
22
                    3D
 Structure written by MMmdl.
160169  0  0  1  0            999 V2000
  -30.5768  -14.7464   20.4750 C   0  0  0  0  0  0
  -30.4528  -12.4540   19.4724 C   0  0  0  0  0  0
  -29.5176  -12.4953   18.2445 C   0  0  0  0  0  0
  -28.0525  -12.2874   18.6768 C   0  0  0  0  0  0
  -27.6482  -13.2121   19.8535 C   0  0  2  0  0  0
  -28.6901  -13.1351   20.9873 C   0  0  0  0  0  0
  -25.2565  -13.8061   20.5687 C   0  0  0  0  0  0
  -24.1839  -13.0376   20.9231 C   0  0  0  0  0  0
  -24.6390  -11.6850   20.8797 C   0  0  0  0  0  0
  -23.9028  -10.4269   21.0437 C   0  0  0  0  0  0
  -24.3577   -9.4189   21.9222 C   0  0  0  0  0  0
  -23.6260   -8.2212   22.0778 C   0  0  0  0  0  0
  -22.4247   -8.0253   21.3539 C   0  0  0  0  0  0
  -21.9870   -9.0251   20.4659 C   0  0  0  0  0  0
  -22.7189  -10.2139   20.3075 C   0  0  0  0  0  0
  -21.6848   -6.0732   22.5281 C   0  0  0  0  0  0
  -21.4022   -6.5640   23.8199 C   0  0  0  0  0  0
  -21.3658   -5.6785   24.9168 C   0  0  0  0  0  0
  -21.6036   -4.3068   24.7246 C   0  0  0  0  0  0
  -21.8831   -3.8150   23.4358 C   0  0  0  0  0  0
  -21.9188   -4.6923   22.3437 C   0  0  0  0  0  0
  -22.7884  -13.5249   21.1840 C   0  0  0  0  0  0
  -22.1652   -4.2129   21.0992 F   0  0  0  0  0  0
  -21.5620   -3.4524   25.7767 F   0  0  0  0  0  0
  -29.9891  -13.5033   20.4114 N   0  0  0  0  0  0
  -26.2985  -12.9266   20.3282 N   0  0  0  0  0  0
  -25.9323  -11.6419   20.5818 N   0  0  0  0  0  0
  -22.0472  -12.8303   22.0362 N   0  0  0  0  0  0
  -25.4206  -15.1775   20.4109 N   0  0  0  0  0  0
  -31.7563  -14.8945   20.1424 O   0  0  0  0  0  0
  -21.6618   -6.8840   21.4211 O   0  0  0  0  0  0
  -22.3583  -14.5525   20.6601 O   0  0  0  0  0  0
  -24.6355  -31.8576   23.1945 C   0  0  0  0  0  0
  -25.9175  -32.4780   23.8302 C   0  0  1  0  0  0
  -27.2015  -27.2627   20.1517 C   0  0  0  0  0  0
  -25.5946  -33.8569   24.2229 N   0  0  0  0  0  0
  -23.4288  -30.4854   21.5377 C   0  0  2  0  0  0
  -24.8745  -28.9351   20.1058 C   0  0  0  0  0  0
  -22.7506  -29.4678   22.4877 C   0  0  0  0  0  0
  -18.0375  -28.1339   22.8348 C   0  0  0  0  0  0
  -24.1493  -36.7288   23.2640 C   0  0  0  0  0  0
  -25.9780  -30.7817   21.3718 C   0  0  0  0  0  0
  -26.0478  -29.4043   20.7116 C   0  0  0  0  0  0
  -27.2231  -28.5862   20.7064 C   0  0  0  0  0  0
  -26.0163  -26.8639   19.5044 C   0  0  0  0  0  0
  -24.8647  -27.6742   19.4855 C   0  0  0  0  0  0
  -23.6491  -29.8247   20.1525 C   0  0  0  0  0  0
  -25.4124  -36.3079   24.0326 C   0  0  1  0  0  0
  -20.5957  -28.3702   23.1175 C   0  0  2  0  0  0
  -20.6906  -26.9539   22.4987 C   0  0  0  0  0  0
  -19.5804  -26.6233   21.4982 C   0  0  0  0  0  0
  -18.2006  -26.7933   22.1346 C   0  0  0  0  0  0
  -19.1602  -28.8820   23.2790 C   0  0  0  0  0  0
  -18.9466  -30.1390   23.8854 C   0  0  0  0  0  0
  -17.6466  -30.6480   24.0553 C   0  0  0  0  0  0
  -25.9068  -34.9460   23.5087 C   0  0  0  0  0  0
  -16.5384  -29.9014   23.6251 C   0  0  0  0  0  0
  -16.7355  -28.6451   23.0216 C   0  0  0  0  0  0
  -26.4507  -31.6605   25.0711 C   0  0  0  0  0  0
  -25.3678  -31.3781   26.1396 C   0  0  0  0  0  0
  -27.0360  -30.3016   24.6239 C   0  0  0  0  0  0
  -27.6083  -32.4324   25.7484 C   0  0  0  0  0  0
  -27.5585  -37.1806   24.8463 C   0  0  0  0  0  0
  -21.4195  -29.3213   22.3721 N   0  0  0  0  0  0
  -26.4292  -37.3788   23.9410 N   0  0  0  0  0  0
  -24.6992  -31.0585   22.0896 N   0  0  0  0  0  0
  -23.4195  -28.8111   23.2908 O   0  0  0  0  0  0
  -28.2697  -26.3433   20.2102 O   0  0  0  0  0  0
  -26.5653  -34.8962   22.4665 O   0  0  0  0  0  0
  -23.5515  -32.1364   23.7283 O   0  0  0  0  0  0
  -27.5937  -20.6585   19.0459 C   0  0  0  0  0  0
  -27.5624  -19.3430   18.5422 C   0  0  0  0  0  0
  -29.1418  -18.5144   20.2486 C   0  0  0  0  0  0
  -28.3437  -20.9784   20.1963 C   0  0  0  0  0  0
  -28.3152  -18.2989   19.1140 C   0  0  0  0  0  0
  -29.1202  -19.8840   20.7761 C   0  0  0  0  0  0
  -27.1613  -22.2753   21.9015 C   0  0  0  0  0  0
  -26.4818  -21.1900   22.3237 C   0  0  0  0  0  0
  -26.9205  -23.5974   22.6146 C   0  0  0  0  0  0
  -26.8468  -24.8248   21.7040 C   0  0  0  0  0  0
  -28.3334  -23.5682   20.0678 C   0  0  0  0  0  0
  -28.1158  -24.9733   20.8527 C   0  0  1  0  0  0
  -30.0788  -17.3376   20.8180 C   0  0  0  0  0  0
  -28.0738  -22.2664   20.8261 N   0  0  0  0  0  0
  -29.7639  -15.8351   20.7555 N   0  0  0  0  0  0
  -28.1767  -16.7566   18.3522 Cl  0  0  0  0  0  0
  -30.0351  -20.2365   22.2028 Cl  0  0  0  0  0  0
  -31.4864  -12.6121   19.1546 H   0  0  0  0  0  0
  -30.4235  -11.4755   19.9555 H   0  0  0  0  0  0
  -29.8107  -11.7359   17.5202 H   0  0  0  0  0  0
  -29.6136  -13.4576   17.7394 H   0  0  0  0  0  0
  -27.9673  -11.2454   18.9865 H   0  0  0  0  0  0
  -27.3707  -12.4081   17.8329 H   0  0  0  0  0  0
  -27.6416  -14.2255   19.4593 H   0  0  0  0  0  0
  -28.7315  -12.1303   21.4083 H   0  0  0  0  0  0
  -28.4157  -13.7980   21.8079 H   0  0  0  0  0  0
  -25.2698   -9.5702   22.4785 H   0  0  0  0  0  0
  -23.9969   -7.4619   22.7496 H   0  0  0  0  0  0
  -21.0784   -8.8790   19.8962 H   0  0  0  0  0  0
  -22.3644  -10.9662   19.6220 H   0  0  0  0  0  0
  -21.2039   -7.6140   23.9710 H   0  0  0  0  0  0
  -21.1443   -6.0522   25.9071 H   0  0  0  0  0  0
  -22.0605   -2.7581   23.2892 H   0  0  0  0  0  0
  -22.4081  -12.0025   22.4849 H   0  0  0  0  0  0
  -21.1075  -13.1353   22.2545 H   0  0  0  0  0  0
  -24.6172  -15.7944   20.4596 H   0  0  0  0  0  0
  -26.2465  -15.6140   20.0281 H   0  0  0  0  0  0
  -26.7272  -32.5459   23.1080 H   0  0  0  0  0  0
  -25.0037  -33.9648   25.0334 H   0  0  0  0  0  0
  -22.7260  -31.3087   21.3870 H   0  0  0  0  0  0
  -23.3784  -35.9589   23.3297 H   0  0  0  0  0  0
  -24.3571  -36.8920   22.2053 H   0  0  0  0  0  0
  -23.7219  -37.6488   23.6654 H   0  0  0  0  0  0
  -26.1235  -31.5564   20.6161 H   0  0  0  0  0  0
  -26.8526  -30.8203   22.0098 H   0  0  0  0  0  0
  -28.1318  -28.9469   21.1721 H   0  0  0  0  0  0
  -25.9692  -25.8864   19.0435 H   0  0  0  0  0  0
  -23.9675  -27.3088   19.0030 H   0  0  0  0  0  0
  -23.7731  -30.6064   19.4017 H   0  0  0  0  0  0
  -22.7742  -29.2560   19.8401 H   0  0  0  0  0  0
  -25.1305  -36.1936   25.0817 H   0  0  0  0  0  0
  -21.0056  -28.3153   24.1295 H   0  0  0  0  0  0
  -20.6250  -26.2297   23.3086 H   0  0  0  0  0  0
  -21.6637  -26.7850   22.0370 H   0  0  0  0  0  0
  -19.7095  -25.6103   21.1077 H   0  0  0  0  0  0
  -19.6661  -27.2938   20.6427 H   0  0  0  0  0  0
  -17.4324  -26.6722   21.3705 H   0  0  0  0  0  0
  -18.0268  -25.9916   22.8490 H   0  0  0  0  0  0
  -19.7897  -30.7250   24.2256 H   0  0  0  0  0  0
  -17.5020  -31.6097   24.5283 H   0  0  0  0  0  0
  -15.5376  -30.2898   23.7589 H   0  0  0  0  0  0
  -15.8785  -28.0766   22.6916 H   0  0  0  0  0  0
  -24.5872  -30.7122   25.7679 H   0  0  0  0  0  0
  -24.8862  -32.2983   26.4734 H   0  0  0  0  0  0
  -25.7956  -30.8997   27.0221 H   0  0  0  0  0  0
  -26.2959  -29.6741   24.1278 H   0  0  0  0  0  0
  -27.4027  -29.7318   25.4785 H   0  0  0  0  0  0
  -27.8835  -30.4270   23.9499 H   0  0  0  0  0  0
  -27.2706  -33.3638   26.2054 H   0  0  0  0  0  0
  -28.3912  -32.6861   25.0305 H   0  0  0  0  0  0
  -28.0733  -31.8437   26.5414 H   0  0  0  0  0  0
  -28.2606  -38.0106   24.7537 H   0  0  0  0  0  0
  -28.1081  -36.2646   24.6257 H   0  0  0  0  0  0
  -27.2293  -37.1416   25.8861 H   0  0  0  0  0  0
  -20.9282  -29.9169   21.7216 H   0  0  0  0  0  0
  -26.0194  -38.2866   24.1435 H   0  0  0  0  0  0
  -26.9646  -21.4049   18.5865 H   0  0  0  0  0  0
  -26.9215  -19.1077   17.7029 H   0  0  0  0  0  0
  -25.7933  -21.2442   23.1565 H   0  0  0  0  0  0
  -26.5835  -20.2129   21.8690 H   0  0  0  0  0  0
  -27.6945  -23.7286   23.3693 H   0  0  0  0  0  0
  -25.9729  -23.5442   23.1534 H   0  0  0  0  0  0
  -26.6983  -25.6963   22.3417 H   0  0  0  0  0  0
  -25.9644  -24.7458   21.0738 H   0  0  0  0  0  0
  -29.3630  -23.5267   19.7100 H   0  0  0  0  0  0
  -27.7097  -23.5802   19.1727 H   0  0  0  0  0  0
  -28.9289  -24.9918   21.5810 H   0  0  0  0  0  0
  -30.2482  -17.5388   21.8742 H   0  0  0  0  0  0
  -31.0545  -17.4965   20.3505 H   0  0  0  0  0  0
  -28.8171  -15.5803   21.0106 H   0  0  0  0  0  0
  1 25  1  0  0  0
  1 30  2  0  0  0
  1 85  1  0  0  0
  2  3  1  0  0  0
  2 25  1  0  0  0
  2 88  1  0  0  0
  2 89  1  0  0  0
  3  4  1  0  0  0
  3 90  1  0  0  0
  3 91  1  0  0  0
  4  5  1  0  0  0
  4 92  1  0  0  0
  4 93  1  0  0  0
  5  6  1  0  0  0
  5 26  1  0  0  0
  5 94  1  0  0  0
  6 25  1  0  0  0
  6 95  1  0  0  0
  6 96  1  0  0  0
  7  8  2  0  0  0
  7 26  1  0  0  0
  7 29  1  0  0  0
  8  9  1  0  0  0
  8 22  1  0  0  0
  9 10  1  0  0  0
  9 27  2  0  0  0
 10 11  2  0  0  0
 10 15  1  0  0  0
 11 12  1  0  0  0
 11 97  1  0  0  0
 12 13  2  0  0  0
 12 98  1  0  0  0
 13 14  1  0  0  0
 13 31  1  0  0  0
 14 15  2  0  0  0
 14 99  1  0  0  0
 15100  1  0  0  0
 16 17  2  0  0  0
 16 21  1  0  0  0
 16 31  1  0  0  0
 17 18  1  0  0  0
 17101  1  0  0  0
 18 19  2  0  0  0
 18102  1  0  0  0
 19 20  1  0  0  0
 19 24  1  0  0  0
 20 21  2  0  0  0
 20103  1  0  0  0
 21 23  1  0  0  0
 22 28  1  0  0  0
 22 32  2  0  0  0
 26 27  1  0  0  0
 28104  1  0  0  0
 28105  1  0  0  0
 29106  1  0  0  0
 29107  1  0  0  0
 33 34  1  0  0  0
 33 66  1  0  0  0
 33 70  2  0  0  0
 34 36  1  0  0  0
 34 59  1  0  0  0
 34108  1  0  0  0
 35 44  2  0  0  0
 35 45  1  0  0  0
 35 68  1  0  0  0
 36 56  1  0  0  0
 36109  1  0  0  0
 37 39  1  0  0  0
 37 47  1  0  0  0
 37 66  1  0  0  0
 37110  1  0  0  0
 38 43  2  0  0  0
 38 46  1  0  0  0
 38 47  1  0  0  0
 39 64  1  0  0  0
 39 67  2  0  0  0
 40 52  1  0  0  0
 40 53  2  0  0  0
 40 58  1  0  0  0
 41111  1  0  0  0
 41112  1  0  0  0
 41113  1  0  0  0
 41 48  1  0  0  0
 42 43  1  0  0  0
 42 66  1  0  0  0
 42114  1  0  0  0
 42115  1  0  0  0
 43 44  1  0  0  0
 44116  1  0  0  0
 45 46  2  0  0  0
 45117  1  0  0  0
 46118  1  0  0  0
 47119  1  0  0  0
 47120  1  0  0  0
 48 56  1  0  0  0
 48 65  1  0  0  0
 48121  1  0  0  0
 49 50  1  0  0  0
 49 53  1  0  0  0
 49 64  1  0  0  0
 49122  1  0  0  0
 50 51  1  0  0  0
 50123  1  0  0  0
 50124  1  0  0  0
 51 52  1  0  0  0
 51125  1  0  0  0
 51126  1  0  0  0
 52127  1  0  0  0
 52128  1  0  0  0
 53 54  1  0  0  0
 54 55  2  0  0  0
 54129  1  0  0  0
 55 57  1  0  0  0
 55130  1  0  0  0
 56 69  2  0  0  0
 57 58  2  0  0  0
 57131  1  0  0  0
 58132  1  0  0  0
 59 60  1  0  0  0
 59 61  1  0  0  0
 59 62  1  0  0  0
 60133  1  0  0  0
 60134  1  0  0  0
 60135  1  0  0  0
 61136  1  0  0  0
 61137  1  0  0  0
 61138  1  0  0  0
 62139  1  0  0  0
 62140  1  0  0  0
 62141  1  0  0  0
 63 65  1  0  0  0
 63142  1  0  0  0
 63143  1  0  0  0
 63144  1  0  0  0
 64145  1  0  0  0
 65146  1  0  0  0
 68 82  1  0  0  0
 71 72  2  0  0  0
 71 74  1  0  0  0
 71147  1  0  0  0
 72 75  1  0  0  0
 72148  1  0  0  0
 73 75  2  0  0  0
 73 76  1  0  0  0
 73 83  1  0  0  0
 74 76  2  0  0  0
 74 84  1  0  0  0
 75 86  1  0  0  0
 76 87  1  0  0  0
 77 78  2  0  0  0
 77 79  1  0  0  0
 77 84  1  0  0  0
 78149  1  0  0  0
 78150  1  0  0  0
 79 80  1  0  0  0
 79151  1  0  0  0
 79152  1  0  0  0
 80 82  1  0  0  0
 80153  1  0  0  0
 80154  1  0  0  0
 81 82  1  0  0  0
 81 84  1  0  0  0
 81155  1  0  0  0
 81156  1  0  0  0
 82157  1  0  0  0
 83 85  1  0  0  0
 83158  1  0  0  0
 83159  1  0  0  0
 85160  1  0  0  0
M  ISO  4   1 100  68 101  82 101  85 100
M  END
> <chiral flag>
0

> <version>
0

> <s_m_source_file>
/data/baiqing/PycharmProjects/Reinvent-master-3.2/result/LINK_invent/BTK/process_docking_weight1_custom_product_contain_oxygen_bond_distance_aromatic_linkinvent_7_9_3/rearranged_h_0042.sdf

> <i_m_source_file_index>
23

> <r_mmod_Potential_Energy-OPLS-2005>
228.525604248047

> <r_mmod_Stretch_Energy-OPLS-2005>
136.859924316406

> <r_mmod_Bend_Energy-OPLS-2005>
184.317932128906

> <r_mmod_Torsional_Energy-OPLS-2005>
267.689178466797

> <r_mmod_Improper_Torsional_Energy-OPLS-2005>
7.05162382125854

> <r_mmod_Van_der_Waal_Energy-OPLS-2005>
144.766082763672

> <r_mmod_Electrostatic_Energy-OPLS-2005>
-400.994720458984

> <r_mmod_Solvation_Energy-OPLS-2005>
-202.358489990234

> <b_mmod_Minimization_Converged-OPLS-2005>
0

> <r_mmod_RMS_Derivative-OPLS-2005>
9.03309631347656

$$$$
23
                    3D
 Structure written by MMmdl.
165173  0  0  1  0            999 V2000
  -30.7055  -14.4607   20.6000 C   0  0  0  0  0  0
  -30.4215  -12.3133   19.4121 C   0  0  0  0  0  0
  -29.4902  -12.5110   18.1990 C   0  0  0  0  0  0
  -28.0121  -12.3697   18.6134 C   0  0  0  0  0  0
  -27.6602  -13.2063   19.8724 C   0  0  2  0  0  0
  -28.6998  -12.9794   20.9909 C   0  0  0  0  0  0
  -25.2596  -13.8165   20.5691 C   0  0  0  0  0  0
  -24.1839  -13.0451   20.9180 C   0  0  0  0  0  0
  -24.6382  -11.6912   20.8732 C   0  0  0  0  0  0
  -23.9045  -10.4300   21.0407 C   0  0  0  0  0  0
  -24.3605   -9.4216   21.9184 C   0  0  0  0  0  0
  -23.6287   -8.2250   22.0750 C   0  0  0  0  0  0
  -22.4269   -8.0285   21.3541 C   0  0  0  0  0  0
  -21.9899   -9.0256   20.4642 C   0  0  0  0  0  0
  -22.7222  -10.2138   20.3052 C   0  0  0  0  0  0
  -21.6855   -6.0733   22.5278 C   0  0  0  0  0  0
  -21.4017   -6.5638   23.8211 C   0  0  0  0  0  0
  -21.3657   -5.6793   24.9175 C   0  0  0  0  0  0
  -21.6043   -4.3055   24.7229 C   0  0  0  0  0  0
  -21.8819   -3.8144   23.4350 C   0  0  0  0  0  0
  -21.9193   -4.6960   22.3405 C   0  0  0  0  0  0
  -22.7863  -13.5259   21.1842 C   0  0  0  0  0  0
  -22.1665   -4.2146   21.0983 F   0  0  0  0  0  0
  -21.5623   -3.4539   25.7739 F   0  0  0  0  0  0
  -30.0295  -13.2911   20.4392 N   0  0  0  0  0  0
  -26.3014  -12.9326   20.3347 N   0  0  0  0  0  0
  -25.9304  -11.6489   20.5750 N   0  0  0  0  0  0
  -22.0492  -12.8259   22.0391 N   0  0  0  0  0  0
  -25.4368  -15.1886   20.4136 N   0  0  0  0  0  0
  -31.8193  -14.6617   20.1082 O   0  0  0  0  0  0
  -21.6638   -6.8880   21.4239 O   0  0  0  0  0  0
  -22.3559  -14.5572   20.6695 O   0  0  0  0  0  0
  -24.6151  -31.8674   23.2097 C   0  0  0  0  0  0
  -25.9049  -32.4819   23.8381 C   0  0  1  0  0  0
  -27.2286  -27.4211   20.1007 C   0  0  0  0  0  0
  -25.5904  -33.8615   24.2326 N   0  0  0  0  0  0
  -23.4029  -30.4913   21.5500 C   0  0  2  0  0  0
  -24.8480  -28.9536   20.1182 C   0  0  0  0  0  0
  -22.7406  -29.4659   22.4988 C   0  0  0  0  0  0
  -18.0277  -28.1361   22.8486 C   0  0  0  0  0  0
  -24.1485  -36.7315   23.2634 C   0  0  0  0  0  0
  -25.9327  -30.8283   21.3653 C   0  0  0  0  0  0
  -26.0083  -29.4611   20.7152 C   0  0  0  0  0  0
  -27.2018  -28.7025   20.7018 C   0  0  0  0  0  0
  -26.0546  -26.9362   19.4867 C   0  0  0  0  0  0
  -24.8660  -27.6900   19.5025 C   0  0  0  0  0  0
  -23.6118  -29.8229   20.1645 C   0  0  0  0  0  0
  -25.4106  -36.3111   24.0337 C   0  0  1  0  0  0
  -20.5865  -28.3660   23.1323 C   0  0  2  0  0  0
  -20.6784  -26.9398   22.5409 C   0  0  0  0  0  0
  -19.5774  -26.6388   21.5199 C   0  0  0  0  0  0
  -18.1943  -26.7915   22.1601 C   0  0  0  0  0  0
  -19.1519  -28.8824   23.2902 C   0  0  0  0  0  0
  -18.9437  -30.1431   23.8906 C   0  0  0  0  0  0
  -17.6437  -30.6568   24.0547 C   0  0  0  0  0  0
  -25.9031  -34.9474   23.5131 C   0  0  0  0  0  0
  -16.5332  -29.9065   23.6299 C   0  0  0  0  0  0
  -16.7264  -28.6475   23.0333 C   0  0  0  0  0  0
  -26.4478  -31.6594   25.0710 C   0  0  0  0  0  0
  -25.3752  -31.3709   26.1465 C   0  0  0  0  0  0
  -27.0302  -30.3033   24.6085 C   0  0  0  0  0  0
  -27.6055  -32.4306   25.7477 C   0  0  0  0  0  0
  -27.5579  -37.1813   24.8462 C   0  0  0  0  0  0
  -21.4131  -29.3044   22.3732 N   0  0  0  0  0  0
  -26.4294  -37.3794   23.9405 N   0  0  0  0  0  0
  -24.6684  -31.0767   22.1003 N   0  0  0  0  0  0
  -23.4177  -28.8191   23.3020 O   0  0  0  0  0  0
  -28.4030  -26.6938   20.0851 O   0  0  0  0  0  0
  -26.5582  -34.8928   22.4685 O   0  0  0  0  0  0
  -23.5347  -32.1430   23.7494 O   0  0  0  0  0  0
  -29.6663  -20.0588   19.9592 C   0  0  0  0  0  0
  -30.3071  -18.8491   20.2930 C   0  0  0  0  0  0
  -28.4487  -20.4271   20.5686 C   0  0  0  0  0  0
  -29.7600  -17.9720   21.2545 C   0  0  0  0  0  0
  -27.8746  -19.5521   21.5412 C   0  0  0  0  0  0
  -28.5245  -18.3214   21.8715 C   0  0  0  0  0  0
  -27.8046  -21.6863   20.1267 C   0  0  0  0  0  0
  -26.5769  -19.9329   22.2623 C   0  0  0  0  0  0
  -27.8961  -17.4038   22.9181 C   0  0  0  0  0  0
  -27.7772  -25.3234   22.0548 C   0  0  0  0  0  0
  -30.5842  -16.7370   21.6600 C   0  0  0  0  0  0
  -27.9587  -24.2090   19.7440 C   0  0  0  0  0  0
  -28.4370  -25.3668   20.6642 C   0  0  1  0  0  0
  -26.5636  -21.6386   19.6464 N   0  0  0  0  0  0
  -30.0462  -15.4254   21.2659 N   0  0  0  0  0  0
  -28.4407  -22.8730   20.1906 N   0  3  0  0  0  0
  -31.4646  -12.4180   19.1092 H   0  0  0  0  0  0
  -30.3299  -11.3002   19.8061 H   0  0  0  0  0  0
  -29.7297  -11.7862   17.4201 H   0  0  0  0  0  0
  -29.6573  -13.4964   17.7608 H   0  0  0  0  0  0
  -27.8228  -11.3134   18.8062 H   0  0  0  0  0  0
  -27.3610  -12.6477   17.7838 H   0  0  0  0  0  0
  -27.7079  -14.2554   19.5801 H   0  0  0  0  0  0
  -28.6777  -11.9405   21.3248 H   0  0  0  0  0  0
  -28.4540  -13.5684   21.8749 H   0  0  0  0  0  0
  -25.2748   -9.5695   22.4761 H   0  0  0  0  0  0
  -23.9994   -7.4641   22.7469 H   0  0  0  0  0  0
  -21.0827   -8.8773   19.8954 H   0  0  0  0  0  0
  -22.3677  -10.9677   19.6164 H   0  0  0  0  0  0
  -21.2016   -7.6146   23.9719 H   0  0  0  0  0  0
  -21.1476   -6.0519   25.9078 H   0  0  0  0  0  0
  -22.0599   -2.7605   23.2851 H   0  0  0  0  0  0
  -22.4094  -11.9916   22.4779 H   0  0  0  0  0  0
  -21.1110  -13.1293   22.2585 H   0  0  0  0  0  0
  -24.6742  -15.8481   20.5197 H   0  0  0  0  0  0
  -26.2923  -15.6204   20.0879 H   0  0  0  0  0  0
  -26.7120  -32.5523   23.1137 H   0  0  0  0  0  0
  -25.0079  -33.9775   25.0487 H   0  0  0  0  0  0
  -22.6929  -31.3085   21.4101 H   0  0  0  0  0  0
  -23.3743  -35.9652   23.3310 H   0  0  0  0  0  0
  -24.3577  -36.8914   22.2046 H   0  0  0  0  0  0
  -23.7243  -37.6529   23.6636 H   0  0  0  0  0  0
  -26.0448  -31.5932   20.5960 H   0  0  0  0  0  0
  -26.8209  -30.8823   21.9827 H   0  0  0  0  0  0
  -28.0992  -29.0901   21.1635 H   0  0  0  0  0  0
  -26.0471  -25.9908   18.9700 H   0  0  0  0  0  0
  -23.9762  -27.2985   19.0301 H   0  0  0  0  0  0
  -23.7243  -30.5974   19.4049 H   0  0  0  0  0  0
  -22.7348  -29.2454   19.8653 H   0  0  0  0  0  0
  -25.1283  -36.1979   25.0832 H   0  0  0  0  0  0
  -20.9964  -28.3217   24.1443 H   0  0  0  0  0  0
  -20.5706  -26.2253   23.3588 H   0  0  0  0  0  0
  -21.6655  -26.7467   22.1185 H   0  0  0  0  0  0
  -19.6947  -25.6304   21.1219 H   0  0  0  0  0  0
  -19.6730  -27.3214   20.6743 H   0  0  0  0  0  0
  -17.4222  -26.6665   21.3994 H   0  0  0  0  0  0
  -18.0340  -26.0038   22.8975 H   0  0  0  0  0  0
  -19.7915  -30.7234   24.2286 H   0  0  0  0  0  0
  -17.4997  -31.6257   24.5132 H   0  0  0  0  0  0
  -15.5326  -30.2968   23.7600 H   0  0  0  0  0  0
  -15.8681  -28.0791   22.7021 H   0  0  0  0  0  0
  -24.5921  -30.7057   25.7807 H   0  0  0  0  0  0
  -24.8949  -32.2873   26.4909 H   0  0  0  0  0  0
  -25.8115  -30.8884   27.0219 H   0  0  0  0  0  0
  -26.2848  -29.6806   24.1129 H   0  0  0  0  0  0
  -27.4060  -29.7258   25.4539 H   0  0  0  0  0  0
  -27.8689  -30.4345   23.9242 H   0  0  0  0  0  0
  -27.2674  -33.3589   26.2093 H   0  0  0  0  0  0
  -28.3853  -32.6892   25.0301 H   0  0  0  0  0  0
  -28.0737  -31.8403   26.5364 H   0  0  0  0  0  0
  -28.2609  -38.0100   24.7496 H   0  0  0  0  0  0
  -28.1068  -36.2630   24.6307 H   0  0  0  0  0  0
  -27.2292  -37.1483   25.8866 H   0  0  0  0  0  0
  -20.9291  -29.8780   21.6966 H   0  0  0  0  0  0
  -26.0188  -38.2876   24.1404 H   0  0  0  0  0  0
  -30.1127  -20.7006   19.2115 H   0  0  0  0  0  0
  -31.2435  -18.6036   19.8096 H   0  0  0  0  0  0
  -26.4349  -21.0109   22.3337 H   0  0  0  0  0  0
  -26.5540  -19.5761   23.2907 H   0  0  0  0  0  0
  -25.7164  -19.5121   21.7415 H   0  0  0  0  0  0
  -28.3342  -16.4103   22.9586 H   0  0  0  0  0  0
  -26.8340  -17.2590   22.7173 H   0  0  0  0  0  0
  -28.0018  -17.8406   23.9115 H   0  0  0  0  0  0
  -27.9542  -24.3644   22.5421 H   0  0  0  0  0  0
  -26.6973  -25.4620   21.9949 H   0  0  0  0  0  0
  -28.1815  -26.1012   22.7025 H   0  0  0  0  0  0
  -30.6888  -16.7441   22.7453 H   0  0  0  0  0  0
  -31.6025  -16.8614   21.2888 H   0  0  0  0  0  0
  -28.3199  -24.3777   18.7286 H   0  0  0  0  0  0
  -26.8711  -24.2066   19.6952 H   0  0  0  0  0  0
  -29.5006  -25.1955   20.8346 H   0  0  0  0  0  0
  -26.1191  -20.7370   19.5560 H   0  0  0  0  0  0
  -26.0607  -22.4517   19.3373 H   0  0  0  0  0  0
  -29.1195  -15.1951   21.5869 H   0  0  0  0  0  0
  -29.3896  -22.8411   20.5429 H   0  0  0  0  0  0
  1 25  1  0  0  0
  1 30  2  0  0  0
  1 85  1  0  0  0
  2  3  1  0  0  0
  2 25  1  0  0  0
  2 87  1  0  0  0
  2 88  1  0  0  0
  3  4  1  0  0  0
  3 89  1  0  0  0
  3 90  1  0  0  0
  4  5  1  0  0  0
  4 91  1  0  0  0
  4 92  1  0  0  0
  5  6  1  0  0  0
  5 26  1  0  0  0
  5 93  1  0  0  0
  6 25  1  0  0  0
  6 94  1  0  0  0
  6 95  1  0  0  0
  7  8  2  0  0  0
  7 26  1  0  0  0
  7 29  1  0  0  0
  8  9  1  0  0  0
  8 22  1  0  0  0
  9 10  1  0  0  0
  9 27  2  0  0  0
 10 11  2  0  0  0
 10 15  1  0  0  0
 11 12  1  0  0  0
 11 96  1  0  0  0
 12 13  2  0  0  0
 12 97  1  0  0  0
 13 14  1  0  0  0
 13 31  1  0  0  0
 14 15  2  0  0  0
 14 98  1  0  0  0
 15 99  1  0  0  0
 16 17  2  0  0  0
 16 21  1  0  0  0
 16 31  1  0  0  0
 17 18  1  0  0  0
 17100  1  0  0  0
 18 19  2  0  0  0
 18101  1  0  0  0
 19 20  1  0  0  0
 19 24  1  0  0  0
 20 21  2  0  0  0
 20102  1  0  0  0
 21 23  1  0  0  0
 22 28  1  0  0  0
 22 32  2  0  0  0
 26 27  1  0  0  0
 28103  1  0  0  0
 28104  1  0  0  0
 29105  1  0  0  0
 29106  1  0  0  0
 33 34  1  0  0  0
 33 66  1  0  0  0
 33 70  2  0  0  0
 34 36  1  0  0  0
 34 59  1  0  0  0
 34107  1  0  0  0
 35 44  2  0  0  0
 35 45  1  0  0  0
 35 68  1  0  0  0
 36 56  1  0  0  0
 36108  1  0  0  0
 37 39  1  0  0  0
 37 47  1  0  0  0
 37 66  1  0  0  0
 37109  1  0  0  0
 38 43  2  0  0  0
 38 46  1  0  0  0
 38 47  1  0  0  0
 39 64  1  0  0  0
 39 67  2  0  0  0
 40 52  1  0  0  0
 40 53  2  0  0  0
 40 58  1  0  0  0
 41110  1  0  0  0
 41111  1  0  0  0
 41112  1  0  0  0
 41 48  1  0  0  0
 42 43  1  0  0  0
 42 66  1  0  0  0
 42113  1  0  0  0
 42114  1  0  0  0
 43 44  1  0  0  0
 44115  1  0  0  0
 45 46  2  0  0  0
 45116  1  0  0  0
 46117  1  0  0  0
 47118  1  0  0  0
 47119  1  0  0  0
 48 56  1  0  0  0
 48 65  1  0  0  0
 48120  1  0  0  0
 49 50  1  0  0  0
 49 53  1  0  0  0
 49 64  1  0  0  0
 49121  1  0  0  0
 50 51  1  0  0  0
 50122  1  0  0  0
 50123  1  0  0  0
 51 52  1  0  0  0
 51124  1  0  0  0
 51125  1  0  0  0
 52126  1  0  0  0
 52127  1  0  0  0
 53 54  1  0  0  0
 54 55  2  0  0  0
 54128  1  0  0  0
 55 57  1  0  0  0
 55129  1  0  0  0
 56 69  2  0  0  0
 57 58  2  0  0  0
 57130  1  0  0  0
 58131  1  0  0  0
 59 60  1  0  0  0
 59 61  1  0  0  0
 59 62  1  0  0  0
 60132  1  0  0  0
 60133  1  0  0  0
 60134  1  0  0  0
 61135  1  0  0  0
 61136  1  0  0  0
 61137  1  0  0  0
 62138  1  0  0  0
 62139  1  0  0  0
 62140  1  0  0  0
 63 65  1  0  0  0
 63141  1  0  0  0
 63142  1  0  0  0
 63143  1  0  0  0
 64144  1  0  0  0
 65145  1  0  0  0
 68 83  1  0  0  0
 71 72  2  0  0  0
 71 73  1  0  0  0
 71146  1  0  0  0
 72 74  1  0  0  0
 72147  1  0  0  0
 73 75  2  0  0  0
 73 77  1  0  0  0
 74 76  2  0  0  0
 74 81  1  0  0  0
 75 76  1  0  0  0
 75 78  1  0  0  0
 76 79  1  0  0  0
 77 84  1  0  0  0
 77 86  2  0  0  0
 78148  1  0  0  0
 78149  1  0  0  0
 78150  1  0  0  0
 79151  1  0  0  0
 79152  1  0  0  0
 79153  1  0  0  0
 80154  1  0  0  0
 80155  1  0  0  0
 80156  1  0  0  0
 80 83  1  0  0  0
 81 85  1  0  0  0
 81157  1  0  0  0
 81158  1  0  0  0
 82 83  1  0  0  0
 82 86  1  0  0  0
 82159  1  0  0  0
 82160  1  0  0  0
 83161  1  0  0  0
 84162  1  0  0  0
 84163  1  0  0  0
 85164  1  0  0  0
 86165  1  0  0  0
M  CHG  1  86   1
M  ISO  4   1 100  68 101  83 101  85 100
M  END
> <chiral flag>
0

> <version>
0

> <s_m_source_file>
/data/baiqing/PycharmProjects/Reinvent-master-3.2/result/LINK_invent/BTK/process_docking_weight1_custom_product_contain_oxygen_bond_distance_aromatic_linkinvent_7_9_3/rearranged_h_0042.sdf

> <i_m_source_file_index>
24

> <r_mmod_Potential_Energy-OPLS-2005>
-296.1669921875

> <r_mmod_Stretch_Energy-OPLS-2005>
43.535457611084

> <r_mmod_Bend_Energy-OPLS-2005>
106.89794921875

> <r_mmod_Torsional_Energy-OPLS-2005>
220.37629699707

> <r_mmod_Improper_Torsional_Energy-OPLS-2005>
2.67395377159119

> <r_mmod_Van_der_Waal_Energy-OPLS-2005>
160.359512329102

> <r_mmod_Electrostatic_Energy-OPLS-2005>
-443.258850097656

> <r_mmod_Solvation_Energy-OPLS-2005>
-398.617034912109

> <b_mmod_Minimization_Converged-OPLS-2005>
0

> <r_mmod_RMS_Derivative-OPLS-2005>
1.18279027938843

$$$$
24
                    3D
 Structure written by MMmdl.
164173  0  0  1  0            999 V2000
  -30.6229  -14.6680   20.4882 C   0  0  0  0  0  0
  -30.4388  -12.4078   19.4584 C   0  0  0  0  0  0
  -29.5109  -12.5077   18.2273 C   0  0  0  0  0  0
  -28.0341  -12.3431   18.6381 C   0  0  0  0  0  0
  -27.6499  -13.2203   19.8592 C   0  0  2  0  0  0
  -28.6960  -13.0971   20.9906 C   0  0  0  0  0  0
  -25.2465  -13.8064   20.5590 C   0  0  0  0  0  0
  -24.1787  -13.0352   20.9215 C   0  0  0  0  0  0
  -24.6406  -11.6850   20.8781 C   0  0  0  0  0  0
  -23.9080  -10.4246   21.0433 C   0  0  0  0  0  0
  -24.3623   -9.4161   21.9210 C   0  0  0  0  0  0
  -23.6286   -8.2204   22.0765 C   0  0  0  0  0  0
  -22.4269   -8.0261   21.3546 C   0  0  0  0  0  0
  -21.9914   -9.0240   20.4648 C   0  0  0  0  0  0
  -22.7256  -10.2111   20.3068 C   0  0  0  0  0  0
  -21.6838   -6.0731   22.5280 C   0  0  0  0  0  0
  -21.4006   -6.5640   23.8218 C   0  0  0  0  0  0
  -21.3657   -5.6789   24.9182 C   0  0  0  0  0  0
  -21.6043   -4.3051   24.7231 C   0  0  0  0  0  0
  -21.8819   -3.8144   23.4350 C   0  0  0  0  0  0
  -21.9192   -4.6960   22.3404 C   0  0  0  0  0  0
  -22.7816  -13.5166   21.1861 C   0  0  0  0  0  0
  -22.1660   -4.2149   21.0977 F   0  0  0  0  0  0
  -21.5633   -3.4530   25.7745 F   0  0  0  0  0  0
  -30.0102  -13.4408   20.4243 N   0  0  0  0  0  0
  -26.2966  -12.9318   20.3291 N   0  0  0  0  0  0
  -25.9347  -11.6474   20.5798 N   0  0  0  0  0  0
  -22.0451  -12.8185   22.0427 N   0  0  0  0  0  0
  -25.3977  -15.1726   20.3758 N   0  0  0  0  0  0
  -31.7936  -14.8081   20.1232 O   0  0  0  0  0  0
  -21.6621   -6.8871   21.4241 O   0  0  0  0  0  0
  -22.3520  -14.5475   20.6695 O   0  0  0  0  0  0
  -24.6219  -31.8599   23.2015 C   0  0  0  0  0  0
  -25.9071  -32.4780   23.8349 C   0  0  1  0  0  0
  -27.2280  -27.3240   20.1342 C   0  0  0  0  0  0
  -25.5904  -33.8580   24.2279 N   0  0  0  0  0  0
  -23.4182  -30.4807   21.5422 C   0  0  2  0  0  0
  -24.8680  -28.9309   20.1170 C   0  0  0  0  0  0
  -22.7460  -29.4614   22.4921 C   0  0  0  0  0  0
  -18.0288  -28.1388   22.8506 C   0  0  0  0  0  0
  -24.1484  -36.7291   23.2637 C   0  0  0  0  0  0
  -25.9564  -30.7911   21.3732 C   0  0  0  0  0  0
  -26.0327  -29.4137   20.7280 C   0  0  0  0  0  0
  -27.2157  -28.6198   20.7322 C   0  0  0  0  0  0
  -26.0529  -26.8991   19.4793 C   0  0  0  0  0  0
  -24.8782  -27.6762   19.4852 C   0  0  0  0  0  0
  -23.6364  -29.8108   20.1588 C   0  0  0  0  0  0
  -25.4112  -36.3081   24.0327 C   0  0  1  0  0  0
  -20.5892  -28.3683   23.1293 C   0  0  2  0  0  0
  -20.6783  -26.9410   22.5414 C   0  0  0  0  0  0
  -19.5758  -26.6394   21.5215 C   0  0  0  0  0  0
  -18.1935  -26.7945   22.1623 C   0  0  0  0  0  0
  -19.1545  -28.8853   23.2902 C   0  0  0  0  0  0
  -18.9465  -30.1465   23.8904 C   0  0  0  0  0  0
  -17.6465  -30.6595   24.0578 C   0  0  0  0  0  0
  -25.9049  -34.9450   23.5109 C   0  0  0  0  0  0
  -16.5355  -29.9099   23.6336 C   0  0  0  0  0  0
  -16.7278  -28.6517   23.0357 C   0  0  0  0  0  0
  -26.4475  -31.6580   25.0699 C   0  0  0  0  0  0
  -25.3721  -31.3728   26.1432 C   0  0  0  0  0  0
  -27.0308  -30.3010   24.6124 C   0  0  0  0  0  0
  -27.6036  -32.4313   25.7479 C   0  0  0  0  0  0
  -27.5588  -37.1799   24.8460 C   0  0  0  0  0  0
  -21.4179  -29.3038   22.3684 N   0  0  0  0  0  0
  -26.4287  -37.3778   23.9419 N   0  0  0  0  0  0
  -24.6837  -31.0617   22.0961 N   0  0  0  0  0  0
  -23.4189  -28.8160   23.2993 O   0  0  0  0  0  0
  -28.3616  -26.5044   20.1038 O   0  0  0  0  0  0
  -26.5616  -34.8917   22.4675 O   0  0  0  0  0  0
  -23.5389  -32.1378   23.7356 O   0  0  0  0  0  0
  -28.8360  -19.4498   20.6167 C   0  0  0  0  0  0
  -31.1284  -17.8779   20.3187 C   0  0  0  0  0  0
  -30.0284  -20.1335   20.2843 C   0  0  0  0  0  0
  -28.7855  -18.0363   20.8160 C   0  0  0  0  0  0
  -31.1830  -19.2976   20.1403 C   0  0  0  0  0  0
  -29.9289  -17.1928   20.6473 C   0  0  0  0  0  0
  -29.1238  -24.0324   19.9864 C   0  0  0  0  0  0
  -27.2526  -23.2351   22.0659 C   0  0  0  0  0  0
  -27.0686  -24.6026   21.3550 C   0  0  0  0  0  0
  -28.6580  -22.5993   21.8953 C   0  0  0  0  0  0
  -28.3879  -25.1810   20.7871 C   0  0  2  0  0  0
  -27.4333  -17.4637   21.1879 C   0  0  0  0  0  0
  -32.5234  -19.8993   19.7460 C   0  0  0  0  0  0
  -30.0875  -21.6866   19.9568 C   0  0  0  0  0  0
  -29.1948  -22.7651   20.5372 N   0  0  0  0  0  0
  -29.8112  -15.7323   20.8063 N   0  0  0  0  0  0
  -29.6426  -24.3037   18.8980 O   0  0  0  0  0  0
  -31.4799  -12.5332   19.1556 H   0  0  0  0  0  0
  -30.3773  -11.4164   19.9100 H   0  0  0  0  0  0
  -29.7809  -11.7503   17.4902 H   0  0  0  0  0  0
  -29.6523  -13.4725   17.7381 H   0  0  0  0  0  0
  -27.8763  -11.2913   18.8773 H   0  0  0  0  0  0
  -27.3800  -12.5629   17.7936 H   0  0  0  0  0  0
  -27.6595  -14.2531   19.5098 H   0  0  0  0  0  0
  -28.7122  -12.0824   21.3915 H   0  0  0  0  0  0
  -28.4390  -13.7448   21.8303 H   0  0  0  0  0  0
  -25.2768   -9.5634   22.4790 H   0  0  0  0  0  0
  -23.9986   -7.4592   22.7485 H   0  0  0  0  0  0
  -21.0848   -8.8768   19.8952 H   0  0  0  0  0  0
  -22.3728  -10.9657   19.6176 H   0  0  0  0  0  0
  -21.1987   -7.6148   23.9724 H   0  0  0  0  0  0
  -21.1482   -6.0519   25.9087 H   0  0  0  0  0  0
  -22.0600   -2.7606   23.2847 H   0  0  0  0  0  0
  -22.4039  -11.9835   22.4811 H   0  0  0  0  0  0
  -21.1080  -13.1238   22.2631 H   0  0  0  0  0  0
  -24.6063  -15.8035   20.4447 H   0  0  0  0  0  0
  -26.2069  -15.5936   19.9415 H   0  0  0  0  0  0
  -26.7139  -32.5470   23.1101 H   0  0  0  0  0  0
  -25.0065  -33.9731   25.0437 H   0  0  0  0  0  0
  -22.7125  -31.3008   21.3974 H   0  0  0  0  0  0
  -23.3745  -35.9620   23.3280 H   0  0  0  0  0  0
  -24.3588  -36.8917   22.2054 H   0  0  0  0  0  0
  -23.7226  -37.6491   23.6660 H   0  0  0  0  0  0
  -26.0820  -31.5467   20.5963 H   0  0  0  0  0  0
  -26.8396  -30.8486   21.9980 H   0  0  0  0  0  0
  -28.1119  -28.9894   21.2133 H   0  0  0  0  0  0
  -26.0404  -25.9542   18.9559 H   0  0  0  0  0  0
  -23.9887  -27.3068   18.9919 H   0  0  0  0  0  0
  -23.7600  -30.5831   19.3984 H   0  0  0  0  0  0
  -22.7579  -29.2371   19.8577 H   0  0  0  0  0  0
  -25.1290  -36.1927   25.0817 H   0  0  0  0  0  0
  -21.0003  -28.3237   24.1404 H   0  0  0  0  0  0
  -20.5678  -26.2282   23.3602 H   0  0  0  0  0  0
  -21.6656  -26.7449   22.1207 H   0  0  0  0  0  0
  -19.6904  -25.6303   21.1238 H   0  0  0  0  0  0
  -19.6698  -27.3219   20.6758 H   0  0  0  0  0  0
  -17.4218  -26.6715   21.4008 H   0  0  0  0  0  0
  -18.0326  -26.0081   22.9016 H   0  0  0  0  0  0
  -19.7935  -30.7303   24.2248 H   0  0  0  0  0  0
  -17.5015  -31.6269   24.5197 H   0  0  0  0  0  0
  -15.5359  -30.3008   23.7649 H   0  0  0  0  0  0
  -15.8686  -28.0843   22.7048 H   0  0  0  0  0  0
  -24.5905  -30.7058   25.7783 H   0  0  0  0  0  0
  -24.8901  -32.2897   26.4831 H   0  0  0  0  0  0
  -25.8057  -30.8944   27.0221 H   0  0  0  0  0  0
  -26.2872  -29.6781   24.1135 H   0  0  0  0  0  0
  -27.4020  -29.7226   25.4594 H   0  0  0  0  0  0
  -27.8731  -30.4315   23.9331 H   0  0  0  0  0  0
  -27.2645  -33.3615   26.2054 H   0  0  0  0  0  0
  -28.3860  -32.6863   25.0320 H   0  0  0  0  0  0
  -28.0681  -31.8430   26.5402 H   0  0  0  0  0  0
  -28.2582  -38.0124   24.7559 H   0  0  0  0  0  0
  -28.1111  -36.2659   24.6220 H   0  0  0  0  0  0
  -27.2321  -37.1369   25.8866 H   0  0  0  0  0  0
  -20.9334  -29.8769   21.6925 H   0  0  0  0  0  0
  -26.0152  -38.2840   24.1459 H   0  0  0  0  0  0
  -27.9209  -20.0193   20.6992 H   0  0  0  0  0  0
  -32.0372  -17.3082   20.1874 H   0  0  0  0  0  0
  -26.4998  -22.5417   21.6869 H   0  0  0  0  0  0
  -27.0385  -23.3412   23.1305 H   0  0  0  0  0  0
  -26.6105  -25.3144   22.0429 H   0  0  0  0  0  0
  -26.3561  -24.4559   20.5459 H   0  0  0  0  0  0
  -28.6314  -21.5570   22.2050 H   0  0  0  0  0  0
  -29.3550  -23.0824   22.5832 H   0  0  0  0  0  0
  -29.0269  -25.3695   21.6522 H   0  0  0  0  0  0
  -26.9243  -18.1171   21.8974 H   0  0  0  0  0  0
  -27.4955  -16.4788   21.6486 H   0  0  0  0  0  0
  -26.8152  -17.4066   20.2930 H   0  0  0  0  0  0
  -33.3037  -19.1399   19.6813 H   0  0  0  0  0  0
  -32.8551  -20.6374   20.4766 H   0  0  0  0  0  0
  -32.4550  -20.3812   18.7705 H   0  0  0  0  0  0
  -30.0069  -21.7453   18.8695 H   0  0  0  0  0  0
  -31.0940  -22.0361   20.1812 H   0  0  0  0  0  0
  -28.8920  -15.4272   21.0832 H   0  0  0  0  0  0
  1 25  1  0  0  0
  1 30  2  0  0  0
  1 86  1  0  0  0
  2  3  1  0  0  0
  2 25  1  0  0  0
  2 88  1  0  0  0
  2 89  1  0  0  0
  3  4  1  0  0  0
  3 90  1  0  0  0
  3 91  1  0  0  0
  4  5  1  0  0  0
  4 92  1  0  0  0
  4 93  1  0  0  0
  5  6  1  0  0  0
  5 26  1  0  0  0
  5 94  1  0  0  0
  6 25  1  0  0  0
  6 95  1  0  0  0
  6 96  1  0  0  0
  7  8  2  0  0  0
  7 26  1  0  0  0
  7 29  1  0  0  0
  8  9  1  0  0  0
  8 22  1  0  0  0
  9 10  1  0  0  0
  9 27  2  0  0  0
 10 11  2  0  0  0
 10 15  1  0  0  0
 11 12  1  0  0  0
 11 97  1  0  0  0
 12 13  2  0  0  0
 12 98  1  0  0  0
 13 14  1  0  0  0
 13 31  1  0  0  0
 14 15  2  0  0  0
 14 99  1  0  0  0
 15100  1  0  0  0
 16 17  2  0  0  0
 16 21  1  0  0  0
 16 31  1  0  0  0
 17 18  1  0  0  0
 17101  1  0  0  0
 18 19  2  0  0  0
 18102  1  0  0  0
 19 20  1  0  0  0
 19 24  1  0  0  0
 20 21  2  0  0  0
 20103  1  0  0  0
 21 23  1  0  0  0
 22 28  1  0  0  0
 22 32  2  0  0  0
 26 27  1  0  0  0
 28104  1  0  0  0
 28105  1  0  0  0
 29106  1  0  0  0
 29107  1  0  0  0
 33 34  1  0  0  0
 33 66  1  0  0  0
 33 70  2  0  0  0
 34 36  1  0  0  0
 34 59  1  0  0  0
 34108  1  0  0  0
 35 44  2  0  0  0
 35 45  1  0  0  0
 35 68  1  0  0  0
 36 56  1  0  0  0
 36109  1  0  0  0
 37 39  1  0  0  0
 37 47  1  0  0  0
 37 66  1  0  0  0
 37110  1  0  0  0
 38 43  2  0  0  0
 38 46  1  0  0  0
 38 47  1  0  0  0
 39 64  1  0  0  0
 39 67  2  0  0  0
 40 52  1  0  0  0
 40 53  2  0  0  0
 40 58  1  0  0  0
 41111  1  0  0  0
 41112  1  0  0  0
 41113  1  0  0  0
 41 48  1  0  0  0
 42 43  1  0  0  0
 42 66  1  0  0  0
 42114  1  0  0  0
 42115  1  0  0  0
 43 44  1  0  0  0
 44116  1  0  0  0
 45 46  2  0  0  0
 45117  1  0  0  0
 46118  1  0  0  0
 47119  1  0  0  0
 47120  1  0  0  0
 48 56  1  0  0  0
 48 65  1  0  0  0
 48121  1  0  0  0
 49 50  1  0  0  0
 49 53  1  0  0  0
 49 64  1  0  0  0
 49122  1  0  0  0
 50 51  1  0  0  0
 50123  1  0  0  0
 50124  1  0  0  0
 51 52  1  0  0  0
 51125  1  0  0  0
 51126  1  0  0  0
 52127  1  0  0  0
 52128  1  0  0  0
 53 54  1  0  0  0
 54 55  2  0  0  0
 54129  1  0  0  0
 55 57  1  0  0  0
 55130  1  0  0  0
 56 69  2  0  0  0
 57 58  2  0  0  0
 57131  1  0  0  0
 58132  1  0  0  0
 59 60  1  0  0  0
 59 61  1  0  0  0
 59 62  1  0  0  0
 60133  1  0  0  0
 60134  1  0  0  0
 60135  1  0  0  0
 61136  1  0  0  0
 61137  1  0  0  0
 61138  1  0  0  0
 62139  1  0  0  0
 62140  1  0  0  0
 62141  1  0  0  0
 63 65  1  0  0  0
 63142  1  0  0  0
 63143  1  0  0  0
 63144  1  0  0  0
 64145  1  0  0  0
 65146  1  0  0  0
 68 81  1  0  0  0
 71 73  2  0  0  0
 71 74  1  0  0  0
 71147  1  0  0  0
 72 75  2  0  0  0
 72 76  1  0  0  0
 72148  1  0  0  0
 73 75  1  0  0  0
 73 84  1  0  0  0
 74 76  2  0  0  0
 74 82  1  0  0  0
 75 83  1  0  0  0
 76 86  1  0  0  0
 77 81  1  0  0  0
 77 85  1  0  0  0
 77 87  2  0  0  0
 78 79  1  0  0  0
 78 80  1  0  0  0
 78149  1  0  0  0
 78150  1  0  0  0
 79 81  1  0  0  0
 79151  1  0  0  0
 79152  1  0  0  0
 80 85  1  0  0  0
 80153  1  0  0  0
 80154  1  0  0  0
 81155  1  0  0  0
 82156  1  0  0  0
 82157  1  0  0  0
 82158  1  0  0  0
 83159  1  0  0  0
 83160  1  0  0  0
 83161  1  0  0  0
 84 85  1  0  0  0
 84162  1  0  0  0
 84163  1  0  0  0
 86164  1  0  0  0
M  ISO  4   1 100  68 101  81 101  86 100
M  END
> <chiral flag>
0

> <version>
0

> <s_m_source_file>
/data/baiqing/PycharmProjects/Reinvent-master-3.2/result/LINK_invent/BTK/process_docking_weight1_custom_product_contain_oxygen_bond_distance_aromatic_linkinvent_7_9_3/rearranged_h_0042.sdf

> <i_m_source_file_index>
25

> <r_mmod_Potential_Energy-OPLS-2005>
151.832641601562

> <r_mmod_Stretch_Energy-OPLS-2005>
90.8957901000977

> <r_mmod_Bend_Energy-OPLS-2005>
164.626556396484

> <r_mmod_Torsional_Energy-OPLS-2005>
268.000061035156

> <r_mmod_Improper_Torsional_Energy-OPLS-2005>
5.95022201538086

> <r_mmod_Van_der_Waal_Energy-OPLS-2005>
158.429351806641

> <r_mmod_Electrostatic_Energy-OPLS-2005>
-357.691772460938

> <r_mmod_Solvation_Energy-OPLS-2005>
-228.165954589844

> <b_mmod_Minimization_Converged-OPLS-2005>
0

> <r_mmod_RMS_Derivative-OPLS-2005>
1.87905216217041

$$$$
25
                    3D
 Structure written by MMmdl.
156164  0  0  1  0            999 V2000
  -30.6318  -14.7301   20.4438 C   0  0  0  0  0  0
  -30.4209  -12.4429   19.4695 C   0  0  0  0  0  0
  -29.5012  -12.5010   18.2314 C   0  0  0  0  0  0
  -28.0277  -12.3324   18.6463 C   0  0  0  0  0  0
  -27.6365  -13.2353   19.8459 C   0  0  2  0  0  0
  -28.6825  -13.1815   20.9810 C   0  0  0  0  0  0
  -25.2458  -13.8187   20.5681 C   0  0  0  0  0  0
  -24.1773  -13.0431   20.9208 C   0  0  0  0  0  0
  -24.6371  -11.6911   20.8743 C   0  0  0  0  0  0
  -23.9051  -10.4286   21.0388 C   0  0  0  0  0  0
  -24.3604   -9.4206   21.9170 C   0  0  0  0  0  0
  -23.6283   -8.2242   22.0749 C   0  0  0  0  0  0
  -22.4272   -8.0266   21.3539 C   0  0  0  0  0  0
  -21.9899   -9.0233   20.4637 C   0  0  0  0  0  0
  -22.7217  -10.2112   20.3044 C   0  0  0  0  0  0
  -21.6861   -6.0713   22.5264 C   0  0  0  0  0  0
  -21.4015   -6.5620   23.8193 C   0  0  0  0  0  0
  -21.3666   -5.6777   24.9155 C   0  0  0  0  0  0
  -21.6053   -4.3043   24.7212 C   0  0  0  0  0  0
  -21.8825   -3.8130   23.4337 C   0  0  0  0  0  0
  -21.9192   -4.6939   22.3390 C   0  0  0  0  0  0
  -22.7790  -13.5193   21.1881 C   0  0  0  0  0  0
  -22.1664   -4.2130   21.0966 F   0  0  0  0  0  0
  -21.5634   -3.4530   25.7728 F   0  0  0  0  0  0
  -29.9865  -13.5146   20.3950 N   0  0  0  0  0  0
  -26.2909  -12.9416   20.3266 N   0  0  0  0  0  0
  -25.9303  -11.6559   20.5748 N   0  0  0  0  0  0
  -22.0458  -12.8177   22.0429 N   0  0  0  0  0  0
  -25.4090  -15.1913   20.4054 N   0  0  0  0  0  0
  -31.8324  -14.7717   20.1651 O   0  0  0  0  0  0
  -21.6643   -6.8855   21.4231 O   0  0  0  0  0  0
  -22.3483  -14.5517   20.6742 O   0  0  0  0  0  0
  -24.6269  -31.8555   23.1954 C   0  0  0  0  0  0
  -25.9112  -32.4736   23.8275 C   0  0  1  0  0  0
  -27.2155  -27.2840   20.1169 C   0  0  0  0  0  0
  -25.5925  -33.8547   24.2205 N   0  0  0  0  0  0
  -23.4195  -30.4773   21.5392 C   0  0  2  0  0  0
  -24.8640  -28.9264   20.1025 C   0  0  0  0  0  0
  -22.7487  -29.4567   22.4906 C   0  0  0  0  0  0
  -18.0274  -28.1410   22.8461 C   0  0  0  0  0  0
  -24.1505  -36.7294   23.2643 C   0  0  0  0  0  0
  -25.9598  -30.7777   21.3653 C   0  0  0  0  0  0
  -26.0321  -29.4005   20.7099 C   0  0  0  0  0  0
  -27.2068  -28.5894   20.7097 C   0  0  0  0  0  0
  -26.0209  -26.8637   19.4891 C   0  0  0  0  0  0
  -24.8612  -27.6660   19.4837 C   0  0  0  0  0  0
  -23.6361  -29.8157   20.1520 C   0  0  0  0  0  0
  -25.4126  -36.3047   24.0323 C   0  0  1  0  0  0
  -20.5876  -28.3681   23.1319 C   0  0  2  0  0  0
  -20.6764  -26.9415   22.5429 C   0  0  0  0  0  0
  -19.5744  -26.6401   21.5221 C   0  0  0  0  0  0
  -18.1911  -26.7953   22.1613 C   0  0  0  0  0  0
  -19.1531  -28.8862   23.2873 C   0  0  0  0  0  0
  -18.9463  -30.1465   23.8891 C   0  0  0  0  0  0
  -17.6467  -30.6598   24.0580 C   0  0  0  0  0  0
  -25.9068  -34.9435   23.5064 C   0  0  0  0  0  0
  -16.5352  -29.9106   23.6347 C   0  0  0  0  0  0
  -16.7270  -28.6543   23.0323 C   0  0  0  0  0  0
  -26.4503  -31.6557   25.0654 C   0  0  0  0  0  0
  -25.3752  -31.3721   26.1392 C   0  0  0  0  0  0
  -27.0337  -30.2987   24.6085 C   0  0  0  0  0  0
  -27.6058  -32.4298   25.7425 C   0  0  0  0  0  0
  -27.5580  -37.1789   24.8461 C   0  0  0  0  0  0
  -21.4196  -29.3016   22.3701 N   0  0  0  0  0  0
  -26.4287  -37.3755   23.9422 N   0  0  0  0  0  0
  -24.6875  -31.0548   22.0908 N   0  0  0  0  0  0
  -23.4219  -28.8108   23.2974 O   0  0  0  0  0  0
  -28.3500  -26.4544   20.1969 O   0  0  0  0  0  0
  -26.5645  -34.8904   22.4633 O   0  0  0  0  0  0
  -23.5442  -32.1375   23.7293 O   0  0  0  0  0  0
  -31.7858  -19.0662   19.6531 C   0  0  0  0  0  0
  -30.8941  -20.1064   19.9556 C   0  0  0  0  0  0
  -31.4433  -17.7197   19.8701 C   0  0  0  0  0  0
  -29.6042  -19.8455   20.4584 C   0  0  0  0  0  0
  -29.2550  -18.4337   20.6634 C   0  0  0  0  0  0
  -30.1838  -17.3343   20.3941 C   0  0  0  0  0  0
  -27.8695  -18.0761   21.1885 C   0  0  0  0  0  0
  -28.7165  -21.1269   20.8191 C   0  0  0  0  0  0
  -28.2828  -23.7522   20.5652 C   0  0  0  0  0  0
  -28.4387  -25.0674   19.6451 C   0  0  0  0  0  0
  -29.8718  -15.8861   20.6080 N   0  0  0  0  0  0
  -28.9595  -22.4528   20.0819 N   0  3  0  0  0  0
  -31.4615  -12.5517   19.1626 H   0  0  0  0  0  0
  -30.3549  -11.4694   19.9567 H   0  0  0  0  0  0
  -29.7782  -11.7244   17.5170 H   0  0  0  0  0  0
  -29.6320  -13.4542   17.7169 H   0  0  0  0  0  0
  -27.8795  -11.2843   18.9080 H   0  0  0  0  0  0
  -27.3728  -12.5281   17.7970 H   0  0  0  0  0  0
  -27.6262  -14.2543   19.4606 H   0  0  0  0  0  0
  -28.7107  -12.1935   21.4426 H   0  0  0  0  0  0
  -28.4220  -13.8836   21.7740 H   0  0  0  0  0  0
  -25.2750   -9.5692   22.4740 H   0  0  0  0  0  0
  -23.9991   -7.4644   22.7480 H   0  0  0  0  0  0
  -21.0832   -8.8742   19.8951 H   0  0  0  0  0  0
  -22.3670  -10.9644   19.6153 H   0  0  0  0  0  0
  -21.2012   -7.6129   23.9687 H   0  0  0  0  0  0
  -21.1492   -6.0508   25.9053 H   0  0  0  0  0  0
  -22.0604   -2.7595   23.2837 H   0  0  0  0  0  0
  -22.4089  -11.9815   22.4778 H   0  0  0  0  0  0
  -21.1084  -13.1196   22.2678 H   0  0  0  0  0  0
  -24.6267  -15.8299   20.4974 H   0  0  0  0  0  0
  -26.2266  -15.6263   20.0006 H   0  0  0  0  0  0
  -26.7159  -32.5392   23.1000 H   0  0  0  0  0  0
  -25.0043  -33.9666   25.0325 H   0  0  0  0  0  0
  -22.7091  -31.2948   21.3958 H   0  0  0  0  0  0
  -23.3744  -35.9646   23.3279 H   0  0  0  0  0  0
  -24.3582  -36.8972   22.2057 H   0  0  0  0  0  0
  -23.7287  -37.6498   23.6703 H   0  0  0  0  0  0
  -26.0867  -31.5381   20.5930 H   0  0  0  0  0  0
  -26.8408  -30.8294   21.9931 H   0  0  0  0  0  0
  -28.1015  -28.9476   21.1984 H   0  0  0  0  0  0
  -25.9353  -25.8969   19.0171 H   0  0  0  0  0  0
  -23.9637  -27.2983   19.0056 H   0  0  0  0  0  0
  -23.7653  -30.5959   19.4015 H   0  0  0  0  0  0
  -22.7503  -29.2610   19.8384 H   0  0  0  0  0  0
  -25.1306  -36.1863   25.0817 H   0  0  0  0  0  0
  -20.9939  -28.3247   24.1455 H   0  0  0  0  0  0
  -20.5699  -26.2280   23.3611 H   0  0  0  0  0  0
  -21.6626  -26.7464   22.1205 H   0  0  0  0  0  0
  -19.6926  -25.6319   21.1233 H   0  0  0  0  0  0
  -19.6719  -27.3224   20.6763 H   0  0  0  0  0  0
  -17.4203  -26.6724   21.3987 H   0  0  0  0  0  0
  -18.0278  -26.0099   22.9009 H   0  0  0  0  0  0
  -19.7942  -30.7271   24.2262 H   0  0  0  0  0  0
  -17.5025  -31.6266   24.5188 H   0  0  0  0  0  0
  -15.5354  -30.3002   23.7680 H   0  0  0  0  0  0
  -15.8669  -28.0881   22.7007 H   0  0  0  0  0  0
  -24.5951  -30.7018   25.7755 H   0  0  0  0  0  0
  -24.8899  -32.2900   26.4736 H   0  0  0  0  0  0
  -25.8090  -30.8989   27.0210 H   0  0  0  0  0  0
  -26.2874  -29.6712   24.1191 H   0  0  0  0  0  0
  -27.4154  -29.7256   25.4541 H   0  0  0  0  0  0
  -27.8699  -30.4274   23.9206 H   0  0  0  0  0  0
  -27.2673  -33.3629   26.1928 H   0  0  0  0  0  0
  -28.3906  -32.6799   25.0277 H   0  0  0  0  0  0
  -28.0668  -31.8465   26.5405 H   0  0  0  0  0  0
  -28.2572  -38.0095   24.7469 H   0  0  0  0  0  0
  -28.1091  -36.2619   24.6312 H   0  0  0  0  0  0
  -27.2295  -37.1471   25.8861 H   0  0  0  0  0  0
  -20.9369  -29.8794   21.6968 H   0  0  0  0  0  0
  -26.0155  -38.2836   24.1412 H   0  0  0  0  0  0
  -32.7608  -19.3090   19.2534 H   0  0  0  0  0  0
  -31.2336  -21.1201   19.7978 H   0  0  0  0  0  0
  -32.1984  -16.9979   19.6066 H   0  0  0  0  0  0
  -27.8608  -18.0262   22.2773 H   0  0  0  0  0  0
  -27.5436  -17.1108   20.8056 H   0  0  0  0  0  0
  -27.1096  -18.7876   20.8723 H   0  0  0  0  0  0
  -28.8654  -21.3162   21.8830 H   0  0  0  0  0  0
  -27.6604  -20.8890   20.7071 H   0  0  0  0  0  0
  -27.2182  -23.5596   20.6957 H   0  0  0  0  0  0
  -28.6733  -23.9817   21.5572 H   0  0  0  0  0  0
  -27.8164  -24.9641   18.7587 H   0  0  0  0  0  0
  -29.4511  -25.0307   19.2427 H   0  0  0  0  0  0
  -28.9102  -15.6948   20.8397 H   0  0  0  0  0  0
  -28.7105  -22.2971   19.1184 H   0  0  0  0  0  0
  -29.9531  -22.6170   20.1011 H   0  0  0  0  0  0
  1 25  1  0  0  0
  1 30  2  0  0  0
  1 81  1  0  0  0
  2  3  1  0  0  0
  2 25  1  0  0  0
  2 83  1  0  0  0
  2 84  1  0  0  0
  3  4  1  0  0  0
  3 85  1  0  0  0
  3 86  1  0  0  0
  4  5  1  0  0  0
  4 87  1  0  0  0
  4 88  1  0  0  0
  5  6  1  0  0  0
  5 26  1  0  0  0
  5 89  1  0  0  0
  6 25  1  0  0  0
  6 90  1  0  0  0
  6 91  1  0  0  0
  7  8  2  0  0  0
  7 26  1  0  0  0
  7 29  1  0  0  0
  8  9  1  0  0  0
  8 22  1  0  0  0
  9 10  1  0  0  0
  9 27  2  0  0  0
 10 11  2  0  0  0
 10 15  1  0  0  0
 11 12  1  0  0  0
 11 92  1  0  0  0
 12 13  2  0  0  0
 12 93  1  0  0  0
 13 14  1  0  0  0
 13 31  1  0  0  0
 14 15  2  0  0  0
 14 94  1  0  0  0
 15 95  1  0  0  0
 16 17  2  0  0  0
 16 21  1  0  0  0
 16 31  1  0  0  0
 17 18  1  0  0  0
 17 96  1  0  0  0
 18 19  2  0  0  0
 18 97  1  0  0  0
 19 20  1  0  0  0
 19 24  1  0  0  0
 20 21  2  0  0  0
 20 98  1  0  0  0
 21 23  1  0  0  0
 22 28  1  0  0  0
 22 32  2  0  0  0
 26 27  1  0  0  0
 28 99  1  0  0  0
 28100  1  0  0  0
 29101  1  0  0  0
 29102  1  0  0  0
 33 34  1  0  0  0
 33 66  1  0  0  0
 33 70  2  0  0  0
 34 36  1  0  0  0
 34 59  1  0  0  0
 34103  1  0  0  0
 35 44  2  0  0  0
 35 45  1  0  0  0
 35 68  1  0  0  0
 36 56  1  0  0  0
 36104  1  0  0  0
 37 39  1  0  0  0
 37 47  1  0  0  0
 37 66  1  0  0  0
 37105  1  0  0  0
 38 43  2  0  0  0
 38 46  1  0  0  0
 38 47  1  0  0  0
 39 64  1  0  0  0
 39 67  2  0  0  0
 40 52  1  0  0  0
 40 53  2  0  0  0
 40 58  1  0  0  0
 41106  1  0  0  0
 41107  1  0  0  0
 41108  1  0  0  0
 41 48  1  0  0  0
 42 43  1  0  0  0
 42 66  1  0  0  0
 42109  1  0  0  0
 42110  1  0  0  0
 43 44  1  0  0  0
 44111  1  0  0  0
 45 46  2  0  0  0
 45112  1  0  0  0
 46113  1  0  0  0
 47114  1  0  0  0
 47115  1  0  0  0
 48 56  1  0  0  0
 48 65  1  0  0  0
 48116  1  0  0  0
 49 50  1  0  0  0
 49 53  1  0  0  0
 49 64  1  0  0  0
 49117  1  0  0  0
 50 51  1  0  0  0
 50118  1  0  0  0
 50119  1  0  0  0
 51 52  1  0  0  0
 51120  1  0  0  0
 51121  1  0  0  0
 52122  1  0  0  0
 52123  1  0  0  0
 53 54  1  0  0  0
 54 55  2  0  0  0
 54124  1  0  0  0
 55 57  1  0  0  0
 55125  1  0  0  0
 56 69  2  0  0  0
 57 58  2  0  0  0
 57126  1  0  0  0
 58127  1  0  0  0
 59 60  1  0  0  0
 59 61  1  0  0  0
 59 62  1  0  0  0
 60128  1  0  0  0
 60129  1  0  0  0
 60130  1  0  0  0
 61131  1  0  0  0
 61132  1  0  0  0
 61133  1  0  0  0
 62134  1  0  0  0
 62135  1  0  0  0
 62136  1  0  0  0
 63 65  1  0  0  0
 63137  1  0  0  0
 63138  1  0  0  0
 63139  1  0  0  0
 64140  1  0  0  0
 65141  1  0  0  0
 68 80  1  0  0  0
 71 72  2  0  0  0
 71 73  1  0  0  0
 71142  1  0  0  0
 72 74  1  0  0  0
 72143  1  0  0  0
 73 76  2  0  0  0
 73144  1  0  0  0
 74 75  2  0  0  0
 74 78  1  0  0  0
 75 76  1  0  0  0
 75 77  1  0  0  0
 76 81  1  0  0  0
 77145  1  0  0  0
 77146  1  0  0  0
 77147  1  0  0  0
 78 82  1  0  0  0
 78148  1  0  0  0
 78149  1  0  0  0
 79 80  1  0  0  0
 79 82  1  0  0  0
 79150  1  0  0  0
 79151  1  0  0  0
 80152  1  0  0  0
 80153  1  0  0  0
 81154  1  0  0  0
 82155  1  0  0  0
 82156  1  0  0  0
M  CHG  1  82   1
M  ISO  4   1 100  68 101  80 101  81 100
M  END
> <chiral flag>
0

> <version>
0

> <s_m_source_file>
/data/baiqing/PycharmProjects/Reinvent-master-3.2/result/LINK_invent/BTK/process_docking_weight1_custom_product_contain_oxygen_bond_distance_aromatic_linkinvent_7_9_3/rearranged_h_0042.sdf

> <i_m_source_file_index>
26

> <r_mmod_Potential_Energy-OPLS-2005>
-36.3876152038574

> <r_mmod_Stretch_Energy-OPLS-2005>
121.221626281738

> <r_mmod_Bend_Energy-OPLS-2005>
168.303405761719

> <r_mmod_Torsional_Energy-OPLS-2005>
206.218719482422

> <r_mmod_Improper_Torsional_Energy-OPLS-2005>
4.9335789680481

> <r_mmod_Van_der_Waal_Energy-OPLS-2005>
143.549163818359

> <r_mmod_Electrostatic_Energy-OPLS-2005>
-289.384826660156

> <r_mmod_Solvation_Energy-OPLS-2005>
-466.208770751953

> <b_mmod_Minimization_Converged-OPLS-2005>
0

> <r_mmod_RMS_Derivative-OPLS-2005>
2.6038863658905

$$$$
26
                    3D
 Structure written by MMmdl.
156164  0  0  1  0            999 V2000
  -30.7144  -14.4953   20.5408 C   0  0  0  0  0  0
  -30.4144  -12.3147   19.4325 C   0  0  0  0  0  0
  -29.4866  -12.4959   18.2129 C   0  0  0  0  0  0
  -28.0119  -12.3478   18.6319 C   0  0  0  0  0  0
  -27.6557  -13.2017   19.8773 C   0  0  2  0  0  0
  -28.7040  -13.0309   21.0007 C   0  0  0  0  0  0
  -25.2587  -13.8152   20.5722 C   0  0  0  0  0  0
  -24.1842  -13.0426   20.9218 C   0  0  0  0  0  0
  -24.6384  -11.6891   20.8763 C   0  0  0  0  0  0
  -23.9050  -10.4274   21.0406 C   0  0  0  0  0  0
  -24.3599   -9.4197   21.9186 C   0  0  0  0  0  0
  -23.6287   -8.2228   22.0762 C   0  0  0  0  0  0
  -22.4271   -8.0265   21.3546 C   0  0  0  0  0  0
  -21.9894   -9.0237   20.4653 C   0  0  0  0  0  0
  -22.7218  -10.2123   20.3060 C   0  0  0  0  0  0
  -21.6854   -6.0721   22.5274 C   0  0  0  0  0  0
  -21.4010   -6.5634   23.8203 C   0  0  0  0  0  0
  -21.3673   -5.6802   24.9176 C   0  0  0  0  0  0
  -21.6045   -4.3062   24.7237 C   0  0  0  0  0  0
  -21.8821   -3.8145   23.4363 C   0  0  0  0  0  0
  -21.9192   -4.6947   22.3410 C   0  0  0  0  0  0
  -22.7864  -13.5216   21.1867 C   0  0  0  0  0  0
  -22.1656   -4.2134   21.0988 F   0  0  0  0  0  0
  -21.5633   -3.4546   25.7752 F   0  0  0  0  0  0
  -30.0300  -13.3236   20.4338 N   0  0  0  0  0  0
  -26.3003  -12.9301   20.3426 N   0  0  0  0  0  0
  -25.9311  -11.6465   20.5828 N   0  0  0  0  0  0
  -22.0507  -12.8191   22.0416 N   0  0  0  0  0  0
  -25.4307  -15.1868   20.4092 N   0  0  0  0  0  0
  -31.8619  -14.6286   20.1082 O   0  0  0  0  0  0
  -21.6647   -6.8853   21.4231 O   0  0  0  0  0  0
  -22.3542  -14.5509   20.6722 O   0  0  0  0  0  0
  -24.6165  -31.8678   23.2128 C   0  0  0  0  0  0
  -25.9046  -32.4823   23.8418 C   0  0  1  0  0  0
  -27.2212  -27.4092   20.0932 C   0  0  0  0  0  0
  -25.5907  -33.8622   24.2348 N   0  0  0  0  0  0
  -23.4053  -30.4953   21.5543 C   0  0  2  0  0  0
  -24.8479  -28.9671   20.1107 C   0  0  0  0  0  0
  -22.7434  -29.4655   22.4981 C   0  0  0  0  0  0
  -18.0286  -28.1368   22.8511 C   0  0  0  0  0  0
  -24.1490  -36.7321   23.2637 C   0  0  0  0  0  0
  -25.9370  -30.8256   21.3723 C   0  0  0  0  0  0
  -26.0102  -29.4600   20.7155 C   0  0  0  0  0  0
  -27.1976  -28.6874   20.7069 C   0  0  0  0  0  0
  -26.0412  -26.9562   19.4532 C   0  0  0  0  0  0
  -24.8601  -27.7168   19.4760 C   0  0  0  0  0  0
  -23.6147  -29.8394   20.1643 C   0  0  0  0  0  0
  -25.4112  -36.3121   24.0340 C   0  0  1  0  0  0
  -20.5894  -28.3637   23.1320 C   0  0  2  0  0  0
  -20.6794  -26.9398   22.5330 C   0  0  0  0  0  0
  -19.5717  -26.6397   21.5183 C   0  0  0  0  0  0
  -18.1926  -26.7917   22.1648 C   0  0  0  0  0  0
  -19.1545  -28.8800   23.2957 C   0  0  0  0  0  0
  -18.9475  -30.1366   23.9049 C   0  0  0  0  0  0
  -17.6474  -30.6502   24.0742 C   0  0  0  0  0  0
  -25.9037  -34.9477   23.5141 C   0  0  0  0  0  0
  -16.5364  -29.9072   23.6388 C   0  0  0  0  0  0
  -16.7277  -28.6530   23.0330 C   0  0  0  0  0  0
  -26.4465  -31.6602   25.0744 C   0  0  0  0  0  0
  -25.3736  -31.3686   26.1494 C   0  0  0  0  0  0
  -27.0285  -30.3044   24.6119 C   0  0  0  0  0  0
  -27.6054  -32.4302   25.7498 C   0  0  0  0  0  0
  -27.5583  -37.1824   24.8463 C   0  0  0  0  0  0
  -21.4162  -29.3038   22.3740 N   0  0  0  0  0  0
  -26.4298  -37.3804   23.9402 N   0  0  0  0  0  0
  -24.6722  -31.0754   22.1053 N   0  0  0  0  0  0
  -23.4218  -28.8178   23.2998 O   0  0  0  0  0  0
  -28.3770  -26.6429   20.1504 O   0  0  0  0  0  0
  -26.5593  -34.8914   22.4698 O   0  0  0  0  0  0
  -23.5348  -32.1445   23.7507 O   0  0  0  0  0  0
  -27.9372  -20.2090   19.4882 C   0  0  0  0  0  0
  -27.8697  -18.9409   18.8820 C   0  0  0  0  0  0
  -29.6661  -19.3773   20.9831 C   0  0  0  0  0  0
  -28.8663  -20.4588   20.5188 C   0  0  0  0  0  0
  -29.5816  -18.0743   20.4098 C   0  0  0  0  0  0
  -28.7064  -17.8910   19.3044 C   0  0  0  0  0  0
  -30.5131  -16.9645   20.9517 C   0  0  0  0  0  0
  -28.9519  -21.8686   21.1353 C   0  0  0  0  0  0
  -29.2770  -24.3472   20.6413 C   0  0  0  0  0  0
  -28.2812  -25.2304   19.8455 C   0  0  0  0  0  0
  -30.0234  -15.5656   20.9876 N   0  0  0  0  0  0
  -29.3099  -22.9305   20.1530 N   0  3  0  0  0  0
  -28.6547  -16.4318   18.3823 Cl  0  0  0  0  0  0
  -31.4581  -12.3992   19.1273 H   0  0  0  0  0  0
  -30.3094  -11.3120   19.8505 H   0  0  0  0  0  0
  -29.7285  -11.7630   17.4428 H   0  0  0  0  0  0
  -29.6483  -13.4787   17.7666 H   0  0  0  0  0  0
  -27.8396  -11.2929   18.8489 H   0  0  0  0  0  0
  -27.3510  -12.5976   17.8016 H   0  0  0  0  0  0
  -27.6793  -14.2394   19.5599 H   0  0  0  0  0  0
  -28.6869  -12.0109   21.3889 H   0  0  0  0  0  0
  -28.4725  -13.6756   21.8494 H   0  0  0  0  0  0
  -25.2730   -9.5694   22.4773 H   0  0  0  0  0  0
  -24.0010   -7.4625   22.7484 H   0  0  0  0  0  0
  -21.0825   -8.8747   19.8958 H   0  0  0  0  0  0
  -22.3655  -10.9665   19.6188 H   0  0  0  0  0  0
  -21.1985   -7.6140   23.9689 H   0  0  0  0  0  0
  -21.1499   -6.0546   25.9078 H   0  0  0  0  0  0
  -22.0586   -2.7605   23.2879 H   0  0  0  0  0  0
  -22.4133  -11.9864   22.4820 H   0  0  0  0  0  0
  -21.1124  -13.1239   22.2603 H   0  0  0  0  0  0
  -24.6671  -15.8437   20.5226 H   0  0  0  0  0  0
  -26.2734  -15.6200   20.0542 H   0  0  0  0  0  0
  -26.7128  -32.5523   23.1187 H   0  0  0  0  0  0
  -25.0059  -33.9799   25.0497 H   0  0  0  0  0  0
  -22.6968  -31.3164   21.4219 H   0  0  0  0  0  0
  -23.3749  -35.9659   23.3314 H   0  0  0  0  0  0
  -24.3590  -36.8914   22.2050 H   0  0  0  0  0  0
  -23.7245  -37.6530   23.6637 H   0  0  0  0  0  0
  -26.0534  -31.5951   20.6081 H   0  0  0  0  0  0
  -26.8238  -30.8752   21.9930 H   0  0  0  0  0  0
  -28.0904  -29.0611   21.1896 H   0  0  0  0  0  0
  -25.9986  -26.0210   18.9149 H   0  0  0  0  0  0
  -23.9700  -27.3435   18.9884 H   0  0  0  0  0  0
  -23.7329  -30.6225   19.4146 H   0  0  0  0  0  0
  -22.7352  -29.2708   19.8552 H   0  0  0  0  0  0
  -25.1295  -36.2000   25.0836 H   0  0  0  0  0  0
  -21.0061  -28.3139   24.1414 H   0  0  0  0  0  0
  -20.5773  -26.2185   23.3459 H   0  0  0  0  0  0
  -21.6637  -26.7504   22.1023 H   0  0  0  0  0  0
  -19.6848  -25.6317   21.1179 H   0  0  0  0  0  0
  -19.6620  -27.3233   20.6732 H   0  0  0  0  0  0
  -17.4164  -26.6634   21.4093 H   0  0  0  0  0  0
  -18.0367  -26.0051   22.9057 H   0  0  0  0  0  0
  -19.7955  -30.7112   24.2503 H   0  0  0  0  0  0
  -17.5022  -31.6107   24.5515 H   0  0  0  0  0  0
  -15.5366  -30.2990   23.7730 H   0  0  0  0  0  0
  -15.8669  -28.0905   22.6960 H   0  0  0  0  0  0
  -24.5936  -30.7000   25.7832 H   0  0  0  0  0  0
  -24.8890  -32.2817   26.4954 H   0  0  0  0  0  0
  -25.8102  -30.8860   27.0251 H   0  0  0  0  0  0
  -26.2822  -29.6824   24.1157 H   0  0  0  0  0  0
  -27.4036  -29.7259   25.4577 H   0  0  0  0  0  0
  -27.8677  -30.4364   23.9285 H   0  0  0  0  0  0
  -27.2702  -33.3604   26.2099 H   0  0  0  0  0  0
  -28.3845  -32.6848   25.0301 H   0  0  0  0  0  0
  -28.0737  -31.8399   26.5387 H   0  0  0  0  0  0
  -28.2617  -38.0109   24.7506 H   0  0  0  0  0  0
  -28.1066  -36.2639   24.6304 H   0  0  0  0  0  0
  -27.2294  -37.1496   25.8865 H   0  0  0  0  0  0
  -20.9323  -29.8823   21.7009 H   0  0  0  0  0  0
  -26.0191  -38.2884   24.1397 H   0  0  0  0  0  0
  -27.2792  -20.9921   19.1383 H   0  0  0  0  0  0
  -27.1799  -18.7746   18.0657 H   0  0  0  0  0  0
  -30.3655  -19.5492   21.7907 H   0  0  0  0  0  0
  -30.8088  -17.2206   21.9701 H   0  0  0  0  0  0
  -31.4261  -17.0359   20.3595 H   0  0  0  0  0  0
  -29.6803  -21.8692   21.9474 H   0  0  0  0  0  0
  -27.9834  -22.1037   21.5794 H   0  0  0  0  0  0
  -29.0289  -24.3833   21.7034 H   0  0  0  0  0  0
  -30.2797  -24.7652   20.5503 H   0  0  0  0  0  0
  -28.4458  -25.1141   18.7736 H   0  0  0  0  0  0
  -27.2927  -24.8297   20.0698 H   0  0  0  0  0  0
  -29.0839  -15.4079   21.3151 H   0  0  0  0  0  0
  -30.2407  -22.7323   19.8214 H   0  0  0  0  0  0
  -28.6967  -22.8448   19.3595 H   0  0  0  0  0  0
  1 25  1  0  0  0
  1 30  2  0  0  0
  1 81  1  0  0  0
  2  3  1  0  0  0
  2 25  1  0  0  0
  2 84  1  0  0  0
  2 85  1  0  0  0
  3  4  1  0  0  0
  3 86  1  0  0  0
  3 87  1  0  0  0
  4  5  1  0  0  0
  4 88  1  0  0  0
  4 89  1  0  0  0
  5  6  1  0  0  0
  5 26  1  0  0  0
  5 90  1  0  0  0
  6 25  1  0  0  0
  6 91  1  0  0  0
  6 92  1  0  0  0
  7  8  2  0  0  0
  7 26  1  0  0  0
  7 29  1  0  0  0
  8  9  1  0  0  0
  8 22  1  0  0  0
  9 10  1  0  0  0
  9 27  2  0  0  0
 10 11  2  0  0  0
 10 15  1  0  0  0
 11 12  1  0  0  0
 11 93  1  0  0  0
 12 13  2  0  0  0
 12 94  1  0  0  0
 13 14  1  0  0  0
 13 31  1  0  0  0
 14 15  2  0  0  0
 14 95  1  0  0  0
 15 96  1  0  0  0
 16 17  2  0  0  0
 16 21  1  0  0  0
 16 31  1  0  0  0
 17 18  1  0  0  0
 17 97  1  0  0  0
 18 19  2  0  0  0
 18 98  1  0  0  0
 19 20  1  0  0  0
 19 24  1  0  0  0
 20 21  2  0  0  0
 20 99  1  0  0  0
 21 23  1  0  0  0
 22 28  1  0  0  0
 22 32  2  0  0  0
 26 27  1  0  0  0
 28100  1  0  0  0
 28101  1  0  0  0
 29102  1  0  0  0
 29103  1  0  0  0
 33 34  1  0  0  0
 33 66  1  0  0  0
 33 70  2  0  0  0
 34 36  1  0  0  0
 34 59  1  0  0  0
 34104  1  0  0  0
 35 44  2  0  0  0
 35 45  1  0  0  0
 35 68  1  0  0  0
 36 56  1  0  0  0
 36105  1  0  0  0
 37 39  1  0  0  0
 37 47  1  0  0  0
 37 66  1  0  0  0
 37106  1  0  0  0
 38 43  2  0  0  0
 38 46  1  0  0  0
 38 47  1  0  0  0
 39 64  1  0  0  0
 39 67  2  0  0  0
 40 52  1  0  0  0
 40 53  2  0  0  0
 40 58  1  0  0  0
 41107  1  0  0  0
 41108  1  0  0  0
 41109  1  0  0  0
 41 48  1  0  0  0
 42 43  1  0  0  0
 42 66  1  0  0  0
 42110  1  0  0  0
 42111  1  0  0  0
 43 44  1  0  0  0
 44112  1  0  0  0
 45 46  2  0  0  0
 45113  1  0  0  0
 46114  1  0  0  0
 47115  1  0  0  0
 47116  1  0  0  0
 48 56  1  0  0  0
 48 65  1  0  0  0
 48117  1  0  0  0
 49 50  1  0  0  0
 49 53  1  0  0  0
 49 64  1  0  0  0
 49118  1  0  0  0
 50 51  1  0  0  0
 50119  1  0  0  0
 50120  1  0  0  0
 51 52  1  0  0  0
 51121  1  0  0  0
 51122  1  0  0  0
 52123  1  0  0  0
 52124  1  0  0  0
 53 54  1  0  0  0
 54 55  2  0  0  0
 54125  1  0  0  0
 55 57  1  0  0  0
 55126  1  0  0  0
 56 69  2  0  0  0
 57 58  2  0  0  0
 57127  1  0  0  0
 58128  1  0  0  0
 59 60  1  0  0  0
 59 61  1  0  0  0
 59 62  1  0  0  0
 60129  1  0  0  0
 60130  1  0  0  0
 60131  1  0  0  0
 61132  1  0  0  0
 61133  1  0  0  0
 61134  1  0  0  0
 62135  1  0  0  0
 62136  1  0  0  0
 62137  1  0  0  0
 63 65  1  0  0  0
 63138  1  0  0  0
 63139  1  0  0  0
 63140  1  0  0  0
 64141  1  0  0  0
 65142  1  0  0  0
 68 80  1  0  0  0
 71 72  2  0  0  0
 71 74  1  0  0  0
 71143  1  0  0  0
 72 76  1  0  0  0
 72144  1  0  0  0
 73 74  2  0  0  0
 73 75  1  0  0  0
 73145  1  0  0  0
 74 78  1  0  0  0
 75 76  2  0  0  0
 75 77  1  0  0  0
 76 83  1  0  0  0
 77 81  1  0  0  0
 77146  1  0  0  0
 77147  1  0  0  0
 78 82  1  0  0  0
 78148  1  0  0  0
 78149  1  0  0  0
 79 80  1  0  0  0
 79 82  1  0  0  0
 79150  1  0  0  0
 79151  1  0  0  0
 80152  1  0  0  0
 80153  1  0  0  0
 81154  1  0  0  0
 82155  1  0  0  0
 82156  1  0  0  0
M  CHG  1  82   1
M  ISO  4   1 100  68 101  80 101  81 100
M  END
> <chiral flag>
0

> <version>
0

> <s_m_source_file>
/data/baiqing/PycharmProjects/Reinvent-master-3.2/result/LINK_invent/BTK/process_docking_weight1_custom_product_contain_oxygen_bond_distance_aromatic_linkinvent_7_9_3/rearranged_h_0042.sdf

> <i_m_source_file_index>
27

> <r_mmod_Potential_Energy-OPLS-2005>
-238.615158081055

> <r_mmod_Stretch_Energy-OPLS-2005>
43.5742454528809

> <r_mmod_Bend_Energy-OPLS-2005>
102.861663818359

> <r_mmod_Torsional_Energy-OPLS-2005>
198.792861938477

> <r_mmod_Improper_Torsional_Energy-OPLS-2005>
4.0440239906311

> <r_mmod_Van_der_Waal_Energy-OPLS-2005>
151.634979248047

> <r_mmod_Electrostatic_Energy-OPLS-2005>
-287.303833007812

> <r_mmod_Solvation_Energy-OPLS-2005>
-471.904663085938

> <b_mmod_Minimization_Converged-OPLS-2005>
0

> <r_mmod_RMS_Derivative-OPLS-2005>
2.37212061882019

$$$$
27
                    3D
 Structure written by MMmdl.
168177  0  0  1  0            999 V2000
  -30.6644  -14.6599   20.5074 C   0  0  0  0  0  0
  -30.4210  -12.4087   19.4672 C   0  0  0  0  0  0
  -29.5012  -12.5021   18.2324 C   0  0  0  0  0  0
  -28.0269  -12.3382   18.6464 C   0  0  0  0  0  0
  -27.6449  -13.2286   19.8590 C   0  0  2  0  0  0
  -28.6885  -13.1334   20.9941 C   0  0  0  0  0  0
  -25.2516  -13.8195   20.5697 C   0  0  0  0  0  0
  -24.1802  -13.0446   20.9202 C   0  0  0  0  0  0
  -24.6390  -11.6922   20.8754 C   0  0  0  0  0  0
  -23.9069  -10.4292   21.0408 C   0  0  0  0  0  0
  -24.3619   -9.4206   21.9184 C   0  0  0  0  0  0
  -23.6295   -8.2241   22.0754 C   0  0  0  0  0  0
  -22.4275   -8.0279   21.3546 C   0  0  0  0  0  0
  -21.9912   -9.0250   20.4643 C   0  0  0  0  0  0
  -22.7242  -10.2130   20.3055 C   0  0  0  0  0  0
  -21.6852   -6.0736   22.5278 C   0  0  0  0  0  0
  -21.4012   -6.5641   23.8210 C   0  0  0  0  0  0
  -21.3662   -5.6792   24.9171 C   0  0  0  0  0  0
  -21.6044   -4.3055   24.7218 C   0  0  0  0  0  0
  -21.8822   -3.8146   23.4340 C   0  0  0  0  0  0
  -21.9192   -4.6966   22.3398 C   0  0  0  0  0  0
  -22.7821  -13.5228   21.1860 C   0  0  0  0  0  0
  -22.1661   -4.2154   21.0975 F   0  0  0  0  0  0
  -21.5630   -3.4537   25.7731 F   0  0  0  0  0  0
  -29.9984  -13.4624   20.4170 N   0  0  0  0  0  0
  -26.2949  -12.9403   20.3325 N   0  0  0  0  0  0
  -25.9324  -11.6546   20.5779 N   0  0  0  0  0  0
  -22.0472  -12.8205   22.0413 N   0  0  0  0  0  0
  -25.4224  -15.1914   20.4090 N   0  0  0  0  0  0
  -31.8337  -14.7346   20.1223 O   0  0  0  0  0  0
  -21.6644   -6.8876   21.4237 O   0  0  0  0  0  0
  -22.3502  -14.5533   20.6715 O   0  0  0  0  0  0
  -24.6262  -31.8601   23.2050 C   0  0  0  0  0  0
  -25.9111  -32.4775   23.8368 C   0  0  1  0  0  0
  -27.2033  -27.2917   20.1323 C   0  0  0  0  0  0
  -25.5936  -33.8583   24.2286 N   0  0  0  0  0  0
  -23.4192  -30.4855   21.5490 C   0  0  2  0  0  0
  -24.8623  -28.9408   20.1152 C   0  0  0  0  0  0
  -22.7465  -29.4630   22.4960 C   0  0  0  0  0  0
  -18.0276  -28.1383   22.8487 C   0  0  0  0  0  0
  -24.1490  -36.7285   23.2639 C   0  0  0  0  0  0
  -25.9630  -30.7793   21.3846 C   0  0  0  0  0  0
  -26.0318  -29.4043   20.7314 C   0  0  0  0  0  0
  -27.2051  -28.5900   20.7350 C   0  0  0  0  0  0
  -26.0260  -26.9114   19.4543 C   0  0  0  0  0  0
  -24.8631  -27.7001   19.4650 C   0  0  0  0  0  0
  -23.6338  -29.8245   20.1636 C   0  0  0  0  0  0
  -25.4114  -36.3076   24.0328 C   0  0  1  0  0  0
  -20.5873  -28.3682   23.1290 C   0  0  2  0  0  0
  -20.6774  -26.9410   22.5411 C   0  0  0  0  0  0
  -19.5753  -26.6381   21.5215 C   0  0  0  0  0  0
  -18.1930  -26.7930   22.1621 C   0  0  0  0  0  0
  -19.1527  -28.8852   23.2882 C   0  0  0  0  0  0
  -18.9459  -30.1461   23.8890 C   0  0  0  0  0  0
  -17.6460  -30.6594   24.0564 C   0  0  0  0  0  0
  -25.9053  -34.9450   23.5098 C   0  0  0  0  0  0
  -16.5349  -29.9092   23.6339 C   0  0  0  0  0  0
  -16.7262  -28.6508   23.0356 C   0  0  0  0  0  0
  -26.4495  -31.6587   25.0737 C   0  0  0  0  0  0
  -25.3729  -31.3728   26.1459 C   0  0  0  0  0  0
  -27.0338  -30.3007   24.6196 C   0  0  0  0  0  0
  -27.6045  -32.4336   25.7506 C   0  0  0  0  0  0
  -27.5580  -37.1793   24.8462 C   0  0  0  0  0  0
  -21.4177  -29.3043   22.3696 N   0  0  0  0  0  0
  -26.4286  -37.3775   23.9418 N   0  0  0  0  0  0
  -24.6882  -31.0593   22.1021 N   0  0  0  0  0  0
  -23.4189  -28.8167   23.3033 O   0  0  0  0  0  0
  -28.3139  -26.4296   20.1390 O   0  0  0  0  0  0
  -26.5620  -34.8919   22.4665 O   0  0  0  0  0  0
  -23.5422  -32.1417   23.7362 O   0  0  0  0  0  0
  -29.5447  -18.3551   20.9435 C   0  0  0  0  0  0
  -31.7509  -17.4423   21.3420 C   0  0  0  0  0  0
  -29.9896  -19.7069   21.2411 C   0  0  0  0  0  0
  -31.3527  -19.8536   21.6492 C   0  0  0  0  0  0
  -30.4043  -17.1913   21.0058 C   0  0  0  0  0  0
  -32.2183  -18.7296   21.6512 C   0  0  0  0  0  0
  -27.3111  -22.4916   20.0940 C   0  0  0  0  0  0
  -24.9341  -19.6318   20.1298 C   0  0  0  0  0  0
  -26.1908  -21.7326   20.0394 C   0  0  0  0  0  0
  -26.1010  -20.2835   20.0093 C   0  0  0  0  0  0
  -27.2324  -24.0335   19.8500 C   0  0  0  0  0  0
  -29.5678  -24.2871   20.7500 C   0  0  0  0  0  0
  -29.7481  -22.9600   19.9258 C   0  0  0  0  0  0
  -28.1908  -25.0095   20.6066 C   0  0  1  0  0  0
  -28.9913  -20.9394   21.3549 C   0  0  0  0  0  0
  -31.9107  -21.1621   22.2195 C   0  0  0  0  0  0
  -29.9445  -15.7979   20.8211 N   0  0  0  0  0  0
  -28.7225  -21.8986   20.1885 N   0  3  1  0  0  0
  -33.8819  -18.8733   22.1098 Cl  0  0  0  0  0  0
  -31.8120  -21.0246   24.2057 Br  0  0  0  0  0  0
  -31.4647  -12.5088   19.1661 H   0  0  0  0  0  0
  -30.3424  -11.4252   19.9344 H   0  0  0  0  0  0
  -29.7713  -11.7395   17.5009 H   0  0  0  0  0  0
  -29.6412  -13.4643   17.7373 H   0  0  0  0  0  0
  -27.8722  -11.2879   18.8962 H   0  0  0  0  0  0
  -27.3699  -12.5479   17.8015 H   0  0  0  0  0  0
  -27.6497  -14.2562   19.4950 H   0  0  0  0  0  0
  -28.7043  -12.1296   21.4210 H   0  0  0  0  0  0
  -28.4340  -13.8072   21.8136 H   0  0  0  0  0  0
  -25.2764   -9.5685   22.4760 H   0  0  0  0  0  0
  -24.0010   -7.4628   22.7469 H   0  0  0  0  0  0
  -21.0851   -8.8760   19.8938 H   0  0  0  0  0  0
  -22.3699  -10.9668   19.6162 H   0  0  0  0  0  0
  -21.2005   -7.6148   23.9716 H   0  0  0  0  0  0
  -21.1482   -6.0518   25.9074 H   0  0  0  0  0  0
  -22.0600   -2.7609   23.2833 H   0  0  0  0  0  0
  -22.4100  -11.9863   22.4783 H   0  0  0  0  0  0
  -21.1090  -13.1217   22.2632 H   0  0  0  0  0  0
  -24.6519  -15.8431   20.5063 H   0  0  0  0  0  0
  -26.2659  -15.6245   20.0568 H   0  0  0  0  0  0
  -26.7165  -32.5431   23.1102 H   0  0  0  0  0  0
  -25.0101  -33.9743   25.0440 H   0  0  0  0  0  0
  -22.7124  -31.3066   21.4082 H   0  0  0  0  0  0
  -23.3759  -35.9609   23.3290 H   0  0  0  0  0  0
  -24.3580  -36.8922   22.2056 H   0  0  0  0  0  0
  -23.7238  -37.6483   23.6663 H   0  0  0  0  0  0
  -26.1002  -31.5388   20.6130 H   0  0  0  0  0  0
  -26.8425  -30.8252   22.0152 H   0  0  0  0  0  0
  -28.1012  -28.9414   21.2271 H   0  0  0  0  0  0
  -25.9846  -26.0048   18.8769 H   0  0  0  0  0  0
  -23.9777  -27.3535   18.9495 H   0  0  0  0  0  0
  -23.7565  -30.6025   19.4093 H   0  0  0  0  0  0
  -22.7522  -29.2579   19.8582 H   0  0  0  0  0  0
  -25.1296  -36.1919   25.0819 H   0  0  0  0  0  0
  -20.9945  -28.3241   24.1414 H   0  0  0  0  0  0
  -20.5696  -26.2284   23.3604 H   0  0  0  0  0  0
  -21.6643  -26.7465   22.1192 H   0  0  0  0  0  0
  -19.6925  -25.6293   21.1248 H   0  0  0  0  0  0
  -19.6697  -27.3188   20.6747 H   0  0  0  0  0  0
  -17.4203  -26.6670   21.4019 H   0  0  0  0  0  0
  -18.0329  -26.0073   22.9012 H   0  0  0  0  0  0
  -19.7943  -30.7279   24.2245 H   0  0  0  0  0  0
  -17.5023  -31.6277   24.5165 H   0  0  0  0  0  0
  -15.5355  -30.2998   23.7687 H   0  0  0  0  0  0
  -15.8651  -28.0839   22.7076 H   0  0  0  0  0  0
  -24.5909  -30.7065   25.7797 H   0  0  0  0  0  0
  -24.8919  -32.2898   26.4871 H   0  0  0  0  0  0
  -25.8057  -30.8924   27.0242 H   0  0  0  0  0  0
  -26.2912  -29.6763   24.1208 H   0  0  0  0  0  0
  -27.4023  -29.7248   25.4701 H   0  0  0  0  0  0
  -27.8790  -30.4298   23.9431 H   0  0  0  0  0  0
  -27.2634  -33.3641   26.2058 H   0  0  0  0  0  0
  -28.3858  -32.6893   25.0333 H   0  0  0  0  0  0
  -28.0697  -31.8484   26.5450 H   0  0  0  0  0  0
  -28.2572  -38.0115   24.7536 H   0  0  0  0  0  0
  -28.1103  -36.2647   24.6246 H   0  0  0  0  0  0
  -27.2304  -37.1390   25.8867 H   0  0  0  0  0  0
  -20.9345  -29.8757   21.6907 H   0  0  0  0  0  0
  -26.0163  -38.2844   24.1435 H   0  0  0  0  0  0
  -28.5009  -18.1958   20.7132 H   0  0  0  0  0  0
  -32.4625  -16.6369   21.4307 H   0  0  0  0  0  0
  -24.8940  -18.5522   20.0926 H   0  0  0  0  0  0
  -23.9998  -20.1586   20.2691 H   0  0  0  0  0  0
  -25.2571  -22.2639   19.9155 H   0  0  0  0  0  0
  -26.9864  -19.6846   19.8604 H   0  0  0  0  0  0
  -26.2104  -24.3146   20.1006 H   0  0  0  0  0  0
  -27.3418  -24.1850   18.7760 H   0  0  0  0  0  0
  -30.3608  -24.9820   20.4715 H   0  0  0  0  0  0
  -29.7391  -24.0701   21.8052 H   0  0  0  0  0  0
  -30.7546  -22.5600   20.0111 H   0  0  0  0  0  0
  -29.6694  -23.2180   18.8684 H   0  0  0  0  0  0
  -27.7936  -25.0916   21.6197 H   0  0  0  0  0  0
  -29.2498  -21.5398   22.2262 H   0  0  0  0  0  0
  -28.0507  -20.5004   21.6766 H   0  0  0  0  0  0
  -31.3858  -22.0666   21.9463 H   0  0  0  0  0  0
  -32.9501  -21.3302   21.9367 H   0  0  0  0  0  0
  -28.9566  -15.6419   20.9546 H   0  0  0  0  0  0
  -28.8178  -21.2880   19.3901 H   0  0  0  0  0  0
  1 25  1  0  0  0
  1 30  2  0  0  0
  1 87  1  0  0  0
  2  3  1  0  0  0
  2 25  1  0  0  0
  2 91  1  0  0  0
  2 92  1  0  0  0
  3  4  1  0  0  0
  3 93  1  0  0  0
  3 94  1  0  0  0
  4  5  1  0  0  0
  4 95  1  0  0  0
  4 96  1  0  0  0
  5  6  1  0  0  0
  5 26  1  0  0  0
  5 97  1  0  0  0
  6 25  1  0  0  0
  6 98  1  0  0  0
  6 99  1  0  0  0
  7  8  2  0  0  0
  7 26  1  0  0  0
  7 29  1  0  0  0
  8  9  1  0  0  0
  8 22  1  0  0  0
  9 10  1  0  0  0
  9 27  2  0  0  0
 10 11  2  0  0  0
 10 15  1  0  0  0
 11 12  1  0  0  0
 11100  1  0  0  0
 12 13  2  0  0  0
 12101  1  0  0  0
 13 14  1  0  0  0
 13 31  1  0  0  0
 14 15  2  0  0  0
 14102  1  0  0  0
 15103  1  0  0  0
 16 17  2  0  0  0
 16 21  1  0  0  0
 16 31  1  0  0  0
 17 18  1  0  0  0
 17104  1  0  0  0
 18 19  2  0  0  0
 18105  1  0  0  0
 19 20  1  0  0  0
 19 24  1  0  0  0
 20 21  2  0  0  0
 20106  1  0  0  0
 21 23  1  0  0  0
 22 28  1  0  0  0
 22 32  2  0  0  0
 26 27  1  0  0  0
 28107  1  0  0  0
 28108  1  0  0  0
 29109  1  0  0  0
 29110  1  0  0  0
 33 34  1  0  0  0
 33 66  1  0  0  0
 33 70  2  0  0  0
 34 36  1  0  0  0
 34 59  1  0  0  0
 34111  1  0  0  0
 35 44  2  0  0  0
 35 45  1  0  0  0
 35 68  1  0  0  0
 36 56  1  0  0  0
 36112  1  0  0  0
 37 39  1  0  0  0
 37 47  1  0  0  0
 37 66  1  0  0  0
 37113  1  0  0  0
 38 43  2  0  0  0
 38 46  1  0  0  0
 38 47  1  0  0  0
 39 64  1  0  0  0
 39 67  2  0  0  0
 40 52  1  0  0  0
 40 53  2  0  0  0
 40 58  1  0  0  0
 41114  1  0  0  0
 41115  1  0  0  0
 41116  1  0  0  0
 41 48  1  0  0  0
 42 43  1  0  0  0
 42 66  1  0  0  0
 42117  1  0  0  0
 42118  1  0  0  0
 43 44  1  0  0  0
 44119  1  0  0  0
 45 46  2  0  0  0
 45120  1  0  0  0
 46121  1  0  0  0
 47122  1  0  0  0
 47123  1  0  0  0
 48 56  1  0  0  0
 48 65  1  0  0  0
 48124  1  0  0  0
 49 50  1  0  0  0
 49 53  1  0  0  0
 49 64  1  0  0  0
 49125  1  0  0  0
 50 51  1  0  0  0
 50126  1  0  0  0
 50127  1  0  0  0
 51 52  1  0  0  0
 51128  1  0  0  0
 51129  1  0  0  0
 52130  1  0  0  0
 52131  1  0  0  0
 53 54  1  0  0  0
 54 55  2  0  0  0
 54132  1  0  0  0
 55 57  1  0  0  0
 55133  1  0  0  0
 56 69  2  0  0  0
 57 58  2  0  0  0
 57134  1  0  0  0
 58135  1  0  0  0
 59 60  1  0  0  0
 59 61  1  0  0  0
 59 62  1  0  0  0
 60136  1  0  0  0
 60137  1  0  0  0
 60138  1  0  0  0
 61139  1  0  0  0
 61140  1  0  0  0
 61141  1  0  0  0
 62142  1  0  0  0
 62143  1  0  0  0
 62144  1  0  0  0
 63 65  1  0  0  0
 63145  1  0  0  0
 63146  1  0  0  0
 63147  1  0  0  0
 64148  1  0  0  0
 65149  1  0  0  0
 68 84  1  0  0  0
 71 73  2  0  0  0
 71 75  1  0  0  0
 71150  1  0  0  0
 72 75  2  0  0  0
 72 76  1  0  0  0
 72151  1  0  0  0
 73 74  1  0  0  0
 73 85  1  0  0  0
 74 76  2  0  0  0
 74 86  1  0  0  0
 75 87  1  0  0  0
 76 89  1  0  0  0
 77 79  2  0  0  0
 77 81  1  0  0  0
 77 88  1  0  0  0
 78 80  2  0  0  0
 78152  1  0  0  0
 78153  1  0  0  0
 79 80  1  0  0  0
 79154  1  0  0  0
 80155  1  0  0  0
 81 84  1  0  0  0
 81156  1  0  0  0
 81157  1  0  0  0
 82 83  1  0  0  0
 82 84  1  0  0  0
 82158  1  0  0  0
 82159  1  0  0  0
 83 88  1  0  0  0
 83160  1  0  0  0
 83161  1  0  0  0
 84162  1  0  0  0
 85163  1  0  0  0
 85164  1  0  0  0
 85 88  1  0  0  0
 86 90  1  0  0  0
 86165  1  0  0  0
 86166  1  0  0  0
 87167  1  0  0  0
 88168  1  0  0  0
M  CHG  1  88   1
M  ISO  4   1 100  68 101  84 101  87 100
M  END
> <chiral flag>
0

> <version>
0

> <s_m_source_file>
/data/baiqing/PycharmProjects/Reinvent-master-3.2/result/LINK_invent/BTK/process_docking_weight1_custom_product_contain_oxygen_bond_distance_aromatic_linkinvent_7_9_3/rearranged_h_0042.sdf

> <i_m_source_file_index>
28

> <r_mmod_Potential_Energy-OPLS-2005>
53.236011505127

> <r_mmod_Stretch_Energy-OPLS-2005>
104.908432006836

> <r_mmod_Bend_Energy-OPLS-2005>
183.699951171875

> <r_mmod_Torsional_Energy-OPLS-2005>
259.782409667969

> <r_mmod_Improper_Torsional_Energy-OPLS-2005>
6.90236616134644

> <r_mmod_Van_der_Waal_Energy-OPLS-2005>
158.986373901367

> <r_mmod_Electrostatic_Energy-OPLS-2005>
-239.489013671875

> <r_mmod_Solvation_Energy-OPLS-2005>
-479.303100585938

> <b_mmod_Minimization_Converged-OPLS-2005>
0

> <r_mmod_RMS_Derivative-OPLS-2005>
1.27723717689514

$$$$
28
                    3D
 Structure written by MMmdl.
159167  0  0  1  0            999 V2000
  -30.6580  -14.5424   20.5344 C   0  0  0  0  0  0
  -30.4314  -12.3396   19.4341 C   0  0  0  0  0  0
  -29.5010  -12.5031   18.2133 C   0  0  0  0  0  0
  -28.0214  -12.3565   18.6240 C   0  0  0  0  0  0
  -27.6585  -13.2071   19.8705 C   0  0  2  0  0  0
  -28.7016  -13.0183   20.9952 C   0  0  0  0  0  0
  -25.2583  -13.8154   20.5683 C   0  0  0  0  0  0
  -24.1838  -13.0428   20.9183 C   0  0  0  0  0  0
  -24.6388  -11.6898   20.8739 C   0  0  0  0  0  0
  -23.9059  -10.4284   21.0398 C   0  0  0  0  0  0
  -24.3618   -9.4206   21.9178 C   0  0  0  0  0  0
  -23.6293   -8.2242   22.0754 C   0  0  0  0  0  0
  -22.4274   -8.0279   21.3548 C   0  0  0  0  0  0
  -21.9908   -9.0249   20.4651 C   0  0  0  0  0  0
  -22.7233  -10.2129   20.3053 C   0  0  0  0  0  0
  -21.6852   -6.0737   22.5279 C   0  0  0  0  0  0
  -21.4009   -6.5638   23.8214 C   0  0  0  0  0  0
  -21.3659   -5.6793   24.9181 C   0  0  0  0  0  0
  -21.6046   -4.3053   24.7226 C   0  0  0  0  0  0
  -21.8817   -3.8149   23.4345 C   0  0  0  0  0  0
  -21.9190   -4.6968   22.3403 C   0  0  0  0  0  0
  -22.7864  -13.5236   21.1844 C   0  0  0  0  0  0
  -22.1660   -4.2156   21.0984 F   0  0  0  0  0  0
  -21.5636   -3.4533   25.7735 F   0  0  0  0  0  0
  -30.0253  -13.3380   20.4371 N   0  0  0  0  0  0
  -26.3011  -12.9321   20.3345 N   0  0  0  0  0  0
  -25.9313  -11.6483   20.5756 N   0  0  0  0  0  0
  -22.0498  -12.8238   22.0405 N   0  0  0  0  0  0
  -25.4275  -15.1876   20.4090 N   0  0  0  0  0  0
  -31.8047  -14.7280   20.1182 O   0  0  0  0  0  0
  -21.6640   -6.8876   21.4240 O   0  0  0  0  0  0
  -22.3554  -14.5539   20.6687 O   0  0  0  0  0  0
  -24.6203  -31.8658   23.2084 C   0  0  0  0  0  0
  -25.9082  -32.4811   23.8388 C   0  0  1  0  0  0
  -27.2226  -27.3790   20.1002 C   0  0  0  0  0  0
  -25.5923  -33.8611   24.2316 N   0  0  0  0  0  0
  -23.4102  -30.4917   21.5514 C   0  0  2  0  0  0
  -24.8551  -28.9624   20.1078 C   0  0  0  0  0  0
  -22.7448  -29.4647   22.4973 C   0  0  0  0  0  0
  -18.0279  -28.1381   22.8497 C   0  0  0  0  0  0
  -24.1493  -36.7304   23.2636 C   0  0  0  0  0  0
  -25.9472  -30.8143   21.3731 C   0  0  0  0  0  0
  -26.0209  -29.4482   20.7130 C   0  0  0  0  0  0
  -27.2071  -28.6657   20.7055 C   0  0  0  0  0  0
  -26.0366  -26.9421   19.4603 C   0  0  0  0  0  0
  -24.8623  -27.7125   19.4737 C   0  0  0  0  0  0
  -23.6200  -29.8333   20.1634 C   0  0  0  0  0  0
  -25.4116  -36.3106   24.0334 C   0  0  1  0  0  0
  -20.5877  -28.3673   23.1308 C   0  0  2  0  0  0
  -20.6775  -26.9408   22.5410 C   0  0  0  0  0  0
  -19.5747  -26.6392   21.5217 C   0  0  0  0  0  0
  -18.1926  -26.7928   22.1628 C   0  0  0  0  0  0
  -19.1532  -28.8845   23.2898 C   0  0  0  0  0  0
  -18.9453  -30.1451   23.8908 C   0  0  0  0  0  0
  -17.6452  -30.6585   24.0564 C   0  0  0  0  0  0
  -25.9047  -34.9472   23.5121 C   0  0  0  0  0  0
  -16.5343  -29.9085   23.6326 C   0  0  0  0  0  0
  -16.7265  -28.6502   23.0351 C   0  0  0  0  0  0
  -26.4485  -31.6602   25.0729 C   0  0  0  0  0  0
  -25.3728  -31.3728   26.1461 C   0  0  0  0  0  0
  -27.0322  -30.3034   24.6146 C   0  0  0  0  0  0
  -27.6058  -32.4324   25.7486 C   0  0  0  0  0  0
  -27.5584  -37.1808   24.8466 C   0  0  0  0  0  0
  -21.4169  -29.3035   22.3715 N   0  0  0  0  0  0
  -26.4302  -37.3787   23.9404 N   0  0  0  0  0  0
  -24.6778  -31.0721   22.1015 N   0  0  0  0  0  0
  -23.4200  -28.8178   23.3025 O   0  0  0  0  0  0
  -28.3544  -26.5649   20.1604 O   0  0  0  0  0  0
  -26.5604  -34.8925   22.4679 O   0  0  0  0  0  0
  -23.5382  -32.1436   23.7444 O   0  0  0  0  0  0
  -28.1139  -19.9435   22.5050 C   0  0  0  0  0  0
  -27.6171  -19.2792   23.6386 C   0  0  0  0  0  0
  -28.8079  -17.2767   22.9683 C   0  0  0  0  0  0
  -28.9875  -19.3037   21.5874 C   0  0  0  0  0  0
  -29.3030  -17.9095   21.7992 C   0  0  0  0  0  0
  -27.9805  -17.9489   23.8815 C   0  0  0  0  0  0
  -30.1469  -17.0334   20.8381 C   0  0  0  0  0  0
  -29.5161  -20.1616   20.4096 C   0  0  0  0  0  0
  -29.2031  -24.1333   20.5000 C   0  0  0  0  0  0
  -28.8648  -22.6290   20.1738 C   0  0  0  0  0  0
  -28.1527  -25.1380   19.9252 C   0  0  0  0  0  0
  -29.8745  -15.5735   20.9266 N   0  0  0  0  0  0
  -29.8007  -21.6005   20.7403 N   0  3  0  0  0  0
  -27.4064  -17.1382   25.2914 Cl  0  0  0  0  0  0
  -31.4738  -12.4540   19.1318 H   0  0  0  0  0  0
  -30.3506  -11.3338   19.8502 H   0  0  0  0  0  0
  -29.7517  -11.7682   17.4471 H   0  0  0  0  0  0
  -29.6593  -13.4821   17.7576 H   0  0  0  0  0  0
  -27.8400  -11.3016   18.8319 H   0  0  0  0  0  0
  -27.3720  -12.6170   17.7876 H   0  0  0  0  0  0
  -27.6916  -14.2500   19.5562 H   0  0  0  0  0  0
  -28.6917  -11.9892   21.3566 H   0  0  0  0  0  0
  -28.4592  -13.6360   21.8618 H   0  0  0  0  0  0
  -25.2757   -9.5686   22.4760 H   0  0  0  0  0  0
  -24.0008   -7.4627   22.7466 H   0  0  0  0  0  0
  -21.0842   -8.8758   19.8944 H   0  0  0  0  0  0
  -22.3682  -10.9672   19.6171 H   0  0  0  0  0  0
  -21.1994   -7.6143   23.9719 H   0  0  0  0  0  0
  -21.1492   -6.0524   25.9086 H   0  0  0  0  0  0
  -22.0598   -2.7610   23.2844 H   0  0  0  0  0  0
  -22.4108  -11.9908   22.4819 H   0  0  0  0  0  0
  -21.1109  -13.1261   22.2573 H   0  0  0  0  0  0
  -24.6539  -15.8347   20.5179 H   0  0  0  0  0  0
  -26.2724  -15.6346   20.0770 H   0  0  0  0  0  0
  -26.7149  -32.5503   23.1144 H   0  0  0  0  0  0
  -25.0086  -33.9775   25.0470 H   0  0  0  0  0  0
  -22.7003  -31.3103   21.4152 H   0  0  0  0  0  0
  -23.3757  -35.9635   23.3310 H   0  0  0  0  0  0
  -24.3583  -36.8906   22.2048 H   0  0  0  0  0  0
  -23.7246  -37.6511   23.6643 H   0  0  0  0  0  0
  -26.0733  -31.5821   20.6082 H   0  0  0  0  0  0
  -26.8299  -30.8595   21.9997 H   0  0  0  0  0  0
  -28.1015  -29.0329   21.1899 H   0  0  0  0  0  0
  -25.9832  -25.9955   18.9436 H   0  0  0  0  0  0
  -23.9718  -27.3397   18.9867 H   0  0  0  0  0  0
  -23.7301  -30.6129   19.4089 H   0  0  0  0  0  0
  -22.7421  -29.2582   19.8637 H   0  0  0  0  0  0
  -25.1296  -36.1968   25.0826 H   0  0  0  0  0  0
  -20.9966  -28.3237   24.1431 H   0  0  0  0  0  0
  -20.5703  -26.2274   23.3599 H   0  0  0  0  0  0
  -21.6640  -26.7465   22.1184 H   0  0  0  0  0  0
  -19.6909  -25.6311   21.1232 H   0  0  0  0  0  0
  -19.6683  -27.3216   20.6762 H   0  0  0  0  0  0
  -17.4198  -26.6684   21.4026 H   0  0  0  0  0  0
  -18.0320  -26.0066   22.9022 H   0  0  0  0  0  0
  -19.7925  -30.7269   24.2282 H   0  0  0  0  0  0
  -17.5001  -31.6268   24.5163 H   0  0  0  0  0  0
  -15.5342  -30.2985   23.7649 H   0  0  0  0  0  0
  -15.8667  -28.0822   22.7060 H   0  0  0  0  0  0
  -24.5889  -30.7098   25.7780 H   0  0  0  0  0  0
  -24.8934  -32.2895   26.4906 H   0  0  0  0  0  0
  -25.8050  -30.8879   27.0224 H   0  0  0  0  0  0
  -26.2885  -29.6788   24.1181 H   0  0  0  0  0  0
  -27.4055  -29.7279   25.4629 H   0  0  0  0  0  0
  -27.8739  -30.4337   23.9338 H   0  0  0  0  0  0
  -27.2679  -33.3616   26.2089 H   0  0  0  0  0  0
  -28.3845  -32.6904   25.0295 H   0  0  0  0  0  0
  -28.0755  -31.8437   26.5377 H   0  0  0  0  0  0
  -28.2612  -38.0095   24.7509 H   0  0  0  0  0  0
  -28.1073  -36.2629   24.6304 H   0  0  0  0  0  0
  -27.2299  -37.1469   25.8868 H   0  0  0  0  0  0
  -20.9341  -29.8756   21.6931 H   0  0  0  0  0  0
  -26.0194  -38.2869   24.1391 H   0  0  0  0  0  0
  -27.8042  -20.9677   22.3622 H   0  0  0  0  0  0
  -26.9648  -19.7951   24.3291 H   0  0  0  0  0  0
  -29.0563  -16.2502   23.1946 H   0  0  0  0  0  0
  -31.2041  -17.2242   21.0287 H   0  0  0  0  0  0
  -29.9525  -17.3430   19.8103 H   0  0  0  0  0  0
  -28.8248  -20.0911   19.5688 H   0  0  0  0  0  0
  -30.4533  -19.7280   20.0632 H   0  0  0  0  0  0
  -30.1895  -24.3828   20.1093 H   0  0  0  0  0  0
  -29.2565  -24.2664   21.5809 H   0  0  0  0  0  0
  -28.8417  -22.5058   19.0903 H   0  0  0  0  0  0
  -27.8550  -22.4059   20.5206 H   0  0  0  0  0  0
  -27.1996  -24.8298   20.3583 H   0  0  0  0  0  0
  -28.0777  -24.9831   18.8478 H   0  0  0  0  0  0
  -28.9412  -15.3183   21.2088 H   0  0  0  0  0  0
  -30.7214  -21.7959   20.3823 H   0  0  0  0  0  0
  -29.8547  -21.6865   21.7416 H   0  0  0  0  0  0
  1 25  1  0  0  0
  1 30  2  0  0  0
  1 82  1  0  0  0
  2  3  1  0  0  0
  2 25  1  0  0  0
  2 85  1  0  0  0
  2 86  1  0  0  0
  3  4  1  0  0  0
  3 87  1  0  0  0
  3 88  1  0  0  0
  4  5  1  0  0  0
  4 89  1  0  0  0
  4 90  1  0  0  0
  5  6  1  0  0  0
  5 26  1  0  0  0
  5 91  1  0  0  0
  6 25  1  0  0  0
  6 92  1  0  0  0
  6 93  1  0  0  0
  7  8  2  0  0  0
  7 26  1  0  0  0
  7 29  1  0  0  0
  8  9  1  0  0  0
  8 22  1  0  0  0
  9 10  1  0  0  0
  9 27  2  0  0  0
 10 11  2  0  0  0
 10 15  1  0  0  0
 11 12  1  0  0  0
 11 94  1  0  0  0
 12 13  2  0  0  0
 12 95  1  0  0  0
 13 14  1  0  0  0
 13 31  1  0  0  0
 14 15  2  0  0  0
 14 96  1  0  0  0
 15 97  1  0  0  0
 16 17  2  0  0  0
 16 21  1  0  0  0
 16 31  1  0  0  0
 17 18  1  0  0  0
 17 98  1  0  0  0
 18 19  2  0  0  0
 18 99  1  0  0  0
 19 20  1  0  0  0
 19 24  1  0  0  0
 20 21  2  0  0  0
 20100  1  0  0  0
 21 23  1  0  0  0
 22 28  1  0  0  0
 22 32  2  0  0  0
 26 27  1  0  0  0
 28101  1  0  0  0
 28102  1  0  0  0
 29103  1  0  0  0
 29104  1  0  0  0
 33 34  1  0  0  0
 33 66  1  0  0  0
 33 70  2  0  0  0
 34 36  1  0  0  0
 34 59  1  0  0  0
 34105  1  0  0  0
 35 44  2  0  0  0
 35 45  1  0  0  0
 35 68  1  0  0  0
 36 56  1  0  0  0
 36106  1  0  0  0
 37 39  1  0  0  0
 37 47  1  0  0  0
 37 66  1  0  0  0
 37107  1  0  0  0
 38 43  2  0  0  0
 38 46  1  0  0  0
 38 47  1  0  0  0
 39 64  1  0  0  0
 39 67  2  0  0  0
 40 52  1  0  0  0
 40 53  2  0  0  0
 40 58  1  0  0  0
 41108  1  0  0  0
 41109  1  0  0  0
 41110  1  0  0  0
 41 48  1  0  0  0
 42 43  1  0  0  0
 42 66  1  0  0  0
 42111  1  0  0  0
 42112  1  0  0  0
 43 44  1  0  0  0
 44113  1  0  0  0
 45 46  2  0  0  0
 45114  1  0  0  0
 46115  1  0  0  0
 47116  1  0  0  0
 47117  1  0  0  0
 48 56  1  0  0  0
 48 65  1  0  0  0
 48118  1  0  0  0
 49 50  1  0  0  0
 49 53  1  0  0  0
 49 64  1  0  0  0
 49119  1  0  0  0
 50 51  1  0  0  0
 50120  1  0  0  0
 50121  1  0  0  0
 51 52  1  0  0  0
 51122  1  0  0  0
 51123  1  0  0  0
 52124  1  0  0  0
 52125  1  0  0  0
 53 54  1  0  0  0
 54 55  2  0  0  0
 54126  1  0  0  0
 55 57  1  0  0  0
 55127  1  0  0  0
 56 69  2  0  0  0
 57 58  2  0  0  0
 57128  1  0  0  0
 58129  1  0  0  0
 59 60  1  0  0  0
 59 61  1  0  0  0
 59 62  1  0  0  0
 60130  1  0  0  0
 60131  1  0  0  0
 60132  1  0  0  0
 61133  1  0  0  0
 61134  1  0  0  0
 61135  1  0  0  0
 62136  1  0  0  0
 62137  1  0  0  0
 62138  1  0  0  0
 63 65  1  0  0  0
 63139  1  0  0  0
 63140  1  0  0  0
 63141  1  0  0  0
 64142  1  0  0  0
 65143  1  0  0  0
 68 81  1  0  0  0
 71 72  2  0  0  0
 71 74  1  0  0  0
 71144  1  0  0  0
 72 76  1  0  0  0
 72145  1  0  0  0
 73 75  1  0  0  0
 73 76  2  0  0  0
 73146  1  0  0  0
 74 75  2  0  0  0
 74 78  1  0  0  0
 75 77  1  0  0  0
 76 84  1  0  0  0
 77 82  1  0  0  0
 77147  1  0  0  0
 77148  1  0  0  0
 78 83  1  0  0  0
 78149  1  0  0  0
 78150  1  0  0  0
 79 80  1  0  0  0
 79 81  1  0  0  0
 79151  1  0  0  0
 79152  1  0  0  0
 80 83  1  0  0  0
 80153  1  0  0  0
 80154  1  0  0  0
 81155  1  0  0  0
 81156  1  0  0  0
 82157  1  0  0  0
 83158  1  0  0  0
 83159  1  0  0  0
M  CHG  1  83   1
M  ISO  4   1 100  68 101  81 101  82 100
M  END
> <chiral flag>
0

> <version>
0

> <s_m_source_file>
/data/baiqing/PycharmProjects/Reinvent-master-3.2/result/LINK_invent/BTK/process_docking_weight1_custom_product_contain_oxygen_bond_distance_aromatic_linkinvent_7_9_3/rearranged_h_0042.sdf

> <i_m_source_file_index>
29

> <r_mmod_Potential_Energy-OPLS-2005>
-270.684234619141

> <r_mmod_Stretch_Energy-OPLS-2005>
55.5915145874023

> <r_mmod_Bend_Energy-OPLS-2005>
109.23885345459

> <r_mmod_Torsional_Energy-OPLS-2005>
201.217224121094

> <r_mmod_Improper_Torsional_Energy-OPLS-2005>
4.72819709777832

> <r_mmod_Van_der_Waal_Energy-OPLS-2005>
152.865997314453

> <r_mmod_Electrostatic_Energy-OPLS-2005>
-325.774597167969

> <r_mmod_Solvation_Energy-OPLS-2005>
-494.911254882812

> <b_mmod_Minimization_Converged-OPLS-2005>
0

> <r_mmod_RMS_Derivative-OPLS-2005>
1.23363125324249

$$$$
29
                    3D
 Structure written by MMmdl.
159167  0  0  1  0            999 V2000
  -30.6266  -14.5602   20.5416 C   0  0  0  0  0  0
  -30.4204  -12.3416   19.4635 C   0  0  0  0  0  0
  -29.5046  -12.5063   18.2313 C   0  0  0  0  0  0
  -28.0208  -12.3482   18.6282 C   0  0  0  0  0  0
  -27.6460  -13.2067   19.8662 C   0  0  2  0  0  0
  -28.6786  -13.0282   21.0024 C   0  0  0  0  0  0
  -25.2499  -13.8105   20.5711 C   0  0  0  0  0  0
  -24.1772  -13.0387   20.9201 C   0  0  0  0  0  0
  -24.6331  -11.6849   20.8759 C   0  0  0  0  0  0
  -23.9024  -10.4230   21.0407 C   0  0  0  0  0  0
  -24.3578   -9.4132   21.9168 C   0  0  0  0  0  0
  -23.6256   -8.2174   22.0730 C   0  0  0  0  0  0
  -22.4236   -8.0231   21.3542 C   0  0  0  0  0  0
  -21.9888   -9.0200   20.4623 C   0  0  0  0  0  0
  -22.7206  -10.2074   20.3037 C   0  0  0  0  0  0
  -21.6823   -6.0695   22.5291 C   0  0  0  0  0  0
  -21.3980   -6.5603   23.8226 C   0  0  0  0  0  0
  -21.3685   -5.6764   24.9189 C   0  0  0  0  0  0
  -21.6076   -4.3034   24.7239 C   0  0  0  0  0  0
  -21.8808   -3.8114   23.4362 C   0  0  0  0  0  0
  -21.9158   -4.6922   22.3407 C   0  0  0  0  0  0
  -22.7797  -13.5171   21.1887 C   0  0  0  0  0  0
  -22.1630   -4.2108   21.0988 F   0  0  0  0  0  0
  -21.5664   -3.4530   25.7761 F   0  0  0  0  0  0
  -30.0053  -13.3492   20.4552 N   0  0  0  0  0  0
  -26.2921  -12.9293   20.3316 N   0  0  0  0  0  0
  -25.9257  -11.6440   20.5766 N   0  0  0  0  0  0
  -22.0447  -12.8178   22.0447 N   0  0  0  0  0  0
  -25.4265  -15.1834   20.4178 N   0  0  0  0  0  0
  -31.7739  -14.7372   20.1195 O   0  0  0  0  0  0
  -21.6590   -6.8835   21.4257 O   0  0  0  0  0  0
  -22.3498  -14.5503   20.6767 O   0  0  0  0  0  0
  -24.6196  -31.8612   23.2059 C   0  0  0  0  0  0
  -25.9068  -32.4786   23.8360 C   0  0  1  0  0  0
  -27.2335  -27.3853   20.1012 C   0  0  0  0  0  0
  -25.5936  -33.8595   24.2321 N   0  0  0  0  0  0
  -23.4091  -30.4838   21.5485 C   0  0  2  0  0  0
  -24.8536  -28.9379   20.1145 C   0  0  0  0  0  0
  -22.7446  -29.4625   22.4963 C   0  0  0  0  0  0
  -18.0276  -28.1420   22.8537 C   0  0  0  0  0  0
  -24.1503  -36.7310   23.2630 C   0  0  0  0  0  0
  -25.9432  -30.8119   21.3656 C   0  0  0  0  0  0
  -26.0162  -29.4427   20.7095 C   0  0  0  0  0  0
  -27.2058  -28.6740   20.6976 C   0  0  0  0  0  0
  -26.0502  -26.9000   19.4958 C   0  0  0  0  0  0
  -24.8698  -27.6697   19.5038 C   0  0  0  0  0  0
  -23.6186  -29.8117   20.1635 C   0  0  0  0  0  0
  -25.4116  -36.3101   24.0334 C   0  0  1  0  0  0
  -20.5845  -28.3664   23.1367 C   0  0  2  0  0  0
  -20.6697  -26.9354   22.5547 C   0  0  0  0  0  0
  -19.5648  -26.6240   21.5398 C   0  0  0  0  0  0
  -18.1858  -26.7937   22.1769 C   0  0  0  0  0  0
  -19.1546  -28.8873   23.2897 C   0  0  0  0  0  0
  -18.9517  -30.1490   23.8880 C   0  0  0  0  0  0
  -17.6525  -30.6629   24.0596 C   0  0  0  0  0  0
  -25.9037  -34.9454   23.5107 C   0  0  0  0  0  0
  -16.5373  -29.9146   23.6405 C   0  0  0  0  0  0
  -16.7262  -28.6577   23.0422 C   0  0  0  0  0  0
  -26.4503  -31.6585   25.0713 C   0  0  0  0  0  0
  -25.3788  -31.3666   26.1470 C   0  0  0  0  0  0
  -27.0325  -30.3031   24.6101 C   0  0  0  0  0  0
  -27.6076  -32.4306   25.7495 C   0  0  0  0  0  0
  -27.5592  -37.1806   24.8466 C   0  0  0  0  0  0
  -21.4148  -29.3078   22.3820 N   0  0  0  0  0  0
  -26.4304  -37.3789   23.9412 N   0  0  0  0  0  0
  -24.6756  -31.0690   22.0987 N   0  0  0  0  0  0
  -23.4223  -28.8098   23.2939 O   0  0  0  0  0  0
  -28.4175  -26.6632   20.1428 O   0  0  0  0  0  0
  -26.5597  -34.8895   22.4673 O   0  0  0  0  0  0
  -23.5385  -32.1389   23.7417 O   0  0  0  0  0  0
  -27.4017  -18.6491   22.8374 C   0  0  0  0  0  0
  -28.3387  -17.7605   22.2958 C   0  0  0  0  0  0
  -27.1987  -19.9062   22.2530 C   0  0  0  0  0  0
  -29.1209  -18.1122   21.1783 C   0  0  0  0  0  0
  -27.9589  -20.3307   21.1385 C   0  0  0  0  0  0
  -28.9508  -19.4313   20.6132 C   0  0  0  0  0  0
  -29.8297  -19.9169   19.4659 C   0  0  0  0  0  0
  -30.1394  -17.0478   20.6615 C   0  0  0  0  0  0
  -27.5671  -21.6998   20.4992 C   0  0  0  0  0  0
  -27.8590  -24.2203   20.6658 C   0  0  0  0  0  0
  -28.5031  -25.2782   19.7152 C   0  0  0  0  0  0
  -29.8455  -15.6056   20.9172 N   0  0  0  0  0  0
  -28.5025  -22.8543   20.6582 N   0  3  0  0  0  0
  -31.4691  -12.4498   19.1793 H   0  0  0  0  0  0
  -30.3202  -11.3376   19.8835 H   0  0  0  0  0  0
  -29.7676  -11.7732   17.4676 H   0  0  0  0  0  0
  -29.6691  -13.4901   17.7914 H   0  0  0  0  0  0
  -27.8480  -11.2909   18.8416 H   0  0  0  0  0  0
  -27.3738  -12.5888   17.7838 H   0  0  0  0  0  0
  -27.6784  -14.2463   19.5385 H   0  0  0  0  0  0
  -28.6639  -12.0020   21.3716 H   0  0  0  0  0  0
  -28.4187  -13.6474   21.8634 H   0  0  0  0  0  0
  -25.2715   -9.5593   22.4752 H   0  0  0  0  0  0
  -23.9949   -7.4541   22.7410 H   0  0  0  0  0  0
  -21.0842   -8.8693   19.8911 H   0  0  0  0  0  0
  -22.3665  -10.9608   19.6148 H   0  0  0  0  0  0
  -21.1953   -7.6106   23.9733 H   0  0  0  0  0  0
  -21.1557   -6.0488   25.9103 H   0  0  0  0  0  0
  -22.0563   -2.7574   23.2888 H   0  0  0  0  0  0
  -22.4094  -11.9847   22.4816 H   0  0  0  0  0  0
  -21.1067  -13.1201   22.2667 H   0  0  0  0  0  0
  -24.6769  -15.8519   20.5494 H   0  0  0  0  0  0
  -26.3004  -15.6100   20.1393 H   0  0  0  0  0  0
  -26.7121  -32.5469   23.1083 H   0  0  0  0  0  0
  -25.0126  -33.9763   25.0497 H   0  0  0  0  0  0
  -22.6993  -31.3012   21.4073 H   0  0  0  0  0  0
  -23.3756  -35.9660   23.3295 H   0  0  0  0  0  0
  -24.3587  -36.8928   22.2045 H   0  0  0  0  0  0
  -23.7270  -37.6509   23.6655 H   0  0  0  0  0  0
  -26.0649  -31.5771   20.5949 H   0  0  0  0  0  0
  -26.8312  -30.8690   21.9860 H   0  0  0  0  0  0
  -28.1069  -29.0591   21.1582 H   0  0  0  0  0  0
  -26.0079  -25.9273   19.0201 H   0  0  0  0  0  0
  -23.9756  -27.2783   19.0418 H   0  0  0  0  0  0
  -23.7365  -30.5873   19.4080 H   0  0  0  0  0  0
  -22.7409  -29.2396   19.8573 H   0  0  0  0  0  0
  -25.1299  -36.1942   25.0834 H   0  0  0  0  0  0
  -20.9960  -28.3115   24.1472 H   0  0  0  0  0  0
  -20.5651  -26.2262   23.3787 H   0  0  0  0  0  0
  -21.6560  -26.7334   22.1331 H   0  0  0  0  0  0
  -19.6599  -27.2846   20.6782 H   0  0  0  0  0  0
  -19.6691  -25.6055   21.1684 H   0  0  0  0  0  0
  -17.4148  -26.6765   21.4150 H   0  0  0  0  0  0
  -18.0127  -26.0142   22.9191 H   0  0  0  0  0  0
  -19.7989  -30.7260   24.2324 H   0  0  0  0  0  0
  -17.5134  -31.6259   24.5259 H   0  0  0  0  0  0
  -15.5421  -30.3085   23.7802 H   0  0  0  0  0  0
  -15.8640  -28.0913   22.7203 H   0  0  0  0  0  0
  -24.5965  -30.7005   25.7803 H   0  0  0  0  0  0
  -24.8962  -32.2796   26.4972 H   0  0  0  0  0  0
  -25.8155  -30.8800   27.0198 H   0  0  0  0  0  0
  -26.2835  -29.6786   24.1212 H   0  0  0  0  0  0
  -27.4137  -29.7282   25.4542 H   0  0  0  0  0  0
  -27.8669  -30.4342   23.9211 H   0  0  0  0  0  0
  -27.2702  -33.3589   26.2123 H   0  0  0  0  0  0
  -28.3880  -32.6890   25.0327 H   0  0  0  0  0  0
  -28.0773  -31.8403   26.5375 H   0  0  0  0  0  0
  -28.2601  -38.0108   24.7511 H   0  0  0  0  0  0
  -28.1097  -36.2628   24.6303 H   0  0  0  0  0  0
  -27.2305  -37.1480   25.8868 H   0  0  0  0  0  0
  -20.9272  -29.9031   21.7284 H   0  0  0  0  0  0
  -26.0176  -38.2868   24.1396 H   0  0  0  0  0  0
  -26.8190  -18.3594   23.7013 H   0  0  0  0  0  0
  -28.4542  -16.7976   22.7676 H   0  0  0  0  0  0
  -26.4292  -20.5325   22.6777 H   0  0  0  0  0  0
  -30.2740  -19.1197   18.8779 H   0  0  0  0  0  0
  -30.6416  -20.5232   19.8677 H   0  0  0  0  0  0
  -29.2653  -20.5176   18.7561 H   0  0  0  0  0  0
  -30.2436  -17.1348   19.5851 H   0  0  0  0  0  0
  -31.1163  -17.2864   21.0826 H   0  0  0  0  0  0
  -26.6253  -21.9989   20.9604 H   0  0  0  0  0  0
  -27.3201  -21.5685   19.4436 H   0  0  0  0  0  0
  -26.7987  -24.1517   20.4216 H   0  0  0  0  0  0
  -27.9093  -24.5860   21.6893 H   0  0  0  0  0  0
  -28.1375  -25.1539   18.6950 H   0  0  0  0  0  0
  -29.5707  -25.0652   19.6606 H   0  0  0  0  0  0
  -28.9134  -15.3745   21.2283 H   0  0  0  0  0  0
  -28.9961  -22.7400   21.5290 H   0  0  0  0  0  0
  -29.1945  -22.7990   19.9255 H   0  0  0  0  0  0
  1 25  1  0  0  0
  1 30  2  0  0  0
  1 82  1  0  0  0
  2  3  1  0  0  0
  2 25  1  0  0  0
  2 84  1  0  0  0
  2 85  1  0  0  0
  3  4  1  0  0  0
  3 86  1  0  0  0
  3 87  1  0  0  0
  4  5  1  0  0  0
  4 88  1  0  0  0
  4 89  1  0  0  0
  5  6  1  0  0  0
  5 26  1  0  0  0
  5 90  1  0  0  0
  6 25  1  0  0  0
  6 91  1  0  0  0
  6 92  1  0  0  0
  7  8  2  0  0  0
  7 26  1  0  0  0
  7 29  1  0  0  0
  8  9  1  0  0  0
  8 22  1  0  0  0
  9 10  1  0  0  0
  9 27  2  0  0  0
 10 11  2  0  0  0
 10 15  1  0  0  0
 11 12  1  0  0  0
 11 93  1  0  0  0
 12 13  2  0  0  0
 12 94  1  0  0  0
 13 14  1  0  0  0
 13 31  1  0  0  0
 14 15  2  0  0  0
 14 95  1  0  0  0
 15 96  1  0  0  0
 16 17  2  0  0  0
 16 21  1  0  0  0
 16 31  1  0  0  0
 17 18  1  0  0  0
 17 97  1  0  0  0
 18 19  2  0  0  0
 18 98  1  0  0  0
 19 20  1  0  0  0
 19 24  1  0  0  0
 20 21  2  0  0  0
 20 99  1  0  0  0
 21 23  1  0  0  0
 22 28  1  0  0  0
 22 32  2  0  0  0
 26 27  1  0  0  0
 28100  1  0  0  0
 28101  1  0  0  0
 29102  1  0  0  0
 29103  1  0  0  0
 33 34  1  0  0  0
 33 66  1  0  0  0
 33 70  2  0  0  0
 34 36  1  0  0  0
 34 59  1  0  0  0
 34104  1  0  0  0
 35 44  2  0  0  0
 35 45  1  0  0  0
 35 68  1  0  0  0
 36 56  1  0  0  0
 36105  1  0  0  0
 37 39  1  0  0  0
 37 47  1  0  0  0
 37 66  1  0  0  0
 37106  1  0  0  0
 38 43  2  0  0  0
 38 46  1  0  0  0
 38 47  1  0  0  0
 39 64  1  0  0  0
 39 67  2  0  0  0
 40 52  1  0  0  0
 40 53  2  0  0  0
 40 58  1  0  0  0
 41107  1  0  0  0
 41108  1  0  0  0
 41109  1  0  0  0
 41 48  1  0  0  0
 42 43  1  0  0  0
 42 66  1  0  0  0
 42110  1  0  0  0
 42111  1  0  0  0
 43 44  1  0  0  0
 44112  1  0  0  0
 45 46  2  0  0  0
 45113  1  0  0  0
 46114  1  0  0  0
 47115  1  0  0  0
 47116  1  0  0  0
 48 56  1  0  0  0
 48 65  1  0  0  0
 48117  1  0  0  0
 49 50  1  0  0  0
 49 53  1  0  0  0
 49 64  1  0  0  0
 49118  1  0  0  0
 50 51  1  0  0  0
 50119  1  0  0  0
 50120  1  0  0  0
 51 52  1  0  0  0
 51121  1  0  0  0
 51122  1  0  0  0
 52123  1  0  0  0
 52124  1  0  0  0
 53 54  1  0  0  0
 54 55  2  0  0  0
 54125  1  0  0  0
 55 57  1  0  0  0
 55126  1  0  0  0
 56 69  2  0  0  0
 57 58  2  0  0  0
 57127  1  0  0  0
 58128  1  0  0  0
 59 60  1  0  0  0
 59 61  1  0  0  0
 59 62  1  0  0  0
 60129  1  0  0  0
 60130  1  0  0  0
 60131  1  0  0  0
 61132  1  0  0  0
 61133  1  0  0  0
 61134  1  0  0  0
 62135  1  0  0  0
 62136  1  0  0  0
 62137  1  0  0  0
 63 65  1  0  0  0
 63138  1  0  0  0
 63139  1  0  0  0
 63140  1  0  0  0
 64141  1  0  0  0
 65142  1  0  0  0
 68 81  1  0  0  0
 71 72  2  0  0  0
 71 73  1  0  0  0
 71143  1  0  0  0
 72 74  1  0  0  0
 72144  1  0  0  0
 73 75  2  0  0  0
 73145  1  0  0  0
 74 76  2  0  0  0
 74 78  1  0  0  0
 75 76  1  0  0  0
 75 79  1  0  0  0
 76 77  1  0  0  0
 77146  1  0  0  0
 77147  1  0  0  0
 77148  1  0  0  0
 78 82  1  0  0  0
 78149  1  0  0  0
 78150  1  0  0  0
 79 83  1  0  0  0
 79151  1  0  0  0
 79152  1  0  0  0
 80 81  1  0  0  0
 80 83  1  0  0  0
 80153  1  0  0  0
 80154  1  0  0  0
 81155  1  0  0  0
 81156  1  0  0  0
 82157  1  0  0  0
 83158  1  0  0  0
 83159  1  0  0  0
M  CHG  1  83   1
M  ISO  4   1 100  68 101  81 101  82 100
M  END
> <chiral flag>
0

> <version>
0

> <s_m_source_file>
/data/baiqing/PycharmProjects/Reinvent-master-3.2/result/LINK_invent/BTK/process_docking_weight1_custom_product_contain_oxygen_bond_distance_aromatic_linkinvent_7_9_3/rearranged_h_0042.sdf

> <i_m_source_file_index>
30

> <r_mmod_Potential_Energy-OPLS-2005>
-218.816940307617

> <r_mmod_Stretch_Energy-OPLS-2005>
57.2245063781738

> <r_mmod_Bend_Energy-OPLS-2005>
123.728996276855

> <r_mmod_Torsional_Energy-OPLS-2005>
199.850845336914

> <r_mmod_Improper_Torsional_Energy-OPLS-2005>
5.42799139022827

> <r_mmod_Van_der_Waal_Energy-OPLS-2005>
147.667816162109

> <r_mmod_Electrostatic_Energy-OPLS-2005>
-322.670288085938

> <r_mmod_Solvation_Energy-OPLS-2005>
-455.662048339844

> <b_mmod_Minimization_Converged-OPLS-2005>
0

> <r_mmod_RMS_Derivative-OPLS-2005>
7.01927947998047

$$$$
30
                    3D
 Structure written by MMmdl.
162170  0  0  1  0            999 V2000
  -30.6848  -14.4476   20.5401 C   0  0  0  0  0  0
  -30.4339  -12.2698   19.4457 C   0  0  0  0  0  0
  -29.5134  -12.4794   18.2242 C   0  0  0  0  0  0
  -28.0274  -12.3550   18.6241 C   0  0  0  0  0  0
  -27.6684  -13.1898   19.8854 C   0  0  2  0  0  0
  -28.7060  -12.9652   21.0125 C   0  0  0  0  0  0
  -25.2606  -13.8102   20.5680 C   0  0  0  0  0  0
  -24.1833  -13.0444   20.9136 C   0  0  0  0  0  0
  -24.6361  -11.6902   20.8744 C   0  0  0  0  0  0
  -23.9032  -10.4326   21.0413 C   0  0  0  0  0  0
  -24.3605   -9.4253   21.9196 C   0  0  0  0  0  0
  -23.6300   -8.2267   22.0739 C   0  0  0  0  0  0
  -22.4281   -8.0278   21.3520 C   0  0  0  0  0  0
  -21.9897   -9.0256   20.4636 C   0  0  0  0  0  0
  -22.7199  -10.2153   20.3068 C   0  0  0  0  0  0
  -21.6858   -6.0749   22.5299 C   0  0  0  0  0  0
  -21.4004   -6.5651   23.8237 C   0  0  0  0  0  0
  -21.3660   -5.6790   24.9194 C   0  0  0  0  0  0
  -21.6046   -4.3054   24.7230 C   0  0  0  0  0  0
  -21.8822   -3.8148   23.4352 C   0  0  0  0  0  0
  -21.9196   -4.6974   22.3417 C   0  0  0  0  0  0
  -22.7874  -13.5275   21.1824 C   0  0  0  0  0  0
  -22.1668   -4.2168   21.0989 F   0  0  0  0  0  0
  -21.5629   -3.4542   25.7746 F   0  0  0  0  0  0
  -30.0469  -13.2503   20.4712 N   0  0  0  0  0  0
  -26.3034  -12.9251   20.3360 N   0  0  0  0  0  0
  -25.9269  -11.6436   20.5721 N   0  0  0  0  0  0
  -22.0516  -12.8298   22.0392 N   0  0  0  0  0  0
  -25.4350  -15.1823   20.4187 N   0  0  0  0  0  0
  -31.8157  -14.6455   20.0847 O   0  0  0  0  0  0
  -21.6640   -6.8876   21.4239 O   0  0  0  0  0  0
  -22.3603  -14.5623   20.6700 O   0  0  0  0  0  0
  -24.6163  -31.8715   23.2086 C   0  0  0  0  0  0
  -25.9046  -32.4859   23.8411 C   0  0  1  0  0  0
  -27.2341  -27.4352   20.0867 C   0  0  0  0  0  0
  -25.5904  -33.8647   24.2352 N   0  0  0  0  0  0
  -23.4062  -30.4956   21.5491 C   0  0  2  0  0  0
  -24.8502  -28.9651   20.1135 C   0  0  0  0  0  0
  -22.7445  -29.4690   22.4979 C   0  0  0  0  0  0
  -18.0293  -28.1396   22.8525 C   0  0  0  0  0  0
  -24.1482  -36.7292   23.2647 C   0  0  0  0  0  0
  -25.9366  -30.8305   21.3703 C   0  0  0  0  0  0
  -26.0099  -29.4667   20.7164 C   0  0  0  0  0  0
  -27.2019  -28.7077   20.7012 C   0  0  0  0  0  0
  -26.0518  -26.9552   19.4717 C   0  0  0  0  0  0
  -24.8674  -27.7099   19.4869 C   0  0  0  0  0  0
  -23.6141  -29.8293   20.1647 C   0  0  0  0  0  0
  -25.4106  -36.3131   24.0359 C   0  0  1  0  0  0
  -20.5888  -28.3693   23.1319 C   0  0  2  0  0  0
  -20.6777  -26.9424   22.5430 C   0  0  0  0  0  0
  -19.5732  -26.6409   21.5251 C   0  0  0  0  0  0
  -18.1916  -26.7954   22.1655 C   0  0  0  0  0  0
  -19.1542  -28.8858   23.2929 C   0  0  0  0  0  0
  -18.9463  -30.1469   23.8945 C   0  0  0  0  0  0
  -17.6456  -30.6604   24.0588 C   0  0  0  0  0  0
  -25.9021  -34.9500   23.5148 C   0  0  0  0  0  0
  -16.5350  -29.9109   23.6318 C   0  0  0  0  0  0
  -16.7286  -28.6514   23.0369 C   0  0  0  0  0  0
  -26.4459  -31.6630   25.0736 C   0  0  0  0  0  0
  -25.3679  -31.3803   26.1459 C   0  0  0  0  0  0
  -27.0313  -30.3064   24.6161 C   0  0  0  0  0  0
  -27.6049  -32.4365   25.7473 C   0  0  0  0  0  0
  -27.5583  -37.1803   24.8466 C   0  0  0  0  0  0
  -21.4162  -29.3060   22.3706 N   0  0  0  0  0  0
  -26.4292  -37.3809   23.9420 N   0  0  0  0  0  0
  -24.6712  -31.0805   22.1013 N   0  0  0  0  0  0
  -23.4207  -28.8229   23.3035 O   0  0  0  0  0  0
  -28.4129  -26.7125   20.1070 O   0  0  0  0  0  0
  -26.5586  -34.8946   22.4717 O   0  0  0  0  0  0
  -23.5340  -32.1471   23.7452 O   0  0  0  0  0  0
  -31.0617  -18.5983   20.3251 C   0  0  0  0  0  0
  -28.8339  -20.1189   21.0629 C   0  0  0  0  0  0
  -31.2268  -19.9742   20.6142 C   0  0  0  0  0  0
  -29.7953  -17.9843   20.3668 C   0  0  0  0  0  0
  -30.0912  -20.7572   20.9715 C   0  0  0  0  0  0
  -28.6753  -18.7544   20.7528 C   0  0  0  0  0  0
  -33.2797  -20.7542   21.9054 C   0  0  0  0  0  0
  -32.6342  -20.5558   20.5230 C   0  0  0  0  0  0
  -29.6575  -16.5481   19.8724 C   0  0  0  0  0  0
  -30.1548  -22.2613   21.2754 C   0  0  0  0  0  0
  -29.4989  -24.5502   20.5188 C   0  0  0  0  0  0
  -28.3559  -25.3067   19.8085 C   0  0  0  0  0  0
  -29.8810  -15.4762   20.8506 N   0  0  0  0  0  0
  -29.4972  -23.0874   20.2313 N   0  3  0  0  0  0
  -27.0891  -18.0735   20.8174 Cl  0  0  0  0  0  0
  -31.4849  -12.3522   19.1570 H   0  0  0  0  0  0
  -30.3164  -11.2607   19.8403 H   0  0  0  0  0  0
  -29.7532  -11.7467   17.4546 H   0  0  0  0  0  0
  -29.6962  -13.4564   17.7786 H   0  0  0  0  0  0
  -27.8255  -11.3005   18.8104 H   0  0  0  0  0  0
  -27.3866  -12.6379   17.7890 H   0  0  0  0  0  0
  -27.7100  -14.2355   19.5873 H   0  0  0  0  0  0
  -28.6658  -11.9332   21.3596 H   0  0  0  0  0  0
  -28.4736  -13.5703   21.8908 H   0  0  0  0  0  0
  -25.2778   -9.5750   22.4740 H   0  0  0  0  0  0
  -24.0044   -7.4664   22.7449 H   0  0  0  0  0  0
  -21.0822   -8.8763   19.8968 H   0  0  0  0  0  0
  -22.3648  -10.9681   19.6166 H   0  0  0  0  0  0
  -21.1989   -7.6162   23.9748 H   0  0  0  0  0  0
  -21.1467   -6.0517   25.9095 H   0  0  0  0  0  0
  -22.0593   -2.7606   23.2860 H   0  0  0  0  0  0
  -22.4088  -11.9953   22.4832 H   0  0  0  0  0  0
  -21.1128  -13.1307   22.2584 H   0  0  0  0  0  0
  -24.6747  -15.8361   20.5650 H   0  0  0  0  0  0
  -26.3014  -15.6445   20.1791 H   0  0  0  0  0  0
  -26.7129  -32.5587   23.1195 H   0  0  0  0  0  0
  -25.0097  -33.9795   25.0530 H   0  0  0  0  0  0
  -22.6981  -31.3159   21.4099 H   0  0  0  0  0  0
  -23.3762  -35.9601   23.3329 H   0  0  0  0  0  0
  -24.3570  -36.8859   22.2050 H   0  0  0  0  0  0
  -23.7193  -37.6494   23.6626 H   0  0  0  0  0  0
  -26.0530  -31.5908   20.5968 H   0  0  0  0  0  0
  -26.8240  -30.8834   21.9906 H   0  0  0  0  0  0
  -28.0988  -29.0878   21.1713 H   0  0  0  0  0  0
  -26.0153  -26.0048   18.9627 H   0  0  0  0  0  0
  -23.9783  -27.3262   19.0037 H   0  0  0  0  0  0
  -23.7229  -30.6017   19.4036 H   0  0  0  0  0  0
  -22.7393  -29.2445   19.8689 H   0  0  0  0  0  0
  -25.1277  -36.2020   25.0850 H   0  0  0  0  0  0
  -21.0014  -28.3290   24.1431 H   0  0  0  0  0  0
  -20.5703  -26.2325   23.3644 H   0  0  0  0  0  0
  -21.6639  -26.7476   22.1198 H   0  0  0  0  0  0
  -19.6869  -25.6330   21.1257 H   0  0  0  0  0  0
  -19.6635  -27.3259   20.6815 H   0  0  0  0  0  0
  -17.4194  -26.6786   21.4044 H   0  0  0  0  0  0
  -18.0243  -26.0083   22.9025 H   0  0  0  0  0  0
  -19.7937  -30.7294   24.2326 H   0  0  0  0  0  0
  -17.5005  -31.6279   24.5221 H   0  0  0  0  0  0
  -15.5348  -30.3031   23.7595 H   0  0  0  0  0  0
  -15.8697  -28.0842   22.7061 H   0  0  0  0  0  0
  -24.5859  -30.7152   25.7786 H   0  0  0  0  0  0
  -24.8854  -32.2992   26.4809 H   0  0  0  0  0  0
  -25.7951  -30.9031   27.0289 H   0  0  0  0  0  0
  -26.2904  -29.6833   24.1148 H   0  0  0  0  0  0
  -27.3997  -29.7307   25.4661 H   0  0  0  0  0  0
  -27.8768  -30.4371   23.9401 H   0  0  0  0  0  0
  -27.2688  -33.3687   26.2051 H   0  0  0  0  0  0
  -28.3836  -32.6919   25.0262 H   0  0  0  0  0  0
  -28.0766  -31.8508   26.5376 H   0  0  0  0  0  0
  -28.2626  -38.0078   24.7534 H   0  0  0  0  0  0
  -28.1054  -36.2622   24.6282 H   0  0  0  0  0  0
  -27.2302  -37.1440   25.8865 H   0  0  0  0  0  0
  -20.9340  -29.8764   21.6890 H   0  0  0  0  0  0
  -26.0198  -38.2893   24.1428 H   0  0  0  0  0  0
  -31.9108  -17.9959   20.0291 H   0  0  0  0  0  0
  -27.9570  -20.6798   21.3522 H   0  0  0  0  0  0
  -34.2879  -21.1599   21.8243 H   0  0  0  0  0  0
  -33.3461  -19.8092   22.4469 H   0  0  0  0  0  0
  -32.7159  -21.4489   22.5279 H   0  0  0  0  0  0
  -32.6184  -21.4871   19.9584 H   0  0  0  0  0  0
  -33.2628  -19.8868   19.9316 H   0  0  0  0  0  0
  -30.3176  -16.4405   19.0089 H   0  0  0  0  0  0
  -28.6629  -16.4053   19.4517 H   0  0  0  0  0  0
  -31.1792  -22.6050   21.4000 H   0  0  0  0  0  0
  -29.6618  -22.4376   22.2335 H   0  0  0  0  0  0
  -29.3871  -24.7027   21.5937 H   0  0  0  0  0  0
  -30.4649  -24.9709   20.2404 H   0  0  0  0  0  0
  -27.4178  -24.8705   20.1563 H   0  0  0  0  0  0
  -28.4046  -25.1620   18.7274 H   0  0  0  0  0  0
  -29.0707  -15.2251   21.3981 H   0  0  0  0  0  0
  -28.5458  -22.7700   20.1369 H   0  0  0  0  0  0
  -29.9547  -22.9269   19.3466 H   0  0  0  0  0  0
  1 25  1  0  0  0
  1 30  2  0  0  0
  1 83  1  0  0  0
  2  3  1  0  0  0
  2 25  1  0  0  0
  2 86  1  0  0  0
  2 87  1  0  0  0
  3  4  1  0  0  0
  3 88  1  0  0  0
  3 89  1  0  0  0
  4  5  1  0  0  0
  4 90  1  0  0  0
  4 91  1  0  0  0
  5  6  1  0  0  0
  5 26  1  0  0  0
  5 92  1  0  0  0
  6 25  1  0  0  0
  6 93  1  0  0  0
  6 94  1  0  0  0
  7  8  2  0  0  0
  7 26  1  0  0  0
  7 29  1  0  0  0
  8  9  1  0  0  0
  8 22  1  0  0  0
  9 10  1  0  0  0
  9 27  2  0  0  0
 10 11  2  0  0  0
 10 15  1  0  0  0
 11 12  1  0  0  0
 11 95  1  0  0  0
 12 13  2  0  0  0
 12 96  1  0  0  0
 13 14  1  0  0  0
 13 31  1  0  0  0
 14 15  2  0  0  0
 14 97  1  0  0  0
 15 98  1  0  0  0
 16 17  2  0  0  0
 16 21  1  0  0  0
 16 31  1  0  0  0
 17 18  1  0  0  0
 17 99  1  0  0  0
 18 19  2  0  0  0
 18100  1  0  0  0
 19 20  1  0  0  0
 19 24  1  0  0  0
 20 21  2  0  0  0
 20101  1  0  0  0
 21 23  1  0  0  0
 22 28  1  0  0  0
 22 32  2  0  0  0
 26 27  1  0  0  0
 28102  1  0  0  0
 28103  1  0  0  0
 29104  1  0  0  0
 29105  1  0  0  0
 33 34  1  0  0  0
 33 66  1  0  0  0
 33 70  2  0  0  0
 34 36  1  0  0  0
 34 59  1  0  0  0
 34106  1  0  0  0
 35 44  2  0  0  0
 35 45  1  0  0  0
 35 68  1  0  0  0
 36 56  1  0  0  0
 36107  1  0  0  0
 37 39  1  0  0  0
 37 47  1  0  0  0
 37 66  1  0  0  0
 37108  1  0  0  0
 38 43  2  0  0  0
 38 46  1  0  0  0
 38 47  1  0  0  0
 39 64  1  0  0  0
 39 67  2  0  0  0
 40 52  1  0  0  0
 40 53  2  0  0  0
 40 58  1  0  0  0
 41109  1  0  0  0
 41110  1  0  0  0
 41111  1  0  0  0
 41 48  1  0  0  0
 42 43  1  0  0  0
 42 66  1  0  0  0
 42112  1  0  0  0
 42113  1  0  0  0
 43 44  1  0  0  0
 44114  1  0  0  0
 45 46  2  0  0  0
 45115  1  0  0  0
 46116  1  0  0  0
 47117  1  0  0  0
 47118  1  0  0  0
 48 56  1  0  0  0
 48 65  1  0  0  0
 48119  1  0  0  0
 49 50  1  0  0  0
 49 53  1  0  0  0
 49 64  1  0  0  0
 49120  1  0  0  0
 50 51  1  0  0  0
 50121  1  0  0  0
 50122  1  0  0  0
 51 52  1  0  0  0
 51123  1  0  0  0
 51124  1  0  0  0
 52125  1  0  0  0
 52126  1  0  0  0
 53 54  1  0  0  0
 54 55  2  0  0  0
 54127  1  0  0  0
 55 57  1  0  0  0
 55128  1  0  0  0
 56 69  2  0  0  0
 57 58  2  0  0  0
 57129  1  0  0  0
 58130  1  0  0  0
 59 60  1  0  0  0
 59 61  1  0  0  0
 59 62  1  0  0  0
 60131  1  0  0  0
 60132  1  0  0  0
 60133  1  0  0  0
 61134  1  0  0  0
 61135  1  0  0  0
 61136  1  0  0  0
 62137  1  0  0  0
 62138  1  0  0  0
 62139  1  0  0  0
 63 65  1  0  0  0
 63140  1  0  0  0
 63141  1  0  0  0
 63142  1  0  0  0
 64143  1  0  0  0
 65144  1  0  0  0
 68 82  1  0  0  0
 71 73  2  0  0  0
 71 74  1  0  0  0
 71145  1  0  0  0
 72 75  2  0  0  0
 72 76  1  0  0  0
 72146  1  0  0  0
 73 75  1  0  0  0
 73 78  1  0  0  0
 74 76  2  0  0  0
 74 79  1  0  0  0
 75 80  1  0  0  0
 76 85  1  0  0  0
 77 78  1  0  0  0
 77147  1  0  0  0
 77148  1  0  0  0
 77149  1  0  0  0
 78150  1  0  0  0
 78151  1  0  0  0
 79 83  1  0  0  0
 79152  1  0  0  0
 79153  1  0  0  0
 80 84  1  0  0  0
 80154  1  0  0  0
 80155  1  0  0  0
 81 82  1  0  0  0
 81 84  1  0  0  0
 81156  1  0  0  0
 81157  1  0  0  0
 82158  1  0  0  0
 82159  1  0  0  0
 83160  1  0  0  0
 84161  1  0  0  0
 84162  1  0  0  0
M  CHG  1  84   1
M  ISO  4   1 100  68 101  82 101  83 100
M  END
> <chiral flag>
0

> <version>
0

> <s_m_source_file>
/data/baiqing/PycharmProjects/Reinvent-master-3.2/result/LINK_invent/BTK/process_docking_weight1_custom_product_contain_oxygen_bond_distance_aromatic_linkinvent_7_9_3/rearranged_h_0042.sdf

> <i_m_source_file_index>
31

> <r_mmod_Potential_Energy-OPLS-2005>
-236.149993896484

> <r_mmod_Stretch_Energy-OPLS-2005>
37.0353775024414

> <r_mmod_Bend_Energy-OPLS-2005>
96.3301239013672

> <r_mmod_Torsional_Energy-OPLS-2005>
229.203689575195

> <r_mmod_Improper_Torsional_Energy-OPLS-2005>
11.2840576171875

> <r_mmod_Van_der_Waal_Energy-OPLS-2005>
152.894638061523

> <r_mmod_Electrostatic_Energy-OPLS-2005>
-321.266082763672

> <r_mmod_Solvation_Energy-OPLS-2005>
-455.064453125

> <b_mmod_Minimization_Converged-OPLS-2005>
0

> <r_mmod_RMS_Derivative-OPLS-2005>
4.85396575927734

$$$$
31
                    3D
 Structure written by MMmdl.
170179  0  0  1  0            999 V2000
  -30.6880  -14.5160   20.5654 C   0  0  0  0  0  0
  -30.4246  -12.3317   19.4397 C   0  0  0  0  0  0
  -29.5012  -12.5086   18.2164 C   0  0  0  0  0  0
  -28.0228  -12.3625   18.6259 C   0  0  0  0  0  0
  -27.6592  -13.2120   19.8728 C   0  0  2  0  0  0
  -28.6986  -13.0214   20.9998 C   0  0  0  0  0  0
  -25.2573  -13.8139   20.5655 C   0  0  0  0  0  0
  -24.1835  -13.0415   20.9170 C   0  0  0  0  0  0
  -24.6408  -11.6891   20.8736 C   0  0  0  0  0  0
  -23.9077  -10.4276   21.0411 C   0  0  0  0  0  0
  -24.3639   -9.4189   21.9182 C   0  0  0  0  0  0
  -23.6304   -8.2234   22.0782 C   0  0  0  0  0  0
  -22.4282   -8.0279   21.3566 C   0  0  0  0  0  0
  -21.9909   -9.0260   20.4673 C   0  0  0  0  0  0
  -22.7251  -10.2131   20.3063 C   0  0  0  0  0  0
  -21.6853   -6.0716   22.5276 C   0  0  0  0  0  0
  -21.4014   -6.5630   23.8208 C   0  0  0  0  0  0
  -21.3664   -5.6797   24.9180 C   0  0  0  0  0  0
  -21.6053   -4.3058   24.7236 C   0  0  0  0  0  0
  -21.8826   -3.8129   23.4363 C   0  0  0  0  0  0
  -21.9194   -4.6937   22.3408 C   0  0  0  0  0  0
  -22.7862  -13.5238   21.1846 C   0  0  0  0  0  0
  -22.1670   -4.2117   21.0985 F   0  0  0  0  0  0
  -21.5641   -3.4547   25.7747 F   0  0  0  0  0  0
  -30.0257  -13.3309   20.4453 N   0  0  0  0  0  0
  -26.3013  -12.9329   20.3351 N   0  0  0  0  0  0
  -25.9337  -11.6484   20.5777 N   0  0  0  0  0  0
  -22.0497  -12.8223   22.0401 N   0  0  0  0  0  0
  -25.4299  -15.1834   20.4040 N   0  0  0  0  0  0
  -31.8262  -14.6837   20.1181 O   0  0  0  0  0  0
  -21.6646   -6.8871   21.4247 O   0  0  0  0  0  0
  -22.3549  -14.5552   20.6717 O   0  0  0  0  0  0
  -24.6187  -31.8655   23.2077 C   0  0  0  0  0  0
  -25.9067  -32.4800   23.8381 C   0  0  1  0  0  0
  -27.2349  -27.3949   20.0864 C   0  0  0  0  0  0
  -25.5910  -33.8600   24.2313 N   0  0  0  0  0  0
  -23.4061  -30.4904   21.5508 C   0  0  2  0  0  0
  -24.8476  -28.9471   20.1230 C   0  0  0  0  0  0
  -22.7418  -29.4667   22.4994 C   0  0  0  0  0  0
  -18.0276  -28.1374   22.8501 C   0  0  0  0  0  0
  -24.1484  -36.7307   23.2646 C   0  0  0  0  0  0
  -25.9403  -30.8199   21.3632 C   0  0  0  0  0  0
  -26.0142  -29.4527   20.7059 C   0  0  0  0  0  0
  -27.2072  -28.6882   20.6737 C   0  0  0  0  0  0
  -26.0292  -26.8989   19.5422 C   0  0  0  0  0  0
  -24.8515  -27.6693   19.5427 C   0  0  0  0  0  0
  -23.6135  -29.8209   20.1674 C   0  0  0  0  0  0
  -25.4108  -36.3102   24.0341 C   0  0  1  0  0  0
  -20.5870  -28.3673   23.1317 C   0  0  2  0  0  0
  -20.6766  -26.9405   22.5426 C   0  0  0  0  0  0
  -19.5749  -26.6378   21.5220 C   0  0  0  0  0  0
  -18.1922  -26.7924   22.1626 C   0  0  0  0  0  0
  -19.1525  -28.8842   23.2903 C   0  0  0  0  0  0
  -18.9451  -30.1447   23.8915 C   0  0  0  0  0  0
  -17.6453  -30.6584   24.0565 C   0  0  0  0  0  0
  -25.9042  -34.9465   23.5125 C   0  0  0  0  0  0
  -16.5343  -29.9085   23.6329 C   0  0  0  0  0  0
  -16.7264  -28.6498   23.0358 C   0  0  0  0  0  0
  -26.4482  -31.6593   25.0728 C   0  0  0  0  0  0
  -25.3743  -31.3700   26.1471 C   0  0  0  0  0  0
  -27.0326  -30.3033   24.6137 C   0  0  0  0  0  0
  -27.6055  -32.4330   25.7484 C   0  0  0  0  0  0
  -27.5580  -37.1804   24.8468 C   0  0  0  0  0  0
  -21.4148  -29.3041   22.3722 N   0  0  0  0  0  0
  -26.4291  -37.3788   23.9411 N   0  0  0  0  0  0
  -24.6740  -31.0733   22.0985 N   0  0  0  0  0  0
  -23.4179  -28.8216   23.3048 O   0  0  0  0  0  0
  -28.4454  -26.7114   20.0700 O   0  0  0  0  0  0
  -26.5608  -34.8921   22.4692 O   0  0  0  0  0  0
  -23.5374  -32.1426   23.7454 O   0  0  0  0  0  0
  -29.7406  -19.4412   21.2381 C   0  0  0  0  0  0
  -28.0787  -17.7549   21.7682 C   0  0  0  0  0  0
  -29.3841  -18.0699   21.3404 C   0  0  0  0  0  0
  -28.8334  -20.4916   21.5596 C   0  0  0  0  0  0
  -27.1449  -18.7675   22.0945 C   0  0  0  0  0  0
  -27.5161  -20.1414   21.9707 C   0  0  0  0  0  0
  -28.3842  -24.2986   20.8732 C   0  0  0  0  0  0
  -27.7034  -24.5730   22.0033 C   0  0  0  0  0  0
  -28.8480  -23.3718   18.0948 C   0  0  0  0  0  0
  -28.2269  -24.7592   18.3552 C   0  0  0  0  0  0
  -28.5660  -22.3809   19.2483 C   0  0  0  0  0  0
  -28.6566  -25.3064   19.7406 C   0  0  1  0  0  0
  -26.5243  -21.2439   22.3240 C   0  0  0  0  0  0
  -30.4280  -16.9704   21.0391 C   0  0  0  0  0  0
  -29.3470  -21.9623   21.6294 C   0  0  0  0  0  0
  -25.7598  -18.3457   22.6055 C   0  0  0  0  0  0
  -29.9766  -15.5592   21.0502 N   0  0  0  0  0  0
  -29.0311  -22.9513   20.5367 N   0  3  2  0  0  0
  -25.6964  -17.0378   22.8591 F   0  0  0  0  0  0
  -25.4586  -18.9718   23.7440 F   0  0  0  0  0  0
  -24.8316  -18.6310   21.6920 F   0  0  0  0  0  0
  -31.4706  -12.4291   19.1442 H   0  0  0  0  0  0
  -30.3275  -11.3267   19.8511 H   0  0  0  0  0  0
  -29.7507  -11.7779   17.4456 H   0  0  0  0  0  0
  -29.6634  -13.4911   17.7716 H   0  0  0  0  0  0
  -27.8433  -11.3075   18.8334 H   0  0  0  0  0  0
  -27.3714  -12.6246   17.7908 H   0  0  0  0  0  0
  -27.6956  -14.2553   19.5608 H   0  0  0  0  0  0
  -28.6810  -11.9934   21.3651 H   0  0  0  0  0  0
  -28.4569  -13.6433   21.8628 H   0  0  0  0  0  0
  -25.2800   -9.5636   22.4726 H   0  0  0  0  0  0
  -24.0003   -7.4629   22.7526 H   0  0  0  0  0  0
  -21.0833   -8.8795   19.8984 H   0  0  0  0  0  0
  -22.3735  -10.9670   19.6172 H   0  0  0  0  0  0
  -21.2006   -7.6139   23.9699 H   0  0  0  0  0  0
  -21.1494   -6.0533   25.9081 H   0  0  0  0  0  0
  -22.0596   -2.7577   23.2888 H   0  0  0  0  0  0
  -22.4111  -11.9871   22.4754 H   0  0  0  0  0  0
  -21.1129  -13.1268   22.2639 H   0  0  0  0  0  0
  -24.6820  -15.8460   20.5752 H   0  0  0  0  0  0
  -26.2900  -15.6223   20.1087 H   0  0  0  0  0  0
  -26.7139  -32.5487   23.1137 H   0  0  0  0  0  0
  -25.0045  -33.9749   25.0447 H   0  0  0  0  0  0
  -22.6982  -31.3093   21.4100 H   0  0  0  0  0  0
  -23.3748  -35.9637   23.3313 H   0  0  0  0  0  0
  -24.3580  -36.8921   22.2062 H   0  0  0  0  0  0
  -23.7227  -37.6509   23.6661 H   0  0  0  0  0  0
  -26.0615  -31.5887   20.5984 H   0  0  0  0  0  0
  -26.8243  -30.8667   21.9874 H   0  0  0  0  0  0
  -28.1138  -29.0878   21.1064 H   0  0  0  0  0  0
  -25.9452  -25.9172   19.1237 H   0  0  0  0  0  0
  -23.9469  -27.2632   19.1125 H   0  0  0  0  0  0
  -23.7287  -30.5940   19.4070 H   0  0  0  0  0  0
  -22.7329  -29.2481   19.8692 H   0  0  0  0  0  0
  -25.1280  -36.1970   25.0834 H   0  0  0  0  0  0
  -20.9965  -28.3240   24.1437 H   0  0  0  0  0  0
  -20.5666  -26.2283   23.3614 H   0  0  0  0  0  0
  -21.6635  -26.7433   22.1221 H   0  0  0  0  0  0
  -19.6907  -25.6290   21.1246 H   0  0  0  0  0  0
  -19.6683  -27.3190   20.6754 H   0  0  0  0  0  0
  -17.4192  -26.6688   21.4022 H   0  0  0  0  0  0
  -18.0311  -26.0051   22.9011 H   0  0  0  0  0  0
  -19.7920  -30.7258   24.2293 H   0  0  0  0  0  0
  -17.5004  -31.6267   24.5162 H   0  0  0  0  0  0
  -15.5346  -30.2992   23.7642 H   0  0  0  0  0  0
  -15.8658  -28.0814   22.7079 H   0  0  0  0  0  0
  -24.5899  -30.7070   25.7802 H   0  0  0  0  0  0
  -24.8949  -32.2854   26.4954 H   0  0  0  0  0  0
  -25.8090  -30.8834   27.0211 H   0  0  0  0  0  0
  -26.2885  -29.6772   24.1199 H   0  0  0  0  0  0
  -27.4100  -29.7287   25.4610 H   0  0  0  0  0  0
  -27.8716  -30.4350   23.9297 H   0  0  0  0  0  0
  -27.2672  -33.3623   26.2079 H   0  0  0  0  0  0
  -28.3841  -32.6905   25.0293 H   0  0  0  0  0  0
  -28.0750  -31.8451   26.5378 H   0  0  0  0  0  0
  -28.2598  -38.0102   24.7515 H   0  0  0  0  0  0
  -28.1072  -36.2631   24.6292 H   0  0  0  0  0  0
  -27.2299  -37.1458   25.8873 H   0  0  0  0  0  0
  -20.9316  -29.8767   21.6939 H   0  0  0  0  0  0
  -26.0184  -38.2869   24.1410 H   0  0  0  0  0  0
  -30.7542  -19.6846   20.9494 H   0  0  0  0  0  0
  -27.7864  -16.7218   21.8778 H   0  0  0  0  0  0
  -27.2915  -25.5581   22.1663 H   0  0  0  0  0  0
  -27.5377  -23.8567   22.7910 H   0  0  0  0  0  0
  -29.9238  -23.4774   17.9485 H   0  0  0  0  0  0
  -28.4604  -22.9633   17.1598 H   0  0  0  0  0  0
  -27.1558  -24.6154   18.2753 H   0  0  0  0  0  0
  -28.5130  -25.4548   17.5649 H   0  0  0  0  0  0
  -29.0783  -21.4430   19.0350 H   0  0  0  0  0  0
  -27.5013  -22.1526   19.3098 H   0  0  0  0  0  0
  -29.7464  -25.3074   19.6823 H   0  0  0  0  0  0
  -26.5790  -22.0646   21.6128 H   0  0  0  0  0  0
  -26.7254  -21.6296   23.3243 H   0  0  0  0  0  0
  -25.4881  -20.9154   22.2977 H   0  0  0  0  0  0
  -31.2394  -17.0728   21.7618 H   0  0  0  0  0  0
  -30.8652  -17.1954   20.0640 H   0  0  0  0  0  0
  -30.4360  -21.9115   21.6423 H   0  0  0  0  0  0
  -29.1086  -22.3683   22.6099 H   0  0  0  0  0  0
  -29.0459  -15.3636   21.3809 H   0  0  0  0  0  0
  -29.9806  -23.1955   20.2965 H   0  0  0  0  0  0
  1 25  1  0  0  0
  1 30  2  0  0  0
  1 87  1  0  0  0
  2  3  1  0  0  0
  2 25  1  0  0  0
  2 92  1  0  0  0
  2 93  1  0  0  0
  3  4  1  0  0  0
  3 94  1  0  0  0
  3 95  1  0  0  0
  4  5  1  0  0  0
  4 96  1  0  0  0
  4 97  1  0  0  0
  5  6  1  0  0  0
  5 26  1  0  0  0
  5 98  1  0  0  0
  6 25  1  0  0  0
  6 99  1  0  0  0
  6100  1  0  0  0
  7  8  2  0  0  0
  7 26  1  0  0  0
  7 29  1  0  0  0
  8  9  1  0  0  0
  8 22  1  0  0  0
  9 10  1  0  0  0
  9 27  2  0  0  0
 10 11  2  0  0  0
 10 15  1  0  0  0
 11 12  1  0  0  0
 11101  1  0  0  0
 12 13  2  0  0  0
 12102  1  0  0  0
 13 14  1  0  0  0
 13 31  1  0  0  0
 14 15  2  0  0  0
 14103  1  0  0  0
 15104  1  0  0  0
 16 17  2  0  0  0
 16 21  1  0  0  0
 16 31  1  0  0  0
 17 18  1  0  0  0
 17105  1  0  0  0
 18 19  2  0  0  0
 18106  1  0  0  0
 19 20  1  0  0  0
 19 24  1  0  0  0
 20 21  2  0  0  0
 20107  1  0  0  0
 21 23  1  0  0  0
 22 28  1  0  0  0
 22 32  2  0  0  0
 26 27  1  0  0  0
 28108  1  0  0  0
 28109  1  0  0  0
 29110  1  0  0  0
 29111  1  0  0  0
 33 34  1  0  0  0
 33 66  1  0  0  0
 33 70  2  0  0  0
 34 36  1  0  0  0
 34 59  1  0  0  0
 34112  1  0  0  0
 35 44  2  0  0  0
 35 45  1  0  0  0
 35 68  1  0  0  0
 36 56  1  0  0  0
 36113  1  0  0  0
 37 39  1  0  0  0
 37 47  1  0  0  0
 37 66  1  0  0  0
 37114  1  0  0  0
 38 43  2  0  0  0
 38 46  1  0  0  0
 38 47  1  0  0  0
 39 64  1  0  0  0
 39 67  2  0  0  0
 40 52  1  0  0  0
 40 53  2  0  0  0
 40 58  1  0  0  0
 41115  1  0  0  0
 41116  1  0  0  0
 41117  1  0  0  0
 41 48  1  0  0  0
 42 43  1  0  0  0
 42 66  1  0  0  0
 42118  1  0  0  0
 42119  1  0  0  0
 43 44  1  0  0  0
 44120  1  0  0  0
 45 46  2  0  0  0
 45121  1  0  0  0
 46122  1  0  0  0
 47123  1  0  0  0
 47124  1  0  0  0
 48 56  1  0  0  0
 48 65  1  0  0  0
 48125  1  0  0  0
 49 50  1  0  0  0
 49 53  1  0  0  0
 49 64  1  0  0  0
 49126  1  0  0  0
 50 51  1  0  0  0
 50127  1  0  0  0
 50128  1  0  0  0
 51 52  1  0  0  0
 51129  1  0  0  0
 51130  1  0  0  0
 52131  1  0  0  0
 52132  1  0  0  0
 53 54  1  0  0  0
 54 55  2  0  0  0
 54133  1  0  0  0
 55 57  1  0  0  0
 55134  1  0  0  0
 56 69  2  0  0  0
 57 58  2  0  0  0
 57135  1  0  0  0
 58136  1  0  0  0
 59 60  1  0  0  0
 59 61  1  0  0  0
 59 62  1  0  0  0
 60137  1  0  0  0
 60138  1  0  0  0
 60139  1  0  0  0
 61140  1  0  0  0
 61141  1  0  0  0
 61142  1  0  0  0
 62143  1  0  0  0
 62144  1  0  0  0
 62145  1  0  0  0
 63 65  1  0  0  0
 63146  1  0  0  0
 63147  1  0  0  0
 63148  1  0  0  0
 64149  1  0  0  0
 65150  1  0  0  0
 68 82  1  0  0  0
 71 73  2  0  0  0
 71 74  1  0  0  0
 71151  1  0  0  0
 72 73  1  0  0  0
 72 75  2  0  0  0
 72152  1  0  0  0
 73 84  1  0  0  0
 74 76  2  0  0  0
 74 85  1  0  0  0
 75 76  1  0  0  0
 75 86  1  0  0  0
 76 83  1  0  0  0
 77 78  2  0  0  0
 77 82  1  0  0  0
 77 88  1  0  0  0
 78153  1  0  0  0
 78154  1  0  0  0
 79 80  1  0  0  0
 79 81  1  0  0  0
 79155  1  0  0  0
 79156  1  0  0  0
 80 82  1  0  0  0
 80157  1  0  0  0
 80158  1  0  0  0
 81 88  1  0  0  0
 81159  1  0  0  0
 81160  1  0  0  0
 82161  1  0  0  0
 83162  1  0  0  0
 83163  1  0  0  0
 83164  1  0  0  0
 84 87  1  0  0  0
 84165  1  0  0  0
 84166  1  0  0  0
 85167  1  0  0  0
 85168  1  0  0  0
 85 88  1  0  0  0
 86 89  1  0  0  0
 86 90  1  0  0  0
 86 91  1  0  0  0
 87169  1  0  0  0
 88170  1  0  0  0
M  CHG  1  88   1
M  ISO  4   1 100  68 101  82 101  87 100
M  END
> <chiral flag>
0

> <version>
0

> <s_m_source_file>
/data/baiqing/PycharmProjects/Reinvent-master-3.2/result/LINK_invent/BTK/process_docking_weight1_custom_product_contain_oxygen_bond_distance_aromatic_linkinvent_7_9_3/rearranged_h_0042.sdf

> <i_m_source_file_index>
32

> <r_mmod_Potential_Energy-OPLS-2005>
-90.9263305664062

> <r_mmod_Stretch_Energy-OPLS-2005>
57.5236358642578

> <r_mmod_Bend_Energy-OPLS-2005>
173.021423339844

> <r_mmod_Torsional_Energy-OPLS-2005>
199.834976196289

> <r_mmod_Improper_Torsional_Energy-OPLS-2005>
4.28430891036987

> <r_mmod_Van_der_Waal_Energy-OPLS-2005>
155.36393737793

> <r_mmod_Electrostatic_Energy-OPLS-2005>
-256.513946533203

> <r_mmod_Solvation_Energy-OPLS-2005>
-442.764404296875

> <b_mmod_Minimization_Converged-OPLS-2005>
0

> <r_mmod_RMS_Derivative-OPLS-2005>
1.73552763462067

$$$$
32
                    3D
 Structure written by MMmdl.
195205  0  0  1  0            999 V2000
  -30.7372  -14.3946   20.6553 C   0  0  0  0  0  0
  -30.4230  -12.2967   19.3916 C   0  0  0  0  0  0
  -29.4879  -12.5233   18.1885 C   0  0  0  0  0  0
  -28.0107  -12.3802   18.6059 C   0  0  0  0  0  0
  -27.6661  -13.2018   19.8763 C   0  0  2  0  0  0
  -28.7043  -12.9385   20.9876 C   0  0  0  0  0  0
  -25.2610  -13.8151   20.5674 C   0  0  0  0  0  0
  -24.1848  -13.0436   20.9153 C   0  0  0  0  0  0
  -24.6394  -11.6898   20.8707 C   0  0  0  0  0  0
  -23.9053  -10.4290   21.0393 C   0  0  0  0  0  0
  -24.3607   -9.4210   21.9177 C   0  0  0  0  0  0
  -23.6280   -8.2244   22.0752 C   0  0  0  0  0  0
  -22.4266   -8.0280   21.3541 C   0  0  0  0  0  0
  -21.9899   -9.0249   20.4641 C   0  0  0  0  0  0
  -22.7227  -10.2130   20.3046 C   0  0  0  0  0  0
  -21.6852   -6.0733   22.5280 C   0  0  0  0  0  0
  -21.4010   -6.5636   23.8214 C   0  0  0  0  0  0
  -21.3656   -5.6788   24.9172 C   0  0  0  0  0  0
  -21.6049   -4.3050   24.7224 C   0  0  0  0  0  0
  -21.8818   -3.8141   23.4344 C   0  0  0  0  0  0
  -21.9191   -4.6957   22.3404 C   0  0  0  0  0  0
  -22.7874  -13.5233   21.1828 C   0  0  0  0  0  0
  -22.1662   -4.2143   21.0978 F   0  0  0  0  0  0
  -21.5630   -3.4539   25.7734 F   0  0  0  0  0  0
  -30.0424  -13.2459   20.4471 N   0  0  0  0  0  0
  -26.3045  -12.9315   20.3355 N   0  0  0  0  0  0
  -25.9315  -11.6475   20.5731 N   0  0  0  0  0  0
  -22.0508  -12.8234   22.0389 N   0  0  0  0  0  0
  -25.4354  -15.1870   20.4131 N   0  0  0  0  0  0
  -31.7990  -14.6622   20.0847 O   0  0  0  0  0  0
  -21.6638   -6.8873   21.4241 O   0  0  0  0  0  0
  -22.3557  -14.5545   20.6685 O   0  0  0  0  0  0
  -24.6126  -31.8694   23.2098 C   0  0  0  0  0  0
  -25.9025  -32.4832   23.8394 C   0  0  1  0  0  0
  -27.2394  -27.4540   20.0888 C   0  0  0  0  0  0
  -25.5875  -33.8628   24.2327 N   0  0  0  0  0  0
  -23.3994  -30.4919   21.5513 C   0  0  2  0  0  0
  -24.8440  -28.9505   20.1241 C   0  0  0  0  0  0
  -22.7393  -29.4670   22.5012 C   0  0  0  0  0  0
  -18.0264  -28.1374   22.8494 C   0  0  0  0  0  0
  -24.1477  -36.7316   23.2638 C   0  0  0  0  0  0
  -25.9256  -30.8393   21.3591 C   0  0  0  0  0  0
  -26.0030  -29.4723   20.7119 C   0  0  0  0  0  0
  -27.2042  -28.7320   20.6880 C   0  0  0  0  0  0
  -26.0625  -26.9351   19.5078 C   0  0  0  0  0  0
  -24.8665  -27.6792   19.5225 C   0  0  0  0  0  0
  -23.6066  -29.8180   20.1687 C   0  0  0  0  0  0
  -25.4102  -36.3120   24.0337 C   0  0  1  0  0  0
  -20.5853  -28.3661   23.1327 C   0  0  2  0  0  0
  -20.6756  -26.9402   22.5414 C   0  0  0  0  0  0
  -19.5732  -26.6387   21.5211 C   0  0  0  0  0  0
  -18.1913  -26.7924   22.1617 C   0  0  0  0  0  0
  -19.1514  -28.8829   23.2908 C   0  0  0  0  0  0
  -18.9445  -30.1432   23.8920 C   0  0  0  0  0  0
  -17.6455  -30.6585   24.0566 C   0  0  0  0  0  0
  -25.9032  -34.9485   23.5138 C   0  0  0  0  0  0
  -16.5343  -29.9094   23.6322 C   0  0  0  0  0  0
  -16.7257  -28.6504   23.0354 C   0  0  0  0  0  0
  -26.4456  -31.6606   25.0720 C   0  0  0  0  0  0
  -25.3724  -31.3703   26.1469 C   0  0  0  0  0  0
  -27.0291  -30.3058   24.6081 C   0  0  0  0  0  0
  -27.6044  -32.4316   25.7470 C   0  0  0  0  0  0
  -27.5590  -37.1800   24.8458 C   0  0  0  0  0  0
  -21.4124  -29.3038   22.3744 N   0  0  0  0  0  0
  -26.4285  -37.3814   23.9431 N   0  0  0  0  0  0
  -24.6645  -31.0807   22.0991 N   0  0  0  0  0  0
  -23.4175  -28.8215   23.3049 O   0  0  0  0  0  0
  -28.4355  -26.7806   20.0147 O   0  0  0  0  0  0
  -26.5609  -34.8936   22.4709 O   0  0  0  0  0  0
  -23.5320  -32.1433   23.7501 O   0  0  0  0  0  0
  -31.5270  -18.0950   20.2354 C   0  0  0  0  0  0
  -31.4050  -19.2449   19.4259 C   0  0  0  0  0  0
  -30.5061  -17.6971   21.1095 C   0  0  0  0  0  0
  -30.2555  -20.0892   19.5659 C   0  0  0  0  0  0
  -29.1697  -19.6252   20.3774 C   0  0  0  0  0  0
  -29.3015  -18.4295   21.1361 C   0  0  0  0  0  0
  -30.0357  -23.3730   20.6337 C   0  0  0  0  0  0
  -29.5532  -22.8839   21.7913 C   0  0  0  0  0  0
  -32.3356  -15.5701   15.9617 C   0  0  0  0  0  0
  -33.7782  -15.6963   16.4866 C   0  0  0  0  0  0
  -32.3543  -25.5306   20.0278 C   0  0  0  0  0  0
  -31.3154  -16.5161   16.6205 C   0  0  0  0  0  0
  -34.4398  -17.0294   16.0862 C   0  0  0  0  0  0
  -32.8847  -24.0897   19.9806 C   0  0  0  0  0  0
  -30.9977  -25.6903   20.7308 C   0  0  0  0  0  0
  -32.0543  -23.1561   19.0739 C   0  0  0  0  0  0
  -31.7059  -18.0058   16.5962 C   0  0  0  0  0  0
  -34.1635  -18.2186   17.0334 C   0  0  0  0  0  0
  -29.8683  -24.8184   20.1294 C   0  0  2  0  0  0
  -27.8266  -20.3603   20.4327 C   0  0  0  0  0  0
  -30.7448  -16.4903   22.0146 C   0  0  0  0  0  0
  -32.5533  -19.4755   18.4309 C   0  0  0  0  0  0
  -30.2076  -21.4916   18.9124 C   0  0  0  0  0  0
  -28.4681  -25.4161   20.4389 C   0  0  0  0  0  0
  -30.1744  -15.2394   21.5268 N   0  0  0  0  0  0
  -30.9100  -22.4982   19.7672 N   0  3  1  0  0  0
  -32.7826  -18.2738   17.5845 N   0  3  0  0  0  0
  -27.9940  -17.8508   22.1155 Cl  0  0  0  0  0  0
  -31.4657  -12.4068   19.0867 H   0  0  0  0  0  0
  -30.3282  -11.2745   19.7611 H   0  0  0  0  0  0
  -29.7220  -11.8149   17.3928 H   0  0  0  0  0  0
  -29.6588  -13.5172   17.7726 H   0  0  0  0  0  0
  -27.8188  -11.3223   18.7882 H   0  0  0  0  0  0
  -27.3572  -12.6686   17.7817 H   0  0  0  0  0  0
  -27.7239  -14.2565   19.6055 H   0  0  0  0  0  0
  -28.6720  -11.8906   21.2898 H   0  0  0  0  0  0
  -28.4512  -13.4985   21.8878 H   0  0  0  0  0  0
  -25.2749   -9.5692   22.4754 H   0  0  0  0  0  0
  -23.9990   -7.4640   22.7483 H   0  0  0  0  0  0
  -21.0830   -8.8762   19.8951 H   0  0  0  0  0  0
  -22.3679  -10.9662   19.6155 H   0  0  0  0  0  0
  -21.2002   -7.6145   23.9712 H   0  0  0  0  0  0
  -21.1482   -6.0519   25.9077 H   0  0  0  0  0  0
  -22.0601   -2.7605   23.2846 H   0  0  0  0  0  0
  -22.4105  -11.9880   22.4763 H   0  0  0  0  0  0
  -21.1130  -13.1271   22.2590 H   0  0  0  0  0  0
  -24.6787  -15.8476   20.5511 H   0  0  0  0  0  0
  -26.3073  -15.6316   20.1550 H   0  0  0  0  0  0
  -26.7102  -32.5553   23.1167 H   0  0  0  0  0  0
  -25.0003  -33.9786   25.0457 H   0  0  0  0  0  0
  -22.6869  -31.3075   21.4117 H   0  0  0  0  0  0
  -23.3757  -35.9626   23.3264 H   0  0  0  0  0  0
  -24.3581  -36.8968   22.2062 H   0  0  0  0  0  0
  -23.7193  -37.6489   23.6682 H   0  0  0  0  0  0
  -26.0327  -31.6026   20.5869 H   0  0  0  0  0  0
  -26.8151  -30.8957   21.9747 H   0  0  0  0  0  0
  -28.1051  -29.1405   21.1241 H   0  0  0  0  0  0
  -26.0681  -25.9744   19.0149 H   0  0  0  0  0  0
  -23.9765  -27.2735   19.0613 H   0  0  0  0  0  0
  -23.7160  -30.5887   19.4049 H   0  0  0  0  0  0
  -22.7302  -29.2364   19.8767 H   0  0  0  0  0  0
  -25.1271  -36.1977   25.0830 H   0  0  0  0  0  0
  -20.9947  -28.3227   24.1447 H   0  0  0  0  0  0
  -20.5652  -26.2277   23.3602 H   0  0  0  0  0  0
  -21.6633  -26.7455   22.1216 H   0  0  0  0  0  0
  -19.6896  -25.6298   21.1229 H   0  0  0  0  0  0
  -19.6662  -27.3201   20.6741 H   0  0  0  0  0  0
  -17.4188  -26.6674   21.4016 H   0  0  0  0  0  0
  -18.0307  -26.0058   22.9007 H   0  0  0  0  0  0
  -19.7927  -30.7233   24.2308 H   0  0  0  0  0  0
  -17.5020  -31.6268   24.5162 H   0  0  0  0  0  0
  -15.5346  -30.3011   23.7625 H   0  0  0  0  0  0
  -15.8657  -28.0827   22.7069 H   0  0  0  0  0  0
  -24.5876  -30.7082   25.7789 H   0  0  0  0  0  0
  -24.8946  -32.2858   26.4966 H   0  0  0  0  0  0
  -25.8072  -30.8819   27.0199 H   0  0  0  0  0  0
  -26.2827  -29.6799   24.1175 H   0  0  0  0  0  0
  -27.4115  -29.7311   25.4523 H   0  0  0  0  0  0
  -27.8634  -30.4390   23.9192 H   0  0  0  0  0  0
  -27.2697  -33.3638   26.2031 H   0  0  0  0  0  0
  -28.3859  -32.6823   25.0287 H   0  0  0  0  0  0
  -28.0698  -31.8441   26.5391 H   0  0  0  0  0  0
  -28.2573  -38.0136   24.7598 H   0  0  0  0  0  0
  -28.1120  -36.2679   24.6169 H   0  0  0  0  0  0
  -27.2321  -37.1305   25.8858 H   0  0  0  0  0  0
  -20.9282  -29.8770   21.6976 H   0  0  0  0  0  0
  -26.0166  -38.2879   24.1476 H   0  0  0  0  0  0
  -32.4253  -17.4934   20.1959 H   0  0  0  0  0  0
  -28.9660  -23.4923   22.4625 H   0  0  0  0  0  0
  -29.7445  -21.8683   22.1065 H   0  0  0  0  0  0
  -31.9966  -14.5432   16.1091 H   0  0  0  0  0  0
  -32.3296  -15.7249   14.8813 H   0  0  0  0  0  0
  -34.3600  -14.8838   16.0486 H   0  0  0  0  0  0
  -33.8250  -15.5371   17.5651 H   0  0  0  0  0  0
  -32.2889  -25.9299   19.0144 H   0  0  0  0  0  0
  -33.0838  -26.1571   20.5430 H   0  0  0  0  0  0
  -31.1198  -16.1992   17.6462 H   0  0  0  0  0  0
  -30.3646  -16.4010   16.0981 H   0  0  0  0  0  0
  -34.1518  -17.2901   15.0669 H   0  0  0  0  0  0
  -35.5208  -16.8889   16.0425 H   0  0  0  0  0  0
  -32.9924  -23.6801   20.9861 H   0  0  0  0  0  0
  -33.8966  -24.1323   19.5752 H   0  0  0  0  0  0
  -30.7397  -26.7474   20.6713 H   0  0  0  0  0  0
  -31.1003  -25.4850   21.7975 H   0  0  0  0  0  0
  -32.7257  -22.3769   18.7176 H   0  0  0  0  0  0
  -31.7198  -23.6827   18.1793 H   0  0  0  0  0  0
  -30.8164  -18.5853   16.8475 H   0  0  0  0  0  0
  -31.9899  -18.3334   15.5949 H   0  0  0  0  0  0
  -34.3895  -19.1493   16.5099 H   0  0  0  0  0  0
  -34.8604  -18.1670   17.8718 H   0  0  0  0  0  0
  -29.9459  -24.8350   19.0417 H   0  0  0  0  0  0
  -27.8793  -21.4292   20.2551 H   0  0  0  0  0  0
  -27.3495  -20.2699   21.4071 H   0  0  0  0  0  0
  -27.1476  -19.9367   19.6920 H   0  0  0  0  0  0
  -30.3333  -16.6947   23.0035 H   0  0  0  0  0  0
  -31.8160  -16.3622   22.1783 H   0  0  0  0  0  0
  -33.4490  -19.6939   19.0153 H   0  0  0  0  0  0
  -32.4080  -20.3251   17.7697 H   0  0  0  0  0  0
  -29.1951  -21.8227   18.6939 H   0  0  0  0  0  0
  -30.6411  -21.4555   17.9153 H   0  0  0  0  0  0
  -28.2549  -25.3923   21.5080 H   0  0  0  0  0  0
  -27.7048  -24.8175   19.9413 H   0  0  0  0  0  0
  -29.2981  -14.9505   21.9331 H   0  0  0  0  0  0
  -31.3883  -21.8954   20.4192 H   0  0  0  0  0  0
  -32.7238  -17.5034   18.2329 H   0  0  0  0  0  0
  1 25  1  0  0  0
  1 30  2  0  0  0
  1 95  1  0  0  0
  2  3  1  0  0  0
  2 25  1  0  0  0
  2 99  1  0  0  0
  2100  1  0  0  0
  3  4  1  0  0  0
  3101  1  0  0  0
  3102  1  0  0  0
  4  5  1  0  0  0
  4103  1  0  0  0
  4104  1  0  0  0
  5  6  1  0  0  0
  5 26  1  0  0  0
  5105  1  0  0  0
  6 25  1  0  0  0
  6106  1  0  0  0
  6107  1  0  0  0
  7  8  2  0  0  0
  7 26  1  0  0  0
  7 29  1  0  0  0
  8  9  1  0  0  0
  8 22  1  0  0  0
  9 10  1  0  0  0
  9 27  2  0  0  0
 10 11  2  0  0  0
 10 15  1  0  0  0
 11 12  1  0  0  0
 11108  1  0  0  0
 12 13  2  0  0  0
 12109  1  0  0  0
 13 14  1  0  0  0
 13 31  1  0  0  0
 14 15  2  0  0  0
 14110  1  0  0  0
 15111  1  0  0  0
 16 17  2  0  0  0
 16 21  1  0  0  0
 16 31  1  0  0  0
 17 18  1  0  0  0
 17112  1  0  0  0
 18 19  2  0  0  0
 18113  1  0  0  0
 19 20  1  0  0  0
 19 24  1  0  0  0
 20 21  2  0  0  0
 20114  1  0  0  0
 21 23  1  0  0  0
 22 28  1  0  0  0
 22 32  2  0  0  0
 26 27  1  0  0  0
 28115  1  0  0  0
 28116  1  0  0  0
 29117  1  0  0  0
 29118  1  0  0  0
 33 34  1  0  0  0
 33 66  1  0  0  0
 33 70  2  0  0  0
 34 36  1  0  0  0
 34 59  1  0  0  0
 34119  1  0  0  0
 35 44  2  0  0  0
 35 45  1  0  0  0
 35 68  1  0  0  0
 36 56  1  0  0  0
 36120  1  0  0  0
 37 39  1  0  0  0
 37 47  1  0  0  0
 37 66  1  0  0  0
 37121  1  0  0  0
 38 43  2  0  0  0
 38 46  1  0  0  0
 38 47  1  0  0  0
 39 64  1  0  0  0
 39 67  2  0  0  0
 40 52  1  0  0  0
 40 53  2  0  0  0
 40 58  1  0  0  0
 41122  1  0  0  0
 41123  1  0  0  0
 41124  1  0  0  0
 41 48  1  0  0  0
 42 43  1  0  0  0
 42 66  1  0  0  0
 42125  1  0  0  0
 42126  1  0  0  0
 43 44  1  0  0  0
 44127  1  0  0  0
 45 46  2  0  0  0
 45128  1  0  0  0
 46129  1  0  0  0
 47130  1  0  0  0
 47131  1  0  0  0
 48 56  1  0  0  0
 48 65  1  0  0  0
 48132  1  0  0  0
 49 50  1  0  0  0
 49 53  1  0  0  0
 49 64  1  0  0  0
 49133  1  0  0  0
 50 51  1  0  0  0
 50134  1  0  0  0
 50135  1  0  0  0
 51 52  1  0  0  0
 51136  1  0  0  0
 51137  1  0  0  0
 52138  1  0  0  0
 52139  1  0  0  0
 53 54  1  0  0  0
 54 55  2  0  0  0
 54140  1  0  0  0
 55 57  1  0  0  0
 55141  1  0  0  0
 56 69  2  0  0  0
 57 58  2  0  0  0
 57142  1  0  0  0
 58143  1  0  0  0
 59 60  1  0  0  0
 59 61  1  0  0  0
 59 62  1  0  0  0
 60144  1  0  0  0
 60145  1  0  0  0
 60146  1  0  0  0
 61147  1  0  0  0
 61148  1  0  0  0
 61149  1  0  0  0
 62150  1  0  0  0
 62151  1  0  0  0
 62152  1  0  0  0
 63 65  1  0  0  0
 63153  1  0  0  0
 63154  1  0  0  0
 63155  1  0  0  0
 64156  1  0  0  0
 65157  1  0  0  0
 68 94  1  0  0  0
 71 72  2  0  0  0
 71 73  1  0  0  0
 71158  1  0  0  0
 72 74  1  0  0  0
 72 92  1  0  0  0
 73 76  2  0  0  0
 73 91  1  0  0  0
 74 75  2  0  0  0
 74 93  1  0  0  0
 75 76  1  0  0  0
 75 90  1  0  0  0
 76 98  1  0  0  0
 77 78  2  0  0  0
 77 89  1  0  0  0
 77 96  1  0  0  0
 78159  1  0  0  0
 78160  1  0  0  0
 79 80  1  0  0  0
 79 82  1  0  0  0
 79161  1  0  0  0
 79162  1  0  0  0
 80 83  1  0  0  0
 80163  1  0  0  0
 80164  1  0  0  0
 81 84  1  0  0  0
 81 85  1  0  0  0
 81165  1  0  0  0
 81166  1  0  0  0
 82 87  1  0  0  0
 82167  1  0  0  0
 82168  1  0  0  0
 83 88  1  0  0  0
 83169  1  0  0  0
 83170  1  0  0  0
 84 86  1  0  0  0
 84171  1  0  0  0
 84172  1  0  0  0
 85 89  1  0  0  0
 85173  1  0  0  0
 85174  1  0  0  0
 86 96  1  0  0  0
 86175  1  0  0  0
 86176  1  0  0  0
 87 97  1  0  0  0
 87177  1  0  0  0
 87178  1  0  0  0
 88 97  1  0  0  0
 88179  1  0  0  0
 88180  1  0  0  0
 89 94  1  0  0  0
 89181  1  0  0  0
 90182  1  0  0  0
 90183  1  0  0  0
 90184  1  0  0  0
 91 95  1  0  0  0
 91185  1  0  0  0
 91186  1  0  0  0
 92187  1  0  0  0
 92188  1  0  0  0
 92 97  1  0  0  0
 93189  1  0  0  0
 93190  1  0  0  0
 93 96  1  0  0  0
 94191  1  0  0  0
 94192  1  0  0  0
 95193  1  0  0  0
 96194  1  0  0  0
 97195  1  0  0  0
M  CHG  2  96   1  97   1
M  ISO  4   1 100  68 101  94 101  95 100
M  END
> <chiral flag>
0

> <version>
0

> <s_m_source_file>
/data/baiqing/PycharmProjects/Reinvent-master-3.2/result/LINK_invent/BTK/process_docking_weight1_custom_product_contain_oxygen_bond_distance_aromatic_linkinvent_7_9_3/rearranged_h_0042.sdf

> <i_m_source_file_index>
33

> <r_mmod_Potential_Energy-OPLS-2005>
-175.993637084961

> <r_mmod_Stretch_Energy-OPLS-2005>
47.161506652832

> <r_mmod_Bend_Energy-OPLS-2005>
132.138244628906

> <r_mmod_Torsional_Energy-OPLS-2005>
284.465606689453

> <r_mmod_Improper_Torsional_Energy-OPLS-2005>
2.00964069366455

> <r_mmod_Van_der_Waal_Energy-OPLS-2005>
154.055221557617

> <r_mmod_Electrostatic_Energy-OPLS-2005>
72.1361846923828

> <r_mmod_Solvation_Energy-OPLS-2005>
-875.492553710938

> <b_mmod_Minimization_Converged-OPLS-2005>
0

> <r_mmod_RMS_Derivative-OPLS-2005>
1.19779670238495

$$$$
33
                    3D
 Structure written by MMmdl.
156164  0  0  1  0            999 V2000
  -30.6082  -14.7329   20.4808 C   0  0  0  0  0  0
  -30.4406  -12.4558   19.4561 C   0  0  0  0  0  0
  -29.5100  -12.5059   18.2247 C   0  0  0  0  0  0
  -28.0376  -12.3244   18.6452 C   0  0  0  0  0  0
  -27.6430  -13.2246   19.8460 C   0  0  2  0  0  0
  -28.6909  -13.1511   20.9778 C   0  0  0  0  0  0
  -25.2524  -13.8184   20.5670 C   0  0  0  0  0  0
  -24.1816  -13.0445   20.9212 C   0  0  0  0  0  0
  -24.6395  -11.6918   20.8755 C   0  0  0  0  0  0
  -23.9069  -10.4297   21.0422 C   0  0  0  0  0  0
  -24.3621   -9.4202   21.9193 C   0  0  0  0  0  0
  -23.6294   -8.2240   22.0752 C   0  0  0  0  0  0
  -22.4272   -8.0291   21.3544 C   0  0  0  0  0  0
  -21.9915   -9.0264   20.4638 C   0  0  0  0  0  0
  -22.7248  -10.2139   20.3059 C   0  0  0  0  0  0
  -21.6852   -6.0745   22.5284 C   0  0  0  0  0  0
  -21.4009   -6.5644   23.8219 C   0  0  0  0  0  0
  -21.3662   -5.6792   24.9181 C   0  0  0  0  0  0
  -21.6051   -4.3056   24.7228 C   0  0  0  0  0  0
  -21.8818   -3.8149   23.4347 C   0  0  0  0  0  0
  -21.9186   -4.6972   22.3402 C   0  0  0  0  0  0
  -22.7832  -13.5227   21.1877 C   0  0  0  0  0  0
  -22.1657   -4.2169   21.0980 F   0  0  0  0  0  0
  -21.5632   -3.4533   25.7734 F   0  0  0  0  0  0
  -29.9889  -13.5081   20.3902 N   0  0  0  0  0  0
  -26.2946  -12.9383   20.3253 N   0  0  0  0  0  0
  -25.9326  -11.6536   20.5749 N   0  0  0  0  0  0
  -22.0459  -12.8219   22.0412 N   0  0  0  0  0  0
  -25.4193  -15.1920   20.4069 N   0  0  0  0  0  0
  -31.8068  -14.8451   20.2097 O   0  0  0  0  0  0
  -21.6635   -6.8893   21.4243 O   0  0  0  0  0  0
  -22.3524  -14.5543   20.6728 O   0  0  0  0  0  0
  -24.6309  -31.8562   23.2005 C   0  0  0  0  0  0
  -25.9125  -32.4765   23.8354 C   0  0  1  0  0  0
  -27.2157  -27.2648   20.1239 C   0  0  0  0  0  0
  -25.5931  -33.8566   24.2277 N   0  0  0  0  0  0
  -23.4280  -30.4818   21.5453 C   0  0  2  0  0  0
  -24.8740  -28.9353   20.1131 C   0  0  0  0  0  0
  -22.7508  -29.4584   22.4903 C   0  0  0  0  0  0
  -18.0293  -28.1390   22.8458 C   0  0  0  0  0  0
  -24.1489  -36.7291   23.2644 C   0  0  0  0  0  0
  -25.9743  -30.7736   21.3798 C   0  0  0  0  0  0
  -26.0484  -29.3963   20.7212 C   0  0  0  0  0  0
  -27.2218  -28.5742   20.7148 C   0  0  0  0  0  0
  -26.0133  -26.8764   19.4864 C   0  0  0  0  0  0
  -24.8621  -27.6836   19.4848 C   0  0  0  0  0  0
  -23.6490  -29.8262   20.1584 C   0  0  0  0  0  0
  -25.4120  -36.3076   24.0332 C   0  0  1  0  0  0
  -20.5902  -28.3696   23.1272 C   0  0  2  0  0  0
  -20.6786  -26.9418   22.5400 C   0  0  0  0  0  0
  -19.5764  -26.6385   21.5204 C   0  0  0  0  0  0
  -18.1933  -26.7925   22.1604 C   0  0  0  0  0  0
  -19.1550  -28.8858   23.2854 C   0  0  0  0  0  0
  -18.9473  -30.1452   23.8888 C   0  0  0  0  0  0
  -17.6472  -30.6589   24.0553 C   0  0  0  0  0  0
  -25.9054  -34.9447   23.5106 C   0  0  0  0  0  0
  -16.5358  -29.9091   23.6323 C   0  0  0  0  0  0
  -16.7282  -28.6512   23.0334 C   0  0  0  0  0  0
  -26.4504  -31.6601   25.0734 C   0  0  0  0  0  0
  -25.3729  -31.3752   26.1458 C   0  0  0  0  0  0
  -27.0357  -30.3029   24.6206 C   0  0  0  0  0  0
  -27.6074  -32.4330   25.7495 C   0  0  0  0  0  0
  -27.5584  -37.1801   24.8471 C   0  0  0  0  0  0
  -21.4212  -29.3049   22.3666 N   0  0  0  0  0  0
  -26.4293  -37.3773   23.9418 N   0  0  0  0  0  0
  -24.6974  -31.0536   22.0989 N   0  0  0  0  0  0
  -23.4208  -28.8094   23.2977 O   0  0  0  0  0  0
  -28.3117  -26.3694   20.1648 O   0  0  0  0  0  0
  -26.5606  -34.8909   22.4659 O   0  0  0  0  0  0
  -23.5461  -32.1362   23.7317 O   0  0  0  0  0  0
  -29.6877  -18.4386   20.3261 C   0  0  0  0  0  0
  -30.7033  -18.7414   22.8929 C   0  0  0  0  0  0
  -29.8494  -19.7936   20.8444 C   0  0  0  0  0  0
  -30.5482  -17.4354   22.3771 C   0  0  0  0  0  0
  -30.0522  -17.2331   21.0616 C   0  0  0  0  0  0
  -30.3746  -19.8935   22.1526 C   0  0  0  0  0  0
  -30.8991  -16.2734   23.2936 C   0  0  0  0  0  0
  -29.6461  -21.1401   20.0076 C   0  0  0  0  0  0
  -29.1878  -23.7649   20.2374 C   0  0  0  0  0  0
  -28.0297  -24.8892   20.2031 C   0  0  0  0  0  0
  -29.7924  -15.8494   20.5968 N   0  0  0  0  0  0
  -28.7822  -22.3004   20.5275 N   0  3  0  0  0  0
  -30.6518  -21.4329   22.8888 Cl  0  0  0  0  0  0
  -31.4783  -12.5972   19.1491 H   0  0  0  0  0  0
  -30.3953  -11.4764   19.9359 H   0  0  0  0  0  0
  -29.7927  -11.7341   17.5074 H   0  0  0  0  0  0
  -29.6314  -13.4620   17.7118 H   0  0  0  0  0  0
  -27.8992  -11.2757   18.9118 H   0  0  0  0  0  0
  -27.3767  -12.5106   17.7977 H   0  0  0  0  0  0
  -27.6360  -14.2454   19.4647 H   0  0  0  0  0  0
  -28.7283  -12.1505   21.4124 H   0  0  0  0  0  0
  -28.4281  -13.8282   21.7919 H   0  0  0  0  0  0
  -25.2769   -9.5688   22.4765 H   0  0  0  0  0  0
  -24.0013   -7.4632   22.7470 H   0  0  0  0  0  0
  -21.0851   -8.8793   19.8933 H   0  0  0  0  0  0
  -22.3722  -10.9689   19.6169 H   0  0  0  0  0  0
  -21.1996   -7.6150   23.9738 H   0  0  0  0  0  0
  -21.1487   -6.0512   25.9092 H   0  0  0  0  0  0
  -22.0588   -2.7613   23.2838 H   0  0  0  0  0  0
  -22.4046  -11.9879   22.4818 H   0  0  0  0  0  0
  -21.1080  -13.1262   22.2616 H   0  0  0  0  0  0
  -24.6419  -15.8369   20.5079 H   0  0  0  0  0  0
  -26.2583  -15.6365   20.0581 H   0  0  0  0  0  0
  -26.7192  -32.5431   23.1109 H   0  0  0  0  0  0
  -25.0116  -33.9716   25.0444 H   0  0  0  0  0  0
  -22.7236  -31.3046   21.4040 H   0  0  0  0  0  0
  -23.3747  -35.9622   23.3298 H   0  0  0  0  0  0
  -24.3585  -36.8905   22.2055 H   0  0  0  0  0  0
  -23.7230  -37.6489   23.6665 H   0  0  0  0  0  0
  -26.1096  -31.5352   20.6108 H   0  0  0  0  0  0
  -26.8519  -30.8253   22.0127 H   0  0  0  0  0  0
  -28.1226  -28.9215   21.2010 H   0  0  0  0  0  0
  -25.9214  -25.9339   18.9726 H   0  0  0  0  0  0
  -23.9640  -27.3334   18.9942 H   0  0  0  0  0  0
  -23.7865  -30.6097   19.4117 H   0  0  0  0  0  0
  -22.7658  -29.2699   19.8423 H   0  0  0  0  0  0
  -25.1293  -36.1937   25.0822 H   0  0  0  0  0  0
  -20.9982  -28.3266   24.1399 H   0  0  0  0  0  0
  -20.5693  -26.2300   23.3586 H   0  0  0  0  0  0
  -21.6649  -26.7434   22.1192 H   0  0  0  0  0  0
  -19.6928  -25.6296   21.1240 H   0  0  0  0  0  0
  -19.6720  -27.3179   20.6719 H   0  0  0  0  0  0
  -17.4195  -26.6657   21.4009 H   0  0  0  0  0  0
  -18.0349  -26.0067   22.9010 H   0  0  0  0  0  0
  -19.7956  -30.7251   24.2274 H   0  0  0  0  0  0
  -17.5039  -31.6274   24.5149 H   0  0  0  0  0  0
  -15.5366  -30.2992   23.7675 H   0  0  0  0  0  0
  -15.8665  -28.0842   22.7063 H   0  0  0  0  0  0
  -24.5940  -30.7050   25.7811 H   0  0  0  0  0  0
  -24.8878  -32.2916   26.4821 H   0  0  0  0  0  0
  -25.8041  -30.8993   27.0273 H   0  0  0  0  0  0
  -26.2947  -29.6766   24.1231 H   0  0  0  0  0  0
  -27.4067  -29.7294   25.4711 H   0  0  0  0  0  0
  -27.8799  -30.4324   23.9429 H   0  0  0  0  0  0
  -27.2731  -33.3669   26.2025 H   0  0  0  0  0  0
  -28.3910  -32.6824   25.0330 H   0  0  0  0  0  0
  -28.0711  -31.8473   26.5441 H   0  0  0  0  0  0
  -28.2597  -38.0103   24.7506 H   0  0  0  0  0  0
  -28.1070  -36.2622   24.6303 H   0  0  0  0  0  0
  -27.2289  -37.1459   25.8870 H   0  0  0  0  0  0
  -20.9385  -29.8818   21.6922 H   0  0  0  0  0  0
  -26.0164  -38.2838   24.1433 H   0  0  0  0  0  0
  -29.3017  -18.3248   19.3233 H   0  0  0  0  0  0
  -31.0881  -18.8762   23.8945 H   0  0  0  0  0  0
  -30.9856  -16.5971   24.3306 H   0  0  0  0  0  0
  -31.8540  -15.8364   23.0014 H   0  0  0  0  0  0
  -30.1319  -15.4994   23.2705 H   0  0  0  0  0  0
  -29.2978  -20.8791   19.0073 H   0  0  0  0  0  0
  -30.6500  -21.5411   19.8558 H   0  0  0  0  0  0
  -29.9276  -24.0519   20.9879 H   0  0  0  0  0  0
  -29.7091  -23.7986   19.2800 H   0  0  0  0  0  0
  -27.4516  -24.6260   19.3200 H   0  0  0  0  0  0
  -27.3710  -24.7198   21.0562 H   0  0  0  0  0  0
  -28.8131  -15.6309   20.4971 H   0  0  0  0  0  0
  -27.8490  -22.1431   20.1780 H   0  0  0  0  0  0
  -28.7376  -22.1965   21.5304 H   0  0  0  0  0  0
  1 25  1  0  0  0
  1 30  2  0  0  0
  1 81  1  0  0  0
  2  3  1  0  0  0
  2 25  1  0  0  0
  2 84  1  0  0  0
  2 85  1  0  0  0
  3  4  1  0  0  0
  3 86  1  0  0  0
  3 87  1  0  0  0
  4  5  1  0  0  0
  4 88  1  0  0  0
  4 89  1  0  0  0
  5  6  1  0  0  0
  5 26  1  0  0  0
  5 90  1  0  0  0
  6 25  1  0  0  0
  6 91  1  0  0  0
  6 92  1  0  0  0
  7  8  2  0  0  0
  7 26  1  0  0  0
  7 29  1  0  0  0
  8  9  1  0  0  0
  8 22  1  0  0  0
  9 10  1  0  0  0
  9 27  2  0  0  0
 10 11  2  0  0  0
 10 15  1  0  0  0
 11 12  1  0  0  0
 11 93  1  0  0  0
 12 13  2  0  0  0
 12 94  1  0  0  0
 13 14  1  0  0  0
 13 31  1  0  0  0
 14 15  2  0  0  0
 14 95  1  0  0  0
 15 96  1  0  0  0
 16 17  2  0  0  0
 16 21  1  0  0  0
 16 31  1  0  0  0
 17 18  1  0  0  0
 17 97  1  0  0  0
 18 19  2  0  0  0
 18 98  1  0  0  0
 19 20  1  0  0  0
 19 24  1  0  0  0
 20 21  2  0  0  0
 20 99  1  0  0  0
 21 23  1  0  0  0
 22 28  1  0  0  0
 22 32  2  0  0  0
 26 27  1  0  0  0
 28100  1  0  0  0
 28101  1  0  0  0
 29102  1  0  0  0
 29103  1  0  0  0
 33 34  1  0  0  0
 33 66  1  0  0  0
 33 70  2  0  0  0
 34 36  1  0  0  0
 34 59  1  0  0  0
 34104  1  0  0  0
 35 44  2  0  0  0
 35 45  1  0  0  0
 35 68  1  0  0  0
 36 56  1  0  0  0
 36105  1  0  0  0
 37 39  1  0  0  0
 37 47  1  0  0  0
 37 66  1  0  0  0
 37106  1  0  0  0
 38 43  2  0  0  0
 38 46  1  0  0  0
 38 47  1  0  0  0
 39 64  1  0  0  0
 39 67  2  0  0  0
 40 52  1  0  0  0
 40 53  2  0  0  0
 40 58  1  0  0  0
 41107  1  0  0  0
 41108  1  0  0  0
 41109  1  0  0  0
 41 48  1  0  0  0
 42 43  1  0  0  0
 42 66  1  0  0  0
 42110  1  0  0  0
 42111  1  0  0  0
 43 44  1  0  0  0
 44112  1  0  0  0
 45 46  2  0  0  0
 45113  1  0  0  0
 46114  1  0  0  0
 47115  1  0  0  0
 47116  1  0  0  0
 48 56  1  0  0  0
 48 65  1  0  0  0
 48117  1  0  0  0
 49 50  1  0  0  0
 49 53  1  0  0  0
 49 64  1  0  0  0
 49118  1  0  0  0
 50 51  1  0  0  0
 50119  1  0  0  0
 50120  1  0  0  0
 51 52  1  0  0  0
 51121  1  0  0  0
 51122  1  0  0  0
 52123  1  0  0  0
 52124  1  0  0  0
 53 54  1  0  0  0
 54 55  2  0  0  0
 54125  1  0  0  0
 55 57  1  0  0  0
 55126  1  0  0  0
 56 69  2  0  0  0
 57 58  2  0  0  0
 57127  1  0  0  0
 58128  1  0  0  0
 59 60  1  0  0  0
 59 61  1  0  0  0
 59 62  1  0  0  0
 60129  1  0  0  0
 60130  1  0  0  0
 60131  1  0  0  0
 61132  1  0  0  0
 61133  1  0  0  0
 61134  1  0  0  0
 62135  1  0  0  0
 62136  1  0  0  0
 62137  1  0  0  0
 63 65  1  0  0  0
 63138  1  0  0  0
 63139  1  0  0  0
 63140  1  0  0  0
 64141  1  0  0  0
 65142  1  0  0  0
 68 80  1  0  0  0
 71 73  2  0  0  0
 71 75  1  0  0  0
 71143  1  0  0  0
 72 74  1  0  0  0
 72 76  2  0  0  0
 72144  1  0  0  0
 73 76  1  0  0  0
 73 78  1  0  0  0
 74 75  2  0  0  0
 74 77  1  0  0  0
 75 81  1  0  0  0
 76 83  1  0  0  0
 77145  1  0  0  0
 77146  1  0  0  0
 77147  1  0  0  0
 78 82  1  0  0  0
 78148  1  0  0  0
 78149  1  0  0  0
 79 80  1  0  0  0
 79 82  1  0  0  0
 79150  1  0  0  0
 79151  1  0  0  0
 80152  1  0  0  0
 80153  1  0  0  0
 81154  1  0  0  0
 82155  1  0  0  0
 82156  1  0  0  0
M  CHG  1  82   1
M  ISO  4   1 100  68 101  80 101  81 100
M  END
> <chiral flag>
0

> <version>
0

> <s_m_source_file>
/data/baiqing/PycharmProjects/Reinvent-master-3.2/result/LINK_invent/BTK/process_docking_weight1_custom_product_contain_oxygen_bond_distance_aromatic_linkinvent_7_9_3/rearranged_h_0042.sdf

> <i_m_source_file_index>
34

> <r_mmod_Potential_Energy-OPLS-2005>
-20.337947845459

> <r_mmod_Stretch_Energy-OPLS-2005>
119.457542419434

> <r_mmod_Bend_Energy-OPLS-2005>
157.998901367188

> <r_mmod_Torsional_Energy-OPLS-2005>
246.294555664062

> <r_mmod_Improper_Torsional_Energy-OPLS-2005>
8.24215888977051

> <r_mmod_Van_der_Waal_Energy-OPLS-2005>
142.496871948242

> <r_mmod_Electrostatic_Energy-OPLS-2005>
-318.954895019531

> <r_mmod_Solvation_Energy-OPLS-2005>
-458.875213623047

> <b_mmod_Minimization_Converged-OPLS-2005>
0

> <r_mmod_RMS_Derivative-OPLS-2005>
2.28216195106506

$$$$
34
                    3D
 Structure written by MMmdl.
164173  0  0  1  0            999 V2000
  -30.6368  -14.7170   20.4882 C   0  0  0  0  0  0
  -30.4317  -12.4444   19.4652 C   0  0  0  0  0  0
  -29.5054  -12.5034   18.2311 C   0  0  0  0  0  0
  -28.0338  -12.3271   18.6518 C   0  0  0  0  0  0
  -27.6436  -13.2286   19.8530 C   0  0  2  0  0  0
  -28.6901  -13.1605   20.9869 C   0  0  0  0  0  0
  -25.2519  -13.8181   20.5710 C   0  0  0  0  0  0
  -24.1815  -13.0437   20.9227 C   0  0  0  0  0  0
  -24.6401  -11.6912   20.8772 C   0  0  0  0  0  0
  -23.9081  -10.4290   21.0425 C   0  0  0  0  0  0
  -24.3630   -9.4202   21.9198 C   0  0  0  0  0  0
  -23.6304   -8.2238   22.0762 C   0  0  0  0  0  0
  -22.4285   -8.0284   21.3553 C   0  0  0  0  0  0
  -21.9928   -9.0260   20.4654 C   0  0  0  0  0  0
  -22.7259  -10.2137   20.3067 C   0  0  0  0  0  0
  -21.6851   -6.0743   22.5277 C   0  0  0  0  0  0
  -21.4009   -6.5647   23.8214 C   0  0  0  0  0  0
  -21.3660   -5.6799   24.9177 C   0  0  0  0  0  0
  -21.6046   -4.3059   24.7229 C   0  0  0  0  0  0
  -21.8818   -3.8155   23.4345 C   0  0  0  0  0  0
  -21.9192   -4.6968   22.3400 C   0  0  0  0  0  0
  -22.7836  -13.5219   21.1876 C   0  0  0  0  0  0
  -22.1663   -4.2157   21.0973 F   0  0  0  0  0  0
  -21.5631   -3.4537   25.7743 F   0  0  0  0  0  0
  -29.9920  -13.5045   20.4014 N   0  0  0  0  0  0
  -26.2949  -12.9395   20.3306 N   0  0  0  0  0  0
  -25.9329  -11.6538   20.5780 N   0  0  0  0  0  0
  -22.0483  -12.8199   22.0419 N   0  0  0  0  0  0
  -25.4190  -15.1897   20.4070 N   0  0  0  0  0  0
  -31.8232  -14.7985   20.1596 O   0  0  0  0  0  0
  -21.6645   -6.8888   21.4241 O   0  0  0  0  0  0
  -22.3528  -14.5539   20.6733 O   0  0  0  0  0  0
  -24.6318  -31.8551   23.1994 C   0  0  0  0  0  0
  -25.9148  -32.4737   23.8332 C   0  0  1  0  0  0
  -27.2131  -27.2533   20.1275 C   0  0  0  0  0  0
  -25.5953  -33.8541   24.2257 N   0  0  0  0  0  0
  -23.4263  -30.4780   21.5453 C   0  0  2  0  0  0
  -24.8724  -28.9297   20.1078 C   0  0  0  0  0  0
  -22.7502  -29.4588   22.4941 C   0  0  0  0  0  0
  -18.0287  -28.1383   22.8479 C   0  0  0  0  0  0
  -24.1497  -36.7272   23.2632 C   0  0  0  0  0  0
  -25.9720  -30.7665   21.3778 C   0  0  0  0  0  0
  -26.0428  -29.3868   20.7248 C   0  0  0  0  0  0
  -27.2103  -28.5578   20.7314 C   0  0  0  0  0  0
  -26.0253  -26.8849   19.4494 C   0  0  0  0  0  0
  -24.8702  -27.6884   19.4590 C   0  0  0  0  0  0
  -23.6413  -29.8131   20.1605 C   0  0  0  0  0  0
  -25.4117  -36.3054   24.0323 C   0  0  1  0  0  0
  -20.5890  -28.3685   23.1295 C   0  0  2  0  0  0
  -20.6773  -26.9403   22.5432 C   0  0  0  0  0  0
  -19.5764  -26.6378   21.5221 C   0  0  0  0  0  0
  -18.1927  -26.7928   22.1605 C   0  0  0  0  0  0
  -19.1540  -28.8855   23.2871 C   0  0  0  0  0  0
  -18.9453  -30.1457   23.8882 C   0  0  0  0  0  0
  -17.6452  -30.6581   24.0563 C   0  0  0  0  0  0
  -25.9068  -34.9429   23.5090 C   0  0  0  0  0  0
  -16.5347  -29.9077   23.6337 C   0  0  0  0  0  0
  -16.7273  -28.6503   23.0345 C   0  0  0  0  0  0
  -26.4517  -31.6544   25.0708 C   0  0  0  0  0  0
  -25.3733  -31.3687   26.1420 C   0  0  0  0  0  0
  -27.0328  -30.2956   24.6154 C   0  0  0  0  0  0
  -27.6104  -32.4256   25.7458 C   0  0  0  0  0  0
  -27.5574  -37.1785   24.8463 C   0  0  0  0  0  0
  -21.4211  -29.3030   22.3688 N   0  0  0  0  0  0
  -26.4284  -37.3755   23.9410 N   0  0  0  0  0  0
  -24.6965  -31.0507   22.0977 N   0  0  0  0  0  0
  -23.4201  -28.8125   23.3038 O   0  0  0  0  0  0
  -28.3117  -26.3613   20.2295 O   0  0  0  0  0  0
  -26.5627  -34.8907   22.4651 O   0  0  0  0  0  0
  -23.5476  -32.1391   23.7292 O   0  0  0  0  0  0
  -31.0450  -19.9923   21.4558 C   0  0  0  0  0  0
  -31.5484  -17.5963   21.3293 C   0  0  0  0  0  0
  -29.7303  -19.8058   20.9795 C   0  0  0  0  0  0
  -29.3377  -18.4202   20.7055 C   0  0  0  0  0  0
  -30.2450  -17.2847   20.8789 C   0  0  0  0  0  0
  -31.9381  -18.9175   21.6158 C   0  0  0  0  0  0
  -28.6229  -23.8074   20.9322 C   0  0  0  0  0  0
  -28.7905  -24.0546   22.2435 C   0  0  0  0  0  0
  -30.3411  -23.9349   18.7672 C   0  0  0  0  0  0
  -28.9730  -24.6349   18.5444 C   0  0  0  0  0  0
  -30.2436  -22.5482   19.4741 C   0  0  0  0  0  0
  -28.2080  -24.8975   19.8666 C   0  0  2  0  0  0
  -27.9080  -18.1448   20.2634 C   0  0  0  0  0  0
  -28.7633  -21.0850   21.0201 C   0  0  0  0  0  0
  -29.8698  -15.8541   20.7061 N   0  0  0  0  0  0
  -29.0098  -22.4291   20.2915 N   0  3  1  0  0  0
  -33.5245  -19.2210   22.2225 Cl  0  0  0  0  0  0
  -31.4715  -12.5650   19.1568 H   0  0  0  0  0  0
  -30.3728  -11.4667   19.9463 H   0  0  0  0  0  0
  -29.7828  -11.7303   17.5132 H   0  0  0  0  0  0
  -29.6293  -13.4577   17.7166 H   0  0  0  0  0  0
  -27.8955  -11.2790   18.9202 H   0  0  0  0  0  0
  -27.3710  -12.5148   17.8065 H   0  0  0  0  0  0
  -27.6388  -14.2498   19.4712 H   0  0  0  0  0  0
  -28.7236  -12.1645   21.4304 H   0  0  0  0  0  0
  -28.4300  -13.8467   21.7949 H   0  0  0  0  0  0
  -25.2766   -9.5676   22.4781 H   0  0  0  0  0  0
  -24.0013   -7.4625   22.7472 H   0  0  0  0  0  0
  -21.0866   -8.8781   19.8951 H   0  0  0  0  0  0
  -22.3722  -10.9685   19.6181 H   0  0  0  0  0  0
  -21.1998   -7.6156   23.9722 H   0  0  0  0  0  0
  -21.1484   -6.0530   25.9087 H   0  0  0  0  0  0
  -22.0594   -2.7615   23.2844 H   0  0  0  0  0  0
  -22.4099  -11.9836   22.4765 H   0  0  0  0  0  0
  -21.1098  -13.1216   22.2641 H   0  0  0  0  0  0
  -24.6421  -15.8342   20.4997 H   0  0  0  0  0  0
  -26.2411  -15.6170   20.0052 H   0  0  0  0  0  0
  -26.7207  -32.5384   23.1062 H   0  0  0  0  0  0
  -25.0133  -33.9682   25.0426 H   0  0  0  0  0  0
  -22.7221  -31.3003   21.4020 H   0  0  0  0  0  0
  -23.3753  -35.9604   23.3273 H   0  0  0  0  0  0
  -24.3600  -36.8919   22.2052 H   0  0  0  0  0  0
  -23.7267  -37.6474   23.6674 H   0  0  0  0  0  0
  -26.0993  -31.5201   20.5993 H   0  0  0  0  0  0
  -26.8557  -30.8255   22.0018 H   0  0  0  0  0  0
  -28.1002  -28.8969   21.2430 H   0  0  0  0  0  0
  -25.9340  -25.9627   18.8995 H   0  0  0  0  0  0
  -23.9788  -27.3417   18.9543 H   0  0  0  0  0  0
  -23.7558  -30.5897   19.4046 H   0  0  0  0  0  0
  -22.7607  -29.2425   19.8610 H   0  0  0  0  0  0
  -25.1292  -36.1889   25.0811 H   0  0  0  0  0  0
  -20.9967  -28.3260   24.1426 H   0  0  0  0  0  0
  -20.5672  -26.2291   23.3628 H   0  0  0  0  0  0
  -21.6641  -26.7419   22.1238 H   0  0  0  0  0  0
  -19.6933  -25.6292   21.1250 H   0  0  0  0  0  0
  -19.6730  -27.3191   20.6756 H   0  0  0  0  0  0
  -17.4219  -26.6709   21.3975 H   0  0  0  0  0  0
  -18.0290  -26.0052   22.8982 H   0  0  0  0  0  0
  -19.7923  -30.7283   24.2239 H   0  0  0  0  0  0
  -17.5001  -31.6258   24.5167 H   0  0  0  0  0  0
  -15.5348  -30.2967   23.7676 H   0  0  0  0  0  0
  -15.8672  -28.0826   22.7054 H   0  0  0  0  0  0
  -24.6075  -30.6803   25.7816 H   0  0  0  0  0  0
  -24.8694  -32.2809   26.4627 H   0  0  0  0  0  0
  -25.8086  -30.9128   27.0321 H   0  0  0  0  0  0
  -26.2891  -29.6729   24.1164 H   0  0  0  0  0  0
  -27.4010  -29.7190   25.4651 H   0  0  0  0  0  0
  -27.8775  -30.4224   23.9375 H   0  0  0  0  0  0
  -27.2785  -33.3632   26.1922 H   0  0  0  0  0  0
  -28.3963  -32.6657   25.0284 H   0  0  0  0  0  0
  -28.0687  -31.8408   26.5445 H   0  0  0  0  0  0
  -28.2577  -38.0095   24.7498 H   0  0  0  0  0  0
  -28.1085  -36.2617   24.6289 H   0  0  0  0  0  0
  -27.2292  -37.1445   25.8869 H   0  0  0  0  0  0
  -20.9412  -29.8756   21.6886 H   0  0  0  0  0  0
  -26.0150  -38.2821   24.1414 H   0  0  0  0  0  0
  -31.3778  -20.9737   21.7598 H   0  0  0  0  0  0
  -32.2721  -16.8160   21.5097 H   0  0  0  0  0  0
  -28.5788  -25.0365   22.6424 H   0  0  0  0  0  0
  -29.1520  -23.3092   22.9365 H   0  0  0  0  0  0
  -30.9672  -24.5937   19.3701 H   0  0  0  0  0  0
  -30.8665  -23.8251   17.8178 H   0  0  0  0  0  0
  -28.3625  -24.0085   17.8918 H   0  0  0  0  0  0
  -29.1062  -25.5707   18.0003 H   0  0  0  0  0  0
  -31.1242  -22.4200   20.1025 H   0  0  0  0  0  0
  -30.2595  -21.7422   18.7385 H   0  0  0  0  0  0
  -27.1704  -24.6231   19.7095 H   0  0  0  0  0  0
  -27.6976  -18.6545   19.3231 H   0  0  0  0  0  0
  -27.1964  -18.4911   21.0136 H   0  0  0  0  0  0
  -27.7125  -17.0863   20.1018 H   0  0  0  0  0  0
  -28.6339  -21.3027   22.0789 H   0  0  0  0  0  0
  -27.7711  -20.7733   20.6983 H   0  0  0  0  0  0
  -28.8828  -15.6627   20.7623 H   0  0  0  0  0  0
  -28.3341  -22.3112   19.5521 H   0  0  0  0  0  0
  1 25  1  0  0  0
  1 30  2  0  0  0
  1 85  1  0  0  0
  2  3  1  0  0  0
  2 25  1  0  0  0
  2 88  1  0  0  0
  2 89  1  0  0  0
  3  4  1  0  0  0
  3 90  1  0  0  0
  3 91  1  0  0  0
  4  5  1  0  0  0
  4 92  1  0  0  0
  4 93  1  0  0  0
  5  6  1  0  0  0
  5 26  1  0  0  0
  5 94  1  0  0  0
  6 25  1  0  0  0
  6 95  1  0  0  0
  6 96  1  0  0  0
  7  8  2  0  0  0
  7 26  1  0  0  0
  7 29  1  0  0  0
  8  9  1  0  0  0
  8 22  1  0  0  0
  9 10  1  0  0  0
  9 27  2  0  0  0
 10 11  2  0  0  0
 10 15  1  0  0  0
 11 12  1  0  0  0
 11 97  1  0  0  0
 12 13  2  0  0  0
 12 98  1  0  0  0
 13 14  1  0  0  0
 13 31  1  0  0  0
 14 15  2  0  0  0
 14 99  1  0  0  0
 15100  1  0  0  0
 16 17  2  0  0  0
 16 21  1  0  0  0
 16 31  1  0  0  0
 17 18  1  0  0  0
 17101  1  0  0  0
 18 19  2  0  0  0
 18102  1  0  0  0
 19 20  1  0  0  0
 19 24  1  0  0  0
 20 21  2  0  0  0
 20103  1  0  0  0
 21 23  1  0  0  0
 22 28  1  0  0  0
 22 32  2  0  0  0
 26 27  1  0  0  0
 28104  1  0  0  0
 28105  1  0  0  0
 29106  1  0  0  0
 29107  1  0  0  0
 33 34  1  0  0  0
 33 66  1  0  0  0
 33 70  2  0  0  0
 34 36  1  0  0  0
 34 59  1  0  0  0
 34108  1  0  0  0
 35 44  2  0  0  0
 35 45  1  0  0  0
 35 68  1  0  0  0
 36 56  1  0  0  0
 36109  1  0  0  0
 37 39  1  0  0  0
 37 47  1  0  0  0
 37 66  1  0  0  0
 37110  1  0  0  0
 38 43  2  0  0  0
 38 46  1  0  0  0
 38 47  1  0  0  0
 39 64  1  0  0  0
 39 67  2  0  0  0
 40 52  1  0  0  0
 40 53  2  0  0  0
 40 58  1  0  0  0
 41111  1  0  0  0
 41112  1  0  0  0
 41113  1  0  0  0
 41 48  1  0  0  0
 42 43  1  0  0  0
 42 66  1  0  0  0
 42114  1  0  0  0
 42115  1  0  0  0
 43 44  1  0  0  0
 44116  1  0  0  0
 45 46  2  0  0  0
 45117  1  0  0  0
 46118  1  0  0  0
 47119  1  0  0  0
 47120  1  0  0  0
 48 56  1  0  0  0
 48 65  1  0  0  0
 48121  1  0  0  0
 49 50  1  0  0  0
 49 53  1  0  0  0
 49 64  1  0  0  0
 49122  1  0  0  0
 50 51  1  0  0  0
 50123  1  0  0  0
 50124  1  0  0  0
 51 52  1  0  0  0
 51125  1  0  0  0
 51126  1  0  0  0
 52127  1  0  0  0
 52128  1  0  0  0
 53 54  1  0  0  0
 54 55  2  0  0  0
 54129  1  0  0  0
 55 57  1  0  0  0
 55130  1  0  0  0
 56 69  2  0  0  0
 57 58  2  0  0  0
 57131  1  0  0  0
 58132  1  0  0  0
 59 60  1  0  0  0
 59 61  1  0  0  0
 59 62  1  0  0  0
 60133  1  0  0  0
 60134  1  0  0  0
 60135  1  0  0  0
 61136  1  0  0  0
 61137  1  0  0  0
 61138  1  0  0  0
 62139  1  0  0  0
 62140  1  0  0  0
 62141  1  0  0  0
 63 65  1  0  0  0
 63142  1  0  0  0
 63143  1  0  0  0
 63144  1  0  0  0
 64145  1  0  0  0
 65146  1  0  0  0
 68 82  1  0  0  0
 71 73  2  0  0  0
 71 76  1  0  0  0
 71147  1  0  0  0
 72 75  1  0  0  0
 72 76  2  0  0  0
 72148  1  0  0  0
 73 74  1  0  0  0
 73 84  1  0  0  0
 74 75  2  0  0  0
 74 83  1  0  0  0
 75 85  1  0  0  0
 76 87  1  0  0  0
 77 78  2  0  0  0
 77 82  1  0  0  0
 77 86  1  0  0  0
 78149  1  0  0  0
 78150  1  0  0  0
 79 80  1  0  0  0
 79 81  1  0  0  0
 79151  1  0  0  0
 79152  1  0  0  0
 80 82  1  0  0  0
 80153  1  0  0  0
 80154  1  0  0  0
 81 86  1  0  0  0
 81155  1  0  0  0
 81156  1  0  0  0
 82157  1  0  0  0
 83158  1  0  0  0
 83159  1  0  0  0
 83160  1  0  0  0
 84161  1  0  0  0
 84162  1  0  0  0
 84 86  1  0  0  0
 85163  1  0  0  0
 86164  1  0  0  0
M  CHG  1  86   1
M  ISO  4   1 100  68 101  82 101  85 100
M  END
> <chiral flag>
0

> <version>
0

> <s_m_source_file>
/data/baiqing/PycharmProjects/Reinvent-master-3.2/result/LINK_invent/BTK/process_docking_weight1_custom_product_contain_oxygen_bond_distance_aromatic_linkinvent_7_9_3/rearranged_h_0042.sdf

> <i_m_source_file_index>
35

> <r_mmod_Potential_Energy-OPLS-2005>
84.9504013061523

> <r_mmod_Stretch_Energy-OPLS-2005>
132.19987487793

> <r_mmod_Bend_Energy-OPLS-2005>
187.970611572266

> <r_mmod_Torsional_Energy-OPLS-2005>
248.140243530273

> <r_mmod_Improper_Torsional_Energy-OPLS-2005>
7.34197473526001

> <r_mmod_Van_der_Waal_Energy-OPLS-2005>
151.454849243164

> <r_mmod_Electrostatic_Energy-OPLS-2005>
-270.865081787109

> <r_mmod_Solvation_Energy-OPLS-2005>
-453.480316162109

> <b_mmod_Minimization_Converged-OPLS-2005>
0

> <r_mmod_RMS_Derivative-OPLS-2005>
1.83400082588196

$$$$
35
                    3D
 Structure written by MMmdl.
159167  0  0  1  0            999 V2000
  -30.7012  -14.4555   20.5839 C   0  0  0  0  0  0
  -30.4194  -12.3050   19.4080 C   0  0  0  0  0  0
  -29.4849  -12.4998   18.1968 C   0  0  0  0  0  0
  -28.0068  -12.3666   18.6131 C   0  0  0  0  0  0
  -27.6589  -13.2035   19.8736 C   0  0  2  0  0  0
  -28.7022  -12.9733   20.9883 C   0  0  0  0  0  0
  -25.2587  -13.8173   20.5694 C   0  0  0  0  0  0
  -24.1828  -13.0452   20.9174 C   0  0  0  0  0  0
  -24.6378  -11.6915   20.8740 C   0  0  0  0  0  0
  -23.9041  -10.4300   21.0405 C   0  0  0  0  0  0
  -24.3606   -9.4218   21.9184 C   0  0  0  0  0  0
  -23.6287   -8.2249   22.0758 C   0  0  0  0  0  0
  -22.4266   -8.0280   21.3546 C   0  0  0  0  0  0
  -21.9896   -9.0249   20.4645 C   0  0  0  0  0  0
  -22.7220  -10.2131   20.3050 C   0  0  0  0  0  0
  -21.6848   -6.0727   22.5275 C   0  0  0  0  0  0
  -21.4008   -6.5635   23.8208 C   0  0  0  0  0  0
  -21.3661   -5.6790   24.9173 C   0  0  0  0  0  0
  -21.6042   -4.3052   24.7224 C   0  0  0  0  0  0
  -21.8822   -3.8142   23.4345 C   0  0  0  0  0  0
  -21.9196   -4.6955   22.3401 C   0  0  0  0  0  0
  -22.7851  -13.5252   21.1846 C   0  0  0  0  0  0
  -22.1655   -4.2140   21.0976 F   0  0  0  0  0  0
  -21.5635   -3.4534   25.7741 F   0  0  0  0  0  0
  -30.0282  -13.2851   20.4315 N   0  0  0  0  0  0
  -26.3009  -12.9327   20.3378 N   0  0  0  0  0  0
  -25.9297  -11.6494   20.5775 N   0  0  0  0  0  0
  -22.0484  -12.8236   22.0386 N   0  0  0  0  0  0
  -25.4357  -15.1891   20.4143 N   0  0  0  0  0  0
  -31.8243  -14.6474   20.1074 O   0  0  0  0  0  0
  -21.6638   -6.8869   21.4236 O   0  0  0  0  0  0
  -22.3541  -14.5569   20.6712 O   0  0  0  0  0  0
  -24.6167  -31.8662   23.2072 C   0  0  0  0  0  0
  -25.9062  -32.4800   23.8358 C   0  0  1  0  0  0
  -27.2262  -27.4126   20.0916 C   0  0  0  0  0  0
  -25.5937  -33.8598   24.2306 N   0  0  0  0  0  0
  -23.4017  -30.4928   21.5487 C   0  0  2  0  0  0
  -24.8437  -28.9521   20.1144 C   0  0  0  0  0  0
  -22.7405  -29.4667   22.4968 C   0  0  0  0  0  0
  -18.0274  -28.1355   22.8468 C   0  0  0  0  0  0
  -24.1497  -36.7281   23.2635 C   0  0  0  0  0  0
  -25.9329  -30.8252   21.3611 C   0  0  0  0  0  0
  -26.0055  -29.4584   20.7062 C   0  0  0  0  0  0
  -27.1976  -28.6976   20.6878 C   0  0  0  0  0  0
  -26.0400  -26.9189   19.5032 C   0  0  0  0  0  0
  -24.8574  -27.6826   19.5106 C   0  0  0  0  0  0
  -23.6083  -29.8232   20.1640 C   0  0  0  0  0  0
  -25.4115  -36.3087   24.0338 C   0  0  1  0  0  0
  -20.5866  -28.3652   23.1287 C   0  0  2  0  0  0
  -20.6769  -26.9383   22.5393 C   0  0  0  0  0  0
  -19.5757  -26.6363   21.5190 C   0  0  0  0  0  0
  -18.1935  -26.7907   22.1594 C   0  0  0  0  0  0
  -19.1526  -28.8826   23.2876 C   0  0  0  0  0  0
  -18.9467  -30.1433   23.8880 C   0  0  0  0  0  0
  -17.6466  -30.6562   24.0562 C   0  0  0  0  0  0
  -25.9041  -34.9461   23.5111 C   0  0  0  0  0  0
  -16.5358  -29.9067   23.6325 C   0  0  0  0  0  0
  -16.7260  -28.6490   23.0327 C   0  0  0  0  0  0
  -26.4481  -31.6578   25.0697 C   0  0  0  0  0  0
  -25.3749  -31.3688   26.1455 C   0  0  0  0  0  0
  -27.0312  -30.3026   24.6065 C   0  0  0  0  0  0
  -27.6062  -32.4291   25.7465 C   0  0  0  0  0  0
  -27.5583  -37.1793   24.8465 C   0  0  0  0  0  0
  -21.4141  -29.3032   22.3709 N   0  0  0  0  0  0
  -26.4288  -37.3785   23.9425 N   0  0  0  0  0  0
  -24.6687  -31.0767   22.0966 N   0  0  0  0  0  0
  -23.4195  -28.8188   23.2989 O   0  0  0  0  0  0
  -28.4150  -26.7051   20.1095 O   0  0  0  0  0  0
  -26.5580  -34.8924   22.4660 O   0  0  0  0  0  0
  -23.5362  -32.1417   23.7467 O   0  0  0  0  0  0
  -27.9060  -19.5793   21.5347 C   0  0  0  0  0  0
  -30.2256  -18.8398   20.1534 C   0  0  0  0  0  0
  -28.5288  -18.3380   21.8225 C   0  0  0  0  0  0
  -28.4406  -20.4713   20.5741 C   0  0  0  0  0  0
  -29.7269  -17.9762   21.1549 C   0  0  0  0  0  0
  -29.5948  -20.0688   19.8603 C   0  0  0  0  0  0
  -27.9146  -17.4277   22.8745 C   0  0  0  0  0  0
  -30.5645  -16.7545   21.5625 C   0  0  0  0  0  0
  -27.7680  -21.8330   20.3136 C   0  0  0  0  0  0
  -27.9621  -24.3319   20.8011 C   0  0  0  0  0  0
  -28.4722  -25.3185   19.7133 C   0  0  0  0  0  0
  -30.0249  -15.4370   21.2075 N   0  0  0  0  0  0
  -28.6045  -22.9801   20.7578 N   0  3  0  0  0  0
  -30.2870  -21.0962   18.6549 Cl  0  0  0  0  0  0
  -31.4620  -12.4094   19.1012 H   0  0  0  0  0  0
  -30.3290  -11.2931   19.8050 H   0  0  0  0  0  0
  -29.7192  -11.7702   17.4200 H   0  0  0  0  0  0
  -29.6519  -13.4821   17.7530 H   0  0  0  0  0  0
  -27.8095  -11.3113   18.8028 H   0  0  0  0  0  0
  -27.3561  -12.6498   17.7854 H   0  0  0  0  0  0
  -27.7069  -14.2529   19.5824 H   0  0  0  0  0  0
  -28.6821  -11.9325   21.3155 H   0  0  0  0  0  0
  -28.4665  -13.5578   21.8780 H   0  0  0  0  0  0
  -25.2749   -9.5694   22.4753 H   0  0  0  0  0  0
  -23.9993   -7.4641   22.7473 H   0  0  0  0  0  0
  -21.0833   -8.8763   19.8943 H   0  0  0  0  0  0
  -22.3683  -10.9669   19.6153 H   0  0  0  0  0  0
  -21.1995   -7.6144   23.9711 H   0  0  0  0  0  0
  -21.1471   -6.0517   25.9075 H   0  0  0  0  0  0
  -22.0605   -2.7600   23.2850 H   0  0  0  0  0  0
  -22.4084  -11.9883   22.4751 H   0  0  0  0  0  0
  -21.1105  -13.1262   22.2592 H   0  0  0  0  0  0
  -24.6797  -15.8528   20.5404 H   0  0  0  0  0  0
  -26.2974  -15.6260   20.1133 H   0  0  0  0  0  0
  -26.7125  -32.5496   23.1102 H   0  0  0  0  0  0
  -25.0214  -33.9761   25.0544 H   0  0  0  0  0  0
  -22.6924  -31.3115   21.4086 H   0  0  0  0  0  0
  -23.3782  -35.9594   23.3297 H   0  0  0  0  0  0
  -24.3601  -36.8875   22.2050 H   0  0  0  0  0  0
  -23.7222  -37.6479   23.6638 H   0  0  0  0  0  0
  -26.0530  -31.5912   20.5933 H   0  0  0  0  0  0
  -26.8190  -30.8727   21.9815 H   0  0  0  0  0  0
  -28.0972  -29.0878   21.1420 H   0  0  0  0  0  0
  -25.9962  -25.9467   19.0343 H   0  0  0  0  0  0
  -23.9617  -27.2845   19.0536 H   0  0  0  0  0  0
  -23.7179  -30.5986   19.4059 H   0  0  0  0  0  0
  -22.7302  -29.2466   19.8656 H   0  0  0  0  0  0
  -25.1284  -36.1938   25.0832 H   0  0  0  0  0  0
  -20.9959  -28.3218   24.1407 H   0  0  0  0  0  0
  -20.5665  -26.2255   23.3578 H   0  0  0  0  0  0
  -21.6639  -26.7411   22.1190 H   0  0  0  0  0  0
  -19.6934  -25.6280   21.1198 H   0  0  0  0  0  0
  -19.6717  -27.3187   20.6739 H   0  0  0  0  0  0
  -17.4204  -26.6647   21.3997 H   0  0  0  0  0  0
  -18.0337  -26.0033   22.8979 H   0  0  0  0  0  0
  -19.7958  -30.7238   24.2226 H   0  0  0  0  0  0
  -17.5044  -31.6247   24.5152 H   0  0  0  0  0  0
  -15.5364  -30.2972   23.7665 H   0  0  0  0  0  0
  -15.8661  -28.0815   22.7036 H   0  0  0  0  0  0
  -24.5980  -30.6950   25.7816 H   0  0  0  0  0  0
  -24.8887  -32.2839   26.4844 H   0  0  0  0  0  0
  -25.8130  -30.8937   27.0244 H   0  0  0  0  0  0
  -26.2851  -29.6776   24.1144 H   0  0  0  0  0  0
  -27.4130  -29.7253   25.4491 H   0  0  0  0  0  0
  -27.8655  -30.4351   23.9174 H   0  0  0  0  0  0
  -27.2709  -33.3629   26.1982 H   0  0  0  0  0  0
  -28.3912  -32.6761   25.0307 H   0  0  0  0  0  0
  -28.0673  -31.8436   26.5424 H   0  0  0  0  0  0
  -28.2564  -38.0126   24.7551 H   0  0  0  0  0  0
  -28.1105  -36.2656   24.6229 H   0  0  0  0  0  0
  -27.2306  -37.1345   25.8865 H   0  0  0  0  0  0
  -20.9295  -29.8778   21.6950 H   0  0  0  0  0  0
  -26.0166  -38.2847   24.1486 H   0  0  0  0  0  0
  -27.0090  -19.8572   22.0721 H   0  0  0  0  0  0
  -31.1322  -18.5783   19.6260 H   0  0  0  0  0  0
  -27.0126  -17.8630   23.3053 H   0  0  0  0  0  0
  -28.6134  -17.2455   23.6910 H   0  0  0  0  0  0
  -27.6338  -16.4690   22.4371 H   0  0  0  0  0  0
  -30.6995  -16.7749   22.6446 H   0  0  0  0  0  0
  -31.5721  -16.8814   21.1627 H   0  0  0  0  0  0
  -26.8121  -21.8591   20.8403 H   0  0  0  0  0  0
  -27.5353  -21.9323   19.2531 H   0  0  0  0  0  0
  -26.8742  -24.2622   20.7876 H   0  0  0  0  0  0
  -28.2194  -24.7523   21.7734 H   0  0  0  0  0  0
  -27.9940  -25.1406   18.7499 H   0  0  0  0  0  0
  -29.5313  -25.1247   19.5409 H   0  0  0  0  0  0
  -29.0953  -15.2144   21.5268 H   0  0  0  0  0  0
  -29.4365  -23.0031   20.1861 H   0  0  0  0  0  0
  -28.9037  -22.7640   21.6960 H   0  0  0  0  0  0
  1 25  1  0  0  0
  1 30  2  0  0  0
  1 82  1  0  0  0
  2  3  1  0  0  0
  2 25  1  0  0  0
  2 85  1  0  0  0
  2 86  1  0  0  0
  3  4  1  0  0  0
  3 87  1  0  0  0
  3 88  1  0  0  0
  4  5  1  0  0  0
  4 89  1  0  0  0
  4 90  1  0  0  0
  5  6  1  0  0  0
  5 26  1  0  0  0
  5 91  1  0  0  0
  6 25  1  0  0  0
  6 92  1  0  0  0
  6 93  1  0  0  0
  7  8  2  0  0  0
  7 26  1  0  0  0
  7 29  1  0  0  0
  8  9  1  0  0  0
  8 22  1  0  0  0
  9 10  1  0  0  0
  9 27  2  0  0  0
 10 11  2  0  0  0
 10 15  1  0  0  0
 11 12  1  0  0  0
 11 94  1  0  0  0
 12 13  2  0  0  0
 12 95  1  0  0  0
 13 14  1  0  0  0
 13 31  1  0  0  0
 14 15  2  0  0  0
 14 96  1  0  0  0
 15 97  1  0  0  0
 16 17  2  0  0  0
 16 21  1  0  0  0
 16 31  1  0  0  0
 17 18  1  0  0  0
 17 98  1  0  0  0
 18 19  2  0  0  0
 18 99  1  0  0  0
 19 20  1  0  0  0
 19 24  1  0  0  0
 20 21  2  0  0  0
 20100  1  0  0  0
 21 23  1  0  0  0
 22 28  1  0  0  0
 22 32  2  0  0  0
 26 27  1  0  0  0
 28101  1  0  0  0
 28102  1  0  0  0
 29103  1  0  0  0
 29104  1  0  0  0
 33 34  1  0  0  0
 33 66  1  0  0  0
 33 70  2  0  0  0
 34 36  1  0  0  0
 34 59  1  0  0  0
 34105  1  0  0  0
 35 44  2  0  0  0
 35 45  1  0  0  0
 35 68  1  0  0  0
 36 56  1  0  0  0
 36106  1  0  0  0
 37 39  1  0  0  0
 37 47  1  0  0  0
 37 66  1  0  0  0
 37107  1  0  0  0
 38 43  2  0  0  0
 38 46  1  0  0  0
 38 47  1  0  0  0
 39 64  1  0  0  0
 39 67  2  0  0  0
 40 52  1  0  0  0
 40 53  2  0  0  0
 40 58  1  0  0  0
 41108  1  0  0  0
 41109  1  0  0  0
 41110  1  0  0  0
 41 48  1  0  0  0
 42 43  1  0  0  0
 42 66  1  0  0  0
 42111  1  0  0  0
 42112  1  0  0  0
 43 44  1  0  0  0
 44113  1  0  0  0
 45 46  2  0  0  0
 45114  1  0  0  0
 46115  1  0  0  0
 47116  1  0  0  0
 47117  1  0  0  0
 48 56  1  0  0  0
 48 65  1  0  0  0
 48118  1  0  0  0
 49 50  1  0  0  0
 49 53  1  0  0  0
 49 64  1  0  0  0
 49119  1  0  0  0
 50 51  1  0  0  0
 50120  1  0  0  0
 50121  1  0  0  0
 51 52  1  0  0  0
 51122  1  0  0  0
 51123  1  0  0  0
 52124  1  0  0  0
 52125  1  0  0  0
 53 54  1  0  0  0
 54 55  2  0  0  0
 54126  1  0  0  0
 55 57  1  0  0  0
 55127  1  0  0  0
 56 69  2  0  0  0
 57 58  2  0  0  0
 57128  1  0  0  0
 58129  1  0  0  0
 59 60  1  0  0  0
 59 61  1  0  0  0
 59 62  1  0  0  0
 60130  1  0  0  0
 60131  1  0  0  0
 60132  1  0  0  0
 61133  1  0  0  0
 61134  1  0  0  0
 61135  1  0  0  0
 62136  1  0  0  0
 62137  1  0  0  0
 62138  1  0  0  0
 63 65  1  0  0  0
 63139  1  0  0  0
 63140  1  0  0  0
 63141  1  0  0  0
 64142  1  0  0  0
 65143  1  0  0  0
 68 81  1  0  0  0
 71 73  2  0  0  0
 71 74  1  0  0  0
 71144  1  0  0  0
 72 75  2  0  0  0
 72 76  1  0  0  0
 72145  1  0  0  0
 73 75  1  0  0  0
 73 77  1  0  0  0
 74 76  2  0  0  0
 74 79  1  0  0  0
 75 78  1  0  0  0
 76 84  1  0  0  0
 77146  1  0  0  0
 77147  1  0  0  0
 77148  1  0  0  0
 78 82  1  0  0  0
 78149  1  0  0  0
 78150  1  0  0  0
 79 83  1  0  0  0
 79151  1  0  0  0
 79152  1  0  0  0
 80 81  1  0  0  0
 80 83  1  0  0  0
 80153  1  0  0  0
 80154  1  0  0  0
 81155  1  0  0  0
 81156  1  0  0  0
 82157  1  0  0  0
 83158  1  0  0  0
 83159  1  0  0  0
M  CHG  1  83   1
M  ISO  4   1 100  68 101  81 101  82 100
M  END
> <chiral flag>
0

> <version>
0

> <s_m_source_file>
/data/baiqing/PycharmProjects/Reinvent-master-3.2/result/LINK_invent/BTK/process_docking_weight1_custom_product_contain_oxygen_bond_distance_aromatic_linkinvent_7_9_3/rearranged_h_0042.sdf

> <i_m_source_file_index>
36

> <r_mmod_Potential_Energy-OPLS-2005>
-293.060821533203

> <r_mmod_Stretch_Energy-OPLS-2005>
39.5977783203125

> <r_mmod_Bend_Energy-OPLS-2005>
105.105651855469

> <r_mmod_Torsional_Energy-OPLS-2005>
194.67854309082

> <r_mmod_Improper_Torsional_Energy-OPLS-2005>
2.724853515625

> <r_mmod_Van_der_Waal_Energy-OPLS-2005>
146.525527954102

> <r_mmod_Electrostatic_Energy-OPLS-2005>
-351.592132568359

> <r_mmod_Solvation_Energy-OPLS-2005>
-443.279815673828

> <b_mmod_Minimization_Converged-OPLS-2005>
0

> <r_mmod_RMS_Derivative-OPLS-2005>
1.94953262805939

$$$$
36
                    3D
 Structure written by MMmdl.
169178  0  0  1  0            999 V2000
  -30.6206  -14.4898   20.6497 C   0  0  0  0  0  0
  -30.4531  -12.3218   19.3844 C   0  0  0  0  0  0
  -29.4986  -12.4973   18.1762 C   0  0  0  0  0  0
  -28.0148  -12.3567   18.5948 C   0  0  0  0  0  0
  -27.6685  -13.1803   19.8683 C   0  0  2  0  0  0
  -28.7233  -12.8690   20.9536 C   0  0  0  0  0  0
  -25.2663  -13.8021   20.5694 C   0  0  0  0  0  0
  -24.1911  -13.0384   20.9174 C   0  0  0  0  0  0
  -24.6403  -11.6820   20.8720 C   0  0  0  0  0  0
  -23.9003  -10.4263   21.0398 C   0  0  0  0  0  0
  -24.3534   -9.4187   21.9177 C   0  0  0  0  0  0
  -23.6227   -8.2224   22.0736 C   0  0  0  0  0  0
  -22.4227   -8.0244   21.3512 C   0  0  0  0  0  0
  -21.9847   -9.0227   20.4640 C   0  0  0  0  0  0
  -22.7164  -10.2105   20.3070 C   0  0  0  0  0  0
  -21.6833   -6.0713   22.5303 C   0  0  0  0  0  0
  -21.3998   -6.5619   23.8235 C   0  0  0  0  0  0
  -21.3656   -5.6774   24.9188 C   0  0  0  0  0  0
  -21.6056   -4.3042   24.7238 C   0  0  0  0  0  0
  -21.8802   -3.8131   23.4362 C   0  0  0  0  0  0
  -21.9174   -4.6946   22.3418 C   0  0  0  0  0  0
  -22.7911  -13.5215   21.1815 C   0  0  0  0  0  0
  -22.1651   -4.2147   21.0993 F   0  0  0  0  0  0
  -21.5626   -3.4531   25.7737 F   0  0  0  0  0  0
  -30.0307  -13.2780   20.4281 N   0  0  0  0  0  0
  -26.3085  -12.9184   20.3357 N   0  0  0  0  0  0
  -25.9331  -11.6365   20.5755 N   0  0  0  0  0  0
  -22.0475  -12.8332   22.0361 N   0  0  0  0  0  0
  -25.4411  -15.1767   20.4071 N   0  0  0  0  0  0
  -31.7742  -14.7472   20.2957 O   0  0  0  0  0  0
  -21.6605   -6.8849   21.4250 O   0  0  0  0  0  0
  -22.3637  -14.5538   20.6596 O   0  0  0  0  0  0
  -24.6217  -31.8607   23.2144 C   0  0  0  0  0  0
  -25.9098  -32.4627   23.8609 C   0  0  1  0  0  0
  -27.2348  -27.3625   20.1667 C   0  0  0  0  0  0
  -25.5989  -33.8495   24.2412 N   0  0  0  0  0  0
  -23.4110  -30.4888   21.5437 C   0  0  2  0  0  0
  -24.8701  -28.9445   20.1155 C   0  0  0  0  0  0
  -22.7486  -29.4681   22.4940 C   0  0  0  0  0  0
  -18.0261  -28.1462   22.8471 C   0  0  0  0  0  0
  -24.1392  -36.7246   23.2509 C   0  0  0  0  0  0
  -25.9462  -30.8166   21.3697 C   0  0  0  0  0  0
  -26.0269  -29.4400   20.7322 C   0  0  0  0  0  0
  -27.2129  -28.6587   20.7493 C   0  0  0  0  0  0
  -26.0716  -26.9186   19.4975 C   0  0  0  0  0  0
  -24.8939  -27.6929   19.4768 C   0  0  0  0  0  0
  -23.6338  -29.8184   20.1576 C   0  0  0  0  0  0
  -25.3996  -36.3039   24.0284 C   0  0  1  0  0  0
  -20.5864  -28.3743   23.1321 C   0  0  2  0  0  0
  -20.6780  -26.9464   22.5445 C   0  0  0  0  0  0
  -19.5759  -26.6448   21.5252 C   0  0  0  0  0  0
  -18.1927  -26.7991   22.1631 C   0  0  0  0  0  0
  -19.1518  -28.8930   23.2880 C   0  0  0  0  0  0
  -18.9445  -30.1540   23.8875 C   0  0  0  0  0  0
  -17.6442  -30.6649   24.0586 C   0  0  0  0  0  0
  -25.9013  -34.9373   23.5181 C   0  0  0  0  0  0
  -16.5335  -29.9122   23.6371 C   0  0  0  0  0  0
  -16.7258  -28.6574   23.0330 C   0  0  0  0  0  0
  -26.4299  -31.6377   25.1033 C   0  0  0  0  0  0
  -25.3450  -31.3276   26.1587 C   0  0  0  0  0  0
  -27.0281  -30.2796   24.6725 C   0  0  0  0  0  0
  -27.5816  -32.4095   25.7880 C   0  0  0  0  0  0
  -27.5533  -37.1802   24.8387 C   0  0  0  0  0  0
  -21.4215  -29.3043   22.3736 N   0  0  0  0  0  0
  -26.4103  -37.3790   23.9455 N   0  0  0  0  0  0
  -24.6753  -31.0753   22.0992 N   0  0  0  0  0  0
  -23.4257  -28.8221   23.3007 O   0  0  0  0  0  0
  -28.3606  -26.5505   20.2441 O   0  0  0  0  0  0
  -26.5601  -34.8853   22.4732 O   0  0  0  0  0  0
  -23.5416  -32.1410   23.7504 O   0  0  0  0  0  0
  -30.9486  -17.9836   19.7199 C   0  0  0  0  0  0
  -30.5689  -20.3288   19.1726 C   0  0  0  0  0  0
  -29.9413  -18.0209   20.6991 C   0  0  0  0  0  0
  -29.4802  -20.4152   20.0749 C   0  0  0  0  0  0
  -29.1570  -19.2271   20.8332 C   0  0  0  0  0  0
  -31.2748  -19.1233   18.9737 C   0  0  0  0  0  0
  -27.8448  -25.1600   22.2297 C   0  0  0  0  0  0
  -27.6328  -23.7108   22.7174 C   0  0  0  0  0  0
  -29.4024  -24.2510   20.4667 C   0  0  0  0  0  0
  -28.1662  -25.1752   20.7226 C   0  0  2  0  0  0
  -28.8500  -22.7964   22.4433 C   0  0  2  0  0  0
  -27.9625  -19.2127   21.7785 C   0  0  0  0  0  0
  -30.0380  -23.1594   23.3508 C   0  0  0  0  0  0
  -29.8694  -16.8064   21.6710 C   0  0  0  0  0  0
  -28.7028  -21.7834   20.1130 C   0  0  0  0  0  0
  -29.7626  -15.4129   21.1659 N   0  0  0  0  0  0
  -29.2858  -22.8404   21.0164 N   0  3  1  0  0  0
  -32.5777  -19.0310   17.8440 Cl  0  0  0  0  0  0
  -31.4985  -12.4420   19.0803 H   0  0  0  0  0  0
  -30.3743  -11.2943   19.7537 H   0  0  0  0  0  0
  -29.7299  -11.7744   17.3909 H   0  0  0  0  0  0
  -29.6629  -13.4775   17.7345 H   0  0  0  0  0  0
  -27.8261  -11.3020   18.7944 H   0  0  0  0  0  0
  -27.3559  -12.6221   17.7673 H   0  0  0  0  0  0
  -27.7286  -14.2364   19.6031 H   0  0  0  0  0  0
  -28.7382  -11.7926   21.1331 H   0  0  0  0  0  0
  -28.5077  -13.3034   21.9255 H   0  0  0  0  0  0
  -25.2660   -9.5686   22.4764 H   0  0  0  0  0  0
  -23.9938   -7.4617   22.7467 H   0  0  0  0  0  0
  -21.0752   -8.8713   19.8988 H   0  0  0  0  0  0
  -22.3573  -10.9610   19.6191 H   0  0  0  0  0  0
  -21.2002   -7.6134   23.9735 H   0  0  0  0  0  0
  -21.1487   -6.0507   25.9082 H   0  0  0  0  0  0
  -22.0580   -2.7611   23.2858 H   0  0  0  0  0  0
  -22.3984  -12.0026   22.4930 H   0  0  0  0  0  0
  -21.1090  -13.1447   22.2520 H   0  0  0  0  0  0
  -24.6596  -15.8126   20.5053 H   0  0  0  0  0  0
  -26.2632  -15.6064   20.0036 H   0  0  0  0  0  0
  -26.7326  -32.5193   23.1593 H   0  0  0  0  0  0
  -25.0295  -33.9579   25.0706 H   0  0  0  0  0  0
  -22.6980  -31.3040   21.3969 H   0  0  0  0  0  0
  -23.3588  -35.9647   23.3204 H   0  0  0  0  0  0
  -24.3483  -36.8780   22.1909 H   0  0  0  0  0  0
  -23.7215  -37.6501   23.6497 H   0  0  0  0  0  0
  -26.0501  -31.5633   20.5803 H   0  0  0  0  0  0
  -26.8405  -30.8997   21.9787 H   0  0  0  0  0  0
  -28.0956  -29.0359   21.2483 H   0  0  0  0  0  0
  -26.0555  -25.9673   18.9879 H   0  0  0  0  0  0
  -24.0173  -27.3266   18.9601 H   0  0  0  0  0  0
  -23.7688  -30.5866   19.3953 H   0  0  0  0  0  0
  -22.7530  -29.2514   19.8480 H   0  0  0  0  0  0
  -25.1070  -36.1932   25.0739 H   0  0  0  0  0  0
  -20.9905  -28.3335   24.1476 H   0  0  0  0  0  0
  -20.5761  -26.2340   23.3634 H   0  0  0  0  0  0
  -21.6646  -26.7600   22.1197 H   0  0  0  0  0  0
  -19.6924  -25.6356   21.1319 H   0  0  0  0  0  0
  -19.6714  -27.3229   20.6750 H   0  0  0  0  0  0
  -17.4210  -26.6734   21.4024 H   0  0  0  0  0  0
  -18.0326  -26.0134   22.9027 H   0  0  0  0  0  0
  -19.7917  -30.7386   24.2249 H   0  0  0  0  0  0
  -17.4967  -31.6292   24.5244 H   0  0  0  0  0  0
  -15.5325  -30.3000   23.7784 H   0  0  0  0  0  0
  -15.8642  -28.0940   22.7035 H   0  0  0  0  0  0
  -24.8908  -32.2273   26.5665 H   0  0  0  0  0  0
  -25.7554  -30.7811   27.0084 H   0  0  0  0  0  0
  -24.5347  -30.7183   25.7506 H   0  0  0  0  0  0
  -27.3834  -29.7232   25.5449 H   0  0  0  0  0  0
  -26.2955  -29.6481   24.1720 H   0  0  0  0  0  0
  -27.8816  -30.3889   24.0067 H   0  0  0  0  0  0
  -27.2624  -33.3702   26.1947 H   0  0  0  0  0  0
  -28.4015  -32.5884   25.0916 H   0  0  0  0  0  0
  -27.9841  -31.8459   26.6289 H   0  0  0  0  0  0
  -28.2544  -38.0082   24.7279 H   0  0  0  0  0  0
  -28.0957  -36.2603   24.6150 H   0  0  0  0  0  0
  -27.2378  -37.1549   25.8822 H   0  0  0  0  0  0
  -20.9478  -29.8743   21.6862 H   0  0  0  0  0  0
  -25.9927  -38.2796   24.1611 H   0  0  0  0  0  0
  -31.5147  -17.0771   19.5611 H   0  0  0  0  0  0
  -30.8611  -21.1973   18.6005 H   0  0  0  0  0  0
  -28.6386  -25.6477   22.7992 H   0  0  0  0  0  0
  -26.9428  -25.7418   22.4165 H   0  0  0  0  0  0
  -26.7567  -23.2831   22.2255 H   0  0  0  0  0  0
  -27.4051  -23.7154   23.7841 H   0  0  0  0  0  0
  -30.2517  -24.7290   20.9611 H   0  0  0  0  0  0
  -29.6676  -24.2188   19.4111 H   0  0  0  0  0  0
  -27.3265  -24.7062   20.2136 H   0  0  0  0  0  0
  -28.5631  -21.7702   22.6898 H   0  0  0  0  0  0
  -27.3517  -18.3291   21.5970 H   0  0  0  0  0  0
  -27.2932  -20.0599   21.6443 H   0  0  0  0  0  0
  -28.3121  -19.1782   22.8101 H   0  0  0  0  0  0
  -30.2916  -24.2179   23.3055 H   0  0  0  0  0  0
  -30.9343  -22.6115   23.0644 H   0  0  0  0  0  0
  -29.8201  -22.9251   24.3920 H   0  0  0  0  0  0
  -28.9993  -16.9253   22.3218 H   0  0  0  0  0  0
  -30.7354  -16.8733   22.3332 H   0  0  0  0  0  0
  -27.6287  -21.6686   20.2717 H   0  0  0  0  0  0
  -28.7490  -22.1752   19.0957 H   0  0  0  0  0  0
  -28.8595  -15.0133   21.3599 H   0  0  0  0  0  0
  -30.2367  -22.5130   21.0549 H   0  0  0  0  0  0
  1 25  1  0  0  0
  1 30  2  0  0  0
  1 86  1  0  0  0
  2  3  1  0  0  0
  2 25  1  0  0  0
  2 89  1  0  0  0
  2 90  1  0  0  0
  3  4  1  0  0  0
  3 91  1  0  0  0
  3 92  1  0  0  0
  4  5  1  0  0  0
  4 93  1  0  0  0
  4 94  1  0  0  0
  5  6  1  0  0  0
  5 26  1  0  0  0
  5 95  1  0  0  0
  6 25  1  0  0  0
  6 96  1  0  0  0
  6 97  1  0  0  0
  7  8  2  0  0  0
  7 26  1  0  0  0
  7 29  1  0  0  0
  8  9  1  0  0  0
  8 22  1  0  0  0
  9 10  1  0  0  0
  9 27  2  0  0  0
 10 11  2  0  0  0
 10 15  1  0  0  0
 11 12  1  0  0  0
 11 98  1  0  0  0
 12 13  2  0  0  0
 12 99  1  0  0  0
 13 14  1  0  0  0
 13 31  1  0  0  0
 14 15  2  0  0  0
 14100  1  0  0  0
 15101  1  0  0  0
 16 17  2  0  0  0
 16 21  1  0  0  0
 16 31  1  0  0  0
 17 18  1  0  0  0
 17102  1  0  0  0
 18 19  2  0  0  0
 18103  1  0  0  0
 19 20  1  0  0  0
 19 24  1  0  0  0
 20 21  2  0  0  0
 20104  1  0  0  0
 21 23  1  0  0  0
 22 28  1  0  0  0
 22 32  2  0  0  0
 26 27  1  0  0  0
 28105  1  0  0  0
 28106  1  0  0  0
 29107  1  0  0  0
 29108  1  0  0  0
 33 34  1  0  0  0
 33 66  1  0  0  0
 33 70  2  0  0  0
 34 36  1  0  0  0
 34 59  1  0  0  0
 34109  1  0  0  0
 35 44  2  0  0  0
 35 45  1  0  0  0
 35 68  1  0  0  0
 36 56  1  0  0  0
 36110  1  0  0  0
 37 39  1  0  0  0
 37 47  1  0  0  0
 37 66  1  0  0  0
 37111  1  0  0  0
 38 43  2  0  0  0
 38 46  1  0  0  0
 38 47  1  0  0  0
 39 64  1  0  0  0
 39 67  2  0  0  0
 40 52  1  0  0  0
 40 53  2  0  0  0
 40 58  1  0  0  0
 41112  1  0  0  0
 41113  1  0  0  0
 41114  1  0  0  0
 41 48  1  0  0  0
 42 43  1  0  0  0
 42 66  1  0  0  0
 42115  1  0  0  0
 42116  1  0  0  0
 43 44  1  0  0  0
 44117  1  0  0  0
 45 46  2  0  0  0
 45118  1  0  0  0
 46119  1  0  0  0
 47120  1  0  0  0
 47121  1  0  0  0
 48 56  1  0  0  0
 48 65  1  0  0  0
 48122  1  0  0  0
 49 50  1  0  0  0
 49 53  1  0  0  0
 49 64  1  0  0  0
 49123  1  0  0  0
 50 51  1  0  0  0
 50124  1  0  0  0
 50125  1  0  0  0
 51 52  1  0  0  0
 51126  1  0  0  0
 51127  1  0  0  0
 52128  1  0  0  0
 52129  1  0  0  0
 53 54  1  0  0  0
 54 55  2  0  0  0
 54130  1  0  0  0
 55 57  1  0  0  0
 55131  1  0  0  0
 56 69  2  0  0  0
 57 58  2  0  0  0
 57132  1  0  0  0
 58133  1  0  0  0
 59 60  1  0  0  0
 59 61  1  0  0  0
 59 62  1  0  0  0
 60134  1  0  0  0
 60135  1  0  0  0
 60136  1  0  0  0
 61137  1  0  0  0
 61138  1  0  0  0
 61139  1  0  0  0
 62140  1  0  0  0
 62141  1  0  0  0
 62142  1  0  0  0
 63 65  1  0  0  0
 63143  1  0  0  0
 63144  1  0  0  0
 63145  1  0  0  0
 64146  1  0  0  0
 65147  1  0  0  0
 68 80  1  0  0  0
 71 73  2  0  0  0
 71 76  1  0  0  0
 71148  1  0  0  0
 72 74  1  0  0  0
 72 76  2  0  0  0
 72149  1  0  0  0
 73 75  1  0  0  0
 73 84  1  0  0  0
 74 75  2  0  0  0
 74 85  1  0  0  0
 75 82  1  0  0  0
 76 88  1  0  0  0
 77 78  1  0  0  0
 77 80  1  0  0  0
 77150  1  0  0  0
 77151  1  0  0  0
 78 81  1  0  0  0
 78152  1  0  0  0
 78153  1  0  0  0
 79 80  1  0  0  0
 79 87  1  0  0  0
 79154  1  0  0  0
 79155  1  0  0  0
 80156  1  0  0  0
 81 83  1  0  0  0
 81 87  1  0  0  0
 81157  1  0  0  0
 82158  1  0  0  0
 82159  1  0  0  0
 82160  1  0  0  0
 83161  1  0  0  0
 83162  1  0  0  0
 83163  1  0  0  0
 84 86  1  0  0  0
 84164  1  0  0  0
 84165  1  0  0  0
 85166  1  0  0  0
 85167  1  0  0  0
 85 87  1  0  0  0
 86168  1  0  0  0
 87169  1  0  0  0
M  CHG  1  87   1
M  ISO  4   1 100  68 101  80 101  86 100
M  END
> <chiral flag>
0

> <version>
0

> <s_m_source_file>
/data/baiqing/PycharmProjects/Reinvent-master-3.2/result/LINK_invent/BTK/process_docking_weight1_custom_product_contain_oxygen_bond_distance_aromatic_linkinvent_7_9_3/rearranged_h_0042.sdf

> <i_m_source_file_index>
37

> <r_mmod_Potential_Energy-OPLS-2005>
-74.345947265625

> <r_mmod_Stretch_Energy-OPLS-2005>
69.2418899536133

> <r_mmod_Bend_Energy-OPLS-2005>
153.003814697266

> <r_mmod_Torsional_Energy-OPLS-2005>
253.037033081055

> <r_mmod_Improper_Torsional_Energy-OPLS-2005>
4.1712703704834

> <r_mmod_Van_der_Waal_Energy-OPLS-2005>
142.961059570312

> <r_mmod_Electrostatic_Energy-OPLS-2005>
-305.951080322266

> <r_mmod_Solvation_Energy-OPLS-2005>
-425.612518310547

> <b_mmod_Minimization_Converged-OPLS-2005>
0

> <r_mmod_RMS_Derivative-OPLS-2005>
10.4603404998779

$$$$
37
                    3D
 Structure written by MMmdl.
159167  0  0  1  0            999 V2000
  -30.6266  -14.5602   20.5416 C   0  0  0  0  0  0
  -30.4204  -12.3416   19.4635 C   0  0  0  0  0  0
  -29.5046  -12.5063   18.2313 C   0  0  0  0  0  0
  -28.0208  -12.3482   18.6282 C   0  0  0  0  0  0
  -27.6460  -13.2067   19.8662 C   0  0  2  0  0  0
  -28.6786  -13.0282   21.0024 C   0  0  0  0  0  0
  -25.2499  -13.8105   20.5711 C   0  0  0  0  0  0
  -24.1772  -13.0387   20.9201 C   0  0  0  0  0  0
  -24.6331  -11.6849   20.8759 C   0  0  0  0  0  0
  -23.9024  -10.4230   21.0407 C   0  0  0  0  0  0
  -24.3578   -9.4132   21.9168 C   0  0  0  0  0  0
  -23.6256   -8.2174   22.0730 C   0  0  0  0  0  0
  -22.4236   -8.0231   21.3542 C   0  0  0  0  0  0
  -21.9888   -9.0200   20.4623 C   0  0  0  0  0  0
  -22.7206  -10.2074   20.3037 C   0  0  0  0  0  0
  -21.6823   -6.0695   22.5291 C   0  0  0  0  0  0
  -21.3980   -6.5603   23.8226 C   0  0  0  0  0  0
  -21.3685   -5.6764   24.9189 C   0  0  0  0  0  0
  -21.6076   -4.3034   24.7239 C   0  0  0  0  0  0
  -21.8808   -3.8114   23.4362 C   0  0  0  0  0  0
  -21.9158   -4.6922   22.3407 C   0  0  0  0  0  0
  -22.7797  -13.5171   21.1887 C   0  0  0  0  0  0
  -22.1630   -4.2108   21.0988 F   0  0  0  0  0  0
  -21.5664   -3.4530   25.7761 F   0  0  0  0  0  0
  -30.0053  -13.3492   20.4552 N   0  0  0  0  0  0
  -26.2921  -12.9293   20.3316 N   0  0  0  0  0  0
  -25.9257  -11.6440   20.5766 N   0  0  0  0  0  0
  -22.0447  -12.8178   22.0447 N   0  0  0  0  0  0
  -25.4265  -15.1834   20.4178 N   0  0  0  0  0  0
  -31.7739  -14.7372   20.1195 O   0  0  0  0  0  0
  -21.6590   -6.8835   21.4257 O   0  0  0  0  0  0
  -22.3498  -14.5503   20.6767 O   0  0  0  0  0  0
  -24.6196  -31.8612   23.2059 C   0  0  0  0  0  0
  -25.9068  -32.4786   23.8360 C   0  0  1  0  0  0
  -27.2335  -27.3853   20.1012 C   0  0  0  0  0  0
  -25.5936  -33.8595   24.2321 N   0  0  0  0  0  0
  -23.4091  -30.4838   21.5485 C   0  0  2  0  0  0
  -24.8536  -28.9379   20.1145 C   0  0  0  0  0  0
  -22.7446  -29.4625   22.4963 C   0  0  0  0  0  0
  -18.0276  -28.1420   22.8537 C   0  0  0  0  0  0
  -24.1503  -36.7310   23.2630 C   0  0  0  0  0  0
  -25.9432  -30.8119   21.3656 C   0  0  0  0  0  0
  -26.0162  -29.4427   20.7095 C   0  0  0  0  0  0
  -27.2058  -28.6740   20.6976 C   0  0  0  0  0  0
  -26.0502  -26.9000   19.4958 C   0  0  0  0  0  0
  -24.8698  -27.6697   19.5038 C   0  0  0  0  0  0
  -23.6186  -29.8117   20.1635 C   0  0  0  0  0  0
  -25.4116  -36.3101   24.0334 C   0  0  1  0  0  0
  -20.5845  -28.3664   23.1367 C   0  0  2  0  0  0
  -20.6697  -26.9354   22.5547 C   0  0  0  0  0  0
  -19.5648  -26.6240   21.5398 C   0  0  0  0  0  0
  -18.1858  -26.7937   22.1769 C   0  0  0  0  0  0
  -19.1546  -28.8873   23.2897 C   0  0  0  0  0  0
  -18.9517  -30.1490   23.8880 C   0  0  0  0  0  0
  -17.6525  -30.6629   24.0596 C   0  0  0  0  0  0
  -25.9037  -34.9454   23.5107 C   0  0  0  0  0  0
  -16.5373  -29.9146   23.6405 C   0  0  0  0  0  0
  -16.7262  -28.6577   23.0422 C   0  0  0  0  0  0
  -26.4503  -31.6585   25.0713 C   0  0  0  0  0  0
  -25.3788  -31.3666   26.1470 C   0  0  0  0  0  0
  -27.0325  -30.3031   24.6101 C   0  0  0  0  0  0
  -27.6076  -32.4306   25.7495 C   0  0  0  0  0  0
  -27.5592  -37.1806   24.8466 C   0  0  0  0  0  0
  -21.4148  -29.3078   22.3820 N   0  0  0  0  0  0
  -26.4304  -37.3789   23.9412 N   0  0  0  0  0  0
  -24.6756  -31.0690   22.0987 N   0  0  0  0  0  0
  -23.4223  -28.8098   23.2939 O   0  0  0  0  0  0
  -28.4175  -26.6632   20.1428 O   0  0  0  0  0  0
  -26.5597  -34.8895   22.4673 O   0  0  0  0  0  0
  -23.5385  -32.1389   23.7417 O   0  0  0  0  0  0
  -27.4017  -18.6491   22.8374 C   0  0  0  0  0  0
  -28.3387  -17.7605   22.2958 C   0  0  0  0  0  0
  -27.1987  -19.9062   22.2530 C   0  0  0  0  0  0
  -29.1209  -18.1122   21.1783 C   0  0  0  0  0  0
  -27.9589  -20.3307   21.1385 C   0  0  0  0  0  0
  -28.9508  -19.4313   20.6132 C   0  0  0  0  0  0
  -29.8297  -19.9169   19.4659 C   0  0  0  0  0  0
  -30.1394  -17.0478   20.6615 C   0  0  0  0  0  0
  -27.5671  -21.6998   20.4992 C   0  0  0  0  0  0
  -27.8590  -24.2203   20.6658 C   0  0  0  0  0  0
  -28.5031  -25.2782   19.7152 C   0  0  0  0  0  0
  -29.8455  -15.6056   20.9172 N   0  0  0  0  0  0
  -28.5025  -22.8543   20.6582 N   0  3  0  0  0  0
  -31.4691  -12.4498   19.1793 H   0  0  0  0  0  0
  -30.3202  -11.3376   19.8835 H   0  0  0  0  0  0
  -29.7676  -11.7732   17.4676 H   0  0  0  0  0  0
  -29.6691  -13.4901   17.7914 H   0  0  0  0  0  0
  -27.8480  -11.2909   18.8416 H   0  0  0  0  0  0
  -27.3738  -12.5888   17.7838 H   0  0  0  0  0  0
  -27.6784  -14.2463   19.5385 H   0  0  0  0  0  0
  -28.6639  -12.0020   21.3716 H   0  0  0  0  0  0
  -28.4187  -13.6474   21.8634 H   0  0  0  0  0  0
  -25.2715   -9.5593   22.4752 H   0  0  0  0  0  0
  -23.9949   -7.4541   22.7410 H   0  0  0  0  0  0
  -21.0842   -8.8693   19.8911 H   0  0  0  0  0  0
  -22.3665  -10.9608   19.6148 H   0  0  0  0  0  0
  -21.1953   -7.6106   23.9733 H   0  0  0  0  0  0
  -21.1557   -6.0488   25.9103 H   0  0  0  0  0  0
  -22.0563   -2.7574   23.2888 H   0  0  0  0  0  0
  -22.4094  -11.9847   22.4816 H   0  0  0  0  0  0
  -21.1067  -13.1201   22.2667 H   0  0  0  0  0  0
  -24.6769  -15.8519   20.5494 H   0  0  0  0  0  0
  -26.3004  -15.6100   20.1393 H   0  0  0  0  0  0
  -26.7121  -32.5469   23.1083 H   0  0  0  0  0  0
  -25.0126  -33.9763   25.0497 H   0  0  0  0  0  0
  -22.6993  -31.3012   21.4073 H   0  0  0  0  0  0
  -23.3756  -35.9660   23.3295 H   0  0  0  0  0  0
  -24.3587  -36.8928   22.2045 H   0  0  0  0  0  0
  -23.7270  -37.6509   23.6655 H   0  0  0  0  0  0
  -26.0649  -31.5771   20.5949 H   0  0  0  0  0  0
  -26.8312  -30.8690   21.9860 H   0  0  0  0  0  0
  -28.1069  -29.0591   21.1582 H   0  0  0  0  0  0
  -26.0079  -25.9273   19.0201 H   0  0  0  0  0  0
  -23.9756  -27.2783   19.0418 H   0  0  0  0  0  0
  -23.7365  -30.5873   19.4080 H   0  0  0  0  0  0
  -22.7409  -29.2396   19.8573 H   0  0  0  0  0  0
  -25.1299  -36.1942   25.0834 H   0  0  0  0  0  0
  -20.9960  -28.3115   24.1472 H   0  0  0  0  0  0
  -20.5651  -26.2262   23.3787 H   0  0  0  0  0  0
  -21.6560  -26.7334   22.1331 H   0  0  0  0  0  0
  -19.6599  -27.2846   20.6782 H   0  0  0  0  0  0
  -19.6691  -25.6055   21.1684 H   0  0  0  0  0  0
  -17.4148  -26.6765   21.4150 H   0  0  0  0  0  0
  -18.0127  -26.0142   22.9191 H   0  0  0  0  0  0
  -19.7989  -30.7260   24.2324 H   0  0  0  0  0  0
  -17.5134  -31.6259   24.5259 H   0  0  0  0  0  0
  -15.5421  -30.3085   23.7802 H   0  0  0  0  0  0
  -15.8640  -28.0913   22.7203 H   0  0  0  0  0  0
  -24.5965  -30.7005   25.7803 H   0  0  0  0  0  0
  -24.8962  -32.2796   26.4972 H   0  0  0  0  0  0
  -25.8155  -30.8800   27.0198 H   0  0  0  0  0  0
  -26.2835  -29.6786   24.1212 H   0  0  0  0  0  0
  -27.4137  -29.7282   25.4542 H   0  0  0  0  0  0
  -27.8669  -30.4342   23.9211 H   0  0  0  0  0  0
  -27.2702  -33.3589   26.2123 H   0  0  0  0  0  0
  -28.3880  -32.6890   25.0327 H   0  0  0  0  0  0
  -28.0773  -31.8403   26.5375 H   0  0  0  0  0  0
  -28.2601  -38.0108   24.7511 H   0  0  0  0  0  0
  -28.1097  -36.2628   24.6303 H   0  0  0  0  0  0
  -27.2305  -37.1480   25.8868 H   0  0  0  0  0  0
  -20.9272  -29.9031   21.7284 H   0  0  0  0  0  0
  -26.0176  -38.2868   24.1396 H   0  0  0  0  0  0
  -26.8190  -18.3594   23.7013 H   0  0  0  0  0  0
  -28.4542  -16.7976   22.7676 H   0  0  0  0  0  0
  -26.4292  -20.5325   22.6777 H   0  0  0  0  0  0
  -30.2740  -19.1197   18.8779 H   0  0  0  0  0  0
  -30.6416  -20.5232   19.8677 H   0  0  0  0  0  0
  -29.2653  -20.5176   18.7561 H   0  0  0  0  0  0
  -30.2436  -17.1348   19.5851 H   0  0  0  0  0  0
  -31.1163  -17.2864   21.0826 H   0  0  0  0  0  0
  -26.6253  -21.9989   20.9604 H   0  0  0  0  0  0
  -27.3201  -21.5685   19.4436 H   0  0  0  0  0  0
  -26.7987  -24.1517   20.4216 H   0  0  0  0  0  0
  -27.9093  -24.5860   21.6893 H   0  0  0  0  0  0
  -28.1375  -25.1539   18.6950 H   0  0  0  0  0  0
  -29.5707  -25.0652   19.6606 H   0  0  0  0  0  0
  -28.9134  -15.3745   21.2283 H   0  0  0  0  0  0
  -28.9961  -22.7400   21.5290 H   0  0  0  0  0  0
  -29.1945  -22.7990   19.9255 H   0  0  0  0  0  0
  1 25  1  0  0  0
  1 30  2  0  0  0
  1 82  1  0  0  0
  2  3  1  0  0  0
  2 25  1  0  0  0
  2 84  1  0  0  0
  2 85  1  0  0  0
  3  4  1  0  0  0
  3 86  1  0  0  0
  3 87  1  0  0  0
  4  5  1  0  0  0
  4 88  1  0  0  0
  4 89  1  0  0  0
  5  6  1  0  0  0
  5 26  1  0  0  0
  5 90  1  0  0  0
  6 25  1  0  0  0
  6 91  1  0  0  0
  6 92  1  0  0  0
  7  8  2  0  0  0
  7 26  1  0  0  0
  7 29  1  0  0  0
  8  9  1  0  0  0
  8 22  1  0  0  0
  9 10  1  0  0  0
  9 27  2  0  0  0
 10 11  2  0  0  0
 10 15  1  0  0  0
 11 12  1  0  0  0
 11 93  1  0  0  0
 12 13  2  0  0  0
 12 94  1  0  0  0
 13 14  1  0  0  0
 13 31  1  0  0  0
 14 15  2  0  0  0
 14 95  1  0  0  0
 15 96  1  0  0  0
 16 17  2  0  0  0
 16 21  1  0  0  0
 16 31  1  0  0  0
 17 18  1  0  0  0
 17 97  1  0  0  0
 18 19  2  0  0  0
 18 98  1  0  0  0
 19 20  1  0  0  0
 19 24  1  0  0  0
 20 21  2  0  0  0
 20 99  1  0  0  0
 21 23  1  0  0  0
 22 28  1  0  0  0
 22 32  2  0  0  0
 26 27  1  0  0  0
 28100  1  0  0  0
 28101  1  0  0  0
 29102  1  0  0  0
 29103  1  0  0  0
 33 34  1  0  0  0
 33 66  1  0  0  0
 33 70  2  0  0  0
 34 36  1  0  0  0
 34 59  1  0  0  0
 34104  1  0  0  0
 35 44  2  0  0  0
 35 45  1  0  0  0
 35 68  1  0  0  0
 36 56  1  0  0  0
 36105  1  0  0  0
 37 39  1  0  0  0
 37 47  1  0  0  0
 37 66  1  0  0  0
 37106  1  0  0  0
 38 43  2  0  0  0
 38 46  1  0  0  0
 38 47  1  0  0  0
 39 64  1  0  0  0
 39 67  2  0  0  0
 40 52  1  0  0  0
 40 53  2  0  0  0
 40 58  1  0  0  0
 41107  1  0  0  0
 41108  1  0  0  0
 41109  1  0  0  0
 41 48  1  0  0  0
 42 43  1  0  0  0
 42 66  1  0  0  0
 42110  1  0  0  0
 42111  1  0  0  0
 43 44  1  0  0  0
 44112  1  0  0  0
 45 46  2  0  0  0
 45113  1  0  0  0
 46114  1  0  0  0
 47115  1  0  0  0
 47116  1  0  0  0
 48 56  1  0  0  0
 48 65  1  0  0  0
 48117  1  0  0  0
 49 50  1  0  0  0
 49 53  1  0  0  0
 49 64  1  0  0  0
 49118  1  0  0  0
 50 51  1  0  0  0
 50119  1  0  0  0
 50120  1  0  0  0
 51 52  1  0  0  0
 51121  1  0  0  0
 51122  1  0  0  0
 52123  1  0  0  0
 52124  1  0  0  0
 53 54  1  0  0  0
 54 55  2  0  0  0
 54125  1  0  0  0
 55 57  1  0  0  0
 55126  1  0  0  0
 56 69  2  0  0  0
 57 58  2  0  0  0
 57127  1  0  0  0
 58128  1  0  0  0
 59 60  1  0  0  0
 59 61  1  0  0  0
 59 62  1  0  0  0
 60129  1  0  0  0
 60130  1  0  0  0
 60131  1  0  0  0
 61132  1  0  0  0
 61133  1  0  0  0
 61134  1  0  0  0
 62135  1  0  0  0
 62136  1  0  0  0
 62137  1  0  0  0
 63 65  1  0  0  0
 63138  1  0  0  0
 63139  1  0  0  0
 63140  1  0  0  0
 64141  1  0  0  0
 65142  1  0  0  0
 68 81  1  0  0  0
 71 72  2  0  0  0
 71 73  1  0  0  0
 71143  1  0  0  0
 72 74  1  0  0  0
 72144  1  0  0  0
 73 75  2  0  0  0
 73145  1  0  0  0
 74 76  2  0  0  0
 74 78  1  0  0  0
 75 76  1  0  0  0
 75 79  1  0  0  0
 76 77  1  0  0  0
 77146  1  0  0  0
 77147  1  0  0  0
 77148  1  0  0  0
 78 82  1  0  0  0
 78149  1  0  0  0
 78150  1  0  0  0
 79 83  1  0  0  0
 79151  1  0  0  0
 79152  1  0  0  0
 80 81  1  0  0  0
 80 83  1  0  0  0
 80153  1  0  0  0
 80154  1  0  0  0
 81155  1  0  0  0
 81156  1  0  0  0
 82157  1  0  0  0
 83158  1  0  0  0
 83159  1  0  0  0
M  CHG  1  83   1
M  ISO  4   1 100  68 101  81 101  82 100
M  END
> <chiral flag>
0

> <version>
0

> <s_m_source_file>
/data/baiqing/PycharmProjects/Reinvent-master-3.2/result/LINK_invent/BTK/process_docking_weight1_custom_product_contain_oxygen_bond_distance_aromatic_linkinvent_7_9_3/rearranged_h_0042.sdf

> <i_m_source_file_index>
38

> <r_mmod_Potential_Energy-OPLS-2005>
-218.816940307617

> <r_mmod_Stretch_Energy-OPLS-2005>
57.2245063781738

> <r_mmod_Bend_Energy-OPLS-2005>
123.728996276855

> <r_mmod_Torsional_Energy-OPLS-2005>
199.850845336914

> <r_mmod_Improper_Torsional_Energy-OPLS-2005>
5.42799139022827

> <r_mmod_Van_der_Waal_Energy-OPLS-2005>
147.667816162109

> <r_mmod_Electrostatic_Energy-OPLS-2005>
-322.670288085938

> <r_mmod_Solvation_Energy-OPLS-2005>
-455.662048339844

> <b_mmod_Minimization_Converged-OPLS-2005>
0

> <r_mmod_RMS_Derivative-OPLS-2005>
7.01927947998047

$$$$
38
                    3D
 Structure written by MMmdl.
168177  0  0  1  0            999 V2000
  -30.6702  -14.6512   20.5202 C   0  0  0  0  0  0
  -30.4350  -12.4056   19.4707 C   0  0  0  0  0  0
  -29.5141  -12.4980   18.2324 C   0  0  0  0  0  0
  -28.0368  -12.3454   18.6388 C   0  0  0  0  0  0
  -27.6542  -13.2307   19.8562 C   0  0  2  0  0  0
  -28.6920  -13.1127   20.9924 C   0  0  0  0  0  0
  -25.2593  -13.8232   20.5706 C   0  0  0  0  0  0
  -24.1855  -13.0473   20.9188 C   0  0  0  0  0  0
  -24.6441  -11.6945   20.8723 C   0  0  0  0  0  0
  -23.9127  -10.4318   21.0418 C   0  0  0  0  0  0
  -24.3674   -9.4232   21.9198 C   0  0  0  0  0  0
  -23.6337   -8.2270   22.0746 C   0  0  0  0  0  0
  -22.4311   -8.0308   21.3549 C   0  0  0  0  0  0
  -21.9959   -9.0297   20.4663 C   0  0  0  0  0  0
  -22.7305  -10.2171   20.3084 C   0  0  0  0  0  0
  -21.6873   -6.0756   22.5287 C   0  0  0  0  0  0
  -21.3996   -6.5646   23.8218 C   0  0  0  0  0  0
  -21.3654   -5.6787   24.9179 C   0  0  0  0  0  0
  -21.6051   -4.3055   24.7223 C   0  0  0  0  0  0
  -21.8826   -3.8158   23.4338 C   0  0  0  0  0  0
  -21.9202   -4.6976   22.3400 C   0  0  0  0  0  0
  -22.7885  -13.5252   21.1855 C   0  0  0  0  0  0
  -22.1688   -4.2171   21.0977 F   0  0  0  0  0  0
  -21.5640   -3.4545   25.7733 F   0  0  0  0  0  0
  -30.0144  -13.4434   20.4420 N   0  0  0  0  0  0
  -26.3012  -12.9434   20.3303 N   0  0  0  0  0  0
  -25.9359  -11.6572   20.5707 N   0  0  0  0  0  0
  -22.0525  -12.8230   22.0405 N   0  0  0  0  0  0
  -25.4383  -15.1941   20.4133 N   0  0  0  0  0  0
  -31.7872  -14.7820   20.0120 O   0  0  0  0  0  0
  -21.6659   -6.8919   21.4252 O   0  0  0  0  0  0
  -22.3546  -14.5546   20.6696 O   0  0  0  0  0  0
  -24.6299  -31.8592   23.1980 C   0  0  0  0  0  0
  -25.9124  -32.4807   23.8340 C   0  0  1  0  0  0
  -27.2374  -27.2925   20.1503 C   0  0  0  0  0  0
  -25.5954  -33.8602   24.2277 N   0  0  0  0  0  0
  -23.4280  -30.4788   21.5387 C   0  0  2  0  0  0
  -24.8809  -28.9244   20.1157 C   0  0  0  0  0  0
  -22.7495  -29.4630   22.4893 C   0  0  0  0  0  0
  -18.0298  -28.1401   22.8479 C   0  0  0  0  0  0
  -24.1499  -36.7329   23.2637 C   0  0  0  0  0  0
  -25.9670  -30.7837   21.3715 C   0  0  0  0  0  0
  -26.0445  -29.4022   20.7290 C   0  0  0  0  0  0
  -27.2263  -28.5977   20.7390 C   0  0  0  0  0  0
  -26.0573  -26.8789   19.4963 C   0  0  0  0  0  0
  -24.8887  -27.6687   19.4864 C   0  0  0  0  0  0
  -23.6500  -29.8095   20.1556 C   0  0  0  0  0  0
  -25.4123  -36.3112   24.0324 C   0  0  1  0  0  0
  -20.5895  -28.3742   23.1268 C   0  0  2  0  0  0
  -20.6810  -26.9461   22.5414 C   0  0  0  0  0  0
  -19.5781  -26.6390   21.5225 C   0  0  0  0  0  0
  -18.1944  -26.7946   22.1599 C   0  0  0  0  0  0
  -19.1546  -28.8877   23.2874 C   0  0  0  0  0  0
  -18.9463  -30.1464   23.8913 C   0  0  0  0  0  0
  -17.6461  -30.6597   24.0569 C   0  0  0  0  0  0
  -25.9050  -34.9481   23.5092 C   0  0  0  0  0  0
  -16.5359  -29.9091   23.6330 C   0  0  0  0  0  0
  -16.7280  -28.6510   23.0355 C   0  0  0  0  0  0
  -26.4485  -31.6624   25.0718 C   0  0  0  0  0  0
  -25.3714  -31.3786   26.1448 C   0  0  0  0  0  0
  -27.0319  -30.3055   24.6154 C   0  0  0  0  0  0
  -27.6028  -32.4367   25.7511 C   0  0  0  0  0  0
  -27.5590  -37.1823   24.8450 C   0  0  0  0  0  0
  -21.4205  -29.3082   22.3646 N   0  0  0  0  0  0
  -26.4303  -37.3799   23.9400 N   0  0  0  0  0  0
  -24.6938  -31.0559   22.0955 N   0  0  0  0  0  0
  -23.4201  -28.8161   23.2993 O   0  0  0  0  0  0
  -28.3512  -26.4277   20.1804 O   0  0  0  0  0  0
  -26.5582  -34.8951   22.4641 O   0  0  0  0  0  0
  -23.5455  -32.1395   23.7276 O   0  0  0  0  0  0
  -29.9174  -17.1872   20.4981 C   0  0  0  0  0  0
  -29.7732  -15.8971   22.5421 C   0  0  0  0  0  0
  -30.0621  -15.9137   21.1695 C   0  0  0  0  0  0
  -29.4691  -18.4060   21.1446 C   0  0  0  0  0  0
  -29.1902  -18.2966   22.5434 C   0  0  0  0  0  0
  -29.3489  -17.0525   23.2161 C   0  0  0  0  0  0
  -28.6777  -22.3405   20.7522 C   0  0  0  0  0  0
  -27.5109  -22.1027   21.3836 C   0  0  0  0  0  0
  -31.6054  -23.2333   19.8831 C   0  0  0  0  0  0
  -32.0411  -22.0240   20.7271 C   0  0  0  0  0  0
  -30.5730  -24.1395   20.5796 C   0  0  0  0  0  0
  -30.9040  -21.2017   21.3660 C   0  0  0  0  0  0
  -29.1048  -23.7952   20.2482 C   0  0  2  0  0  0
  -28.6945  -19.4660   23.3822 C   0  0  0  0  0  0
  -29.1404  -19.7162   20.2830 C   0  0  0  0  0  0
  -28.1427  -25.0295   20.6705 C   0  0  0  0  0  0
  -29.6796  -21.1431   20.5253 N   0  3  1  0  0  0
  -29.0201  -16.9008   24.9083 Cl  0  0  0  0  0  0
  -31.4768  -12.5085   19.1647 H   0  0  0  0  0  0
  -30.3689  -11.4148   19.9245 H   0  0  0  0  0  0
  -29.7800  -11.7272   17.5089 H   0  0  0  0  0  0
  -29.6658  -13.4531   17.7260 H   0  0  0  0  0  0
  -27.8684  -11.2941   18.8772 H   0  0  0  0  0  0
  -27.3874  -12.5657   17.7898 H   0  0  0  0  0  0
  -27.6673  -14.2606   19.4994 H   0  0  0  0  0  0
  -28.6981  -12.1001   21.3941 H   0  0  0  0  0  0
  -28.4119  -13.7561   21.8227 H   0  0  0  0  0  0
  -25.2842   -9.5687   22.4752 H   0  0  0  0  0  0
  -24.0070   -7.4640   22.7408 H   0  0  0  0  0  0
  -21.0914   -8.8836   19.8932 H   0  0  0  0  0  0
  -22.3809  -10.9716   19.6179 H   0  0  0  0  0  0
  -21.1966   -7.6145   23.9729 H   0  0  0  0  0  0
  -21.1476   -6.0511   25.9084 H   0  0  0  0  0  0
  -22.0611   -2.7617   23.2833 H   0  0  0  0  0  0
  -22.4156  -11.9929   22.4860 H   0  0  0  0  0  0
  -21.1115  -13.1222   22.2542 H   0  0  0  0  0  0
  -24.6900  -15.8671   20.5352 H   0  0  0  0  0  0
  -26.3160  -15.6213   20.1448 H   0  0  0  0  0  0
  -26.7190  -32.5499   23.1100 H   0  0  0  0  0  0
  -25.0250  -33.9749   25.0523 H   0  0  0  0  0  0
  -22.7253  -31.3018   21.3897 H   0  0  0  0  0  0
  -23.3769  -35.9654   23.3278 H   0  0  0  0  0  0
  -24.3584  -36.8974   22.2052 H   0  0  0  0  0  0
  -23.7236  -37.6522   23.6670 H   0  0  0  0  0  0
  -26.0843  -31.5294   20.5845 H   0  0  0  0  0  0
  -26.8542  -30.8552   21.9888 H   0  0  0  0  0  0
  -28.1160  -28.9552   21.2352 H   0  0  0  0  0  0
  -26.0322  -25.9255   18.9893 H   0  0  0  0  0  0
  -24.0009  -27.3030   18.9884 H   0  0  0  0  0  0
  -23.7833  -30.5865   19.4013 H   0  0  0  0  0  0
  -22.7717  -29.2437   19.8425 H   0  0  0  0  0  0
  -25.1301  -36.1973   25.0813 H   0  0  0  0  0  0
  -20.9985  -28.3343   24.1385 H   0  0  0  0  0  0
  -20.5752  -26.2358   23.3623 H   0  0  0  0  0  0
  -21.6683  -26.7501   22.1195 H   0  0  0  0  0  0
  -19.6960  -25.6287   21.1294 H   0  0  0  0  0  0
  -19.6734  -27.3176   20.6733 H   0  0  0  0  0  0
  -17.4237  -26.6723   21.3967 H   0  0  0  0  0  0
  -18.0305  -26.0073   22.8972 H   0  0  0  0  0  0
  -19.7940  -30.7278   24.2303 H   0  0  0  0  0  0
  -17.5016  -31.6275   24.5183 H   0  0  0  0  0  0
  -15.5365  -30.3006   23.7641 H   0  0  0  0  0  0
  -15.8680  -28.0830   22.7073 H   0  0  0  0  0  0
  -24.5841  -30.7190   25.7770 H   0  0  0  0  0  0
  -24.8966  -32.2981   26.4890 H   0  0  0  0  0  0
  -25.8021  -30.8927   27.0212 H   0  0  0  0  0  0
  -26.2848  -29.6802   24.1242 H   0  0  0  0  0  0
  -27.4104  -29.7318   25.4623 H   0  0  0  0  0  0
  -27.8690  -30.4360   23.9294 H   0  0  0  0  0  0
  -27.2599  -33.3649   26.2111 H   0  0  0  0  0  0
  -28.3843  -32.6973   25.0356 H   0  0  0  0  0  0
  -28.0709  -31.8497   26.5428 H   0  0  0  0  0  0
  -28.2602  -38.0128   24.7510 H   0  0  0  0  0  0
  -28.1087  -36.2653   24.6257 H   0  0  0  0  0  0
  -27.2314  -37.1476   25.8857 H   0  0  0  0  0  0
  -20.9388  -29.8832   21.6872 H   0  0  0  0  0  0
  -26.0196  -38.2880   24.1398 H   0  0  0  0  0  0
  -30.1305  -17.2160   19.4396 H   0  0  0  0  0  0
  -29.9126  -14.9876   23.1082 H   0  0  0  0  0  0
  -26.8024  -22.8889   21.5927 H   0  0  0  0  0  0
  -27.2140  -21.1199   21.7162 H   0  0  0  0  0  0
  -31.2338  -22.9064   18.9102 H   0  0  0  0  0  0
  -32.4980  -23.8209   19.6604 H   0  0  0  0  0  0
  -32.6942  -22.3712   21.5283 H   0  0  0  0  0  0
  -32.6673  -21.3753   20.1126 H   0  0  0  0  0  0
  -30.7589  -25.1614   20.2447 H   0  0  0  0  0  0
  -30.7375  -24.1577   21.6596 H   0  0  0  0  0  0
  -30.6577  -21.6168   22.3431 H   0  0  0  0  0  0
  -31.2997  -20.2070   21.5643 H   0  0  0  0  0  0
  -29.0249  -23.7438   19.1615 H   0  0  0  0  0  0
  -29.2211  -19.5200   24.3354 H   0  0  0  0  0  0
  -27.6326  -19.3522   23.6019 H   0  0  0  0  0  0
  -28.8392  -20.4280   22.9199 H   0  0  0  0  0  0
  -28.0624  -19.7547   20.1389 H   0  0  0  0  0  0
  -29.5079  -19.4823   19.2836 H   0  0  0  0  0  0
  -28.1632  -25.1016   21.7585 H   0  0  0  0  0  0
  -27.1276  -24.7171   20.4366 H   0  0  0  0  0  0
  -30.0743  -21.3085   19.6110 H   0  0  0  0  0  0
  1 25  1  0  0  0
  1 30  2  0  0  0
  1 73  1  0  0  0
  2  3  1  0  0  0
  2 25  1  0  0  0
  2 89  1  0  0  0
  2 90  1  0  0  0
  3  4  1  0  0  0
  3 91  1  0  0  0
  3 92  1  0  0  0
  4  5  1  0  0  0
  4 93  1  0  0  0
  4 94  1  0  0  0
  5  6  1  0  0  0
  5 26  1  0  0  0
  5 95  1  0  0  0
  6 25  1  0  0  0
  6 96  1  0  0  0
  6 97  1  0  0  0
  7  8  2  0  0  0
  7 26  1  0  0  0
  7 29  1  0  0  0
  8  9  1  0  0  0
  8 22  1  0  0  0
  9 10  1  0  0  0
  9 27  2  0  0  0
 10 11  2  0  0  0
 10 15  1  0  0  0
 11 12  1  0  0  0
 11 98  1  0  0  0
 12 13  2  0  0  0
 12 99  1  0  0  0
 13 14  1  0  0  0
 13 31  1  0  0  0
 14 15  2  0  0  0
 14100  1  0  0  0
 15101  1  0  0  0
 16 17  2  0  0  0
 16 21  1  0  0  0
 16 31  1  0  0  0
 17 18  1  0  0  0
 17102  1  0  0  0
 18 19  2  0  0  0
 18103  1  0  0  0
 19 20  1  0  0  0
 19 24  1  0  0  0
 20 21  2  0  0  0
 20104  1  0  0  0
 21 23  1  0  0  0
 22 28  1  0  0  0
 22 32  2  0  0  0
 26 27  1  0  0  0
 28105  1  0  0  0
 28106  1  0  0  0
 29107  1  0  0  0
 29108  1  0  0  0
 33 34  1  0  0  0
 33 66  1  0  0  0
 33 70  2  0  0  0
 34 36  1  0  0  0
 34 59  1  0  0  0
 34109  1  0  0  0
 35 44  2  0  0  0
 35 45  1  0  0  0
 35 68  1  0  0  0
 36 56  1  0  0  0
 36110  1  0  0  0
 37 39  1  0  0  0
 37 47  1  0  0  0
 37 66  1  0  0  0
 37111  1  0  0  0
 38 43  2  0  0  0
 38 46  1  0  0  0
 38 47  1  0  0  0
 39 64  1  0  0  0
 39 67  2  0  0  0
 40 52  1  0  0  0
 40 53  2  0  0  0
 40 58  1  0  0  0
 41112  1  0  0  0
 41113  1  0  0  0
 41114  1  0  0  0
 41 48  1  0  0  0
 42 43  1  0  0  0
 42 66  1  0  0  0
 42115  1  0  0  0
 42116  1  0  0  0
 43 44  1  0  0  0
 44117  1  0  0  0
 45 46  2  0  0  0
 45118  1  0  0  0
 46119  1  0  0  0
 47120  1  0  0  0
 47121  1  0  0  0
 48 56  1  0  0  0
 48 65  1  0  0  0
 48122  1  0  0  0
 49 50  1  0  0  0
 49 53  1  0  0  0
 49 64  1  0  0  0
 49123  1  0  0  0
 50 51  1  0  0  0
 50124  1  0  0  0
 50125  1  0  0  0
 51 52  1  0  0  0
 51126  1  0  0  0
 51127  1  0  0  0
 52128  1  0  0  0
 52129  1  0  0  0
 53 54  1  0  0  0
 54 55  2  0  0  0
 54130  1  0  0  0
 55 57  1  0  0  0
 55131  1  0  0  0
 56 69  2  0  0  0
 57 58  2  0  0  0
 57132  1  0  0  0
 58133  1  0  0  0
 59 60  1  0  0  0
 59 61  1  0  0  0
 59 62  1  0  0  0
 60134  1  0  0  0
 60135  1  0  0  0
 60136  1  0  0  0
 61137  1  0  0  0
 61138  1  0  0  0
 61139  1  0  0  0
 62140  1  0  0  0
 62141  1  0  0  0
 62142  1  0  0  0
 63 65  1  0  0  0
 63143  1  0  0  0
 63144  1  0  0  0
 63145  1  0  0  0
 64146  1  0  0  0
 65147  1  0  0  0
 68 86  1  0  0  0
 71 73  2  0  0  0
 71 74  1  0  0  0
 71148  1  0  0  0
 72 73  1  0  0  0
 72 76  2  0  0  0
 72149  1  0  0  0
 74 75  2  0  0  0
 74 85  1  0  0  0
 75 76  1  0  0  0
 75 84  1  0  0  0
 76 88  1  0  0  0
 77 78  2  0  0  0
 77 83  1  0  0  0
 77 87  1  0  0  0
 78150  1  0  0  0
 78151  1  0  0  0
 79 80  1  0  0  0
 79 81  1  0  0  0
 79152  1  0  0  0
 79153  1  0  0  0
 80 82  1  0  0  0
 80154  1  0  0  0
 80155  1  0  0  0
 81 83  1  0  0  0
 81156  1  0  0  0
 81157  1  0  0  0
 82 87  1  0  0  0
 82158  1  0  0  0
 82159  1  0  0  0
 83 86  1  0  0  0
 83160  1  0  0  0
 84161  1  0  0  0
 84162  1  0  0  0
 84163  1  0  0  0
 85164  1  0  0  0
 85165  1  0  0  0
 85 87  1  0  0  0
 86166  1  0  0  0
 86167  1  0  0  0
 87168  1  0  0  0
M  CHG  1  87   1
M  ISO  4   1 100  68 101  73 100  86 101
M  END
> <chiral flag>
0

> <version>
0

> <s_m_source_file>
/data/baiqing/PycharmProjects/Reinvent-master-3.2/result/LINK_invent/BTK/process_docking_weight1_custom_product_contain_oxygen_bond_distance_aromatic_linkinvent_7_9_3/rearranged_h_0042.sdf

> <i_m_source_file_index>
39

> <r_mmod_Potential_Energy-OPLS-2005>
149.309036254883

> <r_mmod_Stretch_Energy-OPLS-2005>
121.579788208008

> <r_mmod_Bend_Energy-OPLS-2005>
188.838180541992

> <r_mmod_Torsional_Energy-OPLS-2005>
246.113388061523

> <r_mmod_Improper_Torsional_Energy-OPLS-2005>
3.13738059997559

> <r_mmod_Van_der_Waal_Energy-OPLS-2005>
149.340759277344

> <r_mmod_Electrostatic_Energy-OPLS-2005>
-193.138854980469

> <r_mmod_Solvation_Energy-OPLS-2005>
-422.526123046875

> <b_mmod_Minimization_Converged-OPLS-2005>
0

> <r_mmod_RMS_Derivative-OPLS-2005>
3.90123271942139

$$$$
39
                    3D
 Structure written by MMmdl.
164173  0  0  1  0            999 V2000
  -30.6938  -14.7527   20.4372 C   0  0  0  0  0  0
  -30.4168  -12.4568   19.4844 C   0  0  0  0  0  0
  -29.5093  -12.5134   18.2395 C   0  0  0  0  0  0
  -28.0348  -12.3516   18.6468 C   0  0  0  0  0  0
  -27.6414  -13.2523   19.8486 C   0  0  2  0  0  0
  -28.6920  -13.2314   20.9832 C   0  0  0  0  0  0
  -25.2493  -13.8245   20.5718 C   0  0  0  0  0  0
  -24.1815  -13.0463   20.9221 C   0  0  0  0  0  0
  -24.6431  -11.6935   20.8760 C   0  0  0  0  0  0
  -23.9113  -10.4307   21.0403 C   0  0  0  0  0  0
  -24.3655   -9.4214   21.9172 C   0  0  0  0  0  0
  -23.6317   -8.2257   22.0755 C   0  0  0  0  0  0
  -22.4300   -8.0301   21.3549 C   0  0  0  0  0  0
  -21.9948   -9.0270   20.4638 C   0  0  0  0  0  0
  -22.7293  -10.2138   20.3044 C   0  0  0  0  0  0
  -21.6860   -6.0744   22.5289 C   0  0  0  0  0  0
  -21.4007   -6.5644   23.8219 C   0  0  0  0  0  0
  -21.3660   -5.6794   24.9175 C   0  0  0  0  0  0
  -21.6052   -4.3061   24.7225 C   0  0  0  0  0  0
  -21.8821   -3.8154   23.4342 C   0  0  0  0  0  0
  -21.9184   -4.6973   22.3397 C   0  0  0  0  0  0
  -22.7812  -13.5213   21.1863 C   0  0  0  0  0  0
  -22.1666   -4.2154   21.0971 F   0  0  0  0  0  0
  -21.5621   -3.4541   25.7735 F   0  0  0  0  0  0
  -29.9951  -13.5588   20.3873 N   0  0  0  0  0  0
  -26.2961  -12.9503   20.3311 N   0  0  0  0  0  0
  -25.9377  -11.6624   20.5778 N   0  0  0  0  0  0
  -22.0466  -12.8180   22.0403 N   0  0  0  0  0  0
  -25.4107  -15.1977   20.4125 N   0  0  0  0  0  0
  -31.8817  -14.7321   20.1163 O   0  0  0  0  0  0
  -21.6656   -6.8894   21.4257 O   0  0  0  0  0  0
  -22.3479  -14.5517   20.6710 O   0  0  0  0  0  0
  -24.6318  -31.8556   23.1978 C   0  0  0  0  0  0
  -25.9141  -32.4754   23.8309 C   0  0  1  0  0  0
  -27.2392  -27.2759   20.1163 C   0  0  0  0  0  0
  -25.5934  -33.8549   24.2235 N   0  0  0  0  0  0
  -23.4286  -30.4767   21.5422 C   0  0  2  0  0  0
  -24.8772  -28.9182   20.1165 C   0  0  0  0  0  0
  -22.7499  -29.4602   22.4928 C   0  0  0  0  0  0
  -18.0282  -28.1395   22.8460 C   0  0  0  0  0  0
  -24.1482  -36.7281   23.2635 C   0  0  0  0  0  0
  -25.9737  -30.7711   21.3748 C   0  0  0  0  0  0
  -26.0508  -29.3930   20.7186 C   0  0  0  0  0  0
  -27.2329  -28.5853   20.7064 C   0  0  0  0  0  0
  -26.0402  -26.8668   19.4884 C   0  0  0  0  0  0
  -24.8757  -27.6607   19.4955 C   0  0  0  0  0  0
  -23.6455  -29.8029   20.1610 C   0  0  0  0  0  0
  -25.4119  -36.3085   24.0318 C   0  0  1  0  0  0
  -20.5881  -28.3714   23.1267 C   0  0  2  0  0  0
  -20.6772  -26.9425   22.5427 C   0  0  0  0  0  0
  -19.5764  -26.6381   21.5219 C   0  0  0  0  0  0
  -18.1924  -26.7928   22.1602 C   0  0  0  0  0  0
  -19.1542  -28.8870   23.2843 C   0  0  0  0  0  0
  -18.9476  -30.1460   23.8895 C   0  0  0  0  0  0
  -17.6468  -30.6590   24.0576 C   0  0  0  0  0  0
  -25.9068  -34.9445   23.5089 C   0  0  0  0  0  0
  -16.5343  -29.9097   23.6346 C   0  0  0  0  0  0
  -16.7271  -28.6519   23.0358 C   0  0  0  0  0  0
  -26.4495  -31.6597   25.0717 C   0  0  0  0  0  0
  -25.3703  -31.3751   26.1427 C   0  0  0  0  0  0
  -27.0347  -30.3012   24.6215 C   0  0  0  0  0  0
  -27.6053  -32.4326   25.7491 C   0  0  0  0  0  0
  -27.5606  -37.1771   24.8442 C   0  0  0  0  0  0
  -21.4209  -29.3046   22.3651 N   0  0  0  0  0  0
  -26.4282  -37.3796   23.9436 N   0  0  0  0  0  0
  -24.6971  -31.0516   22.0966 N   0  0  0  0  0  0
  -23.4188  -28.8156   23.3048 O   0  0  0  0  0  0
  -28.3645  -26.4160   20.1260 O   0  0  0  0  0  0
  -26.5642  -34.8926   22.4659 O   0  0  0  0  0  0
  -23.5476  -32.1356   23.7289 O   0  0  0  0  0  0
  -29.7104  -18.5845   20.3334 C   0  0  0  0  0  0
  -31.9312  -17.6456   20.4431 C   0  0  0  0  0  0
  -30.2267  -19.9317   20.0760 C   0  0  0  0  0  0
  -31.6378  -20.0388   19.9147 C   0  0  0  0  0  0
  -30.5387  -17.3871   20.4670 C   0  0  0  0  0  0
  -32.4700  -18.9145   20.1583 C   0  0  0  0  0  0
  -29.3413  -23.9790   19.7688 C   0  0  0  0  0  0
  -30.1593  -24.3826   18.7782 C   0  0  0  0  0  0
  -27.9606  -23.2136   22.2270 C   0  0  0  0  0  0
  -27.9454  -24.6998   21.8394 C   0  0  0  0  0  0
  -29.3300  -22.5885   21.9312 C   0  0  0  0  0  0
  -28.2032  -24.9300   20.3391 C   0  0  1  0  0  0
  -32.2652  -21.3364   19.4020 C   0  0  0  0  0  0
  -29.3084  -21.2307   19.8146 C   0  0  0  0  0  0
  -30.0383  -15.9730   20.6263 N   0  0  0  0  0  0
  -29.6257  -22.5895   20.4810 N   0  3  1  0  0  0
  -34.1979  -19.0325   20.0757 Cl  0  0  0  0  0  0
  -31.4643  -12.5266   19.1845 H   0  0  0  0  0  0
  -30.3187  -11.4934   19.9883 H   0  0  0  0  0  0
  -29.7884  -11.7350   17.5285 H   0  0  0  0  0  0
  -29.6488  -13.4652   17.7228 H   0  0  0  0  0  0
  -27.8762  -11.3031   18.8989 H   0  0  0  0  0  0
  -27.3853  -12.5599   17.7963 H   0  0  0  0  0  0
  -27.6230  -14.2699   19.4578 H   0  0  0  0  0  0
  -28.7261  -12.2550   21.4671 H   0  0  0  0  0  0
  -28.4356  -13.9524   21.7604 H   0  0  0  0  0  0
  -25.2791   -9.5673   22.4757 H   0  0  0  0  0  0
  -24.0015   -7.4642   22.7481 H   0  0  0  0  0  0
  -21.0878   -8.8794   19.8941 H   0  0  0  0  0  0
  -22.3762  -10.9673   19.6154 H   0  0  0  0  0  0
  -21.2017   -7.6153   23.9722 H   0  0  0  0  0  0
  -21.1478   -6.0522   25.9073 H   0  0  0  0  0  0
  -22.0597   -2.7615   23.2844 H   0  0  0  0  0  0
  -22.4093  -11.9840   22.4793 H   0  0  0  0  0  0
  -21.1062  -13.1150   22.2583 H   0  0  0  0  0  0
  -24.6380  -15.8455   20.5179 H   0  0  0  0  0  0
  -26.2508  -15.6419   20.0670 H   0  0  0  0  0  0
  -26.7216  -32.5411   23.1060 H   0  0  0  0  0  0
  -25.0085  -33.9675   25.0389 H   0  0  0  0  0  0
  -22.7257  -31.3020   21.3923 H   0  0  0  0  0  0
  -23.3774  -35.9595   23.3266 H   0  0  0  0  0  0
  -24.3575  -36.8958   22.2065 H   0  0  0  0  0  0
  -23.7206  -37.6446   23.6687 H   0  0  0  0  0  0
  -26.1070  -31.5297   20.6014 H   0  0  0  0  0  0
  -26.8527  -30.8237   22.0090 H   0  0  0  0  0  0
  -28.1348  -28.9455   21.1837 H   0  0  0  0  0  0
  -25.9785  -25.9181   18.9775 H   0  0  0  0  0  0
  -23.9770  -27.2920   19.0173 H   0  0  0  0  0  0
  -23.7713  -30.5771   19.4029 H   0  0  0  0  0  0
  -22.7625  -29.2335   19.8620 H   0  0  0  0  0  0
  -25.1285  -36.1914   25.0807 H   0  0  0  0  0  0
  -20.9950  -28.3320   24.1407 H   0  0  0  0  0  0
  -20.5691  -26.2334   23.3635 H   0  0  0  0  0  0
  -21.6633  -26.7466   22.1226 H   0  0  0  0  0  0
  -19.6938  -25.6300   21.1247 H   0  0  0  0  0  0
  -19.6717  -27.3216   20.6758 H   0  0  0  0  0  0
  -17.4199  -26.6721   21.3961 H   0  0  0  0  0  0
  -18.0272  -26.0061   22.8996 H   0  0  0  0  0  0
  -19.7951  -30.7247   24.2281 H   0  0  0  0  0  0
  -17.5037  -31.6279   24.5169 H   0  0  0  0  0  0
  -15.5347  -30.3003   23.7680 H   0  0  0  0  0  0
  -15.8663  -28.0841   22.7080 H   0  0  0  0  0  0
  -24.5965  -30.6986   25.7776 H   0  0  0  0  0  0
  -24.8764  -32.2896   26.4694 H   0  0  0  0  0  0
  -25.7993  -30.9081   27.0304 H   0  0  0  0  0  0
  -26.2943  -29.6737   24.1240 H   0  0  0  0  0  0
  -27.4031  -29.7279   25.4733 H   0  0  0  0  0  0
  -27.8809  -30.4265   23.9465 H   0  0  0  0  0  0
  -27.2715  -33.3700   26.1934 H   0  0  0  0  0  0
  -28.3932  -32.6748   25.0357 H   0  0  0  0  0  0
  -28.0634  -31.8524   26.5511 H   0  0  0  0  0  0
  -28.2523  -38.0158   24.7616 H   0  0  0  0  0  0
  -28.1176  -36.2688   24.6073 H   0  0  0  0  0  0
  -27.2325  -37.1203   25.8834 H   0  0  0  0  0  0
  -20.9407  -29.8768   21.6849 H   0  0  0  0  0  0
  -26.0151  -38.2852   24.1518 H   0  0  0  0  0  0
  -28.6380  -18.4643   20.3850 H   0  0  0  0  0  0
  -32.6514  -16.8616   20.6120 H   0  0  0  0  0  0
  -30.0207  -25.3516   18.3210 H   0  0  0  0  0  0
  -30.9736  -23.7857   18.4024 H   0  0  0  0  0  0
  -27.1748  -22.6699   21.6998 H   0  0  0  0  0  0
  -27.7397  -23.1131   23.2901 H   0  0  0  0  0  0
  -28.6960  -25.2342   22.4251 H   0  0  0  0  0  0
  -26.9851  -25.1379   22.1128 H   0  0  0  0  0  0
  -29.3973  -21.5781   22.3322 H   0  0  0  0  0  0
  -30.1082  -23.1622   22.4372 H   0  0  0  0  0  0
  -27.3291  -24.5751   19.7995 H   0  0  0  0  0  0
  -31.7536  -21.6586   18.4941 H   0  0  0  0  0  0
  -33.3093  -21.2329   19.1085 H   0  0  0  0  0  0
  -32.2277  -22.1324   20.1439 H   0  0  0  0  0  0
  -28.2745  -20.9783   20.0465 H   0  0  0  0  0  0
  -29.3222  -21.3984   18.7364 H   0  0  0  0  0  0
  -29.0517  -15.8833   20.8170 H   0  0  0  0  0  0
  -30.6335  -22.5300   20.4953 H   0  0  0  0  0  0
  1 25  1  0  0  0
  1 30  2  0  0  0
  1 85  1  0  0  0
  2  3  1  0  0  0
  2 25  1  0  0  0
  2 88  1  0  0  0
  2 89  1  0  0  0
  3  4  1  0  0  0
  3 90  1  0  0  0
  3 91  1  0  0  0
  4  5  1  0  0  0
  4 92  1  0  0  0
  4 93  1  0  0  0
  5  6  1  0  0  0
  5 26  1  0  0  0
  5 94  1  0  0  0
  6 25  1  0  0  0
  6 95  1  0  0  0
  6 96  1  0  0  0
  7  8  2  0  0  0
  7 26  1  0  0  0
  7 29  1  0  0  0
  8  9  1  0  0  0
  8 22  1  0  0  0
  9 10  1  0  0  0
  9 27  2  0  0  0
 10 11  2  0  0  0
 10 15  1  0  0  0
 11 12  1  0  0  0
 11 97  1  0  0  0
 12 13  2  0  0  0
 12 98  1  0  0  0
 13 14  1  0  0  0
 13 31  1  0  0  0
 14 15  2  0  0  0
 14 99  1  0  0  0
 15100  1  0  0  0
 16 17  2  0  0  0
 16 21  1  0  0  0
 16 31  1  0  0  0
 17 18  1  0  0  0
 17101  1  0  0  0
 18 19  2  0  0  0
 18102  1  0  0  0
 19 20  1  0  0  0
 19 24  1  0  0  0
 20 21  2  0  0  0
 20103  1  0  0  0
 21 23  1  0  0  0
 22 28  1  0  0  0
 22 32  2  0  0  0
 26 27  1  0  0  0
 28104  1  0  0  0
 28105  1  0  0  0
 29106  1  0  0  0
 29107  1  0  0  0
 33 34  1  0  0  0
 33 66  1  0  0  0
 33 70  2  0  0  0
 34 36  1  0  0  0
 34 59  1  0  0  0
 34108  1  0  0  0
 35 44  2  0  0  0
 35 45  1  0  0  0
 35 68  1  0  0  0
 36 56  1  0  0  0
 36109  1  0  0  0
 37 39  1  0  0  0
 37 47  1  0  0  0
 37 66  1  0  0  0
 37110  1  0  0  0
 38 43  2  0  0  0
 38 46  1  0  0  0
 38 47  1  0  0  0
 39 64  1  0  0  0
 39 67  2  0  0  0
 40 52  1  0  0  0
 40 53  2  0  0  0
 40 58  1  0  0  0
 41111  1  0  0  0
 41112  1  0  0  0
 41113  1  0  0  0
 41 48  1  0  0  0
 42 43  1  0  0  0
 42 66  1  0  0  0
 42114  1  0  0  0
 42115  1  0  0  0
 43 44  1  0  0  0
 44116  1  0  0  0
 45 46  2  0  0  0
 45117  1  0  0  0
 46118  1  0  0  0
 47119  1  0  0  0
 47120  1  0  0  0
 48 56  1  0  0  0
 48 65  1  0  0  0
 48121  1  0  0  0
 49 50  1  0  0  0
 49 53  1  0  0  0
 49 64  1  0  0  0
 49122  1  0  0  0
 50 51  1  0  0  0
 50123  1  0  0  0
 50124  1  0  0  0
 51 52  1  0  0  0
 51125  1  0  0  0
 51126  1  0  0  0
 52127  1  0  0  0
 52128  1  0  0  0
 53 54  1  0  0  0
 54 55  2  0  0  0
 54129  1  0  0  0
 55 57  1  0  0  0
 55130  1  0  0  0
 56 69  2  0  0  0
 57 58  2  0  0  0
 57131  1  0  0  0
 58132  1  0  0  0
 59 60  1  0  0  0
 59 61  1  0  0  0
 59 62  1  0  0  0
 60133  1  0  0  0
 60134  1  0  0  0
 60135  1  0  0  0
 61136  1  0  0  0
 61137  1  0  0  0
 61138  1  0  0  0
 62139  1  0  0  0
 62140  1  0  0  0
 62141  1  0  0  0
 63 65  1  0  0  0
 63142  1  0  0  0
 63143  1  0  0  0
 63144  1  0  0  0
 64145  1  0  0  0
 65146  1  0  0  0
 68 82  1  0  0  0
 71 73  2  0  0  0
 71 75  1  0  0  0
 71147  1  0  0  0
 72 75  2  0  0  0
 72 76  1  0  0  0
 72148  1  0  0  0
 73 74  1  0  0  0
 73 84  1  0  0  0
 74 76  2  0  0  0
 74 83  1  0  0  0
 75 85  1  0  0  0
 76 87  1  0  0  0
 77 78  2  0  0  0
 77 82  1  0  0  0
 77 86  1  0  0  0
 78149  1  0  0  0
 78150  1  0  0  0
 79 80  1  0  0  0
 79 81  1  0  0  0
 79151  1  0  0  0
 79152  1  0  0  0
 80 82  1  0  0  0
 80153  1  0  0  0
 80154  1  0  0  0
 81 86  1  0  0  0
 81155  1  0  0  0
 81156  1  0  0  0
 82157  1  0  0  0
 83158  1  0  0  0
 83159  1  0  0  0
 83160  1  0  0  0
 84161  1  0  0  0
 84162  1  0  0  0
 84 86  1  0  0  0
 85163  1  0  0  0
 86164  1  0  0  0
M  CHG  1  86   1
M  ISO  4   1 100  68 101  82 101  85 100
M  END
> <chiral flag>
0

> <version>
0

> <s_m_source_file>
/data/baiqing/PycharmProjects/Reinvent-master-3.2/result/LINK_invent/BTK/process_docking_weight1_custom_product_contain_oxygen_bond_distance_aromatic_linkinvent_7_9_3/rearranged_h_0042.sdf

> <i_m_source_file_index>
40

> <r_mmod_Potential_Energy-OPLS-2005>
102.593856811523

> <r_mmod_Stretch_Energy-OPLS-2005>
148.698684692383

> <r_mmod_Bend_Energy-OPLS-2005>
184.669464111328

> <r_mmod_Torsional_Energy-OPLS-2005>
236.027816772461

> <r_mmod_Improper_Torsional_Energy-OPLS-2005>
5.47557830810547

> <r_mmod_Van_der_Waal_Energy-OPLS-2005>
149.074188232422

> <r_mmod_Electrostatic_Energy-OPLS-2005>
-254.309875488281

> <r_mmod_Solvation_Energy-OPLS-2005>
-449.432403564453

> <b_mmod_Minimization_Converged-OPLS-2005>
0

> <r_mmod_RMS_Derivative-OPLS-2005>
3.75985908508301

$$$$
40
                    3D
 Structure written by MMmdl.
162170  0  0  1  0            999 V2000
  -30.7248  -14.4254   20.5989 C   0  0  0  0  0  0
  -30.4147  -12.2851   19.4246 C   0  0  0  0  0  0
  -29.4929  -12.5057   18.2090 C   0  0  0  0  0  0
  -28.0138  -12.3701   18.6183 C   0  0  0  0  0  0
  -27.6613  -13.2074   19.8768 C   0  0  2  0  0  0
  -28.6981  -12.9782   21.0002 C   0  0  0  0  0  0
  -25.2570  -13.8169   20.5672 C   0  0  0  0  0  0
  -24.1819  -13.0434   20.9165 C   0  0  0  0  0  0
  -24.6379  -11.6904   20.8720 C   0  0  0  0  0  0
  -23.9047  -10.4287   21.0393 C   0  0  0  0  0  0
  -24.3604   -9.4207   21.9178 C   0  0  0  0  0  0
  -23.6281   -8.2240   22.0754 C   0  0  0  0  0  0
  -22.4264   -8.0278   21.3545 C   0  0  0  0  0  0
  -21.9894   -9.0243   20.4647 C   0  0  0  0  0  0
  -22.7215  -10.2125   20.3047 C   0  0  0  0  0  0
  -21.6851   -6.0726   22.5274 C   0  0  0  0  0  0
  -21.4014   -6.5633   23.8208 C   0  0  0  0  0  0
  -21.3666   -5.6790   24.9175 C   0  0  0  0  0  0
  -21.6040   -4.3049   24.7227 C   0  0  0  0  0  0
  -21.8820   -3.8140   23.4350 C   0  0  0  0  0  0
  -21.9190   -4.6953   22.3405 C   0  0  0  0  0  0
  -22.7841  -13.5234   21.1835 C   0  0  0  0  0  0
  -22.1657   -4.2138   21.0981 F   0  0  0  0  0  0
  -21.5634   -3.4537   25.7742 F   0  0  0  0  0  0
  -30.0356  -13.2640   20.4545 N   0  0  0  0  0  0
  -26.3012  -12.9339   20.3363 N   0  0  0  0  0  0
  -25.9307  -11.6499   20.5754 N   0  0  0  0  0  0
  -22.0486  -12.8227   22.0402 N   0  0  0  0  0  0
  -25.4280  -15.1889   20.4096 N   0  0  0  0  0  0
  -31.8264  -14.6209   20.0788 O   0  0  0  0  0  0
  -21.6634   -6.8870   21.4236 O   0  0  0  0  0  0
  -22.3526  -14.5542   20.6694 O   0  0  0  0  0  0
  -24.6100  -31.8703   23.2114 C   0  0  0  0  0  0
  -25.9006  -32.4840   23.8406 C   0  0  1  0  0  0
  -27.2352  -27.4744   20.0877 C   0  0  0  0  0  0
  -25.5873  -33.8628   24.2340 N   0  0  0  0  0  0
  -23.3985  -30.4920   21.5509 C   0  0  2  0  0  0
  -24.8473  -28.9634   20.1096 C   0  0  0  0  0  0
  -22.7402  -29.4650   22.5001 C   0  0  0  0  0  0
  -18.0269  -28.1348   22.8483 C   0  0  0  0  0  0
  -24.1488  -36.7326   23.2639 C   0  0  0  0  0  0
  -25.9212  -30.8483   21.3582 C   0  0  0  0  0  0
  -26.0033  -29.4854   20.7056 C   0  0  0  0  0  0
  -27.2042  -28.7460   20.6943 C   0  0  0  0  0  0
  -26.0725  -26.9588   19.4827 C   0  0  0  0  0  0
  -24.8745  -27.6985   19.4945 C   0  0  0  0  0  0
  -23.6062  -29.8247   20.1643 C   0  0  0  0  0  0
  -25.4107  -36.3128   24.0343 C   0  0  1  0  0  0
  -20.5853  -28.3625   23.1325 C   0  0  2  0  0  0
  -20.6753  -26.9359   22.5416 C   0  0  0  0  0  0
  -19.5735  -26.6363   21.5200 C   0  0  0  0  0  0
  -18.1915  -26.7895   22.1613 C   0  0  0  0  0  0
  -19.1515  -28.8799   23.2895 C   0  0  0  0  0  0
  -18.9459  -30.1404   23.8901 C   0  0  0  0  0  0
  -17.6465  -30.6557   24.0547 C   0  0  0  0  0  0
  -25.9033  -34.9487   23.5148 C   0  0  0  0  0  0
  -16.5347  -29.9066   23.6316 C   0  0  0  0  0  0
  -16.7261  -28.6477   23.0339 C   0  0  0  0  0  0
  -26.4450  -31.6607   25.0718 C   0  0  0  0  0  0
  -25.3735  -31.3706   26.1490 C   0  0  0  0  0  0
  -27.0275  -30.3063   24.6033 C   0  0  0  0  0  0
  -27.6028  -32.4327   25.7475 C   0  0  0  0  0  0
  -27.5585  -37.1811   24.8464 C   0  0  0  0  0  0
  -21.4127  -29.3005   22.3739 N   0  0  0  0  0  0
  -26.4303  -37.3797   23.9407 N   0  0  0  0  0  0
  -24.6613  -31.0845   22.0993 N   0  0  0  0  0  0
  -23.4186  -28.8191   23.3036 O   0  0  0  0  0  0
  -28.3652  -26.7012   20.1308 O   0  0  0  0  0  0
  -26.5589  -34.8940   22.4702 O   0  0  0  0  0  0
  -23.5306  -32.1444   23.7536 O   0  0  0  0  0  0
  -29.2241  -18.8601   21.8844 C   0  0  0  0  0  0
  -29.6363  -18.4044   24.6185 C   0  0  0  0  0  0
  -28.7143  -19.7853   22.8242 C   0  0  0  0  0  0
  -29.9469  -17.7153   22.2953 C   0  0  0  0  0  0
  -28.9224  -19.5503   24.2082 C   0  0  0  0  0  0
  -30.1532  -17.4944   23.6770 C   0  0  0  0  0  0
  -28.3871  -20.4969   25.2726 C   0  0  0  0  0  0
  -30.5607  -16.8003   21.2382 C   0  0  0  0  0  0
  -27.9556  -21.0157   22.3241 C   0  0  0  0  0  0
  -28.8367  -24.4584   21.0192 C   0  0  0  0  0  0
  -28.3134  -23.4727   22.0858 C   0  0  0  0  0  0
  -28.4083  -25.9058   21.3188 C   0  0  0  0  0  0
  -30.0800  -15.4159   21.2328 N   0  0  0  0  0  0
  -28.8786  -22.1098   21.9528 N   0  3  0  0  0  0
  -31.0613  -16.1385   24.2473 Cl  0  0  0  0  0  0
  -31.4617  -12.3693   19.1274 H   0  0  0  0  0  0
  -30.3012  -11.2723   19.8147 H   0  0  0  0  0  0
  -29.7299  -11.7898   17.4211 H   0  0  0  0  0  0
  -29.6696  -13.4965   17.7867 H   0  0  0  0  0  0
  -27.8202  -11.3144   18.8124 H   0  0  0  0  0  0
  -27.3662  -12.6482   17.7862 H   0  0  0  0  0  0
  -27.7099  -14.2566   19.5852 H   0  0  0  0  0  0
  -28.6606  -11.9428   21.3419 H   0  0  0  0  0  0
  -28.4602  -13.5806   21.8773 H   0  0  0  0  0  0
  -25.2753   -9.5682   22.4748 H   0  0  0  0  0  0
  -23.9988   -7.4635   22.7476 H   0  0  0  0  0  0
  -21.0827   -8.8759   19.8958 H   0  0  0  0  0  0
  -22.3675  -10.9657   19.6153 H   0  0  0  0  0  0
  -21.2006   -7.6139   23.9710 H   0  0  0  0  0  0
  -21.1488   -6.0520   25.9079 H   0  0  0  0  0  0
  -22.0594   -2.7598   23.2853 H   0  0  0  0  0  0
  -22.4099  -11.9886   22.4790 H   0  0  0  0  0  0
  -21.1106  -13.1256   22.2615 H   0  0  0  0  0  0
  -24.6614  -15.8440   20.5198 H   0  0  0  0  0  0
  -26.2855  -15.6307   20.1027 H   0  0  0  0  0  0
  -26.7064  -32.5580   23.1169 H   0  0  0  0  0  0
  -25.0015  -33.9783   25.0477 H   0  0  0  0  0  0
  -22.6847  -31.3064   21.4128 H   0  0  0  0  0  0
  -23.3752  -35.9660   23.3322 H   0  0  0  0  0  0
  -24.3588  -36.8929   22.2056 H   0  0  0  0  0  0
  -23.7248  -37.6538   23.6636 H   0  0  0  0  0  0
  -26.0270  -31.6179   20.5923 H   0  0  0  0  0  0
  -26.8102  -30.9030   21.9739 H   0  0  0  0  0  0
  -28.0990  -29.1393   21.1554 H   0  0  0  0  0  0
  -26.0938  -25.9820   19.0196 H   0  0  0  0  0  0
  -23.9848  -27.2911   19.0340 H   0  0  0  0  0  0
  -23.7093  -30.6015   19.4057 H   0  0  0  0  0  0
  -22.7330  -29.2408   19.8703 H   0  0  0  0  0  0
  -25.1275  -36.2022   25.0836 H   0  0  0  0  0  0
  -20.9927  -28.3180   24.1455 H   0  0  0  0  0  0
  -20.5635  -26.2213   23.3594 H   0  0  0  0  0  0
  -21.6627  -26.7394   22.1217 H   0  0  0  0  0  0
  -19.6903  -25.6284   21.1211 H   0  0  0  0  0  0
  -19.6702  -27.3186   20.6730 H   0  0  0  0  0  0
  -17.4189  -26.6635   21.4016 H   0  0  0  0  0  0
  -18.0318  -26.0021   22.8996 H   0  0  0  0  0  0
  -19.7939  -30.7191   24.2294 H   0  0  0  0  0  0
  -17.5033  -31.6253   24.5128 H   0  0  0  0  0  0
  -15.5349  -30.2970   23.7632 H   0  0  0  0  0  0
  -15.8657  -28.0797   22.7046 H   0  0  0  0  0  0
  -24.5880  -30.7074   25.7836 H   0  0  0  0  0  0
  -24.8944  -32.2865   26.4954 H   0  0  0  0  0  0
  -25.8114  -30.8869   27.0233 H   0  0  0  0  0  0
  -26.2790  -29.6847   24.1095 H   0  0  0  0  0  0
  -27.4091  -29.7274   25.4450 H   0  0  0  0  0  0
  -27.8607  -30.4418   23.9131 H   0  0  0  0  0  0
  -27.2626  -33.3606   26.2088 H   0  0  0  0  0  0
  -28.3812  -32.6923   25.0286 H   0  0  0  0  0  0
  -28.0713  -31.8434   26.5369 H   0  0  0  0  0  0
  -28.2597  -38.0110   24.7494 H   0  0  0  0  0  0
  -28.1096  -36.2642   24.6311 H   0  0  0  0  0  0
  -27.2301  -37.1474   25.8865 H   0  0  0  0  0  0
  -20.9278  -29.8786   21.7020 H   0  0  0  0  0  0
  -26.0227  -38.2890   24.1401 H   0  0  0  0  0  0
  -29.0723  -19.0434   20.8295 H   0  0  0  0  0  0
  -29.8047  -18.2187   25.6705 H   0  0  0  0  0  0
  -28.7528  -20.2320   26.2651 H   0  0  0  0  0  0
  -27.2981  -20.4540   25.3080 H   0  0  0  0  0  0
  -28.6894  -21.5267   25.0811 H   0  0  0  0  0  0
  -31.6424  -16.8186   21.3830 H   0  0  0  0  0  0
  -30.3887  -17.2169   20.2449 H   0  0  0  0  0  0
  -27.2440  -21.3517   23.0789 H   0  0  0  0  0  0
  -27.3524  -20.7509   21.4546 H   0  0  0  0  0  0
  -29.9244  -24.4184   20.9497 H   0  0  0  0  0  0
  -28.4449  -24.1606   20.0451 H   0  0  0  0  0  0
  -28.5368  -23.8376   23.0895 H   0  0  0  0  0  0
  -27.2253  -23.4358   22.0093 H   0  0  0  0  0  0
  -27.4392  -25.8925   21.8247 H   0  0  0  0  0  0
  -29.1023  -26.3614   22.0255 H   0  0  0  0  0  0
  -29.1692  -15.2234   21.6189 H   0  0  0  0  0  0
  -29.1777  -21.9537   21.0049 H   0  0  0  0  0  0
  -29.6943  -22.0491   22.5410 H   0  0  0  0  0  0
  1 25  1  0  0  0
  1 30  2  0  0  0
  1 83  1  0  0  0
  2  3  1  0  0  0
  2 25  1  0  0  0
  2 86  1  0  0  0
  2 87  1  0  0  0
  3  4  1  0  0  0
  3 88  1  0  0  0
  3 89  1  0  0  0
  4  5  1  0  0  0
  4 90  1  0  0  0
  4 91  1  0  0  0
  5  6  1  0  0  0
  5 26  1  0  0  0
  5 92  1  0  0  0
  6 25  1  0  0  0
  6 93  1  0  0  0
  6 94  1  0  0  0
  7  8  2  0  0  0
  7 26  1  0  0  0
  7 29  1  0  0  0
  8  9  1  0  0  0
  8 22  1  0  0  0
  9 10  1  0  0  0
  9 27  2  0  0  0
 10 11  2  0  0  0
 10 15  1  0  0  0
 11 12  1  0  0  0
 11 95  1  0  0  0
 12 13  2  0  0  0
 12 96  1  0  0  0
 13 14  1  0  0  0
 13 31  1  0  0  0
 14 15  2  0  0  0
 14 97  1  0  0  0
 15 98  1  0  0  0
 16 17  2  0  0  0
 16 21  1  0  0  0
 16 31  1  0  0  0
 17 18  1  0  0  0
 17 99  1  0  0  0
 18 19  2  0  0  0
 18100  1  0  0  0
 19 20  1  0  0  0
 19 24  1  0  0  0
 20 21  2  0  0  0
 20101  1  0  0  0
 21 23  1  0  0  0
 22 28  1  0  0  0
 22 32  2  0  0  0
 26 27  1  0  0  0
 28102  1  0  0  0
 28103  1  0  0  0
 29104  1  0  0  0
 29105  1  0  0  0
 33 34  1  0  0  0
 33 66  1  0  0  0
 33 70  2  0  0  0
 34 36  1  0  0  0
 34 59  1  0  0  0
 34106  1  0  0  0
 35 44  2  0  0  0
 35 45  1  0  0  0
 35 68  1  0  0  0
 36 56  1  0  0  0
 36107  1  0  0  0
 37 39  1  0  0  0
 37 47  1  0  0  0
 37 66  1  0  0  0
 37108  1  0  0  0
 38 43  2  0  0  0
 38 46  1  0  0  0
 38 47  1  0  0  0
 39 64  1  0  0  0
 39 67  2  0  0  0
 40 52  1  0  0  0
 40 53  2  0  0  0
 40 58  1  0  0  0
 41109  1  0  0  0
 41110  1  0  0  0
 41111  1  0  0  0
 41 48  1  0  0  0
 42 43  1  0  0  0
 42 66  1  0  0  0
 42112  1  0  0  0
 42113  1  0  0  0
 43 44  1  0  0  0
 44114  1  0  0  0
 45 46  2  0  0  0
 45115  1  0  0  0
 46116  1  0  0  0
 47117  1  0  0  0
 47118  1  0  0  0
 48 56  1  0  0  0
 48 65  1  0  0  0
 48119  1  0  0  0
 49 50  1  0  0  0
 49 53  1  0  0  0
 49 64  1  0  0  0
 49120  1  0  0  0
 50 51  1  0  0  0
 50121  1  0  0  0
 50122  1  0  0  0
 51 52  1  0  0  0
 51123  1  0  0  0
 51124  1  0  0  0
 52125  1  0  0  0
 52126  1  0  0  0
 53 54  1  0  0  0
 54 55  2  0  0  0
 54127  1  0  0  0
 55 57  1  0  0  0
 55128  1  0  0  0
 56 69  2  0  0  0
 57 58  2  0  0  0
 57129  1  0  0  0
 58130  1  0  0  0
 59 60  1  0  0  0
 59 61  1  0  0  0
 59 62  1  0  0  0
 60131  1  0  0  0
 60132  1  0  0  0
 60133  1  0  0  0
 61134  1  0  0  0
 61135  1  0  0  0
 61136  1  0  0  0
 62137  1  0  0  0
 62138  1  0  0  0
 62139  1  0  0  0
 63 65  1  0  0  0
 63140  1  0  0  0
 63141  1  0  0  0
 63142  1  0  0  0
 64143  1  0  0  0
 65144  1  0  0  0
 68 82  1  0  0  0
 71 73  2  0  0  0
 71 74  1  0  0  0
 71145  1  0  0  0
 72 75  2  0  0  0
 72 76  1  0  0  0
 72146  1  0  0  0
 73 75  1  0  0  0
 73 79  1  0  0  0
 74 76  2  0  0  0
 74 78  1  0  0  0
 75 77  1  0  0  0
 76 85  1  0  0  0
 77147  1  0  0  0
 77148  1  0  0  0
 77149  1  0  0  0
 78 83  1  0  0  0
 78150  1  0  0  0
 78151  1  0  0  0
 79 84  1  0  0  0
 79152  1  0  0  0
 79153  1  0  0  0
 80 81  1  0  0  0
 80 82  1  0  0  0
 80154  1  0  0  0
 80155  1  0  0  0
 81 84  1  0  0  0
 81156  1  0  0  0
 81157  1  0  0  0
 82158  1  0  0  0
 82159  1  0  0  0
 83160  1  0  0  0
 84161  1  0  0  0
 84162  1  0  0  0
M  CHG  1  84   1
M  ISO  4   1 100  68 101  82 101  83 100
M  END
> <chiral flag>
0

> <version>
0

> <s_m_source_file>
/data/baiqing/PycharmProjects/Reinvent-master-3.2/result/LINK_invent/BTK/process_docking_weight1_custom_product_contain_oxygen_bond_distance_aromatic_linkinvent_7_9_3/rearranged_h_0042.sdf

> <i_m_source_file_index>
41

> <r_mmod_Potential_Energy-OPLS-2005>
-271.7509765625

> <r_mmod_Stretch_Energy-OPLS-2005>
33.1333923339844

> <r_mmod_Bend_Energy-OPLS-2005>
84.6694030761719

> <r_mmod_Torsional_Energy-OPLS-2005>
232.69465637207

> <r_mmod_Improper_Torsional_Energy-OPLS-2005>
3.39576959609985

> <r_mmod_Van_der_Waal_Energy-OPLS-2005>
151.536193847656

> <r_mmod_Electrostatic_Energy-OPLS-2005>
-309.197387695312

> <r_mmod_Solvation_Energy-OPLS-2005>
-477.88916015625

> <b_mmod_Minimization_Converged-OPLS-2005>
0

> <r_mmod_RMS_Derivative-OPLS-2005>
2.0715274810791

$$$$
41
                    3D
 Structure written by MMmdl.
160168  0  0  1  0            999 V2000
  -30.7412  -14.4002   20.6525 C   0  0  0  0  0  0
  -30.4196  -12.2955   19.4017 C   0  0  0  0  0  0
  -29.4865  -12.5194   18.1957 C   0  0  0  0  0  0
  -28.0096  -12.3768   18.6115 C   0  0  0  0  0  0
  -27.6642  -13.2030   19.8787 C   0  0  2  0  0  0
  -28.7030  -12.9492   20.9938 C   0  0  0  0  0  0
  -25.2583  -13.8153   20.5648 C   0  0  0  0  0  0
  -24.1841  -13.0436   20.9175 C   0  0  0  0  0  0
  -24.6389  -11.6901   20.8737 C   0  0  0  0  0  0
  -23.9055  -10.4290   21.0406 C   0  0  0  0  0  0
  -24.3611   -9.4206   21.9183 C   0  0  0  0  0  0
  -23.6289   -8.2243   22.0753 C   0  0  0  0  0  0
  -22.4272   -8.0280   21.3543 C   0  0  0  0  0  0
  -21.9905   -9.0252   20.4646 C   0  0  0  0  0  0
  -22.7229  -10.2133   20.3054 C   0  0  0  0  0  0
  -21.6851   -6.0733   22.5280 C   0  0  0  0  0  0
  -21.4012   -6.5638   23.8213 C   0  0  0  0  0  0
  -21.3660   -5.6790   24.9174 C   0  0  0  0  0  0
  -21.6044   -4.3053   24.7225 C   0  0  0  0  0  0
  -21.8821   -3.8145   23.4346 C   0  0  0  0  0  0
  -21.9192   -4.6961   22.3401 C   0  0  0  0  0  0
  -22.7864  -13.5237   21.1846 C   0  0  0  0  0  0
  -22.1661   -4.2148   21.0979 F   0  0  0  0  0  0
  -21.5630   -3.4537   25.7738 F   0  0  0  0  0  0
  -30.0419  -13.2517   20.4528 N   0  0  0  0  0  0
  -26.3027  -12.9322   20.3363 N   0  0  0  0  0  0
  -25.9315  -11.6483   20.5765 N   0  0  0  0  0  0
  -22.0503  -12.8230   22.0403 N   0  0  0  0  0  0
  -25.4279  -15.1862   20.3983 N   0  0  0  0  0  0
  -31.8132  -14.6408   20.0871 O   0  0  0  0  0  0
  -21.6637   -6.8878   21.4242 O   0  0  0  0  0  0
  -22.3549  -14.5546   20.6698 O   0  0  0  0  0  0
  -24.6108  -31.8713   23.2125 C   0  0  0  0  0  0
  -25.9018  -32.4842   23.8413 C   0  0  1  0  0  0
  -27.2413  -27.4674   20.0971 C   0  0  0  0  0  0
  -25.5893  -33.8638   24.2352 N   0  0  0  0  0  0
  -23.3980  -30.4919   21.5525 C   0  0  2  0  0  0
  -24.8471  -28.9557   20.1235 C   0  0  0  0  0  0
  -22.7391  -29.4657   22.5013 C   0  0  0  0  0  0
  -18.0269  -28.1359   22.8491 C   0  0  0  0  0  0
  -24.1490  -36.7321   23.2638 C   0  0  0  0  0  0
  -25.9217  -30.8436   21.3626 C   0  0  0  0  0  0
  -26.0021  -29.4744   20.7239 C   0  0  0  0  0  0
  -27.2029  -28.7338   20.7181 C   0  0  0  0  0  0
  -26.0764  -26.9546   19.4917 C   0  0  0  0  0  0
  -24.8758  -27.6900   19.5098 C   0  0  0  0  0  0
  -23.6067  -29.8192   20.1688 C   0  0  0  0  0  0
  -25.4107  -36.3127   24.0342 C   0  0  1  0  0  0
  -20.5854  -28.3641   23.1330 C   0  0  2  0  0  0
  -20.6759  -26.9383   22.5420 C   0  0  0  0  0  0
  -19.5741  -26.6373   21.5207 C   0  0  0  0  0  0
  -18.1918  -26.7908   22.1616 C   0  0  0  0  0  0
  -19.1516  -28.8818   23.2909 C   0  0  0  0  0  0
  -18.9447  -30.1428   23.8913 C   0  0  0  0  0  0
  -17.6451  -30.6576   24.0556 C   0  0  0  0  0  0
  -25.9028  -34.9488   23.5143 C   0  0  0  0  0  0
  -16.5341  -29.9076   23.6320 C   0  0  0  0  0  0
  -16.7259  -28.6490   23.0344 C   0  0  0  0  0  0
  -26.4456  -31.6605   25.0721 C   0  0  0  0  0  0
  -25.3735  -31.3696   26.1481 C   0  0  0  0  0  0
  -27.0280  -30.3059   24.6055 C   0  0  0  0  0  0
  -27.6047  -32.4309   25.7475 C   0  0  0  0  0  0
  -27.5584  -37.1819   24.8467 C   0  0  0  0  0  0
  -21.4123  -29.3018   22.3748 N   0  0  0  0  0  0
  -26.4301  -37.3802   23.9405 N   0  0  0  0  0  0
  -24.6614  -31.0831   22.1016 N   0  0  0  0  0  0
  -23.4181  -28.8205   23.3048 O   0  0  0  0  0  0
  -28.4076  -26.7539   19.9953 O   0  0  0  0  0  0
  -26.5584  -34.8930   22.4702 O   0  0  0  0  0  0
  -23.5309  -32.1447   23.7541 O   0  0  0  0  0  0
  -31.4085  -19.2340   22.3918 C   0  0  0  0  0  0
  -31.9045  -16.8635   22.1631 C   0  0  0  0  0  0
  -30.0756  -19.0190   21.9747 C   0  0  0  0  0  0
  -29.6447  -17.6899   21.6977 C   0  0  0  0  0  0
  -30.5732  -16.6141   21.7612 C   0  0  0  0  0  0
  -32.3175  -18.1668   22.4844 C   0  0  0  0  0  0
  -29.1484  -20.1681   21.8632 C   0  0  0  0  0  0
  -29.2312  -21.3336   22.5353 C   0  0  0  0  0  0
  -28.1923  -17.4255   21.3084 C   0  0  0  0  0  0
  -28.2656  -22.4931   22.3495 C   0  0  0  0  0  0
  -28.1268  -24.7877   21.4024 C   0  0  0  0  0  0
  -28.8707  -26.1226   21.1859 C   0  0  0  0  0  0
  -30.1504  -15.2848   21.4737 N   0  0  0  0  0  0
  -28.9834  -23.7429   22.0171 N   0  3  0  0  0  0
  -33.9429  -18.4603   22.9860 Cl  0  0  0  0  0  0
  -31.4626  -12.3984   19.0966 H   0  0  0  0  0  0
  -30.3214  -11.2758   19.7767 H   0  0  0  0  0  0
  -29.7212  -11.8086   17.4021 H   0  0  0  0  0  0
  -29.6559  -13.5128   17.7767 H   0  0  0  0  0  0
  -27.8176  -11.3188   18.7954 H   0  0  0  0  0  0
  -27.3573  -12.6637   17.7859 H   0  0  0  0  0  0
  -27.7203  -14.2562   19.6017 H   0  0  0  0  0  0
  -28.6710  -11.9044   21.3061 H   0  0  0  0  0  0
  -28.4521  -13.5190   21.8890 H   0  0  0  0  0  0
  -25.2758   -9.5682   22.4751 H   0  0  0  0  0  0
  -23.9999   -7.4633   22.7469 H   0  0  0  0  0  0
  -21.0836   -8.8770   19.8948 H   0  0  0  0  0  0
  -22.3692  -10.9671   19.6160 H   0  0  0  0  0  0
  -21.2005   -7.6147   23.9716 H   0  0  0  0  0  0
  -21.1481   -6.0520   25.9079 H   0  0  0  0  0  0
  -22.0600   -2.7607   23.2847 H   0  0  0  0  0  0
  -22.4116  -11.9888   22.4786 H   0  0  0  0  0  0
  -21.1121  -13.1258   22.2612 H   0  0  0  0  0  0
  -24.6525  -15.8346   20.4818 H   0  0  0  0  0  0
  -26.2644  -15.6145   20.0248 H   0  0  0  0  0  0
  -26.7093  -32.5578   23.1189 H   0  0  0  0  0  0
  -25.0066  -33.9802   25.0514 H   0  0  0  0  0  0
  -22.6856  -31.3072   21.4130 H   0  0  0  0  0  0
  -23.3746  -35.9664   23.3314 H   0  0  0  0  0  0
  -24.3587  -36.8915   22.2051 H   0  0  0  0  0  0
  -23.7245  -37.6535   23.6633 H   0  0  0  0  0  0
  -26.0262  -31.6036   20.5869 H   0  0  0  0  0  0
  -26.8123  -30.9054   21.9758 H   0  0  0  0  0  0
  -28.0990  -29.1410   21.1662 H   0  0  0  0  0  0
  -26.1033  -25.9924   18.9997 H   0  0  0  0  0  0
  -23.9894  -27.2842   19.0406 H   0  0  0  0  0  0
  -23.7130  -30.5907   19.4054 H   0  0  0  0  0  0
  -22.7331  -29.2339   19.8760 H   0  0  0  0  0  0
  -25.1284  -36.2004   25.0834 H   0  0  0  0  0  0
  -20.9946  -28.3205   24.1448 H   0  0  0  0  0  0
  -20.5666  -26.2244   23.3601 H   0  0  0  0  0  0
  -21.6632  -26.7439   22.1210 H   0  0  0  0  0  0
  -19.6909  -25.6291   21.1215 H   0  0  0  0  0  0
  -19.6684  -27.3204   20.6755 H   0  0  0  0  0  0
  -17.4192  -26.6661   21.4012 H   0  0  0  0  0  0
  -18.0319  -26.0041   22.9002 H   0  0  0  0  0  0
  -19.7928  -30.7229   24.2295 H   0  0  0  0  0  0
  -17.5010  -31.6259   24.5153 H   0  0  0  0  0  0
  -15.5342  -30.2983   23.7635 H   0  0  0  0  0  0
  -15.8653  -28.0815   22.7053 H   0  0  0  0  0  0
  -24.5911  -30.7035   25.7820 H   0  0  0  0  0  0
  -24.8918  -32.2847   26.4941 H   0  0  0  0  0  0
  -25.8100  -30.8864   27.0232 H   0  0  0  0  0  0
  -26.2809  -29.6832   24.1121 H   0  0  0  0  0  0
  -27.4084  -29.7280   25.4487 H   0  0  0  0  0  0
  -27.8627  -30.4394   23.9168 H   0  0  0  0  0  0
  -27.2685  -33.3603   26.2078 H   0  0  0  0  0  0
  -28.3842  -32.6871   25.0288 H   0  0  0  0  0  0
  -28.0723  -31.8409   26.5368 H   0  0  0  0  0  0
  -28.2618  -38.0104   24.7512 H   0  0  0  0  0  0
  -28.1065  -36.2637   24.6298 H   0  0  0  0  0  0
  -27.2299  -37.1479   25.8871 H   0  0  0  0  0  0
  -20.9283  -29.8745   21.6974 H   0  0  0  0  0  0
  -26.0198  -38.2886   24.1395 H   0  0  0  0  0  0
  -31.7602  -20.2282   22.6224 H   0  0  0  0  0  0
  -32.6188  -16.0561   22.2382 H   0  0  0  0  0  0
  -28.3463  -20.0620   21.1465 H   0  0  0  0  0  0
  -30.0126  -21.4844   23.2667 H   0  0  0  0  0  0
  -27.5077  -18.0406   21.8920 H   0  0  0  0  0  0
  -27.8856  -16.3960   21.4837 H   0  0  0  0  0  0
  -28.0403  -17.6496   20.2523 H   0  0  0  0  0  0
  -27.6843  -22.6344   23.2619 H   0  0  0  0  0  0
  -27.5581  -22.2478   21.5556 H   0  0  0  0  0  0
  -27.7824  -24.4075   20.4396 H   0  0  0  0  0  0
  -27.2356  -24.9585   22.0076 H   0  0  0  0  0  0
  -29.9368  -25.9428   21.0406 H   0  0  0  0  0  0
  -28.7844  -26.7733   22.0583 H   0  0  0  0  0  0
  -29.2292  -15.0228   21.7885 H   0  0  0  0  0  0
  -29.7240  -23.5168   21.3706 H   0  0  0  0  0  0
  -29.4126  -24.1013   22.8570 H   0  0  0  0  0  0
  1 25  1  0  0  0
  1 30  2  0  0  0
  1 83  1  0  0  0
  2  3  1  0  0  0
  2 25  1  0  0  0
  2 86  1  0  0  0
  2 87  1  0  0  0
  3  4  1  0  0  0
  3 88  1  0  0  0
  3 89  1  0  0  0
  4  5  1  0  0  0
  4 90  1  0  0  0
  4 91  1  0  0  0
  5  6  1  0  0  0
  5 26  1  0  0  0
  5 92  1  0  0  0
  6 25  1  0  0  0
  6 93  1  0  0  0
  6 94  1  0  0  0
  7  8  2  0  0  0
  7 26  1  0  0  0
  7 29  1  0  0  0
  8  9  1  0  0  0
  8 22  1  0  0  0
  9 10  1  0  0  0
  9 27  2  0  0  0
 10 11  2  0  0  0
 10 15  1  0  0  0
 11 12  1  0  0  0
 11 95  1  0  0  0
 12 13  2  0  0  0
 12 96  1  0  0  0
 13 14  1  0  0  0
 13 31  1  0  0  0
 14 15  2  0  0  0
 14 97  1  0  0  0
 15 98  1  0  0  0
 16 17  2  0  0  0
 16 21  1  0  0  0
 16 31  1  0  0  0
 17 18  1  0  0  0
 17 99  1  0  0  0
 18 19  2  0  0  0
 18100  1  0  0  0
 19 20  1  0  0  0
 19 24  1  0  0  0
 20 21  2  0  0  0
 20101  1  0  0  0
 21 23  1  0  0  0
 22 28  1  0  0  0
 22 32  2  0  0  0
 26 27  1  0  0  0
 28102  1  0  0  0
 28103  1  0  0  0
 29104  1  0  0  0
 29105  1  0  0  0
 33 34  1  0  0  0
 33 66  1  0  0  0
 33 70  2  0  0  0
 34 36  1  0  0  0
 34 59  1  0  0  0
 34106  1  0  0  0
 35 44  2  0  0  0
 35 45  1  0  0  0
 35 68  1  0  0  0
 36 56  1  0  0  0
 36107  1  0  0  0
 37 39  1  0  0  0
 37 47  1  0  0  0
 37 66  1  0  0  0
 37108  1  0  0  0
 38 43  2  0  0  0
 38 46  1  0  0  0
 38 47  1  0  0  0
 39 64  1  0  0  0
 39 67  2  0  0  0
 40 52  1  0  0  0
 40 53  2  0  0  0
 40 58  1  0  0  0
 41109  1  0  0  0
 41110  1  0  0  0
 41111  1  0  0  0
 41 48  1  0  0  0
 42 43  1  0  0  0
 42 66  1  0  0  0
 42112  1  0  0  0
 42113  1  0  0  0
 43 44  1  0  0  0
 44114  1  0  0  0
 45 46  2  0  0  0
 45115  1  0  0  0
 46116  1  0  0  0
 47117  1  0  0  0
 47118  1  0  0  0
 48 56  1  0  0  0
 48 65  1  0  0  0
 48119  1  0  0  0
 49 50  1  0  0  0
 49 53  1  0  0  0
 49 64  1  0  0  0
 49120  1  0  0  0
 50 51  1  0  0  0
 50121  1  0  0  0
 50122  1  0  0  0
 51 52  1  0  0  0
 51123  1  0  0  0
 51124  1  0  0  0
 52125  1  0  0  0
 52126  1  0  0  0
 53 54  1  0  0  0
 54 55  2  0  0  0
 54127  1  0  0  0
 55 57  1  0  0  0
 55128  1  0  0  0
 56 69  2  0  0  0
 57 58  2  0  0  0
 57129  1  0  0  0
 58130  1  0  0  0
 59 60  1  0  0  0
 59 61  1  0  0  0
 59 62  1  0  0  0
 60131  1  0  0  0
 60132  1  0  0  0
 60133  1  0  0  0
 61134  1  0  0  0
 61135  1  0  0  0
 61136  1  0  0  0
 62137  1  0  0  0
 62138  1  0  0  0
 62139  1  0  0  0
 63 65  1  0  0  0
 63140  1  0  0  0
 63141  1  0  0  0
 63142  1  0  0  0
 64143  1  0  0  0
 65144  1  0  0  0
 68 82  1  0  0  0
 71 73  2  0  0  0
 71 76  1  0  0  0
 71145  1  0  0  0
 72 75  1  0  0  0
 72 76  2  0  0  0
 72146  1  0  0  0
 73 74  1  0  0  0
 73 77  1  0  0  0
 74 75  2  0  0  0
 74 79  1  0  0  0
 75 83  1  0  0  0
 76 85  1  0  0  0
 77 78  2  0  0  0
 77147  1  0  0  0
 78 80  1  0  0  0
 78148  1  0  0  0
 79149  1  0  0  0
 79150  1  0  0  0
 79151  1  0  0  0
 80 84  1  0  0  0
 80152  1  0  0  0
 80153  1  0  0  0
 81 82  1  0  0  0
 81 84  1  0  0  0
 81154  1  0  0  0
 81155  1  0  0  0
 82156  1  0  0  0
 82157  1  0  0  0
 83158  1  0  0  0
 84159  1  0  0  0
 84160  1  0  0  0
M  CHG  1  84   1
M  ISO  4   1 100  68 101  82 101  83 100
M  END
> <chiral flag>
0

> <version>
0

> <s_m_source_file>
/data/baiqing/PycharmProjects/Reinvent-master-3.2/result/LINK_invent/BTK/process_docking_weight1_custom_product_contain_oxygen_bond_distance_aromatic_linkinvent_7_9_3/rearranged_h_0042.sdf

> <i_m_source_file_index>
42

> <r_mmod_Potential_Energy-OPLS-2005>
-187.154510498047

> <r_mmod_Stretch_Energy-OPLS-2005>
34.2736663818359

> <r_mmod_Bend_Energy-OPLS-2005>
86.8096618652344

> <r_mmod_Torsional_Energy-OPLS-2005>
243.768005371094

> <r_mmod_Improper_Torsional_Energy-OPLS-2005>
2.88508772850037

> <r_mmod_Van_der_Waal_Energy-OPLS-2005>
154.282730102539

> <r_mmod_Electrostatic_Energy-OPLS-2005>
-260.330780029297

> <r_mmod_Solvation_Energy-OPLS-2005>
-455.540710449219

> <b_mmod_Minimization_Converged-OPLS-2005>
0

> <r_mmod_RMS_Derivative-OPLS-2005>
0.880004703998566

$$$$
42
                    3D
 Structure written by MMmdl.
159167  0  0  1  0            999 V2000
  -30.6236  -14.7188   20.4917 C   0  0  0  0  0  0
  -30.4356  -12.4437   19.4576 C   0  0  0  0  0  0
  -29.5069  -12.4927   18.2247 C   0  0  0  0  0  0
  -28.0354  -12.3162   18.6482 C   0  0  0  0  0  0
  -27.6439  -13.2204   19.8470 C   0  0  2  0  0  0
  -28.6908  -13.1489   20.9789 C   0  0  0  0  0  0
  -25.2541  -13.8189   20.5650 C   0  0  0  0  0  0
  -24.1813  -13.0438   20.9202 C   0  0  0  0  0  0
  -24.6390  -11.6921   20.8747 C   0  0  0  0  0  0
  -23.9059  -10.4295   21.0400 C   0  0  0  0  0  0
  -24.3621   -9.4208   21.9173 C   0  0  0  0  0  0
  -23.6300   -8.2246   22.0748 C   0  0  0  0  0  0
  -22.4272   -8.0301   21.3546 C   0  0  0  0  0  0
  -21.9912   -9.0261   20.4631 C   0  0  0  0  0  0
  -22.7240  -10.2140   20.3042 C   0  0  0  0  0  0
  -21.6844   -6.0748   22.5278 C   0  0  0  0  0  0
  -21.4014   -6.5641   23.8216 C   0  0  0  0  0  0
  -21.3671   -5.6786   24.9178 C   0  0  0  0  0  0
  -21.6048   -4.3053   24.7216 C   0  0  0  0  0  0
  -21.8825   -3.8149   23.4331 C   0  0  0  0  0  0
  -21.9192   -4.6971   22.3393 C   0  0  0  0  0  0
  -22.7840  -13.5248   21.1865 C   0  0  0  0  0  0
  -22.1657   -4.2168   21.0965 F   0  0  0  0  0  0
  -21.5637   -3.4533   25.7726 F   0  0  0  0  0  0
  -29.9900  -13.5012   20.3900 N   0  0  0  0  0  0
  -26.2948  -12.9369   20.3242 N   0  0  0  0  0  0
  -25.9322  -11.6525   20.5754 N   0  0  0  0  0  0
  -22.0472  -12.8216   22.0406 N   0  0  0  0  0  0
  -25.4204  -15.1913   20.4060 N   0  0  0  0  0  0
  -31.8192  -14.8235   20.2011 O   0  0  0  0  0  0
  -21.6638   -6.8898   21.4247 O   0  0  0  0  0  0
  -22.3524  -14.5554   20.6720 O   0  0  0  0  0  0
  -24.6275  -31.8540   23.1993 C   0  0  0  0  0  0
  -25.9075  -32.4756   23.8377 C   0  0  1  0  0  0
  -27.2187  -27.2588   20.1437 C   0  0  0  0  0  0
  -25.5910  -33.8577   24.2303 N   0  0  0  0  0  0
  -23.4297  -30.4721   21.5413 C   0  0  2  0  0  0
  -24.8803  -28.9233   20.1164 C   0  0  0  0  0  0
  -22.7520  -29.4524   22.4898 C   0  0  0  0  0  0
  -18.0295  -28.1373   22.8405 C   0  0  0  0  0  0
  -24.1494  -36.7286   23.2649 C   0  0  0  0  0  0
  -25.9757  -30.7691   21.3819 C   0  0  0  0  0  0
  -26.0528  -29.3911   20.7269 C   0  0  0  0  0  0
  -27.2278  -28.5705   20.7274 C   0  0  0  0  0  0
  -26.0301  -26.8644   19.4928 C   0  0  0  0  0  0
  -24.8767  -27.6699   19.4856 C   0  0  0  0  0  0
  -23.6571  -29.8134   20.1569 C   0  0  0  0  0  0
  -25.4128  -36.3079   24.0337 C   0  0  1  0  0  0
  -20.5894  -28.3672   23.1239 C   0  0  2  0  0  0
  -20.6778  -26.9385   22.5361 C   0  0  0  0  0  0
  -19.5778  -26.6360   21.5146 C   0  0  0  0  0  0
  -18.1943  -26.7897   22.1557 C   0  0  0  0  0  0
  -19.1550  -28.8844   23.2803 C   0  0  0  0  0  0
  -18.9468  -30.1421   23.8854 C   0  0  0  0  0  0
  -17.6478  -30.6560   24.0514 C   0  0  0  0  0  0
  -25.9050  -34.9439   23.5115 C   0  0  0  0  0  0
  -16.5358  -29.9051   23.6316 C   0  0  0  0  0  0
  -16.7276  -28.6483   23.0309 C   0  0  0  0  0  0
  -26.4476  -31.6618   25.0758 C   0  0  0  0  0  0
  -25.3700  -31.3740   26.1478 C   0  0  0  0  0  0
  -27.0378  -30.3083   24.6229 C   0  0  0  0  0  0
  -27.6093  -32.4339   25.7475 C   0  0  0  0  0  0
  -27.5603  -37.1806   24.8478 C   0  0  0  0  0  0
  -21.4227  -29.3029   22.3670 N   0  0  0  0  0  0
  -26.4329  -37.3756   23.9410 N   0  0  0  0  0  0
  -24.6965  -31.0493   22.0962 N   0  0  0  0  0  0
  -23.4197  -28.8022   23.2991 O   0  0  0  0  0  0
  -28.3062  -26.3590   20.1640 O   0  0  0  0  0  0
  -26.5587  -34.8897   22.4673 O   0  0  0  0  0  0
  -23.5418  -32.1372   23.7242 O   0  0  0  0  0  0
  -31.0497  -18.7498   22.8074 C   0  0  0  0  0  0
  -29.6469  -18.4180   20.4406 C   0  0  0  0  0  0
  -30.5795  -19.9024   22.1372 C   0  0  0  0  0  0
  -30.8258  -17.4369   22.3357 C   0  0  0  0  0  0
  -29.8547  -19.7816   20.9192 C   0  0  0  0  0  0
  -30.1311  -17.2195   21.1135 C   0  0  0  0  0  0
  -30.8868  -21.2546   22.7700 C   0  0  0  0  0  0
  -31.3355  -16.3012   23.2169 C   0  0  0  0  0  0
  -29.4794  -21.0936   20.0755 C   0  0  0  0  0  0
  -28.9154  -23.6933   20.0508 C   0  0  0  0  0  0
  -28.0700  -24.9447   20.6299 C   0  0  0  0  0  0
  -29.8265  -15.8402   20.6629 N   0  0  0  0  0  0
  -28.7424  -22.2953   20.6906 N   0  3  0  0  0  0
  -31.4733  -12.5797   19.1505 H   0  0  0  0  0  0
  -30.3858  -11.4634   19.9373 H   0  0  0  0  0  0
  -29.7835  -11.7114   17.5159 H   0  0  0  0  0  0
  -29.6275  -13.4396   17.6959 H   0  0  0  0  0  0
  -27.9001  -11.2691   18.9241 H   0  0  0  0  0  0
  -27.3689  -12.4967   17.8028 H   0  0  0  0  0  0
  -27.6394  -14.2381   19.4621 H   0  0  0  0  0  0
  -28.7253  -12.1503   21.4162 H   0  0  0  0  0  0
  -28.4311  -13.8253   21.7933 H   0  0  0  0  0  0
  -25.2769   -9.5699   22.4742 H   0  0  0  0  0  0
  -24.0016   -7.4645   22.7468 H   0  0  0  0  0  0
  -21.0852   -8.8787   19.8926 H   0  0  0  0  0  0
  -22.3703  -10.9691   19.6159 H   0  0  0  0  0  0
  -21.1998   -7.6141   23.9733 H   0  0  0  0  0  0
  -21.1487   -6.0501   25.9082 H   0  0  0  0  0  0
  -22.0590   -2.7615   23.2815 H   0  0  0  0  0  0
  -22.4089  -11.9882   22.4776 H   0  0  0  0  0  0
  -21.1114  -13.1267   22.2643 H   0  0  0  0  0  0
  -24.6440  -15.8380   20.5068 H   0  0  0  0  0  0
  -26.2671  -15.6380   20.0736 H   0  0  0  0  0  0
  -26.7144  -32.5441   23.1151 H   0  0  0  0  0  0
  -25.0147  -33.9751   25.0498 H   0  0  0  0  0  0
  -22.7252  -31.2928   21.3894 H   0  0  0  0  0  0
  -23.3766  -35.9606   23.3308 H   0  0  0  0  0  0
  -24.3594  -36.8885   22.2063 H   0  0  0  0  0  0
  -23.7240  -37.6482   23.6658 H   0  0  0  0  0  0
  -26.1138  -31.5328   20.6159 H   0  0  0  0  0  0
  -26.8503  -30.8198   22.0201 H   0  0  0  0  0  0
  -28.1318  -28.9182   21.2079 H   0  0  0  0  0  0
  -25.9841  -25.9150   18.9787 H   0  0  0  0  0  0
  -23.9863  -27.3135   18.9850 H   0  0  0  0  0  0
  -23.8016  -30.5947   19.4090 H   0  0  0  0  0  0
  -22.7792  -29.2530   19.8342 H   0  0  0  0  0  0
  -25.1299  -36.1962   25.0833 H   0  0  0  0  0  0
  -20.9928  -28.3212   24.1389 H   0  0  0  0  0  0
  -20.5629  -26.2270   23.3536 H   0  0  0  0  0  0
  -21.6659  -26.7371   22.1205 H   0  0  0  0  0  0
  -19.6954  -25.6258   21.1230 H   0  0  0  0  0  0
  -19.6778  -27.3099   20.6613 H   0  0  0  0  0  0
  -17.4191  -26.6563   21.3964 H   0  0  0  0  0  0
  -18.0413  -26.0023   22.8972 H   0  0  0  0  0  0
  -19.7953  -30.7187   24.2261 H   0  0  0  0  0  0
  -17.5046  -31.6245   24.5094 H   0  0  0  0  0  0
  -15.5357  -30.2942   23.7691 H   0  0  0  0  0  0
  -15.8658  -28.0790   22.7083 H   0  0  0  0  0  0
  -24.5912  -30.7056   25.7794 H   0  0  0  0  0  0
  -24.8828  -32.2865   26.4909 H   0  0  0  0  0  0
  -25.7988  -30.8917   27.0276 H   0  0  0  0  0  0
  -26.2985  -29.6794   24.1263 H   0  0  0  0  0  0
  -27.4131  -29.7378   25.4733 H   0  0  0  0  0  0
  -27.8797  -30.4429   23.9445 H   0  0  0  0  0  0
  -27.2839  -33.3708   26.2025 H   0  0  0  0  0  0
  -28.3894  -32.6812   25.0256 H   0  0  0  0  0  0
  -28.0783  -31.8475   26.5390 H   0  0  0  0  0  0
  -28.2602  -38.0114   24.7501 H   0  0  0  0  0  0
  -28.1093  -36.2625   24.6315 H   0  0  0  0  0  0
  -27.2283  -37.1463   25.8869 H   0  0  0  0  0  0
  -20.9397  -29.8810   21.6936 H   0  0  0  0  0  0
  -26.0192  -38.2832   24.1420 H   0  0  0  0  0  0
  -31.6019  -18.8736   23.7318 H   0  0  0  0  0  0
  -29.1207  -18.2892   19.5042 H   0  0  0  0  0  0
  -29.9685  -21.7161   23.1342 H   0  0  0  0  0  0
  -31.3758  -21.9250   22.0639 H   0  0  0  0  0  0
  -31.5521  -21.1697   23.6314 H   0  0  0  0  0  0
  -31.2622  -16.5768   24.2689 H   0  0  0  0  0  0
  -32.3835  -16.0913   23.0006 H   0  0  0  0  0  0
  -30.7610  -15.3836   23.1099 H   0  0  0  0  0  0
  -28.9467  -20.7845   19.1735 H   0  0  0  0  0  0
  -30.4323  -21.4850   19.7166 H   0  0  0  0  0  0
  -29.9710  -23.9586   20.1086 H   0  0  0  0  0  0
  -28.6878  -23.6011   18.9886 H   0  0  0  0  0  0
  -27.0146  -24.6886   20.5334 H   0  0  0  0  0  0
  -28.2408  -24.9734   21.7071 H   0  0  0  0  0  0
  -28.8428  -15.6430   20.5565 H   0  0  0  0  0  0
  -27.7614  -22.0559   20.6934 H   0  0  0  0  0  0
  -29.0264  -22.3538   21.6561 H   0  0  0  0  0  0
  1 25  1  0  0  0
  1 30  2  0  0  0
  1 82  1  0  0  0
  2  3  1  0  0  0
  2 25  1  0  0  0
  2 84  1  0  0  0
  2 85  1  0  0  0
  3  4  1  0  0  0
  3 86  1  0  0  0
  3 87  1  0  0  0
  4  5  1  0  0  0
  4 88  1  0  0  0
  4 89  1  0  0  0
  5  6  1  0  0  0
  5 26  1  0  0  0
  5 90  1  0  0  0
  6 25  1  0  0  0
  6 91  1  0  0  0
  6 92  1  0  0  0
  7  8  2  0  0  0
  7 26  1  0  0  0
  7 29  1  0  0  0
  8  9  1  0  0  0
  8 22  1  0  0  0
  9 10  1  0  0  0
  9 27  2  0  0  0
 10 11  2  0  0  0
 10 15  1  0  0  0
 11 12  1  0  0  0
 11 93  1  0  0  0
 12 13  2  0  0  0
 12 94  1  0  0  0
 13 14  1  0  0  0
 13 31  1  0  0  0
 14 15  2  0  0  0
 14 95  1  0  0  0
 15 96  1  0  0  0
 16 17  2  0  0  0
 16 21  1  0  0  0
 16 31  1  0  0  0
 17 18  1  0  0  0
 17 97  1  0  0  0
 18 19  2  0  0  0
 18 98  1  0  0  0
 19 20  1  0  0  0
 19 24  1  0  0  0
 20 21  2  0  0  0
 20 99  1  0  0  0
 21 23  1  0  0  0
 22 28  1  0  0  0
 22 32  2  0  0  0
 26 27  1  0  0  0
 28100  1  0  0  0
 28101  1  0  0  0
 29102  1  0  0  0
 29103  1  0  0  0
 33 34  1  0  0  0
 33 66  1  0  0  0
 33 70  2  0  0  0
 34 36  1  0  0  0
 34 59  1  0  0  0
 34104  1  0  0  0
 35 44  2  0  0  0
 35 45  1  0  0  0
 35 68  1  0  0  0
 36 56  1  0  0  0
 36105  1  0  0  0
 37 39  1  0  0  0
 37 47  1  0  0  0
 37 66  1  0  0  0
 37106  1  0  0  0
 38 43  2  0  0  0
 38 46  1  0  0  0
 38 47  1  0  0  0
 39 64  1  0  0  0
 39 67  2  0  0  0
 40 52  1  0  0  0
 40 53  2  0  0  0
 40 58  1  0  0  0
 41107  1  0  0  0
 41108  1  0  0  0
 41109  1  0  0  0
 41 48  1  0  0  0
 42 43  1  0  0  0
 42 66  1  0  0  0
 42110  1  0  0  0
 42111  1  0  0  0
 43 44  1  0  0  0
 44112  1  0  0  0
 45 46  2  0  0  0
 45113  1  0  0  0
 46114  1  0  0  0
 47115  1  0  0  0
 47116  1  0  0  0
 48 56  1  0  0  0
 48 65  1  0  0  0
 48117  1  0  0  0
 49 50  1  0  0  0
 49 53  1  0  0  0
 49 64  1  0  0  0
 49118  1  0  0  0
 50 51  1  0  0  0
 50119  1  0  0  0
 50120  1  0  0  0
 51 52  1  0  0  0
 51121  1  0  0  0
 51122  1  0  0  0
 52123  1  0  0  0
 52124  1  0  0  0
 53 54  1  0  0  0
 54 55  2  0  0  0
 54125  1  0  0  0
 55 57  1  0  0  0
 55126  1  0  0  0
 56 69  2  0  0  0
 57 58  2  0  0  0
 57127  1  0  0  0
 58128  1  0  0  0
 59 60  1  0  0  0
 59 61  1  0  0  0
 59 62  1  0  0  0
 60129  1  0  0  0
 60130  1  0  0  0
 60131  1  0  0  0
 61132  1  0  0  0
 61133  1  0  0  0
 61134  1  0  0  0
 62135  1  0  0  0
 62136  1  0  0  0
 62137  1  0  0  0
 63 65  1  0  0  0
 63138  1  0  0  0
 63139  1  0  0  0
 63140  1  0  0  0
 64141  1  0  0  0
 65142  1  0  0  0
 68 81  1  0  0  0
 71 73  2  0  0  0
 71 74  1  0  0  0
 71143  1  0  0  0
 72 75  2  0  0  0
 72 76  1  0  0  0
 72144  1  0  0  0
 73 75  1  0  0  0
 73 77  1  0  0  0
 74 76  2  0  0  0
 74 78  1  0  0  0
 75 79  1  0  0  0
 76 82  1  0  0  0
 77145  1  0  0  0
 77146  1  0  0  0
 77147  1  0  0  0
 78148  1  0  0  0
 78149  1  0  0  0
 78150  1  0  0  0
 79 83  1  0  0  0
 79151  1  0  0  0
 79152  1  0  0  0
 80 81  1  0  0  0
 80 83  1  0  0  0
 80153  1  0  0  0
 80154  1  0  0  0
 81155  1  0  0  0
 81156  1  0  0  0
 82157  1  0  0  0
 83158  1  0  0  0
 83159  1  0  0  0
M  CHG  1  83   1
M  ISO  4   1 100  68 101  81 101  82 100
M  END
> <chiral flag>
0

> <version>
0

> <s_m_source_file>
/data/baiqing/PycharmProjects/Reinvent-master-3.2/result/LINK_invent/BTK/process_docking_weight1_custom_product_contain_oxygen_bond_distance_aromatic_linkinvent_7_9_3/rearranged_h_0042.sdf

> <i_m_source_file_index>
43

> <r_mmod_Potential_Energy-OPLS-2005>
-6.35252523422241

> <r_mmod_Stretch_Energy-OPLS-2005>
122.336204528809

> <r_mmod_Bend_Energy-OPLS-2005>
159.297744750977

> <r_mmod_Torsional_Energy-OPLS-2005>
246.998519897461

> <r_mmod_Improper_Torsional_Energy-OPLS-2005>
7.05956029891968

> <r_mmod_Van_der_Waal_Energy-OPLS-2005>
138.44612121582

> <r_mmod_Electrostatic_Energy-OPLS-2005>
-300.539825439453

> <r_mmod_Solvation_Energy-OPLS-2005>
-461.197631835938

> <b_mmod_Minimization_Converged-OPLS-2005>
0

> <r_mmod_RMS_Derivative-OPLS-2005>
4.67288208007812

$$$$
43
                    3D
 Structure written by MMmdl.
154162  0  0  1  0            999 V2000
  -30.6242  -14.6675   20.4395 C   0  0  0  0  0  0
  -30.4388  -12.4000   19.4414 C   0  0  0  0  0  0
  -29.5036  -12.4971   18.2159 C   0  0  0  0  0  0
  -28.0290  -12.3284   18.6359 C   0  0  0  0  0  0
  -27.6478  -13.2167   19.8497 C   0  0  2  0  0  0
  -28.7010  -13.1082   20.9767 C   0  0  0  0  0  0
  -25.2521  -13.8129   20.5705 C   0  0  0  0  0  0
  -24.1793  -13.0405   20.9195 C   0  0  0  0  0  0
  -24.6375  -11.6887   20.8728 C   0  0  0  0  0  0
  -23.9044  -10.4281   21.0405 C   0  0  0  0  0  0
  -24.3605   -9.4203   21.9182 C   0  0  0  0  0  0
  -23.6292   -8.2237   22.0754 C   0  0  0  0  0  0
  -22.4262   -8.0271   21.3559 C   0  0  0  0  0  0
  -21.9891   -9.0240   20.4655 C   0  0  0  0  0  0
  -22.7215  -10.2125   20.3060 C   0  0  0  0  0  0
  -21.6844   -6.0726   22.5286 C   0  0  0  0  0  0
  -21.4001   -6.5625   23.8217 C   0  0  0  0  0  0
  -21.3669   -5.6779   24.9180 C   0  0  0  0  0  0
  -21.6054   -4.3043   24.7216 C   0  0  0  0  0  0
  -21.8822   -3.8134   23.4338 C   0  0  0  0  0  0
  -21.9192   -4.6956   22.3401 C   0  0  0  0  0  0
  -22.7821  -13.5218   21.1843 C   0  0  0  0  0  0
  -22.1667   -4.2152   21.0979 F   0  0  0  0  0  0
  -21.5640   -3.4523   25.7728 F   0  0  0  0  0  0
  -30.0124  -13.4415   20.3955 N   0  0  0  0  0  0
  -26.2968  -12.9340   20.3289 N   0  0  0  0  0  0
  -25.9304  -11.6494   20.5723 N   0  0  0  0  0  0
  -22.0445  -12.8247   22.0410 N   0  0  0  0  0  0
  -25.4132  -15.1842   20.4181 N   0  0  0  0  0  0
  -31.8183  -14.8025   20.1564 O   0  0  0  0  0  0
  -21.6634   -6.8870   21.4250 O   0  0  0  0  0  0
  -22.3524  -14.5538   20.6688 O   0  0  0  0  0  0
  -24.6270  -31.8589   23.2003 C   0  0  0  0  0  0
  -25.9116  -32.4773   23.8330 C   0  0  1  0  0  0
  -27.2362  -27.3204   20.0917 C   0  0  0  0  0  0
  -25.5922  -33.8574   24.2263 N   0  0  0  0  0  0
  -23.4206  -30.4836   21.5416 C   0  0  2  0  0  0
  -24.8692  -28.9378   20.1074 C   0  0  0  0  0  0
  -22.7475  -29.4634   22.4905 C   0  0  0  0  0  0
  -18.0292  -28.1408   22.8473 C   0  0  0  0  0  0
  -24.1487  -36.7301   23.2636 C   0  0  0  0  0  0
  -25.9628  -30.7849   21.3737 C   0  0  0  0  0  0
  -26.0369  -29.4108   20.7176 C   0  0  0  0  0  0
  -27.2190  -28.6104   20.7090 C   0  0  0  0  0  0
  -26.0432  -26.9058   19.4530 C   0  0  0  0  0  0
  -24.8750  -27.6895   19.4676 C   0  0  0  0  0  0
  -23.6357  -29.8164   20.1575 C   0  0  0  0  0  0
  -25.4109  -36.3082   24.0325 C   0  0  1  0  0  0
  -20.5892  -28.3713   23.1272 C   0  0  2  0  0  0
  -20.6773  -26.9425   22.5423 C   0  0  0  0  0  0
  -19.5762  -26.6393   21.5213 C   0  0  0  0  0  0
  -18.1937  -26.7951   22.1614 C   0  0  0  0  0  0
  -19.1545  -28.8876   23.2872 C   0  0  0  0  0  0
  -18.9467  -30.1471   23.8903 C   0  0  0  0  0  0
  -17.6466  -30.6598   24.0568 C   0  0  0  0  0  0
  -25.9042  -34.9453   23.5092 C   0  0  0  0  0  0
  -16.5356  -29.9102   23.6319 C   0  0  0  0  0  0
  -16.7278  -28.6522   23.0332 C   0  0  0  0  0  0
  -26.4495  -31.6594   25.0711 C   0  0  0  0  0  0
  -25.3713  -31.3769   26.1434 C   0  0  0  0  0  0
  -27.0313  -30.3004   24.6181 C   0  0  0  0  0  0
  -27.6069  -32.4320   25.7466 C   0  0  0  0  0  0
  -27.5585  -37.1793   24.8453 C   0  0  0  0  0  0
  -21.4193  -29.3061   22.3654 N   0  0  0  0  0  0
  -26.4288  -37.3776   23.9405 N   0  0  0  0  0  0
  -24.6886  -31.0599   22.0953 N   0  0  0  0  0  0
  -23.4189  -28.8165   23.2983 O   0  0  0  0  0  0
  -28.3653  -26.4811   20.1268 O   0  0  0  0  0  0
  -26.5622  -34.8922   22.4664 O   0  0  0  0  0  0
  -23.5428  -32.1392   23.7330 O   0  0  0  0  0  0
  -29.1064  -19.4563   19.7946 C   0  0  0  0  0  0
  -31.0344  -17.8789   21.0889 C   0  0  0  0  0  0
  -29.0379  -18.0266   19.7510 C   0  0  0  0  0  0
  -30.1242  -20.1399   20.5069 C   0  0  0  0  0  0
  -29.9841  -17.1940   20.4320 C   0  0  0  0  0  0
  -31.1026  -19.3033   21.1290 C   0  0  0  0  0  0
  -29.3271  -24.0695   20.2926 C   0  0  0  0  0  0
  -27.9103  -17.4056   18.9468 C   0  0  0  0  0  0
  -30.2228  -21.7105   20.6675 C   0  0  0  0  0  0
  -28.2196  -25.0516   19.7413 C   0  0  0  0  0  0
  -29.7804  -15.7441   20.5444 N   0  0  0  0  0  0
  -29.2587  -22.7095   20.0819 N   0  0  0  0  0  0
  -30.2618  -24.5486   20.9392 O   0  0  0  0  0  0
  -32.4123  -20.0136   22.0065 Cl  0  0  0  0  0  0
  -31.4788  -12.5237   19.1326 H   0  0  0  0  0  0
  -30.3755  -11.4128   19.9007 H   0  0  0  0  0  0
  -29.7704  -11.7412   17.4756 H   0  0  0  0  0  0
  -29.6362  -13.4621   17.7250 H   0  0  0  0  0  0
  -27.8722  -11.2786   18.8858 H   0  0  0  0  0  0
  -27.3699  -12.5409   17.7932 H   0  0  0  0  0  0
  -27.6496  -14.2417   19.4813 H   0  0  0  0  0  0
  -28.7185  -12.1002   21.3927 H   0  0  0  0  0  0
  -28.4519  -13.7733   21.8045 H   0  0  0  0  0  0
  -25.2751   -9.5679   22.4755 H   0  0  0  0  0  0
  -23.9998   -7.4620   22.7462 H   0  0  0  0  0  0
  -21.0820   -8.8762   19.8958 H   0  0  0  0  0  0
  -22.3676  -10.9664   19.6168 H   0  0  0  0  0  0
  -21.1987   -7.6129   23.9714 H   0  0  0  0  0  0
  -21.1490   -6.0508   25.9089 H   0  0  0  0  0  0
  -22.0595   -2.7595   23.2833 H   0  0  0  0  0  0
  -22.4021  -11.9942   22.4878 H   0  0  0  0  0  0
  -21.1075  -13.1321   22.2590 H   0  0  0  0  0  0
  -24.6341  -15.8229   20.5372 H   0  0  0  0  0  0
  -26.2528  -15.6432   20.0971 H   0  0  0  0  0  0
  -26.7179  -32.5439   23.1065 H   0  0  0  0  0  0
  -25.0046  -33.9700   25.0393 H   0  0  0  0  0  0
  -22.7141  -31.3042   21.3974 H   0  0  0  0  0  0
  -23.3739  -35.9643   23.3303 H   0  0  0  0  0  0
  -24.3573  -36.8922   22.2049 H   0  0  0  0  0  0
  -23.7253  -37.6510   23.6654 H   0  0  0  0  0  0
  -26.0933  -31.5453   20.6018 H   0  0  0  0  0  0
  -26.8432  -30.8365   22.0027 H   0  0  0  0  0  0
  -28.1114  -28.9709   21.2007 H   0  0  0  0  0  0
  -25.9844  -25.9646   18.9268 H   0  0  0  0  0  0
  -23.9850  -27.3249   18.9735 H   0  0  0  0  0  0
  -23.7499  -30.5911   19.3985 H   0  0  0  0  0  0
  -22.7558  -29.2440   19.8578 H   0  0  0  0  0  0
  -25.1291  -36.1925   25.0818 H   0  0  0  0  0  0
  -20.9998  -28.3314   24.1388 H   0  0  0  0  0  0
  -20.5662  -26.2331   23.3635 H   0  0  0  0  0  0
  -21.6645  -26.7448   22.1231 H   0  0  0  0  0  0
  -19.6919  -25.6297   21.1260 H   0  0  0  0  0  0
  -19.6712  -27.3190   20.6731 H   0  0  0  0  0  0
  -17.4210  -26.6704   21.4013 H   0  0  0  0  0  0
  -18.0331  -26.0106   22.9024 H   0  0  0  0  0  0
  -19.7933  -30.7291   24.2280 H   0  0  0  0  0  0
  -17.5012  -31.6276   24.5181 H   0  0  0  0  0  0
  -15.5354  -30.3008   23.7642 H   0  0  0  0  0  0
  -15.8678  -28.0854   22.7030 H   0  0  0  0  0  0
  -24.5894  -30.7100   25.7779 H   0  0  0  0  0  0
  -24.8887  -32.2949   26.4799 H   0  0  0  0  0  0
  -25.8027  -30.9000   27.0240 H   0  0  0  0  0  0
  -26.2877  -29.6767   24.1203 H   0  0  0  0  0  0
  -27.3986  -29.7262   25.4695 H   0  0  0  0  0  0
  -27.8762  -30.4266   23.9408 H   0  0  0  0  0  0
  -27.2692  -33.3618   26.2050 H   0  0  0  0  0  0
  -28.3864  -32.6881   25.0279 H   0  0  0  0  0  0
  -28.0743  -31.8433   26.5367 H   0  0  0  0  0  0
  -28.2604  -38.0090   24.7503 H   0  0  0  0  0  0
  -28.1081  -36.2626   24.6260 H   0  0  0  0  0  0
  -27.2309  -37.1427   25.8858 H   0  0  0  0  0  0
  -20.9367  -29.8779   21.6865 H   0  0  0  0  0  0
  -26.0178  -38.2850   24.1416 H   0  0  0  0  0  0
  -28.3495  -20.0349   19.2841 H   0  0  0  0  0  0
  -31.7893  -17.3101   21.6126 H   0  0  0  0  0  0
  -27.6104  -18.0616   18.1281 H   0  0  0  0  0  0
  -27.0418  -17.2454   19.5823 H   0  0  0  0  0  0
  -28.2091  -16.4588   18.4959 H   0  0  0  0  0  0
  -31.2219  -21.9996   20.3381 H   0  0  0  0  0  0
  -30.2123  -21.8896   21.7443 H   0  0  0  0  0  0
  -27.2727  -24.6552   20.1086 H   0  0  0  0  0  0
  -28.2075  -24.9817   18.6516 H   0  0  0  0  0  0
  -28.8160  -15.4645   20.6215 H   0  0  0  0  0  0
  -28.5074  -22.3583   19.5043 H   0  0  0  0  0  0
  1 25  1  0  0  0
  1 30  2  0  0  0
  1 81  1  0  0  0
  2  3  1  0  0  0
  2 25  1  0  0  0
  2 85  1  0  0  0
  2 86  1  0  0  0
  3  4  1  0  0  0
  3 87  1  0  0  0
  3 88  1  0  0  0
  4  5  1  0  0  0
  4 89  1  0  0  0
  4 90  1  0  0  0
  5  6  1  0  0  0
  5 26  1  0  0  0
  5 91  1  0  0  0
  6 25  1  0  0  0
  6 92  1  0  0  0
  6 93  1  0  0  0
  7  8  2  0  0  0
  7 26  1  0  0  0
  7 29  1  0  0  0
  8  9  1  0  0  0
  8 22  1  0  0  0
  9 10  1  0  0  0
  9 27  2  0  0  0
 10 11  2  0  0  0
 10 15  1  0  0  0
 11 12  1  0  0  0
 11 94  1  0  0  0
 12 13  2  0  0  0
 12 95  1  0  0  0
 13 14  1  0  0  0
 13 31  1  0  0  0
 14 15  2  0  0  0
 14 96  1  0  0  0
 15 97  1  0  0  0
 16 17  2  0  0  0
 16 21  1  0  0  0
 16 31  1  0  0  0
 17 18  1  0  0  0
 17 98  1  0  0  0
 18 19  2  0  0  0
 18 99  1  0  0  0
 19 20  1  0  0  0
 19 24  1  0  0  0
 20 21  2  0  0  0
 20100  1  0  0  0
 21 23  1  0  0  0
 22 28  1  0  0  0
 22 32  2  0  0  0
 26 27  1  0  0  0
 28101  1  0  0  0
 28102  1  0  0  0
 29103  1  0  0  0
 29104  1  0  0  0
 33 34  1  0  0  0
 33 66  1  0  0  0
 33 70  2  0  0  0
 34 36  1  0  0  0
 34 59  1  0  0  0
 34105  1  0  0  0
 35 44  2  0  0  0
 35 45  1  0  0  0
 35 68  1  0  0  0
 36 56  1  0  0  0
 36106  1  0  0  0
 37 39  1  0  0  0
 37 47  1  0  0  0
 37 66  1  0  0  0
 37107  1  0  0  0
 38 43  2  0  0  0
 38 46  1  0  0  0
 38 47  1  0  0  0
 39 64  1  0  0  0
 39 67  2  0  0  0
 40 52  1  0  0  0
 40 53  2  0  0  0
 40 58  1  0  0  0
 41108  1  0  0  0
 41109  1  0  0  0
 41110  1  0  0  0
 41 48  1  0  0  0
 42 43  1  0  0  0
 42 66  1  0  0  0
 42111  1  0  0  0
 42112  1  0  0  0
 43 44  1  0  0  0
 44113  1  0  0  0
 45 46  2  0  0  0
 45114  1  0  0  0
 46115  1  0  0  0
 47116  1  0  0  0
 47117  1  0  0  0
 48 56  1  0  0  0
 48 65  1  0  0  0
 48118  1  0  0  0
 49 50  1  0  0  0
 49 53  1  0  0  0
 49 64  1  0  0  0
 49119  1  0  0  0
 50 51  1  0  0  0
 50120  1  0  0  0
 50121  1  0  0  0
 51 52  1  0  0  0
 51122  1  0  0  0
 51123  1  0  0  0
 52124  1  0  0  0
 52125  1  0  0  0
 53 54  1  0  0  0
 54 55  2  0  0  0
 54126  1  0  0  0
 55 57  1  0  0  0
 55127  1  0  0  0
 56 69  2  0  0  0
 57 58  2  0  0  0
 57128  1  0  0  0
 58129  1  0  0  0
 59 60  1  0  0  0
 59 61  1  0  0  0
 59 62  1  0  0  0
 60130  1  0  0  0
 60131  1  0  0  0
 60132  1  0  0  0
 61133  1  0  0  0
 61134  1  0  0  0
 61135  1  0  0  0
 62136  1  0  0  0
 62137  1  0  0  0
 62138  1  0  0  0
 63 65  1  0  0  0
 63139  1  0  0  0
 63140  1  0  0  0
 63141  1  0  0  0
 64142  1  0  0  0
 65143  1  0  0  0
 68 80  1  0  0  0
 71 73  2  0  0  0
 71 74  1  0  0  0
 71144  1  0  0  0
 72 75  2  0  0  0
 72 76  1  0  0  0
 72145  1  0  0  0
 73 75  1  0  0  0
 73 78  1  0  0  0
 74 76  2  0  0  0
 74 79  1  0  0  0
 75 81  1  0  0  0
 76 84  1  0  0  0
 77 80  1  0  0  0
 77 82  1  0  0  0
 77 83  2  0  0  0
 78146  1  0  0  0
 78147  1  0  0  0
 78148  1  0  0  0
 79 82  1  0  0  0
 79149  1  0  0  0
 79150  1  0  0  0
 80151  1  0  0  0
 80152  1  0  0  0
 81153  1  0  0  0
 82154  1  0  0  0
M  ISO  4   1 100  68 101  80 101  81 100
M  END
> <chiral flag>
0

> <version>
0

> <s_m_source_file>
/data/baiqing/PycharmProjects/Reinvent-master-3.2/result/LINK_invent/BTK/process_docking_weight1_custom_product_contain_oxygen_bond_distance_aromatic_linkinvent_7_9_3/rearranged_h_0042.sdf

> <i_m_source_file_index>
44

> <r_mmod_Potential_Energy-OPLS-2005>
0.930555164813995

> <r_mmod_Stretch_Energy-OPLS-2005>
83.5956420898438

> <r_mmod_Bend_Energy-OPLS-2005>
141.971527099609

> <r_mmod_Torsional_Energy-OPLS-2005>
220.502349853516

> <r_mmod_Improper_Torsional_Energy-OPLS-2005>
6.92444515228271

> <r_mmod_Van_der_Waal_Energy-OPLS-2005>
140.76921081543

> <r_mmod_Electrostatic_Energy-OPLS-2005>
-395.115936279297

> <r_mmod_Solvation_Energy-OPLS-2005>
-253.16374206543

> <b_mmod_Minimization_Converged-OPLS-2005>
0

> <r_mmod_RMS_Derivative-OPLS-2005>
2.65495300292969

$$$$
44
                    3D
 Structure written by MMmdl.
157165  0  0  1  0            999 V2000
  -30.6347  -14.5907   20.5127 C   0  0  0  0  0  0
  -30.4353  -12.3625   19.4450 C   0  0  0  0  0  0
  -29.5068  -12.5032   18.2186 C   0  0  0  0  0  0
  -28.0264  -12.3533   18.6269 C   0  0  0  0  0  0
  -27.6547  -13.2125   19.8651 C   0  0  2  0  0  0
  -28.6980  -13.0442   20.9927 C   0  0  0  0  0  0
  -25.2565  -13.8167   20.5682 C   0  0  0  0  0  0
  -24.1830  -13.0438   20.9191 C   0  0  0  0  0  0
  -24.6392  -11.6908   20.8735 C   0  0  0  0  0  0
  -23.9058  -10.4295   21.0403 C   0  0  0  0  0  0
  -24.3611   -9.4211   21.9181 C   0  0  0  0  0  0
  -23.6288   -8.2246   22.0751 C   0  0  0  0  0  0
  -22.4271   -8.0282   21.3543 C   0  0  0  0  0  0
  -21.9905   -9.0255   20.4646 C   0  0  0  0  0  0
  -22.7233  -10.2136   20.3052 C   0  0  0  0  0  0
  -21.6852   -6.0734   22.5278 C   0  0  0  0  0  0
  -21.4016   -6.5636   23.8212 C   0  0  0  0  0  0
  -21.3660   -5.6788   24.9175 C   0  0  0  0  0  0
  -21.6043   -4.3050   24.7226 C   0  0  0  0  0  0
  -21.8820   -3.8143   23.4346 C   0  0  0  0  0  0
  -21.9193   -4.6961   22.3402 C   0  0  0  0  0  0
  -22.7853  -13.5236   21.1862 C   0  0  0  0  0  0
  -22.1660   -4.2144   21.0980 F   0  0  0  0  0  0
  -21.5630   -3.4535   25.7738 F   0  0  0  0  0  0
  -30.0176  -13.3738   20.4320 N   0  0  0  0  0  0
  -26.2989  -12.9340   20.3315 N   0  0  0  0  0  0
  -25.9314  -11.6496   20.5741 N   0  0  0  0  0  0
  -22.0485  -12.8224   22.0411 N   0  0  0  0  0  0
  -25.4273  -15.1890   20.4093 N   0  0  0  0  0  0
  -31.7939  -14.7655   20.1291 O   0  0  0  0  0  0
  -21.6638   -6.8880   21.4241 O   0  0  0  0  0  0
  -22.3533  -14.5541   20.6711 O   0  0  0  0  0  0
  -24.6198  -31.8626   23.2031 C   0  0  0  0  0  0
  -25.9066  -32.4801   23.8354 C   0  0  1  0  0  0
  -27.2298  -27.3680   20.1179 C   0  0  0  0  0  0
  -25.5899  -33.8603   24.2285 N   0  0  0  0  0  0
  -23.4117  -30.4850   21.5446 C   0  0  2  0  0  0
  -24.8592  -28.9379   20.1156 C   0  0  0  0  0  0
  -22.7439  -29.4641   22.4955 C   0  0  0  0  0  0
  -18.0280  -28.1379   22.8500 C   0  0  0  0  0  0
  -24.1487  -36.7307   23.2641 C   0  0  0  0  0  0
  -25.9471  -30.8083   21.3653 C   0  0  0  0  0  0
  -26.0241  -29.4369   20.7133 C   0  0  0  0  0  0
  -27.2154  -28.6638   20.7025 C   0  0  0  0  0  0
  -26.0471  -26.8975   19.5111 C   0  0  0  0  0  0
  -24.8687  -27.6701   19.5078 C   0  0  0  0  0  0
  -23.6244  -29.8132   20.1614 C   0  0  0  0  0  0
  -25.4115  -36.3102   24.0330 C   0  0  1  0  0  0
  -20.5878  -28.3672   23.1306 C   0  0  2  0  0  0
  -20.6776  -26.9402   22.5424 C   0  0  0  0  0  0
  -19.5750  -26.6381   21.5228 C   0  0  0  0  0  0
  -18.1924  -26.7927   22.1633 C   0  0  0  0  0  0
  -19.1532  -28.8845   23.2898 C   0  0  0  0  0  0
  -18.9461  -30.1455   23.8903 C   0  0  0  0  0  0
  -17.6461  -30.6588   24.0571 C   0  0  0  0  0  0
  -25.9042  -34.9471   23.5111 C   0  0  0  0  0  0
  -16.5352  -29.9090   23.6333 C   0  0  0  0  0  0
  -16.7267  -28.6506   23.0354 C   0  0  0  0  0  0
  -26.4476  -31.6596   25.0709 C   0  0  0  0  0  0
  -25.3728  -31.3736   26.1449 C   0  0  0  0  0  0
  -27.0304  -30.3018   24.6141 C   0  0  0  0  0  0
  -27.6038  -32.4327   25.7488 C   0  0  0  0  0  0
  -27.5578  -37.1812   24.8464 C   0  0  0  0  0  0
  -21.4157  -29.3033   22.3697 N   0  0  0  0  0  0
  -26.4292  -37.3797   23.9410 N   0  0  0  0  0  0
  -24.6782  -31.0689   22.0949 N   0  0  0  0  0  0
  -23.4185  -28.8196   23.3025 O   0  0  0  0  0  0
  -28.3643  -26.5665   20.1065 O   0  0  0  0  0  0
  -26.5620  -34.8934   22.4676 O   0  0  0  0  0  0
  -23.5375  -32.1390   23.7397 O   0  0  0  0  0  0
  -28.9466  -17.2553   23.0027 C   0  0  0  0  0  0
  -28.4112  -19.2836   24.1951 C   0  0  0  0  0  0
  -29.4195  -17.9802   21.8773 C   0  0  0  0  0  0
  -29.3323  -19.4360   21.9047 C   0  0  0  0  0  0
  -28.4327  -17.8900   24.1387 C   0  0  0  0  0  0
  -28.8780  -20.0467   23.1137 C   0  0  0  0  0  0
  -28.4429  -23.9995   20.0110 C   0  0  0  0  0  0
  -29.7906  -20.3782   20.7451 C   0  0  0  0  0  0
  -30.0561  -17.1143   20.7461 C   0  0  0  0  0  0
  -28.2915  -25.3111   20.8585 C   0  0  0  0  0  0
  -28.7742  -21.4405   20.1318 C   0  0  0  0  0  0
  -28.8062  -22.8477   20.6448 N   0  0  0  0  0  0
  -29.8249  -15.6344   20.8374 N   0  0  0  0  0  0
  -28.1911  -24.0194   18.8037 O   0  0  0  0  0  0
  -27.8817  -16.9542   25.4798 Cl  0  0  0  0  0  0
  -28.9410  -21.7509   23.3886 Cl  0  0  0  0  0  0
  -31.4788  -12.4809   19.1477 H   0  0  0  0  0  0
  -30.3580  -11.3623   19.8741 H   0  0  0  0  0  0
  -29.7641  -11.7578   17.4645 H   0  0  0  0  0  0
  -29.6615  -13.4762   17.7489 H   0  0  0  0  0  0
  -27.8503  -11.2989   18.8423 H   0  0  0  0  0  0
  -27.3774  -12.6032   17.7869 H   0  0  0  0  0  0
  -27.6798  -14.2518   19.5371 H   0  0  0  0  0  0
  -28.6960  -12.0187   21.3644 H   0  0  0  0  0  0
  -28.4511  -13.6700   21.8518 H   0  0  0  0  0  0
  -25.2761   -9.5684   22.4751 H   0  0  0  0  0  0
  -23.9999   -7.4635   22.7462 H   0  0  0  0  0  0
  -21.0839   -8.8774   19.8946 H   0  0  0  0  0  0
  -22.3695  -10.9672   19.6155 H   0  0  0  0  0  0
  -21.2008   -7.6144   23.9715 H   0  0  0  0  0  0
  -21.1481   -6.0518   25.9078 H   0  0  0  0  0  0
  -22.0598   -2.7605   23.2848 H   0  0  0  0  0  0
  -22.4093  -11.9891   22.4812 H   0  0  0  0  0  0
  -21.1094  -13.1240   22.2600 H   0  0  0  0  0  0
  -24.6580  -15.8406   20.5196 H   0  0  0  0  0  0
  -26.2714  -15.6307   20.0682 H   0  0  0  0  0  0
  -26.7130  -32.5486   23.1102 H   0  0  0  0  0  0
  -25.0055  -33.9763   25.0438 H   0  0  0  0  0  0
  -22.7028  -31.3027   21.4011 H   0  0  0  0  0  0
  -23.3749  -35.9638   23.3315 H   0  0  0  0  0  0
  -24.3578  -36.8912   22.2052 H   0  0  0  0  0  0
  -23.7241  -37.6514   23.6654 H   0  0  0  0  0  0
  -26.0727  -31.5710   20.5959 H   0  0  0  0  0  0
  -26.8297  -30.8585   21.9919 H   0  0  0  0  0  0
  -28.1152  -29.0484   21.1621 H   0  0  0  0  0  0
  -26.0356  -25.9241   19.0410 H   0  0  0  0  0  0
  -23.9748  -27.2814   19.0401 H   0  0  0  0  0  0
  -23.7404  -30.5865   19.4009 H   0  0  0  0  0  0
  -22.7457  -29.2383   19.8629 H   0  0  0  0  0  0
  -25.1297  -36.1954   25.0825 H   0  0  0  0  0  0
  -20.9983  -28.3253   24.1421 H   0  0  0  0  0  0
  -20.5702  -26.2281   23.3619 H   0  0  0  0  0  0
  -21.6645  -26.7448   22.1207 H   0  0  0  0  0  0
  -19.6916  -25.6295   21.1241 H   0  0  0  0  0  0
  -19.6696  -27.3209   20.6772 H   0  0  0  0  0  0
  -17.4209  -26.6687   21.4018 H   0  0  0  0  0  0
  -18.0312  -26.0060   22.9018 H   0  0  0  0  0  0
  -19.7934  -30.7280   24.2256 H   0  0  0  0  0  0
  -17.5014  -31.6268   24.5175 H   0  0  0  0  0  0
  -15.5353  -30.3000   23.7648 H   0  0  0  0  0  0
  -15.8664  -28.0835   22.7053 H   0  0  0  0  0  0
  -24.5907  -30.7075   25.7791 H   0  0  0  0  0  0
  -24.8926  -32.2909   26.4863 H   0  0  0  0  0  0
  -25.8073  -30.8931   27.0224 H   0  0  0  0  0  0
  -26.2856  -29.6795   24.1160 H   0  0  0  0  0  0
  -27.3992  -29.7254   25.4637 H   0  0  0  0  0  0
  -27.8741  -30.4310   23.9357 H   0  0  0  0  0  0
  -27.2634  -33.3619   26.2076 H   0  0  0  0  0  0
  -28.3855  -32.6891   25.0324 H   0  0  0  0  0  0
  -28.0698  -31.8442   26.5405 H   0  0  0  0  0  0
  -28.2608  -38.0097   24.7507 H   0  0  0  0  0  0
  -28.1056  -36.2631   24.6291 H   0  0  0  0  0  0
  -27.2297  -37.1465   25.8866 H   0  0  0  0  0  0
  -20.9310  -29.8743   21.6912 H   0  0  0  0  0  0
  -26.0170  -38.2873   24.1404 H   0  0  0  0  0  0
  -28.9902  -16.1780   23.0450 H   0  0  0  0  0  0
  -28.0612  -19.7756   25.0900 H   0  0  0  0  0  0
  -30.1048  -19.7368   19.9232 H   0  0  0  0  0  0
  -30.7035  -20.8869   21.0571 H   0  0  0  0  0  0
  -31.1287  -17.3141   20.7313 H   0  0  0  0  0  0
  -29.6672  -17.4505   19.7844 H   0  0  0  0  0  0
  -29.0905  -25.3293   21.6005 H   0  0  0  0  0  0
  -27.3603  -25.2449   21.4242 H   0  0  0  0  0  0
  -27.7551  -21.0555   20.1911 H   0  0  0  0  0  0
  -28.9936  -21.5026   19.0648 H   0  0  0  0  0  0
  -28.9956  -22.9327   21.6369 H   0  0  0  0  0  0
  -28.8864  -15.3640   21.0845 H   0  0  0  0  0  0
  1 25  1  0  0  0
  1 30  2  0  0  0
  1 83  1  0  0  0
  2  3  1  0  0  0
  2 25  1  0  0  0
  2 87  1  0  0  0
  2 88  1  0  0  0
  3  4  1  0  0  0
  3 89  1  0  0  0
  3 90  1  0  0  0
  4  5  1  0  0  0
  4 91  1  0  0  0
  4 92  1  0  0  0
  5  6  1  0  0  0
  5 26  1  0  0  0
  5 93  1  0  0  0
  6 25  1  0  0  0
  6 94  1  0  0  0
  6 95  1  0  0  0
  7  8  2  0  0  0
  7 26  1  0  0  0
  7 29  1  0  0  0
  8  9  1  0  0  0
  8 22  1  0  0  0
  9 10  1  0  0  0
  9 27  2  0  0  0
 10 11  2  0  0  0
 10 15  1  0  0  0
 11 12  1  0  0  0
 11 96  1  0  0  0
 12 13  2  0  0  0
 12 97  1  0  0  0
 13 14  1  0  0  0
 13 31  1  0  0  0
 14 15  2  0  0  0
 14 98  1  0  0  0
 15 99  1  0  0  0
 16 17  2  0  0  0
 16 21  1  0  0  0
 16 31  1  0  0  0
 17 18  1  0  0  0
 17100  1  0  0  0
 18 19  2  0  0  0
 18101  1  0  0  0
 19 20  1  0  0  0
 19 24  1  0  0  0
 20 21  2  0  0  0
 20102  1  0  0  0
 21 23  1  0  0  0
 22 28  1  0  0  0
 22 32  2  0  0  0
 26 27  1  0  0  0
 28103  1  0  0  0
 28104  1  0  0  0
 29105  1  0  0  0
 29106  1  0  0  0
 33 34  1  0  0  0
 33 66  1  0  0  0
 33 70  2  0  0  0
 34 36  1  0  0  0
 34 59  1  0  0  0
 34107  1  0  0  0
 35 44  2  0  0  0
 35 45  1  0  0  0
 35 68  1  0  0  0
 36 56  1  0  0  0
 36108  1  0  0  0
 37 39  1  0  0  0
 37 47  1  0  0  0
 37 66  1  0  0  0
 37109  1  0  0  0
 38 43  2  0  0  0
 38 46  1  0  0  0
 38 47  1  0  0  0
 39 64  1  0  0  0
 39 67  2  0  0  0
 40 52  1  0  0  0
 40 53  2  0  0  0
 40 58  1  0  0  0
 41110  1  0  0  0
 41111  1  0  0  0
 41112  1  0  0  0
 41 48  1  0  0  0
 42 43  1  0  0  0
 42 66  1  0  0  0
 42113  1  0  0  0
 42114  1  0  0  0
 43 44  1  0  0  0
 44115  1  0  0  0
 45 46  2  0  0  0
 45116  1  0  0  0
 46117  1  0  0  0
 47118  1  0  0  0
 47119  1  0  0  0
 48 56  1  0  0  0
 48 65  1  0  0  0
 48120  1  0  0  0
 49 50  1  0  0  0
 49 53  1  0  0  0
 49 64  1  0  0  0
 49121  1  0  0  0
 50 51  1  0  0  0
 50122  1  0  0  0
 50123  1  0  0  0
 51 52  1  0  0  0
 51124  1  0  0  0
 51125  1  0  0  0
 52126  1  0  0  0
 52127  1  0  0  0
 53 54  1  0  0  0
 54 55  2  0  0  0
 54128  1  0  0  0
 55 57  1  0  0  0
 55129  1  0  0  0
 56 69  2  0  0  0
 57 58  2  0  0  0
 57130  1  0  0  0
 58131  1  0  0  0
 59 60  1  0  0  0
 59 61  1  0  0  0
 59 62  1  0  0  0
 60132  1  0  0  0
 60133  1  0  0  0
 60134  1  0  0  0
 61135  1  0  0  0
 61136  1  0  0  0
 61137  1  0  0  0
 62138  1  0  0  0
 62139  1  0  0  0
 62140  1  0  0  0
 63 65  1  0  0  0
 63141  1  0  0  0
 63142  1  0  0  0
 63143  1  0  0  0
 64144  1  0  0  0
 65145  1  0  0  0
 68 80  1  0  0  0
 71 73  2  0  0  0
 71 75  1  0  0  0
 71146  1  0  0  0
 72 75  2  0  0  0
 72 76  1  0  0  0
 72147  1  0  0  0
 73 74  1  0  0  0
 73 79  1  0  0  0
 74 76  2  0  0  0
 74 78  1  0  0  0
 75 85  1  0  0  0
 76 86  1  0  0  0
 77 80  1  0  0  0
 77 82  1  0  0  0
 77 84  2  0  0  0
 78 81  1  0  0  0
 78148  1  0  0  0
 78149  1  0  0  0
 79 83  1  0  0  0
 79150  1  0  0  0
 79151  1  0  0  0
 80152  1  0  0  0
 80153  1  0  0  0
 81 82  1  0  0  0
 81154  1  0  0  0
 81155  1  0  0  0
 82156  1  0  0  0
 83157  1  0  0  0
M  ISO  4   1 100  68 101  80 101  83 100
M  END
> <chiral flag>
0

> <version>
0

> <s_m_source_file>
/data/baiqing/PycharmProjects/Reinvent-master-3.2/result/LINK_invent/BTK/process_docking_weight1_custom_product_contain_oxygen_bond_distance_aromatic_linkinvent_7_9_3/rearranged_h_0042.sdf

> <i_m_source_file_index>
45

> <r_mmod_Potential_Energy-OPLS-2005>
-69.1651992797852

> <r_mmod_Stretch_Energy-OPLS-2005>
71.1748733520508

> <r_mmod_Bend_Energy-OPLS-2005>
128.614868164062

> <r_mmod_Torsional_Energy-OPLS-2005>
237.239654541016

> <r_mmod_Improper_Torsional_Energy-OPLS-2005>
5.76291656494141

> <r_mmod_Van_der_Waal_Energy-OPLS-2005>
146.615325927734

> <r_mmod_Electrostatic_Energy-OPLS-2005>
-450.715393066406

> <r_mmod_Solvation_Energy-OPLS-2005>
-239.316314697266

> <b_mmod_Minimization_Converged-OPLS-2005>
0

> <r_mmod_RMS_Derivative-OPLS-2005>
1.24107563495636

$$$$
45
                    3D
 Structure written by MMmdl.
170179  0  0  1  0            999 V2000
  -30.6066  -14.6426   20.4969 C   0  0  0  0  0  0
  -30.4277  -12.3908   19.4544 C   0  0  0  0  0  0
  -29.5015  -12.5178   18.2250 C   0  0  0  0  0  0
  -28.0201  -12.3730   18.6265 C   0  0  0  0  0  0
  -27.6488  -13.2223   19.8710 C   0  0  2  0  0  0
  -28.6924  -13.0606   20.9991 C   0  0  0  0  0  0
  -25.2512  -13.8172   20.5689 C   0  0  0  0  0  0
  -24.1808  -13.0427   20.9217 C   0  0  0  0  0  0
  -24.6388  -11.6896   20.8761 C   0  0  0  0  0  0
  -23.9068  -10.4275   21.0412 C   0  0  0  0  0  0
  -24.3636   -9.4192   21.9172 C   0  0  0  0  0  0
  -23.6328   -8.2225   22.0728 C   0  0  0  0  0  0
  -22.4305   -8.0264   21.3524 C   0  0  0  0  0  0
  -21.9932   -9.0233   20.4634 C   0  0  0  0  0  0
  -22.7246  -10.2116   20.3058 C   0  0  0  0  0  0
  -21.6868   -6.0739   22.5286 C   0  0  0  0  0  0
  -21.4014   -6.5634   23.8216 C   0  0  0  0  0  0
  -21.3665   -5.6783   24.9174 C   0  0  0  0  0  0
  -21.6057   -4.3049   24.7222 C   0  0  0  0  0  0
  -21.8826   -3.8145   23.4341 C   0  0  0  0  0  0
  -21.9197   -4.6966   22.3402 C   0  0  0  0  0  0
  -22.7833  -13.5193   21.1879 C   0  0  0  0  0  0
  -22.1669   -4.2159   21.0980 F   0  0  0  0  0  0
  -21.5629   -3.4525   25.7728 F   0  0  0  0  0  0
  -30.0079  -13.4091   20.4388 N   0  0  0  0  0  0
  -26.2953  -12.9374   20.3365 N   0  0  0  0  0  0
  -25.9312  -11.6518   20.5779 N   0  0  0  0  0  0
  -22.0522  -12.8151   22.0460 N   0  0  0  0  0  0
  -25.4207  -15.1889   20.4028 N   0  0  0  0  0  0
  -31.7537  -14.8025   20.0704 O   0  0  0  0  0  0
  -21.6648   -6.8881   21.4245 O   0  0  0  0  0  0
  -22.3499  -14.5501   20.6737 O   0  0  0  0  0  0
  -24.6271  -31.8589   23.2037 C   0  0  0  0  0  0
  -25.9131  -32.4765   23.8362 C   0  0  1  0  0  0
  -27.2170  -27.3184   20.1140 C   0  0  0  0  0  0
  -25.5949  -33.8562   24.2284 N   0  0  0  0  0  0
  -23.4199  -30.4833   21.5456 C   0  0  2  0  0  0
  -24.8680  -28.9408   20.1105 C   0  0  0  0  0  0
  -22.7481  -29.4602   22.4926 C   0  0  0  0  0  0
  -18.0287  -28.1370   22.8465 C   0  0  0  0  0  0
  -24.1493  -36.7278   23.2647 C   0  0  0  0  0  0
  -25.9630  -30.7865   21.3815 C   0  0  0  0  0  0
  -26.0360  -29.4148   20.7227 C   0  0  0  0  0  0
  -27.2152  -28.6113   20.7207 C   0  0  0  0  0  0
  -26.0405  -26.9113   19.4574 C   0  0  0  0  0  0
  -24.8717  -27.6935   19.4695 C   0  0  0  0  0  0
  -23.6361  -29.8216   20.1596 C   0  0  0  0  0  0
  -25.4113  -36.3060   24.0342 C   0  0  1  0  0  0
  -20.5889  -28.3670   23.1274 C   0  0  2  0  0  0
  -20.6770  -26.9386   22.5415 C   0  0  0  0  0  0
  -19.5757  -26.6356   21.5206 C   0  0  0  0  0  0
  -18.1930  -26.7912   22.1605 C   0  0  0  0  0  0
  -19.1540  -28.8837   23.2866 C   0  0  0  0  0  0
  -18.9466  -30.1437   23.8886 C   0  0  0  0  0  0
  -17.6470  -30.6578   24.0559 C   0  0  0  0  0  0
  -25.9052  -34.9436   23.5111 C   0  0  0  0  0  0
  -16.5359  -29.9075   23.6330 C   0  0  0  0  0  0
  -16.7275  -28.6494   23.0344 C   0  0  0  0  0  0
  -26.4515  -31.6577   25.0733 C   0  0  0  0  0  0
  -25.3754  -31.3778   26.1474 C   0  0  0  0  0  0
  -27.0378  -30.3000   24.6199 C   0  0  0  0  0  0
  -27.6034  -32.4329   25.7525 C   0  0  0  0  0  0
  -27.5586  -37.1791   24.8458 C   0  0  0  0  0  0
  -21.4193  -29.3022   22.3671 N   0  0  0  0  0  0
  -26.4288  -37.3753   23.9415 N   0  0  0  0  0  0
  -24.6872  -31.0597   22.1001 N   0  0  0  0  0  0
  -23.4196  -28.8122   23.2992 O   0  0  0  0  0  0
  -28.3197  -26.4549   20.0917 O   0  0  0  0  0  0
  -26.5608  -34.8913   22.4669 O   0  0  0  0  0  0
  -23.5438  -32.1387   23.7367 O   0  0  0  0  0  0
  -28.2389  -19.0393   20.1557 C   0  0  0  0  0  0
  -28.4563  -17.6657   20.4437 C   0  0  0  0  0  0
  -29.2968  -19.9673   19.9696 C   0  0  0  0  0  0
  -30.6120  -19.4244   20.1645 C   0  0  0  0  0  0
  -30.8252  -18.0493   20.5717 C   0  0  0  0  0  0
  -29.7458  -17.1103   20.6255 C   0  0  0  0  0  0
  -27.9773  -23.8141   20.0743 C   0  0  0  0  0  0
  -26.7190  -23.4857   19.7076 C   0  0  0  0  0  0
  -30.7974  -25.2705   21.2446 C   0  0  0  0  0  0
  -31.2948  -23.9688   20.6088 C   0  0  0  0  0  0
  -29.3968  -25.1563   21.8619 C   0  0  0  0  0  0
  -30.3826  -23.4161   19.5003 C   0  0  0  0  0  0
  -28.2384  -25.1779   20.8453 C   0  0  1  0  0  0
  -31.8096  -20.3102   19.8541 C   0  0  0  0  0  0
  -32.2169  -17.6042   21.0027 C   0  0  0  0  0  0
  -28.9407  -21.3915   19.3397 C   0  0  0  0  0  0
  -29.8097  -15.6724   20.9336 N   0  0  0  0  0  0
  -29.1480  -22.7604   20.0270 N   0  3  2  0  0  0
  -31.4693  -12.5140   19.1523 H   0  0  0  0  0  0
  -30.3586  -11.3930   19.8887 H   0  0  0  0  0  0
  -29.7597  -11.7711   17.4728 H   0  0  0  0  0  0
  -29.6575  -13.4906   17.7556 H   0  0  0  0  0  0
  -27.8289  -11.3173   18.8236 H   0  0  0  0  0  0
  -27.3777  -12.6471   17.7887 H   0  0  0  0  0  0
  -27.6701  -14.2640   19.5532 H   0  0  0  0  0  0
  -28.7013  -12.0315   21.3634 H   0  0  0  0  0  0
  -28.4351  -13.6738   21.8630 H   0  0  0  0  0  0
  -25.2788   -9.5668   22.4723 H   0  0  0  0  0  0
  -24.0063   -7.4610   22.7415 H   0  0  0  0  0  0
  -21.0875   -8.8743   19.8932 H   0  0  0  0  0  0
  -22.3717  -10.9648   19.6165 H   0  0  0  0  0  0
  -21.2007   -7.6141   23.9722 H   0  0  0  0  0  0
  -21.1483   -6.0506   25.9082 H   0  0  0  0  0  0
  -22.0607   -2.7610   23.2827 H   0  0  0  0  0  0
  -22.4193  -11.9820   22.4819 H   0  0  0  0  0  0
  -21.1129  -13.1095   22.2703 H   0  0  0  0  0  0
  -24.6451  -15.8371   20.4828 H   0  0  0  0  0  0
  -26.2407  -15.6005   19.9803 H   0  0  0  0  0  0
  -26.7197  -32.5427   23.1104 H   0  0  0  0  0  0
  -25.0107  -33.9694   25.0439 H   0  0  0  0  0  0
  -22.7142  -31.3039   21.4038 H   0  0  0  0  0  0
  -23.3759  -35.9610   23.3291 H   0  0  0  0  0  0
  -24.3583  -36.8902   22.2064 H   0  0  0  0  0  0
  -23.7251  -37.6476   23.6676 H   0  0  0  0  0  0
  -26.1092  -31.5572   20.6232 H   0  0  0  0  0  0
  -26.8376  -30.8212   22.0200 H   0  0  0  0  0  0
  -28.1120  -28.9723   21.2015 H   0  0  0  0  0  0
  -26.0268  -25.9868   18.9053 H   0  0  0  0  0  0
  -23.9836  -27.3333   18.9699 H   0  0  0  0  0  0
  -23.7581  -30.5991   19.4048 H   0  0  0  0  0  0
  -22.7555  -29.2516   19.8550 H   0  0  0  0  0  0
  -25.1300  -36.1902   25.0838 H   0  0  0  0  0  0
  -20.9981  -28.3245   24.1401 H   0  0  0  0  0  0
  -20.5641  -26.2285   23.3619 H   0  0  0  0  0  0
  -21.6641  -26.7389   22.1236 H   0  0  0  0  0  0
  -19.6925  -25.6260   21.1249 H   0  0  0  0  0  0
  -19.6723  -27.3157   20.6726 H   0  0  0  0  0  0
  -17.4212  -26.6662   21.3999 H   0  0  0  0  0  0
  -18.0327  -26.0062   22.9004 H   0  0  0  0  0  0
  -19.7946  -30.7246   24.2261 H   0  0  0  0  0  0
  -17.5028  -31.6262   24.5150 H   0  0  0  0  0  0
  -15.5360  -30.2983   23.7648 H   0  0  0  0  0  0
  -15.8668  -28.0811   22.7066 H   0  0  0  0  0  0
  -24.5821  -30.7250   25.7817 H   0  0  0  0  0  0
  -24.9108  -32.3009   26.4941 H   0  0  0  0  0  0
  -25.8064  -30.8886   27.0214 H   0  0  0  0  0  0
  -26.2980  -29.6743   24.1191 H   0  0  0  0  0  0
  -27.4048  -29.7252   25.4706 H   0  0  0  0  0  0
  -27.8856  -30.4288   23.9470 H   0  0  0  0  0  0
  -27.2557  -33.3549   26.2193 H   0  0  0  0  0  0
  -28.3816  -32.7022   25.0379 H   0  0  0  0  0  0
  -28.0740  -31.8424   26.5389 H   0  0  0  0  0  0
  -28.2578  -38.0103   24.7491 H   0  0  0  0  0  0
  -28.1102  -36.2632   24.6283 H   0  0  0  0  0  0
  -27.2309  -37.1431   25.8858 H   0  0  0  0  0  0
  -20.9380  -29.8770   21.6905 H   0  0  0  0  0  0
  -26.0170  -38.2829   24.1408 H   0  0  0  0  0  0
  -27.2165  -19.3583   19.9987 H   0  0  0  0  0  0
  -27.5882  -17.0268   20.5129 H   0  0  0  0  0  0
  -25.9077  -24.1702   19.8956 H   0  0  0  0  0  0
  -26.4064  -22.5602   19.2588 H   0  0  0  0  0  0
  -30.8341  -26.0886   20.5242 H   0  0  0  0  0  0
  -31.5008  -25.5495   22.0313 H   0  0  0  0  0  0
  -31.4597  -23.2201   21.3833 H   0  0  0  0  0  0
  -32.2783  -24.1626   20.1765 H   0  0  0  0  0  0
  -29.2574  -26.0035   22.5359 H   0  0  0  0  0  0
  -29.3278  -24.2758   22.5016 H   0  0  0  0  0  0
  -30.9841  -22.7258   18.9170 H   0  0  0  0  0  0
  -30.1168  -24.1977   18.7866 H   0  0  0  0  0  0
  -27.3498  -25.2635   21.4735 H   0  0  0  0  0  0
  -31.7333  -20.6758   18.8311 H   0  0  0  0  0  0
  -32.7717  -19.8042   19.8984 H   0  0  0  0  0  0
  -31.8512  -21.1535   20.5392 H   0  0  0  0  0  0
  -32.8354  -17.3597   20.1393 H   0  0  0  0  0  0
  -32.1799  -16.7375   21.6611 H   0  0  0  0  0  0
  -32.7116  -18.3780   21.5881 H   0  0  0  0  0  0
  -27.8990  -21.2798   19.0743 H   0  0  0  0  0  0
  -29.3952  -21.4160   18.3492 H   0  0  0  0  0  0
  -28.9369  -15.3033   21.2773 H   0  0  0  0  0  0
  -29.3529  -22.5050   20.9814 H   0  0  0  0  0  0
  1 25  1  0  0  0
  1 30  2  0  0  0
  1 87  1  0  0  0
  2  3  1  0  0  0
  2 25  1  0  0  0
  2 89  1  0  0  0
  2 90  1  0  0  0
  3  4  1  0  0  0
  3 91  1  0  0  0
  3 92  1  0  0  0
  4  5  1  0  0  0
  4 93  1  0  0  0
  4 94  1  0  0  0
  5  6  1  0  0  0
  5 26  1  0  0  0
  5 95  1  0  0  0
  6 25  1  0  0  0
  6 96  1  0  0  0
  6 97  1  0  0  0
  7  8  2  0  0  0
  7 26  1  0  0  0
  7 29  1  0  0  0
  8  9  1  0  0  0
  8 22  1  0  0  0
  9 10  1  0  0  0
  9 27  2  0  0  0
 10 11  2  0  0  0
 10 15  1  0  0  0
 11 12  1  0  0  0
 11 98  1  0  0  0
 12 13  2  0  0  0
 12 99  1  0  0  0
 13 14  1  0  0  0
 13 31  1  0  0  0
 14 15  2  0  0  0
 14100  1  0  0  0
 15101  1  0  0  0
 16 17  2  0  0  0
 16 21  1  0  0  0
 16 31  1  0  0  0
 17 18  1  0  0  0
 17102  1  0  0  0
 18 19  2  0  0  0
 18103  1  0  0  0
 19 20  1  0  0  0
 19 24  1  0  0  0
 20 21  2  0  0  0
 20104  1  0  0  0
 21 23  1  0  0  0
 22 28  1  0  0  0
 22 32  2  0  0  0
 26 27  1  0  0  0
 28105  1  0  0  0
 28106  1  0  0  0
 29107  1  0  0  0
 29108  1  0  0  0
 33 34  1  0  0  0
 33 66  1  0  0  0
 33 70  2  0  0  0
 34 36  1  0  0  0
 34 59  1  0  0  0
 34109  1  0  0  0
 35 44  2  0  0  0
 35 45  1  0  0  0
 35 68  1  0  0  0
 36 56  1  0  0  0
 36110  1  0  0  0
 37 39  1  0  0  0
 37 47  1  0  0  0
 37 66  1  0  0  0
 37111  1  0  0  0
 38 43  2  0  0  0
 38 46  1  0  0  0
 38 47  1  0  0  0
 39 64  1  0  0  0
 39 67  2  0  0  0
 40 52  1  0  0  0
 40 53  2  0  0  0
 40 58  1  0  0  0
 41112  1  0  0  0
 41113  1  0  0  0
 41114  1  0  0  0
 41 48  1  0  0  0
 42 43  1  0  0  0
 42 66  1  0  0  0
 42115  1  0  0  0
 42116  1  0  0  0
 43 44  1  0  0  0
 44117  1  0  0  0
 45 46  2  0  0  0
 45118  1  0  0  0
 46119  1  0  0  0
 47120  1  0  0  0
 47121  1  0  0  0
 48 56  1  0  0  0
 48 65  1  0  0  0
 48122  1  0  0  0
 49 50  1  0  0  0
 49 53  1  0  0  0
 49 64  1  0  0  0
 49123  1  0  0  0
 50 51  1  0  0  0
 50124  1  0  0  0
 50125  1  0  0  0
 51 52  1  0  0  0
 51126  1  0  0  0
 51127  1  0  0  0
 52128  1  0  0  0
 52129  1  0  0  0
 53 54  1  0  0  0
 54 55  2  0  0  0
 54130  1  0  0  0
 55 57  1  0  0  0
 55131  1  0  0  0
 56 69  2  0  0  0
 57 58  2  0  0  0
 57132  1  0  0  0
 58133  1  0  0  0
 59 60  1  0  0  0
 59 61  1  0  0  0
 59 62  1  0  0  0
 60134  1  0  0  0
 60135  1  0  0  0
 60136  1  0  0  0
 61137  1  0  0  0
 61138  1  0  0  0
 61139  1  0  0  0
 62140  1  0  0  0
 62141  1  0  0  0
 62142  1  0  0  0
 63 65  1  0  0  0
 63143  1  0  0  0
 63144  1  0  0  0
 63145  1  0  0  0
 64146  1  0  0  0
 65147  1  0  0  0
 68 83  1  0  0  0
 71 72  2  0  0  0
 71 73  1  0  0  0
 71148  1  0  0  0
 72 76  1  0  0  0
 72149  1  0  0  0
 73 74  2  0  0  0
 73 86  1  0  0  0
 74 75  1  0  0  0
 74 84  1  0  0  0
 75 76  2  0  0  0
 75 85  1  0  0  0
 76 87  1  0  0  0
 77 78  2  0  0  0
 77 83  1  0  0  0
 77 88  1  0  0  0
 78150  1  0  0  0
 78151  1  0  0  0
 79 80  1  0  0  0
 79 81  1  0  0  0
 79152  1  0  0  0
 79153  1  0  0  0
 80 82  1  0  0  0
 80154  1  0  0  0
 80155  1  0  0  0
 81 83  1  0  0  0
 81156  1  0  0  0
 81157  1  0  0  0
 82 88  1  0  0  0
 82158  1  0  0  0
 82159  1  0  0  0
 83160  1  0  0  0
 84161  1  0  0  0
 84162  1  0  0  0
 84163  1  0  0  0
 85164  1  0  0  0
 85165  1  0  0  0
 85166  1  0  0  0
 86167  1  0  0  0
 86168  1  0  0  0
 86 88  1  0  0  0
 87169  1  0  0  0
 88170  1  0  0  0
M  CHG  1  88   1
M  ISO  4   1 100  68 101  83 101  87 100
M  END
> <chiral flag>
0

> <version>
0

> <s_m_source_file>
/data/baiqing/PycharmProjects/Reinvent-master-3.2/result/LINK_invent/BTK/process_docking_weight1_custom_product_contain_oxygen_bond_distance_aromatic_linkinvent_7_9_3/rearranged_h_0042.sdf

> <i_m_source_file_index>
46

> <r_mmod_Potential_Energy-OPLS-2005>
85.3303604125977

> <r_mmod_Stretch_Energy-OPLS-2005>
106.509307861328

> <r_mmod_Bend_Energy-OPLS-2005>
196.899261474609

> <r_mmod_Torsional_Energy-OPLS-2005>
277.932342529297

> <r_mmod_Improper_Torsional_Energy-OPLS-2005>
7.18209552764893

> <r_mmod_Van_der_Waal_Energy-OPLS-2005>
160.200531005859

> <r_mmod_Electrostatic_Energy-OPLS-2005>
-291.401000976562

> <r_mmod_Solvation_Energy-OPLS-2005>
-420.189147949219

> <b_mmod_Minimization_Converged-OPLS-2005>
0

> <r_mmod_RMS_Derivative-OPLS-2005>
2.99176716804504

$$$$
46
                    3D
 Structure written by MMmdl.
159167  0  0  1  0            999 V2000
  -30.6640  -14.5294   20.4609 C   0  0  0  0  0  0
  -30.4327  -12.3038   19.4416 C   0  0  0  0  0  0
  -29.4990  -12.4360   18.2180 C   0  0  0  0  0  0
  -28.0226  -12.3081   18.6376 C   0  0  0  0  0  0
  -27.6600  -13.1975   19.8577 C   0  0  2  0  0  0
  -28.7043  -13.0327   20.9870 C   0  0  0  0  0  0
  -25.2613  -13.8146   20.5656 C   0  0  0  0  0  0
  -24.1865  -13.0440   20.9174 C   0  0  0  0  0  0
  -24.6412  -11.6896   20.8763 C   0  0  0  0  0  0
  -23.9075  -10.4287   21.0416 C   0  0  0  0  0  0
  -24.3621   -9.4194   21.9189 C   0  0  0  0  0  0
  -23.6292   -8.2235   22.0753 C   0  0  0  0  0  0
  -22.4274   -8.0286   21.3543 C   0  0  0  0  0  0
  -21.9922   -9.0258   20.4631 C   0  0  0  0  0  0
  -22.7257  -10.2131   20.3049 C   0  0  0  0  0  0
  -21.6847   -6.0743   22.5280 C   0  0  0  0  0  0
  -21.4001   -6.5639   23.8216 C   0  0  0  0  0  0
  -21.3656   -5.6788   24.9182 C   0  0  0  0  0  0
  -21.6039   -4.3049   24.7224 C   0  0  0  0  0  0
  -21.8829   -3.8148   23.4342 C   0  0  0  0  0  0
  -21.9190   -4.6970   22.3401 C   0  0  0  0  0  0
  -22.7886  -13.5233   21.1839 C   0  0  0  0  0  0
  -22.1664   -4.2150   21.0978 F   0  0  0  0  0  0
  -21.5630   -3.4536   25.7743 F   0  0  0  0  0  0
  -30.0312  -13.3243   20.4236 N   0  0  0  0  0  0
  -26.3037  -12.9296   20.3307 N   0  0  0  0  0  0
  -25.9328  -11.6465   20.5771 N   0  0  0  0  0  0
  -22.0528  -12.8222   22.0375 N   0  0  0  0  0  0
  -25.4364  -15.1864   20.4030 N   0  0  0  0  0  0
  -31.8446  -14.6717   20.1341 O   0  0  0  0  0  0
  -21.6635   -6.8888   21.4242 O   0  0  0  0  0  0
  -22.3572  -14.5548   20.6691 O   0  0  0  0  0  0
  -24.6173  -31.8679   23.2082 C   0  0  0  0  0  0
  -25.9065  -32.4823   23.8378 C   0  0  1  0  0  0
  -27.2285  -27.3964   20.0848 C   0  0  0  0  0  0
  -25.5899  -33.8626   24.2276 N   0  0  0  0  0  0
  -23.4073  -30.4882   21.5535 C   0  0  2  0  0  0
  -24.8453  -28.9414   20.1243 C   0  0  0  0  0  0
  -22.7434  -29.4642   22.5023 C   0  0  0  0  0  0
  -18.0276  -28.1384   22.8482 C   0  0  0  0  0  0
  -24.1477  -36.7299   23.2617 C   0  0  0  0  0  0
  -25.9401  -30.8157   21.3693 C   0  0  0  0  0  0
  -26.0120  -29.4492   20.7078 C   0  0  0  0  0  0
  -27.2034  -28.6856   20.6775 C   0  0  0  0  0  0
  -26.0319  -26.8972   19.5228 C   0  0  0  0  0  0
  -24.8478  -27.6621   19.5409 C   0  0  0  0  0  0
  -23.6168  -29.8207   20.1701 C   0  0  0  0  0  0
  -25.4111  -36.3105   24.0292 C   0  0  1  0  0  0
  -20.5857  -28.3665   23.1331 C   0  0  2  0  0  0
  -20.6793  -26.9416   22.5393 C   0  0  0  0  0  0
  -19.5757  -26.6405   21.5198 C   0  0  0  0  0  0
  -18.1935  -26.7931   22.1615 C   0  0  0  0  0  0
  -19.1523  -28.8839   23.2898 C   0  0  0  0  0  0
  -18.9456  -30.1453   23.8903 C   0  0  0  0  0  0
  -17.6456  -30.6591   24.0566 C   0  0  0  0  0  0
  -25.9040  -34.9480   23.5090 C   0  0  0  0  0  0
  -16.5346  -29.9081   23.6338 C   0  0  0  0  0  0
  -16.7266  -28.6508   23.0335 C   0  0  0  0  0  0
  -26.4447  -31.6678   25.0774 C   0  0  0  0  0  0
  -25.3662  -31.3860   26.1498 C   0  0  0  0  0  0
  -27.0292  -30.3099   24.6246 C   0  0  0  0  0  0
  -27.5982  -32.4450   25.7570 C   0  0  0  0  0  0
  -27.5595  -37.1799   24.8436 C   0  0  0  0  0  0
  -21.4156  -29.3039   22.3780 N   0  0  0  0  0  0
  -26.4284  -37.3805   23.9405 N   0  0  0  0  0  0
  -24.6733  -31.0733   22.1011 N   0  0  0  0  0  0
  -23.4211  -28.8173   23.3051 O   0  0  0  0  0  0
  -28.4199  -26.6857   20.0918 O   0  0  0  0  0  0
  -26.5632  -34.8936   22.4672 O   0  0  0  0  0  0
  -23.5363  -32.1465   23.7461 O   0  0  0  0  0  0
  -30.0575  -19.5923   19.1271 C   0  0  0  0  0  0
  -30.3163  -18.4957   18.2939 C   0  0  0  0  0  0
  -29.7236  -19.4036   20.4810 C   0  0  0  0  0  0
  -29.6757  -18.0634   21.0006 C   0  0  0  0  0  0
  -29.9681  -16.9360   20.1590 C   0  0  0  0  0  0
  -30.2637  -17.1815   18.7838 C   0  0  0  0  0  0
  -29.3369  -17.8344   22.4728 C   0  0  0  0  0  0
  -29.5209  -20.6773   21.3398 C   0  0  0  0  0  0
  -28.2565  -24.1808   20.4568 C   0  0  0  0  0  0
  -28.9380  -22.8296   20.0508 C   0  0  0  0  0  0
  -28.5388  -25.3722   19.4940 C   0  0  0  0  0  0
  -29.8566  -15.5926   20.6831 N   0  0  0  0  0  0
  -28.4936  -21.6546   20.8674 N   0  3  0  0  0  0
  -30.5037  -15.9354   17.6086 Cl  0  0  0  0  0  0
  -31.4759  -12.4036   19.1346 H   0  0  0  0  0  0
  -30.3480  -11.3072   19.8797 H   0  0  0  0  0  0
  -29.7408  -11.6688   17.4808 H   0  0  0  0  0  0
  -29.6598  -13.3889   17.7206 H   0  0  0  0  0  0
  -27.8521  -11.2595   18.8878 H   0  0  0  0  0  0
  -27.3663  -12.5281   17.7949 H   0  0  0  0  0  0
  -27.6904  -14.2309   19.5094 H   0  0  0  0  0  0
  -28.6858  -12.0154   21.3803 H   0  0  0  0  0  0
  -28.4741  -13.6833   21.8320 H   0  0  0  0  0  0
  -25.2776   -9.5657   22.4756 H   0  0  0  0  0  0
  -23.9994   -7.4623   22.7479 H   0  0  0  0  0  0
  -21.0857   -8.8779   19.8929 H   0  0  0  0  0  0
  -22.3741  -10.9667   19.6138 H   0  0  0  0  0  0
  -21.1992   -7.6146   23.9721 H   0  0  0  0  0  0
  -21.1461   -6.0516   25.9081 H   0  0  0  0  0  0
  -22.0613   -2.7608   23.2848 H   0  0  0  0  0  0
  -22.4136  -11.9863   22.4741 H   0  0  0  0  0  0
  -21.1131  -13.1206   22.2560 H   0  0  0  0  0  0
  -24.6694  -15.8413   20.5090 H   0  0  0  0  0  0
  -26.2812  -15.6201   20.0541 H   0  0  0  0  0  0
  -26.7154  -32.5463   23.1141 H   0  0  0  0  0  0
  -24.9995  -33.9806   25.0388 H   0  0  0  0  0  0
  -22.6932  -31.3045   21.4162 H   0  0  0  0  0  0
  -23.3763  -35.9609   23.3241 H   0  0  0  0  0  0
  -24.3565  -36.8979   22.2039 H   0  0  0  0  0  0
  -23.7207  -37.6460   23.6707 H   0  0  0  0  0  0
  -26.0719  -31.5888   20.6124 H   0  0  0  0  0  0
  -26.8193  -30.8498   22.0012 H   0  0  0  0  0  0
  -28.1106  -29.0795   21.1111 H   0  0  0  0  0  0
  -25.9786  -25.9133   19.0814 H   0  0  0  0  0  0
  -23.9397  -27.2523   19.1200 H   0  0  0  0  0  0
  -23.7401  -30.6000   19.4156 H   0  0  0  0  0  0
  -22.7350  -29.2549   19.8671 H   0  0  0  0  0  0
  -25.1301  -36.1942   25.0782 H   0  0  0  0  0  0
  -20.9926  -28.3228   24.1457 H   0  0  0  0  0  0
  -20.5756  -26.2246   23.3557 H   0  0  0  0  0  0
  -21.6654  -26.7528   22.1129 H   0  0  0  0  0  0
  -19.6910  -25.6324   21.1204 H   0  0  0  0  0  0
  -19.6688  -27.3233   20.6747 H   0  0  0  0  0  0
  -17.4197  -26.6665   21.4025 H   0  0  0  0  0  0
  -18.0339  -26.0076   22.9020 H   0  0  0  0  0  0
  -19.7937  -30.7265   24.2272 H   0  0  0  0  0  0
  -17.5015  -31.6262   24.5184 H   0  0  0  0  0  0
  -15.5346  -30.2974   23.7691 H   0  0  0  0  0  0
  -15.8662  -28.0853   22.7020 H   0  0  0  0  0  0
  -24.5736  -30.7340   25.7814 H   0  0  0  0  0  0
  -24.8953  -32.3054   26.4999 H   0  0  0  0  0  0
  -25.7909  -30.8945   27.0254 H   0  0  0  0  0  0
  -26.2905  -29.6900   24.1138 H   0  0  0  0  0  0
  -27.3822  -29.7328   25.4805 H   0  0  0  0  0  0
  -27.8847  -30.4374   23.9595 H   0  0  0  0  0  0
  -27.2540  -33.3736   26.2154 H   0  0  0  0  0  0
  -28.3793  -32.7066   25.0418 H   0  0  0  0  0  0
  -28.0646  -31.8584   26.5495 H   0  0  0  0  0  0
  -28.2529  -38.0184   24.7609 H   0  0  0  0  0  0
  -28.1174  -36.2710   24.6116 H   0  0  0  0  0  0
  -27.2311  -37.1255   25.8833 H   0  0  0  0  0  0
  -20.9347  -29.8770   21.6997 H   0  0  0  0  0  0
  -26.0148  -38.2855   24.1493 H   0  0  0  0  0  0
  -30.1255  -20.5874   18.7107 H   0  0  0  0  0  0
  -30.5513  -18.6632   17.2522 H   0  0  0  0  0  0
  -29.9647  -18.4524   23.1131 H   0  0  0  0  0  0
  -29.4970  -16.8114   22.8068 H   0  0  0  0  0  0
  -28.2925  -18.0795   22.6657 H   0  0  0  0  0  0
  -30.4841  -21.1695   21.4791 H   0  0  0  0  0  0
  -29.2009  -20.3928   22.3391 H   0  0  0  0  0  0
  -28.6151  -24.4563   21.4488 H   0  0  0  0  0  0
  -27.1776  -24.0470   20.5419 H   0  0  0  0  0  0
  -30.0193  -22.9576   20.1234 H   0  0  0  0  0  0
  -28.7329  -22.6145   19.0006 H   0  0  0  0  0  0
  -27.9688  -25.2715   18.5684 H   0  0  0  0  0  0
  -29.5796  -25.3009   19.1771 H   0  0  0  0  0  0
  -28.9837  -15.3741   21.1355 H   0  0  0  0  0  0
  -28.0957  -22.0265   21.7138 H   0  0  0  0  0  0
  -27.7553  -21.1564   20.3954 H   0  0  0  0  0  0
  1 25  1  0  0  0
  1 30  2  0  0  0
  1 82  1  0  0  0
  2  3  1  0  0  0
  2 25  1  0  0  0
  2 85  1  0  0  0
  2 86  1  0  0  0
  3  4  1  0  0  0
  3 87  1  0  0  0
  3 88  1  0  0  0
  4  5  1  0  0  0
  4 89  1  0  0  0
  4 90  1  0  0  0
  5  6  1  0  0  0
  5 26  1  0  0  0
  5 91  1  0  0  0
  6 25  1  0  0  0
  6 92  1  0  0  0
  6 93  1  0  0  0
  7  8  2  0  0  0
  7 26  1  0  0  0
  7 29  1  0  0  0
  8  9  1  0  0  0
  8 22  1  0  0  0
  9 10  1  0  0  0
  9 27  2  0  0  0
 10 11  2  0  0  0
 10 15  1  0  0  0
 11 12  1  0  0  0
 11 94  1  0  0  0
 12 13  2  0  0  0
 12 95  1  0  0  0
 13 14  1  0  0  0
 13 31  1  0  0  0
 14 15  2  0  0  0
 14 96  1  0  0  0
 15 97  1  0  0  0
 16 17  2  0  0  0
 16 21  1  0  0  0
 16 31  1  0  0  0
 17 18  1  0  0  0
 17 98  1  0  0  0
 18 19  2  0  0  0
 18 99  1  0  0  0
 19 20  1  0  0  0
 19 24  1  0  0  0
 20 21  2  0  0  0
 20100  1  0  0  0
 21 23  1  0  0  0
 22 28  1  0  0  0
 22 32  2  0  0  0
 26 27  1  0  0  0
 28101  1  0  0  0
 28102  1  0  0  0
 29103  1  0  0  0
 29104  1  0  0  0
 33 34  1  0  0  0
 33 66  1  0  0  0
 33 70  2  0  0  0
 34 36  1  0  0  0
 34 59  1  0  0  0
 34105  1  0  0  0
 35 44  2  0  0  0
 35 45  1  0  0  0
 35 68  1  0  0  0
 36 56  1  0  0  0
 36106  1  0  0  0
 37 39  1  0  0  0
 37 47  1  0  0  0
 37 66  1  0  0  0
 37107  1  0  0  0
 38 43  2  0  0  0
 38 46  1  0  0  0
 38 47  1  0  0  0
 39 64  1  0  0  0
 39 67  2  0  0  0
 40 52  1  0  0  0
 40 53  2  0  0  0
 40 58  1  0  0  0
 41108  1  0  0  0
 41109  1  0  0  0
 41110  1  0  0  0
 41 48  1  0  0  0
 42 43  1  0  0  0
 42 66  1  0  0  0
 42111  1  0  0  0
 42112  1  0  0  0
 43 44  1  0  0  0
 44113  1  0  0  0
 45 46  2  0  0  0
 45114  1  0  0  0
 46115  1  0  0  0
 47116  1  0  0  0
 47117  1  0  0  0
 48 56  1  0  0  0
 48 65  1  0  0  0
 48118  1  0  0  0
 49 50  1  0  0  0
 49 53  1  0  0  0
 49 64  1  0  0  0
 49119  1  0  0  0
 50 51  1  0  0  0
 50120  1  0  0  0
 50121  1  0  0  0
 51 52  1  0  0  0
 51122  1  0  0  0
 51123  1  0  0  0
 52124  1  0  0  0
 52125  1  0  0  0
 53 54  1  0  0  0
 54 55  2  0  0  0
 54126  1  0  0  0
 55 57  1  0  0  0
 55127  1  0  0  0
 56 69  2  0  0  0
 57 58  2  0  0  0
 57128  1  0  0  0
 58129  1  0  0  0
 59 60  1  0  0  0
 59 61  1  0  0  0
 59 62  1  0  0  0
 60130  1  0  0  0
 60131  1  0  0  0
 60132  1  0  0  0
 61133  1  0  0  0
 61134  1  0  0  0
 61135  1  0  0  0
 62136  1  0  0  0
 62137  1  0  0  0
 62138  1  0  0  0
 63 65  1  0  0  0
 63139  1  0  0  0
 63140  1  0  0  0
 63141  1  0  0  0
 64142  1  0  0  0
 65143  1  0  0  0
 68 81  1  0  0  0
 71 72  2  0  0  0
 71 73  1  0  0  0
 71144  1  0  0  0
 72 76  1  0  0  0
 72145  1  0  0  0
 73 74  2  0  0  0
 73 78  1  0  0  0
 74 75  1  0  0  0
 74 77  1  0  0  0
 75 76  2  0  0  0
 75 82  1  0  0  0
 76 84  1  0  0  0
 77146  1  0  0  0
 77147  1  0  0  0
 77148  1  0  0  0
 78 83  1  0  0  0
 78149  1  0  0  0
 78150  1  0  0  0
 79 80  1  0  0  0
 79 81  1  0  0  0
 79151  1  0  0  0
 79152  1  0  0  0
 80 83  1  0  0  0
 80153  1  0  0  0
 80154  1  0  0  0
 81155  1  0  0  0
 81156  1  0  0  0
 82157  1  0  0  0
 83158  1  0  0  0
 83159  1  0  0  0
M  CHG  1  83   1
M  ISO  4   1 100  68 101  81 101  82 100
M  END
> <chiral flag>
0

> <version>
0

> <s_m_source_file>
/data/baiqing/PycharmProjects/Reinvent-master-3.2/result/LINK_invent/BTK/process_docking_weight1_custom_product_contain_oxygen_bond_distance_aromatic_linkinvent_7_9_3/rearranged_h_0042.sdf

> <i_m_source_file_index>
47

> <r_mmod_Potential_Energy-OPLS-2005>
-220.709228515625

> <r_mmod_Stretch_Energy-OPLS-2005>
50.7217025756836

> <r_mmod_Bend_Energy-OPLS-2005>
119.904335021973

> <r_mmod_Torsional_Energy-OPLS-2005>
238.046615600586

> <r_mmod_Improper_Torsional_Energy-OPLS-2005>
5.57432842254639

> <r_mmod_Van_der_Waal_Energy-OPLS-2005>
152.983322143555

> <r_mmod_Electrostatic_Energy-OPLS-2005>
-314.170989990234

> <r_mmod_Solvation_Energy-OPLS-2005>
-498.860168457031

> <b_mmod_Minimization_Converged-OPLS-2005>
0

> <r_mmod_RMS_Derivative-OPLS-2005>
3.05414319038391

$$$$
47
                    3D
 Structure written by MMmdl.
164172  0  0  1  0            999 V2000
  -30.6856  -14.5492   20.3553 C   0  0  0  0  0  0
  -30.4409  -12.2735   19.4672 C   0  0  0  0  0  0
  -29.5257  -12.3404   18.2308 C   0  0  0  0  0  0
  -28.0247  -12.3443   18.6165 C   0  0  0  0  0  0
  -27.6584  -13.2042   19.8658 C   0  0  2  0  0  0
  -28.7200  -13.0731   20.9784 C   0  0  0  0  0  0
  -25.2594  -13.8135   20.5697 C   0  0  0  0  0  0
  -24.1847  -13.0410   20.9216 C   0  0  0  0  0  0
  -24.6418  -11.6881   20.8778 C   0  0  0  0  0  0
  -23.9096  -10.4269   21.0404 C   0  0  0  0  0  0
  -24.3648   -9.4186   21.9180 C   0  0  0  0  0  0
  -23.6308   -8.2233   22.0755 C   0  0  0  0  0  0
  -22.4286   -8.0290   21.3538 C   0  0  0  0  0  0
  -21.9927   -9.0265   20.4642 C   0  0  0  0  0  0
  -22.7274  -10.2126   20.3041 C   0  0  0  0  0  0
  -21.6847   -6.0742   22.5281 C   0  0  0  0  0  0
  -21.4008   -6.5641   23.8223 C   0  0  0  0  0  0
  -21.3659   -5.6797   24.9187 C   0  0  0  0  0  0
  -21.6055   -4.3059   24.7234 C   0  0  0  0  0  0
  -21.8822   -3.8155   23.4358 C   0  0  0  0  0  0
  -21.9186   -4.6960   22.3418 C   0  0  0  0  0  0
  -22.7857  -13.5205   21.1845 C   0  0  0  0  0  0
  -22.1652   -4.2146   21.0986 F   0  0  0  0  0  0
  -21.5633   -3.4551   25.7749 F   0  0  0  0  0  0
  -30.0305  -13.3542   20.3768 N   0  0  0  0  0  0
  -26.3045  -12.9288   20.3410 N   0  0  0  0  0  0
  -25.9358  -11.6464   20.5858 N   0  0  0  0  0  0
  -22.0482  -12.8193   22.0392 N   0  0  0  0  0  0
  -25.4213  -15.1867   20.4072 N   0  0  0  0  0  0
  -31.9016  -14.6319   20.1828 O   0  0  0  0  0  0
  -21.6651   -6.8884   21.4244 O   0  0  0  0  0  0
  -22.3544  -14.5501   20.6675 O   0  0  0  0  0  0
  -24.6166  -31.8664   23.2085 C   0  0  0  0  0  0
  -25.9064  -32.4808   23.8382 C   0  0  1  0  0  0
  -27.2342  -27.4132   20.1118 C   0  0  0  0  0  0
  -25.5920  -33.8609   24.2303 N   0  0  0  0  0  0
  -23.4066  -30.4899   21.5477 C   0  0  2  0  0  0
  -24.8557  -28.9594   20.1097 C   0  0  0  0  0  0
  -22.7439  -29.4648   22.4968 C   0  0  0  0  0  0
  -18.0277  -28.1386   22.8482 C   0  0  0  0  0  0
  -24.1494  -36.7310   23.2635 C   0  0  0  0  0  0
  -25.9390  -30.8269   21.3695 C   0  0  0  0  0  0
  -26.0161  -29.4633   20.7095 C   0  0  0  0  0  0
  -27.2090  -28.7009   20.7005 C   0  0  0  0  0  0
  -26.0525  -26.9334   19.4983 C   0  0  0  0  0  0
  -24.8705  -27.6961   19.4970 C   0  0  0  0  0  0
  -23.6174  -29.8241   20.1615 C   0  0  0  0  0  0
  -25.4117  -36.3098   24.0320 C   0  0  1  0  0  0
  -20.5876  -28.3674   23.1324 C   0  0  2  0  0  0
  -20.6789  -26.9409   22.5436 C   0  0  0  0  0  0
  -19.5762  -26.6384   21.5237 C   0  0  0  0  0  0
  -18.1932  -26.7934   22.1622 C   0  0  0  0  0  0
  -19.1529  -28.8843   23.2895 C   0  0  0  0  0  0
  -18.9452  -30.1456   23.8892 C   0  0  0  0  0  0
  -17.6454  -30.6591   24.0570 C   0  0  0  0  0  0
  -25.9039  -34.9471   23.5103 C   0  0  0  0  0  0
  -16.5344  -29.9093   23.6339 C   0  0  0  0  0  0
  -16.7266  -28.6519   23.0336 C   0  0  0  0  0  0
  -26.4478  -31.6598   25.0729 C   0  0  0  0  0  0
  -25.3724  -31.3755   26.1465 C   0  0  0  0  0  0
  -27.0336  -30.3024   24.6174 C   0  0  0  0  0  0
  -27.6022  -32.4350   25.7519 C   0  0  0  0  0  0
  -27.5584  -37.1812   24.8443 C   0  0  0  0  0  0
  -21.4165  -29.3029   22.3716 N   0  0  0  0  0  0
  -26.4290  -37.3791   23.9396 N   0  0  0  0  0  0
  -24.6715  -31.0764   22.0992 N   0  0  0  0  0  0
  -23.4203  -28.8199   23.3027 O   0  0  0  0  0  0
  -28.3890  -26.6492   20.1667 O   0  0  0  0  0  0
  -26.5599  -34.8917   22.4663 O   0  0  0  0  0  0
  -23.5359  -32.1432   23.7461 O   0  0  0  0  0  0
  -30.6371  -17.6253   17.0550 C   0  0  0  0  0  0
  -31.4776  -18.8660   18.9396 C   0  0  0  0  0  0
  -30.0662  -16.6839   17.9301 C   0  0  0  0  0  0
  -30.8770  -17.9546   19.8476 C   0  0  0  0  0  0
  -30.2850  -16.7537   19.3414 C   0  0  0  0  0  0
  -31.3829  -18.6947   17.5560 C   0  0  0  0  0  0
  -30.0451  -20.7249   21.3355 C   0  0  0  0  0  0
  -29.4246  -24.4576   20.7613 C   0  0  0  0  0  0
  -29.1644  -15.6738   17.2630 C   0  0  0  0  0  0
  -32.3667  -20.1890   22.0086 C   0  0  0  0  0  0
  -30.8282  -18.3410   21.3322 C   0  0  0  0  0  0
  -30.3905  -22.2349   21.4186 C   0  0  0  0  0  0
  -28.2052  -25.2127   20.1800 C   0  0  0  0  0  0
  -29.9081  -15.6539   20.2008 N   0  0  0  0  0  0
  -29.3277  -23.1213   20.9097 N   0  0  0  0  0  0
  -31.0148  -19.7965   21.5870 N   0  0  0  0  0  0
  -28.8939  -20.4050   21.0205 O   0  0  0  0  0  0
  -30.4501  -25.0687   21.0750 O   0  0  0  0  0  0
  -32.1037  -19.8384   16.4832 Cl  0  0  0  0  0  0
  -31.4880  -12.3523   19.1642 H   0  0  0  0  0  0
  -30.3484  -11.3063   19.9618 H   0  0  0  0  0  0
  -29.7235  -11.4824   17.5853 H   0  0  0  0  0  0
  -29.8054  -13.1937   17.6266 H   0  0  0  0  0  0
  -27.7547  -11.3060   18.8049 H   0  0  0  0  0  0
  -27.4256  -12.6548   17.7596 H   0  0  0  0  0  0
  -27.6513  -14.2445   19.5637 H   0  0  0  0  0  0
  -28.7128  -12.0658   21.3982 H   0  0  0  0  0  0
  -28.5179  -13.7543   21.8061 H   0  0  0  0  0  0
  -25.2777   -9.5674   22.4791 H   0  0  0  0  0  0
  -23.9998   -7.4632   22.7488 H   0  0  0  0  0  0
  -21.0849   -8.8813   19.8959 H   0  0  0  0  0  0
  -22.3735  -10.9691   19.6178 H   0  0  0  0  0  0
  -21.1998   -7.6154   23.9724 H   0  0  0  0  0  0
  -21.1469   -6.0528   25.9091 H   0  0  0  0  0  0
  -22.0593   -2.7608   23.2875 H   0  0  0  0  0  0
  -22.4051  -11.9838   22.4777 H   0  0  0  0  0  0
  -21.1100  -13.1206   22.2583 H   0  0  0  0  0  0
  -24.6425  -15.8273   20.5195 H   0  0  0  0  0  0
  -26.2590  -15.6444   20.0735 H   0  0  0  0  0  0
  -26.7141  -32.5508   23.1146 H   0  0  0  0  0  0
  -25.0108  -33.9777   25.0476 H   0  0  0  0  0  0
  -22.6935  -31.3056   21.4081 H   0  0  0  0  0  0
  -23.3750  -35.9647   23.3290 H   0  0  0  0  0  0
  -24.3591  -36.8942   22.2050 H   0  0  0  0  0  0
  -23.7253  -37.6511   23.6667 H   0  0  0  0  0  0
  -26.0667  -31.5976   20.6078 H   0  0  0  0  0  0
  -26.8209  -30.8671   21.9985 H   0  0  0  0  0  0
  -28.1034  -29.0842   21.1720 H   0  0  0  0  0  0
  -26.0200  -25.9661   19.0191 H   0  0  0  0  0  0
  -23.9793  -27.3075   19.0238 H   0  0  0  0  0  0
  -23.7234  -30.5994   19.4019 H   0  0  0  0  0  0
  -22.7430  -29.2410   19.8657 H   0  0  0  0  0  0
  -25.1299  -36.1947   25.0813 H   0  0  0  0  0  0
  -20.9950  -28.3246   24.1451 H   0  0  0  0  0  0
  -20.5756  -26.2261   23.3618 H   0  0  0  0  0  0
  -21.6650  -26.7500   22.1180 H   0  0  0  0  0  0
  -19.6935  -25.6300   21.1254 H   0  0  0  0  0  0
  -19.6718  -27.3211   20.6782 H   0  0  0  0  0  0
  -17.4226  -26.6697   21.4005 H   0  0  0  0  0  0
  -18.0298  -26.0080   22.9010 H   0  0  0  0  0  0
  -19.7930  -30.7284   24.2244 H   0  0  0  0  0  0
  -17.5009  -31.6267   24.5177 H   0  0  0  0  0  0
  -15.5344  -30.2988   23.7678 H   0  0  0  0  0  0
  -15.8664  -28.0854   22.7025 H   0  0  0  0  0  0
  -24.5850  -30.7160   25.7795 H   0  0  0  0  0  0
  -24.8983  -32.2949   26.4910 H   0  0  0  0  0  0
  -25.8039  -30.8900   27.0222 H   0  0  0  0  0  0
  -26.2931  -29.6776   24.1158 H   0  0  0  0  0  0
  -27.4000  -29.7266   25.4684 H   0  0  0  0  0  0
  -27.8804  -30.4311   23.9425 H   0  0  0  0  0  0
  -27.2582  -33.3620   26.2116 H   0  0  0  0  0  0
  -28.3830  -32.6964   25.0366 H   0  0  0  0  0  0
  -28.0689  -31.8475   26.5433 H   0  0  0  0  0  0
  -28.2564  -38.0148   24.7528 H   0  0  0  0  0  0
  -28.1119  -36.2675   24.6216 H   0  0  0  0  0  0
  -27.2306  -37.1389   25.8847 H   0  0  0  0  0  0
  -20.9332  -29.8691   21.6882 H   0  0  0  0  0  0
  -26.0166  -38.2859   24.1414 H   0  0  0  0  0  0
  -30.4899  -17.5365   15.9880 H   0  0  0  0  0  0
  -31.9984  -19.7482   19.2793 H   0  0  0  0  0  0
  -29.7055  -15.1104   16.5017 H   0  0  0  0  0  0
  -28.3451  -16.1949   16.7673 H   0  0  0  0  0  0
  -28.7136  -14.9945   17.9652 H   0  0  0  0  0  0
  -32.3393  -20.7663   22.9339 H   0  0  0  0  0  0
  -32.8508  -20.7957   21.2444 H   0  0  0  0  0  0
  -33.0228  -19.3342   22.1749 H   0  0  0  0  0  0
  -31.5675  -17.7441   21.8672 H   0  0  0  0  0  0
  -29.8686  -18.0239   21.7419 H   0  0  0  0  0  0
  -31.2933  -22.4221   20.8363 H   0  0  0  0  0  0
  -30.6111  -22.4872   22.4556 H   0  0  0  0  0  0
  -27.3389  -24.9446   20.7890 H   0  0  0  0  0  0
  -28.0294  -24.8502   19.1661 H   0  0  0  0  0  0
  -28.9212  -15.4786   20.2976 H   0  0  0  0  0  0
  -28.4685  -22.6601   20.6361 H   0  0  0  0  0  0
  1 25  1  0  0  0
  1 30  2  0  0  0
  1 84  1  0  0  0
  2  3  1  0  0  0
  2 25  1  0  0  0
  2 90  1  0  0  0
  2 91  1  0  0  0
  3  4  1  0  0  0
  3 92  1  0  0  0
  3 93  1  0  0  0
  4  5  1  0  0  0
  4 94  1  0  0  0
  4 95  1  0  0  0
  5  6  1  0  0  0
  5 26  1  0  0  0
  5 96  1  0  0  0
  6 25  1  0  0  0
  6 97  1  0  0  0
  6 98  1  0  0  0
  7  8  2  0  0  0
  7 26  1  0  0  0
  7 29  1  0  0  0
  8  9  1  0  0  0
  8 22  1  0  0  0
  9 10  1  0  0  0
  9 27  2  0  0  0
 10 11  2  0  0  0
 10 15  1  0  0  0
 11 12  1  0  0  0
 11 99  1  0  0  0
 12 13  2  0  0  0
 12100  1  0  0  0
 13 14  1  0  0  0
 13 31  1  0  0  0
 14 15  2  0  0  0
 14101  1  0  0  0
 15102  1  0  0  0
 16 17  2  0  0  0
 16 21  1  0  0  0
 16 31  1  0  0  0
 17 18  1  0  0  0
 17103  1  0  0  0
 18 19  2  0  0  0
 18104  1  0  0  0
 19 20  1  0  0  0
 19 24  1  0  0  0
 20 21  2  0  0  0
 20105  1  0  0  0
 21 23  1  0  0  0
 22 28  1  0  0  0
 22 32  2  0  0  0
 26 27  1  0  0  0
 28106  1  0  0  0
 28107  1  0  0  0
 29108  1  0  0  0
 29109  1  0  0  0
 33 34  1  0  0  0
 33 66  1  0  0  0
 33 70  2  0  0  0
 34 36  1  0  0  0
 34 59  1  0  0  0
 34110  1  0  0  0
 35 44  2  0  0  0
 35 45  1  0  0  0
 35 68  1  0  0  0
 36 56  1  0  0  0
 36111  1  0  0  0
 37 39  1  0  0  0
 37 47  1  0  0  0
 37 66  1  0  0  0
 37112  1  0  0  0
 38 43  2  0  0  0
 38 46  1  0  0  0
 38 47  1  0  0  0
 39 64  1  0  0  0
 39 67  2  0  0  0
 40 52  1  0  0  0
 40 53  2  0  0  0
 40 58  1  0  0  0
 41113  1  0  0  0
 41114  1  0  0  0
 41115  1  0  0  0
 41 48  1  0  0  0
 42 43  1  0  0  0
 42 66  1  0  0  0
 42116  1  0  0  0
 42117  1  0  0  0
 43 44  1  0  0  0
 44118  1  0  0  0
 45 46  2  0  0  0
 45119  1  0  0  0
 46120  1  0  0  0
 47121  1  0  0  0
 47122  1  0  0  0
 48 56  1  0  0  0
 48 65  1  0  0  0
 48123  1  0  0  0
 49 50  1  0  0  0
 49 53  1  0  0  0
 49 64  1  0  0  0
 49124  1  0  0  0
 50 51  1  0  0  0
 50125  1  0  0  0
 50126  1  0  0  0
 51 52  1  0  0  0
 51127  1  0  0  0
 51128  1  0  0  0
 52129  1  0  0  0
 52130  1  0  0  0
 53 54  1  0  0  0
 54 55  2  0  0  0
 54131  1  0  0  0
 55 57  1  0  0  0
 55132  1  0  0  0
 56 69  2  0  0  0
 57 58  2  0  0  0
 57133  1  0  0  0
 58134  1  0  0  0
 59 60  1  0  0  0
 59 61  1  0  0  0
 59 62  1  0  0  0
 60135  1  0  0  0
 60136  1  0  0  0
 60137  1  0  0  0
 61138  1  0  0  0
 61139  1  0  0  0
 61140  1  0  0  0
 62141  1  0  0  0
 62142  1  0  0  0
 62143  1  0  0  0
 63 65  1  0  0  0
 63144  1  0  0  0
 63145  1  0  0  0
 63146  1  0  0  0
 64147  1  0  0  0
 65148  1  0  0  0
 68 83  1  0  0  0
 71 73  2  0  0  0
 71 76  1  0  0  0
 71149  1  0  0  0
 72 74  1  0  0  0
 72 76  2  0  0  0
 72150  1  0  0  0
 73 75  1  0  0  0
 73 79  1  0  0  0
 74 75  2  0  0  0
 74 81  1  0  0  0
 75 84  1  0  0  0
 76 89  1  0  0  0
 77 82  1  0  0  0
 77 86  1  0  0  0
 77 87  2  0  0  0
 78 83  1  0  0  0
 78 85  1  0  0  0
 78 88  2  0  0  0
 79151  1  0  0  0
 79152  1  0  0  0
 79153  1  0  0  0
 80 86  1  0  0  0
 80154  1  0  0  0
 80155  1  0  0  0
 80156  1  0  0  0
 81 86  1  0  0  0
 81157  1  0  0  0
 81158  1  0  0  0
 82 85  1  0  0  0
 82159  1  0  0  0
 82160  1  0  0  0
 83161  1  0  0  0
 83162  1  0  0  0
 84163  1  0  0  0
 85164  1  0  0  0
M  ISO  4   1 100  68 101  83 101  84 100
M  END
> <chiral flag>
0

> <version>
0

> <s_m_source_file>
/data/baiqing/PycharmProjects/Reinvent-master-3.2/result/LINK_invent/BTK/process_docking_weight1_custom_product_contain_oxygen_bond_distance_aromatic_linkinvent_7_9_3/rearranged_h_0042.sdf

> <i_m_source_file_index>
48

> <r_mmod_Potential_Energy-OPLS-2005>
-80.6707153320312

> <r_mmod_Stretch_Energy-OPLS-2005>
51.1462364196777

> <r_mmod_Bend_Energy-OPLS-2005>
103.950950622559

> <r_mmod_Torsional_Energy-OPLS-2005>
281.669708251953

> <r_mmod_Improper_Torsional_Energy-OPLS-2005>
10.6942224502563

> <r_mmod_Van_der_Waal_Energy-OPLS-2005>
164.46809387207

> <r_mmod_Electrostatic_Energy-OPLS-2005>
-462.037506103516

> <r_mmod_Solvation_Energy-OPLS-2005>
-268.274810791016

> <b_mmod_Minimization_Converged-OPLS-2005>
0

> <r_mmod_RMS_Derivative-OPLS-2005>
3.0468635559082

$$$$
48
                    3D
 Structure written by MMmdl.
161170  0  0  1  0            999 V2000
  -30.6201  -14.7285   20.5154 C   0  0  0  0  0  0
  -30.4417  -12.4591   19.4731 C   0  0  0  0  0  0
  -29.5002  -12.4749   18.2488 C   0  0  0  0  0  0
  -28.0408  -12.2736   18.6799 C   0  0  0  0  0  0
  -27.6376  -13.2127   19.8447 C   0  0  2  0  0  0
  -28.6759  -13.1491   20.9828 C   0  0  0  0  0  0
  -25.2533  -13.8107   20.5737 C   0  0  0  0  0  0
  -24.1780  -13.0417   20.9201 C   0  0  0  0  0  0
  -24.6347  -11.6872   20.8750 C   0  0  0  0  0  0
  -23.9029  -10.4257   21.0436 C   0  0  0  0  0  0
  -24.3575   -9.4150   21.9224 C   0  0  0  0  0  0
  -23.6225   -8.2210   22.0772 C   0  0  0  0  0  0
  -22.4220   -8.0248   21.3547 C   0  0  0  0  0  0
  -21.9870   -9.0244   20.4670 C   0  0  0  0  0  0
  -22.7195  -10.2122   20.3086 C   0  0  0  0  0  0
  -21.6825   -6.0704   22.5268 C   0  0  0  0  0  0
  -21.3983   -6.5641   23.8192 C   0  0  0  0  0  0
  -21.3643   -5.6808   24.9191 C   0  0  0  0  0  0
  -21.6068   -4.3071   24.7251 C   0  0  0  0  0  0
  -21.8817   -3.8143   23.4380 C   0  0  0  0  0  0
  -21.9172   -4.6940   22.3413 C   0  0  0  0  0  0
  -22.7824  -13.5205   21.1873 C   0  0  0  0  0  0
  -22.1657   -4.2113   21.1002 F   0  0  0  0  0  0
  -21.5641   -3.4569   25.7775 F   0  0  0  0  0  0
  -29.9821  -13.5111   20.4100 N   0  0  0  0  0  0
  -26.2901  -12.9311   20.3284 N   0  0  0  0  0  0
  -25.9265  -11.6482   20.5804 N   0  0  0  0  0  0
  -22.0467  -12.8232   22.0451 N   0  0  0  0  0  0
  -25.4394  -15.1801   20.4207 N   0  0  0  0  0  0
  -31.7963  -14.8367   20.1618 O   0  0  0  0  0  0
  -21.6605   -6.8840   21.4210 O   0  0  0  0  0  0
  -22.3552  -14.5550   20.6712 O   0  0  0  0  0  0
  -24.6348  -31.8582   23.1944 C   0  0  0  0  0  0
  -25.9214  -32.4734   23.8314 C   0  0  1  0  0  0
  -27.2348  -27.2808   20.1317 C   0  0  0  0  0  0
  -25.5994  -33.8531   24.2244 N   0  0  0  0  0  0
  -23.4285  -30.4830   21.5400 C   0  0  2  0  0  0
  -24.8812  -28.9343   20.1035 C   0  0  0  0  0  0
  -22.7499  -29.4686   22.4909 C   0  0  0  0  0  0
  -18.0336  -28.1385   22.8377 C   0  0  0  0  0  0
  -24.1479  -36.7261   23.2631 C   0  0  0  0  0  0
  -25.9764  -30.7808   21.3669 C   0  0  0  0  0  0
  -26.0533  -29.4032   20.7083 C   0  0  0  0  0  0
  -27.2357  -28.5975   20.7050 C   0  0  0  0  0  0
  -26.0447  -26.8816   19.4877 C   0  0  0  0  0  0
  -24.8815  -27.6779   19.4779 C   0  0  0  0  0  0
  -23.6445  -29.8177   20.1586 C   0  0  0  0  0  0
  -25.4101  -36.3016   24.0313 C   0  0  1  0  0  0
  -20.5918  -28.3695   23.1195 C   0  0  2  0  0  0
  -20.6723  -26.9439   22.5218 C   0  0  0  0  0  0
  -19.5709  -26.6603   21.4947 C   0  0  0  0  0  0
  -18.1937  -26.7952   22.1463 C   0  0  0  0  0  0
  -19.1578  -28.8828   23.2813 C   0  0  0  0  0  0
  -18.9520  -30.1391   23.8925 C   0  0  0  0  0  0
  -17.6533  -30.6514   24.0670 C   0  0  0  0  0  0
  -25.9076  -34.9394   23.5077 C   0  0  0  0  0  0
  -16.5414  -29.9068   23.6337 C   0  0  0  0  0  0
  -16.7326  -28.6543   23.0242 C   0  0  0  0  0  0
  -26.4581  -31.6525   25.0700 C   0  0  0  0  0  0
  -25.3817  -31.3680   26.1451 C   0  0  0  0  0  0
  -27.0447  -30.2902   24.6234 C   0  0  0  0  0  0
  -27.6139  -32.4241   25.7500 C   0  0  0  0  0  0
  -27.5559  -37.1786   24.8488 C   0  0  0  0  0  0
  -21.4222  -29.3101   22.3628 N   0  0  0  0  0  0
  -26.4273  -37.3722   23.9418 N   0  0  0  0  0  0
  -24.6990  -31.0557   22.0896 N   0  0  0  0  0  0
  -23.4214  -28.8296   23.3041 O   0  0  0  0  0  0
  -28.3229  -26.3722   20.1988 O   0  0  0  0  0  0
  -26.5660  -34.8919   22.4654 O   0  0  0  0  0  0
  -23.5485  -32.1435   23.7208 O   0  0  0  0  0  0
  -29.6301  -18.5677   19.2149 C   0  0  0  0  0  0
  -29.2087  -20.9797   19.1376 C   0  0  0  0  0  0
  -29.7754  -18.5890   20.6180 C   0  0  0  0  0  0
  -29.5541  -19.8828   21.2935 C   0  0  0  0  0  0
  -29.2268  -21.1282   20.5513 C   0  0  0  0  0  0
  -29.3970  -19.7461   18.4918 C   0  0  0  0  0  0
  -28.9942  -23.7420   20.4062 C   0  0  0  0  0  0
  -27.2751  -23.7738   22.7279 C   0  0  0  0  0  0
  -27.8494  -25.0993   22.2297 C   0  0  0  0  0  0
  -28.1788  -22.5655   22.3989 C   0  0  0  0  0  0
  -28.0223  -24.9910   20.7227 C   0  0  1  0  0  0
  -29.7490  -19.8754   22.8186 C   0  0  0  0  0  0
  -30.3481  -17.2412   21.2714 C   0  0  0  0  0  0
  -28.8265  -22.5036   21.0680 N   0  0  0  0  0  0
  -29.8785  -15.8392   20.8836 N   0  0  0  0  0  0
  -29.8845  -23.9116   19.5655 O   0  0  0  0  0  0
  -29.3740  -19.6786   16.7687 Cl  0  0  0  0  0  0
  -31.4687  -12.6226   19.1498 H   0  0  0  0  0  0
  -30.4376  -11.4753   19.9470 H   0  0  0  0  0  0
  -29.7743  -11.6796   17.5597 H   0  0  0  0  0  0
  -29.5968  -13.4163   17.7083 H   0  0  0  0  0  0
  -27.9420  -11.2380   19.0086 H   0  0  0  0  0  0
  -27.3700  -12.3949   17.8304 H   0  0  0  0  0  0
  -27.6360  -14.2221   19.4389 H   0  0  0  0  0  0
  -28.7086  -12.1483   21.4093 H   0  0  0  0  0  0
  -28.3868  -13.8098   21.8007 H   0  0  0  0  0  0
  -25.2710   -9.5652   22.4824 H   0  0  0  0  0  0
  -23.9979   -7.4598   22.7465 H   0  0  0  0  0  0
  -21.0836   -8.8715   19.8945 H   0  0  0  0  0  0
  -22.3623  -10.9675   19.6222 H   0  0  0  0  0  0
  -21.1958   -7.6152   23.9684 H   0  0  0  0  0  0
  -21.1466   -6.0567   25.9086 H   0  0  0  0  0  0
  -22.0600   -2.7601   23.2895 H   0  0  0  0  0  0
  -22.4089  -11.9864   22.4767 H   0  0  0  0  0  0
  -21.1083  -13.1225   22.2737 H   0  0  0  0  0  0
  -24.6750  -15.8411   20.5074 H   0  0  0  0  0  0
  -26.3038  -15.5974   20.1027 H   0  0  0  0  0  0
  -26.7368  -32.5416   23.1115 H   0  0  0  0  0  0
  -25.0161  -33.9633   25.0414 H   0  0  0  0  0  0
  -22.7225  -31.3052   21.3929 H   0  0  0  0  0  0
  -23.3701  -35.9621   23.3290 H   0  0  0  0  0  0
  -24.3600  -36.8898   22.2059 H   0  0  0  0  0  0
  -23.7280  -37.6468   23.6669 H   0  0  0  0  0  0
  -26.1180  -31.5464   20.6016 H   0  0  0  0  0  0
  -26.8520  -30.8337   21.9977 H   0  0  0  0  0  0
  -28.1320  -28.9640   21.1857 H   0  0  0  0  0  0
  -25.9929  -25.9282   18.9888 H   0  0  0  0  0  0
  -23.9945  -27.2910   18.9962 H   0  0  0  0  0  0
  -23.7717  -30.6017   19.4152 H   0  0  0  0  0  0
  -22.7523  -29.2599   19.8600 H   0  0  0  0  0  0
  -25.1257  -36.1827   25.0784 H   0  0  0  0  0  0
  -21.0064  -28.3242   24.1286 H   0  0  0  0  0  0
  -20.5396  -26.2281   23.3328 H   0  0  0  0  0  0
  -21.6561  -26.7378   22.0999 H   0  0  0  0  0  0
  -19.6935  -25.6656   21.0615 H   0  0  0  0  0  0
  -19.6518  -27.3708   20.6713 H   0  0  0  0  0  0
  -17.4154  -26.6691   21.3915 H   0  0  0  0  0  0
  -18.0521  -26.0081   22.8860 H   0  0  0  0  0  0
  -19.8044  -30.7163   24.2229 H   0  0  0  0  0  0
  -17.5141  -31.6129   24.5407 H   0  0  0  0  0  0
  -15.5405  -30.3003   23.7663 H   0  0  0  0  0  0
  -15.8741  -28.0956   22.6793 H   0  0  0  0  0  0
  -24.5989  -30.7023   25.7817 H   0  0  0  0  0  0
  -24.9036  -32.2861   26.4852 H   0  0  0  0  0  0
  -25.8163  -30.8888   27.0240 H   0  0  0  0  0  0
  -26.3082  -29.6602   24.1251 H   0  0  0  0  0  0
  -27.4133  -29.7185   25.4779 H   0  0  0  0  0  0
  -27.8916  -30.4137   23.9481 H   0  0  0  0  0  0
  -27.2756  -33.3548   26.2052 H   0  0  0  0  0  0
  -28.3958  -32.6821   25.0340 H   0  0  0  0  0  0
  -28.0833  -31.8415   26.5432 H   0  0  0  0  0  0
  -28.2572  -38.0081   24.7458 H   0  0  0  0  0  0
  -28.1037  -36.2613   24.6307 H   0  0  0  0  0  0
  -27.2331  -37.1444   25.8911 H   0  0  0  0  0  0
  -20.9380  -29.8706   21.6767 H   0  0  0  0  0  0
  -26.0110  -38.2760   24.1380 H   0  0  0  0  0  0
  -29.7697  -17.6483   18.6635 H   0  0  0  0  0  0
  -29.0034  -21.8172   18.4861 H   0  0  0  0  0  0
  -26.2994  -23.6094   22.2685 H   0  0  0  0  0  0
  -27.0872  -23.8323   23.8001 H   0  0  0  0  0  0
  -28.7968  -25.3744   22.7007 H   0  0  0  0  0  0
  -27.1425  -25.8901   22.4670 H   0  0  0  0  0  0
  -27.5515  -21.6817   22.5334 H   0  0  0  0  0  0
  -28.9844  -22.5741   23.1364 H   0  0  0  0  0  0
  -27.0678  -24.6728   20.3062 H   0  0  0  0  0  0
  -29.5076  -18.9084   23.2545 H   0  0  0  0  0  0
  -29.0840  -20.5107   23.3854 H   0  0  0  0  0  0
  -30.7775  -20.1218   23.0913 H   0  0  0  0  0  0
  -31.4218  -17.2860   21.0876 H   0  0  0  0  0  0
  -30.2773  -17.2456   22.3539 H   0  0  0  0  0  0
  -28.9082  -15.6606   21.0959 H   0  0  0  0  0  0
  1 25  1  0  0  0
  1 30  2  0  0  0
  1 85  1  0  0  0
  2  3  1  0  0  0
  2 25  1  0  0  0
  2 88  1  0  0  0
  2 89  1  0  0  0
  3  4  1  0  0  0
  3 90  1  0  0  0
  3 91  1  0  0  0
  4  5  1  0  0  0
  4 92  1  0  0  0
  4 93  1  0  0  0
  5  6  1  0  0  0
  5 26  1  0  0  0
  5 94  1  0  0  0
  6 25  1  0  0  0
  6 95  1  0  0  0
  6 96  1  0  0  0
  7  8  2  0  0  0
  7 26  1  0  0  0
  7 29  1  0  0  0
  8  9  1  0  0  0
  8 22  1  0  0  0
  9 10  1  0  0  0
  9 27  2  0  0  0
 10 11  2  0  0  0
 10 15  1  0  0  0
 11 12  1  0  0  0
 11 97  1  0  0  0
 12 13  2  0  0  0
 12 98  1  0  0  0
 13 14  1  0  0  0
 13 31  1  0  0  0
 14 15  2  0  0  0
 14 99  1  0  0  0
 15100  1  0  0  0
 16 17  2  0  0  0
 16 21  1  0  0  0
 16 31  1  0  0  0
 17 18  1  0  0  0
 17101  1  0  0  0
 18 19  2  0  0  0
 18102  1  0  0  0
 19 20  1  0  0  0
 19 24  1  0  0  0
 20 21  2  0  0  0
 20103  1  0  0  0
 21 23  1  0  0  0
 22 28  1  0  0  0
 22 32  2  0  0  0
 26 27  1  0  0  0
 28104  1  0  0  0
 28105  1  0  0  0
 29106  1  0  0  0
 29107  1  0  0  0
 33 34  1  0  0  0
 33 66  1  0  0  0
 33 70  2  0  0  0
 34 36  1  0  0  0
 34 59  1  0  0  0
 34108  1  0  0  0
 35 44  2  0  0  0
 35 45  1  0  0  0
 35 68  1  0  0  0
 36 56  1  0  0  0
 36109  1  0  0  0
 37 39  1  0  0  0
 37 47  1  0  0  0
 37 66  1  0  0  0
 37110  1  0  0  0
 38 43  2  0  0  0
 38 46  1  0  0  0
 38 47  1  0  0  0
 39 64  1  0  0  0
 39 67  2  0  0  0
 40 52  1  0  0  0
 40 53  2  0  0  0
 40 58  1  0  0  0
 41111  1  0  0  0
 41112  1  0  0  0
 41113  1  0  0  0
 41 48  1  0  0  0
 42 43  1  0  0  0
 42 66  1  0  0  0
 42114  1  0  0  0
 42115  1  0  0  0
 43 44  1  0  0  0
 44116  1  0  0  0
 45 46  2  0  0  0
 45117  1  0  0  0
 46118  1  0  0  0
 47119  1  0  0  0
 47120  1  0  0  0
 48 56  1  0  0  0
 48 65  1  0  0  0
 48121  1  0  0  0
 49 50  1  0  0  0
 49 53  1  0  0  0
 49 64  1  0  0  0
 49122  1  0  0  0
 50 51  1  0  0  0
 50123  1  0  0  0
 50124  1  0  0  0
 51 52  1  0  0  0
 51125  1  0  0  0
 51126  1  0  0  0
 52127  1  0  0  0
 52128  1  0  0  0
 53 54  1  0  0  0
 54 55  2  0  0  0
 54129  1  0  0  0
 55 57  1  0  0  0
 55130  1  0  0  0
 56 69  2  0  0  0
 57 58  2  0  0  0
 57131  1  0  0  0
 58132  1  0  0  0
 59 60  1  0  0  0
 59 61  1  0  0  0
 59 62  1  0  0  0
 60133  1  0  0  0
 60134  1  0  0  0
 60135  1  0  0  0
 61136  1  0  0  0
 61137  1  0  0  0
 61138  1  0  0  0
 62139  1  0  0  0
 62140  1  0  0  0
 62141  1  0  0  0
 63 65  1  0  0  0
 63142  1  0  0  0
 63143  1  0  0  0
 63144  1  0  0  0
 64145  1  0  0  0
 65146  1  0  0  0
 68 81  1  0  0  0
 71 73  2  0  0  0
 71 76  1  0  0  0
 71147  1  0  0  0
 72 75  1  0  0  0
 72 76  2  0  0  0
 72148  1  0  0  0
 73 74  1  0  0  0
 73 83  1  0  0  0
 74 75  2  0  0  0
 74 82  1  0  0  0
 75 84  1  0  0  0
 76 87  1  0  0  0
 77 81  1  0  0  0
 77 84  1  0  0  0
 77 86  2  0  0  0
 78 79  1  0  0  0
 78 80  1  0  0  0
 78149  1  0  0  0
 78150  1  0  0  0
 79 81  1  0  0  0
 79151  1  0  0  0
 79152  1  0  0  0
 80 84  1  0  0  0
 80153  1  0  0  0
 80154  1  0  0  0
 81155  1  0  0  0
 82156  1  0  0  0
 82157  1  0  0  0
 82158  1  0  0  0
 83 85  1  0  0  0
 83159  1  0  0  0
 83160  1  0  0  0
 85161  1  0  0  0
M  ISO  4   1 100  68 101  81 101  85 100
M  END
> <chiral flag>
0

> <version>
0

> <s_m_source_file>
/data/baiqing/PycharmProjects/Reinvent-master-3.2/result/LINK_invent/BTK/process_docking_weight1_custom_product_contain_oxygen_bond_distance_aromatic_linkinvent_7_9_3/rearranged_h_0042.sdf

> <i_m_source_file_index>
49

> <r_mmod_Potential_Energy-OPLS-2005>
294.012634277344

> <r_mmod_Stretch_Energy-OPLS-2005>
158.290802001953

> <r_mmod_Bend_Energy-OPLS-2005>
188.450256347656

> <r_mmod_Torsional_Energy-OPLS-2005>
276.276977539062

> <r_mmod_Improper_Torsional_Energy-OPLS-2005>
4.41013193130493

> <r_mmod_Van_der_Waal_Energy-OPLS-2005>
163.290176391602

> <r_mmod_Electrostatic_Energy-OPLS-2005>
-348.918304443359

> <r_mmod_Solvation_Energy-OPLS-2005>
-228.714263916016

> <b_mmod_Minimization_Converged-OPLS-2005>
0

> <r_mmod_RMS_Derivative-OPLS-2005>
8.405686378479

$$$$
49
                    3D
 Structure written by MMmdl.
157165  0  0  1  0            999 V2000
  -30.6164  -14.6263   20.4918 C   0  0  0  0  0  0
  -30.4395  -12.3772   19.4430 C   0  0  0  0  0  0
  -29.5061  -12.5038   18.2184 C   0  0  0  0  0  0
  -28.0268  -12.3523   18.6298 C   0  0  0  0  0  0
  -27.6568  -13.2123   19.8676 C   0  0  2  0  0  0
  -28.7045  -13.0463   20.9921 C   0  0  0  0  0  0
  -25.2578  -13.8165   20.5678 C   0  0  0  0  0  0
  -24.1833  -13.0445   20.9177 C   0  0  0  0  0  0
  -24.6396  -11.6911   20.8739 C   0  0  0  0  0  0
  -23.9061  -10.4294   21.0405 C   0  0  0  0  0  0
  -24.3613   -9.4211   21.9185 C   0  0  0  0  0  0
  -23.6289   -8.2242   22.0754 C   0  0  0  0  0  0
  -22.4272   -8.0277   21.3546 C   0  0  0  0  0  0
  -21.9907   -9.0249   20.4646 C   0  0  0  0  0  0
  -22.7230  -10.2132   20.3056 C   0  0  0  0  0  0
  -21.6854   -6.0737   22.5277 C   0  0  0  0  0  0
  -21.4010   -6.5643   23.8208 C   0  0  0  0  0  0
  -21.3663   -5.6797   24.9173 C   0  0  0  0  0  0
  -21.6043   -4.3058   24.7226 C   0  0  0  0  0  0
  -21.8819   -3.8148   23.4346 C   0  0  0  0  0  0
  -21.9193   -4.6965   22.3402 C   0  0  0  0  0  0
  -22.7854  -13.5235   21.1848 C   0  0  0  0  0  0
  -22.1661   -4.2150   21.0978 F   0  0  0  0  0  0
  -21.5638   -3.4539   25.7738 F   0  0  0  0  0  0
  -30.0206  -13.3927   20.4289 N   0  0  0  0  0  0
  -26.3006  -12.9335   20.3343 N   0  0  0  0  0  0
  -25.9327  -11.6493   20.5768 N   0  0  0  0  0  0
  -22.0504  -12.8219   22.0405 N   0  0  0  0  0  0
  -25.4316  -15.1876   20.4091 N   0  0  0  0  0  0
  -31.7671  -14.8095   20.0824 O   0  0  0  0  0  0
  -21.6641   -6.8873   21.4237 O   0  0  0  0  0  0
  -22.3539  -14.5550   20.6716 O   0  0  0  0  0  0
  -24.6282  -31.8589   23.2021 C   0  0  0  0  0  0
  -25.9120  -32.4775   23.8357 C   0  0  1  0  0  0
  -27.2260  -27.3107   20.1109 C   0  0  0  0  0  0
  -25.5931  -33.8574   24.2287 N   0  0  0  0  0  0
  -23.4232  -30.4840   21.5445 C   0  0  2  0  0  0
  -24.8694  -28.9407   20.1078 C   0  0  0  0  0  0
  -22.7504  -29.4621   22.4930 C   0  0  0  0  0  0
  -18.0296  -28.1399   22.8501 C   0  0  0  0  0  0
  -24.1490  -36.7277   23.2642 C   0  0  0  0  0  0
  -25.9661  -30.7866   21.3765 C   0  0  0  0  0  0
  -26.0387  -29.4144   20.7154 C   0  0  0  0  0  0
  -27.2201  -28.6115   20.7077 C   0  0  0  0  0  0
  -26.0313  -26.8968   19.4754 C   0  0  0  0  0  0
  -24.8674  -27.6861   19.4807 C   0  0  0  0  0  0
  -23.6380  -29.8209   20.1588 C   0  0  0  0  0  0
  -25.4110  -36.3074   24.0335 C   0  0  1  0  0  0
  -20.5899  -28.3689   23.1288 C   0  0  2  0  0  0
  -20.6788  -26.9409   22.5414 C   0  0  0  0  0  0
  -19.5752  -26.6381   21.5231 C   0  0  0  0  0  0
  -18.1933  -26.7943   22.1631 C   0  0  0  0  0  0
  -19.1554  -28.8858   23.2892 C   0  0  0  0  0  0
  -18.9471  -30.1471   23.8885 C   0  0  0  0  0  0
  -17.6471  -30.6591   24.0573 C   0  0  0  0  0  0
  -25.9048  -34.9446   23.5105 C   0  0  0  0  0  0
  -16.5363  -29.9096   23.6332 C   0  0  0  0  0  0
  -16.7281  -28.6518   23.0343 C   0  0  0  0  0  0
  -26.4492  -31.6595   25.0731 C   0  0  0  0  0  0
  -25.3717  -31.3763   26.1456 C   0  0  0  0  0  0
  -27.0323  -30.3005   24.6197 C   0  0  0  0  0  0
  -27.6054  -32.4332   25.7490 C   0  0  0  0  0  0
  -27.5585  -37.1787   24.8463 C   0  0  0  0  0  0
  -21.4214  -29.3043   22.3673 N   0  0  0  0  0  0
  -26.4288  -37.3769   23.9422 N   0  0  0  0  0  0
  -24.6919  -31.0608   22.0970 N   0  0  0  0  0  0
  -23.4230  -28.8163   23.3012 O   0  0  0  0  0  0
  -28.3387  -26.4508   20.1725 O   0  0  0  0  0  0
  -26.5608  -34.8921   22.4666 O   0  0  0  0  0  0
  -23.5443  -32.1381   23.7336 O   0  0  0  0  0  0
  -30.6360  -19.2822   19.8938 C   0  0  0  0  0  0
  -30.6815  -17.8543   19.9187 C   0  0  0  0  0  0
  -28.9832  -17.8664   21.6125 C   0  0  0  0  0  0
  -29.7953  -20.0534   20.7503 C   0  0  0  0  0  0
  -28.9472  -19.2969   21.6193 C   0  0  0  0  0  0
  -29.8601  -17.1045   20.7999 C   0  0  0  0  0  0
  -29.2248  -24.0040   20.4343 C   0  0  0  0  0  0
  -28.8157  -20.2050   23.9776 C   0  0  0  0  0  0
  -30.0179  -21.6148   20.8645 C   0  0  0  0  0  0
  -28.1221  -25.0025   19.9038 C   0  0  0  0  0  0
  -28.0562  -19.9663   22.6666 C   0  0  0  0  0  0
  -29.8034  -15.6460   20.9047 N   0  0  0  0  0  0
  -29.0535  -22.6416   20.3393 N   0  0  0  0  0  0
  -30.2489  -24.4699   20.9408 O   0  0  0  0  0  0
  -27.0194  -19.1765   22.9484 F   0  0  0  0  0  0
  -27.5505  -21.1151   22.2252 F   0  0  0  0  0  0
  -31.4802  -12.5004   19.1397 H   0  0  0  0  0  0
  -30.3730  -11.3779   19.8743 H   0  0  0  0  0  0
  -29.7606  -11.7539   17.4680 H   0  0  0  0  0  0
  -29.6552  -13.4741   17.7424 H   0  0  0  0  0  0
  -27.8512  -11.2982   18.8465 H   0  0  0  0  0  0
  -27.3747  -12.5995   17.7911 H   0  0  0  0  0  0
  -27.6811  -14.2518   19.5393 H   0  0  0  0  0  0
  -28.7122  -12.0186   21.3579 H   0  0  0  0  0  0
  -28.4533  -13.6623   21.8569 H   0  0  0  0  0  0
  -25.2764   -9.5692   22.4757 H   0  0  0  0  0  0
  -24.0009   -7.4634   22.7473 H   0  0  0  0  0  0
  -21.0844   -8.8759   19.8946 H   0  0  0  0  0  0
  -22.3686  -10.9670   19.6161 H   0  0  0  0  0  0
  -21.1995   -7.6150   23.9710 H   0  0  0  0  0  0
  -21.1489   -6.0530   25.9077 H   0  0  0  0  0  0
  -22.0596   -2.7608   23.2844 H   0  0  0  0  0  0
  -22.4116  -11.9858   22.4758 H   0  0  0  0  0  0
  -21.1132  -13.1248   22.2646 H   0  0  0  0  0  0
  -24.6687  -15.8465   20.5206 H   0  0  0  0  0  0
  -26.2835  -15.6241   20.0811 H   0  0  0  0  0  0
  -26.7186  -32.5424   23.1115 H   0  0  0  0  0  0
  -25.0108  -33.9717   25.0450 H   0  0  0  0  0  0
  -22.7178  -31.3051   21.4029 H   0  0  0  0  0  0
  -23.3765  -35.9590   23.3272 H   0  0  0  0  0  0
  -24.3600  -36.8904   22.2062 H   0  0  0  0  0  0
  -23.7228  -37.6465   23.6670 H   0  0  0  0  0  0
  -26.1061  -31.5522   20.6124 H   0  0  0  0  0  0
  -26.8450  -30.8292   22.0081 H   0  0  0  0  0  0
  -28.1178  -28.9701   21.1897 H   0  0  0  0  0  0
  -25.9601  -25.9438   18.9745 H   0  0  0  0  0  0
  -23.9723  -27.3167   19.0015 H   0  0  0  0  0  0
  -23.7605  -30.5992   19.4050 H   0  0  0  0  0  0
  -22.7577  -29.2528   19.8542 H   0  0  0  0  0  0
  -25.1300  -36.1904   25.0826 H   0  0  0  0  0  0
  -21.0004  -28.3242   24.1403 H   0  0  0  0  0  0
  -20.5701  -26.2293   23.3608 H   0  0  0  0  0  0
  -21.6653  -26.7438   22.1194 H   0  0  0  0  0  0
  -19.6904  -25.6294   21.1250 H   0  0  0  0  0  0
  -19.6691  -27.3199   20.6771 H   0  0  0  0  0  0
  -17.4217  -26.6704   21.4022 H   0  0  0  0  0  0
  -18.0303  -26.0102   22.9027 H   0  0  0  0  0  0
  -19.7946  -30.7311   24.2225 H   0  0  0  0  0  0
  -17.5017  -31.6263   24.5186 H   0  0  0  0  0  0
  -15.5361  -30.2988   23.7672 H   0  0  0  0  0  0
  -15.8684  -28.0845   22.7037 H   0  0  0  0  0  0
  -24.5866  -30.7150   25.7787 H   0  0  0  0  0  0
  -24.8960  -32.2953   26.4884 H   0  0  0  0  0  0
  -25.8022  -30.8928   27.0230 H   0  0  0  0  0  0
  -26.2895  -29.6768   24.1211 H   0  0  0  0  0  0
  -27.4004  -29.7259   25.4707 H   0  0  0  0  0  0
  -27.8778  -30.4296   23.9436 H   0  0  0  0  0  0
  -27.2674  -33.3663   26.2016 H   0  0  0  0  0  0
  -28.3880  -32.6823   25.0313 H   0  0  0  0  0  0
  -28.0690  -31.8480   26.5445 H   0  0  0  0  0  0
  -28.2572  -38.0120   24.7553 H   0  0  0  0  0  0
  -28.1116  -36.2649   24.6223 H   0  0  0  0  0  0
  -27.2318  -37.1346   25.8872 H   0  0  0  0  0  0
  -20.9377  -29.8775   21.6898 H   0  0  0  0  0  0
  -26.0156  -38.2828   24.1452 H   0  0  0  0  0  0
  -31.3167  -19.7986   19.2323 H   0  0  0  0  0  0
  -31.3647  -17.3440   19.2548 H   0  0  0  0  0  0
  -28.3415  -17.3299   22.2961 H   0  0  0  0  0  0
  -29.2053  -19.2664   24.3729 H   0  0  0  0  0  0
  -28.1660  -20.6404   24.7353 H   0  0  0  0  0  0
  -29.6633  -20.8752   23.8458 H   0  0  0  0  0  0
  -30.9929  -21.8351   20.4246 H   0  0  0  0  0  0
  -30.1509  -21.8369   21.9224 H   0  0  0  0  0  0
  -27.1831  -24.6720   20.3496 H   0  0  0  0  0  0
  -28.0393  -24.8586   18.8260 H   0  0  0  0  0  0
  -28.9492  -15.2965   21.3106 H   0  0  0  0  0  0
  -28.1987  -22.2979   19.9222 H   0  0  0  0  0  0
  1 25  1  0  0  0
  1 30  2  0  0  0
  1 82  1  0  0  0
  2  3  1  0  0  0
  2 25  1  0  0  0
  2 87  1  0  0  0
  2 88  1  0  0  0
  3  4  1  0  0  0
  3 89  1  0  0  0
  3 90  1  0  0  0
  4  5  1  0  0  0
  4 91  1  0  0  0
  4 92  1  0  0  0
  5  6  1  0  0  0
  5 26  1  0  0  0
  5 93  1  0  0  0
  6 25  1  0  0  0
  6 94  1  0  0  0
  6 95  1  0  0  0
  7  8  2  0  0  0
  7 26  1  0  0  0
  7 29  1  0  0  0
  8  9  1  0  0  0
  8 22  1  0  0  0
  9 10  1  0  0  0
  9 27  2  0  0  0
 10 11  2  0  0  0
 10 15  1  0  0  0
 11 12  1  0  0  0
 11 96  1  0  0  0
 12 13  2  0  0  0
 12 97  1  0  0  0
 13 14  1  0  0  0
 13 31  1  0  0  0
 14 15  2  0  0  0
 14 98  1  0  0  0
 15 99  1  0  0  0
 16 17  2  0  0  0
 16 21  1  0  0  0
 16 31  1  0  0  0
 17 18  1  0  0  0
 17100  1  0  0  0
 18 19  2  0  0  0
 18101  1  0  0  0
 19 20  1  0  0  0
 19 24  1  0  0  0
 20 21  2  0  0  0
 20102  1  0  0  0
 21 23  1  0  0  0
 22 28  1  0  0  0
 22 32  2  0  0  0
 26 27  1  0  0  0
 28103  1  0  0  0
 28104  1  0  0  0
 29105  1  0  0  0
 29106  1  0  0  0
 33 34  1  0  0  0
 33 66  1  0  0  0
 33 70  2  0  0  0
 34 36  1  0  0  0
 34 59  1  0  0  0
 34107  1  0  0  0
 35 44  2  0  0  0
 35 45  1  0  0  0
 35 68  1  0  0  0
 36 56  1  0  0  0
 36108  1  0  0  0
 37 39  1  0  0  0
 37 47  1  0  0  0
 37 66  1  0  0  0
 37109  1  0  0  0
 38 43  2  0  0  0
 38 46  1  0  0  0
 38 47  1  0  0  0
 39 64  1  0  0  0
 39 67  2  0  0  0
 40 52  1  0  0  0
 40 53  2  0  0  0
 40 58  1  0  0  0
 41110  1  0  0  0
 41111  1  0  0  0
 41112  1  0  0  0
 41 48  1  0  0  0
 42 43  1  0  0  0
 42 66  1  0  0  0
 42113  1  0  0  0
 42114  1  0  0  0
 43 44  1  0  0  0
 44115  1  0  0  0
 45 46  2  0  0  0
 45116  1  0  0  0
 46117  1  0  0  0
 47118  1  0  0  0
 47119  1  0  0  0
 48 56  1  0  0  0
 48 65  1  0  0  0
 48120  1  0  0  0
 49 50  1  0  0  0
 49 53  1  0  0  0
 49 64  1  0  0  0
 49121  1  0  0  0
 50 51  1  0  0  0
 50122  1  0  0  0
 50123  1  0  0  0
 51 52  1  0  0  0
 51124  1  0  0  0
 51125  1  0  0  0
 52126  1  0  0  0
 52127  1  0  0  0
 53 54  1  0  0  0
 54 55  2  0  0  0
 54128  1  0  0  0
 55 57  1  0  0  0
 55129  1  0  0  0
 56 69  2  0  0  0
 57 58  2  0  0  0
 57130  1  0  0  0
 58131  1  0  0  0
 59 60  1  0  0  0
 59 61  1  0  0  0
 59 62  1  0  0  0
 60132  1  0  0  0
 60133  1  0  0  0
 60134  1  0  0  0
 61135  1  0  0  0
 61136  1  0  0  0
 61137  1  0  0  0
 62138  1  0  0  0
 62139  1  0  0  0
 62140  1  0  0  0
 63 65  1  0  0  0
 63141  1  0  0  0
 63142  1  0  0  0
 63143  1  0  0  0
 64144  1  0  0  0
 65145  1  0  0  0
 68 80  1  0  0  0
 71 72  2  0  0  0
 71 74  1  0  0  0
 71146  1  0  0  0
 72 76  1  0  0  0
 72147  1  0  0  0
 73 75  1  0  0  0
 73 76  2  0  0  0
 73148  1  0  0  0
 74 75  2  0  0  0
 74 79  1  0  0  0
 75 81  1  0  0  0
 76 82  1  0  0  0
 77 80  1  0  0  0
 77 83  1  0  0  0
 77 84  2  0  0  0
 78149  1  0  0  0
 78150  1  0  0  0
 78151  1  0  0  0
 78 81  1  0  0  0
 79 83  1  0  0  0
 79152  1  0  0  0
 79153  1  0  0  0
 80154  1  0  0  0
 80155  1  0  0  0
 81 85  1  0  0  0
 81 86  1  0  0  0
 82156  1  0  0  0
 83157  1  0  0  0
M  ISO  4   1 100  68 101  80 101  82 100
M  END
> <chiral flag>
0

> <version>
0

> <s_m_source_file>
/data/baiqing/PycharmProjects/Reinvent-master-3.2/result/LINK_invent/BTK/process_docking_weight1_custom_product_contain_oxygen_bond_distance_aromatic_linkinvent_7_9_3/rearranged_h_0042.sdf

> <i_m_source_file_index>
50

> <r_mmod_Potential_Energy-OPLS-2005>
-27.9956741333008

> <r_mmod_Stretch_Energy-OPLS-2005>
81.9717254638672

> <r_mmod_Bend_Energy-OPLS-2005>
144.119979858398

> <r_mmod_Torsional_Energy-OPLS-2005>
218.114151000977

> <r_mmod_Improper_Torsional_Energy-OPLS-2005>
4.9656457901001

> <r_mmod_Van_der_Waal_Energy-OPLS-2005>
149.663711547852

> <r_mmod_Electrostatic_Energy-OPLS-2005>
-437.915222167969

> <r_mmod_Solvation_Energy-OPLS-2005>
-237.662719726562

> <b_mmod_Minimization_Converged-OPLS-2005>
0

> <r_mmod_RMS_Derivative-OPLS-2005>
2.40177178382874

$$$$
50
                    3D
 Structure written by MMmdl.
154162  0  0  1  0            999 V2000
  -30.6414  -14.7540   20.5112 C   0  0  0  0  0  0
  -30.4409  -12.4783   19.4674 C   0  0  0  0  0  0
  -29.5140  -12.5303   18.2344 C   0  0  0  0  0  0
  -28.0450  -12.3436   18.6523 C   0  0  0  0  0  0
  -27.6493  -13.2348   19.8588 C   0  0  2  0  0  0
  -28.6986  -13.1767   20.9929 C   0  0  0  0  0  0
  -25.2556  -13.8198   20.5721 C   0  0  0  0  0  0
  -24.1855  -13.0422   20.9208 C   0  0  0  0  0  0
  -24.6437  -11.6899   20.8723 C   0  0  0  0  0  0
  -23.9094  -10.4277   21.0394 C   0  0  0  0  0  0
  -24.3633   -9.4205   21.9189 C   0  0  0  0  0  0
  -23.6307   -8.2247   22.0757 C   0  0  0  0  0  0
  -22.4298   -8.0280   21.3537 C   0  0  0  0  0  0
  -21.9919   -9.0261   20.4655 C   0  0  0  0  0  0
  -22.7243  -10.2138   20.3063 C   0  0  0  0  0  0
  -21.6879   -6.0741   22.5271 C   0  0  0  0  0  0
  -21.4015   -6.5644   23.8199 C   0  0  0  0  0  0
  -21.3660   -5.6803   24.9159 C   0  0  0  0  0  0
  -21.6044   -4.3067   24.7220 C   0  0  0  0  0  0
  -21.8819   -3.8153   23.4347 C   0  0  0  0  0  0
  -21.9201   -4.6966   22.3397 C   0  0  0  0  0  0
  -22.7879  -13.5217   21.1874 C   0  0  0  0  0  0
  -22.1676   -4.2161   21.0974 F   0  0  0  0  0  0
  -21.5633   -3.4541   25.7735 F   0  0  0  0  0  0
  -29.9964  -13.5367   20.4068 N   0  0  0  0  0  0
  -26.2993  -12.9407   20.3331 N   0  0  0  0  0  0
  -25.9366  -11.6544   20.5739 N   0  0  0  0  0  0
  -22.0533  -12.8194   22.0410 N   0  0  0  0  0  0
  -25.4180  -15.1932   20.4132 N   0  0  0  0  0  0
  -31.8290  -14.8374   20.1856 O   0  0  0  0  0  0
  -21.6656   -6.8880   21.4238 O   0  0  0  0  0  0
  -22.3550  -14.5533   20.6751 O   0  0  0  0  0  0
  -24.6310  -31.8489   23.2006 C   0  0  0  0  0  0
  -25.9147  -32.4703   23.8317 C   0  0  1  0  0  0
  -27.2253  -27.2545   20.1630 C   0  0  0  0  0  0
  -25.5945  -33.8506   24.2242 N   0  0  0  0  0  0
  -23.4269  -30.4778   21.5365 C   0  0  2  0  0  0
  -24.8801  -28.9229   20.1080 C   0  0  0  0  0  0
  -22.7489  -29.4590   22.4838 C   0  0  0  0  0  0
  -18.0295  -28.1382   22.8464 C   0  0  0  0  0  0
  -24.1469  -36.7283   23.2650 C   0  0  0  0  0  0
  -25.9698  -30.7692   21.3774 C   0  0  0  0  0  0
  -26.0473  -29.3925   20.7216 C   0  0  0  0  0  0
  -27.2229  -28.5733   20.7341 C   0  0  0  0  0  0
  -26.0400  -26.8554   19.5064 C   0  0  0  0  0  0
  -24.8845  -27.6660   19.4825 C   0  0  0  0  0  0
  -23.6496  -29.8123   20.1514 C   0  0  0  0  0  0
  -25.4090  -36.3036   24.0334 C   0  0  1  0  0  0
  -20.5910  -28.3695   23.1237 C   0  0  2  0  0  0
  -20.6774  -26.9409   22.5396 C   0  0  0  0  0  0
  -19.5747  -26.6374   21.5204 C   0  0  0  0  0  0
  -18.1930  -26.7917   22.1621 C   0  0  0  0  0  0
  -19.1558  -28.8848   23.2838 C   0  0  0  0  0  0
  -18.9493  -30.1453   23.8865 C   0  0  0  0  0  0
  -17.6502  -30.6586   24.0555 C   0  0  0  0  0  0
  -25.9059  -34.9408   23.5096 C   0  0  0  0  0  0
  -16.5382  -29.9098   23.6338 C   0  0  0  0  0  0
  -16.7288  -28.6515   23.0352 C   0  0  0  0  0  0
  -26.4541  -31.6539   25.0720 C   0  0  0  0  0  0
  -25.3744  -31.3731   26.1431 C   0  0  0  0  0  0
  -27.0403  -30.2958   24.6234 C   0  0  0  0  0  0
  -27.6059  -32.4339   25.7489 C   0  0  0  0  0  0
  -27.5555  -37.1776   24.8476 C   0  0  0  0  0  0
  -21.4201  -29.3040   22.3604 N   0  0  0  0  0  0
  -26.4263  -37.3747   23.9434 N   0  0  0  0  0  0
  -24.6935  -31.0496   22.0958 N   0  0  0  0  0  0
  -23.4190  -28.8108   23.2918 O   0  0  0  0  0  0
  -28.3337  -26.3743   20.2002 O   0  0  0  0  0  0
  -26.5628  -34.8897   22.4663 O   0  0  0  0  0  0
  -23.5465  -32.1333   23.7314 O   0  0  0  0  0  0
  -31.6224  -18.8122   22.4645 C   0  0  0  0  0  0
  -31.2714  -17.5151   22.0356 C   0  0  0  0  0  0
  -29.6839  -18.5221   20.5001 C   0  0  0  0  0  0
  -30.0394  -19.8886   20.8956 C   0  0  0  0  0  0
  -31.0414  -19.9853   21.9161 C   0  0  0  0  0  0
  -30.2887  -17.3091   21.0435 C   0  0  0  0  0  0
  -29.5056  -21.1578   20.1383 C   0  0  0  0  0  0
  -31.5747  -21.3162   22.4467 C   0  0  0  0  0  0
  -29.1567  -23.7709   20.0597 C   0  0  0  0  0  0
  -28.1526  -24.9272   20.5993 C   0  0  0  0  0  0
  -29.8864  -15.9034   20.7355 N   0  0  0  0  0  0
  -29.2695  -22.3905   20.7373 N   0  0  0  0  0  0
  -29.3200  -21.0433   18.9230 O   0  0  0  0  0  0
  -31.4813  -12.6113   19.1641 H   0  0  0  0  0  0
  -30.3929  -11.4976   19.9443 H   0  0  0  0  0  0
  -29.7938  -11.7606   17.5139 H   0  0  0  0  0  0
  -29.6389  -13.4903   17.7286 H   0  0  0  0  0  0
  -27.9118  -11.2944   18.9136 H   0  0  0  0  0  0
  -27.3840  -12.5346   17.8076 H   0  0  0  0  0  0
  -27.6391  -14.2566   19.4807 H   0  0  0  0  0  0
  -28.7432  -12.1830   21.4443 H   0  0  0  0  0  0
  -28.4334  -13.8674   21.7965 H   0  0  0  0  0  0
  -25.2773   -9.5712   22.4756 H   0  0  0  0  0  0
  -24.0045   -7.4641   22.7464 H   0  0  0  0  0  0
  -21.0853   -8.8753   19.8955 H   0  0  0  0  0  0
  -22.3684  -10.9678   19.6186 H   0  0  0  0  0  0
  -21.1994   -7.6150   23.9703 H   0  0  0  0  0  0
  -21.1490   -6.0533   25.9065 H   0  0  0  0  0  0
  -22.0601   -2.7621   23.2828 H   0  0  0  0  0  0
  -22.4192  -11.9882   22.4809 H   0  0  0  0  0  0
  -21.1137  -13.1192   22.2583 H   0  0  0  0  0  0
  -24.6447  -15.8362   20.5366 H   0  0  0  0  0  0
  -26.2492  -15.6407   20.0496 H   0  0  0  0  0  0
  -26.7170  -32.5327   23.1008 H   0  0  0  0  0  0
  -25.0048  -33.9623   25.0353 H   0  0  0  0  0  0
  -22.7228  -31.3002   21.3873 H   0  0  0  0  0  0
  -23.3725  -35.9623   23.3333 H   0  0  0  0  0  0
  -24.3547  -36.8894   22.2063 H   0  0  0  0  0  0
  -23.7247  -37.6494   23.6664 H   0  0  0  0  0  0
  -26.1063  -31.5327   20.6108 H   0  0  0  0  0  0
  -26.8477  -30.8162   22.0106 H   0  0  0  0  0  0
  -28.1131  -28.9362   21.2290 H   0  0  0  0  0  0
  -25.9842  -25.8952   19.0105 H   0  0  0  0  0  0
  -23.9956  -27.3082   18.9842 H   0  0  0  0  0  0
  -23.7774  -30.5907   19.3989 H   0  0  0  0  0  0
  -22.7665  -29.2476   19.8435 H   0  0  0  0  0  0
  -25.1247  -36.1868   25.0820 H   0  0  0  0  0  0
  -20.9990  -28.3291   24.1358 H   0  0  0  0  0  0
  -20.5655  -26.2306   23.3611 H   0  0  0  0  0  0
  -21.6640  -26.7398   22.1189 H   0  0  0  0  0  0
  -19.6939  -25.6282   21.1240 H   0  0  0  0  0  0
  -19.6717  -27.3159   20.6711 H   0  0  0  0  0  0
  -17.4194  -26.6667   21.4025 H   0  0  0  0  0  0
  -18.0349  -26.0052   22.9006 H   0  0  0  0  0  0
  -19.7983  -30.7260   24.2213 H   0  0  0  0  0  0
  -17.5081  -31.6267   24.5160 H   0  0  0  0  0  0
  -15.5392  -30.3001   23.7688 H   0  0  0  0  0  0
  -15.8681  -28.0840   22.7079 H   0  0  0  0  0  0
  -24.5919  -30.7075   25.7785 H   0  0  0  0  0  0
  -24.8944  -32.2916   26.4820 H   0  0  0  0  0  0
  -25.8050  -30.8941   27.0244 H   0  0  0  0  0  0
  -26.3009  -29.6662   24.1274 H   0  0  0  0  0  0
  -27.4098  -29.7266   25.4778 H   0  0  0  0  0  0
  -27.8865  -30.4227   23.9474 H   0  0  0  0  0  0
  -27.2637  -33.3654   26.2028 H   0  0  0  0  0  0
  -28.3889  -32.6900   25.0326 H   0  0  0  0  0  0
  -28.0716  -31.8504   26.5452 H   0  0  0  0  0  0
  -28.2550  -38.0084   24.7478 H   0  0  0  0  0  0
  -28.1059  -36.2604   24.6316 H   0  0  0  0  0  0
  -27.2283  -37.1452   25.8883 H   0  0  0  0  0  0
  -20.9397  -29.8798   21.6843 H   0  0  0  0  0  0
  -26.0144  -38.2809   24.1473 H   0  0  0  0  0  0
  -32.3738  -18.9021   23.2394 H   0  0  0  0  0  0
  -31.7460  -16.6670   22.5105 H   0  0  0  0  0  0
  -28.9337  -18.4099   19.7271 H   0  0  0  0  0  0
  -30.8786  -21.7709   23.1509 H   0  0  0  0  0  0
  -31.7796  -22.0278   21.6453 H   0  0  0  0  0  0
  -32.5132  -21.1720   22.9856 H   0  0  0  0  0  0
  -30.1630  -24.1920   20.0905 H   0  0  0  0  0  0
  -28.9426  -23.6310   18.9995 H   0  0  0  0  0  0
  -28.1881  -24.9057   21.6884 H   0  0  0  0  0  0
  -27.1444  -24.5947   20.3605 H   0  0  0  0  0  0
  -28.8922  -15.7360   20.7833 H   0  0  0  0  0  0
  -29.3744  -22.4059   21.7431 H   0  0  0  0  0  0
  1 25  1  0  0  0
  1 30  2  0  0  0
  1 81  1  0  0  0
  2  3  1  0  0  0
  2 25  1  0  0  0
  2 84  1  0  0  0
  2 85  1  0  0  0
  3  4  1  0  0  0
  3 86  1  0  0  0
  3 87  1  0  0  0
  4  5  1  0  0  0
  4 88  1  0  0  0
  4 89  1  0  0  0
  5  6  1  0  0  0
  5 26  1  0  0  0
  5 90  1  0  0  0
  6 25  1  0  0  0
  6 91  1  0  0  0
  6 92  1  0  0  0
  7  8  2  0  0  0
  7 26  1  0  0  0
  7 29  1  0  0  0
  8  9  1  0  0  0
  8 22  1  0  0  0
  9 10  1  0  0  0
  9 27  2  0  0  0
 10 11  2  0  0  0
 10 15  1  0  0  0
 11 12  1  0  0  0
 11 93  1  0  0  0
 12 13  2  0  0  0
 12 94  1  0  0  0
 13 14  1  0  0  0
 13 31  1  0  0  0
 14 15  2  0  0  0
 14 95  1  0  0  0
 15 96  1  0  0  0
 16 17  2  0  0  0
 16 21  1  0  0  0
 16 31  1  0  0  0
 17 18  1  0  0  0
 17 97  1  0  0  0
 18 19  2  0  0  0
 18 98  1  0  0  0
 19 20  1  0  0  0
 19 24  1  0  0  0
 20 21  2  0  0  0
 20 99  1  0  0  0
 21 23  1  0  0  0
 22 28  1  0  0  0
 22 32  2  0  0  0
 26 27  1  0  0  0
 28100  1  0  0  0
 28101  1  0  0  0
 29102  1  0  0  0
 29103  1  0  0  0
 33 34  1  0  0  0
 33 66  1  0  0  0
 33 70  2  0  0  0
 34 36  1  0  0  0
 34 59  1  0  0  0
 34104  1  0  0  0
 35 44  2  0  0  0
 35 45  1  0  0  0
 35 68  1  0  0  0
 36 56  1  0  0  0
 36105  1  0  0  0
 37 39  1  0  0  0
 37 47  1  0  0  0
 37 66  1  0  0  0
 37106  1  0  0  0
 38 43  2  0  0  0
 38 46  1  0  0  0
 38 47  1  0  0  0
 39 64  1  0  0  0
 39 67  2  0  0  0
 40 52  1  0  0  0
 40 53  2  0  0  0
 40 58  1  0  0  0
 41107  1  0  0  0
 41108  1  0  0  0
 41109  1  0  0  0
 41 48  1  0  0  0
 42 43  1  0  0  0
 42 66  1  0  0  0
 42110  1  0  0  0
 42111  1  0  0  0
 43 44  1  0  0  0
 44112  1  0  0  0
 45 46  2  0  0  0
 45113  1  0  0  0
 46114  1  0  0  0
 47115  1  0  0  0
 47116  1  0  0  0
 48 56  1  0  0  0
 48 65  1  0  0  0
 48117  1  0  0  0
 49 50  1  0  0  0
 49 53  1  0  0  0
 49 64  1  0  0  0
 49118  1  0  0  0
 50 51  1  0  0  0
 50119  1  0  0  0
 50120  1  0  0  0
 51 52  1  0  0  0
 51121  1  0  0  0
 51122  1  0  0  0
 52123  1  0  0  0
 52124  1  0  0  0
 53 54  1  0  0  0
 54 55  2  0  0  0
 54125  1  0  0  0
 55 57  1  0  0  0
 55126  1  0  0  0
 56 69  2  0  0  0
 57 58  2  0  0  0
 57127  1  0  0  0
 58128  1  0  0  0
 59 60  1  0  0  0
 59 61  1  0  0  0
 59 62  1  0  0  0
 60129  1  0  0  0
 60130  1  0  0  0
 60131  1  0  0  0
 61132  1  0  0  0
 61133  1  0  0  0
 61134  1  0  0  0
 62135  1  0  0  0
 62136  1  0  0  0
 62137  1  0  0  0
 63 65  1  0  0  0
 63138  1  0  0  0
 63139  1  0  0  0
 63140  1  0  0  0
 64141  1  0  0  0
 65142  1  0  0  0
 68 80  1  0  0  0
 71 72  2  0  0  0
 71 75  1  0  0  0
 71143  1  0  0  0
 72 76  1  0  0  0
 72144  1  0  0  0
 73 74  1  0  0  0
 73 76  2  0  0  0
 73145  1  0  0  0
 74 75  2  0  0  0
 74 77  1  0  0  0
 75 78  1  0  0  0
 76 81  1  0  0  0
 77 82  1  0  0  0
 77 83  2  0  0  0
 78146  1  0  0  0
 78147  1  0  0  0
 78148  1  0  0  0
 79 80  1  0  0  0
 79 82  1  0  0  0
 79149  1  0  0  0
 79150  1  0  0  0
 80151  1  0  0  0
 80152  1  0  0  0
 81153  1  0  0  0
 82154  1  0  0  0
M  ISO  4   1 100  68 101  80 101  81 100
M  END
> <chiral flag>
0

> <version>
0

> <s_m_source_file>
/data/baiqing/PycharmProjects/Reinvent-master-3.2/result/LINK_invent/BTK/process_docking_weight1_custom_product_contain_oxygen_bond_distance_aromatic_linkinvent_7_9_3/rearranged_h_0042.sdf

> <i_m_source_file_index>
51

> <r_mmod_Potential_Energy-OPLS-2005>
127.453147888184

> <r_mmod_Stretch_Energy-OPLS-2005>
136.760192871094

> <r_mmod_Bend_Energy-OPLS-2005>
166.690521240234

> <r_mmod_Torsional_Energy-OPLS-2005>
256.577423095703

> <r_mmod_Improper_Torsional_Energy-OPLS-2005>
7.30554676055908

> <r_mmod_Van_der_Waal_Energy-OPLS-2005>
139.038635253906

> <r_mmod_Electrostatic_Energy-OPLS-2005>
-429.082214355469

> <r_mmod_Solvation_Energy-OPLS-2005>
-236.640396118164

> <b_mmod_Minimization_Converged-OPLS-2005>
0

> <r_mmod_RMS_Derivative-OPLS-2005>
4.89915037155151

$$$$
51
                    3D
 Structure written by MMmdl.
159167  0  0  1  0            999 V2000
  -30.6663  -14.5507   20.5409 C   0  0  0  0  0  0
  -30.4382  -12.3505   19.4286 C   0  0  0  0  0  0
  -29.5007  -12.5096   18.2137 C   0  0  0  0  0  0
  -28.0239  -12.3584   18.6328 C   0  0  0  0  0  0
  -27.6551  -13.2193   19.8701 C   0  0  2  0  0  0
  -28.7042  -13.0180   20.9889 C   0  0  0  0  0  0
  -25.2437  -13.8118   20.5490 C   0  0  0  0  0  0
  -24.1776  -13.0398   20.9144 C   0  0  0  0  0  0
  -24.6404  -11.6894   20.8779 C   0  0  0  0  0  0
  -23.9074  -10.4289   21.0440 C   0  0  0  0  0  0
  -24.3625   -9.4202   21.9214 C   0  0  0  0  0  0
  -23.6305   -8.2235   22.0744 C   0  0  0  0  0  0
  -22.4279   -8.0272   21.3542 C   0  0  0  0  0  0
  -21.9947   -9.0241   20.4632 C   0  0  0  0  0  0
  -22.7258  -10.2127   20.3068 C   0  0  0  0  0  0
  -21.6837   -6.0741   22.5281 C   0  0  0  0  0  0
  -21.3986   -6.5634   23.8217 C   0  0  0  0  0  0
  -21.3681   -5.6773   24.9183 C   0  0  0  0  0  0
  -21.6056   -4.3042   24.7232 C   0  0  0  0  0  0
  -21.8821   -3.8132   23.4358 C   0  0  0  0  0  0
  -21.9174   -4.6956   22.3411 C   0  0  0  0  0  0
  -22.7795  -13.5184   21.1863 C   0  0  0  0  0  0
  -22.1652   -4.2149   21.0990 F   0  0  0  0  0  0
  -21.5687   -3.4537   25.7759 F   0  0  0  0  0  0
  -30.0262  -13.3515   20.4293 N   0  0  0  0  0  0
  -26.2978  -12.9373   20.3360 N   0  0  0  0  0  0
  -25.9331  -11.6535   20.5822 N   0  0  0  0  0  0
  -22.0417  -12.8150   22.0374 N   0  0  0  0  0  0
  -25.3915  -15.1806   20.3566 N   0  0  0  0  0  0
  -31.8167  -14.7194   20.1283 O   0  0  0  0  0  0
  -21.6617   -6.8892   21.4237 O   0  0  0  0  0  0
  -22.3479  -14.5525   20.6761 O   0  0  0  0  0  0
  -24.6179  -31.8648   23.2051 C   0  0  0  0  0  0
  -25.9073  -32.4810   23.8366 C   0  0  1  0  0  0
  -27.2203  -27.3740   20.1071 C   0  0  0  0  0  0
  -25.5913  -33.8625   24.2293 N   0  0  0  0  0  0
  -23.4074  -30.4925   21.5407 C   0  0  2  0  0  0
  -24.8548  -28.9452   20.1162 C   0  0  0  0  0  0
  -22.7401  -29.4685   22.4886 C   0  0  0  0  0  0
  -18.0269  -28.1318   22.8407 C   0  0  0  0  0  0
  -24.1503  -36.7292   23.2639 C   0  0  0  0  0  0
  -25.9454  -30.8135   21.3710 C   0  0  0  0  0  0
  -26.0185  -29.4419   20.7162 C   0  0  0  0  0  0
  -27.2042  -28.6631   20.7067 C   0  0  0  0  0  0
  -26.0392  -26.9074   19.4931 C   0  0  0  0  0  0
  -24.8601  -27.6786   19.5062 C   0  0  0  0  0  0
  -23.6251  -29.8280   20.1570 C   0  0  0  0  0  0
  -25.4127  -36.3091   24.0331 C   0  0  1  0  0  0
  -20.5877  -28.3593   23.1165 C   0  0  2  0  0  0
  -20.6791  -26.9350   22.5211 C   0  0  0  0  0  0
  -19.5706  -26.6274   21.5082 C   0  0  0  0  0  0
  -18.1937  -26.7867   22.1562 C   0  0  0  0  0  0
  -19.1524  -28.8740   23.2872 C   0  0  0  0  0  0
  -18.9412  -30.1263   23.9041 C   0  0  0  0  0  0
  -17.6403  -30.6374   24.0704 C   0  0  0  0  0  0
  -25.9055  -34.9476   23.5111 C   0  0  0  0  0  0
  -16.5305  -29.8959   23.6313 C   0  0  0  0  0  0
  -16.7268  -28.6434   23.0216 C   0  0  0  0  0  0
  -26.4496  -31.6613   25.0715 C   0  0  0  0  0  0
  -25.3732  -31.3742   26.1433 C   0  0  0  0  0  0
  -27.0332  -30.3036   24.6175 C   0  0  0  0  0  0
  -27.6051  -32.4345   25.7489 C   0  0  0  0  0  0
  -27.5588  -37.1823   24.8464 C   0  0  0  0  0  0
  -21.4130  -29.2989   22.3562 N   0  0  0  0  0  0
  -26.4300  -37.3779   23.9406 N   0  0  0  0  0  0
  -24.6733  -31.0745   22.0944 N   0  0  0  0  0  0
  -23.4145  -28.8260   23.2976 O   0  0  0  0  0  0
  -28.3669  -26.5931   20.0897 O   0  0  0  0  0  0
  -26.5597  -34.8927   22.4664 O   0  0  0  0  0  0
  -23.5363  -32.1449   23.7400 O   0  0  0  0  0  0
  -26.9025  -18.7517   21.9475 C   0  0  0  0  0  0
  -29.4488  -19.5432   21.1015 C   0  0  0  0  0  0
  -29.1930  -18.1333   21.3291 C   0  0  0  0  0  0
  -28.4174  -20.5488   21.2519 C   0  0  0  0  0  0
  -27.9138  -17.7891   21.8467 C   0  0  0  0  0  0
  -27.1246  -20.0983   21.6257 C   0  0  0  0  0  0
  -30.8672  -19.9923   20.7645 C   0  0  0  0  0  0
  -30.3014  -17.0383   21.0858 C   0  0  0  0  0  0
  -28.6461  -22.1046   21.1970 C   0  0  0  0  0  0
  -28.2564  -24.0779   19.5155 C   0  0  0  0  0  0
  -28.2739  -25.2221   20.5898 C   0  0  0  0  0  0
  -29.9215  -15.5975   20.9769 N   0  0  0  0  0  0
  -28.8812  -22.7379   19.8648 N   0  3  0  0  0  0
  -27.5242  -16.2249   22.4661 Cl  0  0  0  0  0  0
  -25.7750  -21.1683   21.7949 Cl  0  0  0  0  0  0
  -31.4767  -12.4711   19.1190 H   0  0  0  0  0  0
  -30.3707  -11.3448   19.8464 H   0  0  0  0  0  0
  -29.7485  -11.7768   17.4445 H   0  0  0  0  0  0
  -29.6545  -13.4880   17.7540 H   0  0  0  0  0  0
  -27.8671  -11.3071   18.8669 H   0  0  0  0  0  0
  -27.3665  -12.5875   17.7937 H   0  0  0  0  0  0
  -27.6809  -14.2638   19.5564 H   0  0  0  0  0  0
  -28.6912  -11.9800   21.3288 H   0  0  0  0  0  0
  -28.4702  -13.6135   21.8693 H   0  0  0  0  0  0
  -25.2798   -9.5663   22.4779 H   0  0  0  0  0  0
  -24.0003   -7.4626   22.7476 H   0  0  0  0  0  0
  -21.0903   -8.8787   19.8939 H   0  0  0  0  0  0
  -22.3771  -10.9673   19.6157 H   0  0  0  0  0  0
  -21.1948   -7.6129   23.9729 H   0  0  0  0  0  0
  -21.1515   -6.0504   25.9092 H   0  0  0  0  0  0
  -22.0576   -2.7587   23.2843 H   0  0  0  0  0  0
  -22.4004  -11.9805   22.4780 H   0  0  0  0  0  0
  -21.1020  -13.1138   22.2611 H   0  0  0  0  0  0
  -24.6158  -15.8146   20.4921 H   0  0  0  0  0  0
  -26.2502  -15.6427   20.0864 H   0  0  0  0  0  0
  -26.7118  -32.5509   23.1097 H   0  0  0  0  0  0
  -25.0119  -33.9811   25.0477 H   0  0  0  0  0  0
  -22.6964  -31.3078   21.3990 H   0  0  0  0  0  0
  -23.3767  -35.9620   23.3315 H   0  0  0  0  0  0
  -24.3576  -36.8918   22.2047 H   0  0  0  0  0  0
  -23.7279  -37.6516   23.6645 H   0  0  0  0  0  0
  -26.0811  -31.5876   20.6130 H   0  0  0  0  0  0
  -26.8251  -30.8523   22.0043 H   0  0  0  0  0  0
  -28.0959  -29.0408   21.1871 H   0  0  0  0  0  0
  -26.0258  -25.9471   18.9965 H   0  0  0  0  0  0
  -23.9607  -27.2976   19.0409 H   0  0  0  0  0  0
  -23.7561  -30.6040   19.4007 H   0  0  0  0  0  0
  -22.7457  -29.2617   19.8442 H   0  0  0  0  0  0
  -25.1323  -36.1942   25.0820 H   0  0  0  0  0  0
  -21.0098  -28.3048   24.1206 H   0  0  0  0  0  0
  -20.5835  -26.2149   23.3332 H   0  0  0  0  0  0
  -21.6598  -26.7485   22.0839 H   0  0  0  0  0  0
  -19.6811  -25.6151   21.1149 H   0  0  0  0  0  0
  -19.6619  -27.2997   20.6545 H   0  0  0  0  0  0
  -17.4160  -26.6558   21.4047 H   0  0  0  0  0  0
  -18.0342  -26.0044   22.8974 H   0  0  0  0  0  0
  -19.7823  -30.7017   24.2681 H   0  0  0  0  0  0
  -17.4921  -31.5957   24.5473 H   0  0  0  0  0  0
  -15.5265  -30.2805   23.7598 H   0  0  0  0  0  0
  -15.8757  -28.0674   22.6784 H   0  0  0  0  0  0
  -24.5891  -30.7125   25.7752 H   0  0  0  0  0  0
  -24.8927  -32.2894   26.4880 H   0  0  0  0  0  0
  -25.8048  -30.8891   27.0188 H   0  0  0  0  0  0
  -26.2902  -29.6781   24.1208 H   0  0  0  0  0  0
  -27.4027  -29.7324   25.4703 H   0  0  0  0  0  0
  -27.8767  -30.4319   23.9392 H   0  0  0  0  0  0
  -27.2658  -33.3635   26.2081 H   0  0  0  0  0  0
  -28.3849  -32.6942   25.0318 H   0  0  0  0  0  0
  -28.0705  -31.8451   26.5404 H   0  0  0  0  0  0
  -28.2616  -38.0110   24.7488 H   0  0  0  0  0  0
  -28.1079  -36.2646   24.6312 H   0  0  0  0  0  0
  -27.2276  -37.1495   25.8857 H   0  0  0  0  0  0
  -20.9317  -29.8475   21.6580 H   0  0  0  0  0  0
  -26.0187  -38.2860   24.1400 H   0  0  0  0  0  0
  -25.9302  -18.4600   22.3166 H   0  0  0  0  0  0
  -31.6133  -19.3553   21.2406 H   0  0  0  0  0  0
  -31.0899  -20.9925   21.1366 H   0  0  0  0  0  0
  -31.0444  -19.9816   19.6884 H   0  0  0  0  0  0
  -30.8248  -17.3135   20.1695 H   0  0  0  0  0  0
  -31.0427  -17.1082   21.8865 H   0  0  0  0  0  0
  -29.4910  -22.3522   21.8368 H   0  0  0  0  0  0
  -27.8182  -22.6287   21.6720 H   0  0  0  0  0  0
  -28.8068  -24.4331   18.6417 H   0  0  0  0  0  0
  -27.2335  -23.9178   19.1704 H   0  0  0  0  0  0
  -29.1337  -25.0807   21.2475 H   0  0  0  0  0  0
  -27.3968  -25.1055   21.2319 H   0  0  0  0  0  0
  -28.9840  -15.3731   21.2832 H   0  0  0  0  0  0
  -28.6142  -22.0806   19.1499 H   0  0  0  0  0  0
  -29.8830  -22.8434   19.7850 H   0  0  0  0  0  0
  1 25  1  0  0  0
  1 30  2  0  0  0
  1 82  1  0  0  0
  2  3  1  0  0  0
  2 25  1  0  0  0
  2 86  1  0  0  0
  2 87  1  0  0  0
  3  4  1  0  0  0
  3 88  1  0  0  0
  3 89  1  0  0  0
  4  5  1  0  0  0
  4 90  1  0  0  0
  4 91  1  0  0  0
  5  6  1  0  0  0
  5 26  1  0  0  0
  5 92  1  0  0  0
  6 25  1  0  0  0
  6 93  1  0  0  0
  6 94  1  0  0  0
  7  8  2  0  0  0
  7 26  1  0  0  0
  7 29  1  0  0  0
  8  9  1  0  0  0
  8 22  1  0  0  0
  9 10  1  0  0  0
  9 27  2  0  0  0
 10 11  2  0  0  0
 10 15  1  0  0  0
 11 12  1  0  0  0
 11 95  1  0  0  0
 12 13  2  0  0  0
 12 96  1  0  0  0
 13 14  1  0  0  0
 13 31  1  0  0  0
 14 15  2  0  0  0
 14 97  1  0  0  0
 15 98  1  0  0  0
 16 17  2  0  0  0
 16 21  1  0  0  0
 16 31  1  0  0  0
 17 18  1  0  0  0
 17 99  1  0  0  0
 18 19  2  0  0  0
 18100  1  0  0  0
 19 20  1  0  0  0
 19 24  1  0  0  0
 20 21  2  0  0  0
 20101  1  0  0  0
 21 23  1  0  0  0
 22 28  1  0  0  0
 22 32  2  0  0  0
 26 27  1  0  0  0
 28102  1  0  0  0
 28103  1  0  0  0
 29104  1  0  0  0
 29105  1  0  0  0
 33 34  1  0  0  0
 33 66  1  0  0  0
 33 70  2  0  0  0
 34 36  1  0  0  0
 34 59  1  0  0  0
 34106  1  0  0  0
 35 44  2  0  0  0
 35 45  1  0  0  0
 35 68  1  0  0  0
 36 56  1  0  0  0
 36107  1  0  0  0
 37 39  1  0  0  0
 37 47  1  0  0  0
 37 66  1  0  0  0
 37108  1  0  0  0
 38 43  2  0  0  0
 38 46  1  0  0  0
 38 47  1  0  0  0
 39 64  1  0  0  0
 39 67  2  0  0  0
 40 52  1  0  0  0
 40 53  2  0  0  0
 40 58  1  0  0  0
 41109  1  0  0  0
 41110  1  0  0  0
 41111  1  0  0  0
 41 48  1  0  0  0
 42 43  1  0  0  0
 42 66  1  0  0  0
 42112  1  0  0  0
 42113  1  0  0  0
 43 44  1  0  0  0
 44114  1  0  0  0
 45 46  2  0  0  0
 45115  1  0  0  0
 46116  1  0  0  0
 47117  1  0  0  0
 47118  1  0  0  0
 48 56  1  0  0  0
 48 65  1  0  0  0
 48119  1  0  0  0
 49 50  1  0  0  0
 49 53  1  0  0  0
 49 64  1  0  0  0
 49120  1  0  0  0
 50 51  1  0  0  0
 50121  1  0  0  0
 50122  1  0  0  0
 51 52  1  0  0  0
 51123  1  0  0  0
 51124  1  0  0  0
 52125  1  0  0  0
 52126  1  0  0  0
 53 54  1  0  0  0
 54 55  2  0  0  0
 54127  1  0  0  0
 55 57  1  0  0  0
 55128  1  0  0  0
 56 69  2  0  0  0
 57 58  2  0  0  0
 57129  1  0  0  0
 58130  1  0  0  0
 59 60  1  0  0  0
 59 61  1  0  0  0
 59 62  1  0  0  0
 60131  1  0  0  0
 60132  1  0  0  0
 60133  1  0  0  0
 61134  1  0  0  0
 61135  1  0  0  0
 61136  1  0  0  0
 62137  1  0  0  0
 62138  1  0  0  0
 62139  1  0  0  0
 63 65  1  0  0  0
 63140  1  0  0  0
 63141  1  0  0  0
 63142  1  0  0  0
 64143  1  0  0  0
 65144  1  0  0  0
 68 81  1  0  0  0
 71 75  2  0  0  0
 71 76  1  0  0  0
 71145  1  0  0  0
 72 73  2  0  0  0
 72 74  1  0  0  0
 72 77  1  0  0  0
 73 75  1  0  0  0
 73 78  1  0  0  0
 74 76  2  0  0  0
 74 79  1  0  0  0
 75 84  1  0  0  0
 76 85  1  0  0  0
 77146  1  0  0  0
 77147  1  0  0  0
 77148  1  0  0  0
 78 82  1  0  0  0
 78149  1  0  0  0
 78150  1  0  0  0
 79 83  1  0  0  0
 79151  1  0  0  0
 79152  1  0  0  0
 80 81  1  0  0  0
 80 83  1  0  0  0
 80153  1  0  0  0
 80154  1  0  0  0
 81155  1  0  0  0
 81156  1  0  0  0
 82157  1  0  0  0
 83158  1  0  0  0
 83159  1  0  0  0
M  CHG  1  83   1
M  ISO  4   1 100  68 101  81 101  82 100
M  END
> <chiral flag>
0

> <version>
0

> <s_m_source_file>
/data/baiqing/PycharmProjects/Reinvent-master-3.2/result/LINK_invent/BTK/process_docking_weight1_custom_product_contain_oxygen_bond_distance_aromatic_linkinvent_7_9_3/rearranged_h_0042.sdf

> <i_m_source_file_index>
52

> <r_mmod_Potential_Energy-OPLS-2005>
-148.460906982422

> <r_mmod_Stretch_Energy-OPLS-2005>
69.3166885375977

> <r_mmod_Bend_Energy-OPLS-2005>
134.080764770508

> <r_mmod_Torsional_Energy-OPLS-2005>
226.60285949707

> <r_mmod_Improper_Torsional_Energy-OPLS-2005>
4.49071788787842

> <r_mmod_Van_der_Waal_Energy-OPLS-2005>
151.124359130859

> <r_mmod_Electrostatic_Energy-OPLS-2005>
-297.713897705078

> <r_mmod_Solvation_Energy-OPLS-2005>
-461.797668457031

> <b_mmod_Minimization_Converged-OPLS-2005>
0

> <r_mmod_RMS_Derivative-OPLS-2005>
6.82112836837769

$$$$
52
                    3D
 Structure written by MMmdl.
164172  0  0  1  0            999 V2000
  -30.7507  -14.4220   20.5527 C   0  0  0  0  0  0
  -30.4062  -12.2638   19.4359 C   0  0  0  0  0  0
  -29.4962  -12.4960   18.2143 C   0  0  0  0  0  0
  -28.0139  -12.3756   18.6175 C   0  0  0  0  0  0
  -27.6643  -13.2127   19.8792 C   0  0  2  0  0  0
  -28.7036  -13.0003   21.0050 C   0  0  0  0  0  0
  -25.2594  -13.8187   20.5699 C   0  0  0  0  0  0
  -24.1848  -13.0460   20.9194 C   0  0  0  0  0  0
  -24.6409  -11.6933   20.8743 C   0  0  0  0  0  0
  -23.9075  -10.4314   21.0416 C   0  0  0  0  0  0
  -24.3625   -9.4220   21.9193 C   0  0  0  0  0  0
  -23.6306   -8.2248   22.0748 C   0  0  0  0  0  0
  -22.4284   -8.0288   21.3543 C   0  0  0  0  0  0
  -21.9926   -9.0269   20.4644 C   0  0  0  0  0  0
  -22.7251  -10.2152   20.3059 C   0  0  0  0  0  0
  -21.6852   -6.0746   22.5292 C   0  0  0  0  0  0
  -21.4014   -6.5644   23.8228 C   0  0  0  0  0  0
  -21.3657   -5.6788   24.9188 C   0  0  0  0  0  0
  -21.6046   -4.3054   24.7229 C   0  0  0  0  0  0
  -21.8815   -3.8151   23.4350 C   0  0  0  0  0  0
  -21.9193   -4.6974   22.3409 C   0  0  0  0  0  0
  -22.7875  -13.5261   21.1855 C   0  0  0  0  0  0
  -22.1663   -4.2159   21.0988 F   0  0  0  0  0  0
  -21.5626   -3.4534   25.7741 F   0  0  0  0  0  0
  -30.0456  -13.2625   20.4557 N   0  0  0  0  0  0
  -26.3041  -12.9372   20.3388 N   0  0  0  0  0  0
  -25.9341  -11.6528   20.5774 N   0  0  0  0  0  0
  -22.0504  -12.8249   22.0397 N   0  0  0  0  0  0
  -25.4331  -15.1907   20.4104 N   0  0  0  0  0  0
  -31.8606  -14.5463   20.0283 O   0  0  0  0  0  0
  -21.6636   -6.8889   21.4252 O   0  0  0  0  0  0
  -22.3576  -14.5574   20.6704 O   0  0  0  0  0  0
  -24.6124  -31.8686   23.2094 C   0  0  0  0  0  0
  -25.9018  -32.4836   23.8392 C   0  0  1  0  0  0
  -27.2353  -27.4672   20.0906 C   0  0  0  0  0  0
  -25.5899  -33.8633   24.2338 N   0  0  0  0  0  0
  -23.3994  -30.4918   21.5474 C   0  0  2  0  0  0
  -24.8486  -28.9597   20.1089 C   0  0  0  0  0  0
  -22.7406  -29.4662   22.4974 C   0  0  0  0  0  0
  -18.0275  -28.1376   22.8495 C   0  0  0  0  0  0
  -24.1478  -36.7323   23.2633 C   0  0  0  0  0  0
  -25.9230  -30.8461   21.3545 C   0  0  0  0  0  0
  -26.0045  -29.4813   20.7065 C   0  0  0  0  0  0
  -27.2037  -28.7394   20.6962 C   0  0  0  0  0  0
  -26.0716  -26.9510   19.4867 C   0  0  0  0  0  0
  -24.8773  -27.6962   19.4919 C   0  0  0  0  0  0
  -23.6066  -29.8193   20.1621 C   0  0  0  0  0  0
  -25.4100  -36.3125   24.0339 C   0  0  1  0  0  0
  -20.5864  -28.3669   23.1313 C   0  0  2  0  0  0
  -20.6757  -26.9404   22.5409 C   0  0  0  0  0  0
  -19.5737  -26.6387   21.5199 C   0  0  0  0  0  0
  -18.1918  -26.7923   22.1616 C   0  0  0  0  0  0
  -19.1523  -28.8836   23.2909 C   0  0  0  0  0  0
  -18.9441  -30.1442   23.8923 C   0  0  0  0  0  0
  -17.6444  -30.6585   24.0567 C   0  0  0  0  0  0
  -25.9032  -34.9488   23.5134 C   0  0  0  0  0  0
  -16.5337  -29.9094   23.6320 C   0  0  0  0  0  0
  -16.7263  -28.6506   23.0348 C   0  0  0  0  0  0
  -26.4455  -31.6605   25.0709 C   0  0  0  0  0  0
  -25.3756  -31.3709   26.1490 C   0  0  0  0  0  0
  -27.0255  -30.3053   24.6038 C   0  0  0  0  0  0
  -27.6022  -32.4317   25.7486 C   0  0  0  0  0  0
  -27.5577  -37.1816   24.8464 C   0  0  0  0  0  0
  -21.4132  -29.3053   22.3731 N   0  0  0  0  0  0
  -26.4283  -37.3809   23.9417 N   0  0  0  0  0  0
  -24.6632  -31.0823   22.0969 N   0  0  0  0  0  0
  -23.4199  -28.8208   23.3006 O   0  0  0  0  0  0
  -28.3749  -26.7051   20.1265 O   0  0  0  0  0  0
  -26.5570  -34.8926   22.4679 O   0  0  0  0  0  0
  -23.5320  -32.1401   23.7518 O   0  0  0  0  0  0
  -29.6857  -18.5671   24.3458 C   0  0  0  0  0  0
  -28.8524  -19.5999   23.8960 C   0  0  0  0  0  0
  -29.8269  -17.6796   22.0697 C   0  0  0  0  0  0
  -30.1884  -17.6106   23.4449 C   0  0  0  0  0  0
  -28.4814  -19.6950   22.5389 C   0  0  0  0  0  0
  -28.9545  -18.7182   21.6161 C   0  0  0  0  0  0
  -30.4769  -16.7413   21.0853 C   0  0  0  0  0  0
  -31.1525  -16.5613   23.9899 C   0  0  0  0  0  0
  -28.5499  -18.7856   20.1398 C   0  0  0  0  0  0
  -27.5817  -20.8633   22.1331 C   0  0  0  0  0  0
  -28.4714  -24.3088   20.6783 C   0  0  0  0  0  0
  -28.1038  -23.2745   21.7661 C   0  0  0  0  0  0
  -28.3541  -25.7540   21.1964 C   0  0  0  0  0  0
  -30.1332  -15.4414   21.1760 N   0  0  0  0  0  0
  -28.3126  -21.8729   21.3340 N   0  3  0  0  0  0
  -31.2656  -17.2222   20.2630 O   0  0  0  0  0  0
  -31.4566  -12.3078   19.1402 H   0  0  0  0  0  0
  -30.2605  -11.2587   19.8350 H   0  0  0  0  0  0
  -29.7285  -11.7762   17.4284 H   0  0  0  0  0  0
  -29.6873  -13.4837   17.7926 H   0  0  0  0  0  0
  -27.8061  -11.3204   18.8010 H   0  0  0  0  0  0
  -27.3731  -12.6665   17.7838 H   0  0  0  0  0  0
  -27.7095  -14.2615   19.5866 H   0  0  0  0  0  0
  -28.6584  -11.9736   21.3706 H   0  0  0  0  0  0
  -28.4731  -13.6247   21.8691 H   0  0  0  0  0  0
  -25.2780   -9.5691   22.4763 H   0  0  0  0  0  0
  -24.0019   -7.4636   22.7456 H   0  0  0  0  0  0
  -21.0858   -8.8799   19.8943 H   0  0  0  0  0  0
  -22.3733  -10.9691   19.6153 H   0  0  0  0  0  0
  -21.2000   -7.6151   23.9737 H   0  0  0  0  0  0
  -21.1484   -6.0518   25.9090 H   0  0  0  0  0  0
  -22.0593   -2.7615   23.2851 H   0  0  0  0  0  0
  -22.4087  -11.9895   22.4783 H   0  0  0  0  0  0
  -21.1115  -13.1262   22.2570 H   0  0  0  0  0  0
  -24.6703  -15.8499   20.5202 H   0  0  0  0  0  0
  -26.2882  -15.6256   20.0878 H   0  0  0  0  0  0
  -26.7112  -32.5566   23.1179 H   0  0  0  0  0  0
  -25.0086  -33.9796   25.0512 H   0  0  0  0  0  0
  -22.6873  -31.3085   21.4094 H   0  0  0  0  0  0
  -23.3723  -35.9671   23.3302 H   0  0  0  0  0  0
  -24.3570  -36.8925   22.2044 H   0  0  0  0  0  0
  -23.7236  -37.6536   23.6629 H   0  0  0  0  0  0
  -26.0224  -31.6086   20.5798 H   0  0  0  0  0  0
  -26.8142  -30.9072   21.9663 H   0  0  0  0  0  0
  -28.0959  -29.1300   21.1652 H   0  0  0  0  0  0
  -26.0883  -25.9740   19.0235 H   0  0  0  0  0  0
  -23.9918  -27.2937   19.0193 H   0  0  0  0  0  0
  -23.7091  -30.5898   19.3977 H   0  0  0  0  0  0
  -22.7321  -29.2328   19.8716 H   0  0  0  0  0  0
  -25.1275  -36.1979   25.0829 H   0  0  0  0  0  0
  -20.9964  -28.3230   24.1430 H   0  0  0  0  0  0
  -20.5630  -26.2288   23.3600 H   0  0  0  0  0  0
  -21.6634  -26.7440   22.1221 H   0  0  0  0  0  0
  -19.6894  -25.6301   21.1221 H   0  0  0  0  0  0
  -19.6665  -27.3198   20.6725 H   0  0  0  0  0  0
  -17.4188  -26.6673   21.4014 H   0  0  0  0  0  0
  -18.0334  -26.0049   22.9000 H   0  0  0  0  0  0
  -19.7922  -30.7249   24.2296 H   0  0  0  0  0  0
  -17.5006  -31.6257   24.5177 H   0  0  0  0  0  0
  -15.5344  -30.3003   23.7618 H   0  0  0  0  0  0
  -15.8663  -28.0830   22.7047 H   0  0  0  0  0  0
  -24.5924  -30.7045   25.7869 H   0  0  0  0  0  0
  -24.8955  -32.2865   26.4955 H   0  0  0  0  0  0
  -25.8157  -30.8899   27.0237 H   0  0  0  0  0  0
  -26.2768  -29.6856   24.1089 H   0  0  0  0  0  0
  -27.4030  -29.7250   25.4465 H   0  0  0  0  0  0
  -27.8612  -30.4375   23.9158 H   0  0  0  0  0  0
  -27.2618  -33.3602   26.2081 H   0  0  0  0  0  0
  -28.3831  -32.6901   25.0325 H   0  0  0  0  0  0
  -28.0679  -31.8433   26.5398 H   0  0  0  0  0  0
  -28.2606  -38.0105   24.7521 H   0  0  0  0  0  0
  -28.1066  -36.2643   24.6278 H   0  0  0  0  0  0
  -27.2311  -37.1465   25.8872 H   0  0  0  0  0  0
  -20.9274  -29.8822   21.6999 H   0  0  0  0  0  0
  -26.0172  -38.2888   24.1416 H   0  0  0  0  0  0
  -29.9596  -18.5299   25.3915 H   0  0  0  0  0  0
  -28.4992  -20.3285   24.6132 H   0  0  0  0  0  0
  -31.4765  -16.8123   25.0004 H   0  0  0  0  0  0
  -32.0547  -16.4827   23.3824 H   0  0  0  0  0  0
  -30.6765  -15.5809   24.0288 H   0  0  0  0  0  0
  -28.2545  -17.8032   19.7728 H   0  0  0  0  0  0
  -29.3874  -19.1303   19.5323 H   0  0  0  0  0  0
  -27.7058  -19.4394   19.9344 H   0  0  0  0  0  0
  -27.1713  -21.3180   23.0357 H   0  0  0  0  0  0
  -26.7112  -20.5051   21.5842 H   0  0  0  0  0  0
  -27.8032  -24.1803   19.8259 H   0  0  0  0  0  0
  -29.4846  -24.1430   20.3106 H   0  0  0  0  0  0
  -27.0564  -23.4141   22.0390 H   0  0  0  0  0  0
  -28.6873  -23.4497   22.6720 H   0  0  0  0  0  0
  -29.1776  -25.9771   21.8751 H   0  0  0  0  0  0
  -27.4469  -25.8468   21.7998 H   0  0  0  0  0  0
  -29.3278  -15.2227   21.7380 H   0  0  0  0  0  0
  -28.0222  -21.7711   20.3754 H   0  0  0  0  0  0
  -29.2952  -21.6574   21.3833 H   0  0  0  0  0  0
  1 25  1  0  0  0
  1 30  2  0  0  0
  1 84  1  0  0  0
  2  3  1  0  0  0
  2 25  1  0  0  0
  2 87  1  0  0  0
  2 88  1  0  0  0
  3  4  1  0  0  0
  3 89  1  0  0  0
  3 90  1  0  0  0
  4  5  1  0  0  0
  4 91  1  0  0  0
  4 92  1  0  0  0
  5  6  1  0  0  0
  5 26  1  0  0  0
  5 93  1  0  0  0
  6 25  1  0  0  0
  6 94  1  0  0  0
  6 95  1  0  0  0
  7  8  2  0  0  0
  7 26  1  0  0  0
  7 29  1  0  0  0
  8  9  1  0  0  0
  8 22  1  0  0  0
  9 10  1  0  0  0
  9 27  2  0  0  0
 10 11  2  0  0  0
 10 15  1  0  0  0
 11 12  1  0  0  0
 11 96  1  0  0  0
 12 13  2  0  0  0
 12 97  1  0  0  0
 13 14  1  0  0  0
 13 31  1  0  0  0
 14 15  2  0  0  0
 14 98  1  0  0  0
 15 99  1  0  0  0
 16 17  2  0  0  0
 16 21  1  0  0  0
 16 31  1  0  0  0
 17 18  1  0  0  0
 17100  1  0  0  0
 18 19  2  0  0  0
 18101  1  0  0  0
 19 20  1  0  0  0
 19 24  1  0  0  0
 20 21  2  0  0  0
 20102  1  0  0  0
 21 23  1  0  0  0
 22 28  1  0  0  0
 22 32  2  0  0  0
 26 27  1  0  0  0
 28103  1  0  0  0
 28104  1  0  0  0
 29105  1  0  0  0
 29106  1  0  0  0
 33 34  1  0  0  0
 33 66  1  0  0  0
 33 70  2  0  0  0
 34 36  1  0  0  0
 34 59  1  0  0  0
 34107  1  0  0  0
 35 44  2  0  0  0
 35 45  1  0  0  0
 35 68  1  0  0  0
 36 56  1  0  0  0
 36108  1  0  0  0
 37 39  1  0  0  0
 37 47  1  0  0  0
 37 66  1  0  0  0
 37109  1  0  0  0
 38 43  2  0  0  0
 38 46  1  0  0  0
 38 47  1  0  0  0
 39 64  1  0  0  0
 39 67  2  0  0  0
 40 52  1  0  0  0
 40 53  2  0  0  0
 40 58  1  0  0  0
 41110  1  0  0  0
 41111  1  0  0  0
 41112  1  0  0  0
 41 48  1  0  0  0
 42 43  1  0  0  0
 42 66  1  0  0  0
 42113  1  0  0  0
 42114  1  0  0  0
 43 44  1  0  0  0
 44115  1  0  0  0
 45 46  2  0  0  0
 45116  1  0  0  0
 46117  1  0  0  0
 47118  1  0  0  0
 47119  1  0  0  0
 48 56  1  0  0  0
 48 65  1  0  0  0
 48120  1  0  0  0
 49 50  1  0  0  0
 49 53  1  0  0  0
 49 64  1  0  0  0
 49121  1  0  0  0
 50 51  1  0  0  0
 50122  1  0  0  0
 50123  1  0  0  0
 51 52  1  0  0  0
 51124  1  0  0  0
 51125  1  0  0  0
 52126  1  0  0  0
 52127  1  0  0  0
 53 54  1  0  0  0
 54 55  2  0  0  0
 54128  1  0  0  0
 55 57  1  0  0  0
 55129  1  0  0  0
 56 69  2  0  0  0
 57 58  2  0  0  0
 57130  1  0  0  0
 58131  1  0  0  0
 59 60  1  0  0  0
 59 61  1  0  0  0
 59 62  1  0  0  0
 60132  1  0  0  0
 60133  1  0  0  0
 60134  1  0  0  0
 61135  1  0  0  0
 61136  1  0  0  0
 61137  1  0  0  0
 62138  1  0  0  0
 62139  1  0  0  0
 62140  1  0  0  0
 63 65  1  0  0  0
 63141  1  0  0  0
 63142  1  0  0  0
 63143  1  0  0  0
 64144  1  0  0  0
 65145  1  0  0  0
 68 83  1  0  0  0
 71 72  2  0  0  0
 71 74  1  0  0  0
 71146  1  0  0  0
 72 75  1  0  0  0
 72147  1  0  0  0
 73 74  2  0  0  0
 73 76  1  0  0  0
 73 77  1  0  0  0
 74 78  1  0  0  0
 75 76  2  0  0  0
 75 80  1  0  0  0
 76 79  1  0  0  0
 77 84  1  0  0  0
 77 86  2  0  0  0
 78148  1  0  0  0
 78149  1  0  0  0
 78150  1  0  0  0
 79151  1  0  0  0
 79152  1  0  0  0
 79153  1  0  0  0
 80 85  1  0  0  0
 80154  1  0  0  0
 80155  1  0  0  0
 81 82  1  0  0  0
 81 83  1  0  0  0
 81156  1  0  0  0
 81157  1  0  0  0
 82 85  1  0  0  0
 82158  1  0  0  0
 82159  1  0  0  0
 83160  1  0  0  0
 83161  1  0  0  0
 84162  1  0  0  0
 85163  1  0  0  0
 85164  1  0  0  0
M  CHG  1  85   1
M  ISO  4   1 100  68 101  83 101  84 100
M  END
> <chiral flag>
0

> <version>
0

> <s_m_source_file>
/data/baiqing/PycharmProjects/Reinvent-master-3.2/result/LINK_invent/BTK/process_docking_weight1_custom_product_contain_oxygen_bond_distance_aromatic_linkinvent_7_9_3/rearranged_h_0042.sdf

> <i_m_source_file_index>
53

> <r_mmod_Potential_Energy-OPLS-2005>
-229.64485168457

> <r_mmod_Stretch_Energy-OPLS-2005>
37.4839210510254

> <r_mmod_Bend_Energy-OPLS-2005>
90.2628021240234

> <r_mmod_Torsional_Energy-OPLS-2005>
261.788665771484

> <r_mmod_Improper_Torsional_Energy-OPLS-2005>
2.96661019325256

> <r_mmod_Van_der_Waal_Energy-OPLS-2005>
165.939239501953

> <r_mmod_Electrostatic_Energy-OPLS-2005>
-325.27978515625

> <r_mmod_Solvation_Energy-OPLS-2005>
-475.170654296875

> <b_mmod_Minimization_Converged-OPLS-2005>
0

> <r_mmod_RMS_Derivative-OPLS-2005>
2.28828454017639

$$$$
53
                    3D
 Structure written by MMmdl.
159167  0  0  1  0            999 V2000
  -30.5455  -14.8125   20.4675 C   0  0  0  0  0  0
  -30.4513  -12.5035   19.4601 C   0  0  0  0  0  0
  -29.5180  -12.5079   18.2272 C   0  0  0  0  0  0
  -28.0417  -12.3174   18.6417 C   0  0  0  0  0  0
  -27.6372  -13.2215   19.8368 C   0  0  2  0  0  0
  -28.6863  -13.1589   20.9663 C   0  0  0  0  0  0
  -25.2512  -13.8179   20.5692 C   0  0  0  0  0  0
  -24.1796  -13.0417   20.9213 C   0  0  0  0  0  0
  -24.6379  -11.6899   20.8736 C   0  0  0  0  0  0
  -23.9056  -10.4276   21.0405 C   0  0  0  0  0  0
  -24.3606   -9.4199   21.9188 C   0  0  0  0  0  0
  -23.6279   -8.2237   22.0766 C   0  0  0  0  0  0
  -22.4266   -8.0278   21.3552 C   0  0  0  0  0  0
  -21.9888   -9.0246   20.4653 C   0  0  0  0  0  0
  -22.7226  -10.2123   20.3059 C   0  0  0  0  0  0
  -21.6847   -6.0721   22.5281 C   0  0  0  0  0  0
  -21.4014   -6.5627   23.8212 C   0  0  0  0  0  0
  -21.3658   -5.6787   24.9174 C   0  0  0  0  0  0
  -21.6049   -4.3050   24.7228 C   0  0  0  0  0  0
  -21.8813   -3.8136   23.4351 C   0  0  0  0  0  0
  -21.9199   -4.6948   22.3404 C   0  0  0  0  0  0
  -22.7826  -13.5234   21.1881 C   0  0  0  0  0  0
  -22.1662   -4.2133   21.0983 F   0  0  0  0  0  0
  -21.5624   -3.4535   25.7741 F   0  0  0  0  0  0
  -29.9709  -13.5597   20.3792 N   0  0  0  0  0  0
  -26.2910  -12.9355   20.3215 N   0  0  0  0  0  0
  -25.9295  -11.6510   20.5696 N   0  0  0  0  0  0
  -22.0449  -12.8229   22.0417 N   0  0  0  0  0  0
  -25.4186  -15.1898   20.4119 N   0  0  0  0  0  0
  -31.7561  -14.9401   20.2614 O   0  0  0  0  0  0
  -21.6638   -6.8865   21.4243 O   0  0  0  0  0  0
  -22.3525  -14.5543   20.6742 O   0  0  0  0  0  0
  -24.6361  -31.8508   23.1971 C   0  0  0  0  0  0
  -25.9171  -32.4729   23.8320 C   0  0  1  0  0  0
  -27.2149  -27.2013   20.1550 C   0  0  0  0  0  0
  -25.5953  -33.8534   24.2230 N   0  0  0  0  0  0
  -23.4356  -30.4711   21.5409 C   0  0  2  0  0  0
  -24.8807  -28.8994   20.1252 C   0  0  0  0  0  0
  -22.7514  -29.4591   22.4922 C   0  0  0  0  0  0
  -18.0310  -28.1371   22.8476 C   0  0  0  0  0  0
  -24.1495  -36.7278   23.2638 C   0  0  0  0  0  0
  -25.9853  -30.7408   21.3889 C   0  0  0  0  0  0
  -26.0542  -29.3526   20.7441 C   0  0  0  0  0  0
  -27.2232  -28.5159   20.7479 C   0  0  0  0  0  0
  -26.0309  -26.8441   19.4771 C   0  0  0  0  0  0
  -24.8760  -27.6519   19.4819 C   0  0  0  0  0  0
  -23.6580  -29.7992   20.1599 C   0  0  0  0  0  0
  -25.4119  -36.3051   24.0318 C   0  0  1  0  0  0
  -20.5904  -28.3686   23.1257 C   0  0  2  0  0  0
  -20.6793  -26.9435   22.5304 C   0  0  0  0  0  0
  -19.5764  -26.6487   21.5080 C   0  0  0  0  0  0
  -18.1956  -26.7958   22.1529 C   0  0  0  0  0  0
  -19.1561  -28.8836   23.2881 C   0  0  0  0  0  0
  -18.9474  -30.1426   23.8922 C   0  0  0  0  0  0
  -17.6464  -30.6551   24.0603 C   0  0  0  0  0  0
  -25.9057  -34.9422   23.5072 C   0  0  0  0  0  0
  -16.5359  -29.9054   23.6339 C   0  0  0  0  0  0
  -16.7287  -28.6483   23.0334 C   0  0  0  0  0  0
  -26.4519  -31.6569   25.0712 C   0  0  0  0  0  0
  -25.3734  -31.3744   26.1429 C   0  0  0  0  0  0
  -27.0371  -30.2972   24.6246 C   0  0  0  0  0  0
  -27.6057  -32.4328   25.7505 C   0  0  0  0  0  0
  -27.5573  -37.1791   24.8462 C   0  0  0  0  0  0
  -21.4206  -29.3083   22.3681 N   0  0  0  0  0  0
  -26.4289  -37.3761   23.9405 N   0  0  0  0  0  0
  -24.7047  -31.0408   22.0982 N   0  0  0  0  0  0
  -23.4176  -28.8117   23.3033 O   0  0  0  0  0  0
  -28.3334  -26.3293   20.0608 O   0  0  0  0  0  0
  -26.5631  -34.8917   22.4638 O   0  0  0  0  0  0
  -23.5488  -32.1377   23.7187 O   0  0  0  0  0  0
  -29.6817  -18.5716   20.3456 C   0  0  0  0  0  0
  -28.9385  -18.5944   23.0156 C   0  0  0  0  0  0
  -29.3847  -19.8737   20.9699 C   0  0  0  0  0  0
  -29.2123  -17.3513   22.4021 C   0  0  0  0  0  0
  -29.6225  -17.2757   21.0439 C   0  0  0  0  0  0
  -29.0276  -19.8207   22.3336 C   0  0  0  0  0  0
  -27.8336  -23.6076   20.2241 C   0  0  0  0  0  0
  -28.9688  -16.1116   23.2465 C   0  0  0  0  0  0
  -25.6194  -22.7087   19.3948 C   0  0  0  0  0  0
  -29.5207  -21.3503   20.3302 C   0  0  0  0  0  0
  -28.5044  -24.9639   20.7282 C   0  0  0  0  0  0
  -29.6699  -15.9062   20.4279 N   0  0  0  0  0  0
  -28.2948  -22.2705   20.1544 N   0  0  0  0  0  0
  -26.5414  -23.7511   19.8776 N   0  3  0  0  0  0
  -28.6964  -21.2643   23.2308 Cl  0  0  0  0  0  0
  -31.4828  -12.6770   19.1485 H   0  0  0  0  0  0
  -30.4413  -11.5288   19.9505 H   0  0  0  0  0  0
  -29.8125  -11.7241   17.5277 H   0  0  0  0  0  0
  -29.6268  -13.4525   17.6924 H   0  0  0  0  0  0
  -27.9084  -11.2699   18.9164 H   0  0  0  0  0  0
  -27.3832  -12.4949   17.7899 H   0  0  0  0  0  0
  -27.6206  -14.2387   19.4476 H   0  0  0  0  0  0
  -28.7471  -12.1563   21.3907 H   0  0  0  0  0  0
  -28.4041  -13.8187   21.7829 H   0  0  0  0  0  0
  -25.2743   -9.5670   22.4767 H   0  0  0  0  0  0
  -23.9980   -7.4630   22.7487 H   0  0  0  0  0  0
  -21.0817   -8.8775   19.8955 H   0  0  0  0  0  0
  -22.3690  -10.9666   19.6173 H   0  0  0  0  0  0
  -21.2002   -7.6140   23.9713 H   0  0  0  0  0  0
  -21.1488   -6.0517   25.9080 H   0  0  0  0  0  0
  -22.0597   -2.7597   23.2865 H   0  0  0  0  0  0
  -22.4061  -11.9888   22.4796 H   0  0  0  0  0  0
  -21.1086  -13.1277   22.2628 H   0  0  0  0  0  0
  -24.6455  -15.8357   20.5248 H   0  0  0  0  0  0
  -26.2567  -15.6382   20.0652 H   0  0  0  0  0  0
  -26.7239  -32.5369   23.1057 H   0  0  0  0  0  0
  -25.0115  -33.9675   25.0385 H   0  0  0  0  0  0
  -22.7367  -31.2955   21.3892 H   0  0  0  0  0  0
  -23.3750  -35.9609   23.3291 H   0  0  0  0  0  0
  -24.3587  -36.8904   22.2054 H   0  0  0  0  0  0
  -23.7251  -37.6476   23.6674 H   0  0  0  0  0  0
  -26.1261  -31.4907   20.6092 H   0  0  0  0  0  0
  -26.8625  -30.7968   22.0215 H   0  0  0  0  0  0
  -28.1284  -28.8630   21.2252 H   0  0  0  0  0  0
  -25.9939  -25.9449   18.8879 H   0  0  0  0  0  0
  -23.9900  -27.3126   18.9636 H   0  0  0  0  0  0
  -23.7944  -30.5736   19.4021 H   0  0  0  0  0  0
  -22.7729  -29.2375   19.8552 H   0  0  0  0  0  0
  -25.1307  -36.1889   25.0806 H   0  0  0  0  0  0
  -21.0015  -28.3200   24.1365 H   0  0  0  0  0  0
  -20.5693  -26.2268   23.3445 H   0  0  0  0  0  0
  -21.6659  -26.7492   22.1076 H   0  0  0  0  0  0
  -19.6941  -25.6454   21.0960 H   0  0  0  0  0  0
  -19.6663  -27.3403   20.6695 H   0  0  0  0  0  0
  -17.4228  -26.6769   21.3918 H   0  0  0  0  0  0
  -18.0349  -26.0023   22.8839 H   0  0  0  0  0  0
  -19.7936  -30.7239   24.2322 H   0  0  0  0  0  0
  -17.5014  -31.6219   24.5235 H   0  0  0  0  0  0
  -15.5356  -30.2940   23.7680 H   0  0  0  0  0  0
  -15.8701  -28.0798   22.7016 H   0  0  0  0  0  0
  -24.5919  -30.7075   25.7776 H   0  0  0  0  0  0
  -24.8915  -32.2918   26.4815 H   0  0  0  0  0  0
  -25.8037  -30.8964   27.0233 H   0  0  0  0  0  0
  -26.2964  -29.6715   24.1258 H   0  0  0  0  0  0
  -27.4017  -29.7248   25.4783 H   0  0  0  0  0  0
  -27.8865  -30.4230   23.9530 H   0  0  0  0  0  0
  -27.2643  -33.3647   26.2049 H   0  0  0  0  0  0
  -28.3897  -32.6865   25.0348 H   0  0  0  0  0  0
  -28.0709  -31.8477   26.5455 H   0  0  0  0  0  0
  -28.2585  -38.0101   24.7502 H   0  0  0  0  0  0
  -28.1079  -36.2618   24.6297 H   0  0  0  0  0  0
  -27.2293  -37.1458   25.8871 H   0  0  0  0  0  0
  -20.9369  -29.8855   21.6943 H   0  0  0  0  0  0
  -26.0157  -38.2819   24.1403 H   0  0  0  0  0  0
  -29.9534  -18.5716   19.2990 H   0  0  0  0  0  0
  -28.6257  -18.6254   24.0501 H   0  0  0  0  0  0
  -29.7526  -15.3642   23.1336 H   0  0  0  0  0  0
  -28.0091  -15.6653   22.9839 H   0  0  0  0  0  0
  -28.9223  -16.3668   24.3051 H   0  0  0  0  0  0
  -26.0437  -22.1848   18.5379 H   0  0  0  0  0  0
  -24.6760  -23.1504   19.0731 H   0  0  0  0  0  0
  -25.3997  -21.9825   20.1801 H   0  0  0  0  0  0
  -29.9815  -21.2383   19.3456 H   0  0  0  0  0  0
  -30.2533  -21.8938   20.9273 H   0  0  0  0  0  0
  -29.5798  -24.7819   20.7810 H   0  0  0  0  0  0
  -28.2007  -25.0948   21.7672 H   0  0  0  0  0  0
  -28.7437  -15.5615   20.2365 H   0  0  0  0  0  0
  -27.5436  -21.6747   19.8499 H   0  0  0  0  0  0
  -26.1392  -24.6729   19.9861 H   0  0  0  0  0  0
  1 25  1  0  0  0
  1 30  2  0  0  0
  1 82  1  0  0  0
  2  3  1  0  0  0
  2 25  1  0  0  0
  2 86  1  0  0  0
  2 87  1  0  0  0
  3  4  1  0  0  0
  3 88  1  0  0  0
  3 89  1  0  0  0
  4  5  1  0  0  0
  4 90  1  0  0  0
  4 91  1  0  0  0
  5  6  1  0  0  0
  5 26  1  0  0  0
  5 92  1  0  0  0
  6 25  1  0  0  0
  6 93  1  0  0  0
  6 94  1  0  0  0
  7  8  2  0  0  0
  7 26  1  0  0  0
  7 29  1  0  0  0
  8  9  1  0  0  0
  8 22  1  0  0  0
  9 10  1  0  0  0
  9 27  2  0  0  0
 10 11  2  0  0  0
 10 15  1  0  0  0
 11 12  1  0  0  0
 11 95  1  0  0  0
 12 13  2  0  0  0
 12 96  1  0  0  0
 13 14  1  0  0  0
 13 31  1  0  0  0
 14 15  2  0  0  0
 14 97  1  0  0  0
 15 98  1  0  0  0
 16 17  2  0  0  0
 16 21  1  0  0  0
 16 31  1  0  0  0
 17 18  1  0  0  0
 17 99  1  0  0  0
 18 19  2  0  0  0
 18100  1  0  0  0
 19 20  1  0  0  0
 19 24  1  0  0  0
 20 21  2  0  0  0
 20101  1  0  0  0
 21 23  1  0  0  0
 22 28  1  0  0  0
 22 32  2  0  0  0
 26 27  1  0  0  0
 28102  1  0  0  0
 28103  1  0  0  0
 29104  1  0  0  0
 29105  1  0  0  0
 33 34  1  0  0  0
 33 66  1  0  0  0
 33 70  2  0  0  0
 34 36  1  0  0  0
 34 59  1  0  0  0
 34106  1  0  0  0
 35 44  2  0  0  0
 35 45  1  0  0  0
 35 68  1  0  0  0
 36 56  1  0  0  0
 36107  1  0  0  0
 37 39  1  0  0  0
 37 47  1  0  0  0
 37 66  1  0  0  0
 37108  1  0  0  0
 38 43  2  0  0  0
 38 46  1  0  0  0
 38 47  1  0  0  0
 39 64  1  0  0  0
 39 67  2  0  0  0
 40 52  1  0  0  0
 40 53  2  0  0  0
 40 58  1  0  0  0
 41109  1  0  0  0
 41110  1  0  0  0
 41111  1  0  0  0
 41 48  1  0  0  0
 42 43  1  0  0  0
 42 66  1  0  0  0
 42112  1  0  0  0
 42113  1  0  0  0
 43 44  1  0  0  0
 44114  1  0  0  0
 45 46  2  0  0  0
 45115  1  0  0  0
 46116  1  0  0  0
 47117  1  0  0  0
 47118  1  0  0  0
 48 56  1  0  0  0
 48 65  1  0  0  0
 48119  1  0  0  0
 49 50  1  0  0  0
 49 53  1  0  0  0
 49 64  1  0  0  0
 49120  1  0  0  0
 50 51  1  0  0  0
 50121  1  0  0  0
 50122  1  0  0  0
 51 52  1  0  0  0
 51123  1  0  0  0
 51124  1  0  0  0
 52125  1  0  0  0
 52126  1  0  0  0
 53 54  1  0  0  0
 54 55  2  0  0  0
 54127  1  0  0  0
 55 57  1  0  0  0
 55128  1  0  0  0
 56 69  2  0  0  0
 57 58  2  0  0  0
 57129  1  0  0  0
 58130  1  0  0  0
 59 60  1  0  0  0
 59 61  1  0  0  0
 59 62  1  0  0  0
 60131  1  0  0  0
 60132  1  0  0  0
 60133  1  0  0  0
 61134  1  0  0  0
 61135  1  0  0  0
 61136  1  0  0  0
 62137  1  0  0  0
 62138  1  0  0  0
 62139  1  0  0  0
 63 65  1  0  0  0
 63140  1  0  0  0
 63141  1  0  0  0
 63142  1  0  0  0
 64143  1  0  0  0
 65144  1  0  0  0
 68 81  1  0  0  0
 71 73  2  0  0  0
 71 75  1  0  0  0
 71145  1  0  0  0
 72 74  1  0  0  0
 72 76  2  0  0  0
 72146  1  0  0  0
 73 76  1  0  0  0
 73 80  1  0  0  0
 74 75  2  0  0  0
 74 78  1  0  0  0
 75 82  1  0  0  0
 76 85  1  0  0  0
 77 81  1  0  0  0
 77 83  1  0  0  0
 77 84  2  0  0  0
 78147  1  0  0  0
 78148  1  0  0  0
 78149  1  0  0  0
 79 84  1  0  0  0
 79150  1  0  0  0
 79151  1  0  0  0
 79152  1  0  0  0
 80 83  1  0  0  0
 80153  1  0  0  0
 80154  1  0  0  0
 81155  1  0  0  0
 81156  1  0  0  0
 82157  1  0  0  0
 83158  1  0  0  0
 84159  1  0  0  0
M  CHG  1  84   1
M  ISO  4   1 100  68 101  81 101  82 100
M  END
> <chiral flag>
0

> <version>
0

> <s_m_source_file>
/data/baiqing/PycharmProjects/Reinvent-master-3.2/result/LINK_invent/BTK/process_docking_weight1_custom_product_contain_oxygen_bond_distance_aromatic_linkinvent_7_9_3/rearranged_h_0042.sdf

> <i_m_source_file_index>
54

> <r_mmod_Potential_Energy-OPLS-2005>
228.159881591797

> <r_mmod_Stretch_Energy-OPLS-2005>
162.105712890625

> <r_mmod_Bend_Energy-OPLS-2005>
263.167266845703

> <r_mmod_Torsional_Energy-OPLS-2005>
279.018463134766

> <r_mmod_Improper_Torsional_Energy-OPLS-2005>
14.8028440475464

> <r_mmod_Van_der_Waal_Energy-OPLS-2005>
131.139114379883

> <r_mmod_Electrostatic_Energy-OPLS-2005>
-303.566772460938

> <r_mmod_Solvation_Energy-OPLS-2005>
-434.536895751953

> <b_mmod_Minimization_Converged-OPLS-2005>
0

> <r_mmod_RMS_Derivative-OPLS-2005>
3.30097126960754

$$$$
54
                    3D
 Structure written by MMmdl.
168177  0  0  1  0            999 V2000
  -30.5980  -14.6418   20.5072 C   0  0  0  0  0  0
  -30.4425  -12.3945   19.4510 C   0  0  0  0  0  0
  -29.5104  -12.5178   18.2244 C   0  0  0  0  0  0
  -28.0319  -12.3520   18.6326 C   0  0  0  0  0  0
  -27.6557  -13.2132   19.8674 C   0  0  2  0  0  0
  -28.6979  -13.0459   20.9954 C   0  0  0  0  0  0
  -25.2574  -13.8166   20.5683 C   0  0  0  0  0  0
  -24.1831  -13.0437   20.9180 C   0  0  0  0  0  0
  -24.6395  -11.6906   20.8732 C   0  0  0  0  0  0
  -23.9060  -10.4293   21.0405 C   0  0  0  0  0  0
  -24.3612   -9.4209   21.9184 C   0  0  0  0  0  0
  -23.6288   -8.2244   22.0754 C   0  0  0  0  0  0
  -22.4271   -8.0281   21.3542 C   0  0  0  0  0  0
  -21.9903   -9.0256   20.4646 C   0  0  0  0  0  0
  -22.7231  -10.2136   20.3057 C   0  0  0  0  0  0
  -21.6851   -6.0738   22.5280 C   0  0  0  0  0  0
  -21.4015   -6.5642   23.8215 C   0  0  0  0  0  0
  -21.3657   -5.6792   24.9174 C   0  0  0  0  0  0
  -21.6044   -4.3056   24.7226 C   0  0  0  0  0  0
  -21.8818   -3.8148   23.4347 C   0  0  0  0  0  0
  -21.9192   -4.6964   22.3402 C   0  0  0  0  0  0
  -22.7858  -13.5239   21.1845 C   0  0  0  0  0  0
  -22.1662   -4.2149   21.0981 F   0  0  0  0  0  0
  -21.5622   -3.4541   25.7739 F   0  0  0  0  0  0
  -30.0147  -13.4027   20.4410 N   0  0  0  0  0  0
  -26.2996  -12.9338   20.3320 N   0  0  0  0  0  0
  -25.9322  -11.6497   20.5748 N   0  0  0  0  0  0
  -22.0491  -12.8239   22.0402 N   0  0  0  0  0  0
  -25.4311  -15.1887   20.4124 N   0  0  0  0  0  0
  -31.7496  -14.8328   20.1052 O   0  0  0  0  0  0
  -21.6635   -6.8879   21.4243 O   0  0  0  0  0  0
  -22.3550  -14.5549   20.6694 O   0  0  0  0  0  0
  -24.6251  -31.8596   23.2019 C   0  0  0  0  0  0
  -25.9099  -32.4777   23.8348 C   0  0  1  0  0  0
  -27.2251  -27.3255   20.1246 C   0  0  0  0  0  0
  -25.5915  -33.8577   24.2276 N   0  0  0  0  0  0
  -23.4186  -30.4819   21.5445 C   0  0  2  0  0  0
  -24.8657  -28.9327   20.1149 C   0  0  0  0  0  0
  -22.7467  -29.4621   22.4944 C   0  0  0  0  0  0
  -18.0286  -28.1385   22.8488 C   0  0  0  0  0  0
  -24.1488  -36.7296   23.2641 C   0  0  0  0  0  0
  -25.9582  -30.7928   21.3711 C   0  0  0  0  0  0
  -26.0336  -29.4189   20.7173 C   0  0  0  0  0  0
  -27.2190  -28.6277   20.7090 C   0  0  0  0  0  0
  -26.0390  -26.8867   19.4988 C   0  0  0  0  0  0
  -24.8694  -27.6715   19.4967 C   0  0  0  0  0  0
  -23.6332  -29.8127   20.1612 C   0  0  0  0  0  0
  -25.4114  -36.3083   24.0328 C   0  0  1  0  0  0
  -20.5884  -28.3686   23.1288 C   0  0  2  0  0  0
  -20.6773  -26.9410   22.5412 C   0  0  0  0  0  0
  -19.5750  -26.6384   21.5212 C   0  0  0  0  0  0
  -18.1931  -26.7929   22.1625 C   0  0  0  0  0  0
  -19.1537  -28.8852   23.2884 C   0  0  0  0  0  0
  -18.9461  -30.1454   23.8903 C   0  0  0  0  0  0
  -17.6461  -30.6587   24.0564 C   0  0  0  0  0  0
  -25.9047  -34.9450   23.5105 C   0  0  0  0  0  0
  -16.5352  -29.9086   23.6328 C   0  0  0  0  0  0
  -16.7272  -28.6502   23.0352 C   0  0  0  0  0  0
  -26.4487  -31.6587   25.0717 C   0  0  0  0  0  0
  -25.3725  -31.3724   26.1449 C   0  0  0  0  0  0
  -27.0329  -30.3014   24.6161 C   0  0  0  0  0  0
  -27.6047  -32.4324   25.7485 C   0  0  0  0  0  0
  -27.5575  -37.1808   24.8467 C   0  0  0  0  0  0
  -21.4181  -29.3040   22.3683 N   0  0  0  0  0  0
  -26.4295  -37.3773   23.9399 N   0  0  0  0  0  0
  -24.6861  -31.0612   22.0966 N   0  0  0  0  0  0
  -23.4192  -28.8164   23.3024 O   0  0  0  0  0  0
  -28.3511  -26.4945   20.1221 O   0  0  0  0  0  0
  -26.5622  -34.8916   22.4675 O   0  0  0  0  0  0
  -23.5416  -32.1390   23.7356 O   0  0  0  0  0  0
  -28.9451  -19.2982   21.6630 C   0  0  0  0  0  0
  -29.6303  -19.1709   19.3688 C   0  0  0  0  0  0
  -29.1017  -19.9678   20.4226 C   0  0  0  0  0  0
  -29.2437  -17.9116   21.8322 C   0  0  0  0  0  0
  -29.7279  -17.1014   20.7609 C   0  0  0  0  0  0
  -29.9245  -17.7776   19.5168 C   0  0  0  0  0  0
  -28.8839  -23.9917   19.7016 C   0  0  0  0  0  0
  -29.9878  -23.5318   16.1932 C   0  0  0  0  0  0
  -29.1384  -24.1919   18.3918 C   0  0  0  0  0  0
  -29.7877  -23.2551   17.4907 C   0  0  0  0  0  0
  -28.8056  -23.6796   22.6301 C   0  0  0  0  0  0
  -28.7166  -25.0937   22.0482 C   0  0  0  0  0  0
  -29.7819  -22.8307   21.8051 C   0  0  0  0  0  0
  -28.2092  -25.0963   20.5979 C   0  0  1  0  0  0
  -28.9759  -17.2832   23.1906 C   0  0  0  0  0  0
  -28.5050  -21.4153   20.1775 C   0  0  0  0  0  0
  -29.7837  -15.6466   20.9586 N   0  0  0  0  0  0
  -29.3349  -22.6685   20.4004 N   0  3  2  0  0  0
  -30.3963  -16.9160   18.0945 Cl  0  0  0  0  0  0
  -31.4828  -12.5308   19.1503 H   0  0  0  0  0  0
  -30.3844  -11.3937   19.8813 H   0  0  0  0  0  0
  -29.7760  -11.7742   17.4718 H   0  0  0  0  0  0
  -29.6522  -13.4924   17.7539 H   0  0  0  0  0  0
  -27.8674  -11.2972   18.8559 H   0  0  0  0  0  0
  -27.3794  -12.5905   17.7919 H   0  0  0  0  0  0
  -27.6803  -14.2523   19.5386 H   0  0  0  0  0  0
  -28.7095  -12.0152   21.3529 H   0  0  0  0  0  0
  -28.4372  -13.6528   21.8636 H   0  0  0  0  0  0
  -25.2760   -9.5682   22.4758 H   0  0  0  0  0  0
  -23.9995   -7.4638   22.7477 H   0  0  0  0  0  0
  -21.0829   -8.8778   19.8957 H   0  0  0  0  0  0
  -22.3691  -10.9675   19.6165 H   0  0  0  0  0  0
  -21.2014   -7.6152   23.9720 H   0  0  0  0  0  0
  -21.1476   -6.0523   25.9077 H   0  0  0  0  0  0
  -22.0599   -2.7609   23.2851 H   0  0  0  0  0  0
  -22.4096  -11.9897   22.4791 H   0  0  0  0  0  0
  -21.1113  -13.1280   22.2605 H   0  0  0  0  0  0
  -24.6655  -15.8447   20.5226 H   0  0  0  0  0  0
  -26.2829  -15.6269   20.0864 H   0  0  0  0  0  0
  -26.7167  -32.5452   23.1097 H   0  0  0  0  0  0
  -25.0053  -33.9721   25.0414 H   0  0  0  0  0  0
  -22.7124  -31.3020   21.3999 H   0  0  0  0  0  0
  -23.3737  -35.9645   23.3328 H   0  0  0  0  0  0
  -24.3572  -36.8891   22.2049 H   0  0  0  0  0  0
  -23.7262  -37.6514   23.6649 H   0  0  0  0  0  0
  -26.0869  -31.5544   20.6007 H   0  0  0  0  0  0
  -26.8396  -30.8442   21.9987 H   0  0  0  0  0  0
  -28.1194  -28.9984   21.1789 H   0  0  0  0  0  0
  -26.0099  -25.9246   19.0075 H   0  0  0  0  0  0
  -23.9754  -27.2955   19.0181 H   0  0  0  0  0  0
  -23.7517  -30.5868   19.4022 H   0  0  0  0  0  0
  -22.7534  -29.2409   19.8605 H   0  0  0  0  0  0
  -25.1298  -36.1940   25.0823 H   0  0  0  0  0  0
  -20.9978  -28.3260   24.1407 H   0  0  0  0  0  0
  -20.5672  -26.2294   23.3609 H   0  0  0  0  0  0
  -21.6642  -26.7441   22.1206 H   0  0  0  0  0  0
  -19.6911  -25.6295   21.1240 H   0  0  0  0  0  0
  -19.6688  -27.3194   20.6742 H   0  0  0  0  0  0
  -17.4199  -26.6677   21.4028 H   0  0  0  0  0  0
  -18.0331  -26.0070   22.9019 H   0  0  0  0  0  0
  -19.7936  -30.7267   24.2275 H   0  0  0  0  0  0
  -17.5016  -31.6268   24.5163 H   0  0  0  0  0  0
  -15.5353  -30.2991   23.7649 H   0  0  0  0  0  0
  -15.8672  -28.0821   22.7070 H   0  0  0  0  0  0
  -24.5893  -30.7080   25.7778 H   0  0  0  0  0  0
  -24.8924  -32.2893   26.4882 H   0  0  0  0  0  0
  -25.8051  -30.8893   27.0218 H   0  0  0  0  0  0
  -26.2898  -29.6767   24.1190 H   0  0  0  0  0  0
  -27.4038  -29.7267   25.4657 H   0  0  0  0  0  0
  -27.8762  -30.4307   23.9373 H   0  0  0  0  0  0
  -27.2654  -33.3619   26.2070 H   0  0  0  0  0  0
  -28.3848  -32.6895   25.0308 H   0  0  0  0  0  0
  -28.0725  -31.8449   26.5394 H   0  0  0  0  0  0
  -28.2613  -38.0084   24.7481 H   0  0  0  0  0  0
  -28.1051  -36.2614   24.6337 H   0  0  0  0  0  0
  -27.2288  -37.1508   25.8870 H   0  0  0  0  0  0
  -20.9358  -29.8761   21.6893 H   0  0  0  0  0  0
  -26.0179  -38.2854   24.1378 H   0  0  0  0  0  0
  -28.5179  -19.8429   22.4945 H   0  0  0  0  0  0
  -29.7362  -19.6074   18.3860 H   0  0  0  0  0  0
  -30.4721  -22.8196   15.5395 H   0  0  0  0  0  0
  -29.6737  -24.4702   15.7568 H   0  0  0  0  0  0
  -28.8261  -25.1413   17.9775 H   0  0  0  0  0  0
  -30.1319  -22.2950   17.8467 H   0  0  0  0  0  0
  -27.8194  -23.2143   22.6622 H   0  0  0  0  0  0
  -29.1545  -23.7331   23.6619 H   0  0  0  0  0  0
  -29.7000  -25.5648   22.0892 H   0  0  0  0  0  0
  -28.0611  -25.7091   22.6658 H   0  0  0  0  0  0
  -29.9460  -21.8643   22.2802 H   0  0  0  0  0  0
  -30.7577  -23.3182   21.7927 H   0  0  0  0  0  0
  -27.1564  -24.8153   20.6338 H   0  0  0  0  0  0
  -28.7816  -18.0397   23.9515 H   0  0  0  0  0  0
  -29.8354  -16.6998   23.5219 H   0  0  0  0  0  0
  -28.1077  -16.6251   23.1443 H   0  0  0  0  0  0
  -27.5972  -21.5089   20.7744 H   0  0  0  0  0  0
  -28.1537  -21.4340   19.1457 H   0  0  0  0  0  0
  -28.9783  -15.2807   21.4403 H   0  0  0  0  0  0
  -30.1957  -22.4148   19.9409 H   0  0  0  0  0  0
  1 25  1  0  0  0
  1 30  2  0  0  0
  1 87  1  0  0  0
  2  3  1  0  0  0
  2 25  1  0  0  0
  2 90  1  0  0  0
  2 91  1  0  0  0
  3  4  1  0  0  0
  3 92  1  0  0  0
  3 93  1  0  0  0
  4  5  1  0  0  0
  4 94  1  0  0  0
  4 95  1  0  0  0
  5  6  1  0  0  0
  5 26  1  0  0  0
  5 96  1  0  0  0
  6 25  1  0  0  0
  6 97  1  0  0  0
  6 98  1  0  0  0
  7  8  2  0  0  0
  7 26  1  0  0  0
  7 29  1  0  0  0
  8  9  1  0  0  0
  8 22  1  0  0  0
  9 10  1  0  0  0
  9 27  2  0  0  0
 10 11  2  0  0  0
 10 15  1  0  0  0
 11 12  1  0  0  0
 11 99  1  0  0  0
 12 13  2  0  0  0
 12100  1  0  0  0
 13 14  1  0  0  0
 13 31  1  0  0  0
 14 15  2  0  0  0
 14101  1  0  0  0
 15102  1  0  0  0
 16 17  2  0  0  0
 16 21  1  0  0  0
 16 31  1  0  0  0
 17 18  1  0  0  0
 17103  1  0  0  0
 18 19  2  0  0  0
 18104  1  0  0  0
 19 20  1  0  0  0
 19 24  1  0  0  0
 20 21  2  0  0  0
 20105  1  0  0  0
 21 23  1  0  0  0
 22 28  1  0  0  0
 22 32  2  0  0  0
 26 27  1  0  0  0
 28106  1  0  0  0
 28107  1  0  0  0
 29108  1  0  0  0
 29109  1  0  0  0
 33 34  1  0  0  0
 33 66  1  0  0  0
 33 70  2  0  0  0
 34 36  1  0  0  0
 34 59  1  0  0  0
 34110  1  0  0  0
 35 44  2  0  0  0
 35 45  1  0  0  0
 35 68  1  0  0  0
 36 56  1  0  0  0
 36111  1  0  0  0
 37 39  1  0  0  0
 37 47  1  0  0  0
 37 66  1  0  0  0
 37112  1  0  0  0
 38 43  2  0  0  0
 38 46  1  0  0  0
 38 47  1  0  0  0
 39 64  1  0  0  0
 39 67  2  0  0  0
 40 52  1  0  0  0
 40 53  2  0  0  0
 40 58  1  0  0  0
 41113  1  0  0  0
 41114  1  0  0  0
 41115  1  0  0  0
 41 48  1  0  0  0
 42 43  1  0  0  0
 42 66  1  0  0  0
 42116  1  0  0  0
 42117  1  0  0  0
 43 44  1  0  0  0
 44118  1  0  0  0
 45 46  2  0  0  0
 45119  1  0  0  0
 46120  1  0  0  0
 47121  1  0  0  0
 47122  1  0  0  0
 48 56  1  0  0  0
 48 65  1  0  0  0
 48123  1  0  0  0
 49 50  1  0  0  0
 49 53  1  0  0  0
 49 64  1  0  0  0
 49124  1  0  0  0
 50 51  1  0  0  0
 50125  1  0  0  0
 50126  1  0  0  0
 51 52  1  0  0  0
 51127  1  0  0  0
 51128  1  0  0  0
 52129  1  0  0  0
 52130  1  0  0  0
 53 54  1  0  0  0
 54 55  2  0  0  0
 54131  1  0  0  0
 55 57  1  0  0  0
 55132  1  0  0  0
 56 69  2  0  0  0
 57 58  2  0  0  0
 57133  1  0  0  0
 58134  1  0  0  0
 59 60  1  0  0  0
 59 61  1  0  0  0
 59 62  1  0  0  0
 60135  1  0  0  0
 60136  1  0  0  0
 60137  1  0  0  0
 61138  1  0  0  0
 61139  1  0  0  0
 61140  1  0  0  0
 62141  1  0  0  0
 62142  1  0  0  0
 62143  1  0  0  0
 63 65  1  0  0  0
 63144  1  0  0  0
 63145  1  0  0  0
 63146  1  0  0  0
 64147  1  0  0  0
 65148  1  0  0  0
 68 84  1  0  0  0
 71 73  2  0  0  0
 71 74  1  0  0  0
 71149  1  0  0  0
 72 73  1  0  0  0
 72 76  2  0  0  0
 72150  1  0  0  0
 73 86  1  0  0  0
 74 75  2  0  0  0
 74 85  1  0  0  0
 75 76  1  0  0  0
 75 87  1  0  0  0
 76 89  1  0  0  0
 77 79  2  0  0  0
 77 84  1  0  0  0
 77 88  1  0  0  0
 78 80  2  0  0  0
 78151  1  0  0  0
 78152  1  0  0  0
 79 80  1  0  0  0
 79153  1  0  0  0
 80154  1  0  0  0
 81 82  1  0  0  0
 81 83  1  0  0  0
 81155  1  0  0  0
 81156  1  0  0  0
 82 84  1  0  0  0
 82157  1  0  0  0
 82158  1  0  0  0
 83 88  1  0  0  0
 83159  1  0  0  0
 83160  1  0  0  0
 84161  1  0  0  0
 85162  1  0  0  0
 85163  1  0  0  0
 85164  1  0  0  0
 86165  1  0  0  0
 86166  1  0  0  0
 86 88  1  0  0  0
 87167  1  0  0  0
 88168  1  0  0  0
M  CHG  1  88   1
M  ISO  4   1 100  68 101  84 101  87 100
M  END
> <chiral flag>
0

> <version>
0

> <s_m_source_file>
/data/baiqing/PycharmProjects/Reinvent-master-3.2/result/LINK_invent/BTK/process_docking_weight1_custom_product_contain_oxygen_bond_distance_aromatic_linkinvent_7_9_3/rearranged_h_0042.sdf

> <i_m_source_file_index>
55

> <r_mmod_Potential_Energy-OPLS-2005>
-64.7083892822266

> <r_mmod_Stretch_Energy-OPLS-2005>
87.8238677978516

> <r_mmod_Bend_Energy-OPLS-2005>
155.827865600586

> <r_mmod_Torsional_Energy-OPLS-2005>
251.629150390625

> <r_mmod_Improper_Torsional_Energy-OPLS-2005>
5.5038948059082

> <r_mmod_Van_der_Waal_Energy-OPLS-2005>
135.01513671875

> <r_mmod_Electrostatic_Energy-OPLS-2005>
-302.869506835938

> <r_mmod_Solvation_Energy-OPLS-2005>
-443.499328613281

> <b_mmod_Minimization_Converged-OPLS-2005>
0

> <r_mmod_RMS_Derivative-OPLS-2005>
0.630464851856232

$$$$
55
                    3D
 Structure written by MMmdl.
162170  0  0  1  0            999 V2000
  -30.6638  -14.7252   20.4580 C   0  0  0  0  0  0
  -30.4245  -12.4389   19.4888 C   0  0  0  0  0  0
  -29.5096  -12.4815   18.2471 C   0  0  0  0  0  0
  -28.0361  -12.3219   18.6589 C   0  0  0  0  0  0
  -27.6406  -13.2394   19.8442 C   0  0  2  0  0  0
  -28.6849  -13.2060   20.9837 C   0  0  0  0  0  0
  -25.2488  -13.8219   20.5678 C   0  0  0  0  0  0
  -24.1807  -13.0466   20.9235 C   0  0  0  0  0  0
  -24.6406  -11.6938   20.8777 C   0  0  0  0  0  0
  -23.9088  -10.4299   21.0417 C   0  0  0  0  0  0
  -24.3627   -9.4213   21.9185 C   0  0  0  0  0  0
  -23.6295   -8.2244   22.0742 C   0  0  0  0  0  0
  -22.4291   -8.0272   21.3517 C   0  0  0  0  0  0
  -21.9919   -9.0265   20.4639 C   0  0  0  0  0  0
  -22.7252  -10.2140   20.3060 C   0  0  0  0  0  0
  -21.6860   -6.0735   22.5272 C   0  0  0  0  0  0
  -21.4020   -6.5652   23.8208 C   0  0  0  0  0  0
  -21.3648   -5.6799   24.9172 C   0  0  0  0  0  0
  -21.6052   -4.3056   24.7223 C   0  0  0  0  0  0
  -21.8822   -3.8143   23.4343 C   0  0  0  0  0  0
  -21.9194   -4.6966   22.3401 C   0  0  0  0  0  0
  -22.7833  -13.5216   21.1901 C   0  0  0  0  0  0
  -22.1667   -4.2139   21.0990 F   0  0  0  0  0  0
  -21.5624   -3.4562   25.7746 F   0  0  0  0  0  0
  -29.9900  -13.5248   20.3994 N   0  0  0  0  0  0
  -26.2935  -12.9449   20.3270 N   0  0  0  0  0  0
  -25.9344  -11.6578   20.5794 N   0  0  0  0  0  0
  -22.0475  -12.8211   22.0459 N   0  0  0  0  0  0
  -25.4188  -15.1947   20.4003 N   0  0  0  0  0  0
  -31.8566  -14.7390   20.1533 O   0  0  0  0  0  0
  -21.6642   -6.8873   21.4231 O   0  0  0  0  0  0
  -22.3514  -14.5509   20.6733 O   0  0  0  0  0  0
  -24.6290  -31.8581   23.2037 C   0  0  0  0  0  0
  -25.9129  -32.4783   23.8360 C   0  0  1  0  0  0
  -27.2118  -27.2692   20.1416 C   0  0  0  0  0  0
  -25.5931  -33.8580   24.2287 N   0  0  0  0  0  0
  -23.4227  -30.4836   21.5490 C   0  0  2  0  0  0
  -24.8662  -28.9383   20.1094 C   0  0  0  0  0  0
  -22.7473  -29.4610   22.4930 C   0  0  0  0  0  0
  -18.0310  -28.1304   22.8465 C   0  0  0  0  0  0
  -24.1487  -36.7302   23.2631 C   0  0  0  0  0  0
  -25.9662  -30.7754   21.3797 C   0  0  0  0  0  0
  -26.0362  -29.3993   20.7252 C   0  0  0  0  0  0
  -27.2048  -28.5747   20.7361 C   0  0  0  0  0  0
  -26.0199  -26.8814   19.4803 C   0  0  0  0  0  0
  -24.8643  -27.6871   19.4780 C   0  0  0  0  0  0
  -23.6390  -29.8323   20.1586 C   0  0  0  0  0  0
  -25.4109  -36.3091   24.0334 C   0  0  1  0  0  0
  -20.5907  -28.3651   23.1238 C   0  0  2  0  0  0
  -20.6832  -26.9359   22.5379 C   0  0  0  0  0  0
  -19.5815  -26.6322   21.5189 C   0  0  0  0  0  0
  -18.1981  -26.7850   22.1584 C   0  0  0  0  0  0
  -19.1543  -28.8803   23.2857 C   0  0  0  0  0  0
  -18.9440  -30.1401   23.8855 C   0  0  0  0  0  0
  -17.6429  -30.6521   24.0507 C   0  0  0  0  0  0
  -25.9048  -34.9457   23.5112 C   0  0  0  0  0  0
  -16.5342  -29.9001   23.6262 C   0  0  0  0  0  0
  -16.7286  -28.6409   23.0319 C   0  0  0  0  0  0
  -26.4510  -31.6589   25.0729 C   0  0  0  0  0  0
  -25.3750  -31.3731   26.1470 C   0  0  0  0  0  0
  -27.0328  -30.3014   24.6163 C   0  0  0  0  0  0
  -27.6064  -32.4307   25.7498 C   0  0  0  0  0  0
  -27.5587  -37.1804   24.8467 C   0  0  0  0  0  0
  -21.4193  -29.3002   22.3614 N   0  0  0  0  0  0
  -26.4294  -37.3780   23.9415 N   0  0  0  0  0  0
  -24.6929  -31.0555   22.1020 N   0  0  0  0  0  0
  -23.4172  -28.8167   23.3051 O   0  0  0  0  0  0
  -28.3252  -26.4034   20.2540 O   0  0  0  0  0  0
  -26.5627  -34.8931   22.4679 O   0  0  0  0  0  0
  -23.5439  -32.1384   23.7351 O   0  0  0  0  0  0
  -31.5876  -17.6666   19.9118 C   0  0  0  0  0  0
  -32.0024  -18.9947   19.7202 C   0  0  0  0  0  0
  -29.4966  -18.4823   20.8393 C   0  0  0  0  0  0
  -29.9436  -19.8709   20.7091 C   0  0  0  0  0  0
  -30.3374  -17.3372   20.4898 C   0  0  0  0  0  0
  -31.2154  -20.0802   20.1290 C   0  0  0  0  0  0
  -28.0874  -18.2211   21.3463 C   0  0  0  0  0  0
  -26.4134  -21.9217   19.9131 C   0  0  0  0  0  0
  -29.2012  -21.1676   21.2686 C   0  0  0  0  0  0
  -27.8450  -21.9430   19.3370 C   0  0  0  0  0  0
  -28.7597  -23.7620   20.8877 C   0  0  0  0  0  0
  -28.2593  -24.9447   19.9033 C   0  0  0  0  0  0
  -29.9529  -15.9041   20.6729 N   0  0  0  0  0  0
  -28.8967  -22.3292   20.3130 N   0  3  1  0  0  0
  -31.8601  -21.6700   19.9000 Cl  0  0  0  0  0  0
  -31.4680  -12.5324   19.1851 H   0  0  0  0  0  0
  -30.3505  -11.4737   19.9913 H   0  0  0  0  0  0
  -29.7859  -11.6908   17.5479 H   0  0  0  0  0  0
  -29.6501  -13.4210   17.7146 H   0  0  0  0  0  0
  -27.8884  -11.2785   18.9363 H   0  0  0  0  0  0
  -27.3804  -12.5057   17.8078 H   0  0  0  0  0  0
  -27.6256  -14.2531   19.4402 H   0  0  0  0  0  0
  -28.7168  -12.2274   21.4639 H   0  0  0  0  0  0
  -28.4272  -13.9236   21.7648 H   0  0  0  0  0  0
  -25.2768   -9.5700   22.4775 H   0  0  0  0  0  0
  -23.9984   -7.4655   22.7483 H   0  0  0  0  0  0
  -21.0822   -8.8810   19.8981 H   0  0  0  0  0  0
  -22.3687  -10.9692   19.6180 H   0  0  0  0  0  0
  -21.2017   -7.6166   23.9715 H   0  0  0  0  0  0
  -21.1453   -6.0527   25.9073 H   0  0  0  0  0  0
  -22.0597   -2.7604   23.2856 H   0  0  0  0  0  0
  -22.4078  -11.9875   22.4859 H   0  0  0  0  0  0
  -21.1102  -13.1244   22.2700 H   0  0  0  0  0  0
  -24.6413  -15.8414   20.4768 H   0  0  0  0  0  0
  -26.2357  -15.6135   19.9758 H   0  0  0  0  0  0
  -26.7170  -32.5444   23.1070 H   0  0  0  0  0  0
  -25.0025  -33.9718   25.0402 H   0  0  0  0  0  0
  -22.7180  -31.3076   21.4163 H   0  0  0  0  0  0
  -23.3748  -35.9628   23.3280 H   0  0  0  0  0  0
  -24.3583  -36.8929   22.2044 H   0  0  0  0  0  0
  -23.7238  -37.6501   23.6651 H   0  0  0  0  0  0
  -26.0918  -31.5325   20.6040 H   0  0  0  0  0  0
  -26.8466  -30.8302   22.0064 H   0  0  0  0  0  0
  -28.0929  -28.9198   21.2475 H   0  0  0  0  0  0
  -25.9075  -25.9438   18.9623 H   0  0  0  0  0  0
  -23.9727  -27.3281   18.9832 H   0  0  0  0  0  0
  -23.7705  -30.6213   19.4178 H   0  0  0  0  0  0
  -22.7493  -29.2811   19.8477 H   0  0  0  0  0  0
  -25.1268  -36.1941   25.0822 H   0  0  0  0  0  0
  -21.0008  -28.3235   24.1345 H   0  0  0  0  0  0
  -20.5793  -26.2232   23.3567 H   0  0  0  0  0  0
  -21.6699  -26.7418   22.1148 H   0  0  0  0  0  0
  -19.6998  -25.6230   21.1232 H   0  0  0  0  0  0
  -19.6785  -27.3088   20.6703 H   0  0  0  0  0  0
  -17.4273  -26.6568   21.3964 H   0  0  0  0  0  0
  -18.0400  -25.9974   22.8953 H   0  0  0  0  0  0
  -19.7900  -30.7227   24.2226 H   0  0  0  0  0  0
  -17.4963  -31.6208   24.5065 H   0  0  0  0  0  0
  -15.5329  -30.2886   23.7526 H   0  0  0  0  0  0
  -15.8704  -28.0683   22.7028 H   0  0  0  0  0  0
  -24.5915  -30.7089   25.7823 H   0  0  0  0  0  0
  -24.8971  -32.2894   26.4929 H   0  0  0  0  0  0
  -25.8099  -30.8899   27.0226 H   0  0  0  0  0  0
  -26.2895  -29.6791   24.1178 H   0  0  0  0  0  0
  -27.4012  -29.7253   25.4655 H   0  0  0  0  0  0
  -27.8761  -30.4302   23.9378 H   0  0  0  0  0  0
  -27.2665  -33.3566   26.2138 H   0  0  0  0  0  0
  -28.3840  -32.6932   25.0321 H   0  0  0  0  0  0
  -28.0760  -31.8408   26.5371 H   0  0  0  0  0  0
  -28.2596  -38.0107   24.7500 H   0  0  0  0  0  0
  -28.1098  -36.2641   24.6288 H   0  0  0  0  0  0
  -27.2324  -37.1440   25.8878 H   0  0  0  0  0  0
  -20.9337  -29.8641   21.6780 H   0  0  0  0  0  0
  -26.0184  -38.2850   24.1433 H   0  0  0  0  0  0
  -32.2802  -16.9176   19.5681 H   0  0  0  0  0  0
  -32.9620  -19.1895   19.2618 H   0  0  0  0  0  0
  -27.3932  -18.9564   20.9404 H   0  0  0  0  0  0
  -28.0519  -18.2686   22.4339 H   0  0  0  0  0  0
  -27.7123  -17.2498   21.0273 H   0  0  0  0  0  0
  -25.7052  -21.6479   19.1303 H   0  0  0  0  0  0
  -26.0894  -22.8853   20.3077 H   0  0  0  0  0  0
  -26.2943  -21.1823   20.7023 H   0  0  0  0  0  0
  -29.8459  -21.5597   22.0555 H   0  0  0  0  0  0
  -28.2948  -20.8906   21.8033 H   0  0  0  0  0  0
  -27.8983  -22.6145   18.4838 H   0  0  0  0  0  0
  -28.0786  -20.9548   18.9339 H   0  0  0  0  0  0
  -28.0860  -23.7213   21.7439 H   0  0  0  0  0  0
  -29.7303  -24.0407   21.2989 H   0  0  0  0  0  0
  -27.2452  -24.6588   19.6621 H   0  0  0  0  0  0
  -28.8093  -24.8469   18.9678 H   0  0  0  0  0  0
  -28.9931  -15.7595   20.9444 H   0  0  0  0  0  0
  -29.7484  -22.3748   19.7680 H   0  0  0  0  0  0
  1 25  1  0  0  0
  1 30  2  0  0  0
  1 83  1  0  0  0
  2  3  1  0  0  0
  2 25  1  0  0  0
  2 86  1  0  0  0
  2 87  1  0  0  0
  3  4  1  0  0  0
  3 88  1  0  0  0
  3 89  1  0  0  0
  4  5  1  0  0  0
  4 90  1  0  0  0
  4 91  1  0  0  0
  5  6  1  0  0  0
  5 26  1  0  0  0
  5 92  1  0  0  0
  6 25  1  0  0  0
  6 93  1  0  0  0
  6 94  1  0  0  0
  7  8  2  0  0  0
  7 26  1  0  0  0
  7 29  1  0  0  0
  8  9  1  0  0  0
  8 22  1  0  0  0
  9 10  1  0  0  0
  9 27  2  0  0  0
 10 11  2  0  0  0
 10 15  1  0  0  0
 11 12  1  0  0  0
 11 95  1  0  0  0
 12 13  2  0  0  0
 12 96  1  0  0  0
 13 14  1  0  0  0
 13 31  1  0  0  0
 14 15  2  0  0  0
 14 97  1  0  0  0
 15 98  1  0  0  0
 16 17  2  0  0  0
 16 21  1  0  0  0
 16 31  1  0  0  0
 17 18  1  0  0  0
 17 99  1  0  0  0
 18 19  2  0  0  0
 18100  1  0  0  0
 19 20  1  0  0  0
 19 24  1  0  0  0
 20 21  2  0  0  0
 20101  1  0  0  0
 21 23  1  0  0  0
 22 28  1  0  0  0
 22 32  2  0  0  0
 26 27  1  0  0  0
 28102  1  0  0  0
 28103  1  0  0  0
 29104  1  0  0  0
 29105  1  0  0  0
 33 34  1  0  0  0
 33 66  1  0  0  0
 33 70  2  0  0  0
 34 36  1  0  0  0
 34 59  1  0  0  0
 34106  1  0  0  0
 35 44  2  0  0  0
 35 45  1  0  0  0
 35 68  1  0  0  0
 36 56  1  0  0  0
 36107  1  0  0  0
 37 39  1  0  0  0
 37 47  1  0  0  0
 37 66  1  0  0  0
 37108  1  0  0  0
 38 43  2  0  0  0
 38 46  1  0  0  0
 38 47  1  0  0  0
 39 64  1  0  0  0
 39 67  2  0  0  0
 40 52  1  0  0  0
 40 53  2  0  0  0
 40 58  1  0  0  0
 41109  1  0  0  0
 41110  1  0  0  0
 41111  1  0  0  0
 41 48  1  0  0  0
 42 43  1  0  0  0
 42 66  1  0  0  0
 42112  1  0  0  0
 42113  1  0  0  0
 43 44  1  0  0  0
 44114  1  0  0  0
 45 46  2  0  0  0
 45115  1  0  0  0
 46116  1  0  0  0
 47117  1  0  0  0
 47118  1  0  0  0
 48 56  1  0  0  0
 48 65  1  0  0  0
 48119  1  0  0  0
 49 50  1  0  0  0
 49 53  1  0  0  0
 49 64  1  0  0  0
 49120  1  0  0  0
 50 51  1  0  0  0
 50121  1  0  0  0
 50122  1  0  0  0
 51 52  1  0  0  0
 51123  1  0  0  0
 51124  1  0  0  0
 52125  1  0  0  0
 52126  1  0  0  0
 53 54  1  0  0  0
 54 55  2  0  0  0
 54127  1  0  0  0
 55 57  1  0  0  0
 55128  1  0  0  0
 56 69  2  0  0  0
 57 58  2  0  0  0
 57129  1  0  0  0
 58130  1  0  0  0
 59 60  1  0  0  0
 59 61  1  0  0  0
 59 62  1  0  0  0
 60131  1  0  0  0
 60132  1  0  0  0
 60133  1  0  0  0
 61134  1  0  0  0
 61135  1  0  0  0
 61136  1  0  0  0
 62137  1  0  0  0
 62138  1  0  0  0
 62139  1  0  0  0
 63 65  1  0  0  0
 63140  1  0  0  0
 63141  1  0  0  0
 63142  1  0  0  0
 64143  1  0  0  0
 65144  1  0  0  0
 68 82  1  0  0  0
 71 72  2  0  0  0
 71 75  1  0  0  0
 71145  1  0  0  0
 72 76  1  0  0  0
 72146  1  0  0  0
 73 74  1  0  0  0
 73 75  2  0  0  0
 73 77  1  0  0  0
 74 76  2  0  0  0
 74 79  1  0  0  0
 75 83  1  0  0  0
 76 85  1  0  0  0
 77147  1  0  0  0
 77148  1  0  0  0
 77149  1  0  0  0
 78 80  1  0  0  0
 78150  1  0  0  0
 78151  1  0  0  0
 78152  1  0  0  0
 79153  1  0  0  0
 79154  1  0  0  0
 79 84  1  0  0  0
 80 84  1  0  0  0
 80155  1  0  0  0
 80156  1  0  0  0
 81 82  1  0  0  0
 81 84  1  0  0  0
 81157  1  0  0  0
 81158  1  0  0  0
 82159  1  0  0  0
 82160  1  0  0  0
 83161  1  0  0  0
 84162  1  0  0  0
M  CHG  1  84   1
M  ISO  4   1 100  68 101  82 101  83 100
M  END
> <chiral flag>
0

> <version>
0

> <s_m_source_file>
/data/baiqing/PycharmProjects/Reinvent-master-3.2/result/LINK_invent/BTK/process_docking_weight1_custom_product_contain_oxygen_bond_distance_aromatic_linkinvent_7_9_3/rearranged_h_0042.sdf

> <i_m_source_file_index>
56

> <r_mmod_Potential_Energy-OPLS-2005>
43.7065696716309

> <r_mmod_Stretch_Energy-OPLS-2005>
124.979782104492

> <r_mmod_Bend_Energy-OPLS-2005>
173.109588623047

> <r_mmod_Torsional_Energy-OPLS-2005>
219.806579589844

> <r_mmod_Improper_Torsional_Energy-OPLS-2005>
4.82941341400146

> <r_mmod_Van_der_Waal_Energy-OPLS-2005>
153.856979370117

> <r_mmod_Electrostatic_Energy-OPLS-2005>
-288.930541992188

> <r_mmod_Solvation_Energy-OPLS-2005>
-426.201568603516

> <b_mmod_Minimization_Converged-OPLS-2005>
0

> <r_mmod_RMS_Derivative-OPLS-2005>
4.30449199676514

$$$$
56
                    3D
 Structure written by MMmdl.
163172  0  0  1  0            999 V2000
  -30.6343  -14.6418   20.4935 C   0  0  0  0  0  0
  -30.4354  -12.3970   19.4391 C   0  0  0  0  0  0
  -29.5004  -12.4977   18.2146 C   0  0  0  0  0  0
  -28.0255  -12.3346   18.6344 C   0  0  0  0  0  0
  -27.6486  -13.2164   19.8545 C   0  0  2  0  0  0
  -28.6977  -13.0909   20.9806 C   0  0  0  0  0  0
  -25.2555  -13.8173   20.5692 C   0  0  0  0  0  0
  -24.1827  -13.0436   20.9206 C   0  0  0  0  0  0
  -24.6398  -11.6907   20.8753 C   0  0  0  0  0  0
  -23.9070  -10.4292   21.0415 C   0  0  0  0  0  0
  -24.3620   -9.4207   21.9191 C   0  0  0  0  0  0
  -23.6298   -8.2242   22.0756 C   0  0  0  0  0  0
  -22.4280   -8.0284   21.3546 C   0  0  0  0  0  0
  -21.9917   -9.0259   20.4648 C   0  0  0  0  0  0
  -22.7246  -10.2136   20.3062 C   0  0  0  0  0  0
  -21.6851   -6.0743   22.5279 C   0  0  0  0  0  0
  -21.4014   -6.5643   23.8215 C   0  0  0  0  0  0
  -21.3658   -5.6795   24.9177 C   0  0  0  0  0  0
  -21.6041   -4.3056   24.7223 C   0  0  0  0  0  0
  -21.8819   -3.8150   23.4344 C   0  0  0  0  0  0
  -21.9194   -4.6972   22.3403 C   0  0  0  0  0  0
  -22.7846  -13.5229   21.1867 C   0  0  0  0  0  0
  -22.1661   -4.2156   21.0981 F   0  0  0  0  0  0
  -21.5629   -3.4539   25.7736 F   0  0  0  0  0  0
  -30.0056  -13.4290   20.4005 N   0  0  0  0  0  0
  -26.2975  -12.9348   20.3304 N   0  0  0  0  0  0
  -25.9325  -11.6505   20.5766 N   0  0  0  0  0  0
  -22.0494  -12.8213   22.0421 N   0  0  0  0  0  0
  -25.4250  -15.1897   20.4087 N   0  0  0  0  0  0
  -31.8185  -14.7802   20.1793 O   0  0  0  0  0  0
  -21.6637   -6.8885   21.4242 O   0  0  0  0  0  0
  -22.3527  -14.5539   20.6726 O   0  0  0  0  0  0
  -24.6260  -31.8599   23.2035 C   0  0  0  0  0  0
  -25.9107  -32.4778   23.8360 C   0  0  1  0  0  0
  -27.2258  -27.3270   20.1086 C   0  0  0  0  0  0
  -25.5925  -33.8583   24.2290 N   0  0  0  0  0  0
  -23.4193  -30.4843   21.5461 C   0  0  2  0  0  0
  -24.8637  -28.9407   20.1121 C   0  0  0  0  0  0
  -22.7477  -29.4628   22.4945 C   0  0  0  0  0  0
  -18.0286  -28.1384   22.8492 C   0  0  0  0  0  0
  -24.1487  -36.7292   23.2646 C   0  0  0  0  0  0
  -25.9603  -30.7940   21.3715 C   0  0  0  0  0  0
  -26.0343  -29.4237   20.7100 C   0  0  0  0  0  0
  -27.2195  -28.6316   20.6919 C   0  0  0  0  0  0
  -26.0256  -26.8892   19.5053 C   0  0  0  0  0  0
  -24.8614  -27.6781   19.5016 C   0  0  0  0  0  0
  -23.6327  -29.8209   20.1610 C   0  0  0  0  0  0
  -25.4108  -36.3080   24.0338 C   0  0  1  0  0  0
  -20.5884  -28.3683   23.1285 C   0  0  2  0  0  0
  -20.6771  -26.9405   22.5411 C   0  0  0  0  0  0
  -19.5743  -26.6379   21.5218 C   0  0  0  0  0  0
  -18.1925  -26.7931   22.1625 C   0  0  0  0  0  0
  -19.1538  -28.8850   23.2889 C   0  0  0  0  0  0
  -18.9462  -30.1457   23.8898 C   0  0  0  0  0  0
  -17.6460  -30.6586   24.0574 C   0  0  0  0  0  0
  -25.9046  -34.9453   23.5109 C   0  0  0  0  0  0
  -16.5353  -29.9079   23.6337 C   0  0  0  0  0  0
  -16.7273  -28.6505   23.0352 C   0  0  0  0  0  0
  -26.4485  -31.6587   25.0733 C   0  0  0  0  0  0
  -25.3731  -31.3703   26.1469 C   0  0  0  0  0  0
  -27.0338  -30.3025   24.6172 C   0  0  0  0  0  0
  -27.6051  -32.4326   25.7486 C   0  0  0  0  0  0
  -27.5578  -37.1793   24.8466 C   0  0  0  0  0  0
  -21.4190  -29.3043   22.3695 N   0  0  0  0  0  0
  -26.4284  -37.3776   23.9419 N   0  0  0  0  0  0
  -24.6874  -31.0625   22.0972 N   0  0  0  0  0  0
  -23.4208  -28.8171   23.3020 O   0  0  0  0  0  0
  -28.3597  -26.5012   20.1318 O   0  0  0  0  0  0
  -26.5622  -34.8913   22.4678 O   0  0  0  0  0  0
  -23.5424  -32.1388   23.7363 O   0  0  0  0  0  0
  -30.4607  -18.1544   18.8623 C   0  0  0  0  0  0
  -30.4806  -19.2263   17.9567 C   0  0  0  0  0  0
  -29.9948  -18.3317   20.1774 C   0  0  0  0  0  0
  -29.4859  -19.6431   20.5444 C   0  0  0  0  0  0
  -29.4722  -20.7550   19.6116 C   0  0  0  0  0  0
  -30.0219  -20.5066   18.3189 C   0  0  0  0  0  0
  -27.9902  -22.7173   19.1041 C   0  0  0  0  0  0
  -26.9736  -22.0483   18.5330 C   0  0  0  0  0  0
  -28.1617  -24.2404   18.8908 C   0  0  0  0  0  0
  -29.2579  -24.3251   21.1390 C   0  0  0  0  0  0
  -29.8809  -22.9643   20.6294 C   0  0  0  0  0  0
  -28.1995  -25.0275   20.2248 C   0  0  1  0  0  0
  -28.9422  -19.8539   21.9506 C   0  0  0  0  0  0
  -30.2031  -17.1258   21.1649 C   0  0  0  0  0  0
  -28.9513  -22.0742   19.9069 N   0  0  0  0  0  0
  -29.8404  -15.7201   20.7740 N   0  0  0  0  0  0
  -30.2038  -21.7555   17.1311 Cl  0  0  0  0  0  0
  -31.4750  -12.5258   19.1326 H   0  0  0  0  0  0
  -30.3747  -11.4064   19.8930 H   0  0  0  0  0  0
  -29.7634  -11.7396   17.4758 H   0  0  0  0  0  0
  -29.6362  -13.4626   17.7235 H   0  0  0  0  0  0
  -27.8683  -11.2830   18.8778 H   0  0  0  0  0  0
  -27.3658  -12.5517   17.7938 H   0  0  0  0  0  0
  -27.6594  -14.2471   19.5001 H   0  0  0  0  0  0
  -28.7150  -12.0772   21.3823 H   0  0  0  0  0  0
  -28.4493  -13.7414   21.8209 H   0  0  0  0  0  0
  -25.2765   -9.5680   22.4765 H   0  0  0  0  0  0
  -24.0009   -7.4627   22.7468 H   0  0  0  0  0  0
  -21.0852   -8.8776   19.8947 H   0  0  0  0  0  0
  -22.3710  -10.9678   19.6169 H   0  0  0  0  0  0
  -21.2003   -7.6148   23.9723 H   0  0  0  0  0  0
  -21.1478   -6.0521   25.9079 H   0  0  0  0  0  0
  -22.0599   -2.7614   23.2840 H   0  0  0  0  0  0
  -22.4107  -11.9863   22.4789 H   0  0  0  0  0  0
  -21.1113  -13.1234   22.2642 H   0  0  0  0  0  0
  -24.6548  -15.8410   20.5150 H   0  0  0  0  0  0
  -26.2667  -15.6296   20.0580 H   0  0  0  0  0  0
  -26.7180  -32.5433   23.1107 H   0  0  0  0  0  0
  -25.0077  -33.9737   25.0439 H   0  0  0  0  0  0
  -22.7133  -31.3051   21.4029 H   0  0  0  0  0  0
  -23.3749  -35.9626   23.3304 H   0  0  0  0  0  0
  -24.3583  -36.8915   22.2063 H   0  0  0  0  0  0
  -23.7233  -37.6491   23.6667 H   0  0  0  0  0  0
  -26.0943  -31.5595   20.6049 H   0  0  0  0  0  0
  -26.8404  -30.8388   22.0011 H   0  0  0  0  0  0
  -28.1197  -29.0040   21.1603 H   0  0  0  0  0  0
  -25.9563  -25.9212   19.0384 H   0  0  0  0  0  0
  -23.9622  -27.2993   19.0356 H   0  0  0  0  0  0
  -23.7520  -30.5984   19.4050 H   0  0  0  0  0  0
  -22.7523  -29.2512   19.8572 H   0  0  0  0  0  0
  -25.1279  -36.1940   25.0831 H   0  0  0  0  0  0
  -20.9978  -28.3250   24.1402 H   0  0  0  0  0  0
  -20.5679  -26.2290   23.3614 H   0  0  0  0  0  0
  -21.6639  -26.7444   22.1194 H   0  0  0  0  0  0
  -19.6912  -25.6293   21.1236 H   0  0  0  0  0  0
  -19.6678  -27.3205   20.6764 H   0  0  0  0  0  0
  -17.4196  -26.6694   21.4025 H   0  0  0  0  0  0
  -18.0324  -26.0072   22.9015 H   0  0  0  0  0  0
  -19.7941  -30.7284   24.2252 H   0  0  0  0  0  0
  -17.5010  -31.6268   24.5179 H   0  0  0  0  0  0
  -15.5350  -30.2981   23.7656 H   0  0  0  0  0  0
  -15.8678  -28.0824   22.7048 H   0  0  0  0  0  0
  -24.5917  -30.7034   25.7802 H   0  0  0  0  0  0
  -24.8904  -32.2854   26.4921 H   0  0  0  0  0  0
  -25.8071  -30.8869   27.0237 H   0  0  0  0  0  0
  -26.2902  -29.6764   24.1222 H   0  0  0  0  0  0
  -27.4083  -29.7289   25.4664 H   0  0  0  0  0  0
  -27.8752  -30.4334   23.9362 H   0  0  0  0  0  0
  -27.2677  -33.3647   26.2038 H   0  0  0  0  0  0
  -28.3855  -32.6861   25.0296 H   0  0  0  0  0  0
  -28.0726  -31.8467   26.5409 H   0  0  0  0  0  0
  -28.2580  -38.0109   24.7533 H   0  0  0  0  0  0
  -28.1078  -36.2630   24.6249 H   0  0  0  0  0  0
  -27.2300  -37.1403   25.8873 H   0  0  0  0  0  0
  -20.9368  -29.8780   21.6918 H   0  0  0  0  0  0
  -26.0162  -38.2849   24.1431 H   0  0  0  0  0  0
  -30.8611  -17.1986   18.5540 H   0  0  0  0  0  0
  -30.8842  -19.0727   16.9657 H   0  0  0  0  0  0
  -26.2462  -22.5529   17.9121 H   0  0  0  0  0  0
  -26.8423  -20.9850   18.6738 H   0  0  0  0  0  0
  -27.3788  -24.6062   18.2303 H   0  0  0  0  0  0
  -29.0903  -24.4080   18.3438 H   0  0  0  0  0  0
  -30.0761  -25.0178   21.3372 H   0  0  0  0  0  0
  -28.7973  -24.1516   22.1131 H   0  0  0  0  0  0
  -30.3275  -22.4320   21.4698 H   0  0  0  0  0  0
  -30.7036  -23.1951   19.9499 H   0  0  0  0  0  0
  -27.2396  -24.8409   20.7097 H   0  0  0  0  0  0
  -29.7549  -19.8498   22.6764 H   0  0  0  0  0  0
  -28.2356  -19.0659   22.2115 H   0  0  0  0  0  0
  -28.4065  -20.7963   22.0565 H   0  0  0  0  0  0
  -29.6779  -17.3230   22.0977 H   0  0  0  0  0  0
  -31.2594  -17.1303   21.4382 H   0  0  0  0  0  0
  -28.8670  -15.4914   20.9007 H   0  0  0  0  0  0
  1 25  1  0  0  0
  1 30  2  0  0  0
  1 86  1  0  0  0
  2  3  1  0  0  0
  2 25  1  0  0  0
  2 88  1  0  0  0
  2 89  1  0  0  0
  3  4  1  0  0  0
  3 90  1  0  0  0
  3 91  1  0  0  0
  4  5  1  0  0  0
  4 92  1  0  0  0
  4 93  1  0  0  0
  5  6  1  0  0  0
  5 26  1  0  0  0
  5 94  1  0  0  0
  6 25  1  0  0  0
  6 95  1  0  0  0
  6 96  1  0  0  0
  7  8  2  0  0  0
  7 26  1  0  0  0
  7 29  1  0  0  0
  8  9  1  0  0  0
  8 22  1  0  0  0
  9 10  1  0  0  0
  9 27  2  0  0  0
 10 11  2  0  0  0
 10 15  1  0  0  0
 11 12  1  0  0  0
 11 97  1  0  0  0
 12 13  2  0  0  0
 12 98  1  0  0  0
 13 14  1  0  0  0
 13 31  1  0  0  0
 14 15  2  0  0  0
 14 99  1  0  0  0
 15100  1  0  0  0
 16 17  2  0  0  0
 16 21  1  0  0  0
 16 31  1  0  0  0
 17 18  1  0  0  0
 17101  1  0  0  0
 18 19  2  0  0  0
 18102  1  0  0  0
 19 20  1  0  0  0
 19 24  1  0  0  0
 20 21  2  0  0  0
 20103  1  0  0  0
 21 23  1  0  0  0
 22 28  1  0  0  0
 22 32  2  0  0  0
 26 27  1  0  0  0
 28104  1  0  0  0
 28105  1  0  0  0
 29106  1  0  0  0
 29107  1  0  0  0
 33 34  1  0  0  0
 33 66  1  0  0  0
 33 70  2  0  0  0
 34 36  1  0  0  0
 34 59  1  0  0  0
 34108  1  0  0  0
 35 44  2  0  0  0
 35 45  1  0  0  0
 35 68  1  0  0  0
 36 56  1  0  0  0
 36109  1  0  0  0
 37 39  1  0  0  0
 37 47  1  0  0  0
 37 66  1  0  0  0
 37110  1  0  0  0
 38 43  2  0  0  0
 38 46  1  0  0  0
 38 47  1  0  0  0
 39 64  1  0  0  0
 39 67  2  0  0  0
 40 52  1  0  0  0
 40 53  2  0  0  0
 40 58  1  0  0  0
 41111  1  0  0  0
 41112  1  0  0  0
 41113  1  0  0  0
 41 48  1  0  0  0
 42 43  1  0  0  0
 42 66  1  0  0  0
 42114  1  0  0  0
 42115  1  0  0  0
 43 44  1  0  0  0
 44116  1  0  0  0
 45 46  2  0  0  0
 45117  1  0  0  0
 46118  1  0  0  0
 47119  1  0  0  0
 47120  1  0  0  0
 48 56  1  0  0  0
 48 65  1  0  0  0
 48121  1  0  0  0
 49 50  1  0  0  0
 49 53  1  0  0  0
 49 64  1  0  0  0
 49122  1  0  0  0
 50 51  1  0  0  0
 50123  1  0  0  0
 50124  1  0  0  0
 51 52  1  0  0  0
 51125  1  0  0  0
 51126  1  0  0  0
 52127  1  0  0  0
 52128  1  0  0  0
 53 54  1  0  0  0
 54 55  2  0  0  0
 54129  1  0  0  0
 55 57  1  0  0  0
 55130  1  0  0  0
 56 69  2  0  0  0
 57 58  2  0  0  0
 57131  1  0  0  0
 58132  1  0  0  0
 59 60  1  0  0  0
 59 61  1  0  0  0
 59 62  1  0  0  0
 60133  1  0  0  0
 60134  1  0  0  0
 60135  1  0  0  0
 61136  1  0  0  0
 61137  1  0  0  0
 61138  1  0  0  0
 62139  1  0  0  0
 62140  1  0  0  0
 62141  1  0  0  0
 63 65  1  0  0  0
 63142  1  0  0  0
 63143  1  0  0  0
 63144  1  0  0  0
 64145  1  0  0  0
 65146  1  0  0  0
 68 82  1  0  0  0
 71 72  2  0  0  0
 71 73  1  0  0  0
 71147  1  0  0  0
 72 76  1  0  0  0
 72148  1  0  0  0
 73 74  2  0  0  0
 73 84  1  0  0  0
 74 75  1  0  0  0
 74 83  1  0  0  0
 75 76  2  0  0  0
 75 85  1  0  0  0
 76 87  1  0  0  0
 77 78  2  0  0  0
 77 79  1  0  0  0
 77 85  1  0  0  0
 78149  1  0  0  0
 78150  1  0  0  0
 79 82  1  0  0  0
 79151  1  0  0  0
 79152  1  0  0  0
 80 81  1  0  0  0
 80 82  1  0  0  0
 80153  1  0  0  0
 80154  1  0  0  0
 81 85  1  0  0  0
 81155  1  0  0  0
 81156  1  0  0  0
 82157  1  0  0  0
 83158  1  0  0  0
 83159  1  0  0  0
 83160  1  0  0  0
 84 86  1  0  0  0
 84161  1  0  0  0
 84162  1  0  0  0
 86163  1  0  0  0
M  ISO  4   1 100  68 101  82 101  86 100
M  END
> <chiral flag>
0

> <version>
0

> <s_m_source_file>
/data/baiqing/PycharmProjects/Reinvent-master-3.2/result/LINK_invent/BTK/process_docking_weight1_custom_product_contain_oxygen_bond_distance_aromatic_linkinvent_7_9_3/rearranged_h_0042.sdf

> <i_m_source_file_index>
57

> <r_mmod_Potential_Energy-OPLS-2005>
81.0624160766602

> <r_mmod_Stretch_Energy-OPLS-2005>
84.2700653076172

> <r_mmod_Bend_Energy-OPLS-2005>
136.377258300781

> <r_mmod_Torsional_Energy-OPLS-2005>
267.604064941406

> <r_mmod_Improper_Torsional_Energy-OPLS-2005>
6.67739105224609

> <r_mmod_Van_der_Waal_Energy-OPLS-2005>
155.003646850586

> <r_mmod_Electrostatic_Energy-OPLS-2005>
-410.899841308594

> <r_mmod_Solvation_Energy-OPLS-2005>
-205.597854614258

> <b_mmod_Minimization_Converged-OPLS-2005>
0

> <r_mmod_RMS_Derivative-OPLS-2005>
1.43834376335144

$$$$
57
                    3D
 Structure written by MMmdl.
156164  0  0  1  0            999 V2000
  -30.6581  -14.5558   20.5658 C   0  0  0  0  0  0
  -30.4232  -12.3564   19.4327 C   0  0  0  0  0  0
  -29.4956  -12.4982   18.2093 C   0  0  0  0  0  0
  -28.0235  -12.3166   18.6314 C   0  0  0  0  0  0
  -27.6464  -13.1961   19.8527 C   0  0  2  0  0  0
  -28.6847  -13.0504   20.9851 C   0  0  0  0  0  0
  -25.2578  -13.8124   20.5689 C   0  0  0  0  0  0
  -24.1841  -13.0432   20.9193 C   0  0  0  0  0  0
  -24.6381  -11.6896   20.8743 C   0  0  0  0  0  0
  -23.9030  -10.4300   21.0392 C   0  0  0  0  0  0
  -24.3599   -9.4224   21.9174 C   0  0  0  0  0  0
  -23.6264   -8.2254   22.0740 C   0  0  0  0  0  0
  -22.4240   -8.0306   21.3531 C   0  0  0  0  0  0
  -21.9884   -9.0272   20.4625 C   0  0  0  0  0  0
  -22.7198  -10.2151   20.3027 C   0  0  0  0  0  0
  -21.6861   -6.0738   22.5270 C   0  0  0  0  0  0
  -21.4030   -6.5636   23.8203 C   0  0  0  0  0  0
  -21.3650   -5.6783   24.9157 C   0  0  0  0  0  0
  -21.6034   -4.3050   24.7214 C   0  0  0  0  0  0
  -21.8814   -3.8146   23.4334 C   0  0  0  0  0  0
  -21.9188   -4.6961   22.3390 C   0  0  0  0  0  0
  -22.7883  -13.5241   21.1863 C   0  0  0  0  0  0
  -22.1665   -4.2149   21.0968 F   0  0  0  0  0  0
  -21.5604   -3.4537   25.7725 F   0  0  0  0  0  0
  -30.0026  -13.3713   20.4120 N   0  0  0  0  0  0
  -26.2960  -12.9263   20.3237 N   0  0  0  0  0  0
  -25.9294  -11.6449   20.5719 N   0  0  0  0  0  0
  -22.0552  -12.8206   22.0413 N   0  0  0  0  0  0
  -25.4306  -15.1846   20.4127 N   0  0  0  0  0  0
  -31.8353  -14.7100   20.2335 O   0  0  0  0  0  0
  -21.6619   -6.8896   21.4233 O   0  0  0  0  0  0
  -22.3567  -14.5557   20.6721 O   0  0  0  0  0  0
  -24.6252  -31.8602   23.2040 C   0  0  0  0  0  0
  -25.9109  -32.4778   23.8374 C   0  0  1  0  0  0
  -27.2311  -27.3647   20.1243 C   0  0  0  0  0  0
  -25.5900  -33.8563   24.2280 N   0  0  0  0  0  0
  -23.4128  -30.4884   21.5416 C   0  0  2  0  0  0
  -24.8619  -28.9408   20.1161 C   0  0  0  0  0  0
  -22.7397  -29.4719   22.4941 C   0  0  0  0  0  0
  -18.0288  -28.1419   22.8445 C   0  0  0  0  0  0
  -24.1490  -36.7313   23.2639 C   0  0  0  0  0  0
  -25.9483  -30.8076   21.3652 C   0  0  0  0  0  0
  -26.0267  -29.4366   20.7164 C   0  0  0  0  0  0
  -27.2146  -28.6577   20.7137 C   0  0  0  0  0  0
  -26.0493  -26.8981   19.5126 C   0  0  0  0  0  0
  -24.8701  -27.6709   19.5124 C   0  0  0  0  0  0
  -23.6304  -29.8164   20.1595 C   0  0  0  0  0  0
  -25.4098  -36.3067   24.0330 C   0  0  1  0  0  0
  -20.5877  -28.3803   23.1359 C   0  0  2  0  0  0
  -20.6812  -26.9522   22.5513 C   0  0  0  0  0  0
  -19.5850  -26.6493   21.5252 C   0  0  0  0  0  0
  -18.1992  -26.7990   22.1588 C   0  0  0  0  0  0
  -19.1504  -28.8904   23.2920 C   0  0  0  0  0  0
  -18.9370  -30.1513   23.8919 C   0  0  0  0  0  0
  -17.6338  -30.6572   24.0588 C   0  0  0  0  0  0
  -25.9007  -34.9449   23.5092 C   0  0  0  0  0  0
  -16.5278  -29.9045   23.6255 C   0  0  0  0  0  0
  -16.7263  -28.6528   23.0198 C   0  0  0  0  0  0
  -26.4529  -31.6565   25.0730 C   0  0  0  0  0  0
  -25.3802  -31.3702   26.1482 C   0  0  0  0  0  0
  -27.0363  -30.2983   24.6176 C   0  0  0  0  0  0
  -27.6077  -32.4304   25.7516 C   0  0  0  0  0  0
  -27.5575  -37.1827   24.8464 C   0  0  0  0  0  0
  -21.4106  -29.3168   22.3708 N   0  0  0  0  0  0
  -26.4285  -37.3760   23.9394 N   0  0  0  0  0  0
  -24.6813  -31.0686   22.0943 N   0  0  0  0  0  0
  -23.4120  -28.8228   23.2985 O   0  0  0  0  0  0
  -28.3681  -26.5660   20.1194 O   0  0  0  0  0  0
  -26.5615  -34.8926   22.4691 O   0  0  0  0  0  0
  -23.5423  -32.1362   23.7379 O   0  0  0  0  0  0
  -31.3531  -18.6709   22.7917 C   0  0  0  0  0  0
  -30.9898  -20.9172   21.9516 C   0  0  0  0  0  0
  -30.4800  -18.1106   21.8303 C   0  0  0  0  0  0
  -30.0659  -20.4373   20.9970 C   0  0  0  0  0  0
  -31.6167  -20.0447   22.8508 C   0  0  0  0  0  0
  -29.8238  -19.0109   20.9187 C   0  0  0  0  0  0
  -30.2768  -16.5717   22.0219 C   0  0  0  0  0  0
  -29.4375  -21.5033   20.0560 C   0  0  0  0  0  0
  -28.7922  -24.0064   19.9239 C   0  0  0  0  0  0
  -28.2453  -25.2434   20.7338 C   0  0  0  0  0  0
  -29.8976  -15.6009   20.9755 N   0  0  0  0  0  0
  -28.9526  -22.7479   20.7503 N   0  3  0  0  0  0
  -32.7010  -20.6597   24.0415 Cl  0  0  0  0  0  0
  -28.7413  -18.3868   19.7225 Cl  0  0  0  0  0  0
  -31.4659  -12.4753   19.1356 H   0  0  0  0  0  0
  -30.3427  -11.3565   19.8619 H   0  0  0  0  0  0
  -29.7660  -11.7682   17.4449 H   0  0  0  0  0  0
  -29.6250  -13.4844   17.7584 H   0  0  0  0  0  0
  -27.8849  -11.2622   18.8783 H   0  0  0  0  0  0
  -27.3571  -12.5215   17.7905 H   0  0  0  0  0  0
  -27.6703  -14.2273   19.5052 H   0  0  0  0  0  0
  -28.6805  -12.0420   21.3990 H   0  0  0  0  0  0
  -28.4274  -13.7113   21.8153 H   0  0  0  0  0  0
  -25.2773   -9.5698   22.4709 H   0  0  0  0  0  0
  -23.9997   -7.4645   22.7472 H   0  0  0  0  0  0
  -21.0810   -8.8785   19.8918 H   0  0  0  0  0  0
  -22.3685  -10.9691   19.6114 H   0  0  0  0  0  0
  -21.2046   -7.6150   23.9694 H   0  0  0  0  0  0
  -21.1467   -6.0525   25.9052 H   0  0  0  0  0  0
  -22.0600   -2.7614   23.2823 H   0  0  0  0  0  0
  -22.4199  -11.9866   22.4739 H   0  0  0  0  0  0
  -21.1162  -13.1190   22.2644 H   0  0  0  0  0  0
  -24.6567  -15.8329   20.5030 H   0  0  0  0  0  0
  -26.2710  -15.6257   20.0615 H   0  0  0  0  0  0
  -26.7198  -32.5509   23.1151 H   0  0  0  0  0  0
  -25.0104  -33.9708   25.0457 H   0  0  0  0  0  0
  -22.7125  -31.3143   21.3974 H   0  0  0  0  0  0
  -23.3725  -35.9677   23.3289 H   0  0  0  0  0  0
  -24.3595  -36.8939   22.2062 H   0  0  0  0  0  0
  -23.7300  -37.6539   23.6652 H   0  0  0  0  0  0
  -26.0766  -31.5609   20.5888 H   0  0  0  0  0  0
  -26.8324  -30.8566   21.9876 H   0  0  0  0  0  0
  -28.1097  -29.0302   21.1895 H   0  0  0  0  0  0
  -26.0308  -25.9233   19.0420 H   0  0  0  0  0  0
  -23.9763  -27.2792   19.0452 H   0  0  0  0  0  0
  -23.7564  -30.5917   19.4038 H   0  0  0  0  0  0
  -22.7496  -29.2510   19.8506 H   0  0  0  0  0  0
  -25.1286  -36.1924   25.0828 H   0  0  0  0  0  0
  -20.9964  -28.3512   24.1489 H   0  0  0  0  0  0
  -20.5711  -26.2469   23.3755 H   0  0  0  0  0  0
  -21.6725  -26.7549   22.1352 H   0  0  0  0  0  0
  -19.6994  -25.6399   21.1294 H   0  0  0  0  0  0
  -19.6858  -27.3319   20.6824 H   0  0  0  0  0  0
  -17.4336  -26.6778   21.3922 H   0  0  0  0  0  0
  -18.0322  -26.0095   22.8930 H   0  0  0  0  0  0
  -19.7789  -30.7362   24.2364 H   0  0  0  0  0  0
  -17.4809  -31.6200   24.5302 H   0  0  0  0  0  0
  -15.5266  -30.2933   23.7546 H   0  0  0  0  0  0
  -15.8700  -28.0859   22.6793 H   0  0  0  0  0  0
  -24.5982  -30.7022   25.7873 H   0  0  0  0  0  0
  -24.9009  -32.2861   26.4925 H   0  0  0  0  0  0
  -25.8170  -30.8924   27.0253 H   0  0  0  0  0  0
  -26.2939  -29.6742   24.1196 H   0  0  0  0  0  0
  -27.4043  -29.7230   25.4683 H   0  0  0  0  0  0
  -27.8797  -30.4249   23.9392 H   0  0  0  0  0  0
  -27.2667  -33.3575   26.2124 H   0  0  0  0  0  0
  -28.3887  -32.6916   25.0367 H   0  0  0  0  0  0
  -28.0741  -31.8435   26.5436 H   0  0  0  0  0  0
  -28.2595  -38.0124   24.7471 H   0  0  0  0  0  0
  -28.1059  -36.2656   24.6284 H   0  0  0  0  0  0
  -27.2301  -37.1479   25.8874 H   0  0  0  0  0  0
  -20.9279  -29.8845   21.6867 H   0  0  0  0  0  0
  -26.0152  -38.2826   24.1384 H   0  0  0  0  0  0
  -31.8476  -18.0415   23.5189 H   0  0  0  0  0  0
  -31.2412  -21.9668   22.0076 H   0  0  0  0  0  0
  -31.1670  -16.1734   22.5150 H   0  0  0  0  0  0
  -29.4931  -16.4692   22.7737 H   0  0  0  0  0  0
  -28.6250  -21.0851   19.4604 H   0  0  0  0  0  0
  -30.2269  -21.7828   19.3538 H   0  0  0  0  0  0
  -29.7619  -24.2674   19.4983 H   0  0  0  0  0  0
  -28.1347  -23.7987   19.0775 H   0  0  0  0  0  0
  -28.7848  -25.3151   21.6792 H   0  0  0  0  0  0
  -27.2151  -25.0332   21.0229 H   0  0  0  0  0  0
  -28.9097  -15.4061   20.9647 H   0  0  0  0  0  0
  -29.6240  -22.9449   21.4754 H   0  0  0  0  0  0
  -28.0827  -22.5185   21.2105 H   0  0  0  0  0  0
  1 25  1  0  0  0
  1 30  2  0  0  0
  1 81  1  0  0  0
  2  3  1  0  0  0
  2 25  1  0  0  0
  2 85  1  0  0  0
  2 86  1  0  0  0
  3  4  1  0  0  0
  3 87  1  0  0  0
  3 88  1  0  0  0
  4  5  1  0  0  0
  4 89  1  0  0  0
  4 90  1  0  0  0
  5  6  1  0  0  0
  5 26  1  0  0  0
  5 91  1  0  0  0
  6 25  1  0  0  0
  6 92  1  0  0  0
  6 93  1  0  0  0
  7  8  2  0  0  0
  7 26  1  0  0  0
  7 29  1  0  0  0
  8  9  1  0  0  0
  8 22  1  0  0  0
  9 10  1  0  0  0
  9 27  2  0  0  0
 10 11  2  0  0  0
 10 15  1  0  0  0
 11 12  1  0  0  0
 11 94  1  0  0  0
 12 13  2  0  0  0
 12 95  1  0  0  0
 13 14  1  0  0  0
 13 31  1  0  0  0
 14 15  2  0  0  0
 14 96  1  0  0  0
 15 97  1  0  0  0
 16 17  2  0  0  0
 16 21  1  0  0  0
 16 31  1  0  0  0
 17 18  1  0  0  0
 17 98  1  0  0  0
 18 19  2  0  0  0
 18 99  1  0  0  0
 19 20  1  0  0  0
 19 24  1  0  0  0
 20 21  2  0  0  0
 20100  1  0  0  0
 21 23  1  0  0  0
 22 28  1  0  0  0
 22 32  2  0  0  0
 26 27  1  0  0  0
 28101  1  0  0  0
 28102  1  0  0  0
 29103  1  0  0  0
 29104  1  0  0  0
 33 34  1  0  0  0
 33 66  1  0  0  0
 33 70  2  0  0  0
 34 36  1  0  0  0
 34 59  1  0  0  0
 34105  1  0  0  0
 35 44  2  0  0  0
 35 45  1  0  0  0
 35 68  1  0  0  0
 36 56  1  0  0  0
 36106  1  0  0  0
 37 39  1  0  0  0
 37 47  1  0  0  0
 37 66  1  0  0  0
 37107  1  0  0  0
 38 43  2  0  0  0
 38 46  1  0  0  0
 38 47  1  0  0  0
 39 64  1  0  0  0
 39 67  2  0  0  0
 40 52  1  0  0  0
 40 53  2  0  0  0
 40 58  1  0  0  0
 41108  1  0  0  0
 41109  1  0  0  0
 41110  1  0  0  0
 41 48  1  0  0  0
 42 43  1  0  0  0
 42 66  1  0  0  0
 42111  1  0  0  0
 42112  1  0  0  0
 43 44  1  0  0  0
 44113  1  0  0  0
 45 46  2  0  0  0
 45114  1  0  0  0
 46115  1  0  0  0
 47116  1  0  0  0
 47117  1  0  0  0
 48 56  1  0  0  0
 48 65  1  0  0  0
 48118  1  0  0  0
 49 50  1  0  0  0
 49 53  1  0  0  0
 49 64  1  0  0  0
 49119  1  0  0  0
 50 51  1  0  0  0
 50120  1  0  0  0
 50121  1  0  0  0
 51 52  1  0  0  0
 51122  1  0  0  0
 51123  1  0  0  0
 52124  1  0  0  0
 52125  1  0  0  0
 53 54  1  0  0  0
 54 55  2  0  0  0
 54126  1  0  0  0
 55 57  1  0  0  0
 55127  1  0  0  0
 56 69  2  0  0  0
 57 58  2  0  0  0
 57128  1  0  0  0
 58129  1  0  0  0
 59 60  1  0  0  0
 59 61  1  0  0  0
 59 62  1  0  0  0
 60130  1  0  0  0
 60131  1  0  0  0
 60132  1  0  0  0
 61133  1  0  0  0
 61134  1  0  0  0
 61135  1  0  0  0
 62136  1  0  0  0
 62137  1  0  0  0
 62138  1  0  0  0
 63 65  1  0  0  0
 63139  1  0  0  0
 63140  1  0  0  0
 63141  1  0  0  0
 64142  1  0  0  0
 65143  1  0  0  0
 68 80  1  0  0  0
 71 73  2  0  0  0
 71 75  1  0  0  0
 71144  1  0  0  0
 72 74  1  0  0  0
 72 75  2  0  0  0
 72145  1  0  0  0
 73 76  1  0  0  0
 73 77  1  0  0  0
 74 76  2  0  0  0
 74 78  1  0  0  0
 75 83  1  0  0  0
 76 84  1  0  0  0
 77 81  1  0  0  0
 77146  1  0  0  0
 77147  1  0  0  0
 78 82  1  0  0  0
 78148  1  0  0  0
 78149  1  0  0  0
 79 80  1  0  0  0
 79 82  1  0  0  0
 79150  1  0  0  0
 79151  1  0  0  0
 80152  1  0  0  0
 80153  1  0  0  0
 81154  1  0  0  0
 82155  1  0  0  0
 82156  1  0  0  0
M  CHG  1  82   1
M  ISO  4   1 100  68 101  80 101  81 100
M  END
> <chiral flag>
0

> <version>
0

> <s_m_source_file>
/data/baiqing/PycharmProjects/Reinvent-master-3.2/result/LINK_invent/BTK/process_docking_weight1_custom_product_contain_oxygen_bond_distance_aromatic_linkinvent_7_9_3/rearranged_h_0042.sdf

> <i_m_source_file_index>
58

> <r_mmod_Potential_Energy-OPLS-2005>
-177.8583984375

> <r_mmod_Stretch_Energy-OPLS-2005>
59.9648971557617

> <r_mmod_Bend_Energy-OPLS-2005>
138.600280761719

> <r_mmod_Torsional_Energy-OPLS-2005>
235.088272094727

> <r_mmod_Improper_Torsional_Energy-OPLS-2005>
6.19112062454224

> <r_mmod_Van_der_Waal_Energy-OPLS-2005>
140.872406005859

> <r_mmod_Electrostatic_Energy-OPLS-2005>
-315.780059814453

> <r_mmod_Solvation_Energy-OPLS-2005>
-474.218048095703

> <b_mmod_Minimization_Converged-OPLS-2005>
0

> <r_mmod_RMS_Derivative-OPLS-2005>
5.55038213729858

$$$$
58
                    3D
 Structure written by MMmdl.
156164  0  0  1  0            999 V2000
  -30.6745  -14.5539   20.5360 C   0  0  0  0  0  0
  -30.4237  -12.3469   19.4459 C   0  0  0  0  0  0
  -29.5041  -12.5065   18.2181 C   0  0  0  0  0  0
  -28.0228  -12.3625   18.6241 C   0  0  0  0  0  0
  -27.6569  -13.2138   19.8695 C   0  0  2  0  0  0
  -28.6995  -13.0417   20.9965 C   0  0  0  0  0  0
  -25.2612  -13.8181   20.5713 C   0  0  0  0  0  0
  -24.1865  -13.0453   20.9203 C   0  0  0  0  0  0
  -24.6418  -11.6917   20.8766 C   0  0  0  0  0  0
  -23.9077  -10.4311   21.0431 C   0  0  0  0  0  0
  -24.3636   -9.4224   21.9198 C   0  0  0  0  0  0
  -23.6324   -8.2247   22.0745 C   0  0  0  0  0  0
  -22.4298   -8.0292   21.3536 C   0  0  0  0  0  0
  -21.9931   -9.0271   20.4633 C   0  0  0  0  0  0
  -22.7257  -10.2157   20.3066 C   0  0  0  0  0  0
  -21.6856   -6.0763   22.5297 C   0  0  0  0  0  0
  -21.3996   -6.5656   23.8235 C   0  0  0  0  0  0
  -21.3662   -5.6800   24.9193 C   0  0  0  0  0  0
  -21.6054   -4.3064   24.7230 C   0  0  0  0  0  0
  -21.8821   -3.8167   23.4349 C   0  0  0  0  0  0
  -21.9187   -4.6992   22.3412 C   0  0  0  0  0  0
  -22.7889  -13.5263   21.1854 C   0  0  0  0  0  0
  -22.1671   -4.2192   21.0983 F   0  0  0  0  0  0
  -21.5630   -3.4536   25.7736 F   0  0  0  0  0  0
  -30.0190  -13.3620   20.4342 N   0  0  0  0  0  0
  -26.3019  -12.9343   20.3348 N   0  0  0  0  0  0
  -25.9344  -11.6497   20.5786 N   0  0  0  0  0  0
  -22.0493  -12.8263   22.0380 N   0  0  0  0  0  0
  -25.4374  -15.1908   20.4132 N   0  0  0  0  0  0
  -31.8263  -14.6859   20.1113 O   0  0  0  0  0  0
  -21.6636   -6.8906   21.4259 O   0  0  0  0  0  0
  -22.3598  -14.5577   20.6701 O   0  0  0  0  0  0
  -24.6170  -31.8630   23.2057 C   0  0  0  0  0  0
  -25.9049  -32.4791   23.8365 C   0  0  1  0  0  0
  -27.2249  -27.3886   20.0914 C   0  0  0  0  0  0
  -25.5893  -33.8595   24.2297 N   0  0  0  0  0  0
  -23.4064  -30.4869   21.5467 C   0  0  2  0  0  0
  -24.8499  -28.9475   20.1090 C   0  0  0  0  0  0
  -22.7418  -29.4628   22.4958 C   0  0  0  0  0  0
  -18.0262  -28.1363   22.8468 C   0  0  0  0  0  0
  -24.1485  -36.7331   23.2644 C   0  0  0  0  0  0
  -25.9395  -30.8109   21.3667 C   0  0  0  0  0  0
  -26.0122  -29.4439   20.7103 C   0  0  0  0  0  0
  -27.1991  -28.6701   20.7020 C   0  0  0  0  0  0
  -26.0412  -26.9172   19.4815 C   0  0  0  0  0  0
  -24.8616  -27.6849   19.4931 C   0  0  0  0  0  0
  -23.6122  -29.8177   20.1617 C   0  0  0  0  0  0
  -25.4106  -36.3118   24.0328 C   0  0  1  0  0  0
  -20.5866  -28.3650   23.1311 C   0  0  2  0  0  0
  -20.6746  -26.9374   22.5422 C   0  0  0  0  0  0
  -19.5727  -26.6371   21.5210 C   0  0  0  0  0  0
  -18.1908  -26.7910   22.1618 C   0  0  0  0  0  0
  -19.1519  -28.8817   23.2884 C   0  0  0  0  0  0
  -18.9452  -30.1430   23.8885 C   0  0  0  0  0  0
  -17.6461  -30.6567   24.0559 C   0  0  0  0  0  0
  -25.9032  -34.9473   23.5120 C   0  0  0  0  0  0
  -16.5344  -29.9074   23.6326 C   0  0  0  0  0  0
  -16.7262  -28.6496   23.0329 C   0  0  0  0  0  0
  -26.4450  -31.6597   25.0732 C   0  0  0  0  0  0
  -25.3728  -31.3747   26.1511 C   0  0  0  0  0  0
  -27.0280  -30.3034   24.6157 C   0  0  0  0  0  0
  -27.6004  -32.4350   25.7496 C   0  0  0  0  0  0
  -27.5583  -37.1811   24.8451 C   0  0  0  0  0  0
  -21.4142  -29.3035   22.3718 N   0  0  0  0  0  0
  -26.4288  -37.3812   23.9403 N   0  0  0  0  0  0
  -24.6729  -31.0701   22.0967 N   0  0  0  0  0  0
  -23.4184  -28.8165   23.3003 O   0  0  0  0  0  0
  -28.3952  -26.6431   20.1285 O   0  0  0  0  0  0
  -26.5621  -34.8932   22.4698 O   0  0  0  0  0  0
  -23.5352  -32.1397   23.7422 O   0  0  0  0  0  0
  -31.6593  -17.3928   21.2915 C   0  0  0  0  0  0
  -32.0084  -18.7403   21.4921 C   0  0  0  0  0  0
  -29.3293  -18.0558   21.0553 C   0  0  0  0  0  0
  -29.6688  -19.4303   21.2784 C   0  0  0  0  0  0
  -30.3126  -17.0146   21.0742 C   0  0  0  0  0  0
  -31.0292  -19.7480   21.5056 C   0  0  0  0  0  0
  -28.5802  -20.5280   21.4358 C   0  0  0  0  0  0
  -27.8151  -24.1360   20.2754 C   0  0  0  0  0  0
  -28.7793  -23.0334   20.8554 C   0  0  0  0  0  0
  -28.4706  -25.3365   19.5059 C   0  0  0  0  0  0
  -29.9317  -15.6221   20.9447 N   0  0  0  0  0  0
  -28.5122  -21.6187   20.4051 N   0  3  0  0  0  0
  -31.5335  -21.3617   21.8581 Cl  0  0  0  0  0  0
  -31.4702  -12.4437   19.1523 H   0  0  0  0  0  0
  -30.3267  -11.3474   19.8720 H   0  0  0  0  0  0
  -29.7574  -11.7667   17.4563 H   0  0  0  0  0  0
  -29.6671  -13.4835   17.7608 H   0  0  0  0  0  0
  -27.8410  -11.3067   18.8267 H   0  0  0  0  0  0
  -27.3765  -12.6315   17.7879 H   0  0  0  0  0  0
  -27.6829  -14.2554   19.5490 H   0  0  0  0  0  0
  -28.6951  -12.0141   21.3635 H   0  0  0  0  0  0
  -28.4624  -13.6680   21.8571 H   0  0  0  0  0  0
  -25.2786   -9.5702   22.4778 H   0  0  0  0  0  0
  -24.0059   -7.4623   22.7442 H   0  0  0  0  0  0
  -21.0868   -8.8790   19.8923 H   0  0  0  0  0  0
  -22.3732  -10.9707   19.6181 H   0  0  0  0  0  0
  -21.1973   -7.6163   23.9762 H   0  0  0  0  0  0
  -21.1486   -6.0513   25.9102 H   0  0  0  0  0  0
  -22.0594   -2.7635   23.2829 H   0  0  0  0  0  0
  -22.4071  -11.9944   22.4843 H   0  0  0  0  0  0
  -21.1098  -13.1301   22.2506 H   0  0  0  0  0  0
  -24.6761  -15.8510   20.5206 H   0  0  0  0  0  0
  -26.2885  -15.6229   20.0755 H   0  0  0  0  0  0
  -26.7109  -32.5482   23.1099 H   0  0  0  0  0  0
  -25.0013  -33.9726   25.0429 H   0  0  0  0  0  0
  -22.6996  -31.3075   21.4054 H   0  0  0  0  0  0
  -23.3753  -35.9656   23.3290 H   0  0  0  0  0  0
  -24.3596  -36.8982   22.2071 H   0  0  0  0  0  0
  -23.7224  -37.6526   23.6662 H   0  0  0  0  0  0
  -26.0673  -31.5736   20.5976 H   0  0  0  0  0  0
  -26.8210  -30.8581   21.9941 H   0  0  0  0  0  0
  -28.0975  -29.0402   21.1734 H   0  0  0  0  0  0
  -26.0006  -25.9509   19.0003 H   0  0  0  0  0  0
  -23.9670  -27.2965   19.0280 H   0  0  0  0  0  0
  -23.7182  -30.5896   19.3989 H   0  0  0  0  0  0
  -22.7305  -29.2433   19.8705 H   0  0  0  0  0  0
  -25.1274  -36.1975   25.0817 H   0  0  0  0  0  0
  -20.9957  -28.3210   24.1436 H   0  0  0  0  0  0
  -20.5633  -26.2250   23.3606 H   0  0  0  0  0  0
  -21.6610  -26.7389   22.1218 H   0  0  0  0  0  0
  -19.6882  -25.6297   21.1205 H   0  0  0  0  0  0
  -19.6672  -27.3200   20.6758 H   0  0  0  0  0  0
  -17.4175  -26.6655   21.4024 H   0  0  0  0  0  0
  -18.0298  -26.0049   22.9015 H   0  0  0  0  0  0
  -19.7936  -30.7238   24.2242 H   0  0  0  0  0  0
  -17.5021  -31.6236   24.5185 H   0  0  0  0  0  0
  -15.5347  -30.2973   23.7655 H   0  0  0  0  0  0
  -15.8663  -28.0829   22.7030 H   0  0  0  0  0  0
  -24.5819  -30.7161   25.7903 H   0  0  0  0  0  0
  -24.9003  -32.2921   26.5035 H   0  0  0  0  0  0
  -25.8082  -30.8877   27.0243 H   0  0  0  0  0  0
  -26.2835  -29.6818   24.1171 H   0  0  0  0  0  0
  -27.3997  -29.7261   25.4633 H   0  0  0  0  0  0
  -27.8680  -30.4363   23.9337 H   0  0  0  0  0  0
  -27.2581  -33.3630   26.2093 H   0  0  0  0  0  0
  -28.3786  -32.6970   25.0315 H   0  0  0  0  0  0
  -28.0684  -31.8483   26.5412 H   0  0  0  0  0  0
  -28.2582  -38.0137   24.7548 H   0  0  0  0  0  0
  -28.1095  -36.2667   24.6186 H   0  0  0  0  0  0
  -27.2305  -37.1370   25.8860 H   0  0  0  0  0  0
  -20.9268  -29.8862   21.7043 H   0  0  0  0  0  0
  -26.0182  -38.2882   24.1442 H   0  0  0  0  0  0
  -32.4554  -16.6640   21.3412 H   0  0  0  0  0  0
  -33.0411  -18.9997   21.6750 H   0  0  0  0  0  0
  -28.2886  -17.7960   20.9133 H   0  0  0  0  0  0
  -28.6773  -20.9530   22.4348 H   0  0  0  0  0  0
  -27.6052  -20.0372   21.4445 H   0  0  0  0  0  0
  -27.2325  -24.5469   21.1025 H   0  0  0  0  0  0
  -27.0690  -23.6734   19.6282 H   0  0  0  0  0  0
  -28.7159  -23.0990   21.9422 H   0  0  0  0  0  0
  -29.8167  -23.2758   20.6257 H   0  0  0  0  0  0
  -28.0745  -25.3930   18.4907 H   0  0  0  0  0  0
  -29.5287  -25.1279   19.3557 H   0  0  0  0  0  0
  -28.9668  -15.4060   21.1456 H   0  0  0  0  0  0
  -27.5707  -21.5842   20.0497 H   0  0  0  0  0  0
  -29.1207  -21.3895   19.6362 H   0  0  0  0  0  0
  1 25  1  0  0  0
  1 30  2  0  0  0
  1 81  1  0  0  0
  2  3  1  0  0  0
  2 25  1  0  0  0
  2 84  1  0  0  0
  2 85  1  0  0  0
  3  4  1  0  0  0
  3 86  1  0  0  0
  3 87  1  0  0  0
  4  5  1  0  0  0
  4 88  1  0  0  0
  4 89  1  0  0  0
  5  6  1  0  0  0
  5 26  1  0  0  0
  5 90  1  0  0  0
  6 25  1  0  0  0
  6 91  1  0  0  0
  6 92  1  0  0  0
  7  8  2  0  0  0
  7 26  1  0  0  0
  7 29  1  0  0  0
  8  9  1  0  0  0
  8 22  1  0  0  0
  9 10  1  0  0  0
  9 27  2  0  0  0
 10 11  2  0  0  0
 10 15  1  0  0  0
 11 12  1  0  0  0
 11 93  1  0  0  0
 12 13  2  0  0  0
 12 94  1  0  0  0
 13 14  1  0  0  0
 13 31  1  0  0  0
 14 15  2  0  0  0
 14 95  1  0  0  0
 15 96  1  0  0  0
 16 17  2  0  0  0
 16 21  1  0  0  0
 16 31  1  0  0  0
 17 18  1  0  0  0
 17 97  1  0  0  0
 18 19  2  0  0  0
 18 98  1  0  0  0
 19 20  1  0  0  0
 19 24  1  0  0  0
 20 21  2  0  0  0
 20 99  1  0  0  0
 21 23  1  0  0  0
 22 28  1  0  0  0
 22 32  2  0  0  0
 26 27  1  0  0  0
 28100  1  0  0  0
 28101  1  0  0  0
 29102  1  0  0  0
 29103  1  0  0  0
 33 34  1  0  0  0
 33 66  1  0  0  0
 33 70  2  0  0  0
 34 36  1  0  0  0
 34 59  1  0  0  0
 34104  1  0  0  0
 35 44  2  0  0  0
 35 45  1  0  0  0
 35 68  1  0  0  0
 36 56  1  0  0  0
 36105  1  0  0  0
 37 39  1  0  0  0
 37 47  1  0  0  0
 37 66  1  0  0  0
 37106  1  0  0  0
 38 43  2  0  0  0
 38 46  1  0  0  0
 38 47  1  0  0  0
 39 64  1  0  0  0
 39 67  2  0  0  0
 40 52  1  0  0  0
 40 53  2  0  0  0
 40 58  1  0  0  0
 41107  1  0  0  0
 41108  1  0  0  0
 41109  1  0  0  0
 41 48  1  0  0  0
 42 43  1  0  0  0
 42 66  1  0  0  0
 42110  1  0  0  0
 42111  1  0  0  0
 43 44  1  0  0  0
 44112  1  0  0  0
 45 46  2  0  0  0
 45113  1  0  0  0
 46114  1  0  0  0
 47115  1  0  0  0
 47116  1  0  0  0
 48 56  1  0  0  0
 48 65  1  0  0  0
 48117  1  0  0  0
 49 50  1  0  0  0
 49 53  1  0  0  0
 49 64  1  0  0  0
 49118  1  0  0  0
 50 51  1  0  0  0
 50119  1  0  0  0
 50120  1  0  0  0
 51 52  1  0  0  0
 51121  1  0  0  0
 51122  1  0  0  0
 52123  1  0  0  0
 52124  1  0  0  0
 53 54  1  0  0  0
 54 55  2  0  0  0
 54125  1  0  0  0
 55 57  1  0  0  0
 55126  1  0  0  0
 56 69  2  0  0  0
 57 58  2  0  0  0
 57127  1  0  0  0
 58128  1  0  0  0
 59 60  1  0  0  0
 59 61  1  0  0  0
 59 62  1  0  0  0
 60129  1  0  0  0
 60130  1  0  0  0
 60131  1  0  0  0
 61132  1  0  0  0
 61133  1  0  0  0
 61134  1  0  0  0
 62135  1  0  0  0
 62136  1  0  0  0
 62137  1  0  0  0
 63 65  1  0  0  0
 63138  1  0  0  0
 63139  1  0  0  0
 63140  1  0  0  0
 64141  1  0  0  0
 65142  1  0  0  0
 68 80  1  0  0  0
 71 72  2  0  0  0
 71 75  1  0  0  0
 71143  1  0  0  0
 72 76  1  0  0  0
 72144  1  0  0  0
 73 74  1  0  0  0
 73 75  2  0  0  0
 73145  1  0  0  0
 74 76  2  0  0  0
 74 77  1  0  0  0
 75 81  1  0  0  0
 76 83  1  0  0  0
 77 82  1  0  0  0
 77146  1  0  0  0
 77147  1  0  0  0
 78 79  1  0  0  0
 78 80  1  0  0  0
 78148  1  0  0  0
 78149  1  0  0  0
 79 82  1  0  0  0
 79150  1  0  0  0
 79151  1  0  0  0
 80152  1  0  0  0
 80153  1  0  0  0
 81154  1  0  0  0
 82155  1  0  0  0
 82156  1  0  0  0
M  CHG  1  82   1
M  ISO  4   1 100  68 101  80 101  81 100
M  END
> <chiral flag>
0

> <version>
0

> <s_m_source_file>
/data/baiqing/PycharmProjects/Reinvent-master-3.2/result/LINK_invent/BTK/process_docking_weight1_custom_product_contain_oxygen_bond_distance_aromatic_linkinvent_7_9_3/rearranged_h_0042.sdf

> <i_m_source_file_index>
59

> <r_mmod_Potential_Energy-OPLS-2005>
-206.841522216797

> <r_mmod_Stretch_Energy-OPLS-2005>
54.4339447021484

> <r_mmod_Bend_Energy-OPLS-2005>
121.117668151855

> <r_mmod_Torsional_Energy-OPLS-2005>
236.026000976562

> <r_mmod_Improper_Torsional_Energy-OPLS-2005>
4.88992023468018

> <r_mmod_Van_der_Waal_Energy-OPLS-2005>
153.729385375977

> <r_mmod_Electrostatic_Energy-OPLS-2005>
-318.833068847656

> <r_mmod_Solvation_Energy-OPLS-2005>
-482.047515869141

> <b_mmod_Minimization_Converged-OPLS-2005>
0

> <r_mmod_RMS_Derivative-OPLS-2005>
2.98905324935913

$$$$
59
                    3D
 Structure written by MMmdl.
163171  0  0  1  0            999 V2000
  -30.7768  -14.4797   20.4951 C   0  0  0  0  0  0
  -30.3771  -12.2872   19.4661 C   0  0  0  0  0  0
  -29.4904  -12.4859   18.2237 C   0  0  0  0  0  0
  -28.0108  -12.3668   18.6253 C   0  0  0  0  0  0
  -27.6489  -13.2332   19.8618 C   0  0  2  0  0  0
  -28.6892  -13.1100   21.0007 C   0  0  0  0  0  0
  -25.2513  -13.8229   20.5675 C   0  0  0  0  0  0
  -24.1798  -13.0478   20.9193 C   0  0  0  0  0  0
  -24.6373  -11.6956   20.8757 C   0  0  0  0  0  0
  -23.9053  -10.4320   21.0414 C   0  0  0  0  0  0
  -24.3615   -9.4236   21.9188 C   0  0  0  0  0  0
  -23.6294   -8.2260   22.0743 C   0  0  0  0  0  0
  -22.4279   -8.0280   21.3537 C   0  0  0  0  0  0
  -21.9911   -9.0255   20.4649 C   0  0  0  0  0  0
  -22.7226  -10.2142   20.3066 C   0  0  0  0  0  0
  -21.6857   -6.0732   22.5274 C   0  0  0  0  0  0
  -21.4021   -6.5633   23.8211 C   0  0  0  0  0  0
  -21.3669   -5.6784   24.9170 C   0  0  0  0  0  0
  -21.6043   -4.3043   24.7226 C   0  0  0  0  0  0
  -21.8819   -3.8137   23.4344 C   0  0  0  0  0  0
  -21.9189   -4.6956   22.3403 C   0  0  0  0  0  0
  -22.7817  -13.5247   21.1850 C   0  0  0  0  0  0
  -22.1655   -4.2148   21.0976 F   0  0  0  0  0  0
  -21.5640   -3.4522   25.7738 F   0  0  0  0  0  0
  -30.0205  -13.3480   20.4320 N   0  0  0  0  0  0
  -26.2955  -12.9447   20.3317 N   0  0  0  0  0  0
  -25.9303  -11.6591   20.5764 N   0  0  0  0  0  0
  -22.0455  -12.8236   22.0395 N   0  0  0  0  0  0
  -25.4238  -15.1926   20.4048 N   0  0  0  0  0  0
  -31.9374  -14.4451   20.0998 O   0  0  0  0  0  0
  -21.6644   -6.8869   21.4232 O   0  0  0  0  0  0
  -22.3508  -14.5557   20.6701 O   0  0  0  0  0  0
  -24.6141  -31.8708   23.2152 C   0  0  0  0  0  0
  -25.9047  -32.4839   23.8434 C   0  0  1  0  0  0
  -27.2117  -27.4281   20.1050 C   0  0  0  0  0  0
  -25.5923  -33.8629   24.2376 N   0  0  0  0  0  0
  -23.4022  -30.4964   21.5559 C   0  0  2  0  0  0
  -24.8474  -28.9747   20.1069 C   0  0  0  0  0  0
  -22.7421  -29.4660   22.5001 C   0  0  0  0  0  0
  -18.0272  -28.1387   22.8508 C   0  0  0  0  0  0
  -24.1476  -36.7323   23.2633 C   0  0  0  0  0  0
  -25.9316  -30.8363   21.3702 C   0  0  0  0  0  0
  -26.0072  -29.4718   20.7160 C   0  0  0  0  0  0
  -27.1952  -28.7041   20.7148 C   0  0  0  0  0  0
  -26.0464  -26.9668   19.4555 C   0  0  0  0  0  0
  -24.8634  -27.7230   19.4698 C   0  0  0  0  0  0
  -23.6117  -29.8415   20.1643 C   0  0  0  0  0  0
  -25.4098  -36.3122   24.0344 C   0  0  1  0  0  0
  -20.5870  -28.3678   23.1344 C   0  0  2  0  0  0
  -20.6762  -26.9419   22.5423 C   0  0  0  0  0  0
  -19.5737  -26.6406   21.5221 C   0  0  0  0  0  0
  -18.1921  -26.7943   22.1633 C   0  0  0  0  0  0
  -19.1522  -28.8856   23.2917 C   0  0  0  0  0  0
  -18.9441  -30.1466   23.8907 C   0  0  0  0  0  0
  -17.6440  -30.6590   24.0589 C   0  0  0  0  0  0
  -25.9025  -34.9478   23.5155 C   0  0  0  0  0  0
  -16.5337  -29.9096   23.6334 C   0  0  0  0  0  0
  -16.7262  -28.6527   23.0341 C   0  0  0  0  0  0
  -26.4470  -31.6601   25.0748 C   0  0  0  0  0  0
  -25.3743  -31.3698   26.1515 C   0  0  0  0  0  0
  -27.0291  -30.3051   24.6082 C   0  0  0  0  0  0
  -27.6060  -32.4308   25.7500 C   0  0  0  0  0  0
  -27.5579  -37.1826   24.8468 C   0  0  0  0  0  0
  -21.4158  -29.3037   22.3753 N   0  0  0  0  0  0
  -26.4285  -37.3812   23.9416 N   0  0  0  0  0  0
  -24.6677  -31.0814   22.1052 N   0  0  0  0  0  0
  -23.4221  -28.8186   23.3020 O   0  0  0  0  0  0
  -28.3241  -26.6172   20.1624 O   0  0  0  0  0  0
  -26.5563  -34.8927   22.4700 O   0  0  0  0  0  0
  -23.5343  -32.1462   23.7543 O   0  0  0  0  0  0
  -31.0163  -18.6059   17.8993 C   0  0  0  0  0  0
  -32.0909  -18.0791   18.6280 C   0  0  0  0  0  0
  -29.7236  -18.4968   18.4316 C   0  0  0  0  0  0
  -31.8571  -17.2794   19.7646 C   0  0  0  0  0  0
  -29.4949  -17.7743   19.6237 C   0  0  0  0  0  0
  -30.5186  -16.9087   20.1164 C   0  0  0  0  0  0
  -33.0768  -16.9141   20.5977 C   0  0  0  0  0  0
  -28.2225  -18.1175   20.4041 C   0  0  0  0  0  0
  -28.2389  -20.6721   20.3869 C   0  0  0  0  0  0
  -28.7273  -21.9476   21.1216 C   0  0  0  0  0  0
  -28.0527  -25.3565   20.8191 C   0  0  0  0  0  0
  -29.1710  -24.3009   20.6793 C   0  0  0  0  0  0
  -30.1923  -15.6703   20.8115 N   0  0  0  0  0  0
  -28.3893  -19.3992   21.1604 N   0  3  0  0  0  0
  -28.6368  -23.0527   20.2128 O   0  0  0  0  0  0
  -31.4314  -12.2865   19.1829 H   0  0  0  0  0  0
  -30.2007  -11.3045   19.9052 H   0  0  0  0  0  0
  -29.7315  -11.7455   17.4593 H   0  0  0  0  0  0
  -29.6791  -13.4632   17.7763 H   0  0  0  0  0  0
  -27.8132  -11.3153   18.8339 H   0  0  0  0  0  0
  -27.3705  -12.6348   17.7845 H   0  0  0  0  0  0
  -27.6677  -14.2677   19.5175 H   0  0  0  0  0  0
  -28.6490  -12.1179   21.4526 H   0  0  0  0  0  0
  -28.4691  -13.8180   21.8014 H   0  0  0  0  0  0
  -25.2770   -9.5700   22.4759 H   0  0  0  0  0  0
  -24.0010   -7.4646   22.7455 H   0  0  0  0  0  0
  -21.0848   -8.8773   19.8957 H   0  0  0  0  0  0
  -22.3688  -10.9675   19.6175 H   0  0  0  0  0  0
  -21.2020   -7.6145   23.9714 H   0  0  0  0  0  0
  -21.1493   -6.0513   25.9074 H   0  0  0  0  0  0
  -22.0591   -2.7596   23.2840 H   0  0  0  0  0  0
  -22.4052  -11.9907   22.4824 H   0  0  0  0  0  0
  -21.1086  -13.1263   22.2640 H   0  0  0  0  0  0
  -24.6395  -15.8333   20.4600 H   0  0  0  0  0  0
  -26.2343  -15.5896   19.9499 H   0  0  0  0  0  0
  -26.7117  -32.5570   23.1196 H   0  0  0  0  0  0
  -25.0112  -33.9786   25.0550 H   0  0  0  0  0  0
  -22.6877  -31.3123   21.4235 H   0  0  0  0  0  0
  -23.3727  -35.9667   23.3313 H   0  0  0  0  0  0
  -24.3571  -36.8918   22.2044 H   0  0  0  0  0  0
  -23.7239  -37.6537   23.6628 H   0  0  0  0  0  0
  -26.0379  -31.6032   20.6022 H   0  0  0  0  0  0
  -26.8204  -30.8927   21.9853 H   0  0  0  0  0  0
  -28.0853  -29.0737   21.2046 H   0  0  0  0  0  0
  -26.0431  -26.0152   18.9410 H   0  0  0  0  0  0
  -23.9772  -27.3470   18.9790 H   0  0  0  0  0  0
  -23.7242  -30.6231   19.4122 H   0  0  0  0  0  0
  -22.7349  -29.2657   19.8638 H   0  0  0  0  0  0
  -25.1266  -36.1994   25.0837 H   0  0  0  0  0  0
  -20.9939  -28.3213   24.1475 H   0  0  0  0  0  0
  -20.5682  -26.2264   23.3588 H   0  0  0  0  0  0
  -21.6635  -26.7476   22.1205 H   0  0  0  0  0  0
  -19.6890  -25.6318   21.1250 H   0  0  0  0  0  0
  -19.6674  -27.3211   20.6748 H   0  0  0  0  0  0
  -17.4188  -26.6708   21.4029 H   0  0  0  0  0  0
  -18.0309  -26.0059   22.8999 H   0  0  0  0  0  0
  -19.7904  -30.7308   24.2254 H   0  0  0  0  0  0
  -17.4985  -31.6264   24.5205 H   0  0  0  0  0  0
  -15.5336  -30.3007   23.7657 H   0  0  0  0  0  0
  -15.8661  -28.0874   22.7024 H   0  0  0  0  0  0
  -24.5926  -30.7020   25.7877 H   0  0  0  0  0  0
  -24.8906  -32.2836   26.4978 H   0  0  0  0  0  0
  -25.8124  -30.8884   27.0272 H   0  0  0  0  0  0
  -26.2824  -29.6830   24.1132 H   0  0  0  0  0  0
  -27.4079  -29.7270   25.4521 H   0  0  0  0  0  0
  -27.8656  -30.4387   23.9218 H   0  0  0  0  0  0
  -27.2701  -33.3612   26.2100 H   0  0  0  0  0  0
  -28.3856  -32.6873   25.0307 H   0  0  0  0  0  0
  -28.0733  -31.8407   26.5396 H   0  0  0  0  0  0
  -28.2620  -38.0100   24.7504 H   0  0  0  0  0  0
  -28.1052  -36.2641   24.6302 H   0  0  0  0  0  0
  -27.2301  -37.1500   25.8872 H   0  0  0  0  0  0
  -20.9302  -29.8788   21.7005 H   0  0  0  0  0  0
  -26.0177  -38.2891   24.1415 H   0  0  0  0  0  0
  -31.1925  -19.1964   17.0103 H   0  0  0  0  0  0
  -33.1027  -18.2931   18.3102 H   0  0  0  0  0  0
  -28.9231  -19.0500   17.9605 H   0  0  0  0  0  0
  -33.7634  -16.2889   20.0273 H   0  0  0  0  0  0
  -32.8117  -16.4024   21.5218 H   0  0  0  0  0  0
  -33.6126  -17.8202   20.8803 H   0  0  0  0  0  0
  -28.0025  -17.3216   21.1136 H   0  0  0  0  0  0
  -27.3635  -18.1776   19.7344 H   0  0  0  0  0  0
  -28.8131  -20.6297   19.4662 H   0  0  0  0  0  0
  -27.1950  -20.7891   20.0952 H   0  0  0  0  0  0
  -29.7689  -21.8215   21.4269 H   0  0  0  0  0  0
  -28.1357  -22.1446   22.0169 H   0  0  0  0  0  0
  -27.8614  -25.5452   21.8767 H   0  0  0  0  0  0
  -27.1411  -24.8932   20.4435 H   0  0  0  0  0  0
  -29.7208  -24.1943   21.6162 H   0  0  0  0  0  0
  -29.8949  -24.6423   19.9397 H   0  0  0  0  0  0
  -29.2483  -15.5737   21.1527 H   0  0  0  0  0  0
  -29.2964  -19.3700   21.5980 H   0  0  0  0  0  0
  -27.7105  -19.4044   21.9068 H   0  0  0  0  0  0
  1 25  1  0  0  0
  1 30  2  0  0  0
  1 83  1  0  0  0
  2  3  1  0  0  0
  2 25  1  0  0  0
  2 86  1  0  0  0
  2 87  1  0  0  0
  3  4  1  0  0  0
  3 88  1  0  0  0
  3 89  1  0  0  0
  4  5  1  0  0  0
  4 90  1  0  0  0
  4 91  1  0  0  0
  5  6  1  0  0  0
  5 26  1  0  0  0
  5 92  1  0  0  0
  6 25  1  0  0  0
  6 93  1  0  0  0
  6 94  1  0  0  0
  7  8  2  0  0  0
  7 26  1  0  0  0
  7 29  1  0  0  0
  8  9  1  0  0  0
  8 22  1  0  0  0
  9 10  1  0  0  0
  9 27  2  0  0  0
 10 11  2  0  0  0
 10 15  1  0  0  0
 11 12  1  0  0  0
 11 95  1  0  0  0
 12 13  2  0  0  0
 12 96  1  0  0  0
 13 14  1  0  0  0
 13 31  1  0  0  0
 14 15  2  0  0  0
 14 97  1  0  0  0
 15 98  1  0  0  0
 16 17  2  0  0  0
 16 21  1  0  0  0
 16 31  1  0  0  0
 17 18  1  0  0  0
 17 99  1  0  0  0
 18 19  2  0  0  0
 18100  1  0  0  0
 19 20  1  0  0  0
 19 24  1  0  0  0
 20 21  2  0  0  0
 20101  1  0  0  0
 21 23  1  0  0  0
 22 28  1  0  0  0
 22 32  2  0  0  0
 26 27  1  0  0  0
 28102  1  0  0  0
 28103  1  0  0  0
 29104  1  0  0  0
 29105  1  0  0  0
 33 34  1  0  0  0
 33 66  1  0  0  0
 33 70  2  0  0  0
 34 36  1  0  0  0
 34 59  1  0  0  0
 34106  1  0  0  0
 35 44  2  0  0  0
 35 45  1  0  0  0
 35 68  1  0  0  0
 36 56  1  0  0  0
 36107  1  0  0  0
 37 39  1  0  0  0
 37 47  1  0  0  0
 37 66  1  0  0  0
 37108  1  0  0  0
 38 43  2  0  0  0
 38 46  1  0  0  0
 38 47  1  0  0  0
 39 64  1  0  0  0
 39 67  2  0  0  0
 40 52  1  0  0  0
 40 53  2  0  0  0
 40 58  1  0  0  0
 41109  1  0  0  0
 41110  1  0  0  0
 41111  1  0  0  0
 41 48  1  0  0  0
 42 43  1  0  0  0
 42 66  1  0  0  0
 42112  1  0  0  0
 42113  1  0  0  0
 43 44  1  0  0  0
 44114  1  0  0  0
 45 46  2  0  0  0
 45115  1  0  0  0
 46116  1  0  0  0
 47117  1  0  0  0
 47118  1  0  0  0
 48 56  1  0  0  0
 48 65  1  0  0  0
 48119  1  0  0  0
 49 50  1  0  0  0
 49 53  1  0  0  0
 49 64  1  0  0  0
 49120  1  0  0  0
 50 51  1  0  0  0
 50121  1  0  0  0
 50122  1  0  0  0
 51 52  1  0  0  0
 51123  1  0  0  0
 51124  1  0  0  0
 52125  1  0  0  0
 52126  1  0  0  0
 53 54  1  0  0  0
 54 55  2  0  0  0
 54127  1  0  0  0
 55 57  1  0  0  0
 55128  1  0  0  0
 56 69  2  0  0  0
 57 58  2  0  0  0
 57129  1  0  0  0
 58130  1  0  0  0
 59 60  1  0  0  0
 59 61  1  0  0  0
 59 62  1  0  0  0
 60131  1  0  0  0
 60132  1  0  0  0
 60133  1  0  0  0
 61134  1  0  0  0
 61135  1  0  0  0
 61136  1  0  0  0
 62137  1  0  0  0
 62138  1  0  0  0
 62139  1  0  0  0
 63 65  1  0  0  0
 63140  1  0  0  0
 63141  1  0  0  0
 63142  1  0  0  0
 64143  1  0  0  0
 65144  1  0  0  0
 68 81  1  0  0  0
 71 72  2  0  0  0
 71 73  1  0  0  0
 71145  1  0  0  0
 72 74  1  0  0  0
 72146  1  0  0  0
 73 75  2  0  0  0
 73147  1  0  0  0
 74 76  2  0  0  0
 74 77  1  0  0  0
 75 76  1  0  0  0
 75 78  1  0  0  0
 76 83  1  0  0  0
 77148  1  0  0  0
 77149  1  0  0  0
 77150  1  0  0  0
 78 84  1  0  0  0
 78151  1  0  0  0
 78152  1  0  0  0
 79 80  1  0  0  0
 79 84  1  0  0  0
 79153  1  0  0  0
 79154  1  0  0  0
 80 85  1  0  0  0
 80155  1  0  0  0
 80156  1  0  0  0
 81 82  1  0  0  0
 81157  1  0  0  0
 81158  1  0  0  0
 82 85  1  0  0  0
 82159  1  0  0  0
 82160  1  0  0  0
 83161  1  0  0  0
 84162  1  0  0  0
 84163  1  0  0  0
M  CHG  1  84   1
M  ISO  4   1 100  68 101  81 101  83 100
M  END
> <chiral flag>
0

> <version>
0

> <s_m_source_file>
/data/baiqing/PycharmProjects/Reinvent-master-3.2/result/LINK_invent/BTK/process_docking_weight1_custom_product_contain_oxygen_bond_distance_aromatic_linkinvent_7_9_3/rearranged_h_0042.sdf

> <i_m_source_file_index>
60

> <r_mmod_Potential_Energy-OPLS-2005>
-56.5509033203125

> <r_mmod_Stretch_Energy-OPLS-2005>
46.9239807128906

> <r_mmod_Bend_Energy-OPLS-2005>
110.33699798584

> <r_mmod_Torsional_Energy-OPLS-2005>
332.096954345703

> <r_mmod_Improper_Torsional_Energy-OPLS-2005>
8.6476354598999

> <r_mmod_Van_der_Waal_Energy-OPLS-2005>
166.645233154297

> <r_mmod_Electrostatic_Energy-OPLS-2005>
-276.593292236328

> <r_mmod_Solvation_Energy-OPLS-2005>
-475.053497314453

> <b_mmod_Minimization_Converged-OPLS-2005>
0

> <r_mmod_RMS_Derivative-OPLS-2005>
2.86396455764771

$$$$
60
                    3D
 Structure written by MMmdl.
159167  0  0  1  0            999 V2000
  -30.7705  -14.3361   20.7162 C   0  0  0  0  0  0
  -30.4195  -12.2900   19.3792 C   0  0  0  0  0  0
  -29.4833  -12.5415   18.1833 C   0  0  0  0  0  0
  -28.0077  -12.3921   18.5984 C   0  0  0  0  0  0
  -27.6677  -13.2006   19.8772 C   0  0  2  0  0  0
  -28.7036  -12.9171   20.9860 C   0  0  0  0  0  0
  -25.2622  -13.8161   20.5689 C   0  0  0  0  0  0
  -24.1853  -13.0440   20.9163 C   0  0  0  0  0  0
  -24.6391  -11.6902   20.8698 C   0  0  0  0  0  0
  -23.9053  -10.4293   21.0395 C   0  0  0  0  0  0
  -24.3605   -9.4213   21.9176 C   0  0  0  0  0  0
  -23.6287   -8.2242   22.0750 C   0  0  0  0  0  0
  -22.4267   -8.0278   21.3542 C   0  0  0  0  0  0
  -21.9896   -9.0254   20.4648 C   0  0  0  0  0  0
  -22.7223  -10.2136   20.3052 C   0  0  0  0  0  0
  -21.6853   -6.0735   22.5281 C   0  0  0  0  0  0
  -21.4014   -6.5637   23.8214 C   0  0  0  0  0  0
  -21.3666   -5.6790   24.9177 C   0  0  0  0  0  0
  -21.6044   -4.3051   24.7223 C   0  0  0  0  0  0
  -21.8821   -3.8139   23.4347 C   0  0  0  0  0  0
  -21.9193   -4.6961   22.3404 C   0  0  0  0  0  0
  -22.7871  -13.5244   21.1831 C   0  0  0  0  0  0
  -22.1660   -4.2145   21.0980 F   0  0  0  0  0  0
  -21.5632   -3.4536   25.7736 F   0  0  0  0  0  0
  -30.0512  -13.2145   20.4604 N   0  0  0  0  0  0
  -26.3044  -12.9320   20.3345 N   0  0  0  0  0  0
  -25.9310  -11.6483   20.5701 N   0  0  0  0  0  0
  -22.0501  -12.8255   22.0398 N   0  0  0  0  0  0
  -25.4376  -15.1878   20.4162 N   0  0  0  0  0  0
  -31.7702  -14.6701   20.0720 O   0  0  0  0  0  0
  -21.6638   -6.8871   21.4240 O   0  0  0  0  0  0
  -22.3559  -14.5554   20.6694 O   0  0  0  0  0  0
  -24.6140  -31.8698   23.2118 C   0  0  0  0  0  0
  -25.9039  -32.4834   23.8401 C   0  0  1  0  0  0
  -27.2302  -27.4467   20.0880 C   0  0  0  0  0  0
  -25.5906  -33.8628   24.2341 N   0  0  0  0  0  0
  -23.4007  -30.4950   21.5534 C   0  0  2  0  0  0
  -24.8447  -28.9681   20.1142 C   0  0  0  0  0  0
  -22.7402  -29.4674   22.5001 C   0  0  0  0  0  0
  -18.0276  -28.1361   22.8491 C   0  0  0  0  0  0
  -24.1491  -36.7317   23.2639 C   0  0  0  0  0  0
  -25.9293  -30.8399   21.3640 C   0  0  0  0  0  0
  -26.0065  -29.4773   20.7069 C   0  0  0  0  0  0
  -27.2041  -28.7259   20.6885 C   0  0  0  0  0  0
  -26.0491  -26.9579   19.4811 C   0  0  0  0  0  0
  -24.8612  -27.7076   19.4966 C   0  0  0  0  0  0
  -23.6082  -29.8329   20.1662 C   0  0  0  0  0  0
  -25.4106  -36.3110   24.0339 C   0  0  1  0  0  0
  -20.5862  -28.3648   23.1327 C   0  0  2  0  0  0
  -20.6763  -26.9383   22.5428 C   0  0  0  0  0  0
  -19.5734  -26.6351   21.5228 C   0  0  0  0  0  0
  -18.1922  -26.7900   22.1640 C   0  0  0  0  0  0
  -19.1527  -28.8823   23.2901 C   0  0  0  0  0  0
  -18.9452  -30.1445   23.8896 C   0  0  0  0  0  0
  -17.6455  -30.6579   24.0556 C   0  0  0  0  0  0
  -25.9031  -34.9483   23.5132 C   0  0  0  0  0  0
  -16.5345  -29.9075   23.6320 C   0  0  0  0  0  0
  -16.7266  -28.6492   23.0344 C   0  0  0  0  0  0
  -26.4470  -31.6601   25.0716 C   0  0  0  0  0  0
  -25.3740  -31.3689   26.1464 C   0  0  0  0  0  0
  -27.0295  -30.3045   24.6083 C   0  0  0  0  0  0
  -27.6056  -32.4309   25.7469 C   0  0  0  0  0  0
  -27.5575  -37.1820   24.8466 C   0  0  0  0  0  0
  -21.4135  -29.3028   22.3743 N   0  0  0  0  0  0
  -26.4294  -37.3788   23.9403 N   0  0  0  0  0  0
  -24.6658  -31.0817   22.1013 N   0  0  0  0  0  0
  -23.4189  -28.8206   23.3018 O   0  0  0  0  0  0
  -28.3902  -26.6983   20.1045 O   0  0  0  0  0  0
  -26.5586  -34.8930   22.4690 O   0  0  0  0  0  0
  -23.5340  -32.1439   23.7537 O   0  0  0  0  0  0
  -29.5199  -17.6727   20.7659 C   0  0  0  0  0  0
  -29.3895  -19.7715   22.6199 C   0  0  0  0  0  0
  -30.1752  -17.5323   22.0104 C   0  0  0  0  0  0
  -28.7044  -19.8924   21.3908 C   0  0  0  0  0  0
  -30.1229  -18.6083   22.9317 C   0  0  0  0  0  0
  -28.7910  -18.8361   20.4536 C   0  0  0  0  0  0
  -30.9340  -16.2445   22.3393 C   0  0  0  0  0  0
  -27.8232  -21.1139   21.1325 C   0  0  0  0  0  0
  -29.5147  -24.5320   20.5898 C   0  0  0  0  0  0
  -29.3242  -23.1286   21.2214 C   0  0  0  0  0  0
  -28.1981  -25.3165   20.4383 C   0  0  0  0  0  0
  -30.3395  -15.0359   21.7715 N   0  0  0  0  0  0
  -28.4891  -22.2166   20.3991 N   0  3  0  0  0  0
  -30.9316  -18.5281   24.4584 Cl  0  0  0  0  0  0
  -28.0016  -18.9259   18.9189 Cl  0  0  0  0  0  0
  -31.4612  -12.4039   19.0728 H   0  0  0  0  0  0
  -30.3220  -11.2589   19.7250 H   0  0  0  0  0  0
  -29.7126  -11.8508   17.3712 H   0  0  0  0  0  0
  -29.6549  -13.5448   17.7888 H   0  0  0  0  0  0
  -27.8148  -11.3319   18.7691 H   0  0  0  0  0  0
  -27.3536  -12.6920   17.7788 H   0  0  0  0  0  0
  -27.7326  -14.2580   19.6191 H   0  0  0  0  0  0
  -28.6589  -11.8666   21.2781 H   0  0  0  0  0  0
  -28.4415  -13.4717   21.8867 H   0  0  0  0  0  0
  -25.2758   -9.5690   22.4742 H   0  0  0  0  0  0
  -24.0006   -7.4637   22.7471 H   0  0  0  0  0  0
  -21.0822   -8.8774   19.8960 H   0  0  0  0  0  0
  -22.3681  -10.9674   19.6156 H   0  0  0  0  0  0
  -21.2003   -7.6144   23.9716 H   0  0  0  0  0  0
  -21.1488   -6.0519   25.9084 H   0  0  0  0  0  0
  -22.0592   -2.7599   23.2849 H   0  0  0  0  0  0
  -22.4103  -11.9921   22.4816 H   0  0  0  0  0  0
  -21.1121  -13.1302   22.2590 H   0  0  0  0  0  0
  -24.6776  -15.8490   20.5344 H   0  0  0  0  0  0
  -26.3015  -15.6257   20.1225 H   0  0  0  0  0  0
  -26.7107  -32.5552   23.1168 H   0  0  0  0  0  0
  -25.0059  -33.9780   25.0486 H   0  0  0  0  0  0
  -22.6876  -31.3104   21.4181 H   0  0  0  0  0  0
  -23.3734  -35.9669   23.3330 H   0  0  0  0  0  0
  -24.3576  -36.8893   22.2044 H   0  0  0  0  0  0
  -23.7276  -37.6548   23.6626 H   0  0  0  0  0  0
  -26.0408  -31.6101   20.5993 H   0  0  0  0  0  0
  -26.8158  -30.8903   21.9838 H   0  0  0  0  0  0
  -28.1003  -29.1192   21.1476 H   0  0  0  0  0  0
  -26.0248  -26.0031   18.9772 H   0  0  0  0  0  0
  -23.9715  -27.3147   19.0257 H   0  0  0  0  0  0
  -23.7157  -30.6114   19.4095 H   0  0  0  0  0  0
  -22.7304  -29.2556   19.8696 H   0  0  0  0  0  0
  -25.1291  -36.1975   25.0832 H   0  0  0  0  0  0
  -20.9947  -28.3226   24.1456 H   0  0  0  0  0  0
  -20.5637  -26.2278   23.3626 H   0  0  0  0  0  0
  -21.6652  -26.7411   22.1263 H   0  0  0  0  0  0
  -19.6865  -25.6255   21.1271 H   0  0  0  0  0  0
  -19.6677  -27.3149   20.6740 H   0  0  0  0  0  0
  -17.4173  -26.6592   21.4071 H   0  0  0  0  0  0
  -18.0332  -26.0062   22.9075 H   0  0  0  0  0  0
  -19.7921  -30.7271   24.2259 H   0  0  0  0  0  0
  -17.5007  -31.6258   24.5150 H   0  0  0  0  0  0
  -15.5340  -30.2974   23.7639 H   0  0  0  0  0  0
  -15.8673  -28.0803   22.7051 H   0  0  0  0  0  0
  -24.5908  -30.7046   25.7800 H   0  0  0  0  0  0
  -24.8925  -32.2830   26.4938 H   0  0  0  0  0  0
  -25.8089  -30.8840   27.0214 H   0  0  0  0  0  0
  -26.2837  -29.6803   24.1153 H   0  0  0  0  0  0
  -27.4085  -29.7288   25.4539 H   0  0  0  0  0  0
  -27.8662  -30.4355   23.9219 H   0  0  0  0  0  0
  -27.2678  -33.3598   26.2079 H   0  0  0  0  0  0
  -28.3834  -32.6885   25.0265 H   0  0  0  0  0  0
  -28.0753  -31.8410   26.5351 H   0  0  0  0  0  0
  -28.2624  -38.0087   24.7473 H   0  0  0  0  0  0
  -28.1051  -36.2625   24.6349 H   0  0  0  0  0  0
  -27.2292  -37.1528   25.8871 H   0  0  0  0  0  0
  -20.9283  -29.8771   21.6993 H   0  0  0  0  0  0
  -26.0193  -38.2879   24.1376 H   0  0  0  0  0  0
  -29.5598  -16.8814   20.0325 H   0  0  0  0  0  0
  -29.3334  -20.5657   23.3507 H   0  0  0  0  0  0
  -30.9518  -16.0856   23.4179 H   0  0  0  0  0  0
  -31.9751  -16.3545   22.0334 H   0  0  0  0  0  0
  -27.4158  -21.4790   22.0763 H   0  0  0  0  0  0
  -26.9502  -20.8027   20.5590 H   0  0  0  0  0  0
  -30.0143  -24.4506   19.6246 H   0  0  0  0  0  0
  -30.1887  -25.1028   21.2299 H   0  0  0  0  0  0
  -28.8818  -23.2519   22.2118 H   0  0  0  0  0  0
  -30.2957  -22.6591   21.3793 H   0  0  0  0  0  0
  -27.6338  -25.2595   21.3719 H   0  0  0  0  0  0
  -27.6094  -24.8127   19.6731 H   0  0  0  0  0  0
  -29.5401  -14.6560   22.2564 H   0  0  0  0  0  0
  -27.7393  -22.7579   20.0033 H   0  0  0  0  0  0
  -29.0219  -21.8450   19.6296 H   0  0  0  0  0  0
  1 25  1  0  0  0
  1 30  2  0  0  0
  1 82  1  0  0  0
  2  3  1  0  0  0
  2 25  1  0  0  0
  2 86  1  0  0  0
  2 87  1  0  0  0
  3  4  1  0  0  0
  3 88  1  0  0  0
  3 89  1  0  0  0
  4  5  1  0  0  0
  4 90  1  0  0  0
  4 91  1  0  0  0
  5  6  1  0  0  0
  5 26  1  0  0  0
  5 92  1  0  0  0
  6 25  1  0  0  0
  6 93  1  0  0  0
  6 94  1  0  0  0
  7  8  2  0  0  0
  7 26  1  0  0  0
  7 29  1  0  0  0
  8  9  1  0  0  0
  8 22  1  0  0  0
  9 10  1  0  0  0
  9 27  2  0  0  0
 10 11  2  0  0  0
 10 15  1  0  0  0
 11 12  1  0  0  0
 11 95  1  0  0  0
 12 13  2  0  0  0
 12 96  1  0  0  0
 13 14  1  0  0  0
 13 31  1  0  0  0
 14 15  2  0  0  0
 14 97  1  0  0  0
 15 98  1  0  0  0
 16 17  2  0  0  0
 16 21  1  0  0  0
 16 31  1  0  0  0
 17 18  1  0  0  0
 17 99  1  0  0  0
 18 19  2  0  0  0
 18100  1  0  0  0
 19 20  1  0  0  0
 19 24  1  0  0  0
 20 21  2  0  0  0
 20101  1  0  0  0
 21 23  1  0  0  0
 22 28  1  0  0  0
 22 32  2  0  0  0
 26 27  1  0  0  0
 28102  1  0  0  0
 28103  1  0  0  0
 29104  1  0  0  0
 29105  1  0  0  0
 33 34  1  0  0  0
 33 66  1  0  0  0
 33 70  2  0  0  0
 34 36  1  0  0  0
 34 59  1  0  0  0
 34106  1  0  0  0
 35 44  2  0  0  0
 35 45  1  0  0  0
 35 68  1  0  0  0
 36 56  1  0  0  0
 36107  1  0  0  0
 37 39  1  0  0  0
 37 47  1  0  0  0
 37 66  1  0  0  0
 37108  1  0  0  0
 38 43  2  0  0  0
 38 46  1  0  0  0
 38 47  1  0  0  0
 39 64  1  0  0  0
 39 67  2  0  0  0
 40 52  1  0  0  0
 40 53  2  0  0  0
 40 58  1  0  0  0
 41109  1  0  0  0
 41110  1  0  0  0
 41111  1  0  0  0
 41 48  1  0  0  0
 42 43  1  0  0  0
 42 66  1  0  0  0
 42112  1  0  0  0
 42113  1  0  0  0
 43 44  1  0  0  0
 44114  1  0  0  0
 45 46  2  0  0  0
 45115  1  0  0  0
 46116  1  0  0  0
 47117  1  0  0  0
 47118  1  0  0  0
 48 56  1  0  0  0
 48 65  1  0  0  0
 48119  1  0  0  0
 49 50  1  0  0  0
 49 53  1  0  0  0
 49 64  1  0  0  0
 49120  1  0  0  0
 50 51  1  0  0  0
 50121  1  0  0  0
 50122  1  0  0  0
 51 52  1  0  0  0
 51123  1  0  0  0
 51124  1  0  0  0
 52125  1  0  0  0
 52126  1  0  0  0
 53 54  1  0  0  0
 54 55  2  0  0  0
 54127  1  0  0  0
 55 57  1  0  0  0
 55128  1  0  0  0
 56 69  2  0  0  0
 57 58  2  0  0  0
 57129  1  0  0  0
 58130  1  0  0  0
 59 60  1  0  0  0
 59 61  1  0  0  0
 59 62  1  0  0  0
 60131  1  0  0  0
 60132  1  0  0  0
 60133  1  0  0  0
 61134  1  0  0  0
 61135  1  0  0  0
 61136  1  0  0  0
 62137  1  0  0  0
 62138  1  0  0  0
 62139  1  0  0  0
 63 65  1  0  0  0
 63140  1  0  0  0
 63141  1  0  0  0
 63142  1  0  0  0
 64143  1  0  0  0
 65144  1  0  0  0
 68 81  1  0  0  0
 71 73  2  0  0  0
 71 76  1  0  0  0
 71145  1  0  0  0
 72 74  1  0  0  0
 72 75  2  0  0  0
 72146  1  0  0  0
 73 75  1  0  0  0
 73 77  1  0  0  0
 74 76  2  0  0  0
 74 78  1  0  0  0
 75 84  1  0  0  0
 76 85  1  0  0  0
 77 82  1  0  0  0
 77147  1  0  0  0
 77148  1  0  0  0
 78 83  1  0  0  0
 78149  1  0  0  0
 78150  1  0  0  0
 79 80  1  0  0  0
 79 81  1  0  0  0
 79151  1  0  0  0
 79152  1  0  0  0
 80 83  1  0  0  0
 80153  1  0  0  0
 80154  1  0  0  0
 81155  1  0  0  0
 81156  1  0  0  0
 82157  1  0  0  0
 83158  1  0  0  0
 83159  1  0  0  0
M  CHG  1  83   1
M  ISO  4   1 100  68 101  81 101  82 100
M  END
> <chiral flag>
0

> <version>
0

> <s_m_source_file>
/data/baiqing/PycharmProjects/Reinvent-master-3.2/result/LINK_invent/BTK/process_docking_weight1_custom_product_contain_oxygen_bond_distance_aromatic_linkinvent_7_9_3/rearranged_h_0042.sdf

> <i_m_source_file_index>
61

> <r_mmod_Potential_Energy-OPLS-2005>
-338.915008544922

> <r_mmod_Stretch_Energy-OPLS-2005>
34.2291793823242

> <r_mmod_Bend_Energy-OPLS-2005>
90.0460586547852

> <r_mmod_Torsional_Energy-OPLS-2005>
202.370178222656

> <r_mmod_Improper_Torsional_Energy-OPLS-2005>
1.98848819732666

> <r_mmod_Van_der_Waal_Energy-OPLS-2005>
153.71711730957

> <r_mmod_Electrostatic_Energy-OPLS-2005>
-348.312255859375

> <r_mmod_Solvation_Energy-OPLS-2005>
-481.584930419922

> <b_mmod_Minimization_Converged-OPLS-2005>
0

> <r_mmod_RMS_Derivative-OPLS-2005>
1.85295510292053

$$$$
61
                    3D
 Structure written by MMmdl.
181190  0  0  1  0            999 V2000
  -30.6936  -14.5512   20.5241 C   0  0  0  0  0  0
  -30.4185  -12.3425   19.4435 C   0  0  0  0  0  0
  -29.4966  -12.4963   18.2154 C   0  0  0  0  0  0
  -28.0198  -12.3502   18.6293 C   0  0  0  0  0  0
  -27.6533  -13.2173   19.8653 C   0  0  2  0  0  0
  -28.6991  -13.0643   20.9935 C   0  0  0  0  0  0
  -25.2542  -13.8144   20.5663 C   0  0  0  0  0  0
  -24.1812  -13.0410   20.9163 C   0  0  0  0  0  0
  -24.6402  -11.6892   20.8749 C   0  0  0  0  0  0
  -23.9076  -10.4278   21.0414 C   0  0  0  0  0  0
  -24.3623   -9.4196   21.9194 C   0  0  0  0  0  0
  -23.6292   -8.2233   22.0767 C   0  0  0  0  0  0
  -22.4277   -8.0277   21.3552 C   0  0  0  0  0  0
  -21.9915   -9.0247   20.4650 C   0  0  0  0  0  0
  -22.7250  -10.2120   20.3055 C   0  0  0  0  0  0
  -21.6851   -6.0741   22.5283 C   0  0  0  0  0  0
  -21.4011   -6.5646   23.8213 C   0  0  0  0  0  0
  -21.3657   -5.6794   24.9179 C   0  0  0  0  0  0
  -21.6037   -4.3059   24.7230 C   0  0  0  0  0  0
  -21.8819   -3.8148   23.4347 C   0  0  0  0  0  0
  -21.9194   -4.6963   22.3406 C   0  0  0  0  0  0
  -22.7841  -13.5221   21.1822 C   0  0  0  0  0  0
  -22.1662   -4.2159   21.0981 F   0  0  0  0  0  0
  -21.5628   -3.4536   25.7734 F   0  0  0  0  0  0
  -30.0206  -13.3680   20.4252 N   0  0  0  0  0  0
  -26.2999  -12.9353   20.3353 N   0  0  0  0  0  0
  -25.9338  -11.6506   20.5792 N   0  0  0  0  0  0
  -22.0482  -12.8215   22.0377 N   0  0  0  0  0  0
  -25.4189  -15.1859   20.4068 N   0  0  0  0  0  0
  -31.8477  -14.6626   20.1029 O   0  0  0  0  0  0
  -21.6639   -6.8880   21.4240 O   0  0  0  0  0  0
  -22.3531  -14.5540   20.6694 O   0  0  0  0  0  0
  -24.6213  -31.8628   23.2048 C   0  0  0  0  0  0
  -25.9085  -32.4794   23.8350 C   0  0  1  0  0  0
  -27.2257  -27.3795   20.1054 C   0  0  0  0  0  0
  -25.5927  -33.8598   24.2303 N   0  0  0  0  0  0
  -23.4099  -30.4854   21.5479 C   0  0  2  0  0  0
  -24.8527  -28.9451   20.1084 C   0  0  0  0  0  0
  -22.7428  -29.4638   22.4983 C   0  0  0  0  0  0
  -18.0270  -28.1402   22.8501 C   0  0  0  0  0  0
  -24.1487  -36.7293   23.2644 C   0  0  0  0  0  0
  -25.9422  -30.8112   21.3644 C   0  0  0  0  0  0
  -26.0135  -29.4405   20.7128 C   0  0  0  0  0  0
  -27.1990  -28.6633   20.7109 C   0  0  0  0  0  0
  -26.0452  -26.9152   19.4819 C   0  0  0  0  0  0
  -24.8659  -27.6847   19.4882 C   0  0  0  0  0  0
  -23.6155  -29.8158   20.1620 C   0  0  0  0  0  0
  -25.4107  -36.3094   24.0336 C   0  0  1  0  0  0
  -20.5863  -28.3682   23.1320 C   0  0  2  0  0  0
  -20.6773  -26.9415   22.5426 C   0  0  0  0  0  0
  -19.5737  -26.6393   21.5247 C   0  0  0  0  0  0
  -18.1913  -26.7952   22.1628 C   0  0  0  0  0  0
  -19.1523  -28.8856   23.2908 C   0  0  0  0  0  0
  -18.9455  -30.1473   23.8901 C   0  0  0  0  0  0
  -17.6459  -30.6609   24.0582 C   0  0  0  0  0  0
  -25.9028  -34.9461   23.5108 C   0  0  0  0  0  0
  -16.5349  -29.9103   23.6357 C   0  0  0  0  0  0
  -16.7260  -28.6531   23.0355 C   0  0  0  0  0  0
  -26.4504  -31.6583   25.0699 C   0  0  0  0  0  0
  -25.3751  -31.3691   26.1440 C   0  0  0  0  0  0
  -27.0369  -30.3037   24.6093 C   0  0  0  0  0  0
  -27.6067  -32.4312   25.7478 C   0  0  0  0  0  0
  -27.5575  -37.1797   24.8469 C   0  0  0  0  0  0
  -21.4147  -29.3045   22.3726 N   0  0  0  0  0  0
  -26.4288  -37.3785   23.9413 N   0  0  0  0  0  0
  -24.6765  -31.0686   22.0970 N   0  0  0  0  0  0
  -23.4180  -28.8183   23.3044 O   0  0  0  0  0  0
  -28.3873  -26.6196   20.1671 O   0  0  0  0  0  0
  -26.5605  -34.8946   22.4680 O   0  0  0  0  0  0
  -23.5392  -32.1393   23.7423 O   0  0  0  0  0  0
  -31.7002  -17.4443   21.1092 C   0  0  0  0  0  0
  -32.0626  -18.7930   21.3097 C   0  0  0  0  0  0
  -31.0590  -19.7892   21.4633 C   0  0  0  0  0  0
  -29.6839  -19.4389   21.3146 C   0  0  0  0  0  0
  -30.3503  -17.0358   21.0315 C   0  0  0  0  0  0
  -29.3502  -18.0527   21.1138 C   0  0  0  0  0  0
  -35.4292  -22.5688   18.8851 C   0  0  0  0  0  0
  -34.3914  -21.8961   17.9708 C   0  0  0  0  0  0
  -35.2897  -22.2177   20.3749 C   0  0  0  0  0  0
  -34.5902  -20.3720   17.8780 C   0  0  0  0  0  0
  -35.3179  -20.7103   20.6913 C   0  0  0  0  0  0
  -33.8980  -19.5370   18.9801 C   0  0  0  0  0  0
  -31.4674  -21.2179   21.8359 C   0  0  0  0  0  0
  -33.5568  -19.1193   21.4096 C   0  0  0  0  0  0
  -28.5837  -20.5317   21.5038 C   0  0  0  0  0  0
  -27.7440  -24.0931   20.1232 C   0  0  0  0  0  0
  -28.5802  -23.0526   20.9558 C   0  0  0  0  0  0
  -28.4818  -25.3325   19.5020 C   0  0  0  0  0  0
  -29.9702  -15.6349   20.9238 N   0  0  0  0  0  0
  -34.0140  -20.0761   20.3652 N   0  3  0  0  0  0
  -28.5088  -21.6249   20.4745 N   0  3  0  0  0  0
  -27.6965  -17.5558   21.0063 Cl  0  0  0  0  0  0
  -31.4651  -12.4275   19.1448 H   0  0  0  0  0  0
  -30.3156  -11.3463   19.8777 H   0  0  0  0  0  0
  -29.7481  -11.7509   17.4596 H   0  0  0  0  0  0
  -29.6553  -13.4693   17.7489 H   0  0  0  0  0  0
  -27.8475  -11.2967   18.8538 H   0  0  0  0  0  0
  -27.3654  -12.5911   17.7921 H   0  0  0  0  0  0
  -27.6753  -14.2550   19.5314 H   0  0  0  0  0  0
  -28.6910  -12.0481   21.3906 H   0  0  0  0  0  0
  -28.4601  -13.7155   21.8358 H   0  0  0  0  0  0
  -25.2768   -9.5677   22.4769 H   0  0  0  0  0  0
  -24.0001   -7.4634   22.7493 H   0  0  0  0  0  0
  -21.0850   -8.8766   19.8955 H   0  0  0  0  0  0
  -22.3721  -10.9657   19.6158 H   0  0  0  0  0  0
  -21.1997   -7.6153   23.9726 H   0  0  0  0  0  0
  -21.1473   -6.0524   25.9087 H   0  0  0  0  0  0
  -22.0595   -2.7609   23.2842 H   0  0  0  0  0  0
  -22.4085  -11.9857   22.4744 H   0  0  0  0  0  0
  -21.1104  -13.1249   22.2586 H   0  0  0  0  0  0
  -24.6507  -15.8350   20.5343 H   0  0  0  0  0  0
  -26.2836  -15.6474   20.1543 H   0  0  0  0  0  0
  -26.7158  -32.5485   23.1097 H   0  0  0  0  0  0
  -25.0123  -33.9751   25.0478 H   0  0  0  0  0  0
  -22.7051  -31.3064   21.4082 H   0  0  0  0  0  0
  -23.3762  -35.9607   23.3299 H   0  0  0  0  0  0
  -24.3579  -36.8912   22.2056 H   0  0  0  0  0  0
  -23.7239  -37.6494   23.6660 H   0  0  0  0  0  0
  -26.0581  -31.5724   20.5908 H   0  0  0  0  0  0
  -26.8320  -30.8665   21.9804 H   0  0  0  0  0  0
  -28.0930  -29.0372   21.1897 H   0  0  0  0  0  0
  -26.0094  -25.9513   18.9976 H   0  0  0  0  0  0
  -23.9732  -27.3009   19.0134 H   0  0  0  0  0  0
  -23.7163  -30.5912   19.4009 H   0  0  0  0  0  0
  -22.7392  -29.2325   19.8717 H   0  0  0  0  0  0
  -25.1294  -36.1924   25.0825 H   0  0  0  0  0  0
  -20.9949  -28.3236   24.1441 H   0  0  0  0  0  0
  -20.5723  -26.2287   23.3620 H   0  0  0  0  0  0
  -21.6634  -26.7480   22.1185 H   0  0  0  0  0  0
  -19.6911  -25.6311   21.1263 H   0  0  0  0  0  0
  -19.6682  -27.3222   20.6796 H   0  0  0  0  0  0
  -17.4203  -26.6736   21.4018 H   0  0  0  0  0  0
  -18.0255  -26.0090   22.9005 H   0  0  0  0  0  0
  -19.7933  -30.7303   24.2241 H   0  0  0  0  0  0
  -17.5018  -31.6288   24.5189 H   0  0  0  0  0  0
  -15.5354  -30.3017   23.7709 H   0  0  0  0  0  0
  -15.8644  -28.0882   22.7044 H   0  0  0  0  0  0
  -24.5929  -30.7035   25.7782 H   0  0  0  0  0  0
  -24.8941  -32.2852   26.4876 H   0  0  0  0  0  0
  -25.8083  -30.8868   27.0210 H   0  0  0  0  0  0
  -26.2927  -29.6748   24.1201 H   0  0  0  0  0  0
  -27.4243  -29.7313   25.4537 H   0  0  0  0  0  0
  -27.8705  -30.4406   23.9193 H   0  0  0  0  0  0
  -27.2683  -33.3631   26.2021 H   0  0  0  0  0  0
  -28.3894  -32.6828   25.0304 H   0  0  0  0  0  0
  -28.0714  -31.8447   26.5416 H   0  0  0  0  0  0
  -28.2588  -38.0104   24.7534 H   0  0  0  0  0  0
  -28.1074  -36.2636   24.6256 H   0  0  0  0  0  0
  -27.2297  -37.1397   25.8876 H   0  0  0  0  0  0
  -20.9317  -29.8750   21.6933 H   0  0  0  0  0  0
  -26.0166  -38.2856   24.1408 H   0  0  0  0  0  0
  -32.4943  -16.7159   21.0600 H   0  0  0  0  0  0
  -35.3499  -23.6517   18.7750 H   0  0  0  0  0  0
  -36.4344  -22.3167   18.5436 H   0  0  0  0  0  0
  -34.5135  -22.3167   16.9707 H   0  0  0  0  0  0
  -33.3740  -22.1477   18.2726 H   0  0  0  0  0  0
  -34.3843  -22.6701   20.7820 H   0  0  0  0  0  0
  -36.1109  -22.6976   20.9095 H   0  0  0  0  0  0
  -35.6564  -20.1438   17.8473 H   0  0  0  0  0  0
  -34.2062  -20.0278   16.9168 H   0  0  0  0  0  0
  -35.5190  -20.6163   21.7594 H   0  0  0  0  0  0
  -36.1483  -20.2023   20.1991 H   0  0  0  0  0  0
  -34.3014  -18.5234   18.9473 H   0  0  0  0  0  0
  -32.8382  -19.4457   18.7363 H   0  0  0  0  0  0
  -32.3656  -21.2497   22.4512 H   0  0  0  0  0  0
  -30.7241  -21.7228   22.4481 H   0  0  0  0  0  0
  -31.6440  -21.8203   20.9456 H   0  0  0  0  0  0
  -34.1590  -18.2120   21.3445 H   0  0  0  0  0  0
  -33.7392  -19.5085   22.4117 H   0  0  0  0  0  0
  -28.6848  -20.9437   22.5069 H   0  0  0  0  0  0
  -27.5939  -20.0807   21.5251 H   0  0  0  0  0  0
  -26.9098  -24.4431   20.7329 H   0  0  0  0  0  0
  -27.2694  -23.5633   19.2962 H   0  0  0  0  0  0
  -28.2139  -23.0999   21.9822 H   0  0  0  0  0  0
  -29.6252  -23.3570   21.0067 H   0  0  0  0  0  0
  -28.1557  -25.4612   18.4685 H   0  0  0  0  0  0
  -29.5432  -25.0994   19.4110 H   0  0  0  0  0  0
  -28.9987  -15.4437   21.1146 H   0  0  0  0  0  0
  -33.3512  -20.8324   20.4174 H   0  0  0  0  0  0
  -27.6166  -21.5031   20.0233 H   0  0  0  0  0  0
  -29.2102  -21.4703   19.7688 H   0  0  0  0  0  0
  1 25  1  0  0  0
  1 30  2  0  0  0
  1 89  1  0  0  0
  2  3  1  0  0  0
  2 25  1  0  0  0
  2 93  1  0  0  0
  2 94  1  0  0  0
  3  4  1  0  0  0
  3 95  1  0  0  0
  3 96  1  0  0  0
  4  5  1  0  0  0
  4 97  1  0  0  0
  4 98  1  0  0  0
  5  6  1  0  0  0
  5 26  1  0  0  0
  5 99  1  0  0  0
  6 25  1  0  0  0
  6100  1  0  0  0
  6101  1  0  0  0
  7  8  2  0  0  0
  7 26  1  0  0  0
  7 29  1  0  0  0
  8  9  1  0  0  0
  8 22  1  0  0  0
  9 10  1  0  0  0
  9 27  2  0  0  0
 10 11  2  0  0  0
 10 15  1  0  0  0
 11 12  1  0  0  0
 11102  1  0  0  0
 12 13  2  0  0  0
 12103  1  0  0  0
 13 14  1  0  0  0
 13 31  1  0  0  0
 14 15  2  0  0  0
 14104  1  0  0  0
 15105  1  0  0  0
 16 17  2  0  0  0
 16 21  1  0  0  0
 16 31  1  0  0  0
 17 18  1  0  0  0
 17106  1  0  0  0
 18 19  2  0  0  0
 18107  1  0  0  0
 19 20  1  0  0  0
 19 24  1  0  0  0
 20 21  2  0  0  0
 20108  1  0  0  0
 21 23  1  0  0  0
 22 28  1  0  0  0
 22 32  2  0  0  0
 26 27  1  0  0  0
 28109  1  0  0  0
 28110  1  0  0  0
 29111  1  0  0  0
 29112  1  0  0  0
 33 34  1  0  0  0
 33 66  1  0  0  0
 33 70  2  0  0  0
 34 36  1  0  0  0
 34 59  1  0  0  0
 34113  1  0  0  0
 35 44  2  0  0  0
 35 45  1  0  0  0
 35 68  1  0  0  0
 36 56  1  0  0  0
 36114  1  0  0  0
 37 39  1  0  0  0
 37 47  1  0  0  0
 37 66  1  0  0  0
 37115  1  0  0  0
 38 43  2  0  0  0
 38 46  1  0  0  0
 38 47  1  0  0  0
 39 64  1  0  0  0
 39 67  2  0  0  0
 40 52  1  0  0  0
 40 53  2  0  0  0
 40 58  1  0  0  0
 41116  1  0  0  0
 41117  1  0  0  0
 41118  1  0  0  0
 41 48  1  0  0  0
 42 43  1  0  0  0
 42 66  1  0  0  0
 42119  1  0  0  0
 42120  1  0  0  0
 43 44  1  0  0  0
 44121  1  0  0  0
 45 46  2  0  0  0
 45122  1  0  0  0
 46123  1  0  0  0
 47124  1  0  0  0
 47125  1  0  0  0
 48 56  1  0  0  0
 48 65  1  0  0  0
 48126  1  0  0  0
 49 50  1  0  0  0
 49 53  1  0  0  0
 49 64  1  0  0  0
 49127  1  0  0  0
 50 51  1  0  0  0
 50128  1  0  0  0
 50129  1  0  0  0
 51 52  1  0  0  0
 51130  1  0  0  0
 51131  1  0  0  0
 52132  1  0  0  0
 52133  1  0  0  0
 53 54  1  0  0  0
 54 55  2  0  0  0
 54134  1  0  0  0
 55 57  1  0  0  0
 55135  1  0  0  0
 56 69  2  0  0  0
 57 58  2  0  0  0
 57136  1  0  0  0
 58137  1  0  0  0
 59 60  1  0  0  0
 59 61  1  0  0  0
 59 62  1  0  0  0
 60138  1  0  0  0
 60139  1  0  0  0
 60140  1  0  0  0
 61141  1  0  0  0
 61142  1  0  0  0
 61143  1  0  0  0
 62144  1  0  0  0
 62145  1  0  0  0
 62146  1  0  0  0
 63 65  1  0  0  0
 63147  1  0  0  0
 63148  1  0  0  0
 63149  1  0  0  0
 64150  1  0  0  0
 65151  1  0  0  0
 68 88  1  0  0  0
 71 72  2  0  0  0
 71 75  1  0  0  0
 71152  1  0  0  0
 72 73  1  0  0  0
 72 84  1  0  0  0
 73 74  2  0  0  0
 73 83  1  0  0  0
 74 76  1  0  0  0
 74 85  1  0  0  0
 75 76  2  0  0  0
 75 89  1  0  0  0
 76 92  1  0  0  0
 77 78  1  0  0  0
 77 79  1  0  0  0
 77153  1  0  0  0
 77154  1  0  0  0
 78 80  1  0  0  0
 78155  1  0  0  0
 78156  1  0  0  0
 79 81  1  0  0  0
 79157  1  0  0  0
 79158  1  0  0  0
 80 82  1  0  0  0
 80159  1  0  0  0
 80160  1  0  0  0
 81 90  1  0  0  0
 81161  1  0  0  0
 81162  1  0  0  0
 82 90  1  0  0  0
 82163  1  0  0  0
 82164  1  0  0  0
 83165  1  0  0  0
 83166  1  0  0  0
 83167  1  0  0  0
 84168  1  0  0  0
 84169  1  0  0  0
 84 90  1  0  0  0
 85 91  1  0  0  0
 85170  1  0  0  0
 85171  1  0  0  0
 86 87  1  0  0  0
 86 88  1  0  0  0
 86172  1  0  0  0
 86173  1  0  0  0
 87 91  1  0  0  0
 87174  1  0  0  0
 87175  1  0  0  0
 88176  1  0  0  0
 88177  1  0  0  0
 89178  1  0  0  0
 90179  1  0  0  0
 91180  1  0  0  0
 91181  1  0  0  0
M  CHG  2  90   1  91   1
M  ISO  4   1 100  68 101  88 101  89 100
M  END
> <chiral flag>
0

> <version>
0

> <s_m_source_file>
/data/baiqing/PycharmProjects/Reinvent-master-3.2/result/LINK_invent/BTK/process_docking_weight1_custom_product_contain_oxygen_bond_distance_aromatic_linkinvent_7_9_3/rearranged_h_0042.sdf

> <i_m_source_file_index>
62

> <r_mmod_Potential_Energy-OPLS-2005>
-242.848648071289

> <r_mmod_Stretch_Energy-OPLS-2005>
62.7799453735352

> <r_mmod_Bend_Energy-OPLS-2005>
142.795837402344

> <r_mmod_Torsional_Energy-OPLS-2005>
270.16845703125

> <r_mmod_Improper_Torsional_Energy-OPLS-2005>
4.59610033035278

> <r_mmod_Van_der_Waal_Energy-OPLS-2005>
162.647171020508

> <r_mmod_Electrostatic_Energy-OPLS-2005>
0.18100593984127

> <r_mmod_Solvation_Energy-OPLS-2005>
-912.37451171875

> <b_mmod_Minimization_Converged-OPLS-2005>
0

> <r_mmod_RMS_Derivative-OPLS-2005>
2.32126712799072

$$$$
62
                    3D
 Structure written by MMmdl.
159167  0  0  1  0            999 V2000
  -30.7012  -14.4555   20.5839 C   0  0  0  0  0  0
  -30.4194  -12.3050   19.4080 C   0  0  0  0  0  0
  -29.4849  -12.4998   18.1968 C   0  0  0  0  0  0
  -28.0068  -12.3666   18.6131 C   0  0  0  0  0  0
  -27.6589  -13.2035   19.8736 C   0  0  2  0  0  0
  -28.7022  -12.9733   20.9883 C   0  0  0  0  0  0
  -25.2587  -13.8173   20.5694 C   0  0  0  0  0  0
  -24.1828  -13.0452   20.9174 C   0  0  0  0  0  0
  -24.6378  -11.6915   20.8740 C   0  0  0  0  0  0
  -23.9041  -10.4300   21.0405 C   0  0  0  0  0  0
  -24.3606   -9.4218   21.9184 C   0  0  0  0  0  0
  -23.6287   -8.2249   22.0758 C   0  0  0  0  0  0
  -22.4266   -8.0280   21.3546 C   0  0  0  0  0  0
  -21.9896   -9.0249   20.4645 C   0  0  0  0  0  0
  -22.7220  -10.2131   20.3050 C   0  0  0  0  0  0
  -21.6848   -6.0727   22.5275 C   0  0  0  0  0  0
  -21.4008   -6.5635   23.8208 C   0  0  0  0  0  0
  -21.3661   -5.6790   24.9173 C   0  0  0  0  0  0
  -21.6042   -4.3052   24.7224 C   0  0  0  0  0  0
  -21.8822   -3.8142   23.4345 C   0  0  0  0  0  0
  -21.9196   -4.6955   22.3401 C   0  0  0  0  0  0
  -22.7851  -13.5252   21.1846 C   0  0  0  0  0  0
  -22.1655   -4.2140   21.0976 F   0  0  0  0  0  0
  -21.5635   -3.4534   25.7741 F   0  0  0  0  0  0
  -30.0282  -13.2851   20.4315 N   0  0  0  0  0  0
  -26.3009  -12.9327   20.3378 N   0  0  0  0  0  0
  -25.9297  -11.6494   20.5775 N   0  0  0  0  0  0
  -22.0484  -12.8236   22.0386 N   0  0  0  0  0  0
  -25.4357  -15.1891   20.4143 N   0  0  0  0  0  0
  -31.8243  -14.6474   20.1074 O   0  0  0  0  0  0
  -21.6638   -6.8869   21.4236 O   0  0  0  0  0  0
  -22.3541  -14.5569   20.6712 O   0  0  0  0  0  0
  -24.6167  -31.8662   23.2072 C   0  0  0  0  0  0
  -25.9062  -32.4800   23.8358 C   0  0  1  0  0  0
  -27.2262  -27.4126   20.0916 C   0  0  0  0  0  0
  -25.5937  -33.8598   24.2306 N   0  0  0  0  0  0
  -23.4017  -30.4928   21.5487 C   0  0  2  0  0  0
  -24.8437  -28.9521   20.1144 C   0  0  0  0  0  0
  -22.7405  -29.4667   22.4968 C   0  0  0  0  0  0
  -18.0274  -28.1355   22.8468 C   0  0  0  0  0  0
  -24.1497  -36.7281   23.2635 C   0  0  0  0  0  0
  -25.9329  -30.8252   21.3611 C   0  0  0  0  0  0
  -26.0055  -29.4584   20.7062 C   0  0  0  0  0  0
  -27.1976  -28.6976   20.6878 C   0  0  0  0  0  0
  -26.0400  -26.9189   19.5032 C   0  0  0  0  0  0
  -24.8574  -27.6826   19.5106 C   0  0  0  0  0  0
  -23.6083  -29.8232   20.1640 C   0  0  0  0  0  0
  -25.4115  -36.3087   24.0338 C   0  0  1  0  0  0
  -20.5866  -28.3652   23.1287 C   0  0  2  0  0  0
  -20.6769  -26.9383   22.5393 C   0  0  0  0  0  0
  -19.5757  -26.6363   21.5190 C   0  0  0  0  0  0
  -18.1935  -26.7907   22.1594 C   0  0  0  0  0  0
  -19.1526  -28.8826   23.2876 C   0  0  0  0  0  0
  -18.9467  -30.1433   23.8880 C   0  0  0  0  0  0
  -17.6466  -30.6562   24.0562 C   0  0  0  0  0  0
  -25.9041  -34.9461   23.5111 C   0  0  0  0  0  0
  -16.5358  -29.9067   23.6325 C   0  0  0  0  0  0
  -16.7260  -28.6490   23.0327 C   0  0  0  0  0  0
  -26.4481  -31.6578   25.0697 C   0  0  0  0  0  0
  -25.3749  -31.3688   26.1455 C   0  0  0  0  0  0
  -27.0312  -30.3026   24.6065 C   0  0  0  0  0  0
  -27.6062  -32.4291   25.7465 C   0  0  0  0  0  0
  -27.5583  -37.1793   24.8465 C   0  0  0  0  0  0
  -21.4141  -29.3032   22.3709 N   0  0  0  0  0  0
  -26.4288  -37.3785   23.9425 N   0  0  0  0  0  0
  -24.6687  -31.0767   22.0966 N   0  0  0  0  0  0
  -23.4195  -28.8188   23.2989 O   0  0  0  0  0  0
  -28.4150  -26.7051   20.1095 O   0  0  0  0  0  0
  -26.5580  -34.8924   22.4660 O   0  0  0  0  0  0
  -23.5362  -32.1417   23.7467 O   0  0  0  0  0  0
  -27.9060  -19.5793   21.5347 C   0  0  0  0  0  0
  -30.2256  -18.8398   20.1534 C   0  0  0  0  0  0
  -28.5288  -18.3380   21.8225 C   0  0  0  0  0  0
  -28.4406  -20.4713   20.5741 C   0  0  0  0  0  0
  -29.7269  -17.9762   21.1549 C   0  0  0  0  0  0
  -29.5948  -20.0688   19.8603 C   0  0  0  0  0  0
  -27.9146  -17.4277   22.8745 C   0  0  0  0  0  0
  -30.5645  -16.7545   21.5625 C   0  0  0  0  0  0
  -27.7680  -21.8330   20.3136 C   0  0  0  0  0  0
  -27.9621  -24.3319   20.8011 C   0  0  0  0  0  0
  -28.4722  -25.3185   19.7133 C   0  0  0  0  0  0
  -30.0249  -15.4370   21.2075 N   0  0  0  0  0  0
  -28.6045  -22.9801   20.7578 N   0  3  0  0  0  0
  -30.2870  -21.0962   18.6549 Cl  0  0  0  0  0  0
  -31.4620  -12.4094   19.1012 H   0  0  0  0  0  0
  -30.3290  -11.2931   19.8050 H   0  0  0  0  0  0
  -29.7192  -11.7702   17.4200 H   0  0  0  0  0  0
  -29.6519  -13.4821   17.7530 H   0  0  0  0  0  0
  -27.8095  -11.3113   18.8028 H   0  0  0  0  0  0
  -27.3561  -12.6498   17.7854 H   0  0  0  0  0  0
  -27.7069  -14.2529   19.5824 H   0  0  0  0  0  0
  -28.6821  -11.9325   21.3155 H   0  0  0  0  0  0
  -28.4665  -13.5578   21.8780 H   0  0  0  0  0  0
  -25.2749   -9.5694   22.4753 H   0  0  0  0  0  0
  -23.9993   -7.4641   22.7473 H   0  0  0  0  0  0
  -21.0833   -8.8763   19.8943 H   0  0  0  0  0  0
  -22.3683  -10.9669   19.6153 H   0  0  0  0  0  0
  -21.1995   -7.6144   23.9711 H   0  0  0  0  0  0
  -21.1471   -6.0517   25.9075 H   0  0  0  0  0  0
  -22.0605   -2.7600   23.2850 H   0  0  0  0  0  0
  -22.4084  -11.9883   22.4751 H   0  0  0  0  0  0
  -21.1105  -13.1262   22.2592 H   0  0  0  0  0  0
  -24.6797  -15.8528   20.5404 H   0  0  0  0  0  0
  -26.2974  -15.6260   20.1133 H   0  0  0  0  0  0
  -26.7125  -32.5496   23.1102 H   0  0  0  0  0  0
  -25.0214  -33.9761   25.0544 H   0  0  0  0  0  0
  -22.6924  -31.3115   21.4086 H   0  0  0  0  0  0
  -23.3782  -35.9594   23.3297 H   0  0  0  0  0  0
  -24.3601  -36.8875   22.2050 H   0  0  0  0  0  0
  -23.7222  -37.6479   23.6638 H   0  0  0  0  0  0
  -26.0530  -31.5912   20.5933 H   0  0  0  0  0  0
  -26.8190  -30.8727   21.9815 H   0  0  0  0  0  0
  -28.0972  -29.0878   21.1420 H   0  0  0  0  0  0
  -25.9962  -25.9467   19.0343 H   0  0  0  0  0  0
  -23.9617  -27.2845   19.0536 H   0  0  0  0  0  0
  -23.7179  -30.5986   19.4059 H   0  0  0  0  0  0
  -22.7302  -29.2466   19.8656 H   0  0  0  0  0  0
  -25.1284  -36.1938   25.0832 H   0  0  0  0  0  0
  -20.9959  -28.3218   24.1407 H   0  0  0  0  0  0
  -20.5665  -26.2255   23.3578 H   0  0  0  0  0  0
  -21.6639  -26.7411   22.1190 H   0  0  0  0  0  0
  -19.6934  -25.6280   21.1198 H   0  0  0  0  0  0
  -19.6717  -27.3187   20.6739 H   0  0  0  0  0  0
  -17.4204  -26.6647   21.3997 H   0  0  0  0  0  0
  -18.0337  -26.0033   22.8979 H   0  0  0  0  0  0
  -19.7958  -30.7238   24.2226 H   0  0  0  0  0  0
  -17.5044  -31.6247   24.5152 H   0  0  0  0  0  0
  -15.5364  -30.2972   23.7665 H   0  0  0  0  0  0
  -15.8661  -28.0815   22.7036 H   0  0  0  0  0  0
  -24.5980  -30.6950   25.7816 H   0  0  0  0  0  0
  -24.8887  -32.2839   26.4844 H   0  0  0  0  0  0
  -25.8130  -30.8937   27.0244 H   0  0  0  0  0  0
  -26.2851  -29.6776   24.1144 H   0  0  0  0  0  0
  -27.4130  -29.7253   25.4491 H   0  0  0  0  0  0
  -27.8655  -30.4351   23.9174 H   0  0  0  0  0  0
  -27.2709  -33.3629   26.1982 H   0  0  0  0  0  0
  -28.3912  -32.6761   25.0307 H   0  0  0  0  0  0
  -28.0673  -31.8436   26.5424 H   0  0  0  0  0  0
  -28.2564  -38.0126   24.7551 H   0  0  0  0  0  0
  -28.1105  -36.2656   24.6229 H   0  0  0  0  0  0
  -27.2306  -37.1345   25.8865 H   0  0  0  0  0  0
  -20.9295  -29.8778   21.6950 H   0  0  0  0  0  0
  -26.0166  -38.2847   24.1486 H   0  0  0  0  0  0
  -27.0090  -19.8572   22.0721 H   0  0  0  0  0  0
  -31.1322  -18.5783   19.6260 H   0  0  0  0  0  0
  -27.0126  -17.8630   23.3053 H   0  0  0  0  0  0
  -28.6134  -17.2455   23.6910 H   0  0  0  0  0  0
  -27.6338  -16.4690   22.4371 H   0  0  0  0  0  0
  -30.6995  -16.7749   22.6446 H   0  0  0  0  0  0
  -31.5721  -16.8814   21.1627 H   0  0  0  0  0  0
  -26.8121  -21.8591   20.8403 H   0  0  0  0  0  0
  -27.5353  -21.9323   19.2531 H   0  0  0  0  0  0
  -26.8742  -24.2622   20.7876 H   0  0  0  0  0  0
  -28.2194  -24.7523   21.7734 H   0  0  0  0  0  0
  -27.9940  -25.1406   18.7499 H   0  0  0  0  0  0
  -29.5313  -25.1247   19.5409 H   0  0  0  0  0  0
  -29.0953  -15.2144   21.5268 H   0  0  0  0  0  0
  -29.4365  -23.0031   20.1861 H   0  0  0  0  0  0
  -28.9037  -22.7640   21.6960 H   0  0  0  0  0  0
  1 25  1  0  0  0
  1 30  2  0  0  0
  1 82  1  0  0  0
  2  3  1  0  0  0
  2 25  1  0  0  0
  2 85  1  0  0  0
  2 86  1  0  0  0
  3  4  1  0  0  0
  3 87  1  0  0  0
  3 88  1  0  0  0
  4  5  1  0  0  0
  4 89  1  0  0  0
  4 90  1  0  0  0
  5  6  1  0  0  0
  5 26  1  0  0  0
  5 91  1  0  0  0
  6 25  1  0  0  0
  6 92  1  0  0  0
  6 93  1  0  0  0
  7  8  2  0  0  0
  7 26  1  0  0  0
  7 29  1  0  0  0
  8  9  1  0  0  0
  8 22  1  0  0  0
  9 10  1  0  0  0
  9 27  2  0  0  0
 10 11  2  0  0  0
 10 15  1  0  0  0
 11 12  1  0  0  0
 11 94  1  0  0  0
 12 13  2  0  0  0
 12 95  1  0  0  0
 13 14  1  0  0  0
 13 31  1  0  0  0
 14 15  2  0  0  0
 14 96  1  0  0  0
 15 97  1  0  0  0
 16 17  2  0  0  0
 16 21  1  0  0  0
 16 31  1  0  0  0
 17 18  1  0  0  0
 17 98  1  0  0  0
 18 19  2  0  0  0
 18 99  1  0  0  0
 19 20  1  0  0  0
 19 24  1  0  0  0
 20 21  2  0  0  0
 20100  1  0  0  0
 21 23  1  0  0  0
 22 28  1  0  0  0
 22 32  2  0  0  0
 26 27  1  0  0  0
 28101  1  0  0  0
 28102  1  0  0  0
 29103  1  0  0  0
 29104  1  0  0  0
 33 34  1  0  0  0
 33 66  1  0  0  0
 33 70  2  0  0  0
 34 36  1  0  0  0
 34 59  1  0  0  0
 34105  1  0  0  0
 35 44  2  0  0  0
 35 45  1  0  0  0
 35 68  1  0  0  0
 36 56  1  0  0  0
 36106  1  0  0  0
 37 39  1  0  0  0
 37 47  1  0  0  0
 37 66  1  0  0  0
 37107  1  0  0  0
 38 43  2  0  0  0
 38 46  1  0  0  0
 38 47  1  0  0  0
 39 64  1  0  0  0
 39 67  2  0  0  0
 40 52  1  0  0  0
 40 53  2  0  0  0
 40 58  1  0  0  0
 41108  1  0  0  0
 41109  1  0  0  0
 41110  1  0  0  0
 41 48  1  0  0  0
 42 43  1  0  0  0
 42 66  1  0  0  0
 42111  1  0  0  0
 42112  1  0  0  0
 43 44  1  0  0  0
 44113  1  0  0  0
 45 46  2  0  0  0
 45114  1  0  0  0
 46115  1  0  0  0
 47116  1  0  0  0
 47117  1  0  0  0
 48 56  1  0  0  0
 48 65  1  0  0  0
 48118  1  0  0  0
 49 50  1  0  0  0
 49 53  1  0  0  0
 49 64  1  0  0  0
 49119  1  0  0  0
 50 51  1  0  0  0
 50120  1  0  0  0
 50121  1  0  0  0
 51 52  1  0  0  0
 51122  1  0  0  0
 51123  1  0  0  0
 52124  1  0  0  0
 52125  1  0  0  0
 53 54  1  0  0  0
 54 55  2  0  0  0
 54126  1  0  0  0
 55 57  1  0  0  0
 55127  1  0  0  0
 56 69  2  0  0  0
 57 58  2  0  0  0
 57128  1  0  0  0
 58129  1  0  0  0
 59 60  1  0  0  0
 59 61  1  0  0  0
 59 62  1  0  0  0
 60130  1  0  0  0
 60131  1  0  0  0
 60132  1  0  0  0
 61133  1  0  0  0
 61134  1  0  0  0
 61135  1  0  0  0
 62136  1  0  0  0
 62137  1  0  0  0
 62138  1  0  0  0
 63 65  1  0  0  0
 63139  1  0  0  0
 63140  1  0  0  0
 63141  1  0  0  0
 64142  1  0  0  0
 65143  1  0  0  0
 68 81  1  0  0  0
 71 73  2  0  0  0
 71 74  1  0  0  0
 71144  1  0  0  0
 72 75  2  0  0  0
 72 76  1  0  0  0
 72145  1  0  0  0
 73 75  1  0  0  0
 73 77  1  0  0  0
 74 76  2  0  0  0
 74 79  1  0  0  0
 75 78  1  0  0  0
 76 84  1  0  0  0
 77146  1  0  0  0
 77147  1  0  0  0
 77148  1  0  0  0
 78 82  1  0  0  0
 78149  1  0  0  0
 78150  1  0  0  0
 79 83  1  0  0  0
 79151  1  0  0  0
 79152  1  0  0  0
 80 81  1  0  0  0
 80 83  1  0  0  0
 80153  1  0  0  0
 80154  1  0  0  0
 81155  1  0  0  0
 81156  1  0  0  0
 82157  1  0  0  0
 83158  1  0  0  0
 83159  1  0  0  0
M  CHG  1  83   1
M  ISO  4   1 100  68 101  81 101  82 100
M  END
> <chiral flag>
0

> <version>
0

> <s_m_source_file>
/data/baiqing/PycharmProjects/Reinvent-master-3.2/result/LINK_invent/BTK/process_docking_weight1_custom_product_contain_oxygen_bond_distance_aromatic_linkinvent_7_9_3/rearranged_h_0042.sdf

> <i_m_source_file_index>
63

> <r_mmod_Potential_Energy-OPLS-2005>
-293.060821533203

> <r_mmod_Stretch_Energy-OPLS-2005>
39.5977783203125

> <r_mmod_Bend_Energy-OPLS-2005>
105.105651855469

> <r_mmod_Torsional_Energy-OPLS-2005>
194.67854309082

> <r_mmod_Improper_Torsional_Energy-OPLS-2005>
2.724853515625

> <r_mmod_Van_der_Waal_Energy-OPLS-2005>
146.525527954102

> <r_mmod_Electrostatic_Energy-OPLS-2005>
-351.592132568359

> <r_mmod_Solvation_Energy-OPLS-2005>
-443.279815673828

> <b_mmod_Minimization_Converged-OPLS-2005>
0

> <r_mmod_RMS_Derivative-OPLS-2005>
1.94953262805939

$$$$
63
                    3D
 Structure written by MMmdl.
159167  0  0  1  0            999 V2000
  -30.7377  -14.3912   20.6541 C   0  0  0  0  0  0
  -30.4290  -12.3000   19.3825 C   0  0  0  0  0  0
  -29.4757  -12.5168   18.1914 C   0  0  0  0  0  0
  -27.9996  -12.3890   18.6198 C   0  0  0  0  0  0
  -27.6731  -13.2004   19.8991 C   0  0  2  0  0  0
  -28.7210  -12.9197   20.9996 C   0  0  0  0  0  0
  -25.2632  -13.8173   20.5715 C   0  0  0  0  0  0
  -24.1853  -13.0460   20.9185 C   0  0  0  0  0  0
  -24.6415  -11.6927   20.8779 C   0  0  0  0  0  0
  -23.9082  -10.4298   21.0402 C   0  0  0  0  0  0
  -24.3639   -9.4227   21.9194 C   0  0  0  0  0  0
  -23.6328   -8.2267   22.0751 C   0  0  0  0  0  0
  -22.4297   -8.0315   21.3562 C   0  0  0  0  0  0
  -21.9936   -9.0276   20.4662 C   0  0  0  0  0  0
  -22.7255  -10.2157   20.3075 C   0  0  0  0  0  0
  -21.6859   -6.0785   22.5284 C   0  0  0  0  0  0
  -21.4012   -6.5670   23.8229 C   0  0  0  0  0  0
  -21.3643   -5.6810   24.9170 C   0  0  0  0  0  0
  -21.6037   -4.3078   24.7206 C   0  0  0  0  0  0
  -21.8824   -3.8186   23.4325 C   0  0  0  0  0  0
  -21.9188   -4.7014   22.3399 C   0  0  0  0  0  0
  -22.7894  -13.5275   21.1835 C   0  0  0  0  0  0
  -22.1659   -4.2221   21.0986 F   0  0  0  0  0  0
  -21.5622   -3.4550   25.7711 F   0  0  0  0  0  0
  -30.0531  -13.2383   20.4506 N   0  0  0  0  0  0
  -26.3092  -12.9337   20.3533 N   0  0  0  0  0  0
  -25.9352  -11.6502   20.5879 N   0  0  0  0  0  0
  -22.0525  -12.8269   22.0404 N   0  0  0  0  0  0
  -25.4354  -15.1894   20.4162 N   0  0  0  0  0  0
  -31.7963  -14.6610   20.0762 O   0  0  0  0  0  0
  -21.6658   -6.8932   21.4248 O   0  0  0  0  0  0
  -22.3595  -14.5594   20.6697 O   0  0  0  0  0  0
  -24.6145  -31.8668   23.2093 C   0  0  0  0  0  0
  -25.9032  -32.4824   23.8393 C   0  0  1  0  0  0
  -27.2489  -27.4622   20.0666 C   0  0  0  0  0  0
  -25.5890  -33.8620   24.2340 N   0  0  0  0  0  0
  -23.4016  -30.4891   21.5521 C   0  0  2  0  0  0
  -24.8455  -28.9548   20.1140 C   0  0  0  0  0  0
  -22.7412  -29.4649   22.5021 C   0  0  0  0  0  0
  -18.0279  -28.1368   22.8504 C   0  0  0  0  0  0
  -24.1480  -36.7318   23.2643 C   0  0  0  0  0  0
  -25.9272  -30.8367   21.3568 C   0  0  0  0  0  0
  -26.0018  -29.4720   20.7074 C   0  0  0  0  0  0
  -27.1993  -28.7269   20.6899 C   0  0  0  0  0  0
  -26.0645  -26.9396   19.4919 C   0  0  0  0  0  0
  -24.8691  -27.6854   19.5079 C   0  0  0  0  0  0
  -23.6034  -29.8154   20.1679 C   0  0  0  0  0  0
  -25.4100  -36.3128   24.0355 C   0  0  1  0  0  0
  -20.5866  -28.3649   23.1334 C   0  0  2  0  0  0
  -20.6755  -26.9386   22.5423 C   0  0  0  0  0  0
  -19.5728  -26.6376   21.5215 C   0  0  0  0  0  0
  -18.1911  -26.7922   22.1630 C   0  0  0  0  0  0
  -19.1530  -28.8827   23.2910 C   0  0  0  0  0  0
  -18.9446  -30.1436   23.8920 C   0  0  0  0  0  0
  -17.6442  -30.6573   24.0568 C   0  0  0  0  0  0
  -25.9026  -34.9489   23.5150 C   0  0  0  0  0  0
  -16.5336  -29.9074   23.6319 C   0  0  0  0  0  0
  -16.7265  -28.6487   23.0352 C   0  0  0  0  0  0
  -26.4452  -31.6612   25.0727 C   0  0  0  0  0  0
  -25.3726  -31.3687   26.1488 C   0  0  0  0  0  0
  -27.0275  -30.3080   24.6062 C   0  0  0  0  0  0
  -27.6064  -32.4317   25.7449 C   0  0  0  0  0  0
  -27.5590  -37.1803   24.8469 C   0  0  0  0  0  0
  -21.4144  -29.3021   22.3756 N   0  0  0  0  0  0
  -26.4295  -37.3809   23.9423 N   0  0  0  0  0  0
  -24.6671  -31.0794   22.0978 N   0  0  0  0  0  0
  -23.4195  -28.8212   23.3068 O   0  0  0  0  0  0
  -28.4537  -26.7908   20.0855 O   0  0  0  0  0  0
  -26.5580  -34.8939   22.4711 O   0  0  0  0  0  0
  -23.5341  -32.1404   23.7501 O   0  0  0  0  0  0
  -28.1850  -17.4310   22.0272 C   0  0  0  0  0  0
  -27.1356  -18.3313   21.7802 C   0  0  0  0  0  0
  -29.4584  -17.6408   21.4524 C   0  0  0  0  0  0
  -28.5921  -19.6635   20.3393 C   0  0  0  0  0  0
  -27.3269  -19.4337   20.9311 C   0  0  0  0  0  0
  -29.6687  -18.7802   20.6293 C   0  0  0  0  0  0
  -30.5668  -16.6298   21.7622 C   0  0  0  0  0  0
  -28.7638  -20.8138   19.3443 C   0  0  0  0  0  0
  -29.3826  -24.5873   19.6887 C   0  0  0  0  0  0
  -28.7377  -23.2857   19.1746 C   0  0  0  0  0  0
  -28.7856  -25.8599   19.0535 C   0  0  0  0  0  0
  -30.1550  -15.2507   21.4990 N   0  0  0  0  0  0
  -29.1377  -22.1017   19.9733 N   0  3  0  0  0  0
  -25.9826  -20.4813   20.6324 Cl  0  0  0  0  0  0
  -31.2394  -19.1036   19.9679 Cl  0  0  0  0  0  0
  -31.4592  -12.4355   19.0512 H   0  0  0  0  0  0
  -30.3680  -11.2737   19.7504 H   0  0  0  0  0  0
  -29.6909  -11.7999   17.3974 H   0  0  0  0  0  0
  -29.6477  -13.5038   17.7610 H   0  0  0  0  0  0
  -27.7773  -11.3332   18.7829 H   0  0  0  0  0  0
  -27.3531  -12.7152   17.8063 H   0  0  0  0  0  0
  -27.7395  -14.2576   19.6404 H   0  0  0  0  0  0
  -28.6990  -11.8664   21.2829 H   0  0  0  0  0  0
  -28.4885  -13.4547   21.9200 H   0  0  0  0  0  0
  -25.2784   -9.5717   22.4774 H   0  0  0  0  0  0
  -24.0041   -7.4651   22.7466 H   0  0  0  0  0  0
  -21.0868   -8.8800   19.8980 H   0  0  0  0  0  0
  -22.3704  -10.9706   19.6204 H   0  0  0  0  0  0
  -21.2020   -7.6181   23.9747 H   0  0  0  0  0  0
  -21.1439   -6.0534   25.9075 H   0  0  0  0  0  0
  -22.0615   -2.7658   23.2791 H   0  0  0  0  0  0
  -22.4121  -11.9926   22.4798 H   0  0  0  0  0  0
  -21.1161  -13.1342   22.2603 H   0  0  0  0  0  0
  -24.6859  -15.8514   20.5832 H   0  0  0  0  0  0
  -26.3019  -15.6311   20.1379 H   0  0  0  0  0  0
  -26.7117  -32.5533   23.1166 H   0  0  0  0  0  0
  -25.0072  -33.9774   25.0513 H   0  0  0  0  0  0
  -22.6914  -31.3067   21.4117 H   0  0  0  0  0  0
  -23.3755  -35.9637   23.3299 H   0  0  0  0  0  0
  -24.3595  -36.8925   22.2061 H   0  0  0  0  0  0
  -23.7193  -37.6517   23.6635 H   0  0  0  0  0  0
  -26.0338  -31.5972   20.5830 H   0  0  0  0  0  0
  -26.8195  -30.8952   21.9671 H   0  0  0  0  0  0
  -28.0971  -29.1267   21.1393 H   0  0  0  0  0  0
  -26.0336  -25.9582   19.0429 H   0  0  0  0  0  0
  -23.9772  -27.2741   19.0537 H   0  0  0  0  0  0
  -23.6986  -30.5839   19.3991 H   0  0  0  0  0  0
  -22.7301  -29.2244   19.8845 H   0  0  0  0  0  0
  -25.1262  -36.2014   25.0846 H   0  0  0  0  0  0
  -20.9958  -28.3185   24.1450 H   0  0  0  0  0  0
  -20.5643  -26.2248   23.3597 H   0  0  0  0  0  0
  -21.6624  -26.7410   22.1216 H   0  0  0  0  0  0
  -19.6880  -25.6286   21.1233 H   0  0  0  0  0  0
  -19.6677  -27.3198   20.6750 H   0  0  0  0  0  0
  -17.4185  -26.6696   21.4023 H   0  0  0  0  0  0
  -18.0300  -26.0053   22.9009 H   0  0  0  0  0  0
  -19.7916  -30.7254   24.2305 H   0  0  0  0  0  0
  -17.4988  -31.6265   24.5153 H   0  0  0  0  0  0
  -15.5334  -30.2977   23.7622 H   0  0  0  0  0  0
  -15.8665  -28.0801   22.7061 H   0  0  0  0  0  0
  -24.5908  -30.7023   25.7812 H   0  0  0  0  0  0
  -24.8896  -32.2824   26.4977 H   0  0  0  0  0  0
  -25.8097  -30.8827   27.0226 H   0  0  0  0  0  0
  -26.2788  -29.6841   24.1164 H   0  0  0  0  0  0
  -27.4136  -29.7316   25.4480 H   0  0  0  0  0  0
  -27.8583  -30.4450   23.9132 H   0  0  0  0  0  0
  -27.2738  -33.3633   26.2041 H   0  0  0  0  0  0
  -28.3830  -32.6849   25.0217 H   0  0  0  0  0  0
  -28.0771  -31.8424   26.5328 H   0  0  0  0  0  0
  -28.2605  -38.0107   24.7558 H   0  0  0  0  0  0
  -28.1087  -36.2649   24.6237 H   0  0  0  0  0  0
  -27.2326  -37.1388   25.8877 H   0  0  0  0  0  0
  -20.9309  -29.8742   21.6971 H   0  0  0  0  0  0
  -26.0201  -38.2895   24.1434 H   0  0  0  0  0  0
  -28.0064  -16.5854   22.6739 H   0  0  0  0  0  0
  -26.1680  -18.1747   22.2332 H   0  0  0  0  0  0
  -30.8175  -16.7199   22.8201 H   0  0  0  0  0  0
  -31.4855  -16.8565   21.2245 H   0  0  0  0  0  0
  -27.8373  -20.9268   18.7819 H   0  0  0  0  0  0
  -29.5024  -20.5575   18.5871 H   0  0  0  0  0  0
  -30.4555  -24.5620   19.4926 H   0  0  0  0  0  0
  -29.2842  -24.6448   20.7721 H   0  0  0  0  0  0
  -29.0158  -23.1317   18.1304 H   0  0  0  0  0  0
  -27.6488  -23.3738   19.1987 H   0  0  0  0  0  0
  -27.9733  -25.6172   18.3722 H   0  0  0  0  0  0
  -29.5393  -26.3386   18.4265 H   0  0  0  0  0  0
  -29.2972  -14.9425   21.9290 H   0  0  0  0  0  0
  -30.1358  -22.1139   20.1056 H   0  0  0  0  0  0
  -28.7065  -22.1686   20.8809 H   0  0  0  0  0  0
  1 25  1  0  0  0
  1 30  2  0  0  0
  1 82  1  0  0  0
  2  3  1  0  0  0
  2 25  1  0  0  0
  2 86  1  0  0  0
  2 87  1  0  0  0
  3  4  1  0  0  0
  3 88  1  0  0  0
  3 89  1  0  0  0
  4  5  1  0  0  0
  4 90  1  0  0  0
  4 91  1  0  0  0
  5  6  1  0  0  0
  5 26  1  0  0  0
  5 92  1  0  0  0
  6 25  1  0  0  0
  6 93  1  0  0  0
  6 94  1  0  0  0
  7  8  2  0  0  0
  7 26  1  0  0  0
  7 29  1  0  0  0
  8  9  1  0  0  0
  8 22  1  0  0  0
  9 10  1  0  0  0
  9 27  2  0  0  0
 10 11  2  0  0  0
 10 15  1  0  0  0
 11 12  1  0  0  0
 11 95  1  0  0  0
 12 13  2  0  0  0
 12 96  1  0  0  0
 13 14  1  0  0  0
 13 31  1  0  0  0
 14 15  2  0  0  0
 14 97  1  0  0  0
 15 98  1  0  0  0
 16 17  2  0  0  0
 16 21  1  0  0  0
 16 31  1  0  0  0
 17 18  1  0  0  0
 17 99  1  0  0  0
 18 19  2  0  0  0
 18100  1  0  0  0
 19 20  1  0  0  0
 19 24  1  0  0  0
 20 21  2  0  0  0
 20101  1  0  0  0
 21 23  1  0  0  0
 22 28  1  0  0  0
 22 32  2  0  0  0
 26 27  1  0  0  0
 28102  1  0  0  0
 28103  1  0  0  0
 29104  1  0  0  0
 29105  1  0  0  0
 33 34  1  0  0  0
 33 66  1  0  0  0
 33 70  2  0  0  0
 34 36  1  0  0  0
 34 59  1  0  0  0
 34106  1  0  0  0
 35 44  2  0  0  0
 35 45  1  0  0  0
 35 68  1  0  0  0
 36 56  1  0  0  0
 36107  1  0  0  0
 37 39  1  0  0  0
 37 47  1  0  0  0
 37 66  1  0  0  0
 37108  1  0  0  0
 38 43  2  0  0  0
 38 46  1  0  0  0
 38 47  1  0  0  0
 39 64  1  0  0  0
 39 67  2  0  0  0
 40 52  1  0  0  0
 40 53  2  0  0  0
 40 58  1  0  0  0
 41109  1  0  0  0
 41110  1  0  0  0
 41111  1  0  0  0
 41 48  1  0  0  0
 42 43  1  0  0  0
 42 66  1  0  0  0
 42112  1  0  0  0
 42113  1  0  0  0
 43 44  1  0  0  0
 44114  1  0  0  0
 45 46  2  0  0  0
 45115  1  0  0  0
 46116  1  0  0  0
 47117  1  0  0  0
 47118  1  0  0  0
 48 56  1  0  0  0
 48 65  1  0  0  0
 48119  1  0  0  0
 49 50  1  0  0  0
 49 53  1  0  0  0
 49 64  1  0  0  0
 49120  1  0  0  0
 50 51  1  0  0  0
 50121  1  0  0  0
 50122  1  0  0  0
 51 52  1  0  0  0
 51123  1  0  0  0
 51124  1  0  0  0
 52125  1  0  0  0
 52126  1  0  0  0
 53 54  1  0  0  0
 54 55  2  0  0  0
 54127  1  0  0  0
 55 57  1  0  0  0
 55128  1  0  0  0
 56 69  2  0  0  0
 57 58  2  0  0  0
 57129  1  0  0  0
 58130  1  0  0  0
 59 60  1  0  0  0
 59 61  1  0  0  0
 59 62  1  0  0  0
 60131  1  0  0  0
 60132  1  0  0  0
 60133  1  0  0  0
 61134  1  0  0  0
 61135  1  0  0  0
 61136  1  0  0  0
 62137  1  0  0  0
 62138  1  0  0  0
 62139  1  0  0  0
 63 65  1  0  0  0
 63140  1  0  0  0
 63141  1  0  0  0
 63142  1  0  0  0
 64143  1  0  0  0
 65144  1  0  0  0
 68 81  1  0  0  0
 71 72  2  0  0  0
 71 73  1  0  0  0
 71145  1  0  0  0
 72 75  1  0  0  0
 72146  1  0  0  0
 73 76  2  0  0  0
 73 77  1  0  0  0
 74 75  2  0  0  0
 74 76  1  0  0  0
 74 78  1  0  0  0
 75 84  1  0  0  0
 76 85  1  0  0  0
 77 82  1  0  0  0
 77147  1  0  0  0
 77148  1  0  0  0
 78 83  1  0  0  0
 78149  1  0  0  0
 78150  1  0  0  0
 79 80  1  0  0  0
 79 81  1  0  0  0
 79151  1  0  0  0
 79152  1  0  0  0
 80 83  1  0  0  0
 80153  1  0  0  0
 80154  1  0  0  0
 81155  1  0  0  0
 81156  1  0  0  0
 82157  1  0  0  0
 83158  1  0  0  0
 83159  1  0  0  0
M  CHG  1  83   1
M  ISO  4   1 100  68 101  81 101  82 100
M  END
> <chiral flag>
0

> <version>
0

> <s_m_source_file>
/data/baiqing/PycharmProjects/Reinvent-master-3.2/result/LINK_invent/BTK/process_docking_weight1_custom_product_contain_oxygen_bond_distance_aromatic_linkinvent_7_9_3/rearranged_h_0042.sdf

> <i_m_source_file_index>
64

> <r_mmod_Potential_Energy-OPLS-2005>
-318.481567382812

> <r_mmod_Stretch_Energy-OPLS-2005>
34.5611839294434

> <r_mmod_Bend_Energy-OPLS-2005>
96.5918502807617

> <r_mmod_Torsional_Energy-OPLS-2005>
204.460739135742

> <r_mmod_Improper_Torsional_Energy-OPLS-2005>
2.03392267227173

> <r_mmod_Van_der_Waal_Energy-OPLS-2005>
156.776901245117

> <r_mmod_Electrostatic_Energy-OPLS-2005>
-353.594848632812

> <r_mmod_Solvation_Energy-OPLS-2005>
-467.786651611328

> <b_mmod_Minimization_Converged-OPLS-2005>
0

> <r_mmod_RMS_Derivative-OPLS-2005>
4.2513108253479

$$$$
64
                    3D
 Structure written by MMmdl.
169178  0  0  1  0            999 V2000
  -30.5653  -14.7527   20.4185 C   0  0  0  0  0  0
  -30.4305  -12.4500   19.4363 C   0  0  0  0  0  0
  -29.4988  -12.4942   18.2060 C   0  0  0  0  0  0
  -28.0178  -12.3391   18.6208 C   0  0  0  0  0  0
  -27.6271  -13.2348   19.8230 C   0  0  2  0  0  0
  -28.6798  -13.1787   20.9478 C   0  0  0  0  0  0
  -25.2428  -13.8203   20.5665 C   0  0  0  0  0  0
  -24.1739  -13.0484   20.9229 C   0  0  0  0  0  0
  -24.6310  -11.6933   20.8746 C   0  0  0  0  0  0
  -23.9005  -10.4320   21.0378 C   0  0  0  0  0  0
  -24.3564   -9.4246   21.9162 C   0  0  0  0  0  0
  -23.6265   -8.2278   22.0748 C   0  0  0  0  0  0
  -22.4253   -8.0287   21.3546 C   0  0  0  0  0  0
  -21.9868   -9.0251   20.4644 C   0  0  0  0  0  0
  -22.7181  -10.2129   20.3041 C   0  0  0  0  0  0
  -21.6855   -6.0715   22.5279 C   0  0  0  0  0  0
  -21.4031   -6.5626   23.8206 C   0  0  0  0  0  0
  -21.3669   -5.6779   24.9174 C   0  0  0  0  0  0
  -21.6040   -4.3037   24.7228 C   0  0  0  0  0  0
  -21.8813   -3.8128   23.4356 C   0  0  0  0  0  0
  -21.9181   -4.6948   22.3396 C   0  0  0  0  0  0
  -22.7744  -13.5248   21.1938 C   0  0  0  0  0  0
  -22.1650   -4.2116   21.0980 F   0  0  0  0  0  0
  -21.5633   -3.4525   25.7754 F   0  0  0  0  0  0
  -29.9712  -13.5195   20.3443 N   0  0  0  0  0  0
  -26.2836  -12.9428   20.3143 N   0  0  0  0  0  0
  -25.9232  -11.6574   20.5675 N   0  0  0  0  0  0
  -22.0352  -12.8278   22.0468 N   0  0  0  0  0  0
  -25.4175  -15.1967   20.4142 N   0  0  0  0  0  0
  -31.7805  -14.8715   20.2419 O   0  0  0  0  0  0
  -21.6642   -6.8875   21.4244 O   0  0  0  0  0  0
  -22.3458  -14.5568   20.6771 O   0  0  0  0  0  0
  -24.6382  -31.8543   23.1936 C   0  0  0  0  0  0
  -25.9195  -32.4761   23.8295 C   0  0  1  0  0  0
  -27.2012  -27.2269   20.1145 C   0  0  0  0  0  0
  -25.5992  -33.8563   24.2214 N   0  0  0  0  0  0
  -23.4327  -30.4721   21.5489 C   0  0  2  0  0  0
  -24.8664  -28.9111   20.1246 C   0  0  0  0  0  0
  -22.7551  -29.4564   22.4988 C   0  0  0  0  0  0
  -18.0295  -28.1423   22.8521 C   0  0  0  0  0  0
  -24.1451  -36.7226   23.2624 C   0  0  0  0  0  0
  -25.9759  -30.7647   21.3577 C   0  0  0  0  0  0
  -26.0484  -29.3784   20.7095 C   0  0  0  0  0  0
  -27.2262  -28.5543   20.6789 C   0  0  0  0  0  0
  -25.9819  -26.8257   19.5261 C   0  0  0  0  0  0
  -24.8343  -27.6421   19.5349 C   0  0  0  0  0  0
  -23.6409  -29.8047   20.1670 C   0  0  0  0  0  0
  -25.4111  -36.3032   24.0290 C   0  0  1  0  0  0
  -20.5894  -28.3689   23.1321 C   0  0  2  0  0  0
  -20.6741  -26.9406   22.5420 C   0  0  0  0  0  0
  -19.5728  -26.6403   21.5219 C   0  0  0  0  0  0
  -18.1924  -26.7979   22.1641 C   0  0  0  0  0  0
  -19.1547  -28.8877   23.2927 C   0  0  0  0  0  0
  -18.9475  -30.1499   23.8913 C   0  0  0  0  0  0
  -17.6465  -30.6626   24.0560 C   0  0  0  0  0  0
  -25.9068  -34.9432   23.5034 C   0  0  0  0  0  0
  -16.5359  -29.9109   23.6344 C   0  0  0  0  0  0
  -16.7279  -28.6522   23.0382 C   0  0  0  0  0  0
  -26.4522  -31.6644   25.0748 C   0  0  0  0  0  0
  -25.3715  -31.3916   26.1467 C   0  0  0  0  0  0
  -27.0299  -30.3034   24.6228 C   0  0  0  0  0  0
  -27.6031  -32.4419   25.7615 C   0  0  0  0  0  0
  -27.5565  -37.1783   24.8501 C   0  0  0  0  0  0
  -21.4241  -29.3023   22.3734 N   0  0  0  0  0  0
  -26.4261  -37.3769   23.9435 N   0  0  0  0  0  0
  -24.7046  -31.0492   22.0921 N   0  0  0  0  0  0
  -23.4251  -28.8111   23.3102 O   0  0  0  0  0  0
  -28.3004  -26.3291   20.1069 O   0  0  0  0  0  0
  -26.5659  -34.8899   22.4615 O   0  0  0  0  0  0
  -23.5536  -32.1364   23.7261 O   0  0  0  0  0  0
  -29.2763  -18.3977   20.1577 C   0  0  0  0  0  0
  -29.6874  -18.6229   22.8911 C   0  0  0  0  0  0
  -29.0810  -19.7056   20.7755 C   0  0  0  0  0  0
  -29.2698  -19.7619   22.1791 C   0  0  0  0  0  0
  -29.6961  -17.2049   20.8808 C   0  0  0  0  0  0
  -29.9050  -17.3747   22.2725 C   0  0  0  0  0  0
  -30.7989  -22.2827   17.5105 C   0  0  0  0  0  0
  -29.7322  -23.3329   17.1505 C   0  0  0  0  0  0
  -31.5665  -22.5873   18.8165 C   0  0  0  0  0  0
  -28.5675  -23.5112   18.1427 C   0  0  0  0  0  0
  -30.8986  -22.0733   20.1156 C   0  0  0  0  0  0
  -29.0139  -23.7299   19.6060 C   0  0  1  0  0  0
  -29.0277  -21.0398   22.9664 C   0  0  0  0  0  0
  -28.6455  -21.0434   20.0011 C   0  0  0  0  0  0
  -28.1136  -24.8416   20.3787 C   0  0  0  0  0  0
  -29.7231  -15.8482   20.2798 N   0  0  0  0  0  0
  -29.4272  -22.3574   20.2546 N   0  3  1  0  0  0
  -30.3507  -16.0651   23.3047 Cl  0  0  0  0  0  0
  -31.4726  -12.5860   19.1366 H   0  0  0  0  0  0
  -30.3815  -11.4807   19.9315 H   0  0  0  0  0  0
  -29.7658  -11.7158   17.4889 H   0  0  0  0  0  0
  -29.6371  -13.4422   17.6847 H   0  0  0  0  0  0
  -27.8435  -11.2914   18.8693 H   0  0  0  0  0  0
  -27.3663  -12.5579   17.7728 H   0  0  0  0  0  0
  -27.6132  -14.2494   19.4293 H   0  0  0  0  0  0
  -28.7082  -12.1890   21.4003 H   0  0  0  0  0  0
  -28.4283  -13.8798   21.7472 H   0  0  0  0  0  0
  -25.2686   -9.5741   22.4763 H   0  0  0  0  0  0
  -23.9950   -7.4665   22.7466 H   0  0  0  0  0  0
  -21.0794   -8.8766   19.8964 H   0  0  0  0  0  0
  -22.3612  -10.9667   19.6165 H   0  0  0  0  0  0
  -21.2063   -7.6132   23.9710 H   0  0  0  0  0  0
  -21.1484   -6.0507   25.9063 H   0  0  0  0  0  0
  -22.0572   -2.7582   23.2871 H   0  0  0  0  0  0
  -22.3897  -11.9951   22.4960 H   0  0  0  0  0  0
  -21.0937  -13.1309   22.2578 H   0  0  0  0  0  0
  -24.6613  -15.8600   20.5491 H   0  0  0  0  0  0
  -26.2803  -15.6381   20.1239 H   0  0  0  0  0  0
  -26.7295  -32.5345   23.1073 H   0  0  0  0  0  0
  -25.0231  -33.9747   25.0408 H   0  0  0  0  0  0
  -22.7274  -31.2903   21.4071 H   0  0  0  0  0  0
  -23.3706  -35.9556   23.3320 H   0  0  0  0  0  0
  -24.3486  -36.8828   22.2017 H   0  0  0  0  0  0
  -23.7168  -37.6417   23.6649 H   0  0  0  0  0  0
  -26.0925  -31.5154   20.5721 H   0  0  0  0  0  0
  -26.8572  -30.8308   21.9798 H   0  0  0  0  0  0
  -28.1427  -28.9227   21.1170 H   0  0  0  0  0  0
  -25.8655  -25.8574   19.0626 H   0  0  0  0  0  0
  -23.9101  -27.2741   19.1113 H   0  0  0  0  0  0
  -23.7564  -30.5717   19.3997 H   0  0  0  0  0  0
  -22.7506  -29.2423   19.8806 H   0  0  0  0  0  0
  -25.1250  -36.1859   25.0768 H   0  0  0  0  0  0
  -20.9997  -28.3186   24.1442 H   0  0  0  0  0  0
  -20.5599  -26.2284   23.3616 H   0  0  0  0  0  0
  -21.6614  -26.7388   22.1241 H   0  0  0  0  0  0
  -19.6850  -25.6306   21.1281 H   0  0  0  0  0  0
  -19.6667  -27.3158   20.6721 H   0  0  0  0  0  0
  -17.4174  -26.6770   21.4050 H   0  0  0  0  0  0
  -18.0310  -26.0129   22.9044 H   0  0  0  0  0  0
  -19.7925  -30.7355   24.2274 H   0  0  0  0  0  0
  -17.4985  -31.6302   24.5177 H   0  0  0  0  0  0
  -15.5354  -30.2995   23.7676 H   0  0  0  0  0  0
  -15.8691  -28.0827   22.7115 H   0  0  0  0  0  0
  -24.5889  -30.7246   25.7856 H   0  0  0  0  0  0
  -24.8920  -32.3153   26.4726 H   0  0  0  0  0  0
  -25.7975  -30.9255   27.0351 H   0  0  0  0  0  0
  -26.2846  -29.6931   24.1129 H   0  0  0  0  0  0
  -27.3799  -29.7215   25.4756 H   0  0  0  0  0  0
  -27.8804  -30.4257   23.9521 H   0  0  0  0  0  0
  -27.2554  -33.3718   26.2140 H   0  0  0  0  0  0
  -28.3931  -32.7022   25.0558 H   0  0  0  0  0  0
  -28.0603  -31.8609   26.5650 H   0  0  0  0  0  0
  -28.2611  -38.0062   24.7503 H   0  0  0  0  0  0
  -28.1031  -36.2585   24.6351 H   0  0  0  0  0  0
  -27.2319  -37.1450   25.8928 H   0  0  0  0  0  0
  -20.9475  -29.8733   21.6876 H   0  0  0  0  0  0
  -26.0113  -38.2812   24.1502 H   0  0  0  0  0  0
  -29.0932  -18.2949   19.0941 H   0  0  0  0  0  0
  -29.8310  -18.6980   23.9594 H   0  0  0  0  0  0
  -31.5287  -22.3083   16.7005 H   0  0  0  0  0  0
  -30.3896  -21.2725   17.4955 H   0  0  0  0  0  0
  -29.3217  -23.1192   16.1577 H   0  0  0  0  0  0
  -30.2480  -24.2881   17.0573 H   0  0  0  0  0  0
  -31.7727  -23.6550   18.8857 H   0  0  0  0  0  0
  -32.5610  -22.1426   18.7530 H   0  0  0  0  0  0
  -27.8500  -22.6957   18.0628 H   0  0  0  0  0  0
  -28.0109  -24.3877   17.8096 H   0  0  0  0  0  0
  -31.4310  -22.5095   20.9647 H   0  0  0  0  0  0
  -31.1166  -21.0054   20.2049 H   0  0  0  0  0  0
  -29.9130  -24.3406   19.5798 H   0  0  0  0  0  0
  -29.8282  -21.7612   22.8010 H   0  0  0  0  0  0
  -29.0086  -20.8345   24.0343 H   0  0  0  0  0  0
  -28.0702  -21.4835   22.6971 H   0  0  0  0  0  0
  -27.5833  -21.2115   20.1957 H   0  0  0  0  0  0
  -28.7007  -20.8061   18.9419 H   0  0  0  0  0  0
  -28.3421  -24.7463   21.4385 H   0  0  0  0  0  0
  -27.0756  -24.5296   20.2872 H   0  0  0  0  0  0
  -28.8760  -15.6261   19.7839 H   0  0  0  0  0  0
  -29.3168  -22.4888   21.2478 H   0  0  0  0  0  0
  1 25  1  0  0  0
  1 30  2  0  0  0
  1 86  1  0  0  0
  2  3  1  0  0  0
  2 25  1  0  0  0
  2 89  1  0  0  0
  2 90  1  0  0  0
  3  4  1  0  0  0
  3 91  1  0  0  0
  3 92  1  0  0  0
  4  5  1  0  0  0
  4 93  1  0  0  0
  4 94  1  0  0  0
  5  6  1  0  0  0
  5 26  1  0  0  0
  5 95  1  0  0  0
  6 25  1  0  0  0
  6 96  1  0  0  0
  6 97  1  0  0  0
  7  8  2  0  0  0
  7 26  1  0  0  0
  7 29  1  0  0  0
  8  9  1  0  0  0
  8 22  1  0  0  0
  9 10  1  0  0  0
  9 27  2  0  0  0
 10 11  2  0  0  0
 10 15  1  0  0  0
 11 12  1  0  0  0
 11 98  1  0  0  0
 12 13  2  0  0  0
 12 99  1  0  0  0
 13 14  1  0  0  0
 13 31  1  0  0  0
 14 15  2  0  0  0
 14100  1  0  0  0
 15101  1  0  0  0
 16 17  2  0  0  0
 16 21  1  0  0  0
 16 31  1  0  0  0
 17 18  1  0  0  0
 17102  1  0  0  0
 18 19  2  0  0  0
 18103  1  0  0  0
 19 20  1  0  0  0
 19 24  1  0  0  0
 20 21  2  0  0  0
 20104  1  0  0  0
 21 23  1  0  0  0
 22 28  1  0  0  0
 22 32  2  0  0  0
 26 27  1  0  0  0
 28105  1  0  0  0
 28106  1  0  0  0
 29107  1  0  0  0
 29108  1  0  0  0
 33 34  1  0  0  0
 33 66  1  0  0  0
 33 70  2  0  0  0
 34 36  1  0  0  0
 34 59  1  0  0  0
 34109  1  0  0  0
 35 44  2  0  0  0
 35 45  1  0  0  0
 35 68  1  0  0  0
 36 56  1  0  0  0
 36110  1  0  0  0
 37 39  1  0  0  0
 37 47  1  0  0  0
 37 66  1  0  0  0
 37111  1  0  0  0
 38 43  2  0  0  0
 38 46  1  0  0  0
 38 47  1  0  0  0
 39 64  1  0  0  0
 39 67  2  0  0  0
 40 52  1  0  0  0
 40 53  2  0  0  0
 40 58  1  0  0  0
 41112  1  0  0  0
 41113  1  0  0  0
 41114  1  0  0  0
 41 48  1  0  0  0
 42 43  1  0  0  0
 42 66  1  0  0  0
 42115  1  0  0  0
 42116  1  0  0  0
 43 44  1  0  0  0
 44117  1  0  0  0
 45 46  2  0  0  0
 45118  1  0  0  0
 46119  1  0  0  0
 47120  1  0  0  0
 47121  1  0  0  0
 48 56  1  0  0  0
 48 65  1  0  0  0
 48122  1  0  0  0
 49 50  1  0  0  0
 49 53  1  0  0  0
 49 64  1  0  0  0
 49123  1  0  0  0
 50 51  1  0  0  0
 50124  1  0  0  0
 50125  1  0  0  0
 51 52  1  0  0  0
 51126  1  0  0  0
 51127  1  0  0  0
 52128  1  0  0  0
 52129  1  0  0  0
 53 54  1  0  0  0
 54 55  2  0  0  0
 54130  1  0  0  0
 55 57  1  0  0  0
 55131  1  0  0  0
 56 69  2  0  0  0
 57 58  2  0  0  0
 57132  1  0  0  0
 58133  1  0  0  0
 59 60  1  0  0  0
 59 61  1  0  0  0
 59 62  1  0  0  0
 60134  1  0  0  0
 60135  1  0  0  0
 60136  1  0  0  0
 61137  1  0  0  0
 61138  1  0  0  0
 61139  1  0  0  0
 62140  1  0  0  0
 62141  1  0  0  0
 62142  1  0  0  0
 63 65  1  0  0  0
 63143  1  0  0  0
 63144  1  0  0  0
 63145  1  0  0  0
 64146  1  0  0  0
 65147  1  0  0  0
 68 85  1  0  0  0
 71 73  2  0  0  0
 71 75  1  0  0  0
 71148  1  0  0  0
 72 74  2  0  0  0
 72 76  1  0  0  0
 72149  1  0  0  0
 73 74  1  0  0  0
 73 84  1  0  0  0
 74 83  1  0  0  0
 75 76  2  0  0  0
 75 86  1  0  0  0
 76 88  1  0  0  0
 77 78  1  0  0  0
 77 79  1  0  0  0
 77150  1  0  0  0
 77151  1  0  0  0
 78 80  1  0  0  0
 78152  1  0  0  0
 78153  1  0  0  0
 79 81  1  0  0  0
 79154  1  0  0  0
 79155  1  0  0  0
 80 82  1  0  0  0
 80156  1  0  0  0
 80157  1  0  0  0
 81 87  1  0  0  0
 81158  1  0  0  0
 81159  1  0  0  0
 82 85  1  0  0  0
 82 87  1  0  0  0
 82160  1  0  0  0
 83161  1  0  0  0
 83162  1  0  0  0
 83163  1  0  0  0
 84164  1  0  0  0
 84165  1  0  0  0
 84 87  1  0  0  0
 85166  1  0  0  0
 85167  1  0  0  0
 86168  1  0  0  0
 87169  1  0  0  0
M  CHG  1  87   1
M  ISO  4   1 100  68 101  85 101  86 100
M  END
> <chiral flag>
0

> <version>
0

> <s_m_source_file>
/data/baiqing/PycharmProjects/Reinvent-master-3.2/result/LINK_invent/BTK/process_docking_weight1_custom_product_contain_oxygen_bond_distance_aromatic_linkinvent_7_9_3/rearranged_h_0042.sdf

> <i_m_source_file_index>
65

> <r_mmod_Potential_Energy-OPLS-2005>
254.038284301758

> <r_mmod_Stretch_Energy-OPLS-2005>
144.067123413086

> <r_mmod_Bend_Energy-OPLS-2005>
201.216110229492

> <r_mmod_Torsional_Energy-OPLS-2005>
315.118286132812

> <r_mmod_Improper_Torsional_Energy-OPLS-2005>
12.4499244689941

> <r_mmod_Van_der_Waal_Energy-OPLS-2005>
149.865341186523

> <r_mmod_Electrostatic_Energy-OPLS-2005>
-237.489044189453

> <r_mmod_Solvation_Energy-OPLS-2005>
-433.546203613281

> <b_mmod_Minimization_Converged-OPLS-2005>
0

> <r_mmod_RMS_Derivative-OPLS-2005>
7.85930633544922

$$$$
65
                    3D
 Structure written by MMmdl.
156164  0  0  1  0            999 V2000
  -30.6284  -14.6262   20.5053 C   0  0  0  0  0  0
  -30.4405  -12.3873   19.4444 C   0  0  0  0  0  0
  -29.5063  -12.5098   18.2199 C   0  0  0  0  0  0
  -28.0293  -12.3465   18.6320 C   0  0  0  0  0  0
  -27.6542  -13.2123   19.8636 C   0  0  2  0  0  0
  -28.7011  -13.0605   20.9907 C   0  0  0  0  0  0
  -25.2559  -13.8153   20.5683 C   0  0  0  0  0  0
  -24.1823  -13.0418   20.9175 C   0  0  0  0  0  0
  -24.6396  -11.6889   20.8725 C   0  0  0  0  0  0
  -23.9064  -10.4276   21.0402 C   0  0  0  0  0  0
  -24.3616   -9.4188   21.9183 C   0  0  0  0  0  0
  -23.6280   -8.2232   22.0756 C   0  0  0  0  0  0
  -22.4265   -8.0276   21.3548 C   0  0  0  0  0  0
  -21.9900   -9.0249   20.4650 C   0  0  0  0  0  0
  -22.7236  -10.2123   20.3055 C   0  0  0  0  0  0
  -21.6848   -6.0723   22.5279 C   0  0  0  0  0  0
  -21.4011   -6.5627   23.8214 C   0  0  0  0  0  0
  -21.3660   -5.6782   24.9176 C   0  0  0  0  0  0
  -21.6050   -4.3045   24.7227 C   0  0  0  0  0  0
  -21.8818   -3.8136   23.4350 C   0  0  0  0  0  0
  -21.9186   -4.6951   22.3403 C   0  0  0  0  0  0
  -22.7848  -13.5221   21.1839 C   0  0  0  0  0  0
  -22.1657   -4.2134   21.0980 F   0  0  0  0  0  0
  -21.5629   -3.4530   25.7743 F   0  0  0  0  0  0
  -30.0177  -13.4023   20.4281 N   0  0  0  0  0  0
  -26.2992  -12.9336   20.3321 N   0  0  0  0  0  0
  -25.9324  -11.6492   20.5744 N   0  0  0  0  0  0
  -22.0487  -12.8228   22.0403 N   0  0  0  0  0  0
  -25.4244  -15.1879   20.4138 N   0  0  0  0  0  0
  -31.7909  -14.7957   20.1267 O   0  0  0  0  0  0
  -21.6629   -6.8872   21.4245 O   0  0  0  0  0  0
  -22.3536  -14.5524   20.6678 O   0  0  0  0  0  0
  -24.6264  -31.8606   23.2027 C   0  0  0  0  0  0
  -25.9115  -32.4779   23.8355 C   0  0  1  0  0  0
  -27.2242  -27.3263   20.1105 C   0  0  0  0  0  0
  -25.5931  -33.8578   24.2282 N   0  0  0  0  0  0
  -23.4191  -30.4855   21.5458 C   0  0  2  0  0  0
  -24.8643  -28.9448   20.1094 C   0  0  0  0  0  0
  -22.7476  -29.4632   22.4935 C   0  0  0  0  0  0
  -18.0284  -28.1388   22.8481 C   0  0  0  0  0  0
  -24.1488  -36.7298   23.2639 C   0  0  0  0  0  0
  -25.9603  -30.7943   21.3721 C   0  0  0  0  0  0
  -26.0340  -29.4231   20.7127 C   0  0  0  0  0  0
  -27.2174  -28.6270   20.7013 C   0  0  0  0  0  0
  -26.0277  -26.9009   19.4846 C   0  0  0  0  0  0
  -24.8637  -27.6900   19.4847 C   0  0  0  0  0  0
  -23.6319  -29.8234   20.1600 C   0  0  0  0  0  0
  -25.4111  -36.3083   24.0329 C   0  0  1  0  0  0
  -20.5886  -28.3690   23.1283 C   0  0  2  0  0  0
  -20.6772  -26.9413   22.5408 C   0  0  0  0  0  0
  -19.5751  -26.6388   21.5206 C   0  0  0  0  0  0
  -18.1930  -26.7932   22.1619 C   0  0  0  0  0  0
  -19.1536  -28.8856   23.2878 C   0  0  0  0  0  0
  -18.9460  -30.1455   23.8898 C   0  0  0  0  0  0
  -17.6459  -30.6587   24.0565 C   0  0  0  0  0  0
  -25.9048  -34.9450   23.5105 C   0  0  0  0  0  0
  -16.5351  -29.9087   23.6326 C   0  0  0  0  0  0
  -16.7271  -28.6506   23.0345 C   0  0  0  0  0  0
  -26.4503  -31.6586   25.0722 C   0  0  0  0  0  0
  -25.3746  -31.3718   26.1456 C   0  0  0  0  0  0
  -27.0344  -30.3012   24.6169 C   0  0  0  0  0  0
  -27.6065  -32.4321   25.7492 C   0  0  0  0  0  0
  -27.5579  -37.1802   24.8463 C   0  0  0  0  0  0
  -21.4188  -29.3045   22.3679 N   0  0  0  0  0  0
  -26.4291  -37.3775   23.9408 N   0  0  0  0  0  0
  -24.6877  -31.0631   22.0969 N   0  0  0  0  0  0
  -23.4201  -28.8164   23.3007 O   0  0  0  0  0  0
  -28.3479  -26.4850   20.1544 O   0  0  0  0  0  0
  -26.5612  -34.8920   22.4668 O   0  0  0  0  0  0
  -23.5433  -32.1402   23.7359 O   0  0  0  0  0  0
  -29.3031  -19.2165   19.5140 C   0  0  0  0  0  0
  -30.6383  -17.9226   21.5997 C   0  0  0  0  0  0
  -29.2741  -17.7916   19.6160 C   0  0  0  0  0  0
  -29.9931  -20.0375   20.4441 C   0  0  0  0  0  0
  -29.9600  -17.1061   20.6595 C   0  0  0  0  0  0
  -30.6580  -19.3461   21.5011 C   0  0  0  0  0  0
  -28.4942  -17.0077   18.5754 C   0  0  0  0  0  0
  -30.1624  -21.5879   20.2020 C   0  0  0  0  0  0
  -29.3361  -24.0319   20.3161 C   0  0  0  0  0  0
  -28.1176  -25.0228   20.0979 C   0  0  0  0  0  0
  -29.8146  -15.6675   20.8563 N   0  0  0  0  0  0
  -29.0064  -22.5428   20.3976 N   0  3  0  0  0  0
  -31.5379  -20.2186   22.7067 Cl  0  0  0  0  0  0
  -31.4808  -12.5153   19.1400 H   0  0  0  0  0  0
  -30.3779  -11.3891   19.8797 H   0  0  0  0  0  0
  -29.7677  -11.7642   17.4677 H   0  0  0  0  0  0
  -29.6468  -13.4826   17.7460 H   0  0  0  0  0  0
  -27.8644  -11.2921   18.8568 H   0  0  0  0  0  0
  -27.3763  -12.5830   17.7912 H   0  0  0  0  0  0
  -27.6715  -14.2474   19.5252 H   0  0  0  0  0  0
  -28.7100  -12.0363   21.3667 H   0  0  0  0  0  0
  -28.4493  -13.6872   21.8473 H   0  0  0  0  0  0
  -25.2768   -9.5642   22.4745 H   0  0  0  0  0  0
  -23.9978   -7.4617   22.7476 H   0  0  0  0  0  0
  -21.0828   -8.8781   19.8955 H   0  0  0  0  0  0
  -22.3715  -10.9660   19.6153 H   0  0  0  0  0  0
  -21.2009   -7.6137   23.9716 H   0  0  0  0  0  0
  -21.1486   -6.0512   25.9080 H   0  0  0  0  0  0
  -22.0597   -2.7595   23.2861 H   0  0  0  0  0  0
  -22.4097  -11.9892   22.4804 H   0  0  0  0  0  0
  -21.1110  -13.1268   22.2610 H   0  0  0  0  0  0
  -24.6557  -15.8388   20.5335 H   0  0  0  0  0  0
  -26.2747  -15.6348   20.1000 H   0  0  0  0  0  0
  -26.7185  -32.5453   23.1108 H   0  0  0  0  0  0
  -25.0080  -33.9723   25.0428 H   0  0  0  0  0  0
  -22.7128  -31.3060   21.4049 H   0  0  0  0  0  0
  -23.3743  -35.9638   23.3303 H   0  0  0  0  0  0
  -24.3580  -36.8916   22.2053 H   0  0  0  0  0  0
  -23.7249  -37.6505   23.6658 H   0  0  0  0  0  0
  -26.0924  -31.5590   20.6052 H   0  0  0  0  0  0
  -26.8411  -30.8413   22.0012 H   0  0  0  0  0  0
  -28.1156  -28.9920   21.1791 H   0  0  0  0  0  0
  -25.9533  -25.9474   18.9858 H   0  0  0  0  0  0
  -23.9692  -27.3219   19.0005 H   0  0  0  0  0  0
  -23.7482  -30.6015   19.4047 H   0  0  0  0  0  0
  -22.7523  -29.2524   19.8577 H   0  0  0  0  0  0
  -25.1290  -36.1936   25.0821 H   0  0  0  0  0  0
  -20.9974  -28.3260   24.1406 H   0  0  0  0  0  0
  -20.5662  -26.2298   23.3604 H   0  0  0  0  0  0
  -21.6643  -26.7437   22.1210 H   0  0  0  0  0  0
  -19.6913  -25.6298   21.1235 H   0  0  0  0  0  0
  -19.6693  -27.3197   20.6735 H   0  0  0  0  0  0
  -17.4196  -26.6669   21.4025 H   0  0  0  0  0  0
  -18.0338  -26.0077   22.9020 H   0  0  0  0  0  0
  -19.7933  -30.7271   24.2272 H   0  0  0  0  0  0
  -17.5012  -31.6265   24.5169 H   0  0  0  0  0  0
  -15.5351  -30.2990   23.7653 H   0  0  0  0  0  0
  -15.8669  -28.0829   22.7059 H   0  0  0  0  0  0
  -24.5919  -30.7067   25.7790 H   0  0  0  0  0  0
  -24.8944  -32.2881   26.4897 H   0  0  0  0  0  0
  -25.8086  -30.8889   27.0220 H   0  0  0  0  0  0
  -26.2911  -29.6758   24.1210 H   0  0  0  0  0  0
  -27.4064  -29.7272   25.4667 H   0  0  0  0  0  0
  -27.8772  -30.4300   23.9375 H   0  0  0  0  0  0
  -27.2672  -33.3613   26.2081 H   0  0  0  0  0  0
  -28.3867  -32.6893   25.0316 H   0  0  0  0  0  0
  -28.0742  -31.8440   26.5399 H   0  0  0  0  0  0
  -28.2596  -38.0099   24.7501 H   0  0  0  0  0  0
  -28.1075  -36.2629   24.6294 H   0  0  0  0  0  0
  -27.2299  -37.1455   25.8868 H   0  0  0  0  0  0
  -20.9360  -29.8785   21.6910 H   0  0  0  0  0  0
  -26.0172  -38.2853   24.1403 H   0  0  0  0  0  0
  -28.8004  -19.6916   18.6831 H   0  0  0  0  0  0
  -31.1466  -17.4557   22.4310 H   0  0  0  0  0  0
  -28.2974  -17.6136   17.6905 H   0  0  0  0  0  0
  -27.5349  -16.6899   18.9816 H   0  0  0  0  0  0
  -29.0455  -16.1244   18.2521 H   0  0  0  0  0  0
  -30.5001  -21.7040   19.1716 H   0  0  0  0  0  0
  -30.9934  -21.9564   20.8007 H   0  0  0  0  0  0
  -29.8604  -24.3111   21.2306 H   0  0  0  0  0  0
  -30.0438  -24.1908   19.5019 H   0  0  0  0  0  0
  -27.3492  -24.7783   20.8330 H   0  0  0  0  0  0
  -27.7061  -24.7759   19.1195 H   0  0  0  0  0  0
  -28.8828  -15.3659   21.0946 H   0  0  0  0  0  0
  -28.5912  -22.3536   21.2963 H   0  0  0  0  0  0
  -28.3157  -22.3158   19.6999 H   0  0  0  0  0  0
  1 25  1  0  0  0
  1 30  2  0  0  0
  1 81  1  0  0  0
  2  3  1  0  0  0
  2 25  1  0  0  0
  2 84  1  0  0  0
  2 85  1  0  0  0
  3  4  1  0  0  0
  3 86  1  0  0  0
  3 87  1  0  0  0
  4  5  1  0  0  0
  4 88  1  0  0  0
  4 89  1  0  0  0
  5  6  1  0  0  0
  5 26  1  0  0  0
  5 90  1  0  0  0
  6 25  1  0  0  0
  6 91  1  0  0  0
  6 92  1  0  0  0
  7  8  2  0  0  0
  7 26  1  0  0  0
  7 29  1  0  0  0
  8  9  1  0  0  0
  8 22  1  0  0  0
  9 10  1  0  0  0
  9 27  2  0  0  0
 10 11  2  0  0  0
 10 15  1  0  0  0
 11 12  1  0  0  0
 11 93  1  0  0  0
 12 13  2  0  0  0
 12 94  1  0  0  0
 13 14  1  0  0  0
 13 31  1  0  0  0
 14 15  2  0  0  0
 14 95  1  0  0  0
 15 96  1  0  0  0
 16 17  2  0  0  0
 16 21  1  0  0  0
 16 31  1  0  0  0
 17 18  1  0  0  0
 17 97  1  0  0  0
 18 19  2  0  0  0
 18 98  1  0  0  0
 19 20  1  0  0  0
 19 24  1  0  0  0
 20 21  2  0  0  0
 20 99  1  0  0  0
 21 23  1  0  0  0
 22 28  1  0  0  0
 22 32  2  0  0  0
 26 27  1  0  0  0
 28100  1  0  0  0
 28101  1  0  0  0
 29102  1  0  0  0
 29103  1  0  0  0
 33 34  1  0  0  0
 33 66  1  0  0  0
 33 70  2  0  0  0
 34 36  1  0  0  0
 34 59  1  0  0  0
 34104  1  0  0  0
 35 44  2  0  0  0
 35 45  1  0  0  0
 35 68  1  0  0  0
 36 56  1  0  0  0
 36105  1  0  0  0
 37 39  1  0  0  0
 37 47  1  0  0  0
 37 66  1  0  0  0
 37106  1  0  0  0
 38 43  2  0  0  0
 38 46  1  0  0  0
 38 47  1  0  0  0
 39 64  1  0  0  0
 39 67  2  0  0  0
 40 52  1  0  0  0
 40 53  2  0  0  0
 40 58  1  0  0  0
 41107  1  0  0  0
 41108  1  0  0  0
 41109  1  0  0  0
 41 48  1  0  0  0
 42 43  1  0  0  0
 42 66  1  0  0  0
 42110  1  0  0  0
 42111  1  0  0  0
 43 44  1  0  0  0
 44112  1  0  0  0
 45 46  2  0  0  0
 45113  1  0  0  0
 46114  1  0  0  0
 47115  1  0  0  0
 47116  1  0  0  0
 48 56  1  0  0  0
 48 65  1  0  0  0
 48117  1  0  0  0
 49 50  1  0  0  0
 49 53  1  0  0  0
 49 64  1  0  0  0
 49118  1  0  0  0
 50 51  1  0  0  0
 50119  1  0  0  0
 50120  1  0  0  0
 51 52  1  0  0  0
 51121  1  0  0  0
 51122  1  0  0  0
 52123  1  0  0  0
 52124  1  0  0  0
 53 54  1  0  0  0
 54 55  2  0  0  0
 54125  1  0  0  0
 55 57  1  0  0  0
 55126  1  0  0  0
 56 69  2  0  0  0
 57 58  2  0  0  0
 57127  1  0  0  0
 58128  1  0  0  0
 59 60  1  0  0  0
 59 61  1  0  0  0
 59 62  1  0  0  0
 60129  1  0  0  0
 60130  1  0  0  0
 60131  1  0  0  0
 61132  1  0  0  0
 61133  1  0  0  0
 61134  1  0  0  0
 62135  1  0  0  0
 62136  1  0  0  0
 62137  1  0  0  0
 63 65  1  0  0  0
 63138  1  0  0  0
 63139  1  0  0  0
 63140  1  0  0  0
 64141  1  0  0  0
 65142  1  0  0  0
 68 80  1  0  0  0
 71 73  2  0  0  0
 71 74  1  0  0  0
 71143  1  0  0  0
 72 75  2  0  0  0
 72 76  1  0  0  0
 72144  1  0  0  0
 73 75  1  0  0  0
 73 77  1  0  0  0
 74 76  2  0  0  0
 74 78  1  0  0  0
 75 81  1  0  0  0
 76 83  1  0  0  0
 77145  1  0  0  0
 77146  1  0  0  0
 77147  1  0  0  0
 78 82  1  0  0  0
 78148  1  0  0  0
 78149  1  0  0  0
 79 80  1  0  0  0
 79 82  1  0  0  0
 79150  1  0  0  0
 79151  1  0  0  0
 80152  1  0  0  0
 80153  1  0  0  0
 81154  1  0  0  0
 82155  1  0  0  0
 82156  1  0  0  0
M  CHG  1  82   1
M  ISO  4   1 100  68 101  80 101  81 100
M  END
> <chiral flag>
0

> <version>
0

> <s_m_source_file>
/data/baiqing/PycharmProjects/Reinvent-master-3.2/result/LINK_invent/BTK/process_docking_weight1_custom_product_contain_oxygen_bond_distance_aromatic_linkinvent_7_9_3/rearranged_h_0042.sdf

> <i_m_source_file_index>
66

> <r_mmod_Potential_Energy-OPLS-2005>
-135.164184570312

> <r_mmod_Stretch_Energy-OPLS-2005>
75.1016235351562

> <r_mmod_Bend_Energy-OPLS-2005>
126.764350891113

> <r_mmod_Torsional_Energy-OPLS-2005>
233.653747558594

> <r_mmod_Improper_Torsional_Energy-OPLS-2005>
5.93656492233276

> <r_mmod_Van_der_Waal_Energy-OPLS-2005>
139.219604492188

> <r_mmod_Electrostatic_Energy-OPLS-2005>
-290.225952148438

> <r_mmod_Solvation_Energy-OPLS-2005>
-470.257629394531

> <b_mmod_Minimization_Converged-OPLS-2005>
0

> <r_mmod_RMS_Derivative-OPLS-2005>
1.03966426849365

$$$$
66
                    3D
 Structure written by MMmdl.
154162  0  0  1  0            999 V2000
  -30.6276  -14.6275   20.5024 C   0  0  0  0  0  0
  -30.4385  -12.3852   19.4497 C   0  0  0  0  0  0
  -29.5075  -12.5059   18.2227 C   0  0  0  0  0  0
  -28.0301  -12.3447   18.6342 C   0  0  0  0  0  0
  -27.6541  -13.2142   19.8633 C   0  0  2  0  0  0
  -28.6990  -13.0647   20.9926 C   0  0  0  0  0  0
  -25.2565  -13.8165   20.5675 C   0  0  0  0  0  0
  -24.1833  -13.0435   20.9196 C   0  0  0  0  0  0
  -24.6396  -11.6904   20.8744 C   0  0  0  0  0  0
  -23.9064  -10.4291   21.0406 C   0  0  0  0  0  0
  -24.3615   -9.4205   21.9183 C   0  0  0  0  0  0
  -23.6289   -8.2243   22.0754 C   0  0  0  0  0  0
  -22.4272   -8.0281   21.3546 C   0  0  0  0  0  0
  -21.9906   -9.0256   20.4650 C   0  0  0  0  0  0
  -22.7235  -10.2135   20.3057 C   0  0  0  0  0  0
  -21.6853   -6.0733   22.5278 C   0  0  0  0  0  0
  -21.4014   -6.5636   23.8211 C   0  0  0  0  0  0
  -21.3658   -5.6791   24.9174 C   0  0  0  0  0  0
  -21.6042   -4.3054   24.7224 C   0  0  0  0  0  0
  -21.8821   -3.8147   23.4346 C   0  0  0  0  0  0
  -21.9193   -4.6962   22.3402 C   0  0  0  0  0  0
  -22.7855  -13.5232   21.1854 C   0  0  0  0  0  0
  -22.1663   -4.2148   21.0978 F   0  0  0  0  0  0
  -21.5627   -3.4538   25.7737 F   0  0  0  0  0  0
  -30.0159  -13.4038   20.4302 N   0  0  0  0  0  0
  -26.2992  -12.9340   20.3314 N   0  0  0  0  0  0
  -25.9323  -11.6499   20.5756 N   0  0  0  0  0  0
  -22.0493  -12.8230   22.0411 N   0  0  0  0  0  0
  -25.4272  -15.1883   20.4055 N   0  0  0  0  0  0
  -31.7921  -14.7841   20.1241 O   0  0  0  0  0  0
  -21.6638   -6.8877   21.4241 O   0  0  0  0  0  0
  -22.3543  -14.5537   20.6695 O   0  0  0  0  0  0
  -24.6245  -31.8608   23.2039 C   0  0  0  0  0  0
  -25.9103  -32.4783   23.8360 C   0  0  1  0  0  0
  -27.2261  -27.3351   20.1227 C   0  0  0  0  0  0
  -25.5929  -33.8582   24.2291 N   0  0  0  0  0  0
  -23.4178  -30.4845   21.5456 C   0  0  2  0  0  0
  -24.8663  -28.9407   20.1123 C   0  0  0  0  0  0
  -22.7467  -29.4626   22.4939 C   0  0  0  0  0  0
  -18.0287  -28.1383   22.8482 C   0  0  0  0  0  0
  -24.1490  -36.7292   23.2634 C   0  0  0  0  0  0
  -25.9574  -30.7972   21.3731 C   0  0  0  0  0  0
  -26.0335  -29.4251   20.7173 C   0  0  0  0  0  0
  -27.2189  -28.6340   20.7125 C   0  0  0  0  0  0
  -26.0423  -26.9030   19.4857 C   0  0  0  0  0  0
  -24.8716  -27.6840   19.4872 C   0  0  0  0  0  0
  -23.6333  -29.8190   20.1604 C   0  0  0  0  0  0
  -25.4112  -36.3082   24.0330 C   0  0  1  0  0  0
  -20.5885  -28.3683   23.1287 C   0  0  2  0  0  0
  -20.6778  -26.9406   22.5411 C   0  0  0  0  0  0
  -19.5755  -26.6384   21.5209 C   0  0  0  0  0  0
  -18.1935  -26.7927   22.1618 C   0  0  0  0  0  0
  -19.1538  -28.8850   23.2882 C   0  0  0  0  0  0
  -18.9460  -30.1453   23.8899 C   0  0  0  0  0  0
  -17.6459  -30.6583   24.0563 C   0  0  0  0  0  0
  -25.9048  -34.9452   23.5108 C   0  0  0  0  0  0
  -16.5351  -29.9081   23.6326 C   0  0  0  0  0  0
  -16.7274  -28.6501   23.0343 C   0  0  0  0  0  0
  -26.4497  -31.6581   25.0718 C   0  0  0  0  0  0
  -25.3741  -31.3717   26.1453 C   0  0  0  0  0  0
  -27.0326  -30.3003   24.6155 C   0  0  0  0  0  0
  -27.6065  -32.4305   25.7486 C   0  0  0  0  0  0
  -27.5584  -37.1795   24.8459 C   0  0  0  0  0  0
  -21.4183  -29.3039   22.3683 N   0  0  0  0  0  0
  -26.4290  -37.3777   23.9414 N   0  0  0  0  0  0
  -24.6850  -31.0637   22.0979 N   0  0  0  0  0  0
  -23.4198  -28.8161   23.3009 O   0  0  0  0  0  0
  -28.3405  -26.4896   20.1438 O   0  0  0  0  0  0
  -26.5608  -34.8918   22.4669 O   0  0  0  0  0  0
  -23.5413  -32.1399   23.7378 O   0  0  0  0  0  0
  -31.1524  -17.8218   20.5029 C   0  0  0  0  0  0
  -28.7740  -17.9415   20.7087 C   0  0  0  0  0  0
  -30.0275  -20.0703   20.3114 C   0  0  0  0  0  0
  -31.2128  -19.2420   20.3475 C   0  0  0  0  0  0
  -29.9344  -17.1250   20.6720 C   0  0  0  0  0  0
  -28.8115  -19.3571   20.5319 C   0  0  0  0  0  0
  -29.0289  -22.6584   20.4277 C   0  0  0  0  0  0
  -29.1367  -24.0187   20.2255 C   0  0  0  0  0  0
  -30.0520  -21.6013   20.0227 C   0  0  0  0  0  0
  -32.6228  -19.8186   20.2573 C   0  0  0  0  0  0
  -28.1156  -25.1172   20.6432 C   0  0  0  0  0  0
  -31.0033  -22.0654   19.3252 N   0  0  0  0  0  0
  -29.8125  -15.6752   20.8426 N   0  0  0  0  0  0
  -27.6287  -20.0187   20.5373 F   0  0  0  0  0  0
  -31.4797  -12.5095   19.1465 H   0  0  0  0  0  0
  -30.3722  -11.3886   19.8887 H   0  0  0  0  0  0
  -29.7709  -11.7574   17.4743 H   0  0  0  0  0  0
  -29.6513  -13.4771   17.7464 H   0  0  0  0  0  0
  -27.8653  -11.2913   18.8638 H   0  0  0  0  0  0
  -27.3763  -12.5776   17.7928 H   0  0  0  0  0  0
  -27.6735  -14.2497   19.5233 H   0  0  0  0  0  0
  -28.7081  -12.0424   21.3733 H   0  0  0  0  0  0
  -28.4465  -13.6960   21.8461 H   0  0  0  0  0  0
  -25.2760   -9.5681   22.4755 H   0  0  0  0  0  0
  -24.0002   -7.4631   22.7469 H   0  0  0  0  0  0
  -21.0838   -8.8773   19.8954 H   0  0  0  0  0  0
  -22.3692  -10.9673   19.6166 H   0  0  0  0  0  0
  -21.2007   -7.6144   23.9714 H   0  0  0  0  0  0
  -21.1478   -6.0521   25.9076 H   0  0  0  0  0  0
  -22.0601   -2.7610   23.2846 H   0  0  0  0  0  0
  -22.4101  -11.9891   22.4806 H   0  0  0  0  0  0
  -21.1112  -13.1264   22.2609 H   0  0  0  0  0  0
  -24.6521  -15.8365   20.4947 H   0  0  0  0  0  0
  -26.2584  -15.6187   20.0226 H   0  0  0  0  0  0
  -26.7168  -32.5464   23.1108 H   0  0  0  0  0  0
  -25.0103  -33.9730   25.0454 H   0  0  0  0  0  0
  -22.7105  -31.3040   21.4024 H   0  0  0  0  0  0
  -23.3756  -35.9620   23.3286 H   0  0  0  0  0  0
  -24.3590  -36.8921   22.2052 H   0  0  0  0  0  0
  -23.7239  -37.6491   23.6660 H   0  0  0  0  0  0
  -26.0861  -31.5612   20.6050 H   0  0  0  0  0  0
  -26.8386  -30.8470   22.0008 H   0  0  0  0  0  0
  -28.1155  -29.0012   21.1920 H   0  0  0  0  0  0
  -26.0121  -25.9474   18.9821 H   0  0  0  0  0  0
  -23.9794  -27.3102   19.0035 H   0  0  0  0  0  0
  -23.7527  -30.5955   19.4039 H   0  0  0  0  0  0
  -22.7542  -29.2474   19.8577 H   0  0  0  0  0  0
  -25.1289  -36.1933   25.0822 H   0  0  0  0  0  0
  -20.9979  -28.3258   24.1407 H   0  0  0  0  0  0
  -20.5673  -26.2289   23.3608 H   0  0  0  0  0  0
  -21.6648  -26.7438   22.1209 H   0  0  0  0  0  0
  -19.6916  -25.6296   21.1237 H   0  0  0  0  0  0
  -19.6696  -27.3195   20.6740 H   0  0  0  0  0  0
  -17.4204  -26.6673   21.4021 H   0  0  0  0  0  0
  -18.0333  -26.0072   22.9017 H   0  0  0  0  0  0
  -19.7936  -30.7267   24.2270 H   0  0  0  0  0  0
  -17.5013  -31.6262   24.5167 H   0  0  0  0  0  0
  -15.5351  -30.2980   23.7651 H   0  0  0  0  0  0
  -15.8677  -28.0822   22.7049 H   0  0  0  0  0  0
  -24.5924  -30.7050   25.7796 H   0  0  0  0  0  0
  -24.8924  -32.2882   26.4870 H   0  0  0  0  0  0
  -25.8082  -30.8913   27.0230 H   0  0  0  0  0  0
  -26.2886  -29.6760   24.1193 H   0  0  0  0  0  0
  -27.4042  -29.7250   25.4645 H   0  0  0  0  0  0
  -27.8752  -30.4285   23.9355 H   0  0  0  0  0  0
  -27.2685  -33.3604   26.2071 H   0  0  0  0  0  0
  -28.3875  -32.6863   25.0313 H   0  0  0  0  0  0
  -28.0732  -31.8422   26.5397 H   0  0  0  0  0  0
  -28.2585  -38.0107   24.7529 H   0  0  0  0  0  0
  -28.1096  -36.2641   24.6252 H   0  0  0  0  0  0
  -27.2310  -37.1409   25.8863 H   0  0  0  0  0  0
  -20.9353  -29.8764   21.6901 H   0  0  0  0  0  0
  -26.0170  -38.2848   24.1429 H   0  0  0  0  0  0
  -32.0766  -17.2615   20.5075 H   0  0  0  0  0  0
  -27.8086  -17.4805   20.8552 H   0  0  0  0  0  0
  -28.1535  -22.2727   20.9280 H   0  0  0  0  0  0
  -30.0211  -24.4040   19.7386 H   0  0  0  0  0  0
  -33.3692  -19.1107   20.6193 H   0  0  0  0  0  0
  -32.7267  -20.7131   20.8722 H   0  0  0  0  0  0
  -32.8819  -20.0596   19.2263 H   0  0  0  0  0  0
  -28.1430  -25.1752   21.7319 H   0  0  0  0  0  0
  -27.1252  -24.7344   20.4013 H   0  0  0  0  0  0
  -31.6487  -21.3309   19.0594 H   0  0  0  0  0  0
  -28.8955  -15.3619   21.1217 H   0  0  0  0  0  0
  1 25  1  0  0  0
  1 30  2  0  0  0
  1 83  1  0  0  0
  2  3  1  0  0  0
  2 25  1  0  0  0
  2 85  1  0  0  0
  2 86  1  0  0  0
  3  4  1  0  0  0
  3 87  1  0  0  0
  3 88  1  0  0  0
  4  5  1  0  0  0
  4 89  1  0  0  0
  4 90  1  0  0  0
  5  6  1  0  0  0
  5 26  1  0  0  0
  5 91  1  0  0  0
  6 25  1  0  0  0
  6 92  1  0  0  0
  6 93  1  0  0  0
  7  8  2  0  0  0
  7 26  1  0  0  0
  7 29  1  0  0  0
  8  9  1  0  0  0
  8 22  1  0  0  0
  9 10  1  0  0  0
  9 27  2  0  0  0
 10 11  2  0  0  0
 10 15  1  0  0  0
 11 12  1  0  0  0
 11 94  1  0  0  0
 12 13  2  0  0  0
 12 95  1  0  0  0
 13 14  1  0  0  0
 13 31  1  0  0  0
 14 15  2  0  0  0
 14 96  1  0  0  0
 15 97  1  0  0  0
 16 17  2  0  0  0
 16 21  1  0  0  0
 16 31  1  0  0  0
 17 18  1  0  0  0
 17 98  1  0  0  0
 18 19  2  0  0  0
 18 99  1  0  0  0
 19 20  1  0  0  0
 19 24  1  0  0  0
 20 21  2  0  0  0
 20100  1  0  0  0
 21 23  1  0  0  0
 22 28  1  0  0  0
 22 32  2  0  0  0
 26 27  1  0  0  0
 28101  1  0  0  0
 28102  1  0  0  0
 29103  1  0  0  0
 29104  1  0  0  0
 33 34  1  0  0  0
 33 66  1  0  0  0
 33 70  2  0  0  0
 34 36  1  0  0  0
 34 59  1  0  0  0
 34105  1  0  0  0
 35 44  2  0  0  0
 35 45  1  0  0  0
 35 68  1  0  0  0
 36 56  1  0  0  0
 36106  1  0  0  0
 37 39  1  0  0  0
 37 47  1  0  0  0
 37 66  1  0  0  0
 37107  1  0  0  0
 38 43  2  0  0  0
 38 46  1  0  0  0
 38 47  1  0  0  0
 39 64  1  0  0  0
 39 67  2  0  0  0
 40 52  1  0  0  0
 40 53  2  0  0  0
 40 58  1  0  0  0
 41108  1  0  0  0
 41109  1  0  0  0
 41110  1  0  0  0
 41 48  1  0  0  0
 42 43  1  0  0  0
 42 66  1  0  0  0
 42111  1  0  0  0
 42112  1  0  0  0
 43 44  1  0  0  0
 44113  1  0  0  0
 45 46  2  0  0  0
 45114  1  0  0  0
 46115  1  0  0  0
 47116  1  0  0  0
 47117  1  0  0  0
 48 56  1  0  0  0
 48 65  1  0  0  0
 48118  1  0  0  0
 49 50  1  0  0  0
 49 53  1  0  0  0
 49 64  1  0  0  0
 49119  1  0  0  0
 50 51  1  0  0  0
 50120  1  0  0  0
 50121  1  0  0  0
 51 52  1  0  0  0
 51122  1  0  0  0
 51123  1  0  0  0
 52124  1  0  0  0
 52125  1  0  0  0
 53 54  1  0  0  0
 54 55  2  0  0  0
 54126  1  0  0  0
 55 57  1  0  0  0
 55127  1  0  0  0
 56 69  2  0  0  0
 57 58  2  0  0  0
 57128  1  0  0  0
 58129  1  0  0  0
 59 60  1  0  0  0
 59 61  1  0  0  0
 59 62  1  0  0  0
 60130  1  0  0  0
 60131  1  0  0  0
 60132  1  0  0  0
 61133  1  0  0  0
 61134  1  0  0  0
 61135  1  0  0  0
 62136  1  0  0  0
 62137  1  0  0  0
 62138  1  0  0  0
 63 65  1  0  0  0
 63139  1  0  0  0
 63140  1  0  0  0
 63141  1  0  0  0
 64142  1  0  0  0
 65143  1  0  0  0
 68 81  1  0  0  0
 71 74  2  0  0  0
 71 75  1  0  0  0
 71144  1  0  0  0
 72 75  2  0  0  0
 72 76  1  0  0  0
 72145  1  0  0  0
 73 74  1  0  0  0
 73 76  2  0  0  0
 73 79  1  0  0  0
 74 80  1  0  0  0
 75 83  1  0  0  0
 76 84  1  0  0  0
 77 78  2  0  0  0
 77 79  1  0  0  0
 77146  1  0  0  0
 78 81  1  0  0  0
 78147  1  0  0  0
 79 82  2  0  0  0
 80148  1  0  0  0
 80149  1  0  0  0
 80150  1  0  0  0
 81151  1  0  0  0
 81152  1  0  0  0
 82153  1  0  0  0
 83154  1  0  0  0
M  ISO  4   1 100  68 101  81 101  83 100
M  END
> <chiral flag>
0

> <version>
0

> <s_m_source_file>
/data/baiqing/PycharmProjects/Reinvent-master-3.2/result/LINK_invent/BTK/process_docking_weight1_custom_product_contain_oxygen_bond_distance_aromatic_linkinvent_7_9_3/rearranged_h_0042.sdf

> <i_m_source_file_index>
67

> <r_mmod_Potential_Energy-OPLS-2005>
130.449615478516

> <r_mmod_Stretch_Energy-OPLS-2005>
82.8470153808594

> <r_mmod_Bend_Energy-OPLS-2005>
132.464706420898

> <r_mmod_Torsional_Energy-OPLS-2005>
249.795913696289

> <r_mmod_Improper_Torsional_Energy-OPLS-2005>
4.94785165786743

> <r_mmod_Van_der_Waal_Energy-OPLS-2005>
161.613327026367

> <r_mmod_Electrostatic_Energy-OPLS-2005>
-334.374969482422

> <r_mmod_Solvation_Energy-OPLS-2005>
-210.121536254883

> <b_mmod_Minimization_Converged-OPLS-2005>
0

> <r_mmod_RMS_Derivative-OPLS-2005>
0.493684321641922

$$$$
67
                    3D
 Structure written by MMmdl.
176185  0  0  1  0            999 V2000
  -30.6120  -14.6335   20.5288 C   0  0  0  0  0  0
  -30.4467  -12.3956   19.4459 C   0  0  0  0  0  0
  -29.5091  -12.5166   18.2228 C   0  0  0  0  0  0
  -28.0312  -12.3540   18.6337 C   0  0  0  0  0  0
  -27.6582  -13.2124   19.8710 C   0  0  2  0  0  0
  -28.7036  -13.0374   20.9958 C   0  0  0  0  0  0
  -25.2567  -13.8150   20.5651 C   0  0  0  0  0  0
  -24.1835  -13.0427   20.9187 C   0  0  0  0  0  0
  -24.6402  -11.6900   20.8753 C   0  0  0  0  0  0
  -23.9064  -10.4288   21.0417 C   0  0  0  0  0  0
  -24.3617   -9.4202   21.9190 C   0  0  0  0  0  0
  -23.6294   -8.2235   22.0757 C   0  0  0  0  0  0
  -22.4277   -8.0277   21.3545 C   0  0  0  0  0  0
  -21.9913   -9.0252   20.4646 C   0  0  0  0  0  0
  -22.7242  -10.2132   20.3060 C   0  0  0  0  0  0
  -21.6848   -6.0736   22.5280 C   0  0  0  0  0  0
  -21.4010   -6.5641   23.8214 C   0  0  0  0  0  0
  -21.3658   -5.6794   24.9179 C   0  0  0  0  0  0
  -21.6045   -4.3056   24.7227 C   0  0  0  0  0  0
  -21.8819   -3.8148   23.4346 C   0  0  0  0  0  0
  -21.9192   -4.6965   22.3402 C   0  0  0  0  0  0
  -22.7858  -13.5227   21.1849 C   0  0  0  0  0  0
  -22.1660   -4.2149   21.0979 F   0  0  0  0  0  0
  -21.5632   -3.4536   25.7740 F   0  0  0  0  0  0
  -30.0209  -13.3985   20.4421 N   0  0  0  0  0  0
  -26.3011  -12.9332   20.3346 N   0  0  0  0  0  0
  -25.9331  -11.6490   20.5779 N   0  0  0  0  0  0
  -22.0499  -12.8221   22.0406 N   0  0  0  0  0  0
  -25.4260  -15.1855   20.3977 N   0  0  0  0  0  0
  -31.7542  -14.8342   20.1038 O   0  0  0  0  0  0
  -21.6638   -6.8878   21.4241 O   0  0  0  0  0  0
  -22.3543  -14.5533   20.6698 O   0  0  0  0  0  0
  -24.6268  -31.8605   23.2030 C   0  0  0  0  0  0
  -25.9118  -32.4778   23.8357 C   0  0  1  0  0  0
  -27.2265  -27.3152   20.0997 C   0  0  0  0  0  0
  -25.5939  -33.8579   24.2281 N   0  0  0  0  0  0
  -23.4199  -30.4860   21.5467 C   0  0  2  0  0  0
  -24.8648  -28.9424   20.1131 C   0  0  0  0  0  0
  -22.7473  -29.4634   22.4935 C   0  0  0  0  0  0
  -18.0281  -28.1382   22.8482 C   0  0  0  0  0  0
  -24.1494  -36.7289   23.2638 C   0  0  0  0  0  0
  -25.9636  -30.7870   21.3776 C   0  0  0  0  0  0
  -26.0357  -29.4148   20.7177 C   0  0  0  0  0  0
  -27.2156  -28.6114   20.7058 C   0  0  0  0  0  0
  -26.0210  -26.8977   19.4827 C   0  0  0  0  0  0
  -24.8592  -27.6878   19.4902 C   0  0  0  0  0  0
  -23.6353  -29.8245   20.1616 C   0  0  0  0  0  0
  -25.4119  -36.3080   24.0326 C   0  0  1  0  0  0
  -20.5882  -28.3694   23.1281 C   0  0  2  0  0  0
  -20.6774  -26.9418   22.5416 C   0  0  0  0  0  0
  -19.5755  -26.6387   21.5212 C   0  0  0  0  0  0
  -18.1930  -26.7926   22.1616 C   0  0  0  0  0  0
  -19.1534  -28.8852   23.2876 C   0  0  0  0  0  0
  -18.9463  -30.1452   23.8897 C   0  0  0  0  0  0
  -17.6467  -30.6588   24.0561 C   0  0  0  0  0  0
  -25.9059  -34.9449   23.5100 C   0  0  0  0  0  0
  -16.5355  -29.9094   23.6325 C   0  0  0  0  0  0
  -16.7270  -28.6506   23.0351 C   0  0  0  0  0  0
  -26.4494  -31.6585   25.0727 C   0  0  0  0  0  0
  -25.3721  -31.3729   26.1449 C   0  0  0  0  0  0
  -27.0339  -30.3005   24.6190 C   0  0  0  0  0  0
  -27.6049  -32.4320   25.7503 C   0  0  0  0  0  0
  -27.5581  -37.1802   24.8459 C   0  0  0  0  0  0
  -21.4186  -29.3051   22.3673 N   0  0  0  0  0  0
  -26.4291  -37.3778   23.9405 N   0  0  0  0  0  0
  -24.6890  -31.0612   22.0987 N   0  0  0  0  0  0
  -23.4194  -28.8171   23.3013 O   0  0  0  0  0  0
  -28.3631  -26.4797   20.1441 O   0  0  0  0  0  0
  -26.5626  -34.8912   22.4666 O   0  0  0  0  0  0
  -23.5431  -32.1408   23.7353 O   0  0  0  0  0  0
  -30.6017  -19.3224   20.2206 C   0  0  0  0  0  0
  -30.6949  -17.8971   20.2256 C   0  0  0  0  0  0
  -29.5979  -20.0346   20.9360 C   0  0  0  0  0  0
  -28.6631  -19.2267   21.6575 C   0  0  0  0  0  0
  -28.7714  -17.7921   21.6836 C   0  0  0  0  0  0
  -29.7895  -17.0914   20.9641 C   0  0  0  0  0  0
  -29.4420  -24.1052   20.0694 C   0  0  0  0  0  0
  -30.6435  -24.6106   20.4353 C   0  0  0  0  0  0
  -27.4370  -23.2577   17.1451 C   0  0  0  0  0  0
  -28.6566  -24.1875   17.0949 C   0  0  0  0  0  0
  -27.6750  -21.9697   17.9457 C   0  0  0  0  0  0
  -28.5625  -25.3945   18.0396 C   0  0  0  0  0  0
  -27.8013  -22.1158   19.4759 C   0  0  0  0  0  0
  -28.3422  -25.1150   19.5506 C   0  0  2  0  0  0
  -27.5442  -19.8913   22.4637 C   0  0  0  0  0  0
  -27.7732  -16.9995   22.5313 C   0  0  0  0  0  0
  -31.9446  -23.9024   20.7622 C   0  0  0  0  0  0
  -29.6465  -21.6204   21.0613 C   0  0  0  0  0  0
  -29.7982  -15.6263   21.0035 N   0  0  0  0  0  0
  -29.1596  -22.5425   19.9403 N   0  3  2  0  0  0
  -31.4847  -12.5366   19.1397 H   0  0  0  0  0  0
  -30.3949  -11.3935   19.8742 H   0  0  0  0  0  0
  -29.7715  -11.7712   17.4706 H   0  0  0  0  0  0
  -29.6499  -13.4891   17.7487 H   0  0  0  0  0  0
  -27.8631  -11.2992   18.8536 H   0  0  0  0  0  0
  -27.3776  -12.5968   17.7951 H   0  0  0  0  0  0
  -27.6849  -14.2529   19.5473 H   0  0  0  0  0  0
  -28.7174  -12.0031   21.3427 H   0  0  0  0  0  0
  -28.4429  -13.6320   21.8719 H   0  0  0  0  0  0
  -25.2760   -9.5671   22.4767 H   0  0  0  0  0  0
  -23.9998   -7.4624   22.7475 H   0  0  0  0  0  0
  -21.0846   -8.8776   19.8950 H   0  0  0  0  0  0
  -22.3705  -10.9676   19.6170 H   0  0  0  0  0  0
  -21.2000   -7.6152   23.9715 H   0  0  0  0  0  0
  -21.1481   -6.0528   25.9082 H   0  0  0  0  0  0
  -22.0601   -2.7609   23.2850 H   0  0  0  0  0  0
  -22.4112  -11.9878   22.4790 H   0  0  0  0  0  0
  -21.1113  -13.1242   22.2610 H   0  0  0  0  0  0
  -24.6522  -15.8346   20.4852 H   0  0  0  0  0  0
  -26.2665  -15.6185   20.0375 H   0  0  0  0  0  0
  -26.7186  -32.5444   23.1106 H   0  0  0  0  0  0
  -25.0080  -33.9728   25.0420 H   0  0  0  0  0  0
  -22.7139  -31.3070   21.4052 H   0  0  0  0  0  0
  -23.3758  -35.9620   23.3296 H   0  0  0  0  0  0
  -24.3584  -36.8916   22.2051 H   0  0  0  0  0  0
  -23.7243  -37.6486   23.6668 H   0  0  0  0  0  0
  -26.0983  -31.5510   20.6107 H   0  0  0  0  0  0
  -26.8429  -30.8333   22.0084 H   0  0  0  0  0  0
  -28.1142  -28.9725   21.1861 H   0  0  0  0  0  0
  -25.9271  -25.9472   18.9827 H   0  0  0  0  0  0
  -23.9606  -27.3192   19.0142 H   0  0  0  0  0  0
  -23.7588  -30.6025   19.4074 H   0  0  0  0  0  0
  -22.7541  -29.2574   19.8561 H   0  0  0  0  0  0
  -25.1300  -36.1929   25.0819 H   0  0  0  0  0  0
  -20.9965  -28.3275   24.1406 H   0  0  0  0  0  0
  -20.5678  -26.2306   23.3616 H   0  0  0  0  0  0
  -21.6646  -26.7458   22.1216 H   0  0  0  0  0  0
  -19.6929  -25.6301   21.1239 H   0  0  0  0  0  0
  -19.6694  -27.3193   20.6738 H   0  0  0  0  0  0
  -17.4207  -26.6669   21.4013 H   0  0  0  0  0  0
  -18.0331  -26.0065   22.9008 H   0  0  0  0  0  0
  -19.7942  -30.7256   24.2276 H   0  0  0  0  0  0
  -17.5030  -31.6266   24.5171 H   0  0  0  0  0  0
  -15.5360  -30.3005   23.7649 H   0  0  0  0  0  0
  -15.8662  -28.0831   22.7076 H   0  0  0  0  0  0
  -24.5910  -30.7060   25.7782 H   0  0  0  0  0  0
  -24.8895  -32.2897   26.4844 H   0  0  0  0  0  0
  -25.8042  -30.8936   27.0242 H   0  0  0  0  0  0
  -26.2922  -29.6755   24.1203 H   0  0  0  0  0  0
  -27.4018  -29.7256   25.4699 H   0  0  0  0  0  0
  -27.8800  -30.4280   23.9432 H   0  0  0  0  0  0
  -27.2659  -33.3624   26.2072 H   0  0  0  0  0  0
  -28.3870  -32.6873   25.0342 H   0  0  0  0  0  0
  -28.0708  -31.8450   26.5429 H   0  0  0  0  0  0
  -28.2590  -38.0106   24.7520 H   0  0  0  0  0  0
  -28.1088  -36.2636   24.6280 H   0  0  0  0  0  0
  -27.2301  -37.1445   25.8863 H   0  0  0  0  0  0
  -20.9362  -29.8783   21.6893 H   0  0  0  0  0  0
  -26.0169  -38.2850   24.1418 H   0  0  0  0  0  0
  -31.3512  -19.8766   19.6725 H   0  0  0  0  0  0
  -31.4883  -17.4297   19.6592 H   0  0  0  0  0  0
  -30.7301  -25.6883   20.4719 H   0  0  0  0  0  0
  -27.1995  -22.9631   16.1213 H   0  0  0  0  0  0
  -26.5498  -23.7827   17.5029 H   0  0  0  0  0  0
  -28.7442  -24.5801   16.0801 H   0  0  0  0  0  0
  -29.5827  -23.6349   17.2548 H   0  0  0  0  0  0
  -28.5296  -21.4239   17.5429 H   0  0  0  0  0  0
  -26.8177  -21.3215   17.7557 H   0  0  0  0  0  0
  -27.7825  -26.0520   17.6590 H   0  0  0  0  0  0
  -29.4844  -25.9677   17.9314 H   0  0  0  0  0  0
  -27.5953  -21.1116   19.8373 H   0  0  0  0  0  0
  -26.9882  -22.6833   19.9213 H   0  0  0  0  0  0
  -27.3701  -24.6852   19.7508 H   0  0  0  0  0  0
  -27.2791  -20.8845   22.1101 H   0  0  0  0  0  0
  -27.8314  -19.9735   23.5125 H   0  0  0  0  0  0
  -26.6173  -19.3209   22.4120 H   0  0  0  0  0  0
  -27.6576  -17.4512   23.5166 H   0  0  0  0  0  0
  -28.0604  -15.9678   22.7221 H   0  0  0  0  0  0
  -26.7968  -16.9862   22.0484 H   0  0  0  0  0  0
  -32.0891  -23.0016   20.1665 H   0  0  0  0  0  0
  -32.0103  -23.6673   21.8252 H   0  0  0  0  0  0
  -32.7793  -24.5618   20.5208 H   0  0  0  0  0  0
  -30.6912  -21.8097   21.2665 H   0  0  0  0  0  0
  -29.1609  -21.9388   21.9821 H   0  0  0  0  0  0
  -28.9540  -15.2387   21.3935 H   0  0  0  0  0  0
  -29.7433  -22.2330   19.1792 H   0  0  0  0  0  0
  1 25  1  0  0  0
  1 30  2  0  0  0
  1 89  1  0  0  0
  2  3  1  0  0  0
  2 25  1  0  0  0
  2 91  1  0  0  0
  2 92  1  0  0  0
  3  4  1  0  0  0
  3 93  1  0  0  0
  3 94  1  0  0  0
  4  5  1  0  0  0
  4 95  1  0  0  0
  4 96  1  0  0  0
  5  6  1  0  0  0
  5 26  1  0  0  0
  5 97  1  0  0  0
  6 25  1  0  0  0
  6 98  1  0  0  0
  6 99  1  0  0  0
  7  8  2  0  0  0
  7 26  1  0  0  0
  7 29  1  0  0  0
  8  9  1  0  0  0
  8 22  1  0  0  0
  9 10  1  0  0  0
  9 27  2  0  0  0
 10 11  2  0  0  0
 10 15  1  0  0  0
 11 12  1  0  0  0
 11100  1  0  0  0
 12 13  2  0  0  0
 12101  1  0  0  0
 13 14  1  0  0  0
 13 31  1  0  0  0
 14 15  2  0  0  0
 14102  1  0  0  0
 15103  1  0  0  0
 16 17  2  0  0  0
 16 21  1  0  0  0
 16 31  1  0  0  0
 17 18  1  0  0  0
 17104  1  0  0  0
 18 19  2  0  0  0
 18105  1  0  0  0
 19 20  1  0  0  0
 19 24  1  0  0  0
 20 21  2  0  0  0
 20106  1  0  0  0
 21 23  1  0  0  0
 22 28  1  0  0  0
 22 32  2  0  0  0
 26 27  1  0  0  0
 28107  1  0  0  0
 28108  1  0  0  0
 29109  1  0  0  0
 29110  1  0  0  0
 33 34  1  0  0  0
 33 66  1  0  0  0
 33 70  2  0  0  0
 34 36  1  0  0  0
 34 59  1  0  0  0
 34111  1  0  0  0
 35 44  2  0  0  0
 35 45  1  0  0  0
 35 68  1  0  0  0
 36 56  1  0  0  0
 36112  1  0  0  0
 37 39  1  0  0  0
 37 47  1  0  0  0
 37 66  1  0  0  0
 37113  1  0  0  0
 38 43  2  0  0  0
 38 46  1  0  0  0
 38 47  1  0  0  0
 39 64  1  0  0  0
 39 67  2  0  0  0
 40 52  1  0  0  0
 40 53  2  0  0  0
 40 58  1  0  0  0
 41114  1  0  0  0
 41115  1  0  0  0
 41116  1  0  0  0
 41 48  1  0  0  0
 42 43  1  0  0  0
 42 66  1  0  0  0
 42117  1  0  0  0
 42118  1  0  0  0
 43 44  1  0  0  0
 44119  1  0  0  0
 45 46  2  0  0  0
 45120  1  0  0  0
 46121  1  0  0  0
 47122  1  0  0  0
 47123  1  0  0  0
 48 56  1  0  0  0
 48 65  1  0  0  0
 48124  1  0  0  0
 49 50  1  0  0  0
 49 53  1  0  0  0
 49 64  1  0  0  0
 49125  1  0  0  0
 50 51  1  0  0  0
 50126  1  0  0  0
 50127  1  0  0  0
 51 52  1  0  0  0
 51128  1  0  0  0
 51129  1  0  0  0
 52130  1  0  0  0
 52131  1  0  0  0
 53 54  1  0  0  0
 54 55  2  0  0  0
 54132  1  0  0  0
 55 57  1  0  0  0
 55133  1  0  0  0
 56 69  2  0  0  0
 57 58  2  0  0  0
 57134  1  0  0  0
 58135  1  0  0  0
 59 60  1  0  0  0
 59 61  1  0  0  0
 59 62  1  0  0  0
 60136  1  0  0  0
 60137  1  0  0  0
 60138  1  0  0  0
 61139  1  0  0  0
 61140  1  0  0  0
 61141  1  0  0  0
 62142  1  0  0  0
 62143  1  0  0  0
 62144  1  0  0  0
 63 65  1  0  0  0
 63145  1  0  0  0
 63146  1  0  0  0
 63147  1  0  0  0
 64148  1  0  0  0
 65149  1  0  0  0
 68 84  1  0  0  0
 71 72  2  0  0  0
 71 73  1  0  0  0
 71150  1  0  0  0
 72 76  1  0  0  0
 72151  1  0  0  0
 73 74  2  0  0  0
 73 88  1  0  0  0
 74 75  1  0  0  0
 74 85  1  0  0  0
 75 76  2  0  0  0
 75 86  1  0  0  0
 76 89  1  0  0  0
 77 78  2  0  0  0
 77 84  1  0  0  0
 77 90  1  0  0  0
 78 87  1  0  0  0
 78152  1  0  0  0
 79 80  1  0  0  0
 79 81  1  0  0  0
 79153  1  0  0  0
 79154  1  0  0  0
 80 82  1  0  0  0
 80155  1  0  0  0
 80156  1  0  0  0
 81 83  1  0  0  0
 81157  1  0  0  0
 81158  1  0  0  0
 82 84  1  0  0  0
 82159  1  0  0  0
 82160  1  0  0  0
 83 90  1  0  0  0
 83161  1  0  0  0
 83162  1  0  0  0
 84163  1  0  0  0
 85164  1  0  0  0
 85165  1  0  0  0
 85166  1  0  0  0
 86167  1  0  0  0
 86168  1  0  0  0
 86169  1  0  0  0
 87170  1  0  0  0
 87171  1  0  0  0
 87172  1  0  0  0
 88173  1  0  0  0
 88174  1  0  0  0
 88 90  1  0  0  0
 89175  1  0  0  0
 90176  1  0  0  0
M  CHG  1  90   1
M  ISO  4   1 100  68 101  84 101  89 100
M  END
> <chiral flag>
0

> <version>
0

> <s_m_source_file>
/data/baiqing/PycharmProjects/Reinvent-master-3.2/result/LINK_invent/BTK/process_docking_weight1_custom_product_contain_oxygen_bond_distance_aromatic_linkinvent_7_9_3/rearranged_h_0042.sdf

> <i_m_source_file_index>
68

> <r_mmod_Potential_Energy-OPLS-2005>
44.017993927002

> <r_mmod_Stretch_Energy-OPLS-2005>
107.412757873535

> <r_mmod_Bend_Energy-OPLS-2005>
194.919738769531

> <r_mmod_Torsional_Energy-OPLS-2005>
234.38720703125

> <r_mmod_Improper_Torsional_Energy-OPLS-2005>
4.27685165405273

> <r_mmod_Van_der_Waal_Energy-OPLS-2005>
166.897201538086

> <r_mmod_Electrostatic_Energy-OPLS-2005>
-300.2216796875

> <r_mmod_Solvation_Energy-OPLS-2005>
-410.222412109375

> <b_mmod_Minimization_Converged-OPLS-2005>
0

> <r_mmod_RMS_Derivative-OPLS-2005>
0.699737668037415

$$$$
68
                    3D
 Structure written by MMmdl.
166175  0  0  1  0            999 V2000
  -30.7261  -14.5719   20.4904 C   0  0  0  0  0  0
  -30.4318  -12.3486   19.4619 C   0  0  0  0  0  0
  -29.5165  -12.4817   18.2292 C   0  0  0  0  0  0
  -28.0357  -12.3536   18.6353 C   0  0  0  0  0  0
  -27.6626  -13.2280   19.8643 C   0  0  2  0  0  0
  -28.7150  -13.1007   20.9933 C   0  0  0  0  0  0
  -25.2604  -13.8223   20.5726 C   0  0  0  0  0  0
  -24.1853  -13.0466   20.9220 C   0  0  0  0  0  0
  -24.6439  -11.6940   20.8744 C   0  0  0  0  0  0
  -23.9094  -10.4329   21.0405 C   0  0  0  0  0  0
  -24.3630   -9.4245   21.9194 C   0  0  0  0  0  0
  -23.6307   -8.2275   22.0756 C   0  0  0  0  0  0
  -22.4294   -8.0302   21.3530 C   0  0  0  0  0  0
  -21.9916   -9.0287   20.4647 C   0  0  0  0  0  0
  -22.7245  -10.2176   20.3071 C   0  0  0  0  0  0
  -21.6869   -6.0749   22.5299 C   0  0  0  0  0  0
  -21.4019   -6.5634   23.8232 C   0  0  0  0  0  0
  -21.3662   -5.6776   24.9188 C   0  0  0  0  0  0
  -21.6049   -4.3039   24.7225 C   0  0  0  0  0  0
  -21.8812   -3.8143   23.4346 C   0  0  0  0  0  0
  -21.9193   -4.6973   22.3421 C   0  0  0  0  0  0
  -22.7865  -13.5264   21.1848 C   0  0  0  0  0  0
  -22.1654   -4.2165   21.0990 F   0  0  0  0  0  0
  -21.5635   -3.4519   25.7737 F   0  0  0  0  0  0
  -30.0339  -13.3925   20.4200 N   0  0  0  0  0  0
  -26.3067  -12.9435   20.3354 N   0  0  0  0  0  0
  -25.9379  -11.6574   20.5760 N   0  0  0  0  0  0
  -22.0432  -12.8311   22.0404 N   0  0  0  0  0  0
  -25.4269  -15.1965   20.4178 N   0  0  0  0  0  0
  -31.8963  -14.6490   20.1165 O   0  0  0  0  0  0
  -21.6636   -6.8901   21.4261 O   0  0  0  0  0  0
  -22.3569  -14.5578   20.6679 O   0  0  0  0  0  0
  -24.6206  -31.8663   23.2068 C   0  0  0  0  0  0
  -25.9099  -32.4813   23.8372 C   0  0  1  0  0  0
  -27.2319  -27.3757   20.1290 C   0  0  0  0  0  0
  -25.5955  -33.8611   24.2323 N   0  0  0  0  0  0
  -23.4087  -30.4883   21.5496 C   0  0  2  0  0  0
  -24.8554  -28.9405   20.1201 C   0  0  0  0  0  0
  -22.7414  -29.4672   22.4997 C   0  0  0  0  0  0
  -18.0271  -28.1384   22.8510 C   0  0  0  0  0  0
  -24.1479  -36.7276   23.2635 C   0  0  0  0  0  0
  -25.9400  -30.8140   21.3638 C   0  0  0  0  0  0
  -26.0160  -29.4400   20.7205 C   0  0  0  0  0  0
  -27.2094  -28.6695   20.7155 C   0  0  0  0  0  0
  -26.0508  -26.8945   19.5295 C   0  0  0  0  0  0
  -24.8694  -27.6671   19.5208 C   0  0  0  0  0  0
  -23.6195  -29.8167   20.1648 C   0  0  0  0  0  0
  -25.4103  -36.3093   24.0336 C   0  0  1  0  0  0
  -20.5860  -28.3672   23.1316 C   0  0  2  0  0  0
  -20.6778  -26.9417   22.5414 C   0  0  0  0  0  0
  -19.5751  -26.6388   21.5220 C   0  0  0  0  0  0
  -18.1919  -26.7933   22.1621 C   0  0  0  0  0  0
  -19.1522  -28.8839   23.2910 C   0  0  0  0  0  0
  -18.9448  -30.1442   23.8915 C   0  0  0  0  0  0
  -17.6459  -30.6599   24.0563 C   0  0  0  0  0  0
  -25.9039  -34.9461   23.5108 C   0  0  0  0  0  0
  -16.5342  -29.9101   23.6345 C   0  0  0  0  0  0
  -16.7256  -28.6514   23.0372 C   0  0  0  0  0  0
  -26.4523  -31.6602   25.0711 C   0  0  0  0  0  0
  -25.3764  -31.3727   26.1433 C   0  0  0  0  0  0
  -27.0348  -30.3036   24.6098 C   0  0  0  0  0  0
  -27.6091  -32.4307   25.7482 C   0  0  0  0  0  0
  -27.5569  -37.1807   24.8480 C   0  0  0  0  0  0
  -21.4148  -29.3043   22.3716 N   0  0  0  0  0  0
  -26.4287  -37.3798   23.9420 N   0  0  0  0  0  0
  -24.6748  -31.0724   22.0979 N   0  0  0  0  0  0
  -23.4159  -28.8234   23.3065 O   0  0  0  0  0  0
  -28.3933  -26.6137   20.0877 O   0  0  0  0  0  0
  -26.5573  -34.8944   22.4653 O   0  0  0  0  0  0
  -23.5392  -32.1437   23.7441 O   0  0  0  0  0  0
  -29.4451  -18.0947   22.4419 C   0  0  0  0  0  0
  -29.1553  -20.4932   22.7756 C   0  0  0  0  0  0
  -29.9754  -18.3064   21.1501 C   0  0  0  0  0  0
  -30.0948  -19.6655   20.6786 C   0  0  0  0  0  0
  -29.6612  -20.7737   21.4862 C   0  0  0  0  0  0
  -29.0518  -19.1743   23.2468 C   0  0  0  0  0  0
  -30.5895  -23.0323   21.7393 C   0  0  0  0  0  0
  -31.9262  -22.8955   21.6764 C   0  0  0  0  0  0
  -29.9382  -24.1544   22.5445 C   0  0  0  0  0  0
  -29.6416  -25.4182   21.7100 C   0  0  0  0  0  0
  -28.5525  -24.0821   19.8213 C   0  0  0  0  0  0
  -28.4865  -22.6419   20.4613 C   0  0  0  0  0  0
  -28.4223  -25.3240   20.7709 C   0  0  2  0  0  0
  -30.7537  -19.9379   19.3317 C   0  0  0  0  0  0
  -30.4879  -17.0799   20.3456 C   0  0  0  0  0  0
  -29.7305  -22.1445   21.0922 N   0  0  0  0  0  0
  -30.0246  -15.7083   20.7382 N   0  0  0  0  0  0
  -28.4335  -18.8762   24.8292 Cl  0  0  0  0  0  0
  -31.4802  -12.4226   19.1661 H   0  0  0  0  0  0
  -30.3270  -11.3637   19.9159 H   0  0  0  0  0  0
  -29.7723  -11.7180   17.4918 H   0  0  0  0  0  0
  -29.6943  -13.4416   17.7428 H   0  0  0  0  0  0
  -27.8554  -11.3043   18.8604 H   0  0  0  0  0  0
  -27.3953  -12.6004   17.7890 H   0  0  0  0  0  0
  -27.6741  -14.2624   19.5202 H   0  0  0  0  0  0
  -28.7125  -12.0926   21.4112 H   0  0  0  0  0  0
  -28.4881  -13.7722   21.8196 H   0  0  0  0  0  0
  -25.2767   -9.5748   22.4752 H   0  0  0  0  0  0
  -24.0017   -7.4692   22.7481 H   0  0  0  0  0  0
  -21.0838   -8.8832   19.8975 H   0  0  0  0  0  0
  -22.3705  -10.9717   19.6176 H   0  0  0  0  0  0
  -21.1991   -7.6132   23.9755 H   0  0  0  0  0  0
  -21.1490   -6.0486   25.9100 H   0  0  0  0  0  0
  -22.0582   -2.7608   23.2841 H   0  0  0  0  0  0
  -22.3943  -11.9961   22.4867 H   0  0  0  0  0  0
  -21.1085  -13.1448   22.2533 H   0  0  0  0  0  0
  -24.6607  -15.8483   20.5533 H   0  0  0  0  0  0
  -26.2706  -15.6487   20.0885 H   0  0  0  0  0  0
  -26.7149  -32.5511   23.1117 H   0  0  0  0  0  0
  -25.0260  -33.9786   25.0568 H   0  0  0  0  0  0
  -22.6983  -31.3049   21.4090 H   0  0  0  0  0  0
  -23.3769  -35.9594   23.3325 H   0  0  0  0  0  0
  -24.3562  -36.8856   22.2048 H   0  0  0  0  0  0
  -23.7209  -37.6480   23.6619 H   0  0  0  0  0  0
  -26.0479  -31.5731   20.5873 H   0  0  0  0  0  0
  -26.8277  -30.8745   21.9827 H   0  0  0  0  0  0
  -28.1033  -29.0606   21.1819 H   0  0  0  0  0  0
  -26.0348  -25.9158   19.0709 H   0  0  0  0  0  0
  -23.9775  -27.2734   19.0530 H   0  0  0  0  0  0
  -23.7320  -30.5911   19.4024 H   0  0  0  0  0  0
  -22.7385  -29.2401   19.8731 H   0  0  0  0  0  0
  -25.1284  -36.1949   25.0834 H   0  0  0  0  0  0
  -20.9931  -28.3239   24.1441 H   0  0  0  0  0  0
  -20.5689  -26.2292   23.3592 H   0  0  0  0  0  0
  -21.6654  -26.7486   22.1195 H   0  0  0  0  0  0
  -19.6923  -25.6296   21.1246 H   0  0  0  0  0  0
  -19.6704  -27.3201   20.6740 H   0  0  0  0  0  0
  -17.4211  -26.6702   21.3999 H   0  0  0  0  0  0
  -18.0314  -26.0061   22.8989 H   0  0  0  0  0  0
  -19.7918  -30.7260   24.2293 H   0  0  0  0  0  0
  -17.5013  -31.6280   24.5142 H   0  0  0  0  0  0
  -15.5348  -30.3008   23.7652 H   0  0  0  0  0  0
  -15.8649  -28.0814   22.7103 H   0  0  0  0  0  0
  -24.5951  -30.7057   25.7791 H   0  0  0  0  0  0
  -24.8942  -32.2884   26.4854 H   0  0  0  0  0  0
  -25.8094  -30.8934   27.0215 H   0  0  0  0  0  0
  -26.2895  -29.6786   24.1156 H   0  0  0  0  0  0
  -27.4136  -29.7292   25.4570 H   0  0  0  0  0  0
  -27.8734  -30.4387   23.9251 H   0  0  0  0  0  0
  -27.2740  -33.3649   26.2010 H   0  0  0  0  0  0
  -28.3937  -32.6775   25.0313 H   0  0  0  0  0  0
  -28.0704  -31.8433   26.5439 H   0  0  0  0  0  0
  -28.2614  -38.0079   24.7514 H   0  0  0  0  0  0
  -28.1028  -36.2613   24.6315 H   0  0  0  0  0  0
  -27.2288  -37.1475   25.8886 H   0  0  0  0  0  0
  -20.9292  -29.8743   21.6917 H   0  0  0  0  0  0
  -26.0160  -38.2869   24.1462 H   0  0  0  0  0  0
  -29.3643  -17.0988   22.8517 H   0  0  0  0  0  0
  -28.8563  -21.2980   23.4297 H   0  0  0  0  0  0
  -32.5866  -23.5901   22.1799 H   0  0  0  0  0  0
  -32.3920  -22.1005   21.1080 H   0  0  0  0  0  0
  -30.5952  -24.4176   23.3771 H   0  0  0  0  0  0
  -29.0178  -23.7910   23.0047 H   0  0  0  0  0  0
  -30.5256  -25.6845   21.1266 H   0  0  0  0  0  0
  -29.4772  -26.2522   22.3928 H   0  0  0  0  0  0
  -27.7292  -24.1458   19.1087 H   0  0  0  0  0  0
  -29.4637  -24.1633   19.2251 H   0  0  0  0  0  0
  -28.2313  -21.9306   19.6729 H   0  0  0  0  0  0
  -27.6654  -22.5923   21.1733 H   0  0  0  0  0  0
  -27.5232  -25.2085   21.3759 H   0  0  0  0  0  0
  -31.7787  -19.5591   19.3362 H   0  0  0  0  0  0
  -30.8023  -20.9998   19.0977 H   0  0  0  0  0  0
  -30.2234  -19.4535   18.5113 H   0  0  0  0  0  0
  -30.2532  -17.2064   19.2872 H   0  0  0  0  0  0
  -31.5776  -17.1270   20.4091 H   0  0  0  0  0  0
  -29.0516  -15.6051   20.9758 H   0  0  0  0  0  0
  1 25  1  0  0  0
  1 30  2  0  0  0
  1 87  1  0  0  0
  2  3  1  0  0  0
  2 25  1  0  0  0
  2 89  1  0  0  0
  2 90  1  0  0  0
  3  4  1  0  0  0
  3 91  1  0  0  0
  3 92  1  0  0  0
  4  5  1  0  0  0
  4 93  1  0  0  0
  4 94  1  0  0  0
  5  6  1  0  0  0
  5 26  1  0  0  0
  5 95  1  0  0  0
  6 25  1  0  0  0
  6 96  1  0  0  0
  6 97  1  0  0  0
  7  8  2  0  0  0
  7 26  1  0  0  0
  7 29  1  0  0  0
  8  9  1  0  0  0
  8 22  1  0  0  0
  9 10  1  0  0  0
  9 27  2  0  0  0
 10 11  2  0  0  0
 10 15  1  0  0  0
 11 12  1  0  0  0
 11 98  1  0  0  0
 12 13  2  0  0  0
 12 99  1  0  0  0
 13 14  1  0  0  0
 13 31  1  0  0  0
 14 15  2  0  0  0
 14100  1  0  0  0
 15101  1  0  0  0
 16 17  2  0  0  0
 16 21  1  0  0  0
 16 31  1  0  0  0
 17 18  1  0  0  0
 17102  1  0  0  0
 18 19  2  0  0  0
 18103  1  0  0  0
 19 20  1  0  0  0
 19 24  1  0  0  0
 20 21  2  0  0  0
 20104  1  0  0  0
 21 23  1  0  0  0
 22 28  1  0  0  0
 22 32  2  0  0  0
 26 27  1  0  0  0
 28105  1  0  0  0
 28106  1  0  0  0
 29107  1  0  0  0
 29108  1  0  0  0
 33 34  1  0  0  0
 33 66  1  0  0  0
 33 70  2  0  0  0
 34 36  1  0  0  0
 34 59  1  0  0  0
 34109  1  0  0  0
 35 44  2  0  0  0
 35 45  1  0  0  0
 35 68  1  0  0  0
 36 56  1  0  0  0
 36110  1  0  0  0
 37 39  1  0  0  0
 37 47  1  0  0  0
 37 66  1  0  0  0
 37111  1  0  0  0
 38 43  2  0  0  0
 38 46  1  0  0  0
 38 47  1  0  0  0
 39 64  1  0  0  0
 39 67  2  0  0  0
 40 52  1  0  0  0
 40 53  2  0  0  0
 40 58  1  0  0  0
 41112  1  0  0  0
 41113  1  0  0  0
 41114  1  0  0  0
 41 48  1  0  0  0
 42 43  1  0  0  0
 42 66  1  0  0  0
 42115  1  0  0  0
 42116  1  0  0  0
 43 44  1  0  0  0
 44117  1  0  0  0
 45 46  2  0  0  0
 45118  1  0  0  0
 46119  1  0  0  0
 47120  1  0  0  0
 47121  1  0  0  0
 48 56  1  0  0  0
 48 65  1  0  0  0
 48122  1  0  0  0
 49 50  1  0  0  0
 49 53  1  0  0  0
 49 64  1  0  0  0
 49123  1  0  0  0
 50 51  1  0  0  0
 50124  1  0  0  0
 50125  1  0  0  0
 51 52  1  0  0  0
 51126  1  0  0  0
 51127  1  0  0  0
 52128  1  0  0  0
 52129  1  0  0  0
 53 54  1  0  0  0
 54 55  2  0  0  0
 54130  1  0  0  0
 55 57  1  0  0  0
 55131  1  0  0  0
 56 69  2  0  0  0
 57 58  2  0  0  0
 57132  1  0  0  0
 58133  1  0  0  0
 59 60  1  0  0  0
 59 61  1  0  0  0
 59 62  1  0  0  0
 60134  1  0  0  0
 60135  1  0  0  0
 60136  1  0  0  0
 61137  1  0  0  0
 61138  1  0  0  0
 61139  1  0  0  0
 62140  1  0  0  0
 62141  1  0  0  0
 62142  1  0  0  0
 63 65  1  0  0  0
 63143  1  0  0  0
 63144  1  0  0  0
 63145  1  0  0  0
 64146  1  0  0  0
 65147  1  0  0  0
 68 83  1  0  0  0
 71 73  2  0  0  0
 71 76  1  0  0  0
 71148  1  0  0  0
 72 75  1  0  0  0
 72 76  2  0  0  0
 72149  1  0  0  0
 73 74  1  0  0  0
 73 85  1  0  0  0
 74 75  2  0  0  0
 74 84  1  0  0  0
 75 86  1  0  0  0
 76 88  1  0  0  0
 77 78  2  0  0  0
 77 79  1  0  0  0
 77 86  1  0  0  0
 78150  1  0  0  0
 78151  1  0  0  0
 79 80  1  0  0  0
 79152  1  0  0  0
 79153  1  0  0  0
 80 83  1  0  0  0
 80154  1  0  0  0
 80155  1  0  0  0
 81 82  1  0  0  0
 81 83  1  0  0  0
 81156  1  0  0  0
 81157  1  0  0  0
 82 86  1  0  0  0
 82158  1  0  0  0
 82159  1  0  0  0
 83160  1  0  0  0
 84161  1  0  0  0
 84162  1  0  0  0
 84163  1  0  0  0
 85 87  1  0  0  0
 85164  1  0  0  0
 85165  1  0  0  0
 87166  1  0  0  0
M  ISO  4   1 100  68 101  83 101  87 100
M  END
> <chiral flag>
0

> <version>
0

> <s_m_source_file>
/data/baiqing/PycharmProjects/Reinvent-master-3.2/result/LINK_invent/BTK/process_docking_weight1_custom_product_contain_oxygen_bond_distance_aromatic_linkinvent_7_9_3/rearranged_h_0042.sdf

> <i_m_source_file_index>
69

> <r_mmod_Potential_Energy-OPLS-2005>
-27.4211711883545

> <r_mmod_Stretch_Energy-OPLS-2005>
61.521297454834

> <r_mmod_Bend_Energy-OPLS-2005>
116.9296875

> <r_mmod_Torsional_Energy-OPLS-2005>
293.809631347656

> <r_mmod_Improper_Torsional_Energy-OPLS-2005>
8.53974151611328

> <r_mmod_Van_der_Waal_Energy-OPLS-2005>
140.961380004883

> <r_mmod_Electrostatic_Energy-OPLS-2005>
-476.352294921875

> <r_mmod_Solvation_Energy-OPLS-2005>
-202.816604614258

> <b_mmod_Minimization_Converged-OPLS-2005>
0

> <r_mmod_RMS_Derivative-OPLS-2005>
4.91895961761475

$$$$
69
                    3D
 Structure written by MMmdl.
168177  0  0  1  0            999 V2000
  -30.6261  -14.7432   20.4325 C   0  0  0  0  0  0
  -30.4247  -12.4481   19.4812 C   0  0  0  0  0  0
  -29.5088  -12.5019   18.2392 C   0  0  0  0  0  0
  -28.0347  -12.3309   18.6509 C   0  0  0  0  0  0
  -27.6396  -13.2362   19.8486 C   0  0  2  0  0  0
  -28.6830  -13.1847   20.9860 C   0  0  0  0  0  0
  -25.2499  -13.8211   20.5699 C   0  0  0  0  0  0
  -24.1796  -13.0448   20.9214 C   0  0  0  0  0  0
  -24.6394  -11.6927   20.8753 C   0  0  0  0  0  0
  -23.9075  -10.4299   21.0410 C   0  0  0  0  0  0
  -24.3625   -9.4211   21.9187 C   0  0  0  0  0  0
  -23.6299   -8.2246   22.0756 C   0  0  0  0  0  0
  -22.4280   -8.0285   21.3546 C   0  0  0  0  0  0
  -21.9918   -9.0260   20.4647 C   0  0  0  0  0  0
  -22.7248  -10.2139   20.3058 C   0  0  0  0  0  0
  -21.6855   -6.0737   22.5280 C   0  0  0  0  0  0
  -21.4015   -6.5641   23.8214 C   0  0  0  0  0  0
  -21.3660   -5.6795   24.9176 C   0  0  0  0  0  0
  -21.6043   -4.3057   24.7226 C   0  0  0  0  0  0
  -21.8819   -3.8148   23.4347 C   0  0  0  0  0  0
  -21.9194   -4.6965   22.3403 C   0  0  0  0  0  0
  -22.7817  -13.5225   21.1871 C   0  0  0  0  0  0
  -22.1662   -4.2151   21.0981 F   0  0  0  0  0  0
  -21.5628   -3.4540   25.7738 F   0  0  0  0  0  0
  -29.9856  -13.5238   20.4021 N   0  0  0  0  0  0
  -26.2926  -12.9427   20.3277 N   0  0  0  0  0  0
  -25.9325  -11.6565   20.5757 N   0  0  0  0  0  0
  -22.0462  -12.8212   22.0423 N   0  0  0  0  0  0
  -25.4188  -15.1936   20.4114 N   0  0  0  0  0  0
  -31.8283  -14.7854   20.1602 O   0  0  0  0  0  0
  -21.6642   -6.8883   21.4243 O   0  0  0  0  0  0
  -22.3500  -14.5530   20.6718 O   0  0  0  0  0  0
  -24.6318  -31.8554   23.1990 C   0  0  0  0  0  0
  -25.9144  -32.4754   23.8334 C   0  0  1  0  0  0
  -27.2133  -27.2575   20.1338 C   0  0  0  0  0  0
  -25.5940  -33.8556   24.2258 N   0  0  0  0  0  0
  -23.4281  -30.4787   21.5429 C   0  0  2  0  0  0
  -24.8747  -28.9255   20.1125 C   0  0  0  0  0  0
  -22.7503  -29.4605   22.4917 C   0  0  0  0  0  0
  -18.0292  -28.1390   22.8485 C   0  0  0  0  0  0
  -24.1490  -36.7282   23.2640 C   0  0  0  0  0  0
  -25.9748  -30.7669   21.3803 C   0  0  0  0  0  0
  -26.0472  -29.3888   20.7237 C   0  0  0  0  0  0
  -27.2215  -28.5680   20.7219 C   0  0  0  0  0  0
  -26.0233  -26.8711   19.4793 C   0  0  0  0  0  0
  -24.8682  -27.6750   19.4783 C   0  0  0  0  0  0
  -23.6464  -29.8134   20.1592 C   0  0  0  0  0  0
  -25.4117  -36.3068   24.0326 C   0  0  1  0  0  0
  -20.5896  -28.3702   23.1269 C   0  0  2  0  0  0
  -20.6781  -26.9420   22.5407 C   0  0  0  0  0  0
  -19.5754  -26.6385   21.5213 C   0  0  0  0  0  0
  -18.1935  -26.7931   22.1625 C   0  0  0  0  0  0
  -19.1546  -28.8863   23.2871 C   0  0  0  0  0  0
  -18.9466  -30.1463   23.8890 C   0  0  0  0  0  0
  -17.6465  -30.6591   24.0562 C   0  0  0  0  0  0
  -25.9058  -34.9439   23.5094 C   0  0  0  0  0  0
  -16.5356  -29.9087   23.6333 C   0  0  0  0  0  0
  -16.7278  -28.6505   23.0355 C   0  0  0  0  0  0
  -26.4509  -31.6578   25.0724 C   0  0  0  0  0  0
  -25.3726  -31.3732   26.1441 C   0  0  0  0  0  0
  -27.0360  -30.2993   24.6218 C   0  0  0  0  0  0
  -27.6058  -32.4324   25.7500 C   0  0  0  0  0  0
  -27.5578  -37.1797   24.8465 C   0  0  0  0  0  0
  -21.4210  -29.3050   22.3660 N   0  0  0  0  0  0
  -26.4291  -37.3768   23.9408 N   0  0  0  0  0  0
  -24.6974  -31.0516   22.0970 N   0  0  0  0  0  0
  -23.4201  -28.8142   23.3014 O   0  0  0  0  0  0
  -28.2997  -26.3513   20.1658 O   0  0  0  0  0  0
  -26.5627  -34.8915   22.4661 O   0  0  0  0  0  0
  -23.5467  -32.1378   23.7285 O   0  0  0  0  0  0
  -29.3569  -18.4958   20.3844 C   0  0  0  0  0  0
  -31.1084  -17.4760   19.0613 C   0  0  0  0  0  0
  -29.5109  -19.7913   19.7135 C   0  0  0  0  0  0
  -30.4524  -19.8129   18.6408 C   0  0  0  0  0  0
  -30.1211  -17.2929   20.0539 C   0  0  0  0  0  0
  -31.2713  -18.6892   18.3745 C   0  0  0  0  0  0
  -29.0564  -23.7905   20.0493 C   0  0  0  0  0  0
  -32.6052  -23.5931   19.0091 C   0  0  0  0  0  0
  -30.2822  -24.1082   19.5858 C   0  0  0  0  0  0
  -31.4302  -23.2259   19.5431 C   0  0  0  0  0  0
  -27.8503  -23.4010   22.6679 C   0  0  0  0  0  0
  -28.0099  -24.8323   22.0741 C   0  0  0  0  0  0
  -28.8194  -22.3426   22.0757 C   0  0  0  0  0  0
  -28.0370  -24.9054   20.5227 C   0  0  1  0  0  0
  -30.5351  -20.9606   17.6373 C   0  0  0  0  0  0
  -28.4874  -21.0221   19.8749 C   0  0  0  0  0  0
  -29.8793  -15.9130   20.5871 N   0  0  0  0  0  0
  -28.6698  -22.3766   20.6125 N   0  3  1  0  0  0
  -32.4514  -18.7329   17.1085 Cl  0  0  0  0  0  0
  -31.4682  -12.5546   19.1799 H   0  0  0  0  0  0
  -30.3559  -11.4754   19.9711 H   0  0  0  0  0  0
  -29.7904  -11.7250   17.5269 H   0  0  0  0  0  0
  -29.6400  -13.4541   17.7226 H   0  0  0  0  0  0
  -27.8897  -11.2832   18.9168 H   0  0  0  0  0  0
  -27.3790  -12.5206   17.8004 H   0  0  0  0  0  0
  -27.6307  -14.2554   19.4616 H   0  0  0  0  0  0
  -28.7147  -12.1939   21.4418 H   0  0  0  0  0  0
  -28.4206  -13.8814   21.7837 H   0  0  0  0  0  0
  -25.2770   -9.5687   22.4762 H   0  0  0  0  0  0
  -24.0007   -7.4638   22.7475 H   0  0  0  0  0  0
  -21.0850   -8.8780   19.8952 H   0  0  0  0  0  0
  -22.3707  -10.9679   19.6167 H   0  0  0  0  0  0
  -21.2008   -7.6150   23.9718 H   0  0  0  0  0  0
  -21.1482   -6.0524   25.9080 H   0  0  0  0  0  0
  -22.0597   -2.7610   23.2847 H   0  0  0  0  0  0
  -22.4080  -11.9872   22.4807 H   0  0  0  0  0  0
  -21.1077  -13.1230   22.2629 H   0  0  0  0  0  0
  -24.6493  -15.8456   20.5187 H   0  0  0  0  0  0
  -26.2615  -15.6316   20.0622 H   0  0  0  0  0  0
  -26.7209  -32.5403   23.1073 H   0  0  0  0  0  0
  -25.0087  -33.9694   25.0403 H   0  0  0  0  0  0
  -22.7247  -31.3012   21.3972 H   0  0  0  0  0  0
  -23.3755  -35.9612   23.3299 H   0  0  0  0  0  0
  -24.3577  -36.8909   22.2054 H   0  0  0  0  0  0
  -23.7244  -37.6482   23.6667 H   0  0  0  0  0  0
  -26.1143  -31.5270   20.6103 H   0  0  0  0  0  0
  -26.8521  -30.8155   22.0137 H   0  0  0  0  0  0
  -28.1194  -28.9168   21.2127 H   0  0  0  0  0  0
  -25.9641  -25.9280   18.9571 H   0  0  0  0  0  0
  -23.9744  -27.3204   18.9834 H   0  0  0  0  0  0
  -23.7720  -30.5896   19.4034 H   0  0  0  0  0  0
  -22.7643  -29.2477   19.8539 H   0  0  0  0  0  0
  -25.1300  -36.1912   25.0819 H   0  0  0  0  0  0
  -20.9987  -28.3281   24.1391 H   0  0  0  0  0  0
  -20.5685  -26.2313   23.3612 H   0  0  0  0  0  0
  -21.6648  -26.7446   22.1199 H   0  0  0  0  0  0
  -19.6916  -25.6295   21.1249 H   0  0  0  0  0  0
  -19.6691  -27.3191   20.6739 H   0  0  0  0  0  0
  -17.4204  -26.6681   21.4027 H   0  0  0  0  0  0
  -18.0333  -26.0074   22.9022 H   0  0  0  0  0  0
  -19.7941  -30.7283   24.2255 H   0  0  0  0  0  0
  -17.5019  -31.6270   24.5164 H   0  0  0  0  0  0
  -15.5356  -30.2987   23.7662 H   0  0  0  0  0  0
  -15.8678  -28.0822   22.7073 H   0  0  0  0  0  0
  -24.5907  -30.7076   25.7767 H   0  0  0  0  0  0
  -24.8912  -32.2903   26.4844 H   0  0  0  0  0  0
  -25.8038  -30.8923   27.0230 H   0  0  0  0  0  0
  -26.2951  -29.6732   24.1232 H   0  0  0  0  0  0
  -27.4028  -29.7263   25.4745 H   0  0  0  0  0  0
  -27.8834  -30.4264   23.9477 H   0  0  0  0  0  0
  -27.2662  -33.3631   26.2057 H   0  0  0  0  0  0
  -28.3878  -32.6873   25.0335 H   0  0  0  0  0  0
  -28.0714  -31.8462   26.5432 H   0  0  0  0  0  0
  -28.2594  -38.0096   24.7511 H   0  0  0  0  0  0
  -28.1078  -36.2626   24.6294 H   0  0  0  0  0  0
  -27.2295  -37.1448   25.8869 H   0  0  0  0  0  0
  -20.9396  -29.8777   21.6869 H   0  0  0  0  0  0
  -26.0169  -38.2842   24.1405 H   0  0  0  0  0  0
  -28.5744  -18.4035   21.1252 H   0  0  0  0  0  0
  -31.7312  -16.6615   18.7294 H   0  0  0  0  0  0
  -33.4464  -22.9141   18.9988 H   0  0  0  0  0  0
  -32.7514  -24.5716   18.5730 H   0  0  0  0  0  0
  -30.4576  -25.1520   19.3632 H   0  0  0  0  0  0
  -31.3590  -22.2344   19.9676 H   0  0  0  0  0  0
  -26.8217  -23.0698   22.5154 H   0  0  0  0  0  0
  -27.9838  -23.4435   23.7496 H   0  0  0  0  0  0
  -28.9409  -25.2580   22.4517 H   0  0  0  0  0  0
  -27.2160  -25.4740   22.4583 H   0  0  0  0  0  0
  -28.5855  -21.3529   22.4706 H   0  0  0  0  0  0
  -29.8546  -22.5559   22.3453 H   0  0  0  0  0  0
  -27.0670  -24.5838   20.1494 H   0  0  0  0  0  0
  -29.9057  -21.8166   17.8579 H   0  0  0  0  0  0
  -30.2354  -20.6019   16.6520 H   0  0  0  0  0  0
  -31.5599  -21.3210   17.5496 H   0  0  0  0  0  0
  -27.6252  -20.5765   20.3714 H   0  0  0  0  0  0
  -28.0842  -21.2527   18.8895 H   0  0  0  0  0  0
  -28.9590  -15.7599   20.9716 H   0  0  0  0  0  0
  -27.6682  -22.4923   20.6332 H   0  0  0  0  0  0
  1 25  1  0  0  0
  1 30  2  0  0  0
  1 87  1  0  0  0
  2  3  1  0  0  0
  2 25  1  0  0  0
  2 90  1  0  0  0
  2 91  1  0  0  0
  3  4  1  0  0  0
  3 92  1  0  0  0
  3 93  1  0  0  0
  4  5  1  0  0  0
  4 94  1  0  0  0
  4 95  1  0  0  0
  5  6  1  0  0  0
  5 26  1  0  0  0
  5 96  1  0  0  0
  6 25  1  0  0  0
  6 97  1  0  0  0
  6 98  1  0  0  0
  7  8  2  0  0  0
  7 26  1  0  0  0
  7 29  1  0  0  0
  8  9  1  0  0  0
  8 22  1  0  0  0
  9 10  1  0  0  0
  9 27  2  0  0  0
 10 11  2  0  0  0
 10 15  1  0  0  0
 11 12  1  0  0  0
 11 99  1  0  0  0
 12 13  2  0  0  0
 12100  1  0  0  0
 13 14  1  0  0  0
 13 31  1  0  0  0
 14 15  2  0  0  0
 14101  1  0  0  0
 15102  1  0  0  0
 16 17  2  0  0  0
 16 21  1  0  0  0
 16 31  1  0  0  0
 17 18  1  0  0  0
 17103  1  0  0  0
 18 19  2  0  0  0
 18104  1  0  0  0
 19 20  1  0  0  0
 19 24  1  0  0  0
 20 21  2  0  0  0
 20105  1  0  0  0
 21 23  1  0  0  0
 22 28  1  0  0  0
 22 32  2  0  0  0
 26 27  1  0  0  0
 28106  1  0  0  0
 28107  1  0  0  0
 29108  1  0  0  0
 29109  1  0  0  0
 33 34  1  0  0  0
 33 66  1  0  0  0
 33 70  2  0  0  0
 34 36  1  0  0  0
 34 59  1  0  0  0
 34110  1  0  0  0
 35 44  2  0  0  0
 35 45  1  0  0  0
 35 68  1  0  0  0
 36 56  1  0  0  0
 36111  1  0  0  0
 37 39  1  0  0  0
 37 47  1  0  0  0
 37 66  1  0  0  0
 37112  1  0  0  0
 38 43  2  0  0  0
 38 46  1  0  0  0
 38 47  1  0  0  0
 39 64  1  0  0  0
 39 67  2  0  0  0
 40 52  1  0  0  0
 40 53  2  0  0  0
 40 58  1  0  0  0
 41113  1  0  0  0
 41114  1  0  0  0
 41115  1  0  0  0
 41 48  1  0  0  0
 42 43  1  0  0  0
 42 66  1  0  0  0
 42116  1  0  0  0
 42117  1  0  0  0
 43 44  1  0  0  0
 44118  1  0  0  0
 45 46  2  0  0  0
 45119  1  0  0  0
 46120  1  0  0  0
 47121  1  0  0  0
 47122  1  0  0  0
 48 56  1  0  0  0
 48 65  1  0  0  0
 48123  1  0  0  0
 49 50  1  0  0  0
 49 53  1  0  0  0
 49 64  1  0  0  0
 49124  1  0  0  0
 50 51  1  0  0  0
 50125  1  0  0  0
 50126  1  0  0  0
 51 52  1  0  0  0
 51127  1  0  0  0
 51128  1  0  0  0
 52129  1  0  0  0
 52130  1  0  0  0
 53 54  1  0  0  0
 54 55  2  0  0  0
 54131  1  0  0  0
 55 57  1  0  0  0
 55132  1  0  0  0
 56 69  2  0  0  0
 57 58  2  0  0  0
 57133  1  0  0  0
 58134  1  0  0  0
 59 60  1  0  0  0
 59 61  1  0  0  0
 59 62  1  0  0  0
 60135  1  0  0  0
 60136  1  0  0  0
 60137  1  0  0  0
 61138  1  0  0  0
 61139  1  0  0  0
 61140  1  0  0  0
 62141  1  0  0  0
 62142  1  0  0  0
 62143  1  0  0  0
 63 65  1  0  0  0
 63144  1  0  0  0
 63145  1  0  0  0
 63146  1  0  0  0
 64147  1  0  0  0
 65148  1  0  0  0
 68 84  1  0  0  0
 71 73  2  0  0  0
 71 75  1  0  0  0
 71149  1  0  0  0
 72 75  2  0  0  0
 72 76  1  0  0  0
 72150  1  0  0  0
 73 74  1  0  0  0
 73 86  1  0  0  0
 74 76  2  0  0  0
 74 85  1  0  0  0
 75 87  1  0  0  0
 76 89  1  0  0  0
 77 79  2  0  0  0
 77 84  1  0  0  0
 77 88  1  0  0  0
 78 80  2  0  0  0
 78151  1  0  0  0
 78152  1  0  0  0
 79 80  1  0  0  0
 79153  1  0  0  0
 80154  1  0  0  0
 81 82  1  0  0  0
 81 83  1  0  0  0
 81155  1  0  0  0
 81156  1  0  0  0
 82 84  1  0  0  0
 82157  1  0  0  0
 82158  1  0  0  0
 83 88  1  0  0  0
 83159  1  0  0  0
 83160  1  0  0  0
 84161  1  0  0  0
 85162  1  0  0  0
 85163  1  0  0  0
 85164  1  0  0  0
 86165  1  0  0  0
 86166  1  0  0  0
 86 88  1  0  0  0
 87167  1  0  0  0
 88168  1  0  0  0
M  CHG  1  88   1
M  ISO  4   1 100  68 101  84 101  87 100
M  END
> <chiral flag>
0

> <version>
0

> <s_m_source_file>
/data/baiqing/PycharmProjects/Reinvent-master-3.2/result/LINK_invent/BTK/process_docking_weight1_custom_product_contain_oxygen_bond_distance_aromatic_linkinvent_7_9_3/rearranged_h_0042.sdf

> <i_m_source_file_index>
70

> <r_mmod_Potential_Energy-OPLS-2005>
187.80322265625

> <r_mmod_Stretch_Energy-OPLS-2005>
141.383331298828

> <r_mmod_Bend_Energy-OPLS-2005>
246.378631591797

> <r_mmod_Torsional_Energy-OPLS-2005>
264.504852294922

> <r_mmod_Improper_Torsional_Energy-OPLS-2005>
8.75438594818115

> <r_mmod_Van_der_Waal_Energy-OPLS-2005>
147.311782836914

> <r_mmod_Electrostatic_Energy-OPLS-2005>
-253.214447021484

> <r_mmod_Solvation_Energy-OPLS-2005>
-454.771911621094

> <b_mmod_Minimization_Converged-OPLS-2005>
0

> <r_mmod_RMS_Derivative-OPLS-2005>
0.273290693759918

$$$$
70
                    3D
 Structure written by MMmdl.
167176  0  0  1  0            999 V2000
  -30.5946  -14.6699   20.4629 C   0  0  0  0  0  0
  -30.4472  -12.4058   19.4467 C   0  0  0  0  0  0
  -29.5076  -12.4953   18.2235 C   0  0  0  0  0  0
  -28.0312  -12.3245   18.6396 C   0  0  0  0  0  0
  -27.6484  -13.2020   19.8599 C   0  0  2  0  0  0
  -28.6992  -13.0797   20.9855 C   0  0  0  0  0  0
  -25.2529  -13.8050   20.5718 C   0  0  0  0  0  0
  -24.1791  -13.0348   20.9216 C   0  0  0  0  0  0
  -24.6359  -11.6830   20.8760 C   0  0  0  0  0  0
  -23.9030  -10.4234   21.0428 C   0  0  0  0  0  0
  -24.3582   -9.4156   21.9199 C   0  0  0  0  0  0
  -23.6262   -8.2195   22.0753 C   0  0  0  0  0  0
  -22.4247   -8.0244   21.3538 C   0  0  0  0  0  0
  -21.9880   -9.0222   20.4647 C   0  0  0  0  0  0
  -22.7207  -10.2097   20.3069 C   0  0  0  0  0  0
  -21.6828   -6.0723   22.5288 C   0  0  0  0  0  0
  -21.3988   -6.5627   23.8224 C   0  0  0  0  0  0
  -21.3638   -5.6778   24.9185 C   0  0  0  0  0  0
  -21.6041   -4.3043   24.7231 C   0  0  0  0  0  0
  -21.8830   -3.8140   23.4352 C   0  0  0  0  0  0
  -21.9191   -4.6956   22.3409 C   0  0  0  0  0  0
  -22.7822  -13.5190   21.1856 C   0  0  0  0  0  0
  -22.1655   -4.2147   21.0987 F   0  0  0  0  0  0
  -21.5633   -3.4521   25.7741 F   0  0  0  0  0  0
  -30.0080  -13.4324   20.4104 N   0  0  0  0  0  0
  -26.2958  -12.9231   20.3330 N   0  0  0  0  0  0
  -25.9284  -11.6403   20.5775 N   0  0  0  0  0  0
  -22.0431  -12.8236   22.0422 N   0  0  0  0  0  0
  -25.4179  -15.1736   20.4147 N   0  0  0  0  0  0
  -31.7811  -14.8342   20.1584 O   0  0  0  0  0  0
  -21.6599   -6.8855   21.4249 O   0  0  0  0  0  0
  -22.3546  -14.5511   20.6685 O   0  0  0  0  0  0
  -24.6250  -31.8609   23.2054 C   0  0  0  0  0  0
  -25.9100  -32.4783   23.8385 C   0  0  1  0  0  0
  -27.2322  -27.3328   20.1164 C   0  0  0  0  0  0
  -25.5943  -33.8582   24.2319 N   0  0  0  0  0  0
  -23.4191  -30.4857   21.5447 C   0  0  2  0  0  0
  -24.8682  -28.9464   20.1082 C   0  0  0  0  0  0
  -22.7482  -29.4628   22.4924 C   0  0  0  0  0  0
  -18.0294  -28.1390   22.8479 C   0  0  0  0  0  0
  -24.1481  -36.7256   23.2644 C   0  0  0  0  0  0
  -25.9581  -30.7977   21.3739 C   0  0  0  0  0  0
  -26.0335  -29.4258   20.7169 C   0  0  0  0  0  0
  -27.2135  -28.6276   20.7185 C   0  0  0  0  0  0
  -26.0470  -26.9190   19.4595 C   0  0  0  0  0  0
  -24.8757  -27.6974   19.4718 C   0  0  0  0  0  0
  -23.6348  -29.8218   20.1592 C   0  0  0  0  0  0
  -25.4104  -36.3081   24.0351 C   0  0  1  0  0  0
  -20.5896  -28.3684   23.1273 C   0  0  2  0  0  0
  -20.6761  -26.9403   22.5403 C   0  0  0  0  0  0
  -19.5742  -26.6389   21.5198 C   0  0  0  0  0  0
  -18.1924  -26.7940   22.1609 C   0  0  0  0  0  0
  -19.1545  -28.8850   23.2874 C   0  0  0  0  0  0
  -18.9469  -30.1457   23.8882 C   0  0  0  0  0  0
  -17.6466  -30.6582   24.0562 C   0  0  0  0  0  0
  -25.9039  -34.9450   23.5121 C   0  0  0  0  0  0
  -16.5358  -29.9075   23.6344 C   0  0  0  0  0  0
  -16.7281  -28.6504   23.0346 C   0  0  0  0  0  0
  -26.4513  -31.6581   25.0727 C   0  0  0  0  0  0
  -25.3775  -31.3677   26.1470 C   0  0  0  0  0  0
  -27.0344  -30.3021   24.6123 C   0  0  0  0  0  0
  -27.6099  -32.4306   25.7476 C   0  0  0  0  0  0
  -27.5578  -37.1782   24.8478 C   0  0  0  0  0  0
  -21.4193  -29.3037   22.3663 N   0  0  0  0  0  0
  -26.4282  -37.3779   23.9430 N   0  0  0  0  0  0
  -24.6859  -31.0647   22.0989 N   0  0  0  0  0  0
  -23.4203  -28.8164   23.3002 O   0  0  0  0  0  0
  -28.3611  -26.5002   20.2108 O   0  0  0  0  0  0
  -26.5576  -34.8923   22.4671 O   0  0  0  0  0  0
  -23.5414  -32.1401   23.7386 O   0  0  0  0  0  0
  -30.9011  -17.8755   21.1922 C   0  0  0  0  0  0
  -30.9059  -19.2977   21.3198 C   0  0  0  0  0  0
  -28.7792  -19.4207   20.1749 C   0  0  0  0  0  0
  -29.8338  -20.1191   20.8380 C   0  0  0  0  0  0
  -28.8207  -17.9924   19.9911 C   0  0  0  0  0  0
  -29.8497  -17.1771   20.5593 C   0  0  0  0  0  0
  -28.9954  -24.0348   20.7631 C   0  0  0  0  0  0
  -28.8207  -23.4713   17.9243 C   0  0  0  0  0  0
  -28.7719  -24.9411   18.3590 C   0  0  0  0  0  0
  -29.7113  -22.6341   18.8638 C   0  0  0  0  0  0
  -28.2852  -25.0759   19.8075 C   0  0  2  0  0  0
  -32.0791  -19.9101   22.0664 C   0  0  0  0  0  0
  -27.5434  -20.1912   19.7079 C   0  0  0  0  0  0
  -27.7267  -17.3388   19.1590 C   0  0  0  0  0  0
  -29.7746  -21.6672   21.2131 C   0  0  0  0  0  0
  -29.3657  -22.7893   20.2850 N   0  0  0  0  0  0
  -29.7195  -15.7158   20.6146 N   0  0  0  0  0  0
  -29.1078  -24.3245   21.9593 O   0  0  0  0  0  0
  -31.4831  -12.5536   19.1351 H   0  0  0  0  0  0
  -30.4035  -11.4147   19.9009 H   0  0  0  0  0  0
  -29.7788  -11.7411   17.4835 H   0  0  0  0  0  0
  -29.6358  -13.4616   17.7339 H   0  0  0  0  0  0
  -27.8735  -11.2721   18.8800 H   0  0  0  0  0  0
  -27.3743  -12.5435   17.7966 H   0  0  0  0  0  0
  -27.6550  -14.2289   19.5028 H   0  0  0  0  0  0
  -28.7222  -12.0623   21.3785 H   0  0  0  0  0  0
  -28.4453  -13.7225   21.8296 H   0  0  0  0  0  0
  -25.2720   -9.5630   22.4787 H   0  0  0  0  0  0
  -23.9959   -7.4564   22.7452 H   0  0  0  0  0  0
  -21.0818   -8.8749   19.8942 H   0  0  0  0  0  0
  -22.3666  -10.9648   19.6189 H   0  0  0  0  0  0
  -21.1960   -7.6128   23.9730 H   0  0  0  0  0  0
  -21.1446   -6.0497   25.9093 H   0  0  0  0  0  0
  -22.0627   -2.7605   23.2847 H   0  0  0  0  0  0
  -22.3989  -11.9882   22.4831 H   0  0  0  0  0  0
  -21.1080  -13.1354   22.2631 H   0  0  0  0  0  0
  -24.6424  -15.8211   20.5047 H   0  0  0  0  0  0
  -26.2641  -15.6093   20.0795 H   0  0  0  0  0  0
  -26.7166  -32.5484   23.1140 H   0  0  0  0  0  0
  -25.0216  -33.9741   25.0548 H   0  0  0  0  0  0
  -22.7136  -31.3073   21.4023 H   0  0  0  0  0  0
  -23.3777  -35.9554   23.3293 H   0  0  0  0  0  0
  -24.3597  -36.8867   22.2063 H   0  0  0  0  0  0
  -23.7185  -37.6441   23.6648 H   0  0  0  0  0  0
  -26.0866  -31.5615   20.6055 H   0  0  0  0  0  0
  -26.8396  -30.8481   22.0014 H   0  0  0  0  0  0
  -28.1034  -28.9876   21.2146 H   0  0  0  0  0  0
  -25.9817  -25.9858   18.9237 H   0  0  0  0  0  0
  -23.9837  -27.3303   18.9822 H   0  0  0  0  0  0
  -23.7529  -30.5978   19.4018 H   0  0  0  0  0  0
  -22.7568  -29.2471   19.8592 H   0  0  0  0  0  0
  -25.1279  -36.1937   25.0845 H   0  0  0  0  0  0
  -21.0012  -28.3244   24.1387 H   0  0  0  0  0  0
  -20.5632  -26.2294   23.3602 H   0  0  0  0  0  0
  -21.6631  -26.7401   22.1218 H   0  0  0  0  0  0
  -19.6882  -25.6297   21.1233 H   0  0  0  0  0  0
  -19.6692  -27.3195   20.6726 H   0  0  0  0  0  0
  -17.4203  -26.6719   21.3994 H   0  0  0  0  0  0
  -18.0305  -26.0079   22.9003 H   0  0  0  0  0  0
  -19.7945  -30.7282   24.2236 H   0  0  0  0  0  0
  -17.5022  -31.6263   24.5162 H   0  0  0  0  0  0
  -15.5355  -30.2954   23.7681 H   0  0  0  0  0  0
  -15.8697  -28.0817   22.7040 H   0  0  0  0  0  0
  -24.6029  -30.6915   25.7835 H   0  0  0  0  0  0
  -24.8862  -32.2797   26.4861 H   0  0  0  0  0  0
  -25.8161  -30.8948   27.0259 H   0  0  0  0  0  0
  -26.2875  -29.6774   24.1204 H   0  0  0  0  0  0
  -27.4139  -29.7279   25.4581 H   0  0  0  0  0  0
  -27.8714  -30.4340   23.9262 H   0  0  0  0  0  0
  -27.2759  -33.3658   26.1976 H   0  0  0  0  0  0
  -28.3933  -32.6757   25.0294 H   0  0  0  0  0  0
  -28.0717  -31.8458   26.5438 H   0  0  0  0  0  0
  -28.2596  -38.0082   24.7554 H   0  0  0  0  0  0
  -28.1072  -36.2619   24.6262 H   0  0  0  0  0  0
  -27.2308  -37.1383   25.8885 H   0  0  0  0  0  0
  -20.9365  -29.8777   21.6894 H   0  0  0  0  0  0
  -26.0162  -38.2847   24.1472 H   0  0  0  0  0  0
  -31.7015  -17.3027   21.6388 H   0  0  0  0  0  0
  -29.1921  -23.4031   16.9018 H   0  0  0  0  0  0
  -27.8092  -23.0619   17.9125 H   0  0  0  0  0  0
  -28.1069  -25.4948   17.6965 H   0  0  0  0  0  0
  -29.7581  -25.3963   18.2597 H   0  0  0  0  0  0
  -30.7506  -22.9435   18.7470 H   0  0  0  0  0  0
  -29.6795  -21.5899   18.5597 H   0  0  0  0  0  0
  -27.2623  -24.7126   19.8672 H   0  0  0  0  0  0
  -32.8371  -19.1657   22.3128 H   0  0  0  0  0  0
  -31.7427  -20.3581   23.0020 H   0  0  0  0  0  0
  -32.5654  -20.6757   21.4616 H   0  0  0  0  0  0
  -27.3811  -21.1077   20.2712 H   0  0  0  0  0  0
  -26.6296  -19.6140   19.8431 H   0  0  0  0  0  0
  -27.6270  -20.4485   18.6524 H   0  0  0  0  0  0
  -27.5290  -17.9212   18.2581 H   0  0  0  0  0  0
  -26.8035  -17.2840   19.7309 H   0  0  0  0  0  0
  -27.9987  -16.3454   18.8099 H   0  0  0  0  0  0
  -30.7319  -21.9934   21.6127 H   0  0  0  0  0  0
  -29.0994  -21.7053   22.0700 H   0  0  0  0  0  0
  -28.7697  -15.3945   20.7153 H   0  0  0  0  0  0
  1 25  1  0  0  0
  1 30  2  0  0  0
  1 87  1  0  0  0
  2  3  1  0  0  0
  2 25  1  0  0  0
  2 89  1  0  0  0
  2 90  1  0  0  0
  3  4  1  0  0  0
  3 91  1  0  0  0
  3 92  1  0  0  0
  4  5  1  0  0  0
  4 93  1  0  0  0
  4 94  1  0  0  0
  5  6  1  0  0  0
  5 26  1  0  0  0
  5 95  1  0  0  0
  6 25  1  0  0  0
  6 96  1  0  0  0
  6 97  1  0  0  0
  7  8  2  0  0  0
  7 26  1  0  0  0
  7 29  1  0  0  0
  8  9  1  0  0  0
  8 22  1  0  0  0
  9 10  1  0  0  0
  9 27  2  0  0  0
 10 11  2  0  0  0
 10 15  1  0  0  0
 11 12  1  0  0  0
 11 98  1  0  0  0
 12 13  2  0  0  0
 12 99  1  0  0  0
 13 14  1  0  0  0
 13 31  1  0  0  0
 14 15  2  0  0  0
 14100  1  0  0  0
 15101  1  0  0  0
 16 17  2  0  0  0
 16 21  1  0  0  0
 16 31  1  0  0  0
 17 18  1  0  0  0
 17102  1  0  0  0
 18 19  2  0  0  0
 18103  1  0  0  0
 19 20  1  0  0  0
 19 24  1  0  0  0
 20 21  2  0  0  0
 20104  1  0  0  0
 21 23  1  0  0  0
 22 28  1  0  0  0
 22 32  2  0  0  0
 26 27  1  0  0  0
 28105  1  0  0  0
 28106  1  0  0  0
 29107  1  0  0  0
 29108  1  0  0  0
 33 34  1  0  0  0
 33 66  1  0  0  0
 33 70  2  0  0  0
 34 36  1  0  0  0
 34 59  1  0  0  0
 34109  1  0  0  0
 35 44  2  0  0  0
 35 45  1  0  0  0
 35 68  1  0  0  0
 36 56  1  0  0  0
 36110  1  0  0  0
 37 39  1  0  0  0
 37 47  1  0  0  0
 37 66  1  0  0  0
 37111  1  0  0  0
 38 43  2  0  0  0
 38 46  1  0  0  0
 38 47  1  0  0  0
 39 64  1  0  0  0
 39 67  2  0  0  0
 40 52  1  0  0  0
 40 53  2  0  0  0
 40 58  1  0  0  0
 41112  1  0  0  0
 41113  1  0  0  0
 41114  1  0  0  0
 41 48  1  0  0  0
 42 43  1  0  0  0
 42 66  1  0  0  0
 42115  1  0  0  0
 42116  1  0  0  0
 43 44  1  0  0  0
 44117  1  0  0  0
 45 46  2  0  0  0
 45118  1  0  0  0
 46119  1  0  0  0
 47120  1  0  0  0
 47121  1  0  0  0
 48 56  1  0  0  0
 48 65  1  0  0  0
 48122  1  0  0  0
 49 50  1  0  0  0
 49 53  1  0  0  0
 49 64  1  0  0  0
 49123  1  0  0  0
 50 51  1  0  0  0
 50124  1  0  0  0
 50125  1  0  0  0
 51 52  1  0  0  0
 51126  1  0  0  0
 51127  1  0  0  0
 52128  1  0  0  0
 52129  1  0  0  0
 53 54  1  0  0  0
 54 55  2  0  0  0
 54130  1  0  0  0
 55 57  1  0  0  0
 55131  1  0  0  0
 56 69  2  0  0  0
 57 58  2  0  0  0
 57132  1  0  0  0
 58133  1  0  0  0
 59 60  1  0  0  0
 59 61  1  0  0  0
 59 62  1  0  0  0
 60134  1  0  0  0
 60135  1  0  0  0
 60136  1  0  0  0
 61137  1  0  0  0
 61138  1  0  0  0
 61139  1  0  0  0
 62140  1  0  0  0
 62141  1  0  0  0
 62142  1  0  0  0
 63 65  1  0  0  0
 63143  1  0  0  0
 63144  1  0  0  0
 63145  1  0  0  0
 64146  1  0  0  0
 65147  1  0  0  0
 68 81  1  0  0  0
 71 72  2  0  0  0
 71 76  1  0  0  0
 71148  1  0  0  0
 72 74  1  0  0  0
 72 82  1  0  0  0
 73 74  2  0  0  0
 73 75  1  0  0  0
 73 83  1  0  0  0
 74 85  1  0  0  0
 75 76  2  0  0  0
 75 84  1  0  0  0
 76 87  1  0  0  0
 77 81  1  0  0  0
 77 86  1  0  0  0
 77 88  2  0  0  0
 78 79  1  0  0  0
 78 80  1  0  0  0
 78149  1  0  0  0
 78150  1  0  0  0
 79 81  1  0  0  0
 79151  1  0  0  0
 79152  1  0  0  0
 80 86  1  0  0  0
 80153  1  0  0  0
 80154  1  0  0  0
 81155  1  0  0  0
 82156  1  0  0  0
 82157  1  0  0  0
 82158  1  0  0  0
 83159  1  0  0  0
 83160  1  0  0  0
 83161  1  0  0  0
 84162  1  0  0  0
 84163  1  0  0  0
 84164  1  0  0  0
 85 86  1  0  0  0
 85165  1  0  0  0
 85166  1  0  0  0
 87167  1  0  0  0
M  ISO  4   1 100  68 101  81 101  87 100
M  END
> <chiral flag>
0

> <version>
0

> <s_m_source_file>
/data/baiqing/PycharmProjects/Reinvent-master-3.2/result/LINK_invent/BTK/process_docking_weight1_custom_product_contain_oxygen_bond_distance_aromatic_linkinvent_7_9_3/rearranged_h_0042.sdf

> <i_m_source_file_index>
71

> <r_mmod_Potential_Energy-OPLS-2005>
135.956909179688

> <r_mmod_Stretch_Energy-OPLS-2005>
90.2250442504883

> <r_mmod_Bend_Energy-OPLS-2005>
154.498794555664

> <r_mmod_Torsional_Energy-OPLS-2005>
256.105163574219

> <r_mmod_Improper_Torsional_Energy-OPLS-2005>
9.34188270568848

> <r_mmod_Van_der_Waal_Energy-OPLS-2005>
163.160049438477

> <r_mmod_Electrostatic_Energy-OPLS-2005>
-362.177581787109

> <r_mmod_Solvation_Energy-OPLS-2005>
-230.085876464844

> <b_mmod_Minimization_Converged-OPLS-2005>
0

> <r_mmod_RMS_Derivative-OPLS-2005>
2.12043070793152

$$$$
71
                    3D
 Structure written by MMmdl.
162170  0  0  1  0            999 V2000
  -30.7818  -14.4250   20.6158 C   0  0  0  0  0  0
  -30.4114  -12.2948   19.4329 C   0  0  0  0  0  0
  -29.4997  -12.4957   18.2098 C   0  0  0  0  0  0
  -28.0193  -12.3636   18.6158 C   0  0  0  0  0  0
  -27.6638  -13.2128   19.8674 C   0  0  2  0  0  0
  -28.7028  -13.0249   20.9986 C   0  0  0  0  0  0
  -25.2609  -13.8177   20.5667 C   0  0  0  0  0  0
  -24.1862  -13.0450   20.9188 C   0  0  0  0  0  0
  -24.6409  -11.6918   20.8707 C   0  0  0  0  0  0
  -23.9067  -10.4307   21.0408 C   0  0  0  0  0  0
  -24.3622   -9.4224   21.9186 C   0  0  0  0  0  0
  -23.6303   -8.2265   22.0768 C   0  0  0  0  0  0
  -22.4272   -8.0297   21.3567 C   0  0  0  0  0  0
  -21.9903   -9.0274   20.4663 C   0  0  0  0  0  0
  -22.7238  -10.2144   20.3062 C   0  0  0  0  0  0
  -21.6856   -6.0743   22.5293 C   0  0  0  0  0  0
  -21.4022   -6.5637   23.8227 C   0  0  0  0  0  0
  -21.3665   -5.6781   24.9188 C   0  0  0  0  0  0
  -21.6042   -4.3046   24.7222 C   0  0  0  0  0  0
  -21.8826   -3.8149   23.4343 C   0  0  0  0  0  0
  -21.9197   -4.6977   22.3405 C   0  0  0  0  0  0
  -22.7871  -13.5245   21.1823 C   0  0  0  0  0  0
  -22.1659   -4.2151   21.0989 F   0  0  0  0  0  0
  -21.5636   -3.4533   25.7743 F   0  0  0  0  0  0
  -30.0423  -13.2933   20.4513 N   0  0  0  0  0  0
  -26.3048  -12.9355   20.3312 N   0  0  0  0  0  0
  -25.9332  -11.6510   20.5730 N   0  0  0  0  0  0
  -22.0474  -12.8291   22.0394 N   0  0  0  0  0  0
  -25.4283  -15.1909   20.4103 N   0  0  0  0  0  0
  -31.8588  -14.5883   20.0368 O   0  0  0  0  0  0
  -21.6640   -6.8889   21.4252 O   0  0  0  0  0  0
  -22.3572  -14.5524   20.6611 O   0  0  0  0  0  0
  -24.6146  -31.8692   23.2101 C   0  0  0  0  0  0
  -25.9047  -32.4829   23.8395 C   0  0  1  0  0  0
  -27.2277  -27.4366   20.1151 C   0  0  0  0  0  0
  -25.5883  -33.8633   24.2329 N   0  0  0  0  0  0
  -23.4039  -30.4918   21.5489 C   0  0  2  0  0  0
  -24.8521  -28.9592   20.1137 C   0  0  0  0  0  0
  -22.7415  -29.4672   22.4974 C   0  0  0  0  0  0
  -18.0282  -28.1402   22.8499 C   0  0  0  0  0  0
  -24.1478  -36.7319   23.2644 C   0  0  0  0  0  0
  -25.9311  -30.8368   21.3630 C   0  0  0  0  0  0
  -26.0114  -29.4722   20.7134 C   0  0  0  0  0  0
  -27.2060  -28.7172   20.7116 C   0  0  0  0  0  0
  -26.0593  -26.9403   19.5044 C   0  0  0  0  0  0
  -24.8712  -27.6931   19.5011 C   0  0  0  0  0  0
  -23.6141  -29.8240   20.1639 C   0  0  0  0  0  0
  -25.4104  -36.3120   24.0340 C   0  0  1  0  0  0
  -20.5875  -28.3689   23.1313 C   0  0  2  0  0  0
  -20.6779  -26.9425   22.5427 C   0  0  0  0  0  0
  -19.5750  -26.6408   21.5225 C   0  0  0  0  0  0
  -18.1925  -26.7956   22.1629 C   0  0  0  0  0  0
  -19.1536  -28.8868   23.2905 C   0  0  0  0  0  0
  -18.9461  -30.1470   23.8911 C   0  0  0  0  0  0
  -17.6463  -30.6606   24.0577 C   0  0  0  0  0  0
  -25.9029  -34.9481   23.5134 C   0  0  0  0  0  0
  -16.5349  -29.9103   23.6339 C   0  0  0  0  0  0
  -16.7274  -28.6527   23.0348 C   0  0  0  0  0  0
  -26.4480  -31.6601   25.0718 C   0  0  0  0  0  0
  -25.3759  -31.3726   26.1477 C   0  0  0  0  0  0
  -27.0306  -30.3029   24.6111 C   0  0  0  0  0  0
  -27.6063  -32.4341   25.7452 C   0  0  0  0  0  0
  -27.5585  -37.1809   24.8462 C   0  0  0  0  0  0
  -21.4146  -29.3034   22.3698 N   0  0  0  0  0  0
  -26.4292  -37.3800   23.9418 N   0  0  0  0  0  0
  -24.6682  -31.0810   22.0988 N   0  0  0  0  0  0
  -23.4178  -28.8231   23.3047 O   0  0  0  0  0  0
  -28.3564  -26.6525   20.1415 O   0  0  0  0  0  0
  -26.5599  -34.8933   22.4700 O   0  0  0  0  0  0
  -23.5336  -32.1433   23.7484 O   0  0  0  0  0  0
  -30.5045  -20.2138   22.9002 C   0  0  0  0  0  0
  -28.9669  -17.9162   22.4093 C   0  0  0  0  0  0
  -31.1327  -19.0241   22.4846 C   0  0  0  0  0  0
  -29.1048  -20.2903   23.0345 C   0  0  0  0  0  0
  -30.3657  -17.8615   22.2146 C   0  0  0  0  0  0
  -28.3386  -19.1159   22.8138 C   0  0  0  0  0  0
  -32.6412  -19.0371   22.3025 C   0  0  0  0  0  0
  -31.0716  -16.6174   21.6677 C   0  0  0  0  0  0
  -28.4704  -21.6317   23.4199 C   0  0  0  0  0  0
  -29.1909  -24.3916   20.7321 C   0  0  0  0  0  0
  -29.4494  -23.3687   21.8744 C   0  0  0  0  0  0
  -28.2700  -25.5776   21.0930 C   0  0  0  0  0  0
  -30.2971  -15.3904   21.4162 N   0  0  0  0  0  0
  -28.2686  -22.5563   22.2735 N   0  3  0  0  0  0
  -26.6223  -19.1127   23.0044 Cl  0  0  0  0  0  0
  -31.4604  -12.3561   19.1309 H   0  0  0  0  0  0
  -30.2877  -11.2906   19.8438 H   0  0  0  0  0  0
  -29.7472  -11.7643   17.4386 H   0  0  0  0  0  0
  -29.6824  -13.4778   17.7725 H   0  0  0  0  0  0
  -27.8304  -11.3090   18.8181 H   0  0  0  0  0  0
  -27.3755  -12.6307   17.7776 H   0  0  0  0  0  0
  -27.7015  -14.2567   19.5542 H   0  0  0  0  0  0
  -28.6697  -12.0021   21.3782 H   0  0  0  0  0  0
  -28.4581  -13.6657   21.8448 H   0  0  0  0  0  0
  -25.2780   -9.5702   22.4733 H   0  0  0  0  0  0
  -24.0022   -7.4651   22.7473 H   0  0  0  0  0  0
  -21.0839   -8.8788   19.8965 H   0  0  0  0  0  0
  -22.3710  -10.9678   19.6156 H   0  0  0  0  0  0
  -21.1997   -7.6133   23.9737 H   0  0  0  0  0  0
  -21.1485   -6.0502   25.9090 H   0  0  0  0  0  0
  -22.0590   -2.7610   23.2842 H   0  0  0  0  0  0
  -22.4066  -11.9990   22.4875 H   0  0  0  0  0  0
  -21.1083  -13.1364   22.2509 H   0  0  0  0  0  0
  -24.6517  -15.8348   20.5246 H   0  0  0  0  0  0
  -26.2722  -15.6426   20.0782 H   0  0  0  0  0  0
  -26.7120  -32.5565   23.1164 H   0  0  0  0  0  0
  -25.0023  -33.9778   25.0461 H   0  0  0  0  0  0
  -22.6943  -31.3096   21.4090 H   0  0  0  0  0  0
  -23.3732  -35.9655   23.3318 H   0  0  0  0  0  0
  -24.3562  -36.8925   22.2053 H   0  0  0  0  0  0
  -23.7235  -37.6532   23.6649 H   0  0  0  0  0  0
  -26.0458  -31.6009   20.5940 H   0  0  0  0  0  0
  -26.8181  -30.8904   21.9824 H   0  0  0  0  0  0
  -28.1003  -29.1001   21.1846 H   0  0  0  0  0  0
  -26.0709  -25.9625   19.0444 H   0  0  0  0  0  0
  -23.9833  -27.2919   19.0325 H   0  0  0  0  0  0
  -23.7185  -30.5980   19.4014 H   0  0  0  0  0  0
  -22.7393  -29.2382   19.8725 H   0  0  0  0  0  0
  -25.1282  -36.1981   25.0832 H   0  0  0  0  0  0
  -20.9978  -28.3264   24.1424 H   0  0  0  0  0  0
  -20.5711  -26.2290   23.3612 H   0  0  0  0  0  0
  -21.6644  -26.7484   22.1198 H   0  0  0  0  0  0
  -19.6910  -25.6319   21.1249 H   0  0  0  0  0  0
  -19.6699  -27.3224   20.6756 H   0  0  0  0  0  0
  -17.4211  -26.6727   21.4009 H   0  0  0  0  0  0
  -18.0301  -26.0091   22.9014 H   0  0  0  0  0  0
  -19.7939  -30.7288   24.2266 H   0  0  0  0  0  0
  -17.5022  -31.6275   24.5195 H   0  0  0  0  0  0
  -15.5357  -30.3006   23.7669 H   0  0  0  0  0  0
  -15.8672  -28.0854   22.7039 H   0  0  0  0  0  0
  -24.5899  -30.7109   25.7817 H   0  0  0  0  0  0
  -24.8979  -32.2891   26.4947 H   0  0  0  0  0  0
  -25.8103  -30.8871   27.0219 H   0  0  0  0  0  0
  -26.2825  -29.6776   24.1217 H   0  0  0  0  0  0
  -27.4109  -29.7307   25.4585 H   0  0  0  0  0  0
  -27.8649  -30.4321   23.9215 H   0  0  0  0  0  0
  -27.2675  -33.3621   26.2087 H   0  0  0  0  0  0
  -28.3808  -32.6965   25.0228 H   0  0  0  0  0  0
  -28.0818  -31.8457   26.5314 H   0  0  0  0  0  0
  -28.2609  -38.0101   24.7514 H   0  0  0  0  0  0
  -28.1081  -36.2636   24.6279 H   0  0  0  0  0  0
  -27.2315  -37.1464   25.8869 H   0  0  0  0  0  0
  -20.9313  -29.8693   21.6859 H   0  0  0  0  0  0
  -26.0188  -38.2881   24.1418 H   0  0  0  0  0  0
  -31.1090  -21.0878   23.0985 H   0  0  0  0  0  0
  -28.3556  -17.0467   22.2241 H   0  0  0  0  0  0
  -33.0679  -20.0161   22.5233 H   0  0  0  0  0  0
  -32.9002  -18.7971   21.2698 H   0  0  0  0  0  0
  -33.1150  -18.3104   22.9626 H   0  0  0  0  0  0
  -31.9102  -16.3646   22.3183 H   0  0  0  0  0  0
  -31.5042  -16.9454   20.7191 H   0  0  0  0  0  0
  -29.0657  -22.1166   24.1949 H   0  0  0  0  0  0
  -27.5000  -21.4573   23.8804 H   0  0  0  0  0  0
  -28.8151  -23.8789   19.8450 H   0  0  0  0  0  0
  -30.1587  -24.8049   20.4441 H   0  0  0  0  0  0
  -29.8478  -23.8919   22.7446 H   0  0  0  0  0  0
  -30.2352  -22.6895   21.5426 H   0  0  0  0  0  0
  -28.5329  -25.9760   22.0735 H   0  0  0  0  0  0
  -27.2481  -25.2017   21.1771 H   0  0  0  0  0  0
  -29.4129  -15.2520   21.8793 H   0  0  0  0  0  0
  -27.5314  -23.1830   22.5537 H   0  0  0  0  0  0
  -27.9299  -22.0195   21.4917 H   0  0  0  0  0  0
  1 25  1  0  0  0
  1 30  2  0  0  0
  1 83  1  0  0  0
  2  3  1  0  0  0
  2 25  1  0  0  0
  2 86  1  0  0  0
  2 87  1  0  0  0
  3  4  1  0  0  0
  3 88  1  0  0  0
  3 89  1  0  0  0
  4  5  1  0  0  0
  4 90  1  0  0  0
  4 91  1  0  0  0
  5  6  1  0  0  0
  5 26  1  0  0  0
  5 92  1  0  0  0
  6 25  1  0  0  0
  6 93  1  0  0  0
  6 94  1  0  0  0
  7  8  2  0  0  0
  7 26  1  0  0  0
  7 29  1  0  0  0
  8  9  1  0  0  0
  8 22  1  0  0  0
  9 10  1  0  0  0
  9 27  2  0  0  0
 10 11  2  0  0  0
 10 15  1  0  0  0
 11 12  1  0  0  0
 11 95  1  0  0  0
 12 13  2  0  0  0
 12 96  1  0  0  0
 13 14  1  0  0  0
 13 31  1  0  0  0
 14 15  2  0  0  0
 14 97  1  0  0  0
 15 98  1  0  0  0
 16 17  2  0  0  0
 16 21  1  0  0  0
 16 31  1  0  0  0
 17 18  1  0  0  0
 17 99  1  0  0  0
 18 19  2  0  0  0
 18100  1  0  0  0
 19 20  1  0  0  0
 19 24  1  0  0  0
 20 21  2  0  0  0
 20101  1  0  0  0
 21 23  1  0  0  0
 22 28  1  0  0  0
 22 32  2  0  0  0
 26 27  1  0  0  0
 28102  1  0  0  0
 28103  1  0  0  0
 29104  1  0  0  0
 29105  1  0  0  0
 33 34  1  0  0  0
 33 66  1  0  0  0
 33 70  2  0  0  0
 34 36  1  0  0  0
 34 59  1  0  0  0
 34106  1  0  0  0
 35 44  2  0  0  0
 35 45  1  0  0  0
 35 68  1  0  0  0
 36 56  1  0  0  0
 36107  1  0  0  0
 37 39  1  0  0  0
 37 47  1  0  0  0
 37 66  1  0  0  0
 37108  1  0  0  0
 38 43  2  0  0  0
 38 46  1  0  0  0
 38 47  1  0  0  0
 39 64  1  0  0  0
 39 67  2  0  0  0
 40 52  1  0  0  0
 40 53  2  0  0  0
 40 58  1  0  0  0
 41109  1  0  0  0
 41110  1  0  0  0
 41111  1  0  0  0
 41 48  1  0  0  0
 42 43  1  0  0  0
 42 66  1  0  0  0
 42112  1  0  0  0
 42113  1  0  0  0
 43 44  1  0  0  0
 44114  1  0  0  0
 45 46  2  0  0  0
 45115  1  0  0  0
 46116  1  0  0  0
 47117  1  0  0  0
 47118  1  0  0  0
 48 56  1  0  0  0
 48 65  1  0  0  0
 48119  1  0  0  0
 49 50  1  0  0  0
 49 53  1  0  0  0
 49 64  1  0  0  0
 49120  1  0  0  0
 50 51  1  0  0  0
 50121  1  0  0  0
 50122  1  0  0  0
 51 52  1  0  0  0
 51123  1  0  0  0
 51124  1  0  0  0
 52125  1  0  0  0
 52126  1  0  0  0
 53 54  1  0  0  0
 54 55  2  0  0  0
 54127  1  0  0  0
 55 57  1  0  0  0
 55128  1  0  0  0
 56 69  2  0  0  0
 57 58  2  0  0  0
 57129  1  0  0  0
 58130  1  0  0  0
 59 60  1  0  0  0
 59 61  1  0  0  0
 59 62  1  0  0  0
 60131  1  0  0  0
 60132  1  0  0  0
 60133  1  0  0  0
 61134  1  0  0  0
 61135  1  0  0  0
 61136  1  0  0  0
 62137  1  0  0  0
 62138  1  0  0  0
 62139  1  0  0  0
 63 65  1  0  0  0
 63140  1  0  0  0
 63141  1  0  0  0
 63142  1  0  0  0
 64143  1  0  0  0
 65144  1  0  0  0
 68 82  1  0  0  0
 71 73  2  0  0  0
 71 74  1  0  0  0
 71145  1  0  0  0
 72 75  2  0  0  0
 72 76  1  0  0  0
 72146  1  0  0  0
 73 75  1  0  0  0
 73 77  1  0  0  0
 74 76  2  0  0  0
 74 79  1  0  0  0
 75 78  1  0  0  0
 76 85  1  0  0  0
 77147  1  0  0  0
 77148  1  0  0  0
 77149  1  0  0  0
 78 83  1  0  0  0
 78150  1  0  0  0
 78151  1  0  0  0
 79 84  1  0  0  0
 79152  1  0  0  0
 79153  1  0  0  0
 80 81  1  0  0  0
 80 82  1  0  0  0
 80154  1  0  0  0
 80155  1  0  0  0
 81 84  1  0  0  0
 81156  1  0  0  0
 81157  1  0  0  0
 82158  1  0  0  0
 82159  1  0  0  0
 83160  1  0  0  0
 84161  1  0  0  0
 84162  1  0  0  0
M  CHG  1  84   1
M  ISO  4   1 100  68 101  82 101  83 100
M  END
> <chiral flag>
0

> <version>
0

> <s_m_source_file>
/data/baiqing/PycharmProjects/Reinvent-master-3.2/result/LINK_invent/BTK/process_docking_weight1_custom_product_contain_oxygen_bond_distance_aromatic_linkinvent_7_9_3/rearranged_h_0042.sdf

> <i_m_source_file_index>
72

> <r_mmod_Potential_Energy-OPLS-2005>
-309.650207519531

> <r_mmod_Stretch_Energy-OPLS-2005>
37.2555351257324

> <r_mmod_Bend_Energy-OPLS-2005>
100.28849029541

> <r_mmod_Torsional_Energy-OPLS-2005>
217.993179321289

> <r_mmod_Improper_Torsional_Energy-OPLS-2005>
1.90535485744476

> <r_mmod_Van_der_Waal_Energy-OPLS-2005>
152.392166137695

> <r_mmod_Electrostatic_Energy-OPLS-2005>
-366.816772460938

> <r_mmod_Solvation_Energy-OPLS-2005>
-466.057922363281

> <b_mmod_Minimization_Converged-OPLS-2005>
0

> <r_mmod_RMS_Derivative-OPLS-2005>
3.87290072441101

$$$$
72
                    3D
 Structure written by MMmdl.
168176  0  0  1  0            999 V2000
  -30.7653  -14.4499   20.6413 C   0  0  0  0  0  0
  -30.4269  -12.3272   19.4189 C   0  0  0  0  0  0
  -29.4949  -12.5125   18.2053 C   0  0  0  0  0  0
  -28.0187  -12.3754   18.6221 C   0  0  0  0  0  0
  -27.6666  -13.2169   19.8767 C   0  0  2  0  0  0
  -28.7111  -13.0076   20.9985 C   0  0  0  0  0  0
  -25.2547  -13.8176   20.5521 C   0  0  0  0  0  0
  -24.1859  -13.0454   20.9161 C   0  0  0  0  0  0
  -24.6450  -11.6926   20.8768 C   0  0  0  0  0  0
  -23.9108  -10.4320   21.0429 C   0  0  0  0  0  0
  -24.3641   -9.4231   21.9208 C   0  0  0  0  0  0
  -23.6313   -8.2264   22.0771 C   0  0  0  0  0  0
  -22.4300   -8.0309   21.3546 C   0  0  0  0  0  0
  -21.9945   -9.0288   20.4650 C   0  0  0  0  0  0
  -22.7281  -10.2163   20.3070 C   0  0  0  0  0  0
  -21.6868   -6.0760   22.5274 C   0  0  0  0  0  0
  -21.4030   -6.5658   23.8211 C   0  0  0  0  0  0
  -21.3654   -5.6803   24.9167 C   0  0  0  0  0  0
  -21.6039   -4.3065   24.7217 C   0  0  0  0  0  0
  -21.8822   -3.8164   23.4334 C   0  0  0  0  0  0
  -21.9202   -4.6986   22.3396 C   0  0  0  0  0  0
  -22.7872  -13.5225   21.1816 C   0  0  0  0  0  0
  -22.1671   -4.2177   21.0972 F   0  0  0  0  0  0
  -21.5614   -3.4545   25.7724 F   0  0  0  0  0  0
  -30.0468  -13.3076   20.4494 N   0  0  0  0  0  0
  -26.3060  -12.9390   20.3375 N   0  0  0  0  0  0
  -25.9386  -11.6546   20.5829 N   0  0  0  0  0  0
  -22.0521  -12.8223   22.0376 N   0  0  0  0  0  0
  -25.4108  -15.1869   20.3563 N   0  0  0  0  0  0
  -31.8396  -14.6637   20.0755 O   0  0  0  0  0  0
  -21.6650   -6.8910   21.4237 O   0  0  0  0  0  0
  -22.3547  -14.5525   20.6662 O   0  0  0  0  0  0
  -24.6130  -31.8679   23.2110 C   0  0  0  0  0  0
  -25.9023  -32.4827   23.8411 C   0  0  1  0  0  0
  -27.2506  -27.4285   20.0826 C   0  0  0  0  0  0
  -25.5903  -33.8622   24.2350 N   0  0  0  0  0  0
  -23.4049  -30.4893   21.5501 C   0  0  2  0  0  0
  -24.8535  -28.9541   20.1171 C   0  0  0  0  0  0
  -22.7422  -29.4647   22.4980 C   0  0  0  0  0  0
  -18.0290  -28.1351   22.8478 C   0  0  0  0  0  0
  -24.1480  -36.7318   23.2630 C   0  0  0  0  0  0
  -25.9351  -30.8263   21.3699 C   0  0  0  0  0  0
  -26.0132  -29.4591   20.7175 C   0  0  0  0  0  0
  -27.2080  -28.7011   20.7036 C   0  0  0  0  0  0
  -26.0638  -26.9432   19.4786 C   0  0  0  0  0  0
  -24.8754  -27.6951   19.4972 C   0  0  0  0  0  0
  -23.6158  -29.8222   20.1649 C   0  0  0  0  0  0
  -25.4111  -36.3121   24.0329 C   0  0  1  0  0  0
  -20.5881  -28.3633   23.1308 C   0  0  2  0  0  0
  -20.6769  -26.9368   22.5407 C   0  0  0  0  0  0
  -19.5755  -26.6351   21.5186 C   0  0  0  0  0  0
  -18.1923  -26.7885   22.1591 C   0  0  0  0  0  0
  -19.1540  -28.8801   23.2880 C   0  0  0  0  0  0
  -18.9484  -30.1410   23.8868 C   0  0  0  0  0  0
  -17.6480  -30.6547   24.0557 C   0  0  0  0  0  0
  -25.9019  -34.9478   23.5130 C   0  0  0  0  0  0
  -16.5371  -29.9062   23.6314 C   0  0  0  0  0  0
  -16.7272  -28.6493   23.0304 C   0  0  0  0  0  0
  -26.4450  -31.6595   25.0734 C   0  0  0  0  0  0
  -25.3742  -31.3712   26.1514 C   0  0  0  0  0  0
  -27.0274  -30.3030   24.6094 C   0  0  0  0  0  0
  -27.6022  -32.4332   25.7486 C   0  0  0  0  0  0
  -27.5571  -37.1819   24.8468 C   0  0  0  0  0  0
  -21.4139  -29.3021   22.3735 N   0  0  0  0  0  0
  -26.4301  -37.3803   23.9393 N   0  0  0  0  0  0
  -24.6683  -31.0777   22.1018 N   0  0  0  0  0  0
  -23.4190  -28.8171   23.3004 O   0  0  0  0  0  0
  -28.4386  -26.7079   20.0874 O   0  0  0  0  0  0
  -26.5571  -34.8909   22.4684 O   0  0  0  0  0  0
  -23.5329  -32.1444   23.7509 O   0  0  0  0  0  0
  -27.6614  -18.9123   22.3436 C   0  0  0  0  0  0
  -30.3891  -19.1676   21.7995 C   0  0  0  0  0  0
  -28.4660  -17.7556   22.2973 C   0  0  0  0  0  0
  -28.2044  -20.1961   22.1430 C   0  0  0  0  0  0
  -29.8473  -17.8651   21.9718 C   0  0  0  0  0  0
  -29.5916  -20.3385   21.8961 C   0  0  0  0  0  0
  -27.7960  -16.4372   22.6435 C   0  0  0  0  0  0
  -27.2739  -21.3970   22.2226 C   0  0  0  0  0  0
  -30.1364  -23.9996   18.0746 C   0  0  0  0  0  0
  -30.8070  -16.6587   21.8636 C   0  0  0  0  0  0
  -30.2412  -21.7304   21.8178 C   0  0  0  0  0  0
  -30.2220  -23.9485   20.6594 C   0  0  0  0  0  0
  -28.4899  -25.4643   19.3664 C   0  0  0  0  0  0
  -29.8896  -24.7839   19.3802 C   0  0  2  0  0  0
  -30.2254  -15.3644   21.4650 N   0  0  0  0  0  0
  -29.8898  -22.4933   20.5933 N   0  3  0  0  0  0
  -31.4689  -12.4287   19.1076 H   0  0  0  0  0  0
  -30.3369  -11.3173   19.8220 H   0  0  0  0  0  0
  -29.7316  -11.7742   17.4375 H   0  0  0  0  0  0
  -29.6642  -13.4905   17.7507 H   0  0  0  0  0  0
  -27.8295  -11.3198   18.8211 H   0  0  0  0  0  0
  -27.3674  -12.6500   17.7923 H   0  0  0  0  0  0
  -27.7075  -14.2650   19.5775 H   0  0  0  0  0  0
  -28.6909  -11.9759   21.3507 H   0  0  0  0  0  0
  -28.4628  -13.6114   21.8707 H   0  0  0  0  0  0
  -25.2788   -9.5703   22.4794 H   0  0  0  0  0  0
  -24.0021   -7.4657   22.7499 H   0  0  0  0  0  0
  -21.0883   -8.8822   19.8945 H   0  0  0  0  0  0
  -22.3760  -10.9712   19.6181 H   0  0  0  0  0  0
  -21.2040   -7.6169   23.9724 H   0  0  0  0  0  0
  -21.1458   -6.0531   25.9071 H   0  0  0  0  0  0
  -22.0604   -2.7629   23.2822 H   0  0  0  0  0  0
  -22.4132  -11.9872   22.4752 H   0  0  0  0  0  0
  -21.1137  -13.1248   22.2569 H   0  0  0  0  0  0
  -24.6072  -15.8067   20.3609 H   0  0  0  0  0  0
  -26.2127  -15.5920   19.8906 H   0  0  0  0  0  0
  -26.7097  -32.5513   23.1164 H   0  0  0  0  0  0
  -25.0115  -33.9796   25.0538 H   0  0  0  0  0  0
  -22.6935  -31.3038   21.4075 H   0  0  0  0  0  0
  -23.3726  -35.9665   23.3341 H   0  0  0  0  0  0
  -24.3541  -36.8901   22.2038 H   0  0  0  0  0  0
  -23.7265  -37.6546   23.6619 H   0  0  0  0  0  0
  -26.0512  -31.5900   20.5991 H   0  0  0  0  0  0
  -26.8212  -30.8818   21.9892 H   0  0  0  0  0  0
  -28.1051  -29.0934   21.1676 H   0  0  0  0  0  0
  -26.0283  -25.9862   18.9797 H   0  0  0  0  0  0
  -23.9900  -27.2968   19.0196 H   0  0  0  0  0  0
  -23.7270  -30.5983   19.4050 H   0  0  0  0  0  0
  -22.7387  -29.2424   19.8696 H   0  0  0  0  0  0
  -25.1282  -36.1999   25.0828 H   0  0  0  0  0  0
  -20.9946  -28.3218   24.1443 H   0  0  0  0  0  0
  -20.5644  -26.2246   23.3614 H   0  0  0  0  0  0
  -21.6649  -26.7401   22.1221 H   0  0  0  0  0  0
  -19.6917  -25.6260   21.1218 H   0  0  0  0  0  0
  -19.6698  -27.3158   20.6718 H   0  0  0  0  0  0
  -17.4202  -26.6622   21.3987 H   0  0  0  0  0  0
  -18.0344  -26.0013   22.8976 H   0  0  0  0  0  0
  -19.7975  -30.7232   24.2203 H   0  0  0  0  0  0
  -17.5061  -31.6218   24.5172 H   0  0  0  0  0  0
  -15.5375  -30.2961   23.7643 H   0  0  0  0  0  0
  -15.8673  -28.0821   22.6985 H   0  0  0  0  0  0
  -24.5939  -30.6975   25.7958 H   0  0  0  0  0  0
  -24.8855  -32.2857   26.4906 H   0  0  0  0  0  0
  -25.8137  -30.9014   27.0311 H   0  0  0  0  0  0
  -26.2817  -29.6826   24.1105 H   0  0  0  0  0  0
  -27.4019  -29.7242   25.4536 H   0  0  0  0  0  0
  -27.8655  -30.4358   23.9248 H   0  0  0  0  0  0
  -27.2621  -33.3659   26.2000 H   0  0  0  0  0  0
  -28.3852  -32.6854   25.0329 H   0  0  0  0  0  0
  -28.0628  -31.8489   26.5464 H   0  0  0  0  0  0
  -28.2619  -38.0081   24.7487 H   0  0  0  0  0  0
  -28.1031  -36.2606   24.6344 H   0  0  0  0  0  0
  -27.2269  -37.1584   25.8867 H   0  0  0  0  0  0
  -20.9304  -29.8799   21.7001 H   0  0  0  0  0  0
  -26.0189  -38.2870   24.1399 H   0  0  0  0  0  0
  -26.6074  -18.8144   22.5629 H   0  0  0  0  0  0
  -31.4524  -19.2708   21.6210 H   0  0  0  0  0  0
  -26.8087  -16.5863   23.0834 H   0  0  0  0  0  0
  -28.3876  -15.8775   23.3683 H   0  0  0  0  0  0
  -27.6601  -15.8440   21.7431 H   0  0  0  0  0  0
  -26.2704  -21.1043   22.5339 H   0  0  0  0  0  0
  -27.1809  -21.8701   21.2449 H   0  0  0  0  0  0
  -27.6283  -22.1362   22.9413 H   0  0  0  0  0  0
  -31.1053  -23.4976   18.0788 H   0  0  0  0  0  0
  -30.1254  -24.6729   17.2165 H   0  0  0  0  0  0
  -29.3595  -23.2555   17.8984 H   0  0  0  0  0  0
  -31.2872  -16.5272   22.8332 H   0  0  0  0  0  0
  -31.6100  -16.9292   21.1765 H   0  0  0  0  0  0
  -31.3261  -21.6388   21.8909 H   0  0  0  0  0  0
  -29.9423  -22.2991   22.6998 H   0  0  0  0  0  0
  -29.7340  -24.3992   21.5228 H   0  0  0  0  0  0
  -31.2941  -24.0269   20.8508 H   0  0  0  0  0  0
  -27.7433  -24.7621   19.7424 H   0  0  0  0  0  0
  -28.2309  -25.6905   18.3298 H   0  0  0  0  0  0
  -30.6072  -25.6063   19.3605 H   0  0  0  0  0  0
  -29.3313  -15.1337   21.8667 H   0  0  0  0  0  0
  -28.9064  -22.3719   20.4238 H   0  0  0  0  0  0
  -30.3861  -22.0683   19.8279 H   0  0  0  0  0  0
  1 25  1  0  0  0
  1 30  2  0  0  0
  1 85  1  0  0  0
  2  3  1  0  0  0
  2 25  1  0  0  0
  2 87  1  0  0  0
  2 88  1  0  0  0
  3  4  1  0  0  0
  3 89  1  0  0  0
  3 90  1  0  0  0
  4  5  1  0  0  0
  4 91  1  0  0  0
  4 92  1  0  0  0
  5  6  1  0  0  0
  5 26  1  0  0  0
  5 93  1  0  0  0
  6 25  1  0  0  0
  6 94  1  0  0  0
  6 95  1  0  0  0
  7  8  2  0  0  0
  7 26  1  0  0  0
  7 29  1  0  0  0
  8  9  1  0  0  0
  8 22  1  0  0  0
  9 10  1  0  0  0
  9 27  2  0  0  0
 10 11  2  0  0  0
 10 15  1  0  0  0
 11 12  1  0  0  0
 11 96  1  0  0  0
 12 13  2  0  0  0
 12 97  1  0  0  0
 13 14  1  0  0  0
 13 31  1  0  0  0
 14 15  2  0  0  0
 14 98  1  0  0  0
 15 99  1  0  0  0
 16 17  2  0  0  0
 16 21  1  0  0  0
 16 31  1  0  0  0
 17 18  1  0  0  0
 17100  1  0  0  0
 18 19  2  0  0  0
 18101  1  0  0  0
 19 20  1  0  0  0
 19 24  1  0  0  0
 20 21  2  0  0  0
 20102  1  0  0  0
 21 23  1  0  0  0
 22 28  1  0  0  0
 22 32  2  0  0  0
 26 27  1  0  0  0
 28103  1  0  0  0
 28104  1  0  0  0
 29105  1  0  0  0
 29106  1  0  0  0
 33 34  1  0  0  0
 33 66  1  0  0  0
 33 70  2  0  0  0
 34 36  1  0  0  0
 34 59  1  0  0  0
 34107  1  0  0  0
 35 44  2  0  0  0
 35 45  1  0  0  0
 35 68  1  0  0  0
 36 56  1  0  0  0
 36108  1  0  0  0
 37 39  1  0  0  0
 37 47  1  0  0  0
 37 66  1  0  0  0
 37109  1  0  0  0
 38 43  2  0  0  0
 38 46  1  0  0  0
 38 47  1  0  0  0
 39 64  1  0  0  0
 39 67  2  0  0  0
 40 52  1  0  0  0
 40 53  2  0  0  0
 40 58  1  0  0  0
 41110  1  0  0  0
 41111  1  0  0  0
 41112  1  0  0  0
 41 48  1  0  0  0
 42 43  1  0  0  0
 42 66  1  0  0  0
 42113  1  0  0  0
 42114  1  0  0  0
 43 44  1  0  0  0
 44115  1  0  0  0
 45 46  2  0  0  0
 45116  1  0  0  0
 46117  1  0  0  0
 47118  1  0  0  0
 47119  1  0  0  0
 48 56  1  0  0  0
 48 65  1  0  0  0
 48120  1  0  0  0
 49 50  1  0  0  0
 49 53  1  0  0  0
 49 64  1  0  0  0
 49121  1  0  0  0
 50 51  1  0  0  0
 50122  1  0  0  0
 50123  1  0  0  0
 51 52  1  0  0  0
 51124  1  0  0  0
 51125  1  0  0  0
 52126  1  0  0  0
 52127  1  0  0  0
 53 54  1  0  0  0
 54 55  2  0  0  0
 54128  1  0  0  0
 55 57  1  0  0  0
 55129  1  0  0  0
 56 69  2  0  0  0
 57 58  2  0  0  0
 57130  1  0  0  0
 58131  1  0  0  0
 59 60  1  0  0  0
 59 61  1  0  0  0
 59 62  1  0  0  0
 60132  1  0  0  0
 60133  1  0  0  0
 60134  1  0  0  0
 61135  1  0  0  0
 61136  1  0  0  0
 61137  1  0  0  0
 62138  1  0  0  0
 62139  1  0  0  0
 62140  1  0  0  0
 63 65  1  0  0  0
 63141  1  0  0  0
 63142  1  0  0  0
 63143  1  0  0  0
 64144  1  0  0  0
 65145  1  0  0  0
 68 83  1  0  0  0
 71 73  2  0  0  0
 71 74  1  0  0  0
 71146  1  0  0  0
 72 75  2  0  0  0
 72 76  1  0  0  0
 72147  1  0  0  0
 73 75  1  0  0  0
 73 77  1  0  0  0
 74 76  2  0  0  0
 74 78  1  0  0  0
 75 80  1  0  0  0
 76 81  1  0  0  0
 77148  1  0  0  0
 77149  1  0  0  0
 77150  1  0  0  0
 78151  1  0  0  0
 78152  1  0  0  0
 78153  1  0  0  0
 79154  1  0  0  0
 79155  1  0  0  0
 79156  1  0  0  0
 79 84  1  0  0  0
 80 85  1  0  0  0
 80157  1  0  0  0
 80158  1  0  0  0
 81 86  1  0  0  0
 81159  1  0  0  0
 81160  1  0  0  0
 82 84  1  0  0  0
 82 86  1  0  0  0
 82161  1  0  0  0
 82162  1  0  0  0
 83 84  1  0  0  0
 83163  1  0  0  0
 83164  1  0  0  0
 84165  1  0  0  0
 85166  1  0  0  0
 86167  1  0  0  0
 86168  1  0  0  0
M  CHG  1  86   1
M  ISO  4   1 100  68 101  83 101  85 100
M  END
> <chiral flag>
0

> <version>
0

> <s_m_source_file>
/data/baiqing/PycharmProjects/Reinvent-master-3.2/result/LINK_invent/BTK/process_docking_weight1_custom_product_contain_oxygen_bond_distance_aromatic_linkinvent_7_9_3/rearranged_h_0042.sdf

> <i_m_source_file_index>
73

> <r_mmod_Potential_Energy-OPLS-2005>
-289.619415283203

> <r_mmod_Stretch_Energy-OPLS-2005>
43.8676910400391

> <r_mmod_Bend_Energy-OPLS-2005>
106.916786193848

> <r_mmod_Torsional_Energy-OPLS-2005>
205.287414550781

> <r_mmod_Improper_Torsional_Energy-OPLS-2005>
3.18813467025757

> <r_mmod_Van_der_Waal_Energy-OPLS-2005>
156.71240234375

> <r_mmod_Electrostatic_Energy-OPLS-2005>
-372.678009033203

> <r_mmod_Solvation_Energy-OPLS-2005>
-444.922393798828

> <b_mmod_Minimization_Converged-OPLS-2005>
0

> <r_mmod_RMS_Derivative-OPLS-2005>
3.66489839553833

$$$$
73
                    3D
 Structure written by MMmdl.
167176  0  0  1  0            999 V2000
  -30.5904  -14.7723   20.4049 C   0  0  0  0  0  0
  -30.4321  -12.4506   19.4822 C   0  0  0  0  0  0
  -29.5132  -12.4575   18.2379 C   0  0  0  0  0  0
  -28.0312  -12.3305   18.6353 C   0  0  0  0  0  0
  -27.6410  -13.2290   19.8432 C   0  0  2  0  0  0
  -28.6861  -13.1763   20.9791 C   0  0  0  0  0  0
  -25.2563  -13.8201   20.5724 C   0  0  0  0  0  0
  -24.1824  -13.0457   20.9165 C   0  0  0  0  0  0
  -24.6384  -11.6924   20.8678 C   0  0  0  0  0  0
  -23.9042  -10.4317   21.0387 C   0  0  0  0  0  0
  -24.3620   -9.4249   21.9170 C   0  0  0  0  0  0
  -23.6300   -8.2273   22.0759 C   0  0  0  0  0  0
  -22.4293   -8.0299   21.3542 C   0  0  0  0  0  0
  -21.9899   -9.0257   20.4644 C   0  0  0  0  0  0
  -22.7205  -10.2154   20.3058 C   0  0  0  0  0  0
  -21.6861   -6.0726   22.5269 C   0  0  0  0  0  0
  -21.4021   -6.5625   23.8210 C   0  0  0  0  0  0
  -21.3654   -5.6779   24.9157 C   0  0  0  0  0  0
  -21.6041   -4.3029   24.7207 C   0  0  0  0  0  0
  -21.8821   -3.8130   23.4318 C   0  0  0  0  0  0
  -21.9203   -4.6948   22.3374 C   0  0  0  0  0  0
  -22.7855  -13.5271   21.1796 C   0  0  0  0  0  0
  -22.1686   -4.2141   21.0952 F   0  0  0  0  0  0
  -21.5609   -3.4507   25.7694 F   0  0  0  0  0  0
  -29.9845  -13.5304   20.3949 N   0  0  0  0  0  0
  -26.2954  -12.9396   20.3257 N   0  0  0  0  0  0
  -25.9322  -11.6532   20.5696 N   0  0  0  0  0  0
  -22.0511  -12.8295   22.0381 N   0  0  0  0  0  0
  -25.4257  -15.1943   20.4234 N   0  0  0  0  0  0
  -31.7757  -14.8699   20.0762 O   0  0  0  0  0  0
  -21.6672   -6.8886   21.4244 O   0  0  0  0  0  0
  -22.3543  -14.5566   20.6621 O   0  0  0  0  0  0
  -24.6312  -31.8546   23.1917 C   0  0  0  0  0  0
  -25.9131  -32.4762   23.8275 C   0  0  1  0  0  0
  -27.2226  -27.2625   20.1362 C   0  0  0  0  0  0
  -25.5911  -33.8556   24.2249 N   0  0  0  0  0  0
  -23.4301  -30.4716   21.5376 C   0  0  2  0  0  0
  -24.8780  -28.9138   20.1131 C   0  0  0  0  0  0
  -22.7508  -29.4573   22.4895 C   0  0  0  0  0  0
  -18.0295  -28.1394   22.8480 C   0  0  0  0  0  0
  -24.1474  -36.7290   23.2627 C   0  0  0  0  0  0
  -25.9736  -30.7730   21.3637 C   0  0  0  0  0  0
  -26.0509  -29.3887   20.7183 C   0  0  0  0  0  0
  -27.2308  -28.5769   20.7138 C   0  0  0  0  0  0
  -26.0309  -26.8494   19.5102 C   0  0  0  0  0  0
  -24.8723  -27.6522   19.4959 C   0  0  0  0  0  0
  -23.6482  -29.7999   20.1556 C   0  0  0  0  0  0
  -25.4102  -36.3094   24.0330 C   0  0  1  0  0  0
  -20.5908  -28.3688   23.1267 C   0  0  2  0  0  0
  -20.6789  -26.9400   22.5414 C   0  0  0  0  0  0
  -19.5756  -26.6378   21.5220 C   0  0  0  0  0  0
  -18.1934  -26.7926   22.1637 C   0  0  0  0  0  0
  -19.1560  -28.8860   23.2878 C   0  0  0  0  0  0
  -18.9469  -30.1461   23.8888 C   0  0  0  0  0  0
  -17.6469  -30.6582   24.0564 C   0  0  0  0  0  0
  -25.9046  -34.9459   23.5108 C   0  0  0  0  0  0
  -16.5356  -29.9084   23.6326 C   0  0  0  0  0  0
  -16.7291  -28.6514   23.0331 C   0  0  0  0  0  0
  -26.4503  -31.6550   25.0629 C   0  0  0  0  0  0
  -25.3726  -31.3707   26.1355 C   0  0  0  0  0  0
  -27.0296  -30.2956   24.6039 C   0  0  0  0  0  0
  -27.6074  -32.4235   25.7435 C   0  0  0  0  0  0
  -27.5600  -37.1797   24.8450 C   0  0  0  0  0  0
  -21.4228  -29.3031   22.3659 N   0  0  0  0  0  0
  -26.4285  -37.3794   23.9423 N   0  0  0  0  0  0
  -24.6989  -31.0479   22.0902 N   0  0  0  0  0  0
  -23.4206  -28.8104   23.2998 O   0  0  0  0  0  0
  -28.3050  -26.3589   20.1216 O   0  0  0  0  0  0
  -26.5639  -34.8943   22.4691 O   0  0  0  0  0  0
  -23.5460  -32.1356   23.7195 O   0  0  0  0  0  0
  -29.8603  -18.6731   17.9547 C   0  0  0  0  0  0
  -29.4548  -18.5152   20.6805 C   0  0  0  0  0  0
  -29.5219  -19.8559   18.6447 C   0  0  0  0  0  0
  -29.9547  -17.4095   18.5798 C   0  0  0  0  0  0
  -29.2930  -19.8294   20.0437 C   0  0  0  0  0  0
  -29.7960  -17.2704   19.9878 C   0  0  0  0  0  0
  -28.1814  -23.6455   20.2863 C   0  0  0  0  0  0
  -30.6510  -25.1049   21.8379 C   0  0  0  0  0  0
  -31.0875  -23.6372   21.7494 C   0  0  0  0  0  0
  -29.1644  -25.2685   22.1661 C   0  0  0  0  0  0
  -30.5333  -22.8843   20.5276 C   0  0  0  0  0  0
  -28.2124  -25.1196   20.9633 C   0  0  1  0  0  0
  -29.3334  -21.1112   17.8058 C   0  0  0  0  0  0
  -30.1081  -16.2198   17.6470 C   0  0  0  0  0  0
  -28.7224  -21.1290   20.8083 C   0  0  0  0  0  0
  -29.0886  -22.6117   20.5533 N   0  0  0  0  0  0
  -29.8066  -15.9095   20.6277 N   0  0  0  0  0  0
  -27.1733  -23.3870   19.6227 O   0  0  0  0  0  0
  -31.4708  -12.5725   19.1736 H   0  0  0  0  0  0
  -30.3824  -11.4834   19.9880 H   0  0  0  0  0  0
  -29.7867  -11.6412   17.5694 H   0  0  0  0  0  0
  -29.6679  -13.3647   17.6581 H   0  0  0  0  0  0
  -27.8500  -11.2827   18.8802 H   0  0  0  0  0  0
  -27.3929  -12.5463   17.7754 H   0  0  0  0  0  0
  -27.6311  -14.2477   19.4542 H   0  0  0  0  0  0
  -28.7279  -12.1797   21.4255 H   0  0  0  0  0  0
  -28.4218  -13.8650   21.7852 H   0  0  0  0  0  0
  -25.2783   -9.5683   22.4716 H   0  0  0  0  0  0
  -23.9984   -7.4657   22.7484 H   0  0  0  0  0  0
  -21.0809   -8.8757   19.8970 H   0  0  0  0  0  0
  -22.3650  -10.9680   19.6155 H   0  0  0  0  0  0
  -21.2077   -7.6142   23.9706 H   0  0  0  0  0  0
  -21.1467   -6.0516   25.9063 H   0  0  0  0  0  0
  -22.0624   -2.7588   23.2829 H   0  0  0  0  0  0
  -22.4101  -11.9947   22.4768 H   0  0  0  0  0  0
  -21.1133  -13.1335   22.2574 H   0  0  0  0  0  0
  -24.6600  -15.8485   20.5400 H   0  0  0  0  0  0
  -26.2870  -15.6377   20.1280 H   0  0  0  0  0  0
  -26.7196  -32.5442   23.1024 H   0  0  0  0  0  0
  -25.0015  -33.9656   25.0358 H   0  0  0  0  0  0
  -22.7278  -31.2939   21.3875 H   0  0  0  0  0  0
  -23.3764  -35.9591   23.3230 H   0  0  0  0  0  0
  -24.3578  -36.8960   22.2051 H   0  0  0  0  0  0
  -23.7164  -37.6451   23.6671 H   0  0  0  0  0  0
  -26.0858  -31.5219   20.5774 H   0  0  0  0  0  0
  -26.8636  -30.8443   21.9785 H   0  0  0  0  0  0
  -28.1369  -28.9334   21.1851 H   0  0  0  0  0  0
  -25.9905  -25.8746   19.0456 H   0  0  0  0  0  0
  -23.9762  -27.2814   19.0169 H   0  0  0  0  0  0
  -23.7706  -30.5724   19.3965 H   0  0  0  0  0  0
  -22.7666  -29.2313   19.8533 H   0  0  0  0  0  0
  -25.1267  -36.1971   25.0821 H   0  0  0  0  0  0
  -21.0015  -28.3269   24.1385 H   0  0  0  0  0  0
  -20.5668  -26.2286   23.3617 H   0  0  0  0  0  0
  -21.6653  -26.7393   22.1222 H   0  0  0  0  0  0
  -19.6908  -25.6297   21.1215 H   0  0  0  0  0  0
  -19.6686  -27.3214   20.6771 H   0  0  0  0  0  0
  -17.4201  -26.6664   21.4050 H   0  0  0  0  0  0
  -18.0332  -26.0079   22.9041 H   0  0  0  0  0  0
  -19.7947  -30.7296   24.2225 H   0  0  0  0  0  0
  -17.5007  -31.6245   24.5194 H   0  0  0  0  0  0
  -15.5353  -30.2978   23.7631 H   0  0  0  0  0  0
  -15.8703  -28.0839   22.7006 H   0  0  0  0  0  0
  -24.5906  -30.7055   25.7681 H   0  0  0  0  0  0
  -24.8916  -32.2884   26.4742 H   0  0  0  0  0  0
  -25.8032  -30.8902   27.0142 H   0  0  0  0  0  0
  -26.2835  -29.6734   24.1074 H   0  0  0  0  0  0
  -27.4025  -29.7176   25.4501 H   0  0  0  0  0  0
  -27.8697  -30.4237   23.9206 H   0  0  0  0  0  0
  -27.2730  -33.3558   26.2003 H   0  0  0  0  0  0
  -28.3929  -32.6735   25.0287 H   0  0  0  0  0  0
  -28.0676  -31.8317   26.5359 H   0  0  0  0  0  0
  -28.2574  -38.0145   24.7598 H   0  0  0  0  0  0
  -28.1151  -36.2685   24.6160 H   0  0  0  0  0  0
  -27.2334  -37.1306   25.8854 H   0  0  0  0  0  0
  -20.9378  -29.8780   21.6908 H   0  0  0  0  0  0
  -26.0176  -38.2863   24.1467 H   0  0  0  0  0  0
  -29.9824  -18.7244   16.8814 H   0  0  0  0  0  0
  -29.2666  -18.4555   21.7450 H   0  0  0  0  0  0
  -30.9064  -25.6448   20.9246 H   0  0  0  0  0  0
  -31.2288  -25.5828   22.6313 H   0  0  0  0  0  0
  -30.8489  -23.1123   22.6751 H   0  0  0  0  0  0
  -32.1765  -23.6252   21.6912 H   0  0  0  0  0  0
  -29.0027  -26.2536   22.6089 H   0  0  0  0  0  0
  -28.8883  -24.5579   22.9450 H   0  0  0  0  0  0
  -31.0776  -21.9452   20.4211 H   0  0  0  0  0  0
  -30.7685  -23.4501   19.6232 H   0  0  0  0  0  0
  -27.2212  -25.1707   21.4204 H   0  0  0  0  0  0
  -29.4721  -20.9034   16.7433 H   0  0  0  0  0  0
  -30.0591  -21.8762   18.0703 H   0  0  0  0  0  0
  -28.3273  -21.5145   17.9252 H   0  0  0  0  0  0
  -29.8901  -16.4922   16.6148 H   0  0  0  0  0  0
  -29.3795  -15.4606   17.9169 H   0  0  0  0  0  0
  -31.1130  -15.7986   17.6767 H   0  0  0  0  0  0
  -28.9014  -20.9698   21.8732 H   0  0  0  0  0  0
  -27.6388  -21.0488   20.7136 H   0  0  0  0  0  0
  -28.9831  -15.7027   21.1710 H   0  0  0  0  0  0
  1 25  1  0  0  0
  1 30  2  0  0  0
  1 87  1  0  0  0
  2  3  1  0  0  0
  2 25  1  0  0  0
  2 89  1  0  0  0
  2 90  1  0  0  0
  3  4  1  0  0  0
  3 91  1  0  0  0
  3 92  1  0  0  0
  4  5  1  0  0  0
  4 93  1  0  0  0
  4 94  1  0  0  0
  5  6  1  0  0  0
  5 26  1  0  0  0
  5 95  1  0  0  0
  6 25  1  0  0  0
  6 96  1  0  0  0
  6 97  1  0  0  0
  7  8  2  0  0  0
  7 26  1  0  0  0
  7 29  1  0  0  0
  8  9  1  0  0  0
  8 22  1  0  0  0
  9 10  1  0  0  0
  9 27  2  0  0  0
 10 11  2  0  0  0
 10 15  1  0  0  0
 11 12  1  0  0  0
 11 98  1  0  0  0
 12 13  2  0  0  0
 12 99  1  0  0  0
 13 14  1  0  0  0
 13 31  1  0  0  0
 14 15  2  0  0  0
 14100  1  0  0  0
 15101  1  0  0  0
 16 17  2  0  0  0
 16 21  1  0  0  0
 16 31  1  0  0  0
 17 18  1  0  0  0
 17102  1  0  0  0
 18 19  2  0  0  0
 18103  1  0  0  0
 19 20  1  0  0  0
 19 24  1  0  0  0
 20 21  2  0  0  0
 20104  1  0  0  0
 21 23  1  0  0  0
 22 28  1  0  0  0
 22 32  2  0  0  0
 26 27  1  0  0  0
 28105  1  0  0  0
 28106  1  0  0  0
 29107  1  0  0  0
 29108  1  0  0  0
 33 34  1  0  0  0
 33 66  1  0  0  0
 33 70  2  0  0  0
 34 36  1  0  0  0
 34 59  1  0  0  0
 34109  1  0  0  0
 35 44  2  0  0  0
 35 45  1  0  0  0
 35 68  1  0  0  0
 36 56  1  0  0  0
 36110  1  0  0  0
 37 39  1  0  0  0
 37 47  1  0  0  0
 37 66  1  0  0  0
 37111  1  0  0  0
 38 43  2  0  0  0
 38 46  1  0  0  0
 38 47  1  0  0  0
 39 64  1  0  0  0
 39 67  2  0  0  0
 40 52  1  0  0  0
 40 53  2  0  0  0
 40 58  1  0  0  0
 41112  1  0  0  0
 41113  1  0  0  0
 41114  1  0  0  0
 41 48  1  0  0  0
 42 43  1  0  0  0
 42 66  1  0  0  0
 42115  1  0  0  0
 42116  1  0  0  0
 43 44  1  0  0  0
 44117  1  0  0  0
 45 46  2  0  0  0
 45118  1  0  0  0
 46119  1  0  0  0
 47120  1  0  0  0
 47121  1  0  0  0
 48 56  1  0  0  0
 48 65  1  0  0  0
 48122  1  0  0  0
 49 50  1  0  0  0
 49 53  1  0  0  0
 49 64  1  0  0  0
 49123  1  0  0  0
 50 51  1  0  0  0
 50124  1  0  0  0
 50125  1  0  0  0
 51 52  1  0  0  0
 51126  1  0  0  0
 51127  1  0  0  0
 52128  1  0  0  0
 52129  1  0  0  0
 53 54  1  0  0  0
 54 55  2  0  0  0
 54130  1  0  0  0
 55 57  1  0  0  0
 55131  1  0  0  0
 56 69  2  0  0  0
 57 58  2  0  0  0
 57132  1  0  0  0
 58133  1  0  0  0
 59 60  1  0  0  0
 59 61  1  0  0  0
 59 62  1  0  0  0
 60134  1  0  0  0
 60135  1  0  0  0
 60136  1  0  0  0
 61137  1  0  0  0
 61138  1  0  0  0
 61139  1  0  0  0
 62140  1  0  0  0
 62141  1  0  0  0
 62142  1  0  0  0
 63 65  1  0  0  0
 63143  1  0  0  0
 63144  1  0  0  0
 63145  1  0  0  0
 64146  1  0  0  0
 65147  1  0  0  0
 68 82  1  0  0  0
 71 73  2  0  0  0
 71 74  1  0  0  0
 71148  1  0  0  0
 72 75  2  0  0  0
 72 76  1  0  0  0
 72149  1  0  0  0
 73 75  1  0  0  0
 73 83  1  0  0  0
 74 76  2  0  0  0
 74 84  1  0  0  0
 75 85  1  0  0  0
 76 87  1  0  0  0
 77 82  1  0  0  0
 77 86  1  0  0  0
 77 88  2  0  0  0
 78 79  1  0  0  0
 78 80  1  0  0  0
 78150  1  0  0  0
 78151  1  0  0  0
 79 81  1  0  0  0
 79152  1  0  0  0
 79153  1  0  0  0
 80 82  1  0  0  0
 80154  1  0  0  0
 80155  1  0  0  0
 81 86  1  0  0  0
 81156  1  0  0  0
 81157  1  0  0  0
 82158  1  0  0  0
 83159  1  0  0  0
 83160  1  0  0  0
 83161  1  0  0  0
 84162  1  0  0  0
 84163  1  0  0  0
 84164  1  0  0  0
 85 86  1  0  0  0
 85165  1  0  0  0
 85166  1  0  0  0
 87167  1  0  0  0
M  ISO  4   1 100  68 101  82 101  87 100
M  END
> <chiral flag>
0

> <version>
0

> <s_m_source_file>
/data/baiqing/PycharmProjects/Reinvent-master-3.2/result/LINK_invent/BTK/process_docking_weight1_custom_product_contain_oxygen_bond_distance_aromatic_linkinvent_7_9_3/rearranged_h_0042.sdf

> <i_m_source_file_index>
74

> <r_mmod_Potential_Energy-OPLS-2005>
341.088134765625

> <r_mmod_Stretch_Energy-OPLS-2005>
149.313613891602

> <r_mmod_Bend_Energy-OPLS-2005>
198.553466796875

> <r_mmod_Torsional_Energy-OPLS-2005>
334.378082275391

> <r_mmod_Improper_Torsional_Energy-OPLS-2005>
8.5549955368042

> <r_mmod_Van_der_Waal_Energy-OPLS-2005>
132.295989990234

> <r_mmod_Electrostatic_Energy-OPLS-2005>
-356.000823974609

> <r_mmod_Solvation_Energy-OPLS-2005>
-218.217269897461

> <b_mmod_Minimization_Converged-OPLS-2005>
0

> <r_mmod_RMS_Derivative-OPLS-2005>
4.86446666717529

$$$$
74
                    3D
 Structure written by MMmdl.
158167  0  0  1  0            999 V2000
  -30.5767  -14.7636   20.4588 C   0  0  0  0  0  0
  -30.4474  -12.4726   19.4505 C   0  0  0  0  0  0
  -29.5105  -12.4997   18.2214 C   0  0  0  0  0  0
  -28.0379  -12.3188   18.6429 C   0  0  0  0  0  0
  -27.6384  -13.2240   19.8381 C   0  0  2  0  0  0
  -28.6872  -13.1585   20.9669 C   0  0  0  0  0  0
  -25.2500  -13.8159   20.5678 C   0  0  0  0  0  0
  -24.1791  -13.0419   20.9189 C   0  0  0  0  0  0
  -24.6376  -11.6898   20.8734 C   0  0  0  0  0  0
  -23.9050  -10.4276   21.0392 C   0  0  0  0  0  0
  -24.3594   -9.4202   21.9171 C   0  0  0  0  0  0
  -23.6266   -8.2244   22.0756 C   0  0  0  0  0  0
  -22.4246   -8.0280   21.3556 C   0  0  0  0  0  0
  -21.9882   -9.0260   20.4663 C   0  0  0  0  0  0
  -22.7221  -10.2126   20.3060 C   0  0  0  0  0  0
  -21.6850   -6.0713   22.5275 C   0  0  0  0  0  0
  -21.4017   -6.5619   23.8204 C   0  0  0  0  0  0
  -21.3654   -5.6775   24.9168 C   0  0  0  0  0  0
  -21.6052   -4.3037   24.7223 C   0  0  0  0  0  0
  -21.8813   -3.8131   23.4343 C   0  0  0  0  0  0
  -21.9196   -4.6950   22.3398 C   0  0  0  0  0  0
  -22.7817  -13.5220   21.1854 C   0  0  0  0  0  0
  -22.1659   -4.2128   21.0973 F   0  0  0  0  0  0
  -21.5640   -3.4521   25.7733 F   0  0  0  0  0  0
  -29.9785  -13.5268   20.3742 N   0  0  0  0  0  0
  -26.2909  -12.9354   20.3216 N   0  0  0  0  0  0
  -25.9298  -11.6506   20.5726 N   0  0  0  0  0  0
  -22.0440  -12.8240   22.0409 N   0  0  0  0  0  0
  -25.4164  -15.1882   20.4118 N   0  0  0  0  0  0
  -31.7862  -14.8829   20.2484 O   0  0  0  0  0  0
  -21.6639   -6.8860   21.4235 O   0  0  0  0  0  0
  -22.3512  -14.5530   20.6715 O   0  0  0  0  0  0
  -24.6301  -31.8550   23.1975 C   0  0  0  0  0  0
  -25.9125  -32.4752   23.8330 C   0  0  1  0  0  0
  -27.2195  -27.2653   20.1403 C   0  0  0  0  0  0
  -25.5906  -33.8561   24.2241 N   0  0  0  0  0  0
  -23.4280  -30.4761   21.5402 C   0  0  2  0  0  0
  -24.8756  -28.9153   20.1182 C   0  0  0  0  0  0
  -22.7498  -29.4602   22.4908 C   0  0  0  0  0  0
  -18.0293  -28.1394   22.8482 C   0  0  0  0  0  0
  -24.1483  -36.7293   23.2637 C   0  0  0  0  0  0
  -25.9741  -30.7688   21.3784 C   0  0  0  0  0  0
  -26.0472  -29.3893   20.7231 C   0  0  0  0  0  0
  -27.2270  -28.5787   20.7174 C   0  0  0  0  0  0
  -26.0283  -26.8476   19.5180 C   0  0  0  0  0  0
  -24.8694  -27.6514   19.5044 C   0  0  0  0  0  0
  -23.6478  -29.8045   20.1590 C   0  0  0  0  0  0
  -25.4107  -36.3080   24.0325 C   0  0  1  0  0  0
  -20.5897  -28.3709   23.1266 C   0  0  2  0  0  0
  -20.6777  -26.9426   22.5406 C   0  0  0  0  0  0
  -19.5749  -26.6389   21.5207 C   0  0  0  0  0  0
  -18.1930  -26.7933   22.1622 C   0  0  0  0  0  0
  -19.1548  -28.8868   23.2867 C   0  0  0  0  0  0
  -18.9465  -30.1460   23.8898 C   0  0  0  0  0  0
  -17.6467  -30.6589   24.0567 C   0  0  0  0  0  0
  -25.9054  -34.9448   23.5093 C   0  0  0  0  0  0
  -16.5357  -29.9089   23.6336 C   0  0  0  0  0  0
  -16.7280  -28.6509   23.0354 C   0  0  0  0  0  0
  -26.4487  -31.6594   25.0736 C   0  0  0  0  0  0
  -25.3691  -31.3780   26.1453 C   0  0  0  0  0  0
  -27.0334  -30.3003   24.6258 C   0  0  0  0  0  0
  -27.6032  -32.4352   25.7497 C   0  0  0  0  0  0
  -27.5583  -37.1788   24.8447 C   0  0  0  0  0  0
  -21.4212  -29.3048   22.3651 N   0  0  0  0  0  0
  -26.4281  -37.3779   23.9415 N   0  0  0  0  0  0
  -24.6960  -31.0516   22.0944 N   0  0  0  0  0  0
  -23.4194  -28.8153   23.3022 O   0  0  0  0  0  0
  -28.3201  -26.3880   20.1047 O   0  0  0  0  0  0
  -26.5649  -34.8918   22.4677 O   0  0  0  0  0  0
  -23.5448  -32.1375   23.7258 O   0  0  0  0  0  0
  -29.4775  -18.4736   20.1932 C   0  0  0  0  0  0
  -29.6148  -19.8400   22.1894 C   0  0  0  0  0  0
  -30.1365  -17.4335   22.2885 C   0  0  0  0  0  0
  -29.3948  -19.8052   20.7942 C   0  0  0  0  0  0
  -29.8418  -17.2611   20.9211 C   0  0  0  0  0  0
  -30.0110  -18.6933   22.9104 C   0  0  0  0  0  0
  -28.3859  -23.6953   20.0249 C   0  0  0  0  0  0
  -29.7536  -23.8529   22.5571 C   0  0  0  0  0  0
  -29.2970  -25.2028   21.9830 C   0  0  0  0  0  0
  -30.2153  -22.9433   21.4090 C   0  0  0  0  0  0
  -28.2567  -25.0836   20.8464 C   0  0  1  0  0  0
  -29.0368  -21.1489   19.9808 C   0  0  0  0  0  0
  -29.0919  -22.5960   20.5293 N   0  0  0  0  0  0
  -29.7295  -15.8675   20.4170 N   0  0  0  0  0  0
  -27.7512  -23.5975   18.9700 O   0  0  0  0  0  0
  -30.3212  -18.8333   24.6010 Cl  0  0  0  0  0  0
  -31.4819  -12.6296   19.1388 H   0  0  0  0  0  0
  -30.4224  -11.4978   19.9398 H   0  0  0  0  0  0
  -29.7923  -11.7177   17.5154 H   0  0  0  0  0  0
  -29.6281  -13.4462   17.6915 H   0  0  0  0  0  0
  -27.8960  -11.2739   18.9154 H   0  0  0  0  0  0
  -27.3768  -12.4987   17.7946 H   0  0  0  0  0  0
  -27.6272  -14.2411   19.4464 H   0  0  0  0  0  0
  -28.7313  -12.1562   21.3977 H   0  0  0  0  0  0
  -28.4255  -13.8339   21.7827 H   0  0  0  0  0  0
  -25.2725   -9.5686   22.4751 H   0  0  0  0  0  0
  -23.9986   -7.4627   22.7469 H   0  0  0  0  0  0
  -21.0815   -8.8791   19.8953 H   0  0  0  0  0  0
  -22.3682  -10.9681   19.6184 H   0  0  0  0  0  0
  -21.2004   -7.6122   23.9707 H   0  0  0  0  0  0
  -21.1480   -6.0493   25.9067 H   0  0  0  0  0  0
  -22.0599   -2.7599   23.2842 H   0  0  0  0  0  0
  -22.4030  -11.9937   22.4877 H   0  0  0  0  0  0
  -21.1072  -13.1344   22.2593 H   0  0  0  0  0  0
  -24.6427  -15.8331   20.5251 H   0  0  0  0  0  0
  -26.2483  -15.6356   20.0520 H   0  0  0  0  0  0
  -26.7195  -32.5408   23.1076 H   0  0  0  0  0  0
  -25.0001  -33.9701   25.0349 H   0  0  0  0  0  0
  -22.7245  -31.2974   21.3902 H   0  0  0  0  0  0
  -23.3760  -35.9608   23.3278 H   0  0  0  0  0  0
  -24.3585  -36.8951   22.2057 H   0  0  0  0  0  0
  -23.7223  -37.6474   23.6694 H   0  0  0  0  0  0
  -26.1167  -31.5302   20.6101 H   0  0  0  0  0  0
  -26.8485  -30.8144   22.0171 H   0  0  0  0  0  0
  -28.1311  -28.9427   21.1847 H   0  0  0  0  0  0
  -25.9927  -25.8764   19.0442 H   0  0  0  0  0  0
  -23.9731  -27.2818   19.0258 H   0  0  0  0  0  0
  -23.7751  -30.5768   19.3991 H   0  0  0  0  0  0
  -22.7671  -29.2361   19.8549 H   0  0  0  0  0  0
  -25.1291  -36.1917   25.0819 H   0  0  0  0  0  0
  -20.9988  -28.3288   24.1388 H   0  0  0  0  0  0
  -20.5676  -26.2318   23.3616 H   0  0  0  0  0  0
  -21.6644  -26.7443   22.1206 H   0  0  0  0  0  0
  -19.6915  -25.6295   21.1248 H   0  0  0  0  0  0
  -19.6689  -27.3198   20.6738 H   0  0  0  0  0  0
  -17.4201  -26.6683   21.4027 H   0  0  0  0  0  0
  -18.0333  -26.0078   22.9024 H   0  0  0  0  0  0
  -19.7938  -30.7272   24.2275 H   0  0  0  0  0  0
  -17.5024  -31.6271   24.5163 H   0  0  0  0  0  0
  -15.5362  -30.2997   23.7656 H   0  0  0  0  0  0
  -15.8677  -28.0830   22.7077 H   0  0  0  0  0  0
  -24.5825  -30.7186   25.7776 H   0  0  0  0  0  0
  -24.8930  -32.2969   26.4889 H   0  0  0  0  0  0
  -25.7974  -30.8928   27.0232 H   0  0  0  0  0  0
  -26.2943  -29.6759   24.1235 H   0  0  0  0  0  0
  -27.3938  -29.7279   25.4814 H   0  0  0  0  0  0
  -27.8853  -30.4271   23.9574 H   0  0  0  0  0  0
  -27.2629  -33.3642   26.2095 H   0  0  0  0  0  0
  -28.3820  -32.6947   25.0310 H   0  0  0  0  0  0
  -28.0740  -31.8482   26.5396 H   0  0  0  0  0  0
  -28.2565  -38.0118   24.7556 H   0  0  0  0  0  0
  -28.1118  -36.2663   24.6196 H   0  0  0  0  0  0
  -27.2326  -37.1342   25.8851 H   0  0  0  0  0  0
  -20.9400  -29.8765   21.6852 H   0  0  0  0  0  0
  -26.0164  -38.2846   24.1449 H   0  0  0  0  0  0
  -29.2341  -18.3833   19.1438 H   0  0  0  0  0  0
  -29.4805  -20.7538   22.7464 H   0  0  0  0  0  0
  -30.3904  -16.5797   22.8996 H   0  0  0  0  0  0
  -28.9473  -23.3782   23.1184 H   0  0  0  0  0  0
  -30.5696  -24.0120   23.2635 H   0  0  0  0  0  0
  -30.1745  -25.7284   21.6034 H   0  0  0  0  0  0
  -28.8943  -25.8289   22.7802 H   0  0  0  0  0  0
  -30.7613  -22.0823   21.7789 H   0  0  0  0  0  0
  -30.9584  -23.4759   20.8122 H   0  0  0  0  0  0
  -27.2760  -25.0138   21.3225 H   0  0  0  0  0  0
  -28.0307  -20.9930   19.5900 H   0  0  0  0  0  0
  -29.6790  -21.1461   19.0982 H   0  0  0  0  0  0
  -28.7817  -15.6021   20.2050 H   0  0  0  0  0  0
  1 25  1  0  0  0
  1 30  2  0  0  0
  1 84  1  0  0  0
  2  3  1  0  0  0
  2 25  1  0  0  0
  2 87  1  0  0  0
  2 88  1  0  0  0
  3  4  1  0  0  0
  3 89  1  0  0  0
  3 90  1  0  0  0
  4  5  1  0  0  0
  4 91  1  0  0  0
  4 92  1  0  0  0
  5  6  1  0  0  0
  5 26  1  0  0  0
  5 93  1  0  0  0
  6 25  1  0  0  0
  6 94  1  0  0  0
  6 95  1  0  0  0
  7  8  2  0  0  0
  7 26  1  0  0  0
  7 29  1  0  0  0
  8  9  1  0  0  0
  8 22  1  0  0  0
  9 10  1  0  0  0
  9 27  2  0  0  0
 10 11  2  0  0  0
 10 15  1  0  0  0
 11 12  1  0  0  0
 11 96  1  0  0  0
 12 13  2  0  0  0
 12 97  1  0  0  0
 13 14  1  0  0  0
 13 31  1  0  0  0
 14 15  2  0  0  0
 14 98  1  0  0  0
 15 99  1  0  0  0
 16 17  2  0  0  0
 16 21  1  0  0  0
 16 31  1  0  0  0
 17 18  1  0  0  0
 17100  1  0  0  0
 18 19  2  0  0  0
 18101  1  0  0  0
 19 20  1  0  0  0
 19 24  1  0  0  0
 20 21  2  0  0  0
 20102  1  0  0  0
 21 23  1  0  0  0
 22 28  1  0  0  0
 22 32  2  0  0  0
 26 27  1  0  0  0
 28103  1  0  0  0
 28104  1  0  0  0
 29105  1  0  0  0
 29106  1  0  0  0
 33 34  1  0  0  0
 33 66  1  0  0  0
 33 70  2  0  0  0
 34 36  1  0  0  0
 34 59  1  0  0  0
 34107  1  0  0  0
 35 44  2  0  0  0
 35 45  1  0  0  0
 35 68  1  0  0  0
 36 56  1  0  0  0
 36108  1  0  0  0
 37 39  1  0  0  0
 37 47  1  0  0  0
 37 66  1  0  0  0
 37109  1  0  0  0
 38 43  2  0  0  0
 38 46  1  0  0  0
 38 47  1  0  0  0
 39 64  1  0  0  0
 39 67  2  0  0  0
 40 52  1  0  0  0
 40 53  2  0  0  0
 40 58  1  0  0  0
 41110  1  0  0  0
 41111  1  0  0  0
 41112  1  0  0  0
 41 48  1  0  0  0
 42 43  1  0  0  0
 42 66  1  0  0  0
 42113  1  0  0  0
 42114  1  0  0  0
 43 44  1  0  0  0
 44115  1  0  0  0
 45 46  2  0  0  0
 45116  1  0  0  0
 46117  1  0  0  0
 47118  1  0  0  0
 47119  1  0  0  0
 48 56  1  0  0  0
 48 65  1  0  0  0
 48120  1  0  0  0
 49 50  1  0  0  0
 49 53  1  0  0  0
 49 64  1  0  0  0
 49121  1  0  0  0
 50 51  1  0  0  0
 50122  1  0  0  0
 50123  1  0  0  0
 51 52  1  0  0  0
 51124  1  0  0  0
 51125  1  0  0  0
 52126  1  0  0  0
 52127  1  0  0  0
 53 54  1  0  0  0
 54 55  2  0  0  0
 54128  1  0  0  0
 55 57  1  0  0  0
 55129  1  0  0  0
 56 69  2  0  0  0
 57 58  2  0  0  0
 57130  1  0  0  0
 58131  1  0  0  0
 59 60  1  0  0  0
 59 61  1  0  0  0
 59 62  1  0  0  0
 60132  1  0  0  0
 60133  1  0  0  0
 60134  1  0  0  0
 61135  1  0  0  0
 61136  1  0  0  0
 61137  1  0  0  0
 62138  1  0  0  0
 62139  1  0  0  0
 62140  1  0  0  0
 63 65  1  0  0  0
 63141  1  0  0  0
 63142  1  0  0  0
 63143  1  0  0  0
 64144  1  0  0  0
 65145  1  0  0  0
 68 81  1  0  0  0
 71 74  2  0  0  0
 71 75  1  0  0  0
 71146  1  0  0  0
 72 74  1  0  0  0
 72 76  2  0  0  0
 72147  1  0  0  0
 73 75  2  0  0  0
 73 76  1  0  0  0
 73148  1  0  0  0
 74 82  1  0  0  0
 75 84  1  0  0  0
 76 86  1  0  0  0
 77 81  1  0  0  0
 77 83  1  0  0  0
 77 85  2  0  0  0
 78 79  1  0  0  0
 78 80  1  0  0  0
 78149  1  0  0  0
 78150  1  0  0  0
 79 81  1  0  0  0
 79151  1  0  0  0
 79152  1  0  0  0
 80 83  1  0  0  0
 80153  1  0  0  0
 80154  1  0  0  0
 81155  1  0  0  0
 82 83  1  0  0  0
 82156  1  0  0  0
 82157  1  0  0  0
 84158  1  0  0  0
M  ISO  4   1 100  68 101  81 101  84 100
M  END
> <chiral flag>
0

> <version>
0

> <s_m_source_file>
/data/baiqing/PycharmProjects/Reinvent-master-3.2/result/LINK_invent/BTK/process_docking_weight1_custom_product_contain_oxygen_bond_distance_aromatic_linkinvent_7_9_3/rearranged_h_0042.sdf

> <i_m_source_file_index>
75

> <r_mmod_Potential_Energy-OPLS-2005>
291.534576416016

> <r_mmod_Stretch_Energy-OPLS-2005>
134.305587768555

> <r_mmod_Bend_Energy-OPLS-2005>
171.314437866211

> <r_mmod_Torsional_Energy-OPLS-2005>
298.089019775391

> <r_mmod_Improper_Torsional_Energy-OPLS-2005>
12.9571447372437

> <r_mmod_Van_der_Waal_Energy-OPLS-2005>
138.403930664062

> <r_mmod_Electrostatic_Energy-OPLS-2005>
-320.518402099609

> <r_mmod_Solvation_Energy-OPLS-2005>
-233.613342285156

> <b_mmod_Minimization_Converged-OPLS-2005>
0

> <r_mmod_RMS_Derivative-OPLS-2005>
2.5507698059082

$$$$
75
                    3D
 Structure written by MMmdl.
156164  0  0  1  0            999 V2000
  -30.6722  -14.5058   20.6015 C   0  0  0  0  0  0
  -30.4435  -12.3447   19.4237 C   0  0  0  0  0  0
  -29.5007  -12.5093   18.2167 C   0  0  0  0  0  0
  -28.0293  -12.3367   18.6444 C   0  0  0  0  0  0
  -27.6630  -13.1971   19.8817 C   0  0  2  0  0  0
  -28.7028  -12.9922   21.0027 C   0  0  0  0  0  0
  -25.2622  -13.8129   20.5685 C   0  0  0  0  0  0
  -24.1819  -13.0427   20.9194 C   0  0  0  0  0  0
  -24.6369  -11.6905   20.8718 C   0  0  0  0  0  0
  -23.9044  -10.4287   21.0372 C   0  0  0  0  0  0
  -24.3602   -9.4211   21.9156 C   0  0  0  0  0  0
  -23.6305   -8.2230   22.0715 C   0  0  0  0  0  0
  -22.4310   -8.0291   21.3508 C   0  0  0  0  0  0
  -21.9927   -9.0269   20.4609 C   0  0  0  0  0  0
  -22.7213  -10.2163   20.3016 C   0  0  0  0  0  0
  -21.6838   -6.0744   22.5272 C   0  0  0  0  0  0
  -21.3972   -6.5647   23.8204 C   0  0  0  0  0  0
  -21.3651   -5.6801   24.9166 C   0  0  0  0  0  0
  -21.6058   -4.3085   24.7208 C   0  0  0  0  0  0
  -21.8814   -3.8162   23.4336 C   0  0  0  0  0  0
  -21.9185   -4.6958   22.3390 C   0  0  0  0  0  0
  -22.7836  -13.5254   21.1890 C   0  0  0  0  0  0
  -22.1676   -4.2138   21.0967 F   0  0  0  0  0  0
  -21.5651   -3.4589   25.7733 F   0  0  0  0  0  0
  -30.0287  -13.3148   20.4532 N   0  0  0  0  0  0
  -26.3033  -12.9249   20.3418 N   0  0  0  0  0  0
  -25.9309  -11.6442   20.5838 N   0  0  0  0  0  0
  -22.0501  -12.8237   22.0480 N   0  0  0  0  0  0
  -25.4493  -15.1807   20.4032 N   0  0  0  0  0  0
  -31.7761  -14.7331   20.1045 O   0  0  0  0  0  0
  -21.6673   -6.8896   21.4231 O   0  0  0  0  0  0
  -22.3531  -14.5573   20.6775 O   0  0  0  0  0  0
  -24.6114  -31.8663   23.2139 C   0  0  0  0  0  0
  -25.8973  -32.4823   23.8441 C   0  0  1  0  0  0
  -27.2207  -27.3989   20.0952 C   0  0  0  0  0  0
  -25.5802  -33.8632   24.2323 N   0  0  0  0  0  0
  -23.4041  -30.4956   21.5509 C   0  0  2  0  0  0
  -24.8487  -28.9619   20.1234 C   0  0  0  0  0  0
  -22.7388  -29.4705   22.4965 C   0  0  0  0  0  0
  -18.0318  -28.1353   22.8469 C   0  0  0  0  0  0
  -24.1491  -36.7350   23.2647 C   0  0  0  0  0  0
  -25.9409  -30.8259   21.3710 C   0  0  0  0  0  0
  -26.0190  -29.4584   20.7125 C   0  0  0  0  0  0
  -27.2088  -28.6861   20.6920 C   0  0  0  0  0  0
  -26.0212  -26.9323   19.5007 C   0  0  0  0  0  0
  -24.8465  -27.7004   19.5169 C   0  0  0  0  0  0
  -23.6137  -29.8285   20.1700 C   0  0  0  0  0  0
  -25.4121  -36.3118   24.0326 C   0  0  1  0  0  0
  -20.5882  -28.3689   23.1319 C   0  0  2  0  0  0
  -20.6806  -26.9427   22.5375 C   0  0  0  0  0  0
  -19.5814  -26.6469   21.5138 C   0  0  0  0  0  0
  -18.2003  -26.7912   22.1541 C   0  0  0  0  0  0
  -19.1538  -28.8842   23.2905 C   0  0  0  0  0  0
  -18.9462  -30.1434   23.8958 C   0  0  0  0  0  0
  -17.6449  -30.6557   24.0584 C   0  0  0  0  0  0
  -25.9030  -34.9473   23.5144 C   0  0  0  0  0  0
  -16.5341  -29.9047   23.6317 C   0  0  0  0  0  0
  -16.7293  -28.6465   23.0322 C   0  0  0  0  0  0
  -26.4445  -31.6582   25.0751 C   0  0  0  0  0  0
  -25.3775  -31.3647   26.1546 C   0  0  0  0  0  0
  -27.0258  -30.3022   24.6099 C   0  0  0  0  0  0
  -27.5990  -32.4354   25.7494 C   0  0  0  0  0  0
  -27.5597  -37.1831   24.8452 C   0  0  0  0  0  0
  -21.4113  -29.3098   22.3722 N   0  0  0  0  0  0
  -26.4310  -37.3794   23.9387 N   0  0  0  0  0  0
  -24.6695  -31.0757   22.1039 N   0  0  0  0  0  0
  -23.4129  -28.8215   23.2992 O   0  0  0  0  0  0
  -28.3706  -26.6206   20.1129 O   0  0  0  0  0  0
  -26.5629  -34.8917   22.4731 O   0  0  0  0  0  0
  -23.5284  -32.1409   23.7512 O   0  0  0  0  0  0
  -30.3733  -19.2972   23.2570 C   0  0  0  0  0  0
  -30.1025  -18.0903   22.5877 C   0  0  0  0  0  0
  -30.3785  -20.5172   22.5544 C   0  0  0  0  0  0
  -29.8320  -18.0817   21.1990 C   0  0  0  0  0  0
  -30.0886  -20.5614   21.1735 C   0  0  0  0  0  0
  -29.7908  -19.3357   20.5028 C   0  0  0  0  0  0
  -29.5815  -16.7413   20.4710 C   0  0  0  0  0  0
  -30.2295  -21.9210   20.4501 C   0  0  0  0  0  0
  -29.4480  -24.3263   20.3432 C   0  0  0  0  0  0
  -28.1614  -25.1841   20.1790 C   0  0  0  0  0  0
  -29.9616  -15.4963   21.1856 N   0  0  0  0  0  0
  -29.1628  -22.9133   20.7570 N   0  3  0  0  0  0
  -29.3975  -19.3601   18.8176 Cl  0  0  0  0  0  0
  -31.4827  -12.4814   19.1099 H   0  0  0  0  0  0
  -30.3932  -11.3286   19.8191 H   0  0  0  0  0  0
  -29.7548  -11.7830   17.4482 H   0  0  0  0  0  0
  -29.6484  -13.4960   17.7724 H   0  0  0  0  0  0
  -27.8783  -11.2829   18.8817 H   0  0  0  0  0  0
  -27.3604  -12.5708   17.8121 H   0  0  0  0  0  0
  -27.7055  -14.2411   19.5658 H   0  0  0  0  0  0
  -28.6997  -11.9522   21.3366 H   0  0  0  0  0  0
  -28.4521  -13.5827   21.8874 H   0  0  0  0  0  0
  -25.2717   -9.5713   22.4766 H   0  0  0  0  0  0
  -24.0001   -7.4594   22.7414 H   0  0  0  0  0  0
  -21.0851   -8.8783   19.8920 H   0  0  0  0  0  0
  -22.3634  -10.9720   19.6165 H   0  0  0  0  0  0
  -21.1951   -7.6159   23.9718 H   0  0  0  0  0  0
  -21.1487   -6.0523   25.9087 H   0  0  0  0  0  0
  -22.0600   -2.7628   23.2812 H   0  0  0  0  0  0
  -22.4109  -11.9829   22.4708 H   0  0  0  0  0  0
  -21.1104  -13.1157   22.2747 H   0  0  0  0  0  0
  -24.7167  -15.8706   20.5252 H   0  0  0  0  0  0
  -26.3252  -15.5847   20.0962 H   0  0  0  0  0  0
  -26.7026  -32.5539   23.1190 H   0  0  0  0  0  0
  -24.9767  -33.9789   25.0336 H   0  0  0  0  0  0
  -22.6974  -31.3172   21.4118 H   0  0  0  0  0  0
  -23.3718  -35.9710   23.3315 H   0  0  0  0  0  0
  -24.3606  -36.8983   22.2064 H   0  0  0  0  0  0
  -23.7286  -37.6574   23.6680 H   0  0  0  0  0  0
  -26.0525  -31.5949   20.6077 H   0  0  0  0  0  0
  -26.8288  -30.8820   21.9861 H   0  0  0  0  0  0
  -28.1103  -29.0584   21.1576 H   0  0  0  0  0  0
  -25.9587  -25.9687   19.0162 H   0  0  0  0  0  0
  -23.9365  -27.3033   19.0855 H   0  0  0  0  0  0
  -23.7273  -30.6009   19.4086 H   0  0  0  0  0  0
  -22.7384  -29.2473   19.8717 H   0  0  0  0  0  0
  -25.1307  -36.2007   25.0815 H   0  0  0  0  0  0
  -21.0025  -28.3191   24.1426 H   0  0  0  0  0  0
  -20.5872  -26.2246   23.3518 H   0  0  0  0  0  0
  -21.6649  -26.7589   22.1041 H   0  0  0  0  0  0
  -19.6731  -27.3494   20.6846 H   0  0  0  0  0  0
  -19.7071  -25.6519   21.0885 H   0  0  0  0  0  0
  -17.4320  -26.6639   21.3897 H   0  0  0  0  0  0
  -18.0500  -25.9991   22.8883 H   0  0  0  0  0  0
  -19.7948  -30.7280   24.2277 H   0  0  0  0  0  0
  -17.5015  -31.6254   24.5147 H   0  0  0  0  0  0
  -15.5338  -30.2950   23.7585 H   0  0  0  0  0  0
  -15.8744  -28.0758   22.6986 H   0  0  0  0  0  0
  -24.5912  -30.7033   25.7902 H   0  0  0  0  0  0
  -24.9040  -32.2800   26.5098 H   0  0  0  0  0  0
  -25.8203  -30.8748   27.0231 H   0  0  0  0  0  0
  -26.2752  -29.6800   24.1224 H   0  0  0  0  0  0
  -27.4087  -29.7247   25.4520 H   0  0  0  0  0  0
  -27.8575  -30.4317   23.9184 H   0  0  0  0  0  0
  -27.2496  -33.3570   26.2158 H   0  0  0  0  0  0
  -28.3704  -32.7090   25.0287 H   0  0  0  0  0  0
  -28.0770  -31.8497   26.5353 H   0  0  0  0  0  0
  -28.2599  -38.0127   24.7487 H   0  0  0  0  0  0
  -28.1098  -36.2679   24.6283 H   0  0  0  0  0  0
  -27.2324  -37.1487   25.8847 H   0  0  0  0  0  0
  -20.9243  -29.8707   21.6878 H   0  0  0  0  0  0
  -26.0202  -38.2869   24.1394 H   0  0  0  0  0  0
  -30.5845  -19.2828   24.3210 H   0  0  0  0  0  0
  -30.1008  -17.1793   23.1629 H   0  0  0  0  0  0
  -30.6347  -21.4211   23.0893 H   0  0  0  0  0  0
  -30.0877  -16.7817   19.5019 H   0  0  0  0  0  0
  -28.5145  -16.6827   20.2454 H   0  0  0  0  0  0
  -30.3006  -21.8022   19.3641 H   0  0  0  0  0  0
  -31.1919  -22.3452   20.7524 H   0  0  0  0  0  0
  -30.1167  -24.7777   21.0828 H   0  0  0  0  0  0
  -29.9851  -24.3366   19.3941 H   0  0  0  0  0  0
  -27.4814  -24.9833   21.0121 H   0  0  0  0  0  0
  -27.6735  -24.8306   19.2705 H   0  0  0  0  0  0
  -30.2901  -15.6770   22.1276 H   0  0  0  0  0  0
  -28.9994  -22.9091   21.7523 H   0  0  0  0  0  0
  -28.3170  -22.5965   20.3114 H   0  0  0  0  0  0
  1 25  1  0  0  0
  1 30  2  0  0  0
  1 81  1  0  0  0
  2  3  1  0  0  0
  2 25  1  0  0  0
  2 84  1  0  0  0
  2 85  1  0  0  0
  3  4  1  0  0  0
  3 86  1  0  0  0
  3 87  1  0  0  0
  4  5  1  0  0  0
  4 88  1  0  0  0
  4 89  1  0  0  0
  5  6  1  0  0  0
  5 26  1  0  0  0
  5 90  1  0  0  0
  6 25  1  0  0  0
  6 91  1  0  0  0
  6 92  1  0  0  0
  7  8  2  0  0  0
  7 26  1  0  0  0
  7 29  1  0  0  0
  8  9  1  0  0  0
  8 22  1  0  0  0
  9 10  1  0  0  0
  9 27  2  0  0  0
 10 11  2  0  0  0
 10 15  1  0  0  0
 11 12  1  0  0  0
 11 93  1  0  0  0
 12 13  2  0  0  0
 12 94  1  0  0  0
 13 14  1  0  0  0
 13 31  1  0  0  0
 14 15  2  0  0  0
 14 95  1  0  0  0
 15 96  1  0  0  0
 16 17  2  0  0  0
 16 21  1  0  0  0
 16 31  1  0  0  0
 17 18  1  0  0  0
 17 97  1  0  0  0
 18 19  2  0  0  0
 18 98  1  0  0  0
 19 20  1  0  0  0
 19 24  1  0  0  0
 20 21  2  0  0  0
 20 99  1  0  0  0
 21 23  1  0  0  0
 22 28  1  0  0  0
 22 32  2  0  0  0
 26 27  1  0  0  0
 28100  1  0  0  0
 28101  1  0  0  0
 29102  1  0  0  0
 29103  1  0  0  0
 33 34  1  0  0  0
 33 66  1  0  0  0
 33 70  2  0  0  0
 34 36  1  0  0  0
 34 59  1  0  0  0
 34104  1  0  0  0
 35 44  2  0  0  0
 35 45  1  0  0  0
 35 68  1  0  0  0
 36 56  1  0  0  0
 36105  1  0  0  0
 37 39  1  0  0  0
 37 47  1  0  0  0
 37 66  1  0  0  0
 37106  1  0  0  0
 38 43  2  0  0  0
 38 46  1  0  0  0
 38 47  1  0  0  0
 39 64  1  0  0  0
 39 67  2  0  0  0
 40 52  1  0  0  0
 40 53  2  0  0  0
 40 58  1  0  0  0
 41107  1  0  0  0
 41108  1  0  0  0
 41109  1  0  0  0
 41 48  1  0  0  0
 42 43  1  0  0  0
 42 66  1  0  0  0
 42110  1  0  0  0
 42111  1  0  0  0
 43 44  1  0  0  0
 44112  1  0  0  0
 45 46  2  0  0  0
 45113  1  0  0  0
 46114  1  0  0  0
 47115  1  0  0  0
 47116  1  0  0  0
 48 56  1  0  0  0
 48 65  1  0  0  0
 48117  1  0  0  0
 49 50  1  0  0  0
 49 53  1  0  0  0
 49 64  1  0  0  0
 49118  1  0  0  0
 50 51  1  0  0  0
 50119  1  0  0  0
 50120  1  0  0  0
 51 52  1  0  0  0
 51121  1  0  0  0
 51122  1  0  0  0
 52123  1  0  0  0
 52124  1  0  0  0
 53 54  1  0  0  0
 54 55  2  0  0  0
 54125  1  0  0  0
 55 57  1  0  0  0
 55126  1  0  0  0
 56 69  2  0  0  0
 57 58  2  0  0  0
 57127  1  0  0  0
 58128  1  0  0  0
 59 60  1  0  0  0
 59 61  1  0  0  0
 59 62  1  0  0  0
 60129  1  0  0  0
 60130  1  0  0  0
 60131  1  0  0  0
 61132  1  0  0  0
 61133  1  0  0  0
 61134  1  0  0  0
 62135  1  0  0  0
 62136  1  0  0  0
 62137  1  0  0  0
 63 65  1  0  0  0
 63138  1  0  0  0
 63139  1  0  0  0
 63140  1  0  0  0
 64141  1  0  0  0
 65142  1  0  0  0
 68 80  1  0  0  0
 71 72  2  0  0  0
 71 73  1  0  0  0
 71143  1  0  0  0
 72 74  1  0  0  0
 72144  1  0  0  0
 73 75  2  0  0  0
 73145  1  0  0  0
 74 76  2  0  0  0
 74 77  1  0  0  0
 75 76  1  0  0  0
 75 78  1  0  0  0
 76 83  1  0  0  0
 77 81  1  0  0  0
 77146  1  0  0  0
 77147  1  0  0  0
 78 82  1  0  0  0
 78148  1  0  0  0
 78149  1  0  0  0
 79 80  1  0  0  0
 79 82  1  0  0  0
 79150  1  0  0  0
 79151  1  0  0  0
 80152  1  0  0  0
 80153  1  0  0  0
 81154  1  0  0  0
 82155  1  0  0  0
 82156  1  0  0  0
M  CHG  1  82   1
M  ISO  4   1 100  68 101  80 101  81 100
M  END
> <chiral flag>
0

> <version>
0

> <s_m_source_file>
/data/baiqing/PycharmProjects/Reinvent-master-3.2/result/LINK_invent/BTK/process_docking_weight1_custom_product_contain_oxygen_bond_distance_aromatic_linkinvent_7_9_3/rearranged_h_0042.sdf

> <i_m_source_file_index>
76

> <r_mmod_Potential_Energy-OPLS-2005>
-185.613327026367

> <r_mmod_Stretch_Energy-OPLS-2005>
47.4842872619629

> <r_mmod_Bend_Energy-OPLS-2005>
99.6101837158203

> <r_mmod_Torsional_Energy-OPLS-2005>
261.35400390625

> <r_mmod_Improper_Torsional_Energy-OPLS-2005>
7.65805959701538

> <r_mmod_Van_der_Waal_Energy-OPLS-2005>
154.106079101562

> <r_mmod_Electrostatic_Energy-OPLS-2005>
-312.895782470703

> <r_mmod_Solvation_Energy-OPLS-2005>
-461.6875

> <b_mmod_Minimization_Converged-OPLS-2005>
0

> <r_mmod_RMS_Derivative-OPLS-2005>
7.4249415397644

$$$$
76
                    3D
 Structure written by MMmdl.
154162  0  0  1  0            999 V2000
  -30.9006  -14.2641   20.6548 C   0  0  0  0  0  0
  -30.7995  -12.5988   19.0785 C   0  0  0  0  0  0
  -30.0742  -13.1089   17.4771 C   0  0  0  0  0  0
  -28.4102  -13.9261   17.2842 C   0  0  0  0  0  0
  -27.2717  -13.9799   20.3038 C   0  0  2  0  0  0
  -28.7031  -13.2539   21.3079 C   0  0  0  0  0  0
  -24.9447  -13.9758   20.8172 C   0  0  0  0  0  0
  -23.9822  -13.0664   21.0243 C   0  0  0  0  0  0
  -24.5720  -11.7645   20.9791 C   0  0  0  0  0  0
  -23.9122  -10.4454   21.0568 C   0  0  0  0  0  0
  -24.3690   -9.4301   21.9260 C   0  0  0  0  0  0
  -23.6415   -8.2267   22.0725 C   0  0  0  0  0  0
  -22.4415   -8.0266   21.3493 C   0  0  0  0  0  0
  -22.0110   -9.0218   20.4547 C   0  0  0  0  0  0
  -22.7395  -10.2142   20.3054 C   0  0  0  0  0  0
  -21.6903   -6.0740   22.5264 C   0  0  0  0  0  0
  -21.4059   -6.5651   23.8192 C   0  0  0  0  0  0
  -21.3697   -5.6810   24.9161 C   0  0  0  0  0  0
  -21.6050   -4.3064   24.7229 C   0  0  0  0  0  0
  -21.8798   -3.8146   23.4346 C   0  0  0  0  0  0
  -21.9201   -4.6960   22.3401 C   0  0  0  0  0  0
  -22.5729  -13.4631   21.2054 C   0  0  0  0  0  0
  -22.1657   -4.2120   21.0982 F   0  0  0  0  0  0
  -21.5635   -3.4563   25.7749 F   0  0  0  0  0  0
  -30.2567  -13.0878   20.5971 N   0  0  0  0  0  0
  -26.0753  -13.2670   20.7465 N   0  0  0  0  0  0
  -25.8936  -11.8980   20.8670 N   0  0  0  0  0  0
  -21.8698  -12.7485   22.0641 N   0  0  0  0  0  0
  -24.9564  -15.3584   20.6557 N   0  0  0  0  0  0
  -32.1004  -14.5027   20.5712 O   0  0  0  0  0  0
  -21.6735   -6.8884   21.4214 O   0  0  0  0  0  0
  -22.1351  -14.4832   20.6744 O   0  0  0  0  0  0
  -24.6754  -31.8154   23.1654 C   0  0  0  0  0  0
  -25.9403  -32.4526   23.8137 C   0  0  1  0  0  0
  -27.1080  -26.8148   20.0893 C   0  0  0  0  0  0
  -25.6023  -33.8350   24.2026 N   0  0  0  0  0  0
  -23.4841  -30.4378   21.5238 C   0  0  2  0  0  0
  -24.9069  -28.8211   20.0921 C   0  0  0  0  0  0
  -22.7704  -29.4421   22.4757 C   0  0  0  0  0  0
  -18.0330  -28.1407   22.8471 C   0  0  0  0  0  0
  -24.1510  -36.7169   23.2646 C   0  0  0  0  0  0
  -26.0644  -30.5736   21.4118 C   0  0  0  0  0  0
  -26.1058  -29.1624   20.7302 C   0  0  0  0  0  0
  -27.2078  -28.1764   20.7100 C   0  0  0  0  0  0
  -25.8930  -26.6692   19.4002 C   0  0  0  0  0  0
  -24.8317  -27.5988   19.4140 C   0  0  0  0  0  0
  -23.7141  -29.7729   20.1435 C   0  0  0  0  0  0
  -25.4154  -36.2926   24.0286 C   0  0  1  0  0  0
  -20.5964  -28.3761   23.1176 C   0  0  2  0  0  0
  -20.6809  -26.9442   22.5397 C   0  0  0  0  0  0
  -19.5784  -26.6379   21.5213 C   0  0  0  0  0  0
  -18.1967  -26.7938   22.1623 C   0  0  0  0  0  0
  -19.1594  -28.8903   23.2812 C   0  0  0  0  0  0
  -18.9503  -30.1492   23.8850 C   0  0  0  0  0  0
  -17.6495  -30.6600   24.0563 C   0  0  0  0  0  0
  -25.9135  -34.9316   23.4990 C   0  0  0  0  0  0
  -16.5385  -29.9088   23.6351 C   0  0  0  0  0  0
  -16.7310  -28.6504   23.0375 C   0  0  0  0  0  0
  -26.4588  -31.6512   25.0722 C   0  0  0  0  0  0
  -25.3683  -31.3807   26.1361 C   0  0  0  0  0  0
  -27.0483  -30.2848   24.6570 C   0  0  0  0  0  0
  -27.6062  -32.4350   25.7521 C   0  0  0  0  0  0
  -27.5580  -37.1741   24.8456 C   0  0  0  0  0  0
  -21.4359  -29.3048   22.3519 N   0  0  0  0  0  0
  -26.4281  -37.3677   23.9411 N   0  0  0  0  0  0
  -24.7660  -30.9719   22.0844 N   0  0  0  0  0  0
  -23.4235  -28.7979   23.3004 O   0  0  0  0  0  0
  -27.9836  -25.5856   20.1065 O   0  0  0  0  0  0
  -26.5751  -34.8868   22.4593 O   0  0  0  0  0  0
  -23.5810  -32.1197   23.6687 O   0  0  0  0  0  0
  -26.7170  -15.4450   18.3133 C   0  0  0  0  0  0
  -26.8106  -12.5908   18.3589 C   0  0  0  0  0  0
  -28.1133  -15.9015   18.8711 C   0  0  0  0  0  0
  -29.0963  -14.5989   19.2529 C   0  0  0  0  0  0
  -26.1113  -13.9941   18.0724 C   0  0  0  0  0  0
  -28.3025  -12.5693   19.0004 C   0  0  0  0  0  0
  -28.0690  -20.6423   19.1104 C   0  0  0  0  0  0
  -28.5020  -17.6677   18.8571 C   0  0  0  0  0  0
  -28.0839  -22.2251   19.9748 C   0  0  0  0  0  0
  -27.6132  -23.9937   19.6179 C   0  0  0  0  0  0
  -30.1801  -15.0903   19.9743 N   0  0  0  0  0  0
  -28.0407  -19.1843   19.5195 N   0  0  0  0  0  0
  -28.1700  -20.7913   17.8923 O   0  0  0  0  0  0
  -24.5327  -13.9242   17.3786 Cl  0  0  0  0  0  0
  -28.6533  -10.8890   19.4561 Cl  0  0  0  0  0  0
  -31.8566  -12.8414   18.9422 H   0  0  0  0  0  0
  -30.9705  -11.5237   19.0925 H   0  0  0  0  0  0
  -30.0804  -12.2300   16.8311 H   0  0  0  0  0  0
  -30.7980  -13.7746   17.0046 H   0  0  0  0  0  0
  -27.9000  -13.3927   16.4677 H   0  0  0  0  0  0
  -28.6058  -14.8762   16.7721 H   0  0  0  0  0  0
  -27.2548  -14.9430   20.8262 H   0  0  0  0  0  0
  -28.4212  -12.2854   21.7213 H   0  0  0  0  0  0
  -28.8072  -13.8632   22.2066 H   0  0  0  0  0  0
  -25.2667   -9.5896   22.5057 H   0  0  0  0  0  0
  -24.0088   -7.4688   22.7499 H   0  0  0  0  0  0
  -21.1066   -8.8727   19.8809 H   0  0  0  0  0  0
  -22.3747  -10.9717   19.6265 H   0  0  0  0  0  0
  -21.2070   -7.6162   23.9693 H   0  0  0  0  0  0
  -21.1551   -6.0550   25.9068 H   0  0  0  0  0  0
  -22.0534   -2.7597   23.2863 H   0  0  0  0  0  0
  -22.2657  -11.9424   22.5240 H   0  0  0  0  0  0
  -20.9177  -13.0143   22.2730 H   0  0  0  0  0  0
  -24.0927  -15.8879   20.6082 H   0  0  0  0  0  0
  -25.7706  -15.8964   20.3908 H   0  0  0  0  0  0
  -26.7483  -32.4986   23.0846 H   0  0  0  0  0  0
  -25.0088  -33.9415   25.0121 H   0  0  0  0  0  0
  -22.8022  -31.2765   21.3648 H   0  0  0  0  0  0
  -23.3799  -35.9469   23.3229 H   0  0  0  0  0  0
  -24.3593  -36.8898   22.2078 H   0  0  0  0  0  0
  -23.7244  -37.6318   23.6761 H   0  0  0  0  0  0
  -26.2778  -31.3200   20.6455 H   0  0  0  0  0  0
  -26.9133  -30.6080   22.0818 H   0  0  0  0  0  0
  -28.1162  -28.4258   21.2398 H   0  0  0  0  0  0
  -25.7101  -25.7527   18.8610 H   0  0  0  0  0  0
  -23.9213  -27.3420   18.8905 H   0  0  0  0  0  0
  -23.8825  -30.5515   19.3989 H   0  0  0  0  0  0
  -22.8109  -29.2538   19.8192 H   0  0  0  0  0  0
  -25.1361  -36.1695   25.0772 H   0  0  0  0  0  0
  -21.0058  -28.3359   24.1299 H   0  0  0  0  0  0
  -20.5695  -26.2387   23.3644 H   0  0  0  0  0  0
  -21.6673  -26.7427   22.1207 H   0  0  0  0  0  0
  -19.6958  -25.6279   21.1282 H   0  0  0  0  0  0
  -19.6709  -27.3159   20.6719 H   0  0  0  0  0  0
  -17.4240  -26.6684   21.4026 H   0  0  0  0  0  0
  -18.0358  -26.0087   22.9024 H   0  0  0  0  0  0
  -19.7975  -30.7326   24.2197 H   0  0  0  0  0  0
  -17.5044  -31.6276   24.5174 H   0  0  0  0  0  0
  -15.5383  -30.2984   23.7685 H   0  0  0  0  0  0
  -15.8709  -28.0807   22.7123 H   0  0  0  0  0  0
  -24.5915  -30.7087   25.7688 H   0  0  0  0  0  0
  -24.8818  -32.3014   26.4591 H   0  0  0  0  0  0
  -25.7896  -30.9130   27.0272 H   0  0  0  0  0  0
  -26.3163  -29.6497   24.1571 H   0  0  0  0  0  0
  -27.3913  -29.7263   25.5288 H   0  0  0  0  0  0
  -27.9154  -30.3955   24.0060 H   0  0  0  0  0  0
  -27.2625  -33.3732   26.1891 H   0  0  0  0  0  0
  -28.3963  -32.6781   25.0405 H   0  0  0  0  0  0
  -28.0628  -31.8626   26.5606 H   0  0  0  0  0  0
  -28.2537  -38.0095   24.7551 H   0  0  0  0  0  0
  -28.1140  -36.2623   24.6224 H   0  0  0  0  0  0
  -27.2297  -37.1295   25.8854 H   0  0  0  0  0  0
  -20.9613  -29.8736   21.6643 H   0  0  0  0  0  0
  -26.0109  -38.2720   24.1437 H   0  0  0  0  0  0
  -26.0643  -16.2544   18.0180 H   0  0  0  0  0  0
  -26.2794  -11.6694   18.1722 H   0  0  0  0  0  0
  -28.4580  -17.8816   17.7897 H   0  0  0  0  0  0
  -29.5715  -17.6661   19.0652 H   0  0  0  0  0  0
  -29.1513  -22.3121   20.1777 H   0  0  0  0  0  0
  -27.6599  -22.0036   20.9544 H   0  0  0  0  0  0
  -26.5440  -23.9543   19.8226 H   0  0  0  0  0  0
  -27.6665  -24.0652   18.5321 H   0  0  0  0  0  0
  -30.5414  -16.0082   19.7745 H   0  0  0  0  0  0
  -27.8461  -19.0989   20.5096 H   0  0  0  0  0  0
  1 25  1  0  0  0
  1 30  2  0  0  0
  1 81  1  0  0  0
  2  3  1  0  0  0
  2 25  1  0  0  0
  2 86  1  0  0  0
  2 87  1  0  0  0
  3  4  1  0  0  0
  3 88  1  0  0  0
  3 89  1  0  0  0
  4  5  1  0  0  0
  4 90  1  0  0  0
  4 91  1  0  0  0
  5  6  1  0  0  0
  5 26  1  0  0  0
  5 92  1  0  0  0
  6 25  1  0  0  0
  6 93  1  0  0  0
  6 94  1  0  0  0
  7  8  2  0  0  0
  7 26  1  0  0  0
  7 29  1  0  0  0
  8  9  1  0  0  0
  8 22  1  0  0  0
  9 10  1  0  0  0
  9 27  2  0  0  0
 10 11  2  0  0  0
 10 15  1  0  0  0
 11 12  1  0  0  0
 11 95  1  0  0  0
 12 13  2  0  0  0
 12 96  1  0  0  0
 13 14  1  0  0  0
 13 31  1  0  0  0
 14 15  2  0  0  0
 14 97  1  0  0  0
 15 98  1  0  0  0
 16 17  2  0  0  0
 16 21  1  0  0  0
 16 31  1  0  0  0
 17 18  1  0  0  0
 17 99  1  0  0  0
 18 19  2  0  0  0
 18100  1  0  0  0
 19 20  1  0  0  0
 19 24  1  0  0  0
 20 21  2  0  0  0
 20101  1  0  0  0
 21 23  1  0  0  0
 22 28  1  0  0  0
 22 32  2  0  0  0
 26 27  1  0  0  0
 28102  1  0  0  0
 28103  1  0  0  0
 29104  1  0  0  0
 29105  1  0  0  0
 33 34  1  0  0  0
 33 66  1  0  0  0
 33 70  2  0  0  0
 34 36  1  0  0  0
 34 59  1  0  0  0
 34106  1  0  0  0
 35 44  2  0  0  0
 35 45  1  0  0  0
 35 68  1  0  0  0
 36 56  1  0  0  0
 36107  1  0  0  0
 37 39  1  0  0  0
 37 47  1  0  0  0
 37 66  1  0  0  0
 37108  1  0  0  0
 38 43  2  0  0  0
 38 46  1  0  0  0
 38 47  1  0  0  0
 39 64  1  0  0  0
 39 67  2  0  0  0
 40 52  1  0  0  0
 40 53  2  0  0  0
 40 58  1  0  0  0
 41109  1  0  0  0
 41110  1  0  0  0
 41111  1  0  0  0
 41 48  1  0  0  0
 42 43  1  0  0  0
 42 66  1  0  0  0
 42112  1  0  0  0
 42113  1  0  0  0
 43 44  1  0  0  0
 44114  1  0  0  0
 45 46  2  0  0  0
 45115  1  0  0  0
 46116  1  0  0  0
 47117  1  0  0  0
 47118  1  0  0  0
 48 56  1  0  0  0
 48 65  1  0  0  0
 48119  1  0  0  0
 49 50  1  0  0  0
 49 53  1  0  0  0
 49 64  1  0  0  0
 49120  1  0  0  0
 50 51  1  0  0  0
 50121  1  0  0  0
 50122  1  0  0  0
 51 52  1  0  0  0
 51123  1  0  0  0
 51124  1  0  0  0
 52125  1  0  0  0
 52126  1  0  0  0
 53 54  1  0  0  0
 54 55  2  0  0  0
 54127  1  0  0  0
 55 57  1  0  0  0
 55128  1  0  0  0
 56 69  2  0  0  0
 57 58  2  0  0  0
 57129  1  0  0  0
 58130  1  0  0  0
 59 60  1  0  0  0
 59 61  1  0  0  0
 59 62  1  0  0  0
 60131  1  0  0  0
 60132  1  0  0  0
 60133  1  0  0  0
 61134  1  0  0  0
 61135  1  0  0  0
 61136  1  0  0  0
 62137  1  0  0  0
 62138  1  0  0  0
 62139  1  0  0  0
 63 65  1  0  0  0
 63140  1  0  0  0
 63141  1  0  0  0
 63142  1  0  0  0
 64143  1  0  0  0
 65144  1  0  0  0
 68 80  1  0  0  0
 71 73  2  0  0  0
 71 75  1  0  0  0
 71145  1  0  0  0
 72 75  2  0  0  0
 72 76  1  0  0  0
 72146  1  0  0  0
 73 74  1  0  0  0
 73 78  1  0  0  0
 74 76  2  0  0  0
 74 81  1  0  0  0
 75 84  1  0  0  0
 76 85  1  0  0  0
 77 79  1  0  0  0
 77 82  1  0  0  0
 77 83  2  0  0  0
 78 82  1  0  0  0
 78147  1  0  0  0
 78148  1  0  0  0
 79 80  1  0  0  0
 79149  1  0  0  0
 79150  1  0  0  0
 80151  1  0  0  0
 80152  1  0  0  0
 81153  1  0  0  0
 82154  1  0  0  0
M  ISO  4   1 100  68 101  80 101  81 100
M  END
> <chiral flag>
0

> <version>
0

> <s_m_source_file>
/data/baiqing/PycharmProjects/Reinvent-master-3.2/result/LINK_invent/BTK/process_docking_weight1_custom_product_contain_oxygen_bond_distance_aromatic_linkinvent_7_9_3/rearranged_h_0042.sdf

> <i_m_source_file_index>
77

> <r_mmod_Potential_Energy-OPLS-2005>
10537.642578125

> <r_mmod_Stretch_Energy-OPLS-2005>
6237.486328125

> <r_mmod_Bend_Energy-OPLS-2005>
809.009582519531

> <r_mmod_Torsional_Energy-OPLS-2005>
318.611450195312

> <r_mmod_Improper_Torsional_Energy-OPLS-2005>
39.9732856750488

> <r_mmod_Van_der_Waal_Energy-OPLS-2005>
2712.34643554688

> <r_mmod_Electrostatic_Energy-OPLS-2005>
-480.521575927734

> <r_mmod_Solvation_Energy-OPLS-2005>
-247.640228271484

> <b_mmod_Minimization_Converged-OPLS-2005>
0

> <r_mmod_RMS_Derivative-OPLS-2005>
4.0743236541748

$$$$
77
                    3D
 Structure written by MMmdl.
156164  0  0  1  0            999 V2000
  -30.6295  -14.7297   20.4897 C   0  0  0  0  0  0
  -30.4372  -12.4539   19.4701 C   0  0  0  0  0  0
  -29.5108  -12.5082   18.2364 C   0  0  0  0  0  0
  -28.0391  -12.3257   18.6539 C   0  0  0  0  0  0
  -27.6444  -13.2279   19.8530 C   0  0  2  0  0  0
  -28.6900  -13.1592   20.9885 C   0  0  0  0  0  0
  -25.2533  -13.8191   20.5693 C   0  0  0  0  0  0
  -24.1824  -13.0448   20.9217 C   0  0  0  0  0  0
  -24.6399  -11.6919   20.8758 C   0  0  0  0  0  0
  -23.9069  -10.4301   21.0410 C   0  0  0  0  0  0
  -24.3620   -9.4214   21.9185 C   0  0  0  0  0  0
  -23.6298   -8.2250   22.0744 C   0  0  0  0  0  0
  -22.4283   -8.0284   21.3535 C   0  0  0  0  0  0
  -21.9921   -9.0256   20.4638 C   0  0  0  0  0  0
  -22.7244  -10.2138   20.3055 C   0  0  0  0  0  0
  -21.6855   -6.0748   22.5279 C   0  0  0  0  0  0
  -21.4010   -6.5645   23.8208 C   0  0  0  0  0  0
  -21.3669   -5.6796   24.9172 C   0  0  0  0  0  0
  -21.6046   -4.3052   24.7219 C   0  0  0  0  0  0
  -21.8825   -3.8152   23.4335 C   0  0  0  0  0  0
  -21.9186   -4.6977   22.3396 C   0  0  0  0  0  0
  -22.7840  -13.5234   21.1876 C   0  0  0  0  0  0
  -22.1662   -4.2165   21.0972 F   0  0  0  0  0  0
  -21.5631   -3.4527   25.7731 F   0  0  0  0  0  0
  -29.9918  -13.5112   20.4038 N   0  0  0  0  0  0
  -26.2959  -12.9398   20.3287 N   0  0  0  0  0  0
  -25.9327  -11.6544   20.5760 N   0  0  0  0  0  0
  -22.0468  -12.8217   22.0414 N   0  0  0  0  0  0
  -25.4228  -15.1920   20.4103 N   0  0  0  0  0  0
  -31.8126  -14.8274   20.1529 O   0  0  0  0  0  0
  -21.6638   -6.8888   21.4243 O   0  0  0  0  0  0
  -22.3524  -14.5552   20.6733 O   0  0  0  0  0  0
  -24.6305  -31.8547   23.1991 C   0  0  0  0  0  0
  -25.9121  -32.4759   23.8350 C   0  0  1  0  0  0
  -27.2239  -27.2666   20.1455 C   0  0  0  0  0  0
  -25.5934  -33.8559   24.2262 N   0  0  0  0  0  0
  -23.4298  -30.4749   21.5409 C   0  0  2  0  0  0
  -24.8794  -28.9197   20.1151 C   0  0  0  0  0  0
  -22.7516  -29.4557   22.4907 C   0  0  0  0  0  0
  -18.0296  -28.1383   22.8462 C   0  0  0  0  0  0
  -24.1492  -36.7285   23.2644 C   0  0  0  0  0  0
  -25.9738  -30.7737   21.3759 C   0  0  0  0  0  0
  -26.0494  -29.3926   20.7248 C   0  0  0  0  0  0
  -27.2273  -28.5792   20.7233 C   0  0  0  0  0  0
  -26.0333  -26.8577   19.5073 C   0  0  0  0  0  0
  -24.8754  -27.6603   19.4940 C   0  0  0  0  0  0
  -23.6521  -29.8099   20.1556 C   0  0  0  0  0  0
  -25.4121  -36.3066   24.0331 C   0  0  1  0  0  0
  -20.5911  -28.3683   23.1260 C   0  0  2  0  0  0
  -20.6783  -26.9405   22.5399 C   0  0  0  0  0  0
  -19.5764  -26.6384   21.5194 C   0  0  0  0  0  0
  -18.1933  -26.7919   22.1598 C   0  0  0  0  0  0
  -19.1557  -28.8850   23.2852 C   0  0  0  0  0  0
  -18.9475  -30.1450   23.8881 C   0  0  0  0  0  0
  -17.6473  -30.6588   24.0545 C   0  0  0  0  0  0
  -25.9050  -34.9440   23.5102 C   0  0  0  0  0  0
  -16.5356  -29.9082   23.6321 C   0  0  0  0  0  0
  -16.7278  -28.6504   23.0336 C   0  0  0  0  0  0
  -26.4490  -31.6604   25.0738 C   0  0  0  0  0  0
  -25.3719  -31.3746   26.1467 C   0  0  0  0  0  0
  -27.0360  -30.3038   24.6214 C   0  0  0  0  0  0
  -27.6056  -32.4345   25.7489 C   0  0  0  0  0  0
  -27.5568  -37.1806   24.8464 C   0  0  0  0  0  0
  -21.4218  -29.3033   22.3652 N   0  0  0  0  0  0
  -26.4287  -37.3767   23.9403 N   0  0  0  0  0  0
  -24.6969  -31.0529   22.0964 N   0  0  0  0  0  0
  -23.4215  -28.8067   23.2985 O   0  0  0  0  0  0
  -28.3269  -26.3884   20.1588 O   0  0  0  0  0  0
  -26.5603  -34.8890   22.4656 O   0  0  0  0  0  0
  -23.5445  -32.1343   23.7291 O   0  0  0  0  0  0
  -30.9087  -20.0162   21.6157 C   0  0  0  0  0  0
  -31.5336  -18.9366   22.2661 C   0  0  0  0  0  0
  -29.5734  -18.4166   20.3674 C   0  0  0  0  0  0
  -29.8953  -19.8086   20.6601 C   0  0  0  0  0  0
  -31.1977  -17.5913   21.9918 C   0  0  0  0  0  0
  -30.2304  -17.2736   20.9958 C   0  0  0  0  0  0
  -31.8883  -16.5315   22.8373 C   0  0  0  0  0  0
  -29.3348  -21.0947   19.8960 C   0  0  0  0  0  0
  -28.8662  -23.7189   19.9335 C   0  0  0  0  0  0
  -28.1407  -24.9781   20.6483 C   0  0  0  0  0  0
  -29.8586  -15.8575   20.7347 N   0  0  0  0  0  0
  -28.9008  -22.3544   20.6622 N   0  3  0  0  0  0
  -31.4767  -12.5824   19.1636 H   0  0  0  0  0  0
  -30.3839  -11.4772   19.9534 H   0  0  0  0  0  0
  -29.7965  -11.7378   17.5203 H   0  0  0  0  0  0
  -29.6336  -13.4627   17.7222 H   0  0  0  0  0  0
  -27.9031  -11.2779   18.9216 H   0  0  0  0  0  0
  -27.3795  -12.5091   17.8058 H   0  0  0  0  0  0
  -27.6398  -14.2489   19.4715 H   0  0  0  0  0  0
  -28.7251  -12.1616   21.4283 H   0  0  0  0  0  0
  -28.4233  -13.8383   21.7999 H   0  0  0  0  0  0
  -25.2760   -9.5700   22.4757 H   0  0  0  0  0  0
  -24.0013   -7.4643   22.7453 H   0  0  0  0  0  0
  -21.0854   -8.8787   19.8924 H   0  0  0  0  0  0
  -22.3710  -10.9687   19.6168 H   0  0  0  0  0  0
  -21.2006   -7.6148   23.9730 H   0  0  0  0  0  0
  -21.1486   -6.0509   25.9081 H   0  0  0  0  0  0
  -22.0593   -2.7610   23.2825 H   0  0  0  0  0  0
  -22.4076  -11.9867   22.4800 H   0  0  0  0  0  0
  -21.1084  -13.1244   22.2627 H   0  0  0  0  0  0
  -24.6521  -15.8433   20.5138 H   0  0  0  0  0  0
  -26.2660  -15.6292   20.0641 H   0  0  0  0  0  0
  -26.7197  -32.5408   23.1101 H   0  0  0  0  0  0
  -25.0116  -33.9710   25.0424 H   0  0  0  0  0  0
  -22.7251  -31.2963   21.3940 H   0  0  0  0  0  0
  -23.3738  -35.9625   23.3310 H   0  0  0  0  0  0
  -24.3592  -36.8899   22.2054 H   0  0  0  0  0  0
  -23.7244  -37.6494   23.6668 H   0  0  0  0  0  0
  -26.1096  -31.5350   20.6063 H   0  0  0  0  0  0
  -26.8514  -30.8266   22.0087 H   0  0  0  0  0  0
  -28.1291  -28.9363   21.2016 H   0  0  0  0  0  0
  -25.9912  -25.8966   19.0151 H   0  0  0  0  0  0
  -23.9821  -27.2978   19.0035 H   0  0  0  0  0  0
  -23.7855  -30.5881   19.4021 H   0  0  0  0  0  0
  -22.7697  -29.2479   19.8433 H   0  0  0  0  0  0
  -25.1304  -36.1918   25.0827 H   0  0  0  0  0  0
  -20.9994  -28.3269   24.1387 H   0  0  0  0  0  0
  -20.5687  -26.2292   23.3602 H   0  0  0  0  0  0
  -21.6642  -26.7415   22.1197 H   0  0  0  0  0  0
  -19.6923  -25.6292   21.1246 H   0  0  0  0  0  0
  -19.6718  -27.3166   20.6701 H   0  0  0  0  0  0
  -17.4197  -26.6646   21.4008 H   0  0  0  0  0  0
  -18.0340  -26.0066   22.9006 H   0  0  0  0  0  0
  -19.7959  -30.7256   24.2258 H   0  0  0  0  0  0
  -17.5032  -31.6271   24.5142 H   0  0  0  0  0  0
  -15.5364  -30.2971   23.7692 H   0  0  0  0  0  0
  -15.8659  -28.0840   22.7047 H   0  0  0  0  0  0
  -24.5911  -30.7072   25.7798 H   0  0  0  0  0  0
  -24.8889  -32.2916   26.4867 H   0  0  0  0  0  0
  -25.8050  -30.8959   27.0257 H   0  0  0  0  0  0
  -26.2956  -29.6765   24.1233 H   0  0  0  0  0  0
  -27.4064  -29.7311   25.4724 H   0  0  0  0  0  0
  -27.8813  -30.4345   23.9440 H   0  0  0  0  0  0
  -27.2707  -33.3665   26.2040 H   0  0  0  0  0  0
  -28.3877  -32.6869   25.0321 H   0  0  0  0  0  0
  -28.0707  -31.8484   26.5426 H   0  0  0  0  0  0
  -28.2592  -38.0085   24.7501 H   0  0  0  0  0  0
  -28.1061  -36.2632   24.6324 H   0  0  0  0  0  0
  -27.2296  -37.1480   25.8863 H   0  0  0  0  0  0
  -20.9380  -29.8792   21.6899 H   0  0  0  0  0  0
  -26.0161  -38.2834   24.1420 H   0  0  0  0  0  0
  -31.2349  -21.0196   21.8543 H   0  0  0  0  0  0
  -32.2946  -19.1567   23.0023 H   0  0  0  0  0  0
  -28.8255  -18.2193   19.6128 H   0  0  0  0  0  0
  -32.1792  -16.9384   23.8068 H   0  0  0  0  0  0
  -32.7924  -16.1761   22.3422 H   0  0  0  0  0  0
  -31.2369  -15.6834   23.0437 H   0  0  0  0  0  0
  -28.5193  -20.7895   19.2400 H   0  0  0  0  0  0
  -30.1386  -21.4053   19.2273 H   0  0  0  0  0  0
  -29.8995  -24.0034   19.7292 H   0  0  0  0  0  0
  -28.4003  -23.5708   18.9590 H   0  0  0  0  0  0
  -27.0780  -24.7434   20.7297 H   0  0  0  0  0  0
  -28.4861  -24.9957   21.6816 H   0  0  0  0  0  0
  -28.8697  -15.6661   20.7823 H   0  0  0  0  0  0
  -27.9835  -22.1557   21.0303 H   0  0  0  0  0  0
  -29.5142  -22.4446   21.4562 H   0  0  0  0  0  0
  1 25  1  0  0  0
  1 30  2  0  0  0
  1 81  1  0  0  0
  2  3  1  0  0  0
  2 25  1  0  0  0
  2 83  1  0  0  0
  2 84  1  0  0  0
  3  4  1  0  0  0
  3 85  1  0  0  0
  3 86  1  0  0  0
  4  5  1  0  0  0
  4 87  1  0  0  0
  4 88  1  0  0  0
  5  6  1  0  0  0
  5 26  1  0  0  0
  5 89  1  0  0  0
  6 25  1  0  0  0
  6 90  1  0  0  0
  6 91  1  0  0  0
  7  8  2  0  0  0
  7 26  1  0  0  0
  7 29  1  0  0  0
  8  9  1  0  0  0
  8 22  1  0  0  0
  9 10  1  0  0  0
  9 27  2  0  0  0
 10 11  2  0  0  0
 10 15  1  0  0  0
 11 12  1  0  0  0
 11 92  1  0  0  0
 12 13  2  0  0  0
 12 93  1  0  0  0
 13 14  1  0  0  0
 13 31  1  0  0  0
 14 15  2  0  0  0
 14 94  1  0  0  0
 15 95  1  0  0  0
 16 17  2  0  0  0
 16 21  1  0  0  0
 16 31  1  0  0  0
 17 18  1  0  0  0
 17 96  1  0  0  0
 18 19  2  0  0  0
 18 97  1  0  0  0
 19 20  1  0  0  0
 19 24  1  0  0  0
 20 21  2  0  0  0
 20 98  1  0  0  0
 21 23  1  0  0  0
 22 28  1  0  0  0
 22 32  2  0  0  0
 26 27  1  0  0  0
 28 99  1  0  0  0
 28100  1  0  0  0
 29101  1  0  0  0
 29102  1  0  0  0
 33 34  1  0  0  0
 33 66  1  0  0  0
 33 70  2  0  0  0
 34 36  1  0  0  0
 34 59  1  0  0  0
 34103  1  0  0  0
 35 44  2  0  0  0
 35 45  1  0  0  0
 35 68  1  0  0  0
 36 56  1  0  0  0
 36104  1  0  0  0
 37 39  1  0  0  0
 37 47  1  0  0  0
 37 66  1  0  0  0
 37105  1  0  0  0
 38 43  2  0  0  0
 38 46  1  0  0  0
 38 47  1  0  0  0
 39 64  1  0  0  0
 39 67  2  0  0  0
 40 52  1  0  0  0
 40 53  2  0  0  0
 40 58  1  0  0  0
 41106  1  0  0  0
 41107  1  0  0  0
 41108  1  0  0  0
 41 48  1  0  0  0
 42 43  1  0  0  0
 42 66  1  0  0  0
 42109  1  0  0  0
 42110  1  0  0  0
 43 44  1  0  0  0
 44111  1  0  0  0
 45 46  2  0  0  0
 45112  1  0  0  0
 46113  1  0  0  0
 47114  1  0  0  0
 47115  1  0  0  0
 48 56  1  0  0  0
 48 65  1  0  0  0
 48116  1  0  0  0
 49 50  1  0  0  0
 49 53  1  0  0  0
 49 64  1  0  0  0
 49117  1  0  0  0
 50 51  1  0  0  0
 50118  1  0  0  0
 50119  1  0  0  0
 51 52  1  0  0  0
 51120  1  0  0  0
 51121  1  0  0  0
 52122  1  0  0  0
 52123  1  0  0  0
 53 54  1  0  0  0
 54 55  2  0  0  0
 54124  1  0  0  0
 55 57  1  0  0  0
 55125  1  0  0  0
 56 69  2  0  0  0
 57 58  2  0  0  0
 57126  1  0  0  0
 58127  1  0  0  0
 59 60  1  0  0  0
 59 61  1  0  0  0
 59 62  1  0  0  0
 60128  1  0  0  0
 60129  1  0  0  0
 60130  1  0  0  0
 61131  1  0  0  0
 61132  1  0  0  0
 61133  1  0  0  0
 62134  1  0  0  0
 62135  1  0  0  0
 62136  1  0  0  0
 63 65  1  0  0  0
 63137  1  0  0  0
 63138  1  0  0  0
 63139  1  0  0  0
 64140  1  0  0  0
 65141  1  0  0  0
 68 80  1  0  0  0
 71 72  2  0  0  0
 71 74  1  0  0  0
 71142  1  0  0  0
 72 75  1  0  0  0
 72143  1  0  0  0
 73 74  2  0  0  0
 73 76  1  0  0  0
 73144  1  0  0  0
 74 78  1  0  0  0
 75 76  2  0  0  0
 75 77  1  0  0  0
 76 81  1  0  0  0
 77145  1  0  0  0
 77146  1  0  0  0
 77147  1  0  0  0
 78 82  1  0  0  0
 78148  1  0  0  0
 78149  1  0  0  0
 79 80  1  0  0  0
 79 82  1  0  0  0
 79150  1  0  0  0
 79151  1  0  0  0
 80152  1  0  0  0
 80153  1  0  0  0
 81154  1  0  0  0
 82155  1  0  0  0
 82156  1  0  0  0
M  CHG  1  82   1
M  ISO  4   1 100  68 101  80 101  81 100
M  END
> <chiral flag>
0

> <version>
0

> <s_m_source_file>
/data/baiqing/PycharmProjects/Reinvent-master-3.2/result/LINK_invent/BTK/process_docking_weight1_custom_product_contain_oxygen_bond_distance_aromatic_linkinvent_7_9_3/rearranged_h_0042.sdf

> <i_m_source_file_index>
78

> <r_mmod_Potential_Energy-OPLS-2005>
-25.3458137512207

> <r_mmod_Stretch_Energy-OPLS-2005>
120.310928344727

> <r_mmod_Bend_Energy-OPLS-2005>
155.562118530273

> <r_mmod_Torsional_Energy-OPLS-2005>
241.301834106445

> <r_mmod_Improper_Torsional_Energy-OPLS-2005>
5.85196733474731

> <r_mmod_Van_der_Waal_Energy-OPLS-2005>
137.241470336914

> <r_mmod_Electrostatic_Energy-OPLS-2005>
-297.775299072266

> <r_mmod_Solvation_Energy-OPLS-2005>
-466.368591308594

> <b_mmod_Minimization_Converged-OPLS-2005>
0

> <r_mmod_RMS_Derivative-OPLS-2005>
2.86271786689758

$$$$
78
                    3D
 Structure written by MMmdl.
164173  0  0  1  0            999 V2000
  -30.6939  -14.7519   20.4372 C   0  0  0  0  0  0
  -30.4164  -12.4572   19.4842 C   0  0  0  0  0  0
  -29.5085  -12.5150   18.2379 C   0  0  0  0  0  0
  -28.0340  -12.3529   18.6469 C   0  0  0  0  0  0
  -27.6409  -13.2525   19.8492 C   0  0  2  0  0  0
  -28.6936  -13.2305   20.9828 C   0  0  0  0  0  0
  -25.2498  -13.8238   20.5713 C   0  0  0  0  0  0
  -24.1814  -13.0454   20.9222 C   0  0  0  0  0  0
  -24.6426  -11.6938   20.8746 C   0  0  0  0  0  0
  -23.9104  -10.4301   21.0403 C   0  0  0  0  0  0
  -24.3652   -9.4216   21.9167 C   0  0  0  0  0  0
  -23.6316   -8.2256   22.0749 C   0  0  0  0  0  0
  -22.4295   -8.0295   21.3546 C   0  0  0  0  0  0
  -21.9950   -9.0262   20.4640 C   0  0  0  0  0  0
  -22.7292  -10.2134   20.3044 C   0  0  0  0  0  0
  -21.6860   -6.0754   22.5282 C   0  0  0  0  0  0
  -21.4015   -6.5645   23.8218 C   0  0  0  0  0  0
  -21.3661   -5.6792   24.9173 C   0  0  0  0  0  0
  -21.6047   -4.3058   24.7225 C   0  0  0  0  0  0
  -21.8820   -3.8148   23.4349 C   0  0  0  0  0  0
  -21.9191   -4.6972   22.3404 C   0  0  0  0  0  0
  -22.7815  -13.5204   21.1866 C   0  0  0  0  0  0
  -22.1666   -4.2151   21.0972 F   0  0  0  0  0  0
  -21.5625   -3.4542   25.7736 F   0  0  0  0  0  0
  -29.9967  -13.5579   20.3872 N   0  0  0  0  0  0
  -26.2957  -12.9500   20.3313 N   0  0  0  0  0  0
  -25.9370  -11.6612   20.5782 N   0  0  0  0  0  0
  -22.0467  -12.8182   22.0401 N   0  0  0  0  0  0
  -25.4111  -15.1982   20.4126 N   0  0  0  0  0  0
  -31.8817  -14.7340   20.1144 O   0  0  0  0  0  0
  -21.6653   -6.8899   21.4240 O   0  0  0  0  0  0
  -22.3488  -14.5513   20.6715 O   0  0  0  0  0  0
  -24.6319  -31.8545   23.1982 C   0  0  0  0  0  0
  -25.9138  -32.4746   23.8313 C   0  0  1  0  0  0
  -27.2385  -27.2750   20.1149 C   0  0  0  0  0  0
  -25.5937  -33.8546   24.2229 N   0  0  0  0  0  0
  -23.4293  -30.4770   21.5427 C   0  0  2  0  0  0
  -24.8779  -28.9191   20.1166 C   0  0  0  0  0  0
  -22.7496  -29.4597   22.4910 C   0  0  0  0  0  0
  -18.0284  -28.1401   22.8469 C   0  0  0  0  0  0
  -24.1484  -36.7277   23.2631 C   0  0  0  0  0  0
  -25.9748  -30.7715   21.3765 C   0  0  0  0  0  0
  -26.0502  -29.3935   20.7179 C   0  0  0  0  0  0
  -27.2336  -28.5853   20.7040 C   0  0  0  0  0  0
  -26.0393  -26.8680   19.4884 C   0  0  0  0  0  0
  -24.8746  -27.6606   19.4950 C   0  0  0  0  0  0
  -23.6457  -29.8048   20.1616 C   0  0  0  0  0  0
  -25.4114  -36.3076   24.0322 C   0  0  1  0  0  0
  -20.5877  -28.3702   23.1264 C   0  0  2  0  0  0
  -20.6772  -26.9416   22.5426 C   0  0  0  0  0  0
  -19.5764  -26.6392   21.5222 C   0  0  0  0  0  0
  -18.1924  -26.7941   22.1608 C   0  0  0  0  0  0
  -19.1532  -28.8869   23.2851 C   0  0  0  0  0  0
  -18.9470  -30.1460   23.8890 C   0  0  0  0  0  0
  -17.6470  -30.6589   24.0577 C   0  0  0  0  0  0
  -25.9072  -34.9440   23.5082 C   0  0  0  0  0  0
  -16.5350  -29.9100   23.6340 C   0  0  0  0  0  0
  -16.7270  -28.6513   23.0359 C   0  0  0  0  0  0
  -26.4501  -31.6590   25.0720 C   0  0  0  0  0  0
  -25.3703  -31.3748   26.1429 C   0  0  0  0  0  0
  -27.0355  -30.3014   24.6218 C   0  0  0  0  0  0
  -27.6061  -32.4327   25.7496 C   0  0  0  0  0  0
  -27.5601  -37.1764   24.8433 C   0  0  0  0  0  0
  -21.4200  -29.3030   22.3654 N   0  0  0  0  0  0
  -26.4273  -37.3798   23.9437 N   0  0  0  0  0  0
  -24.6978  -31.0508   22.0958 N   0  0  0  0  0  0
  -23.4190  -28.8148   23.3023 O   0  0  0  0  0  0
  -28.3632  -26.4133   20.1272 O   0  0  0  0  0  0
  -26.5641  -34.8913   22.4650 O   0  0  0  0  0  0
  -23.5483  -32.1354   23.7298 O   0  0  0  0  0  0
  -29.7103  -18.5818   20.3343 C   0  0  0  0  0  0
  -31.9297  -17.6462   20.4715 C   0  0  0  0  0  0
  -30.2284  -19.9297   20.0837 C   0  0  0  0  0  0
  -31.6419  -20.0387   19.9383 C   0  0  0  0  0  0
  -30.5388  -17.3846   20.4767 C   0  0  0  0  0  0
  -32.4717  -18.9151   20.1945 C   0  0  0  0  0  0
  -29.3390  -23.9761   19.7675 C   0  0  0  0  0  0
  -30.1608  -24.3785   18.7802 C   0  0  0  0  0  0
  -27.9474  -23.2063   22.2199 C   0  0  0  0  0  0
  -27.9320  -24.6933   21.8349 C   0  0  0  0  0  0
  -29.3198  -22.5863   21.9284 C   0  0  0  0  0  0
  -28.2001  -24.9274   20.3362 C   0  0  1  0  0  0
  -32.2744  -21.3353   19.4314 C   0  0  0  0  0  0
  -29.3123  -21.2271   19.8120 C   0  0  0  0  0  0
  -30.0367  -15.9712   20.6293 N   0  0  0  0  0  0
  -29.6226  -22.5859   20.4800 N   0  3  1  0  0  0
  -34.2001  -19.0358   20.1325 Cl  0  0  0  0  0  0
  -31.4642  -12.5266   19.1846 H   0  0  0  0  0  0
  -30.3176  -11.4931   19.9880 H   0  0  0  0  0  0
  -29.7882  -11.7356   17.5276 H   0  0  0  0  0  0
  -29.6485  -13.4668   17.7227 H   0  0  0  0  0  0
  -27.8768  -11.3036   18.8968 H   0  0  0  0  0  0
  -27.3859  -12.5617   17.7961 H   0  0  0  0  0  0
  -27.6239  -14.2698   19.4588 H   0  0  0  0  0  0
  -28.7269  -12.2534   21.4665 H   0  0  0  0  0  0
  -28.4363  -13.9508   21.7615 H   0  0  0  0  0  0
  -25.2792   -9.5679   22.4755 H   0  0  0  0  0  0
  -24.0016   -7.4649   22.7476 H   0  0  0  0  0  0
  -21.0883   -8.8791   19.8945 H   0  0  0  0  0  0
  -22.3753  -10.9674   19.6152 H   0  0  0  0  0  0
  -21.2015   -7.6147   23.9720 H   0  0  0  0  0  0
  -21.1480   -6.0521   25.9074 H   0  0  0  0  0  0
  -22.0596   -2.7609   23.2845 H   0  0  0  0  0  0
  -22.4103  -11.9844   22.4793 H   0  0  0  0  0  0
  -21.1062  -13.1147   22.2584 H   0  0  0  0  0  0
  -24.6365  -15.8455   20.5159 H   0  0  0  0  0  0
  -26.2524  -15.6416   20.0668 H   0  0  0  0  0  0
  -26.7212  -32.5411   23.1049 H   0  0  0  0  0  0
  -25.0081  -33.9673   25.0390 H   0  0  0  0  0  0
  -22.7257  -31.3015   21.3936 H   0  0  0  0  0  0
  -23.3776  -35.9584   23.3259 H   0  0  0  0  0  0
  -24.3578  -36.8965   22.2059 H   0  0  0  0  0  0
  -23.7208  -37.6439   23.6694 H   0  0  0  0  0  0
  -26.1075  -31.5299   20.6037 H   0  0  0  0  0  0
  -26.8508  -30.8230   22.0115 H   0  0  0  0  0  0
  -28.1354  -28.9452   21.1820 H   0  0  0  0  0  0
  -25.9764  -25.9210   18.9791 H   0  0  0  0  0  0
  -23.9784  -27.2943   19.0142 H   0  0  0  0  0  0
  -23.7719  -30.5791   19.4027 H   0  0  0  0  0  0
  -22.7623  -29.2338   19.8610 H   0  0  0  0  0  0
  -25.1287  -36.1905   25.0816 H   0  0  0  0  0  0
  -20.9951  -28.3329   24.1390 H   0  0  0  0  0  0
  -20.5699  -26.2319   23.3638 H   0  0  0  0  0  0
  -21.6637  -26.7468   22.1215 H   0  0  0  0  0  0
  -19.6936  -25.6306   21.1244 H   0  0  0  0  0  0
  -19.6723  -27.3211   20.6762 H   0  0  0  0  0  0
  -17.4204  -26.6716   21.3975 H   0  0  0  0  0  0
  -18.0269  -26.0073   22.8995 H   0  0  0  0  0  0
  -19.7949  -30.7256   24.2279 H   0  0  0  0  0  0
  -17.5031  -31.6274   24.5168 H   0  0  0  0  0  0
  -15.5345  -30.3000   23.7684 H   0  0  0  0  0  0
  -15.8669  -28.0849   22.7078 H   0  0  0  0  0  0
  -24.5955  -30.7003   25.7768 H   0  0  0  0  0  0
  -24.8775  -32.2896   26.4714 H   0  0  0  0  0  0
  -25.7990  -30.9062   27.0300 H   0  0  0  0  0  0
  -26.2953  -29.6731   24.1244 H   0  0  0  0  0  0
  -27.4041  -29.7300   25.4743 H   0  0  0  0  0  0
  -27.8823  -30.4272   23.9471 H   0  0  0  0  0  0
  -27.2716  -33.3697   26.1945 H   0  0  0  0  0  0
  -28.3927  -32.6761   25.0344 H   0  0  0  0  0  0
  -28.0642  -31.8517   26.5500 H   0  0  0  0  0  0
  -28.2515  -38.0166   24.7636 H   0  0  0  0  0  0
  -28.1199  -36.2697   24.6048 H   0  0  0  0  0  0
  -27.2329  -37.1165   25.8831 H   0  0  0  0  0  0
  -20.9399  -29.8757   21.6851 H   0  0  0  0  0  0
  -26.0147  -38.2856   24.1540 H   0  0  0  0  0  0
  -28.6360  -18.4595   20.3706 H   0  0  0  0  0  0
  -32.6475  -16.8627   20.6509 H   0  0  0  0  0  0
  -30.0271  -25.3490   18.3190 H   0  0  0  0  0  0
  -30.9756  -23.7789   18.4079 H   0  0  0  0  0  0
  -27.1671  -22.6599   21.6881 H   0  0  0  0  0  0
  -27.7232  -23.1034   23.2828 H   0  0  0  0  0  0
  -28.6799  -25.2280   22.4235 H   0  0  0  0  0  0
  -26.9688  -25.1282   22.1017 H   0  0  0  0  0  0
  -29.3870  -21.5771   22.3330 H   0  0  0  0  0  0
  -30.0957  -23.1590   22.4391 H   0  0  0  0  0  0
  -27.3275  -24.5742   19.7904 H   0  0  0  0  0  0
  -31.7746  -21.6562   18.5163 H   0  0  0  0  0  0
  -33.3220  -21.2314   19.1512 H   0  0  0  0  0  0
  -32.2285  -22.1322   20.1721 H   0  0  0  0  0  0
  -28.2772  -20.9717   20.0350 H   0  0  0  0  0  0
  -29.3343  -21.3922   18.7337 H   0  0  0  0  0  0
  -29.0488  -15.8815   20.8171 H   0  0  0  0  0  0
  -30.6299  -22.5277   20.4981 H   0  0  0  0  0  0
  1 25  1  0  0  0
  1 30  2  0  0  0
  1 85  1  0  0  0
  2  3  1  0  0  0
  2 25  1  0  0  0
  2 88  1  0  0  0
  2 89  1  0  0  0
  3  4  1  0  0  0
  3 90  1  0  0  0
  3 91  1  0  0  0
  4  5  1  0  0  0
  4 92  1  0  0  0
  4 93  1  0  0  0
  5  6  1  0  0  0
  5 26  1  0  0  0
  5 94  1  0  0  0
  6 25  1  0  0  0
  6 95  1  0  0  0
  6 96  1  0  0  0
  7  8  2  0  0  0
  7 26  1  0  0  0
  7 29  1  0  0  0
  8  9  1  0  0  0
  8 22  1  0  0  0
  9 10  1  0  0  0
  9 27  2  0  0  0
 10 11  2  0  0  0
 10 15  1  0  0  0
 11 12  1  0  0  0
 11 97  1  0  0  0
 12 13  2  0  0  0
 12 98  1  0  0  0
 13 14  1  0  0  0
 13 31  1  0  0  0
 14 15  2  0  0  0
 14 99  1  0  0  0
 15100  1  0  0  0
 16 17  2  0  0  0
 16 21  1  0  0  0
 16 31  1  0  0  0
 17 18  1  0  0  0
 17101  1  0  0  0
 18 19  2  0  0  0
 18102  1  0  0  0
 19 20  1  0  0  0
 19 24  1  0  0  0
 20 21  2  0  0  0
 20103  1  0  0  0
 21 23  1  0  0  0
 22 28  1  0  0  0
 22 32  2  0  0  0
 26 27  1  0  0  0
 28104  1  0  0  0
 28105  1  0  0  0
 29106  1  0  0  0
 29107  1  0  0  0
 33 34  1  0  0  0
 33 66  1  0  0  0
 33 70  2  0  0  0
 34 36  1  0  0  0
 34 59  1  0  0  0
 34108  1  0  0  0
 35 44  2  0  0  0
 35 45  1  0  0  0
 35 68  1  0  0  0
 36 56  1  0  0  0
 36109  1  0  0  0
 37 39  1  0  0  0
 37 47  1  0  0  0
 37 66  1  0  0  0
 37110  1  0  0  0
 38 43  2  0  0  0
 38 46  1  0  0  0
 38 47  1  0  0  0
 39 64  1  0  0  0
 39 67  2  0  0  0
 40 52  1  0  0  0
 40 53  2  0  0  0
 40 58  1  0  0  0
 41111  1  0  0  0
 41112  1  0  0  0
 41113  1  0  0  0
 41 48  1  0  0  0
 42 43  1  0  0  0
 42 66  1  0  0  0
 42114  1  0  0  0
 42115  1  0  0  0
 43 44  1  0  0  0
 44116  1  0  0  0
 45 46  2  0  0  0
 45117  1  0  0  0
 46118  1  0  0  0
 47119  1  0  0  0
 47120  1  0  0  0
 48 56  1  0  0  0
 48 65  1  0  0  0
 48121  1  0  0  0
 49 50  1  0  0  0
 49 53  1  0  0  0
 49 64  1  0  0  0
 49122  1  0  0  0
 50 51  1  0  0  0
 50123  1  0  0  0
 50124  1  0  0  0
 51 52  1  0  0  0
 51125  1  0  0  0
 51126  1  0  0  0
 52127  1  0  0  0
 52128  1  0  0  0
 53 54  1  0  0  0
 54 55  2  0  0  0
 54129  1  0  0  0
 55 57  1  0  0  0
 55130  1  0  0  0
 56 69  2  0  0  0
 57 58  2  0  0  0
 57131  1  0  0  0
 58132  1  0  0  0
 59 60  1  0  0  0
 59 61  1  0  0  0
 59 62  1  0  0  0
 60133  1  0  0  0
 60134  1  0  0  0
 60135  1  0  0  0
 61136  1  0  0  0
 61137  1  0  0  0
 61138  1  0  0  0
 62139  1  0  0  0
 62140  1  0  0  0
 62141  1  0  0  0
 63 65  1  0  0  0
 63142  1  0  0  0
 63143  1  0  0  0
 63144  1  0  0  0
 64145  1  0  0  0
 65146  1  0  0  0
 68 82  1  0  0  0
 71 73  2  0  0  0
 71 75  1  0  0  0
 71147  1  0  0  0
 72 75  2  0  0  0
 72 76  1  0  0  0
 72148  1  0  0  0
 73 74  1  0  0  0
 73 84  1  0  0  0
 74 76  2  0  0  0
 74 83  1  0  0  0
 75 85  1  0  0  0
 76 87  1  0  0  0
 77 78  2  0  0  0
 77 82  1  0  0  0
 77 86  1  0  0  0
 78149  1  0  0  0
 78150  1  0  0  0
 79 80  1  0  0  0
 79 81  1  0  0  0
 79151  1  0  0  0
 79152  1  0  0  0
 80 82  1  0  0  0
 80153  1  0  0  0
 80154  1  0  0  0
 81 86  1  0  0  0
 81155  1  0  0  0
 81156  1  0  0  0
 82157  1  0  0  0
 83158  1  0  0  0
 83159  1  0  0  0
 83160  1  0  0  0
 84161  1  0  0  0
 84162  1  0  0  0
 84 86  1  0  0  0
 85163  1  0  0  0
 86164  1  0  0  0
M  CHG  1  86   1
M  ISO  4   1 100  68 101  82 101  85 100
M  END
> <chiral flag>
0

> <version>
0

> <s_m_source_file>
/data/baiqing/PycharmProjects/Reinvent-master-3.2/result/LINK_invent/BTK/process_docking_weight1_custom_product_contain_oxygen_bond_distance_aromatic_linkinvent_7_9_3/rearranged_h_0042.sdf

> <i_m_source_file_index>
79

> <r_mmod_Potential_Energy-OPLS-2005>
102.182640075684

> <r_mmod_Stretch_Energy-OPLS-2005>
148.246688842773

> <r_mmod_Bend_Energy-OPLS-2005>
184.456604003906

> <r_mmod_Torsional_Energy-OPLS-2005>
236.123825073242

> <r_mmod_Improper_Torsional_Energy-OPLS-2005>
5.49093532562256

> <r_mmod_Van_der_Waal_Energy-OPLS-2005>
149.126419067383

> <r_mmod_Electrostatic_Energy-OPLS-2005>
-254.335113525391

> <r_mmod_Solvation_Energy-OPLS-2005>
-449.398162841797

> <b_mmod_Minimization_Converged-OPLS-2005>
0

> <r_mmod_RMS_Derivative-OPLS-2005>
3.83472585678101

$$$$
79
                    3D
 Structure written by MMmdl.
164173  0  0  1  0            999 V2000
  -30.5872  -14.6648   20.4782 C   0  0  0  0  0  0
  -30.4454  -12.4048   19.4444 C   0  0  0  0  0  0
  -29.5086  -12.5107   18.2191 C   0  0  0  0  0  0
  -28.0306  -12.3431   18.6317 C   0  0  0  0  0  0
  -27.6503  -13.2108   19.8605 C   0  0  2  0  0  0
  -28.6990  -13.0654   20.9866 C   0  0  0  0  0  0
  -25.2543  -13.8127   20.5721 C   0  0  0  0  0  0
  -24.1806  -13.0400   20.9196 C   0  0  0  0  0  0
  -24.6381  -11.6877   20.8732 C   0  0  0  0  0  0
  -23.9054  -10.4271   21.0400 C   0  0  0  0  0  0
  -24.3608   -9.4193   21.9181 C   0  0  0  0  0  0
  -23.6284   -8.2230   22.0752 C   0  0  0  0  0  0
  -22.4266   -8.0271   21.3542 C   0  0  0  0  0  0
  -21.9898   -9.0241   20.4643 C   0  0  0  0  0  0
  -22.7226  -10.2120   20.3049 C   0  0  0  0  0  0
  -21.6850   -6.0730   22.5279 C   0  0  0  0  0  0
  -21.4009   -6.5633   23.8213 C   0  0  0  0  0  0
  -21.3659   -5.6788   24.9175 C   0  0  0  0  0  0
  -21.6046   -4.3050   24.7226 C   0  0  0  0  0  0
  -21.8820   -3.8142   23.4346 C   0  0  0  0  0  0
  -21.9190   -4.6957   22.3404 C   0  0  0  0  0  0
  -22.7831  -13.5206   21.1859 C   0  0  0  0  0  0
  -22.1659   -4.2144   21.0981 F   0  0  0  0  0  0
  -21.5634   -3.4535   25.7739 F   0  0  0  0  0  0
  -30.0104  -13.4220   20.4200 N   0  0  0  0  0  0
  -26.2969  -12.9310   20.3312 N   0  0  0  0  0  0
  -25.9305  -11.6471   20.5736 N   0  0  0  0  0  0
  -22.0468  -12.8207   22.0417 N   0  0  0  0  0  0
  -25.4212  -15.1852   20.4232 N   0  0  0  0  0  0
  -31.7627  -14.8490   20.1462 O   0  0  0  0  0  0
  -21.6632   -6.8868   21.4239 O   0  0  0  0  0  0
  -22.3522  -14.5519   20.6711 O   0  0  0  0  0  0
  -24.6246  -31.8576   23.1986 C   0  0  0  0  0  0
  -25.9094  -32.4765   23.8322 C   0  0  1  0  0  0
  -27.2393  -27.3214   20.1080 C   0  0  0  0  0  0
  -25.5908  -33.8565   24.2255 N   0  0  0  0  0  0
  -23.4174  -30.4772   21.5417 C   0  0  2  0  0  0
  -24.8628  -28.9216   20.1123 C   0  0  0  0  0  0
  -22.7457  -29.4609   22.4946 C   0  0  0  0  0  0
  -18.0280  -28.1377   22.8489 C   0  0  0  0  0  0
  -24.1487  -36.7290   23.2641 C   0  0  0  0  0  0
  -25.9547  -30.7896   21.3644 C   0  0  0  0  0  0
  -26.0279  -29.4150   20.7080 C   0  0  0  0  0  0
  -27.2110  -28.6256   20.6922 C   0  0  0  0  0  0
  -26.0397  -26.8560   19.5280 C   0  0  0  0  0  0
  -24.8698  -27.6471   19.5177 C   0  0  0  0  0  0
  -23.6296  -29.8013   20.1596 C   0  0  0  0  0  0
  -25.4114  -36.3078   24.0328 C   0  0  1  0  0  0
  -20.5877  -28.3676   23.1299 C   0  0  2  0  0  0
  -20.6767  -26.9401   22.5419 C   0  0  0  0  0  0
  -19.5747  -26.6377   21.5215 C   0  0  0  0  0  0
  -18.1925  -26.7922   22.1624 C   0  0  0  0  0  0
  -19.1532  -28.8844   23.2889 C   0  0  0  0  0  0
  -18.9455  -30.1448   23.8903 C   0  0  0  0  0  0
  -17.6457  -30.6583   24.0561 C   0  0  0  0  0  0
  -25.9050  -34.9447   23.5097 C   0  0  0  0  0  0
  -16.5348  -29.9081   23.6327 C   0  0  0  0  0  0
  -16.7269  -28.6496   23.0352 C   0  0  0  0  0  0
  -26.4483  -31.6583   25.0698 C   0  0  0  0  0  0
  -25.3719  -31.3721   26.1429 C   0  0  0  0  0  0
  -27.0324  -30.3011   24.6143 C   0  0  0  0  0  0
  -27.6043  -32.4318   25.7473 C   0  0  0  0  0  0
  -27.5580  -37.1800   24.8464 C   0  0  0  0  0  0
  -21.4173  -29.3030   22.3694 N   0  0  0  0  0  0
  -26.4292  -37.3774   23.9407 N   0  0  0  0  0  0
  -24.6847  -31.0589   22.0925 N   0  0  0  0  0  0
  -23.4186  -28.8165   23.3036 O   0  0  0  0  0  0
  -28.4319  -26.5877   20.1726 O   0  0  0  0  0  0
  -26.5627  -34.8920   22.4669 O   0  0  0  0  0  0
  -23.5415  -32.1371   23.7326 O   0  0  0  0  0  0
  -30.2146  -19.3747   21.5750 C   0  0  0  0  0  0
  -30.4410  -17.9665   21.5085 C   0  0  0  0  0  0
  -28.6648  -19.2381   19.7501 C   0  0  0  0  0  0
  -29.2892  -20.0525   20.7310 C   0  0  0  0  0  0
  -28.8940  -17.8265   19.6666 C   0  0  0  0  0  0
  -29.7559  -17.1438   20.5793 C   0  0  0  0  0  0
  -28.5425  -23.9962   20.5817 C   0  0  0  0  0  0
  -29.0344  -23.5835   17.7244 C   0  0  0  0  0  0
  -28.4005  -24.9110   18.1849 C   0  0  0  0  0  0
  -28.7314  -22.3988   18.6736 C   0  0  0  0  0  0
  -28.7989  -25.2452   19.6406 C   0  0  1  0  0  0
  -28.1497  -17.0495   18.5951 C   0  0  0  0  0  0
  -30.3289  -25.4783   19.6942 C   0  0  0  0  0  0
  -28.8497  -21.5372   21.0739 C   0  0  0  0  0  0
  -28.7646  -22.7079   20.1146 N   0  0  0  0  0  0
  -29.7053  -15.6870   20.7202 N   0  0  0  0  0  0
  -28.2480  -24.2086   21.7626 O   0  0  0  0  0  0
  -31.4842  -12.5471   19.1404 H   0  0  0  0  0  0
  -30.3947  -11.4081   19.8855 H   0  0  0  0  0  0
  -29.7766  -11.7603   17.4739 H   0  0  0  0  0  0
  -29.6441  -13.4800   17.7363 H   0  0  0  0  0  0
  -27.8687  -11.2894   18.8609 H   0  0  0  0  0  0
  -27.3760  -12.5736   17.7905 H   0  0  0  0  0  0
  -27.6613  -14.2437   19.5166 H   0  0  0  0  0  0
  -28.7179  -12.0413   21.3626 H   0  0  0  0  0  0
  -28.4445  -13.6905   21.8440 H   0  0  0  0  0  0
  -25.2754   -9.5675   22.4752 H   0  0  0  0  0  0
  -23.9997   -7.4625   22.7470 H   0  0  0  0  0  0
  -21.0830   -8.8759   19.8951 H   0  0  0  0  0  0
  -22.3686  -10.9659   19.6160 H   0  0  0  0  0  0
  -21.1997   -7.6141   23.9714 H   0  0  0  0  0  0
  -21.1483   -6.0517   25.9080 H   0  0  0  0  0  0
  -22.0600   -2.7605   23.2847 H   0  0  0  0  0  0
  -22.4077  -11.9868   22.4811 H   0  0  0  0  0  0
  -21.1090  -13.1245   22.2628 H   0  0  0  0  0  0
  -24.6515  -15.8330   20.5511 H   0  0  0  0  0  0
  -26.2731  -15.6393   20.1270 H   0  0  0  0  0  0
  -26.7157  -32.5430   23.1065 H   0  0  0  0  0  0
  -25.0047  -33.9702   25.0395 H   0  0  0  0  0  0
  -22.7111  -31.2971   21.3950 H   0  0  0  0  0  0
  -23.3750  -35.9622   23.3304 H   0  0  0  0  0  0
  -24.3575  -36.8911   22.2055 H   0  0  0  0  0  0
  -23.7241  -37.6492   23.6663 H   0  0  0  0  0  0
  -26.0818  -31.5520   20.5947 H   0  0  0  0  0  0
  -26.8370  -30.8410   21.9913 H   0  0  0  0  0  0
  -28.1109  -29.0072   21.1543 H   0  0  0  0  0  0
  -25.9614  -25.8669   19.1150 H   0  0  0  0  0  0
  -23.9674  -27.2528   19.0709 H   0  0  0  0  0  0
  -23.7447  -30.5720   19.3965 H   0  0  0  0  0  0
  -22.7502  -29.2259   19.8644 H   0  0  0  0  0  0
  -25.1297  -36.1929   25.0822 H   0  0  0  0  0  0
  -20.9969  -28.3247   24.1420 H   0  0  0  0  0  0
  -20.5664  -26.2282   23.3614 H   0  0  0  0  0  0
  -21.6639  -26.7429   22.1219 H   0  0  0  0  0  0
  -19.6910  -25.6288   21.1244 H   0  0  0  0  0  0
  -19.6691  -27.3189   20.6746 H   0  0  0  0  0  0
  -17.4198  -26.6671   21.4023 H   0  0  0  0  0  0
  -18.0327  -26.0061   22.9018 H   0  0  0  0  0  0
  -19.7932  -30.7261   24.2277 H   0  0  0  0  0  0
  -17.5011  -31.6267   24.5156 H   0  0  0  0  0  0
  -15.5348  -30.2985   23.7647 H   0  0  0  0  0  0
  -15.8668  -28.0816   22.7067 H   0  0  0  0  0  0
  -24.5897  -30.7064   25.7761 H   0  0  0  0  0  0
  -24.8904  -32.2885   26.4850 H   0  0  0  0  0  0
  -25.8048  -30.8904   27.0206 H   0  0  0  0  0  0
  -26.2891  -29.6765   24.1173 H   0  0  0  0  0  0
  -27.4036  -29.7264   25.4639 H   0  0  0  0  0  0
  -27.8750  -30.4302   23.9346 H   0  0  0  0  0  0
  -27.2652  -33.3618   26.2047 H   0  0  0  0  0  0
  -28.3856  -32.6876   25.0304 H   0  0  0  0  0  0
  -28.0704  -31.8442   26.5393 H   0  0  0  0  0  0
  -28.2600  -38.0096   24.7510 H   0  0  0  0  0  0
  -28.1074  -36.2627   24.6291 H   0  0  0  0  0  0
  -27.2297  -37.1451   25.8867 H   0  0  0  0  0  0
  -20.9348  -29.8741   21.6896 H   0  0  0  0  0  0
  -26.0175  -38.2850   24.1403 H   0  0  0  0  0  0
  -30.7116  -19.9280   22.3604 H   0  0  0  0  0  0
  -31.0878  -17.5105   22.2452 H   0  0  0  0  0  0
  -27.9363  -19.6853   19.0885 H   0  0  0  0  0  0
  -30.1133  -23.6992   17.6207 H   0  0  0  0  0  0
  -28.6825  -23.3401   16.7210 H   0  0  0  0  0  0
  -27.3268  -24.8011   18.0738 H   0  0  0  0  0  0
  -28.6985  -25.7180   17.5150 H   0  0  0  0  0  0
  -29.4292  -21.5917   18.4498 H   0  0  0  0  0  0
  -27.7338  -22.0171   18.4521 H   0  0  0  0  0  0
  -27.9817  -17.6711   17.7150 H   0  0  0  0  0  0
  -27.1797  -16.7230   18.9633 H   0  0  0  0  0  0
  -28.7133  -16.1749   18.2687 H   0  0  0  0  0  0
  -30.9086  -24.5772   19.4938 H   0  0  0  0  0  0
  -30.6406  -25.8246   20.6811 H   0  0  0  0  0  0
  -30.6405  -26.2350   18.9736 H   0  0  0  0  0  0
  -29.4931  -21.8626   21.8931 H   0  0  0  0  0  0
  -27.8600  -21.4470   21.5239 H   0  0  0  0  0  0
  -28.7768  -15.3309   20.8824 H   0  0  0  0  0  0
  1 25  1  0  0  0
  1 30  2  0  0  0
  1 86  1  0  0  0
  2  3  1  0  0  0
  2 25  1  0  0  0
  2 88  1  0  0  0
  2 89  1  0  0  0
  3  4  1  0  0  0
  3 90  1  0  0  0
  3 91  1  0  0  0
  4  5  1  0  0  0
  4 92  1  0  0  0
  4 93  1  0  0  0
  5  6  1  0  0  0
  5 26  1  0  0  0
  5 94  1  0  0  0
  6 25  1  0  0  0
  6 95  1  0  0  0
  6 96  1  0  0  0
  7  8  2  0  0  0
  7 26  1  0  0  0
  7 29  1  0  0  0
  8  9  1  0  0  0
  8 22  1  0  0  0
  9 10  1  0  0  0
  9 27  2  0  0  0
 10 11  2  0  0  0
 10 15  1  0  0  0
 11 12  1  0  0  0
 11 97  1  0  0  0
 12 13  2  0  0  0
 12 98  1  0  0  0
 13 14  1  0  0  0
 13 31  1  0  0  0
 14 15  2  0  0  0
 14 99  1  0  0  0
 15100  1  0  0  0
 16 17  2  0  0  0
 16 21  1  0  0  0
 16 31  1  0  0  0
 17 18  1  0  0  0
 17101  1  0  0  0
 18 19  2  0  0  0
 18102  1  0  0  0
 19 20  1  0  0  0
 19 24  1  0  0  0
 20 21  2  0  0  0
 20103  1  0  0  0
 21 23  1  0  0  0
 22 28  1  0  0  0
 22 32  2  0  0  0
 26 27  1  0  0  0
 28104  1  0  0  0
 28105  1  0  0  0
 29106  1  0  0  0
 29107  1  0  0  0
 33 34  1  0  0  0
 33 66  1  0  0  0
 33 70  2  0  0  0
 34 36  1  0  0  0
 34 59  1  0  0  0
 34108  1  0  0  0
 35 44  2  0  0  0
 35 45  1  0  0  0
 35 68  1  0  0  0
 36 56  1  0  0  0
 36109  1  0  0  0
 37 39  1  0  0  0
 37 47  1  0  0  0
 37 66  1  0  0  0
 37110  1  0  0  0
 38 43  2  0  0  0
 38 46  1  0  0  0
 38 47  1  0  0  0
 39 64  1  0  0  0
 39 67  2  0  0  0
 40 52  1  0  0  0
 40 53  2  0  0  0
 40 58  1  0  0  0
 41111  1  0  0  0
 41112  1  0  0  0
 41113  1  0  0  0
 41 48  1  0  0  0
 42 43  1  0  0  0
 42 66  1  0  0  0
 42114  1  0  0  0
 42115  1  0  0  0
 43 44  1  0  0  0
 44116  1  0  0  0
 45 46  2  0  0  0
 45117  1  0  0  0
 46118  1  0  0  0
 47119  1  0  0  0
 47120  1  0  0  0
 48 56  1  0  0  0
 48 65  1  0  0  0
 48121  1  0  0  0
 49 50  1  0  0  0
 49 53  1  0  0  0
 49 64  1  0  0  0
 49122  1  0  0  0
 50 51  1  0  0  0
 50123  1  0  0  0
 50124  1  0  0  0
 51 52  1  0  0  0
 51125  1  0  0  0
 51126  1  0  0  0
 52127  1  0  0  0
 52128  1  0  0  0
 53 54  1  0  0  0
 54 55  2  0  0  0
 54129  1  0  0  0
 55 57  1  0  0  0
 55130  1  0  0  0
 56 69  2  0  0  0
 57 58  2  0  0  0
 57131  1  0  0  0
 58132  1  0  0  0
 59 60  1  0  0  0
 59 61  1  0  0  0
 59 62  1  0  0  0
 60133  1  0  0  0
 60134  1  0  0  0
 60135  1  0  0  0
 61136  1  0  0  0
 61137  1  0  0  0
 61138  1  0  0  0
 62139  1  0  0  0
 62140  1  0  0  0
 62141  1  0  0  0
 63 65  1  0  0  0
 63142  1  0  0  0
 63143  1  0  0  0
 63144  1  0  0  0
 64145  1  0  0  0
 65146  1  0  0  0
 68 81  1  0  0  0
 71 72  2  0  0  0
 71 74  1  0  0  0
 71147  1  0  0  0
 72 76  1  0  0  0
 72148  1  0  0  0
 73 74  2  0  0  0
 73 75  1  0  0  0
 73149  1  0  0  0
 74 84  1  0  0  0
 75 76  2  0  0  0
 75 82  1  0  0  0
 76 86  1  0  0  0
 77 81  1  0  0  0
 77 85  1  0  0  0
 77 87  2  0  0  0
 78 79  1  0  0  0
 78 80  1  0  0  0
 78150  1  0  0  0
 78151  1  0  0  0
 79 81  1  0  0  0
 79152  1  0  0  0
 79153  1  0  0  0
 80 85  1  0  0  0
 80154  1  0  0  0
 80155  1  0  0  0
 81 83  1  0  0  0
 82156  1  0  0  0
 82157  1  0  0  0
 82158  1  0  0  0
 83159  1  0  0  0
 83160  1  0  0  0
 83161  1  0  0  0
 84 85  1  0  0  0
 84162  1  0  0  0
 84163  1  0  0  0
 86164  1  0  0  0
M  ISO  4   1 100  68 101  81 101  86 100
M  END
> <chiral flag>
0

> <version>
0

> <s_m_source_file>
/data/baiqing/PycharmProjects/Reinvent-master-3.2/result/LINK_invent/BTK/process_docking_weight1_custom_product_contain_oxygen_bond_distance_aromatic_linkinvent_7_9_3/rearranged_h_0042.sdf

> <i_m_source_file_index>
80

> <r_mmod_Potential_Energy-OPLS-2005>
189.594085693359

> <r_mmod_Stretch_Energy-OPLS-2005>
89.051155090332

> <r_mmod_Bend_Energy-OPLS-2005>
210.315765380859

> <r_mmod_Torsional_Energy-OPLS-2005>
277.243560791016

> <r_mmod_Improper_Torsional_Energy-OPLS-2005>
9.44569778442383

> <r_mmod_Van_der_Waal_Energy-OPLS-2005>
144.658416748047

> <r_mmod_Electrostatic_Energy-OPLS-2005>
-359.001342773438

> <r_mmod_Solvation_Energy-OPLS-2005>
-232.240631103516

> <b_mmod_Minimization_Converged-OPLS-2005>
0

> <r_mmod_RMS_Derivative-OPLS-2005>
0.497588962316513

$$$$
80
                    3D
 Structure written by MMmdl.
170179  0  0  1  0            999 V2000
  -30.6307  -14.6247   20.4729 C   0  0  0  0  0  0
  -30.4327  -12.3753   19.4488 C   0  0  0  0  0  0
  -29.5069  -12.5044   18.2199 C   0  0  0  0  0  0
  -28.0282  -12.3520   18.6295 C   0  0  0  0  0  0
  -27.6528  -13.2190   19.8605 C   0  0  2  0  0  0
  -28.6999  -13.0761   20.9895 C   0  0  0  0  0  0
  -25.2551  -13.8158   20.5662 C   0  0  0  0  0  0
  -24.1827  -13.0426   20.9185 C   0  0  0  0  0  0
  -24.6405  -11.6897   20.8748 C   0  0  0  0  0  0
  -23.9063  -10.4287   21.0411 C   0  0  0  0  0  0
  -24.3618   -9.4214   21.9189 C   0  0  0  0  0  0
  -23.6301   -8.2240   22.0751 C   0  0  0  0  0  0
  -22.4282   -8.0276   21.3541 C   0  0  0  0  0  0
  -21.9914   -9.0250   20.4641 C   0  0  0  0  0  0
  -22.7238  -10.2133   20.3058 C   0  0  0  0  0  0
  -21.6850   -6.0736   22.5284 C   0  0  0  0  0  0
  -21.4011   -6.5637   23.8214 C   0  0  0  0  0  0
  -21.3664   -5.6789   24.9176 C   0  0  0  0  0  0
  -21.6042   -4.3049   24.7234 C   0  0  0  0  0  0
  -21.8818   -3.8143   23.4354 C   0  0  0  0  0  0
  -21.9196   -4.6962   22.3412 C   0  0  0  0  0  0
  -22.7855  -13.5225   21.1860 C   0  0  0  0  0  0
  -22.1659   -4.2137   21.0989 F   0  0  0  0  0  0
  -21.5629   -3.4539   25.7752 F   0  0  0  0  0  0
  -30.0150  -13.4034   20.4204 N   0  0  0  0  0  0
  -26.2991  -12.9350   20.3307 N   0  0  0  0  0  0
  -25.9331  -11.6499   20.5764 N   0  0  0  0  0  0
  -22.0503  -12.8221   22.0422 N   0  0  0  0  0  0
  -25.4227  -15.1876   20.4015 N   0  0  0  0  0  0
  -31.8159  -14.7563   20.1605 O   0  0  0  0  0  0
  -21.6644   -6.8880   21.4239 O   0  0  0  0  0  0
  -22.3552  -14.5555   20.6743 O   0  0  0  0  0  0
  -24.6276  -31.8591   23.2001 C   0  0  0  0  0  0
  -25.9134  -32.4763   23.8327 C   0  0  1  0  0  0
  -27.2426  -27.3309   20.1098 C   0  0  0  0  0  0
  -25.5987  -33.8568   24.2310 N   0  0  0  0  0  0
  -23.4187  -30.4764   21.5455 C   0  0  2  0  0  0
  -24.8658  -28.9300   20.1144 C   0  0  0  0  0  0
  -22.7467  -29.4605   22.4994 C   0  0  0  0  0  0
  -18.0295  -28.1341   22.8504 C   0  0  0  0  0  0
  -24.1504  -36.7289   23.2624 C   0  0  0  0  0  0
  -25.9539  -30.7946   21.3619 C   0  0  0  0  0  0
  -26.0302  -29.4169   20.7173 C   0  0  0  0  0  0
  -27.2144  -28.6250   20.7126 C   0  0  0  0  0  0
  -26.0526  -26.8990   19.4744 C   0  0  0  0  0  0
  -24.8770  -27.6764   19.4865 C   0  0  0  0  0  0
  -23.6292  -29.8031   20.1638 C   0  0  0  0  0  0
  -25.4119  -36.3078   24.0339 C   0  0  1  0  0  0
  -20.5889  -28.3650   23.1311 C   0  0  2  0  0  0
  -20.6779  -26.9380   22.5418 C   0  0  0  0  0  0
  -19.5758  -26.6367   21.5211 C   0  0  0  0  0  0
  -18.1936  -26.7900   22.1624 C   0  0  0  0  0  0
  -19.1541  -28.8825   23.2889 C   0  0  0  0  0  0
  -18.9457  -30.1443   23.8883 C   0  0  0  0  0  0
  -17.6450  -30.6555   24.0556 C   0  0  0  0  0  0
  -25.9056  -34.9442   23.5120 C   0  0  0  0  0  0
  -16.5348  -29.9040   23.6322 C   0  0  0  0  0  0
  -16.7276  -28.6452   23.0351 C   0  0  0  0  0  0
  -26.4512  -31.6536   25.0669 C   0  0  0  0  0  0
  -25.3766  -31.3652   26.1409 C   0  0  0  0  0  0
  -27.0307  -30.2969   24.6034 C   0  0  0  0  0  0
  -27.6103  -32.4209   25.7453 C   0  0  0  0  0  0
  -27.5597  -37.1798   24.8468 C   0  0  0  0  0  0
  -21.4189  -29.3018   22.3724 N   0  0  0  0  0  0
  -26.4304  -37.3766   23.9412 N   0  0  0  0  0  0
  -24.6853  -31.0599   22.0945 N   0  0  0  0  0  0
  -23.4185  -28.8180   23.3094 O   0  0  0  0  0  0
  -28.3930  -26.5252   20.1832 O   0  0  0  0  0  0
  -26.5575  -34.8930   22.4658 O   0  0  0  0  0  0
  -23.5443  -32.1389   23.7348 O   0  0  0  0  0  0
  -30.6500  -19.2836   19.5318 C   0  0  0  0  0  0
  -29.3010  -19.3808   21.5129 C   0  0  0  0  0  0
  -30.0009  -20.0861   20.5053 C   0  0  0  0  0  0
  -30.6182  -17.8542   19.5536 C   0  0  0  0  0  0
  -29.2715  -17.9544   21.5641 C   0  0  0  0  0  0
  -29.9510  -17.1456   20.6039 C   0  0  0  0  0  0
  -29.4040  -24.1626   20.3567 C   0  0  0  0  0  0
  -30.4126  -24.5957   21.1387 C   0  0  0  0  0  0
  -28.5891  -24.1859   17.2099 C   0  0  0  0  0  0
  -29.1650  -22.8307   17.6500 C   0  0  0  0  0  0
  -28.8701  -25.3566   18.1624 C   0  0  0  0  0  0
  -28.4566  -22.2568   18.8948 C   0  0  0  0  0  0
  -28.4288  -25.1549   19.6286 C   0  0  2  0  0  0
  -31.2926  -17.1383   18.3961 C   0  0  0  0  0  0
  -28.4917  -17.2966   22.6923 C   0  0  0  0  0  0
  -30.2062  -21.6496   20.5543 C   0  0  0  0  0  0
  -29.8001  -15.6900   20.6991 N   0  0  0  0  0  0
  -29.1030  -22.6321   20.1803 N   0  3  1  0  0  0
  -31.4770  -12.4860   19.1532 H   0  0  0  0  0  0
  -30.3456  -11.3808   19.8882 H   0  0  0  0  0  0
  -29.7621  -11.7534   17.4713 H   0  0  0  0  0  0
  -29.6599  -13.4754   17.7466 H   0  0  0  0  0  0
  -27.8529  -11.3000   18.8521 H   0  0  0  0  0  0
  -27.3788  -12.5962   17.7874 H   0  0  0  0  0  0
  -27.6672  -14.2532   19.5161 H   0  0  0  0  0  0
  -28.7075  -12.0583   21.3819 H   0  0  0  0  0  0
  -28.4569  -13.7206   21.8355 H   0  0  0  0  0  0
  -25.2759   -9.5684   22.4769 H   0  0  0  0  0  0
  -24.0010   -7.4634   22.7470 H   0  0  0  0  0  0
  -21.0836   -8.8776   19.8961 H   0  0  0  0  0  0
  -22.3694  -10.9679   19.6175 H   0  0  0  0  0  0
  -21.1992   -7.6136   23.9715 H   0  0  0  0  0  0
  -21.1489   -6.0517   25.9079 H   0  0  0  0  0  0
  -22.0596   -2.7602   23.2866 H   0  0  0  0  0  0
  -22.4122  -11.9903   22.4841 H   0  0  0  0  0  0
  -21.1136  -13.1274   22.2638 H   0  0  0  0  0  0
  -24.6347  -15.8227   20.4590 H   0  0  0  0  0  0
  -26.2536  -15.6244   20.0227 H   0  0  0  0  0  0
  -26.7223  -32.5430   23.1097 H   0  0  0  0  0  0
  -25.0258  -33.9681   25.0546 H   0  0  0  0  0  0
  -22.7133  -31.2962   21.4015 H   0  0  0  0  0  0
  -23.3767  -35.9618   23.3255 H   0  0  0  0  0  0
  -24.3612  -36.8902   22.2041 H   0  0  0  0  0  0
  -23.7254  -37.6497   23.6631 H   0  0  0  0  0  0
  -26.0651  -31.5488   20.5808 H   0  0  0  0  0  0
  -26.8435  -30.8599   21.9772 H   0  0  0  0  0  0
  -28.1082  -28.9926   21.1977 H   0  0  0  0  0  0
  -25.9879  -25.9541   18.9597 H   0  0  0  0  0  0
  -23.9841  -27.2995   19.0061 H   0  0  0  0  0  0
  -23.7400  -30.5709   19.3978 H   0  0  0  0  0  0
  -22.7535  -29.2195   19.8708 H   0  0  0  0  0  0
  -25.1286  -36.1932   25.0826 H   0  0  0  0  0  0
  -20.9963  -28.3212   24.1434 H   0  0  0  0  0  0
  -20.5689  -26.2244   23.3594 H   0  0  0  0  0  0
  -21.6636  -26.7410   22.1196 H   0  0  0  0  0  0
  -19.6901  -25.6286   21.1212 H   0  0  0  0  0  0
  -19.6685  -27.3189   20.6745 H   0  0  0  0  0  0
  -17.4209  -26.6686   21.4011 H   0  0  0  0  0  0
  -18.0314  -26.0027   22.9001 H   0  0  0  0  0  0
  -19.7933  -30.7272   24.2204 H   0  0  0  0  0  0
  -17.4993  -31.6223   24.5166 H   0  0  0  0  0  0
  -15.5338  -30.2913   23.7628 H   0  0  0  0  0  0
  -15.8697  -28.0739   22.7053 H   0  0  0  0  0  0
  -24.6063  -30.6822   25.7800 H   0  0  0  0  0  0
  -24.8809  -32.2775   26.4722 H   0  0  0  0  0  0
  -25.8158  -30.8998   27.0239 H   0  0  0  0  0  0
  -26.2811  -29.6766   24.1103 H   0  0  0  0  0  0
  -27.4086  -29.7171   25.4457 H   0  0  0  0  0  0
  -27.8657  -30.4277   23.9155 H   0  0  0  0  0  0
  -27.2782  -33.3569   26.1958 H   0  0  0  0  0  0
  -28.3982  -32.6616   25.0301 H   0  0  0  0  0  0
  -28.0675  -31.8329   26.5424 H   0  0  0  0  0  0
  -28.2591  -38.0119   24.7532 H   0  0  0  0  0  0
  -28.1117  -36.2644   24.6264 H   0  0  0  0  0  0
  -27.2317  -37.1414   25.8873 H   0  0  0  0  0  0
  -20.9375  -29.8744   21.6937 H   0  0  0  0  0  0
  -26.0192  -38.2846   24.1397 H   0  0  0  0  0  0
  -31.2154  -19.7767   18.7528 H   0  0  0  0  0  0
  -28.8036  -19.9450   22.2886 H   0  0  0  0  0  0
  -30.5908  -25.6555   21.2578 H   0  0  0  0  0  0
  -31.0862  -23.9438   21.6737 H   0  0  0  0  0  0
  -27.5143  -24.0952   17.0479 H   0  0  0  0  0  0
  -29.0074  -24.4385   16.2337 H   0  0  0  0  0  0
  -30.2478  -22.8750   17.7777 H   0  0  0  0  0  0
  -29.0001  -22.1340   16.8267 H   0  0  0  0  0  0
  -28.3618  -26.2306   17.7528 H   0  0  0  0  0  0
  -29.9320  -25.6069   18.1383 H   0  0  0  0  0  0
  -28.3886  -21.1728   18.8069 H   0  0  0  0  0  0
  -27.4159  -22.5805   18.9151 H   0  0  0  0  0  0
  -27.4433  -24.7023   19.6981 H   0  0  0  0  0  0
  -31.3601  -17.7829   17.5193 H   0  0  0  0  0  0
  -30.7358  -16.2517   18.0940 H   0  0  0  0  0  0
  -32.3076  -16.8446   18.6652 H   0  0  0  0  0  0
  -29.0998  -16.5520   23.2065 H   0  0  0  0  0  0
  -27.5996  -16.8032   22.3056 H   0  0  0  0  0  0
  -28.1739  -18.0255   23.4376 H   0  0  0  0  0  0
  -31.0779  -21.8834   19.9417 H   0  0  0  0  0  0
  -30.5004  -21.8563   21.5819 H   0  0  0  0  0  0
  -28.8901  -15.3994   21.0182 H   0  0  0  0  0  0
  -28.3897  -22.4129   20.8604 H   0  0  0  0  0  0
  1 25  1  0  0  0
  1 30  2  0  0  0
  1 87  1  0  0  0
  2  3  1  0  0  0
  2 25  1  0  0  0
  2 89  1  0  0  0
  2 90  1  0  0  0
  3  4  1  0  0  0
  3 91  1  0  0  0
  3 92  1  0  0  0
  4  5  1  0  0  0
  4 93  1  0  0  0
  4 94  1  0  0  0
  5  6  1  0  0  0
  5 26  1  0  0  0
  5 95  1  0  0  0
  6 25  1  0  0  0
  6 96  1  0  0  0
  6 97  1  0  0  0
  7  8  2  0  0  0
  7 26  1  0  0  0
  7 29  1  0  0  0
  8  9  1  0  0  0
  8 22  1  0  0  0
  9 10  1  0  0  0
  9 27  2  0  0  0
 10 11  2  0  0  0
 10 15  1  0  0  0
 11 12  1  0  0  0
 11 98  1  0  0  0
 12 13  2  0  0  0
 12 99  1  0  0  0
 13 14  1  0  0  0
 13 31  1  0  0  0
 14 15  2  0  0  0
 14100  1  0  0  0
 15101  1  0  0  0
 16 17  2  0  0  0
 16 21  1  0  0  0
 16 31  1  0  0  0
 17 18  1  0  0  0
 17102  1  0  0  0
 18 19  2  0  0  0
 18103  1  0  0  0
 19 20  1  0  0  0
 19 24  1  0  0  0
 20 21  2  0  0  0
 20104  1  0  0  0
 21 23  1  0  0  0
 22 28  1  0  0  0
 22 32  2  0  0  0
 26 27  1  0  0  0
 28105  1  0  0  0
 28106  1  0  0  0
 29107  1  0  0  0
 29108  1  0  0  0
 33 34  1  0  0  0
 33 66  1  0  0  0
 33 70  2  0  0  0
 34 36  1  0  0  0
 34 59  1  0  0  0
 34109  1  0  0  0
 35 44  2  0  0  0
 35 45  1  0  0  0
 35 68  1  0  0  0
 36 56  1  0  0  0
 36110  1  0  0  0
 37 39  1  0  0  0
 37 47  1  0  0  0
 37 66  1  0  0  0
 37111  1  0  0  0
 38 43  2  0  0  0
 38 46  1  0  0  0
 38 47  1  0  0  0
 39 64  1  0  0  0
 39 67  2  0  0  0
 40 52  1  0  0  0
 40 53  2  0  0  0
 40 58  1  0  0  0
 41112  1  0  0  0
 41113  1  0  0  0
 41114  1  0  0  0
 41 48  1  0  0  0
 42 43  1  0  0  0
 42 66  1  0  0  0
 42115  1  0  0  0
 42116  1  0  0  0
 43 44  1  0  0  0
 44117  1  0  0  0
 45 46  2  0  0  0
 45118  1  0  0  0
 46119  1  0  0  0
 47120  1  0  0  0
 47121  1  0  0  0
 48 56  1  0  0  0
 48 65  1  0  0  0
 48122  1  0  0  0
 49 50  1  0  0  0
 49 53  1  0  0  0
 49 64  1  0  0  0
 49123  1  0  0  0
 50 51  1  0  0  0
 50124  1  0  0  0
 50125  1  0  0  0
 51 52  1  0  0  0
 51126  1  0  0  0
 51127  1  0  0  0
 52128  1  0  0  0
 52129  1  0  0  0
 53 54  1  0  0  0
 54 55  2  0  0  0
 54130  1  0  0  0
 55 57  1  0  0  0
 55131  1  0  0  0
 56 69  2  0  0  0
 57 58  2  0  0  0
 57132  1  0  0  0
 58133  1  0  0  0
 59 60  1  0  0  0
 59 61  1  0  0  0
 59 62  1  0  0  0
 60134  1  0  0  0
 60135  1  0  0  0
 60136  1  0  0  0
 61137  1  0  0  0
 61138  1  0  0  0
 61139  1  0  0  0
 62140  1  0  0  0
 62141  1  0  0  0
 62142  1  0  0  0
 63 65  1  0  0  0
 63143  1  0  0  0
 63144  1  0  0  0
 63145  1  0  0  0
 64146  1  0  0  0
 65147  1  0  0  0
 68 83  1  0  0  0
 71 73  2  0  0  0
 71 74  1  0  0  0
 71148  1  0  0  0
 72 73  1  0  0  0
 72 75  2  0  0  0
 72149  1  0  0  0
 73 86  1  0  0  0
 74 76  2  0  0  0
 74 84  1  0  0  0
 75 76  1  0  0  0
 75 85  1  0  0  0
 76 87  1  0  0  0
 77 78  2  0  0  0
 77 83  1  0  0  0
 77 88  1  0  0  0
 78150  1  0  0  0
 78151  1  0  0  0
 79 80  1  0  0  0
 79 81  1  0  0  0
 79152  1  0  0  0
 79153  1  0  0  0
 80 82  1  0  0  0
 80154  1  0  0  0
 80155  1  0  0  0
 81 83  1  0  0  0
 81156  1  0  0  0
 81157  1  0  0  0
 82 88  1  0  0  0
 82158  1  0  0  0
 82159  1  0  0  0
 83160  1  0  0  0
 84161  1  0  0  0
 84162  1  0  0  0
 84163  1  0  0  0
 85164  1  0  0  0
 85165  1  0  0  0
 85166  1  0  0  0
 86167  1  0  0  0
 86168  1  0  0  0
 86 88  1  0  0  0
 87169  1  0  0  0
 88170  1  0  0  0
M  CHG  1  88   1
M  ISO  4   1 100  68 101  83 101  87 100
M  END
> <chiral flag>
0

> <version>
0

> <s_m_source_file>
/data/baiqing/PycharmProjects/Reinvent-master-3.2/result/LINK_invent/BTK/process_docking_weight1_custom_product_contain_oxygen_bond_distance_aromatic_linkinvent_7_9_3/rearranged_h_0042.sdf

> <i_m_source_file_index>
81

> <r_mmod_Potential_Energy-OPLS-2005>
-45.981143951416

> <r_mmod_Stretch_Energy-OPLS-2005>
87.2328262329102

> <r_mmod_Bend_Energy-OPLS-2005>
162.460739135742

> <r_mmod_Torsional_Energy-OPLS-2005>
236.356719970703

> <r_mmod_Improper_Torsional_Energy-OPLS-2005>
5.86791610717773

> <r_mmod_Van_der_Waal_Energy-OPLS-2005>
151.764953613281

> <r_mmod_Electrostatic_Energy-OPLS-2005>
-306.291687011719

> <r_mmod_Solvation_Energy-OPLS-2005>
-427.278778076172

> <b_mmod_Minimization_Converged-OPLS-2005>
0

> <r_mmod_RMS_Derivative-OPLS-2005>
2.92553997039795

$$$$
81
                    3D
 Structure written by MMmdl.
163171  0  0  1  0            999 V2000
  -30.6377  -14.6405   20.5398 C   0  0  0  0  0  0
  -30.4447  -12.4014   19.4671 C   0  0  0  0  0  0
  -29.5158  -12.5154   18.2365 C   0  0  0  0  0  0
  -28.0388  -12.3527   18.6446 C   0  0  0  0  0  0
  -27.6587  -13.2155   19.8767 C   0  0  2  0  0  0
  -28.7014  -13.0672   21.0095 C   0  0  0  0  0  0
  -25.2467  -13.7889   20.5543 C   0  0  0  0  0  0
  -24.1778  -13.0232   20.9188 C   0  0  0  0  0  0
  -24.6421  -11.6759   20.8790 C   0  0  0  0  0  0
  -23.9079  -10.4188   21.0449 C   0  0  0  0  0  0
  -24.3621   -9.4114   21.9232 C   0  0  0  0  0  0
  -23.6278   -8.2169   22.0772 C   0  0  0  0  0  0
  -22.4262   -8.0244   21.3548 C   0  0  0  0  0  0
  -21.9913   -9.0224   20.4651 C   0  0  0  0  0  0
  -22.7258  -10.2084   20.3080 C   0  0  0  0  0  0
  -21.6828   -6.0722   22.5287 C   0  0  0  0  0  0
  -21.3992   -6.5629   23.8216 C   0  0  0  0  0  0
  -21.3657   -5.6787   24.9183 C   0  0  0  0  0  0
  -21.6052   -4.3050   24.7238 C   0  0  0  0  0  0
  -21.8818   -3.8139   23.4355 C   0  0  0  0  0  0
  -21.9186   -4.6957   22.3414 C   0  0  0  0  0  0
  -22.7821  -13.5100   21.1850 C   0  0  0  0  0  0
  -22.1663   -4.2148   21.0991 F   0  0  0  0  0  0
  -21.5641   -3.4532   25.7747 F   0  0  0  0  0  0
  -30.0241  -13.4140   20.4606 N   0  0  0  0  0  0
  -26.3022  -12.9216   20.3376 N   0  0  0  0  0  0
  -25.9380  -11.6372   20.5853 N   0  0  0  0  0  0
  -22.0440  -12.8162   22.0430 N   0  0  0  0  0  0
  -25.3896  -15.1468   20.3651 N   0  0  0  0  0  0
  -31.7407  -14.8393   20.0203 O   0  0  0  0  0  0
  -21.6612   -6.8861   21.4242 O   0  0  0  0  0  0
  -22.3554  -14.5436   20.6711 O   0  0  0  0  0  0
  -24.6232  -31.8613   23.2045 C   0  0  0  0  0  0
  -25.9084  -32.4789   23.8371 C   0  0  1  0  0  0
  -27.2399  -27.3432   20.1131 C   0  0  0  0  0  0
  -25.5907  -33.8589   24.2295 N   0  0  0  0  0  0
  -23.4174  -30.4825   21.5475 C   0  0  2  0  0  0
  -24.8681  -28.9386   20.1177 C   0  0  0  0  0  0
  -22.7458  -29.4623   22.4967 C   0  0  0  0  0  0
  -18.0278  -28.1374   22.8489 C   0  0  0  0  0  0
  -24.1491  -36.7292   23.2641 C   0  0  0  0  0  0
  -25.9575  -30.7980   21.3750 C   0  0  0  0  0  0
  -26.0353  -29.4274   20.7165 C   0  0  0  0  0  0
  -27.2243  -28.6425   20.7023 C   0  0  0  0  0  0
  -26.0476  -26.9020   19.4924 C   0  0  0  0  0  0
  -24.8742  -27.6796   19.4986 C   0  0  0  0  0  0
  -23.6330  -29.8128   20.1651 C   0  0  0  0  0  0
  -25.4116  -36.3089   24.0332 C   0  0  1  0  0  0
  -20.5875  -28.3669   23.1295 C   0  0  2  0  0  0
  -20.6762  -26.9394   22.5413 C   0  0  0  0  0  0
  -19.5744  -26.6378   21.5204 C   0  0  0  0  0  0
  -18.1924  -26.7921   22.1618 C   0  0  0  0  0  0
  -19.1532  -28.8840   23.2887 C   0  0  0  0  0  0
  -18.9456  -30.1441   23.8904 C   0  0  0  0  0  0
  -17.6459  -30.6586   24.0548 C   0  0  0  0  0  0
  -25.9046  -34.9454   23.5115 C   0  0  0  0  0  0
  -16.5348  -29.9079   23.6329 C   0  0  0  0  0  0
  -16.7265  -28.6490   23.0363 C   0  0  0  0  0  0
  -26.4477  -31.6604   25.0736 C   0  0  0  0  0  0
  -25.3717  -31.3738   26.1467 C   0  0  0  0  0  0
  -27.0329  -30.3037   24.6185 C   0  0  0  0  0  0
  -27.6038  -32.4352   25.7490 C   0  0  0  0  0  0
  -27.5587  -37.1794   24.8462 C   0  0  0  0  0  0
  -21.4177  -29.3032   22.3699 N   0  0  0  0  0  0
  -26.4297  -37.3781   23.9410 N   0  0  0  0  0  0
  -24.6844  -31.0629   22.0995 N   0  0  0  0  0  0
  -23.4184  -28.8151   23.3037 O   0  0  0  0  0  0
  -28.3815  -26.5287   20.1273 O   0  0  0  0  0  0
  -26.5612  -34.8907   22.4680 O   0  0  0  0  0  0
  -23.5399  -32.1408   23.7380 O   0  0  0  0  0  0
  -27.5573  -18.4649   19.1363 C   0  0  0  0  0  0
  -27.9129  -16.9020   20.9619 C   0  0  0  0  0  0
  -27.0766  -17.8214   20.2876 C   0  0  0  0  0  0
  -28.9361  -18.4479   18.8663 C   0  0  0  0  0  0
  -29.8052  -17.8701   19.8289 C   0  0  0  0  0  0
  -29.2843  -16.7903   20.6312 C   0  0  0  0  0  0
  -30.2538  -21.5063   20.3317 C   0  0  0  0  0  0
  -25.6660  -18.1161   20.7614 C   0  0  0  0  0  0
  -29.4623  -19.2429   17.6789 C   0  0  0  0  0  0
  -30.7570  -18.9388   20.4394 C   0  0  0  0  0  0
  -29.1783  -22.6018   20.6683 C   0  0  0  0  0  0
  -29.4287  -24.1097   20.2265 C   0  0  0  0  0  0
  -28.1986  -25.0914   20.4020 C   0  0  0  0  0  0
  -29.9745  -15.6383   21.1999 N   0  0  0  0  0  0
  -30.0407  -20.2284   20.7556 N   0  0  0  0  0  0
  -31.2508  -21.8121   19.6765 O   0  0  0  0  0  0
  -31.4850  -12.5306   19.1637 H   0  0  0  0  0  0
  -30.3884  -11.4023   19.9028 H   0  0  0  0  0  0
  -29.7834  -11.7627   17.4932 H   0  0  0  0  0  0
  -29.6583  -13.4844   17.7568 H   0  0  0  0  0  0
  -27.8731  -11.2981   18.8692 H   0  0  0  0  0  0
  -27.3878  -12.5937   17.8037 H   0  0  0  0  0  0
  -27.6750  -14.2543   19.5461 H   0  0  0  0  0  0
  -28.7131  -12.0439   21.3856 H   0  0  0  0  0  0
  -28.4319  -13.6878   21.8645 H   0  0  0  0  0  0
  -25.2766   -9.5581   22.4818 H   0  0  0  0  0  0
  -23.9975   -7.4544   22.7483 H   0  0  0  0  0  0
  -21.0850   -8.8763   19.8951 H   0  0  0  0  0  0
  -22.3750  -10.9645   19.6199 H   0  0  0  0  0  0
  -21.1964   -7.6135   23.9716 H   0  0  0  0  0  0
  -21.1492   -6.0523   25.9088 H   0  0  0  0  0  0
  -22.0604   -2.7605   23.2858 H   0  0  0  0  0  0
  -22.4001  -11.9811   22.4847 H   0  0  0  0  0  0
  -21.1072  -13.1241   22.2612 H   0  0  0  0  0  0
  -24.6037  -15.7765   20.4677 H   0  0  0  0  0  0
  -26.2336  -15.6132   20.0527 H   0  0  0  0  0  0
  -26.7139  -32.5463   23.1109 H   0  0  0  0  0  0
  -25.0041  -33.9739   25.0432 H   0  0  0  0  0  0
  -22.7100  -31.3013   21.4015 H   0  0  0  0  0  0
  -23.3764  -35.9617   23.3310 H   0  0  0  0  0  0
  -24.3583  -36.8907   22.2055 H   0  0  0  0  0  0
  -23.7226  -37.6485   23.6660 H   0  0  0  0  0  0
  -26.0905  -31.5652   20.6109 H   0  0  0  0  0  0
  -26.8364  -30.8425   22.0063 H   0  0  0  0  0  0
  -28.1222  -29.0192   21.1714 H   0  0  0  0  0  0
  -25.9980  -25.9522   18.9829 H   0  0  0  0  0  0
  -23.9809  -27.3015   19.0214 H   0  0  0  0  0  0
  -23.7444  -30.5856   19.4041 H   0  0  0  0  0  0
  -22.7579  -29.2334   19.8659 H   0  0  0  0  0  0
  -25.1298  -36.1945   25.0826 H   0  0  0  0  0  0
  -20.9958  -28.3224   24.1417 H   0  0  0  0  0  0
  -20.5650  -26.2266   23.3602 H   0  0  0  0  0  0
  -21.6631  -26.7414   22.1210 H   0  0  0  0  0  0
  -19.6900  -25.6287   21.1233 H   0  0  0  0  0  0
  -19.6692  -27.3188   20.6734 H   0  0  0  0  0  0
  -17.4189  -26.6668   21.4023 H   0  0  0  0  0  0
  -18.0328  -26.0058   22.9011 H   0  0  0  0  0  0
  -19.7930  -30.7247   24.2295 H   0  0  0  0  0  0
  -17.5012  -31.6270   24.5136 H   0  0  0  0  0  0
  -15.5352  -30.2979   23.7659 H   0  0  0  0  0  0
  -15.8659  -28.0799   22.7107 H   0  0  0  0  0  0
  -24.5859  -30.7130   25.7783 H   0  0  0  0  0  0
  -24.8947  -32.2910   26.4936 H   0  0  0  0  0  0
  -25.8036  -30.8864   27.0216 H   0  0  0  0  0  0
  -26.2908  -29.6784   24.1206 H   0  0  0  0  0  0
  -27.4034  -29.7291   25.4683 H   0  0  0  0  0  0
  -27.8770  -30.4352   23.9411 H   0  0  0  0  0  0
  -27.2641  -33.3635   26.2098 H   0  0  0  0  0  0
  -28.3812  -32.6954   25.0294 H   0  0  0  0  0  0
  -28.0747  -31.8473   26.5377 H   0  0  0  0  0  0
  -28.2597  -38.0099   24.7526 H   0  0  0  0  0  0
  -28.1090  -36.2628   24.6278 H   0  0  0  0  0  0
  -27.2300  -37.1422   25.8862 H   0  0  0  0  0  0
  -20.9354  -29.8752   21.6910 H   0  0  0  0  0  0
  -26.0186  -38.2858   24.1421 H   0  0  0  0  0  0
  -26.8902  -19.0627   18.5283 H   0  0  0  0  0  0
  -27.4898  -16.2734   21.7327 H   0  0  0  0  0  0
  -24.9309  -17.8105   20.0167 H   0  0  0  0  0  0
  -25.5470  -19.1864   20.9285 H   0  0  0  0  0  0
  -25.4459  -17.6108   21.7025 H   0  0  0  0  0  0
  -29.6569  -18.5711   16.8428 H   0  0  0  0  0  0
  -30.3886  -19.7691   17.9000 H   0  0  0  0  0  0
  -28.7362  -19.9846   17.3450 H   0  0  0  0  0  0
  -31.5966  -19.1114   19.7644 H   0  0  0  0  0  0
  -31.1849  -18.5447   21.3620 H   0  0  0  0  0  0
  -29.0133  -22.5801   21.7458 H   0  0  0  0  0  0
  -28.2429  -22.2606   20.2220 H   0  0  0  0  0  0
  -29.7358  -24.1260   19.1806 H   0  0  0  0  0  0
  -30.2765  -24.4993   20.7897 H   0  0  0  0  0  0
  -27.8437  -25.0094   21.4304 H   0  0  0  0  0  0
  -27.4042  -24.6741   19.7867 H   0  0  0  0  0  0
  -29.4025  -15.2054   21.9093 H   0  0  0  0  0  0
  -29.1899  -20.0963   21.2846 H   0  0  0  0  0  0
  1 25  1  0  0  0
  1 30  2  0  0  0
  1 84  1  0  0  0
  2  3  1  0  0  0
  2 25  1  0  0  0
  2 87  1  0  0  0
  2 88  1  0  0  0
  3  4  1  0  0  0
  3 89  1  0  0  0
  3 90  1  0  0  0
  4  5  1  0  0  0
  4 91  1  0  0  0
  4 92  1  0  0  0
  5  6  1  0  0  0
  5 26  1  0  0  0
  5 93  1  0  0  0
  6 25  1  0  0  0
  6 94  1  0  0  0
  6 95  1  0  0  0
  7  8  2  0  0  0
  7 26  1  0  0  0
  7 29  1  0  0  0
  8  9  1  0  0  0
  8 22  1  0  0  0
  9 10  1  0  0  0
  9 27  2  0  0  0
 10 11  2  0  0  0
 10 15  1  0  0  0
 11 12  1  0  0  0
 11 96  1  0  0  0
 12 13  2  0  0  0
 12 97  1  0  0  0
 13 14  1  0  0  0
 13 31  1  0  0  0
 14 15  2  0  0  0
 14 98  1  0  0  0
 15 99  1  0  0  0
 16 17  2  0  0  0
 16 21  1  0  0  0
 16 31  1  0  0  0
 17 18  1  0  0  0
 17100  1  0  0  0
 18 19  2  0  0  0
 18101  1  0  0  0
 19 20  1  0  0  0
 19 24  1  0  0  0
 20 21  2  0  0  0
 20102  1  0  0  0
 21 23  1  0  0  0
 22 28  1  0  0  0
 22 32  2  0  0  0
 26 27  1  0  0  0
 28103  1  0  0  0
 28104  1  0  0  0
 29105  1  0  0  0
 29106  1  0  0  0
 33 34  1  0  0  0
 33 66  1  0  0  0
 33 70  2  0  0  0
 34 36  1  0  0  0
 34 59  1  0  0  0
 34107  1  0  0  0
 35 44  2  0  0  0
 35 45  1  0  0  0
 35 68  1  0  0  0
 36 56  1  0  0  0
 36108  1  0  0  0
 37 39  1  0  0  0
 37 47  1  0  0  0
 37 66  1  0  0  0
 37109  1  0  0  0
 38 43  2  0  0  0
 38 46  1  0  0  0
 38 47  1  0  0  0
 39 64  1  0  0  0
 39 67  2  0  0  0
 40 52  1  0  0  0
 40 53  2  0  0  0
 40 58  1  0  0  0
 41110  1  0  0  0
 41111  1  0  0  0
 41112  1  0  0  0
 41 48  1  0  0  0
 42 43  1  0  0  0
 42 66  1  0  0  0
 42113  1  0  0  0
 42114  1  0  0  0
 43 44  1  0  0  0
 44115  1  0  0  0
 45 46  2  0  0  0
 45116  1  0  0  0
 46117  1  0  0  0
 47118  1  0  0  0
 47119  1  0  0  0
 48 56  1  0  0  0
 48 65  1  0  0  0
 48120  1  0  0  0
 49 50  1  0  0  0
 49 53  1  0  0  0
 49 64  1  0  0  0
 49121  1  0  0  0
 50 51  1  0  0  0
 50122  1  0  0  0
 50123  1  0  0  0
 51 52  1  0  0  0
 51124  1  0  0  0
 51125  1  0  0  0
 52126  1  0  0  0
 52127  1  0  0  0
 53 54  1  0  0  0
 54 55  2  0  0  0
 54128  1  0  0  0
 55 57  1  0  0  0
 55129  1  0  0  0
 56 69  2  0  0  0
 57 58  2  0  0  0
 57130  1  0  0  0
 58131  1  0  0  0
 59 60  1  0  0  0
 59 61  1  0  0  0
 59 62  1  0  0  0
 60132  1  0  0  0
 60133  1  0  0  0
 60134  1  0  0  0
 61135  1  0  0  0
 61136  1  0  0  0
 61137  1  0  0  0
 62138  1  0  0  0
 62139  1  0  0  0
 62140  1  0  0  0
 63 65  1  0  0  0
 63141  1  0  0  0
 63142  1  0  0  0
 63143  1  0  0  0
 64144  1  0  0  0
 65145  1  0  0  0
 68 83  1  0  0  0
 71 73  2  0  0  0
 71 74  1  0  0  0
 71146  1  0  0  0
 72 73  1  0  0  0
 72 76  2  0  0  0
 72147  1  0  0  0
 73 78  1  0  0  0
 74 75  2  0  0  0
 74 79  1  0  0  0
 75 76  1  0  0  0
 75 80  1  0  0  0
 76 84  1  0  0  0
 77 81  1  0  0  0
 77 85  1  0  0  0
 77 86  2  0  0  0
 78148  1  0  0  0
 78149  1  0  0  0
 78150  1  0  0  0
 79151  1  0  0  0
 79152  1  0  0  0
 79153  1  0  0  0
 80 85  1  0  0  0
 80154  1  0  0  0
 80155  1  0  0  0
 81 82  1  0  0  0
 81156  1  0  0  0
 81157  1  0  0  0
 82 83  1  0  0  0
 82158  1  0  0  0
 82159  1  0  0  0
 83160  1  0  0  0
 83161  1  0  0  0
 84162  1  0  0  0
 85163  1  0  0  0
M  ISO  4   1 100  68 101  83 101  84 100
M  END
> <chiral flag>
0

> <version>
0

> <s_m_source_file>
/data/baiqing/PycharmProjects/Reinvent-master-3.2/result/LINK_invent/BTK/process_docking_weight1_custom_product_contain_oxygen_bond_distance_aromatic_linkinvent_7_9_3/rearranged_h_0042.sdf

> <i_m_source_file_index>
82

> <r_mmod_Potential_Energy-OPLS-2005>
138.957000732422

> <r_mmod_Stretch_Energy-OPLS-2005>
75.4026947021484

> <r_mmod_Bend_Energy-OPLS-2005>
148.077133178711

> <r_mmod_Torsional_Energy-OPLS-2005>
394.054168701172

> <r_mmod_Improper_Torsional_Energy-OPLS-2005>
19.3314990997314

> <r_mmod_Van_der_Waal_Energy-OPLS-2005>
143.614456176758

> <r_mmod_Electrostatic_Energy-OPLS-2005>
-456.418609619141

> <r_mmod_Solvation_Energy-OPLS-2005>
-227.91162109375

> <b_mmod_Minimization_Converged-OPLS-2005>
0

> <r_mmod_RMS_Derivative-OPLS-2005>
1.53718626499176

$$$$
82
                    3D
 Structure written by MMmdl.
158166  0  0  1  0            999 V2000
  -31.4343  -14.4161   21.0280 C   0  0  0  0  0  0
  -30.8540  -12.9423   19.0670 C   0  0  0  0  0  0
  -29.4947  -12.7642   17.6633 C   0  0  0  0  0  0
  -27.6496  -13.2768   18.0356 C   0  0  0  0  0  0
  -27.2003  -13.9102   19.8591 C   0  0  2  0  0  0
  -28.6997  -14.0612   21.2392 C   0  0  0  0  0  0
  -24.9757  -13.9557   20.7177 C   0  0  0  0  0  0
  -24.0086  -13.0615   20.9867 C   0  0  0  0  0  0
  -24.5768  -11.7531   20.8784 C   0  0  0  0  0  0
  -23.9098  -10.4462   21.0304 C   0  0  0  0  0  0
  -24.3713   -9.4401   21.9118 C   0  0  0  0  0  0
  -23.6376   -8.2395   22.0759 C   0  0  0  0  0  0
  -22.4320   -8.0362   21.3575 C   0  0  0  0  0  0
  -21.9966   -9.0256   20.4607 C   0  0  0  0  0  0
  -22.7308  -10.2139   20.2945 C   0  0  0  0  0  0
  -21.6879   -6.0774   22.5284 C   0  0  0  0  0  0
  -21.4036   -6.5666   23.8219 C   0  0  0  0  0  0
  -21.3619   -5.6813   24.9165 C   0  0  0  0  0  0
  -21.6028   -4.3069   24.7237 C   0  0  0  0  0  0
  -21.8801   -3.8160   23.4359 C   0  0  0  0  0  0
  -21.9227   -4.6993   22.3417 C   0  0  0  0  0  0
  -22.6040  -13.4692   21.2329 C   0  0  0  0  0  0
  -22.1709   -4.2174   21.1005 F   0  0  0  0  0  0
  -21.5590   -3.4546   25.7761 F   0  0  0  0  0  0
  -30.4053  -13.6546   20.7017 N   0  0  0  0  0  0
  -26.0475  -13.2248   20.3665 N   0  0  0  0  0  0
  -25.8540  -11.8650   20.5036 N   0  0  0  0  0  0
  -21.9096  -12.7501   22.1016 N   0  0  0  0  0  0
  -24.9887  -15.3500   20.7009 N   0  0  0  0  0  0
  -32.5188  -14.2416   20.5070 O   0  0  0  0  0  0
  -21.6690   -6.8949   21.4257 O   0  0  0  0  0  0
  -22.1519  -14.4885   20.7085 O   0  0  0  0  0  0
  -24.6865  -31.8049   23.1624 C   0  0  0  0  0  0
  -25.9460  -32.4505   23.8135 C   0  0  1  0  0  0
  -27.0698  -26.6928   20.0998 C   0  0  0  0  0  0
  -25.6041  -33.8326   24.2040 N   0  0  0  0  0  0
  -23.4997  -30.4231   21.5243 C   0  0  2  0  0  0
  -24.9129  -28.7863   20.0867 C   0  0  0  0  0  0
  -22.7767  -29.4337   22.4793 C   0  0  0  0  0  0
  -18.0362  -28.1433   22.8505 C   0  0  0  0  0  0
  -24.1457  -36.7091   23.2669 C   0  0  0  0  0  0
  -26.0802  -30.5173   21.4240 C   0  0  0  0  0  0
  -26.1088  -29.0953   20.7396 C   0  0  0  0  0  0
  -27.1855  -28.0650   20.7265 C   0  0  0  0  0  0
  -25.8632  -26.6085   19.3845 C   0  0  0  0  0  0
  -24.8276  -27.5743   19.3862 C   0  0  0  0  0  0
  -23.7334  -29.7581   20.1439 C   0  0  0  0  0  0
  -25.4124  -36.2902   24.0322 C   0  0  1  0  0  0
  -20.5994  -28.3768   23.1179 C   0  0  2  0  0  0
  -20.6779  -26.9438   22.5409 C   0  0  0  0  0  0
  -19.5712  -26.6382   21.5240 C   0  0  0  0  0  0
  -18.1936  -26.7993   22.1667 C   0  0  0  0  0  0
  -19.1635  -28.8926   23.2824 C   0  0  0  0  0  0
  -18.9524  -30.1544   23.8807 C   0  0  0  0  0  0
  -17.6497  -30.6603   24.0612 C   0  0  0  0  0  0
  -25.9125  -34.9302   23.5011 C   0  0  0  0  0  0
  -16.5386  -29.9080   23.6379 C   0  0  0  0  0  0
  -16.7345  -28.6525   23.0349 C   0  0  0  0  0  0
  -26.4604  -31.6561   25.0771 C   0  0  0  0  0  0
  -25.3648  -31.3895   26.1380 C   0  0  0  0  0  0
  -27.0576  -30.2947   24.6660 C   0  0  0  0  0  0
  -27.6069  -32.4401   25.7593 C   0  0  0  0  0  0
  -27.5538  -37.1693   24.8484 C   0  0  0  0  0  0
  -21.4439  -29.2987   22.3533 N   0  0  0  0  0  0
  -26.4235  -37.3670   23.9454 N   0  0  0  0  0  0
  -24.7830  -30.9479   22.0888 N   0  0  0  0  0  0
  -23.4239  -28.7966   23.3124 O   0  0  0  0  0  0
  -27.9106  -25.4080   20.1563 O   0  0  0  0  0  0
  -26.5721  -34.8863   22.4606 O   0  0  0  0  0  0
  -23.5868  -32.1172   23.6537 O   0  0  0  0  0  0
  -31.3613  -16.1044   18.5044 C   0  0  0  0  0  0
  -30.2544  -15.3065   18.0819 C   0  0  0  0  0  0
  -29.9273  -17.3127   19.8356 C   0  0  0  0  0  0
  -31.2123  -16.9244   19.6345 C   0  0  0  0  0  0
  -29.1982  -14.8510   19.0204 C   0  0  0  0  0  0
  -28.8593  -16.4677   19.4650 C   0  0  0  0  0  0
  -28.7669  -12.2750   19.8007 C   0  0  0  0  0  0
  -31.9350  -16.7323   20.9607 C   0  0  0  0  0  0
  -27.8319  -21.9323   20.1929 C   0  0  0  0  0  0
  -27.6905  -23.7549   19.6130 C   0  0  0  0  0  0
  -31.2241  -15.5974   21.5965 N   0  0  0  0  0  0
  -28.0055  -20.3021   19.4302 N   0  0  0  0  0  0
  -26.3931  -18.0030   18.8055 O   0  0  0  0  0  0
  -27.2182  -18.2019   21.1557 O   0  0  0  0  0  0
  -27.5333  -18.2308   19.7179 S   0  0  0  0  0  0
  -31.7167  -13.3979   18.5731 H   0  0  0  0  0  0
  -31.3246  -11.9675   19.2430 H   0  0  0  0  0  0
  -29.4712  -11.6913   17.4428 H   0  0  0  0  0  0
  -29.8022  -13.0831   16.6681 H   0  0  0  0  0  0
  -26.9758  -12.4629   17.7541 H   0  0  0  0  0  0
  -27.3625  -14.0545   17.3262 H   0  0  0  0  0  0
  -26.9106  -14.9220   19.6030 H   0  0  0  0  0  0
  -28.4531  -13.4444   22.1093 H   0  0  0  0  0  0
  -28.6594  -15.0570   21.6777 H   0  0  0  0  0  0
  -25.2830   -9.5896   22.4729 H   0  0  0  0  0  0
  -24.0077   -7.4779   22.7489 H   0  0  0  0  0  0
  -21.0903   -8.8718   19.8911 H   0  0  0  0  0  0
  -22.3760  -10.9635   19.6015 H   0  0  0  0  0  0
  -21.2046   -7.6169   23.9677 H   0  0  0  0  0  0
  -21.1434   -6.0590   25.9050 H   0  0  0  0  0  0
  -22.0625   -2.7615   23.2896 H   0  0  0  0  0  0
  -22.3111  -11.9384   22.5460 H   0  0  0  0  0  0
  -20.9535  -12.9994   22.3110 H   0  0  0  0  0  0
  -24.1539  -15.8647   20.9619 H   0  0  0  0  0  0
  -25.7305  -15.9602   20.3834 H   0  0  0  0  0  0
  -26.7547  -32.4938   23.0822 H   0  0  0  0  0  0
  -25.0200  -33.9405   25.0203 H   0  0  0  0  0  0
  -22.8255  -31.2666   21.3584 H   0  0  0  0  0  0
  -23.3784  -35.9346   23.3300 H   0  0  0  0  0  0
  -24.3471  -36.8766   22.2075 H   0  0  0  0  0  0
  -23.7113  -37.6233   23.6735 H   0  0  0  0  0  0
  -26.2975  -31.2528   20.6502 H   0  0  0  0  0  0
  -26.9398  -30.5565   22.0835 H   0  0  0  0  0  0
  -28.0858  -28.2802   21.2839 H   0  0  0  0  0  0
  -25.6515  -25.6943   18.8493 H   0  0  0  0  0  0
  -23.9162  -27.3462   18.8455 H   0  0  0  0  0  0
  -23.9276  -30.5415   19.4089 H   0  0  0  0  0  0
  -22.8255  -29.2561   19.8071 H   0  0  0  0  0  0
  -25.1310  -36.1705   25.0801 H   0  0  0  0  0  0
  -21.0061  -28.3320   24.1309 H   0  0  0  0  0  0
  -20.5650  -26.2394   23.3666 H   0  0  0  0  0  0
  -21.6654  -26.7423   22.1200 H   0  0  0  0  0  0
  -19.6889  -25.6273   21.1296 H   0  0  0  0  0  0
  -19.6620  -27.3183   20.6753 H   0  0  0  0  0  0
  -17.4217  -26.6813   21.4055 H   0  0  0  0  0  0
  -18.0300  -26.0147   22.9051 H   0  0  0  0  0  0
  -19.7981  -30.7470   24.2032 H   0  0  0  0  0  0
  -17.5017  -31.6280   24.5238 H   0  0  0  0  0  0
  -15.5366  -30.2918   23.7732 H   0  0  0  0  0  0
  -15.8788  -28.0841   22.6975 H   0  0  0  0  0  0
  -24.5823  -30.7271   25.7678 H   0  0  0  0  0  0
  -24.8836  -32.3133   26.4602 H   0  0  0  0  0  0
  -25.7763  -30.9185   27.0321 H   0  0  0  0  0  0
  -26.3317  -29.6522   24.1690 H   0  0  0  0  0  0
  -27.4084  -29.7448   25.5396 H   0  0  0  0  0  0
  -27.9252  -30.4170   24.0184 H   0  0  0  0  0  0
  -27.2658  -33.3751   26.2056 H   0  0  0  0  0  0
  -28.3952  -32.6883   25.0479 H   0  0  0  0  0  0
  -28.0698  -31.8640   26.5616 H   0  0  0  0  0  0
  -28.2571  -37.9976   24.7524 H   0  0  0  0  0  0
  -28.1029  -36.2496   24.6355 H   0  0  0  0  0  0
  -27.2235  -37.1384   25.8883 H   0  0  0  0  0  0
  -20.9728  -29.8670   21.6619 H   0  0  0  0  0  0
  -26.0077  -38.2720   24.1516 H   0  0  0  0  0  0
  -32.3442  -15.8912   18.1043 H   0  0  0  0  0  0
  -30.6478  -14.7314   17.2690 H   0  0  0  0  0  0
  -29.7820  -18.1781   20.4754 H   0  0  0  0  0  0
  -28.2837  -11.4859   19.1953 H   0  0  0  0  0  0
  -28.2113  -11.9697   20.6877 H   0  0  0  0  0  0
  -29.5352  -11.5713   20.1684 H   0  0  0  0  0  0
  -33.0060  -16.5720   20.8528 H   0  0  0  0  0  0
  -31.8155  -17.6148   21.5887 H   0  0  0  0  0  0
  -27.0195  -21.8198   20.9091 H   0  0  0  0  0  0
  -28.7106  -21.9826   20.8329 H   0  0  0  0  0  0
  -26.7298  -23.7673   19.1002 H   0  0  0  0  0  0
  -28.4146  -23.7610   18.7936 H   0  0  0  0  0  0
  -30.2794  -15.7699   21.9074 H   0  0  0  0  0  0
  -28.2583  -20.4163   18.4435 H   0  0  0  0  0  0
  1 25  1  0  0  0
  1 30  2  0  0  0
  1 81  1  0  0  0
  2  3  1  0  0  0
  2 25  1  0  0  0
  2 86  1  0  0  0
  2 87  1  0  0  0
  3  4  1  0  0  0
  3 88  1  0  0  0
  3 89  1  0  0  0
  4  5  1  0  0  0
  4 90  1  0  0  0
  4 91  1  0  0  0
  5  6  1  0  0  0
  5 26  1  0  0  0
  5 92  1  0  0  0
  6 25  1  0  0  0
  6 93  1  0  0  0
  6 94  1  0  0  0
  7  8  2  0  0  0
  7 26  1  0  0  0
  7 29  1  0  0  0
  8  9  1  0  0  0
  8 22  1  0  0  0
  9 10  1  0  0  0
  9 27  2  0  0  0
 10 11  2  0  0  0
 10 15  1  0  0  0
 11 12  1  0  0  0
 11 95  1  0  0  0
 12 13  2  0  0  0
 12 96  1  0  0  0
 13 14  1  0  0  0
 13 31  1  0  0  0
 14 15  2  0  0  0
 14 97  1  0  0  0
 15 98  1  0  0  0
 16 17  2  0  0  0
 16 21  1  0  0  0
 16 31  1  0  0  0
 17 18  1  0  0  0
 17 99  1  0  0  0
 18 19  2  0  0  0
 18100  1  0  0  0
 19 20  1  0  0  0
 19 24  1  0  0  0
 20 21  2  0  0  0
 20101  1  0  0  0
 21 23  1  0  0  0
 22 28  1  0  0  0
 22 32  2  0  0  0
 26 27  1  0  0  0
 28102  1  0  0  0
 28103  1  0  0  0
 29104  1  0  0  0
 29105  1  0  0  0
 33 34  1  0  0  0
 33 66  1  0  0  0
 33 70  2  0  0  0
 34 36  1  0  0  0
 34 59  1  0  0  0
 34106  1  0  0  0
 35 44  2  0  0  0
 35 45  1  0  0  0
 35 68  1  0  0  0
 36 56  1  0  0  0
 36107  1  0  0  0
 37 39  1  0  0  0
 37 47  1  0  0  0
 37 66  1  0  0  0
 37108  1  0  0  0
 38 43  2  0  0  0
 38 46  1  0  0  0
 38 47  1  0  0  0
 39 64  1  0  0  0
 39 67  2  0  0  0
 40 52  1  0  0  0
 40 53  2  0  0  0
 40 58  1  0  0  0
 41109  1  0  0  0
 41110  1  0  0  0
 41111  1  0  0  0
 41 48  1  0  0  0
 42 43  1  0  0  0
 42 66  1  0  0  0
 42112  1  0  0  0
 42113  1  0  0  0
 43 44  1  0  0  0
 44114  1  0  0  0
 45 46  2  0  0  0
 45115  1  0  0  0
 46116  1  0  0  0
 47117  1  0  0  0
 47118  1  0  0  0
 48 56  1  0  0  0
 48 65  1  0  0  0
 48119  1  0  0  0
 49 50  1  0  0  0
 49 53  1  0  0  0
 49 64  1  0  0  0
 49120  1  0  0  0
 50 51  1  0  0  0
 50121  1  0  0  0
 50122  1  0  0  0
 51 52  1  0  0  0
 51123  1  0  0  0
 51124  1  0  0  0
 52125  1  0  0  0
 52126  1  0  0  0
 53 54  1  0  0  0
 54 55  2  0  0  0
 54127  1  0  0  0
 55 57  1  0  0  0
 55128  1  0  0  0
 56 69  2  0  0  0
 57 58  2  0  0  0
 57129  1  0  0  0
 58130  1  0  0  0
 59 60  1  0  0  0
 59 61  1  0  0  0
 59 62  1  0  0  0
 60131  1  0  0  0
 60132  1  0  0  0
 60133  1  0  0  0
 61134  1  0  0  0
 61135  1  0  0  0
 61136  1  0  0  0
 62137  1  0  0  0
 62138  1  0  0  0
 62139  1  0  0  0
 63 65  1  0  0  0
 63140  1  0  0  0
 63141  1  0  0  0
 63142  1  0  0  0
 64143  1  0  0  0
 65144  1  0  0  0
 68 80  1  0  0  0
 71 72  2  0  0  0
 71 74  1  0  0  0
 71145  1  0  0  0
 72 75  1  0  0  0
 72146  1  0  0  0
 73 74  2  0  0  0
 73 76  1  0  0  0
 73147  1  0  0  0
 74 78  1  0  0  0
 75 76  2  0  0  0
 75 77  1  0  0  0
 76 85  1  0  0  0
 77148  1  0  0  0
 77149  1  0  0  0
 77150  1  0  0  0
 78 81  1  0  0  0
 78151  1  0  0  0
 78152  1  0  0  0
 79 80  1  0  0  0
 79 82  1  0  0  0
 79153  1  0  0  0
 79154  1  0  0  0
 80155  1  0  0  0
 80156  1  0  0  0
 81157  1  0  0  0
 82158  1  0  0  0
 82 85  1  0  0  0
 83 85  2  0  0  0
 84 85  2  0  0  0
M  ISO  4   1 100  68 101  80 101  81 100
M  END
> <chiral flag>
0

> <version>
0

> <s_m_source_file>
/data/baiqing/PycharmProjects/Reinvent-master-3.2/result/LINK_invent/BTK/process_docking_weight1_custom_product_contain_oxygen_bond_distance_aromatic_linkinvent_7_9_3/rearranged_h_0042.sdf

> <i_m_source_file_index>
83

> <r_mmod_Potential_Energy-OPLS-2005>
8461.283203125

> <r_mmod_Stretch_Energy-OPLS-2005>
4524.39990234375

> <r_mmod_Bend_Energy-OPLS-2005>
1036.787109375

> <r_mmod_Torsional_Energy-OPLS-2005>
580.8935546875

> <r_mmod_Improper_Torsional_Energy-OPLS-2005>
38.9083137512207

> <r_mmod_Van_der_Waal_Energy-OPLS-2005>
1899.30969238281

> <r_mmod_Electrostatic_Energy-OPLS-2005>
-469.372955322266

> <r_mmod_Solvation_Energy-OPLS-2005>
-246.702819824219

> <b_mmod_Minimization_Converged-OPLS-2005>
0

> <r_mmod_RMS_Derivative-OPLS-2005>
10.8623790740967

$$$$
83
                    3D
 Structure written by MMmdl.
171180  0  0  1  0            999 V2000
  -30.5935  -14.6902   20.4633 C   0  0  0  0  0  0
  -30.4457  -12.4159   19.4565 C   0  0  0  0  0  0
  -29.5115  -12.5053   18.2277 C   0  0  0  0  0  0
  -28.0349  -12.3352   18.6413 C   0  0  0  0  0  0
  -27.6519  -13.2084   19.8653 C   0  0  2  0  0  0
  -28.7020  -13.0870   20.9929 C   0  0  0  0  0  0
  -25.2563  -13.8134   20.5727 C   0  0  0  0  0  0
  -24.1818  -13.0409   20.9194 C   0  0  0  0  0  0
  -24.6381  -11.6882   20.8740 C   0  0  0  0  0  0
  -23.9049  -10.4275   21.0402 C   0  0  0  0  0  0
  -24.3606   -9.4197   21.9183 C   0  0  0  0  0  0
  -23.6286   -8.2231   22.0752 C   0  0  0  0  0  0
  -22.4268   -8.0270   21.3542 C   0  0  0  0  0  0
  -21.9899   -9.0241   20.4642 C   0  0  0  0  0  0
  -22.7222  -10.2122   20.3050 C   0  0  0  0  0  0
  -21.6848   -6.0729   22.5280 C   0  0  0  0  0  0
  -21.4010   -6.5636   23.8213 C   0  0  0  0  0  0
  -21.3660   -5.6788   24.9176 C   0  0  0  0  0  0
  -21.6046   -4.3050   24.7226 C   0  0  0  0  0  0
  -21.8820   -3.8142   23.4346 C   0  0  0  0  0  0
  -21.9191   -4.6958   22.3402 C   0  0  0  0  0  0
  -22.7843  -13.5219   21.1853 C   0  0  0  0  0  0
  -22.1661   -4.2145   21.0979 F   0  0  0  0  0  0
  -21.5633   -3.4534   25.7740 F   0  0  0  0  0  0
  -30.0115  -13.4458   20.4224 N   0  0  0  0  0  0
  -26.2985  -12.9300   20.3350 N   0  0  0  0  0  0
  -25.9310  -11.6463   20.5767 N   0  0  0  0  0  0
  -22.0472  -12.8221   22.0405 N   0  0  0  0  0  0
  -25.4259  -15.1862   20.4224 N   0  0  0  0  0  0
  -31.7598  -14.8619   20.0979 O   0  0  0  0  0  0
  -21.6631   -6.8870   21.4241 O   0  0  0  0  0  0
  -22.3540  -14.5532   20.6706 O   0  0  0  0  0  0
  -24.6281  -31.8569   23.1991 C   0  0  0  0  0  0
  -25.9117  -32.4763   23.8332 C   0  0  1  0  0  0
  -27.2374  -27.3080   20.0955 C   0  0  0  0  0  0
  -25.5924  -33.8564   24.2260 N   0  0  0  0  0  0
  -23.4234  -30.4786   21.5418 C   0  0  2  0  0  0
  -24.8725  -28.9341   20.1008 C   0  0  0  0  0  0
  -22.7489  -29.4604   22.4919 C   0  0  0  0  0  0
  -18.0289  -28.1386   22.8486 C   0  0  0  0  0  0
  -24.1491  -36.7286   23.2640 C   0  0  0  0  0  0
  -25.9653  -30.7825   21.3723 C   0  0  0  0  0  0
  -26.0402  -29.4110   20.7075 C   0  0  0  0  0  0
  -27.2189  -28.6052   20.7027 C   0  0  0  0  0  0
  -26.0380  -26.8774   19.4934 C   0  0  0  0  0  0
  -24.8737  -27.6713   19.4876 C   0  0  0  0  0  0
  -23.6380  -29.8124   20.1562 C   0  0  0  0  0  0
  -25.4117  -36.3074   24.0327 C   0  0  1  0  0  0
  -20.5892  -28.3691   23.1280 C   0  0  2  0  0  0
  -20.6777  -26.9412   22.5412 C   0  0  0  0  0  0
  -19.5753  -26.6383   21.5214 C   0  0  0  0  0  0
  -18.1933  -26.7928   22.1624 C   0  0  0  0  0  0
  -19.1542  -28.8855   23.2878 C   0  0  0  0  0  0
  -18.9463  -30.1457   23.8893 C   0  0  0  0  0  0
  -17.6462  -30.6587   24.0561 C   0  0  0  0  0  0
  -25.9055  -34.9444   23.5097 C   0  0  0  0  0  0
  -16.5355  -29.9084   23.6330 C   0  0  0  0  0  0
  -16.7276  -28.6503   23.0351 C   0  0  0  0  0  0
  -26.4494  -31.6582   25.0713 C   0  0  0  0  0  0
  -25.3721  -31.3724   26.1437 C   0  0  0  0  0  0
  -27.0341  -30.3005   24.6179 C   0  0  0  0  0  0
  -27.6051  -32.4320   25.7486 C   0  0  0  0  0  0
  -27.5580  -37.1800   24.8465 C   0  0  0  0  0  0
  -21.4199  -29.3037   22.3667 N   0  0  0  0  0  0
  -26.4293  -37.3772   23.9407 N   0  0  0  0  0  0
  -24.6911  -31.0563   22.0946 N   0  0  0  0  0  0
  -23.4204  -28.8151   23.3010 O   0  0  0  0  0  0
  -28.3387  -26.4445   20.2403 O   0  0  0  0  0  0
  -26.5629  -34.8916   22.4667 O   0  0  0  0  0  0
  -23.5440  -32.1373   23.7311 O   0  0  0  0  0  0
  -30.0041  -19.5500   21.1195 C   0  0  0  0  0  0
  -29.0525  -20.0595   20.1860 C   0  0  0  0  0  0
  -28.4770  -19.0517   19.3346 C   0  0  0  0  0  0
  -28.8615  -17.6619   19.4120 C   0  0  0  0  0  0
  -29.7252  -17.1649   20.4336 C   0  0  0  0  0  0
  -30.3081  -18.1578   21.2693 C   0  0  0  0  0  0
  -28.2438  -23.9947   19.0807 C   0  0  0  0  0  0
  -25.7054  -22.4382   16.8859 C   0  0  0  0  0  0
  -27.2590  -23.8251   18.1693 C   0  0  0  0  0  0
  -26.8891  -22.6025   17.4952 C   0  0  0  0  0  0
  -30.7977  -24.3619   20.4055 C   0  0  0  0  0  0
  -30.3602  -25.4576   19.4338 C   0  0  0  0  0  0
  -30.5578  -22.9852   19.7744 C   0  0  0  0  0  0
  -28.8380  -25.4684   19.2434 C   0  0  2  0  0  0
  -27.3538  -19.4060   18.3666 C   0  0  0  0  0  0
  -28.3067  -16.6733   18.3891 C   0  0  0  0  0  0
  -28.5460  -21.5866   20.2903 C   0  0  0  0  0  0
  -29.7449  -15.7275   20.7668 N   0  0  0  0  0  0
  -29.1318  -22.7273   19.4462 N   0  3  1  0  0  0
  -31.3469  -17.6799   22.5647 Cl  0  0  0  0  0  0
  -31.4848  -12.5521   19.1519 H   0  0  0  0  0  0
  -30.3941  -11.4245   19.9096 H   0  0  0  0  0  0
  -29.7827  -11.7467   17.4923 H   0  0  0  0  0  0
  -29.6448  -13.4686   17.7334 H   0  0  0  0  0  0
  -27.8789  -11.2823   18.8788 H   0  0  0  0  0  0
  -27.3781  -12.5556   17.7990 H   0  0  0  0  0  0
  -27.6573  -14.2365   19.5168 H   0  0  0  0  0  0
  -28.7271  -12.0690   21.3848 H   0  0  0  0  0  0
  -28.4422  -13.7240   21.8397 H   0  0  0  0  0  0
  -25.2750   -9.5681   22.4756 H   0  0  0  0  0  0
  -23.9995   -7.4624   22.7473 H   0  0  0  0  0  0
  -21.0828   -8.8758   19.8950 H   0  0  0  0  0  0
  -22.3678  -10.9663   19.6160 H   0  0  0  0  0  0
  -21.1997   -7.6144   23.9718 H   0  0  0  0  0  0
  -21.1483   -6.0515   25.9082 H   0  0  0  0  0  0
  -22.0600   -2.7603   23.2843 H   0  0  0  0  0  0
  -22.4071  -11.9878   22.4799 H   0  0  0  0  0  0
  -21.1094  -13.1264   22.2607 H   0  0  0  0  0  0
  -24.6577  -15.8353   20.5533 H   0  0  0  0  0  0
  -26.2805  -15.6398   20.1323 H   0  0  0  0  0  0
  -26.7186  -32.5423   23.1078 H   0  0  0  0  0  0
  -25.0064  -33.9702   25.0399 H   0  0  0  0  0  0
  -22.7183  -31.2999   21.3980 H   0  0  0  0  0  0
  -23.3753  -35.9619   23.3304 H   0  0  0  0  0  0
  -24.3576  -36.8905   22.2053 H   0  0  0  0  0  0
  -23.7245  -37.6489   23.6662 H   0  0  0  0  0  0
  -26.1006  -31.5487   20.6077 H   0  0  0  0  0  0
  -26.8437  -30.8283   22.0045 H   0  0  0  0  0  0
  -28.1095  -28.9595   21.2026 H   0  0  0  0  0  0
  -25.9454  -25.8857   19.0986 H   0  0  0  0  0  0
  -23.9702  -27.2861   19.0353 H   0  0  0  0  0  0
  -23.7533  -30.5893   19.3995 H   0  0  0  0  0  0
  -22.7584  -29.2402   19.8555 H   0  0  0  0  0  0
  -25.1301  -36.1922   25.0820 H   0  0  0  0  0  0
  -20.9986  -28.3269   24.1401 H   0  0  0  0  0  0
  -20.5677  -26.2302   23.3615 H   0  0  0  0  0  0
  -21.6645  -26.7438   22.1205 H   0  0  0  0  0  0
  -19.6914  -25.6293   21.1245 H   0  0  0  0  0  0
  -19.6693  -27.3190   20.6742 H   0  0  0  0  0  0
  -17.4205  -26.6678   21.4024 H   0  0  0  0  0  0
  -18.0330  -26.0070   22.9020 H   0  0  0  0  0  0
  -19.7940  -30.7273   24.2263 H   0  0  0  0  0  0
  -17.5018  -31.6265   24.5165 H   0  0  0  0  0  0
  -15.5355  -30.2984   23.7657 H   0  0  0  0  0  0
  -15.8677  -28.0820   22.7068 H   0  0  0  0  0  0
  -24.5901  -30.7068   25.7763 H   0  0  0  0  0  0
  -24.8904  -32.2891   26.4851 H   0  0  0  0  0  0
  -25.8040  -30.8909   27.0219 H   0  0  0  0  0  0
  -26.2916  -29.6752   24.1206 H   0  0  0  0  0  0
  -27.4037  -29.7265   25.4687 H   0  0  0  0  0  0
  -27.8787  -30.4287   23.9405 H   0  0  0  0  0  0
  -27.2660  -33.3621   26.2057 H   0  0  0  0  0  0
  -28.3864  -32.6877   25.0315 H   0  0  0  0  0  0
  -28.0719  -31.8449   26.5405 H   0  0  0  0  0  0
  -28.2601  -38.0093   24.7509 H   0  0  0  0  0  0
  -28.1072  -36.2624   24.6299 H   0  0  0  0  0  0
  -27.2296  -37.1455   25.8868 H   0  0  0  0  0  0
  -20.9383  -29.8758   21.6870 H   0  0  0  0  0  0
  -26.0174  -38.2849   24.1401 H   0  0  0  0  0  0
  -30.4555  -20.2334   21.8241 H   0  0  0  0  0  0
  -25.4703  -21.5201   16.3653 H   0  0  0  0  0  0
  -24.9496  -23.2115   16.8942 H   0  0  0  0  0  0
  -26.8263  -24.7131   17.7371 H   0  0  0  0  0  0
  -27.6069  -21.8049   17.4278 H   0  0  0  0  0  0
  -30.2702  -24.4540   21.3561 H   0  0  0  0  0  0
  -31.8594  -24.4746   20.6274 H   0  0  0  0  0  0
  -30.8477  -25.3007   18.4703 H   0  0  0  0  0  0
  -30.7034  -26.4336   19.7794 H   0  0  0  0  0  0
  -30.9612  -22.2073   20.4227 H   0  0  0  0  0  0
  -31.1274  -22.9097   18.8474 H   0  0  0  0  0  0
  -28.6729  -25.9640   18.2847 H   0  0  0  0  0  0
  -26.7378  -20.2260   18.7195 H   0  0  0  0  0  0
  -26.6414  -18.5905   18.2503 H   0  0  0  0  0  0
  -27.7540  -19.6324   17.3786 H   0  0  0  0  0  0
  -28.2850  -17.1140   17.3922 H   0  0  0  0  0  0
  -27.2944  -16.3681   18.6474 H   0  0  0  0  0  0
  -28.9267  -15.7831   18.2971 H   0  0  0  0  0  0
  -28.6635  -21.8876   21.3319 H   0  0  0  0  0  0
  -27.4663  -21.6007   20.1606 H   0  0  0  0  0  0
  -28.8477  -15.3812   21.0659 H   0  0  0  0  0  0
  -29.2320  -22.2463   18.5663 H   0  0  0  0  0  0
  1 25  1  0  0  0
  1 30  2  0  0  0
  1 88  1  0  0  0
  2  3  1  0  0  0
  2 25  1  0  0  0
  2 91  1  0  0  0
  2 92  1  0  0  0
  3  4  1  0  0  0
  3 93  1  0  0  0
  3 94  1  0  0  0
  4  5  1  0  0  0
  4 95  1  0  0  0
  4 96  1  0  0  0
  5  6  1  0  0  0
  5 26  1  0  0  0
  5 97  1  0  0  0
  6 25  1  0  0  0
  6 98  1  0  0  0
  6 99  1  0  0  0
  7  8  2  0  0  0
  7 26  1  0  0  0
  7 29  1  0  0  0
  8  9  1  0  0  0
  8 22  1  0  0  0
  9 10  1  0  0  0
  9 27  2  0  0  0
 10 11  2  0  0  0
 10 15  1  0  0  0
 11 12  1  0  0  0
 11100  1  0  0  0
 12 13  2  0  0  0
 12101  1  0  0  0
 13 14  1  0  0  0
 13 31  1  0  0  0
 14 15  2  0  0  0
 14102  1  0  0  0
 15103  1  0  0  0
 16 17  2  0  0  0
 16 21  1  0  0  0
 16 31  1  0  0  0
 17 18  1  0  0  0
 17104  1  0  0  0
 18 19  2  0  0  0
 18105  1  0  0  0
 19 20  1  0  0  0
 19 24  1  0  0  0
 20 21  2  0  0  0
 20106  1  0  0  0
 21 23  1  0  0  0
 22 28  1  0  0  0
 22 32  2  0  0  0
 26 27  1  0  0  0
 28107  1  0  0  0
 28108  1  0  0  0
 29109  1  0  0  0
 29110  1  0  0  0
 33 34  1  0  0  0
 33 66  1  0  0  0
 33 70  2  0  0  0
 34 36  1  0  0  0
 34 59  1  0  0  0
 34111  1  0  0  0
 35 44  2  0  0  0
 35 45  1  0  0  0
 35 68  1  0  0  0
 36 56  1  0  0  0
 36112  1  0  0  0
 37 39  1  0  0  0
 37 47  1  0  0  0
 37 66  1  0  0  0
 37113  1  0  0  0
 38 43  2  0  0  0
 38 46  1  0  0  0
 38 47  1  0  0  0
 39 64  1  0  0  0
 39 67  2  0  0  0
 40 52  1  0  0  0
 40 53  2  0  0  0
 40 58  1  0  0  0
 41114  1  0  0  0
 41115  1  0  0  0
 41116  1  0  0  0
 41 48  1  0  0  0
 42 43  1  0  0  0
 42 66  1  0  0  0
 42117  1  0  0  0
 42118  1  0  0  0
 43 44  1  0  0  0
 44119  1  0  0  0
 45 46  2  0  0  0
 45120  1  0  0  0
 46121  1  0  0  0
 47122  1  0  0  0
 47123  1  0  0  0
 48 56  1  0  0  0
 48 65  1  0  0  0
 48124  1  0  0  0
 49 50  1  0  0  0
 49 53  1  0  0  0
 49 64  1  0  0  0
 49125  1  0  0  0
 50 51  1  0  0  0
 50126  1  0  0  0
 50127  1  0  0  0
 51 52  1  0  0  0
 51128  1  0  0  0
 51129  1  0  0  0
 52130  1  0  0  0
 52131  1  0  0  0
 53 54  1  0  0  0
 54 55  2  0  0  0
 54132  1  0  0  0
 55 57  1  0  0  0
 55133  1  0  0  0
 56 69  2  0  0  0
 57 58  2  0  0  0
 57134  1  0  0  0
 58135  1  0  0  0
 59 60  1  0  0  0
 59 61  1  0  0  0
 59 62  1  0  0  0
 60136  1  0  0  0
 60137  1  0  0  0
 60138  1  0  0  0
 61139  1  0  0  0
 61140  1  0  0  0
 61141  1  0  0  0
 62142  1  0  0  0
 62143  1  0  0  0
 62144  1  0  0  0
 63 65  1  0  0  0
 63145  1  0  0  0
 63146  1  0  0  0
 63147  1  0  0  0
 64148  1  0  0  0
 65149  1  0  0  0
 68 84  1  0  0  0
 71 72  2  0  0  0
 71 76  1  0  0  0
 71150  1  0  0  0
 72 73  1  0  0  0
 72 87  1  0  0  0
 73 74  2  0  0  0
 73 85  1  0  0  0
 74 75  1  0  0  0
 74 86  1  0  0  0
 75 76  2  0  0  0
 75 88  1  0  0  0
 76 90  1  0  0  0
 77 79  2  0  0  0
 77 84  1  0  0  0
 77 89  1  0  0  0
 78 80  2  0  0  0
 78151  1  0  0  0
 78152  1  0  0  0
 79 80  1  0  0  0
 79153  1  0  0  0
 80154  1  0  0  0
 81 82  1  0  0  0
 81 83  1  0  0  0
 81155  1  0  0  0
 81156  1  0  0  0
 82 84  1  0  0  0
 82157  1  0  0  0
 82158  1  0  0  0
 83 89  1  0  0  0
 83159  1  0  0  0
 83160  1  0  0  0
 84161  1  0  0  0
 85162  1  0  0  0
 85163  1  0  0  0
 85164  1  0  0  0
 86165  1  0  0  0
 86166  1  0  0  0
 86167  1  0  0  0
 87168  1  0  0  0
 87169  1  0  0  0
 87 89  1  0  0  0
 88170  1  0  0  0
 89171  1  0  0  0
M  CHG  1  89   1
M  ISO  4   1 100  68 101  84 101  88 100
M  END
> <chiral flag>
0

> <version>
0

> <s_m_source_file>
/data/baiqing/PycharmProjects/Reinvent-master-3.2/result/LINK_invent/BTK/process_docking_weight1_custom_product_contain_oxygen_bond_distance_aromatic_linkinvent_7_9_3/rearranged_h_0042.sdf

> <i_m_source_file_index>
84

> <r_mmod_Potential_Energy-OPLS-2005>
96.3833999633789

> <r_mmod_Stretch_Energy-OPLS-2005>
117.894401550293

> <r_mmod_Bend_Energy-OPLS-2005>
216.022872924805

> <r_mmod_Torsional_Energy-OPLS-2005>
291.590026855469

> <r_mmod_Improper_Torsional_Energy-OPLS-2005>
11.4219703674316

> <r_mmod_Van_der_Waal_Energy-OPLS-2005>
145.123062133789

> <r_mmod_Electrostatic_Energy-OPLS-2005>
-308.603759765625

> <r_mmod_Solvation_Energy-OPLS-2005>
-441.852813720703

> <b_mmod_Minimization_Converged-OPLS-2005>
0

> <r_mmod_RMS_Derivative-OPLS-2005>
0.50999903678894

$$$$
84
                    3D
 Structure written by MMmdl.
159167  0  0  1  0            999 V2000
  -30.6661  -14.5491   20.5253 C   0  0  0  0  0  0
  -30.4328  -12.3390   19.4366 C   0  0  0  0  0  0
  -29.5038  -12.4923   18.2137 C   0  0  0  0  0  0
  -28.0231  -12.3517   18.6235 C   0  0  0  0  0  0
  -27.6593  -13.2093   19.8662 C   0  0  2  0  0  0
  -28.7039  -13.0276   20.9915 C   0  0  0  0  0  0
  -25.2594  -13.8160   20.5679 C   0  0  0  0  0  0
  -24.1851  -13.0429   20.9186 C   0  0  0  0  0  0
  -24.6399  -11.6900   20.8736 C   0  0  0  0  0  0
  -23.9051  -10.4299   21.0406 C   0  0  0  0  0  0
  -24.3606   -9.4215   21.9188 C   0  0  0  0  0  0
  -23.6289   -8.2245   22.0748 C   0  0  0  0  0  0
  -22.4270   -8.0275   21.3540 C   0  0  0  0  0  0
  -21.9904   -9.0247   20.4642 C   0  0  0  0  0  0
  -22.7221  -10.2132   20.3059 C   0  0  0  0  0  0
  -21.6852   -6.0731   22.5283 C   0  0  0  0  0  0
  -21.4008   -6.5637   23.8213 C   0  0  0  0  0  0
  -21.3666   -5.6791   24.9179 C   0  0  0  0  0  0
  -21.6052   -4.3055   24.7230 C   0  0  0  0  0  0
  -21.8817   -3.8141   23.4351 C   0  0  0  0  0  0
  -21.9187   -4.6957   22.3401 C   0  0  0  0  0  0
  -22.7872  -13.5230   21.1845 C   0  0  0  0  0  0
  -22.1660   -4.2144   21.0978 F   0  0  0  0  0  0
  -21.5634   -3.4538   25.7743 F   0  0  0  0  0  0
  -30.0274  -13.3465   20.4313 N   0  0  0  0  0  0
  -26.3024  -12.9331   20.3328 N   0  0  0  0  0  0
  -25.9327  -11.6493   20.5758 N   0  0  0  0  0  0
  -22.0488  -12.8243   22.0397 N   0  0  0  0  0  0
  -25.4321  -15.1884   20.4098 N   0  0  0  0  0  0
  -31.8163  -14.7223   20.1160 O   0  0  0  0  0  0
  -21.6635   -6.8869   21.4240 O   0  0  0  0  0  0
  -22.3572  -14.5535   20.6687 O   0  0  0  0  0  0
  -24.6204  -31.8647   23.2085 C   0  0  0  0  0  0
  -25.9075  -32.4806   23.8390 C   0  0  1  0  0  0
  -27.2292  -27.3754   20.1035 C   0  0  0  0  0  0
  -25.5919  -33.8603   24.2317 N   0  0  0  0  0  0
  -23.4111  -30.4896   21.5500 C   0  0  2  0  0  0
  -24.8570  -28.9569   20.1097 C   0  0  0  0  0  0
  -22.7446  -29.4641   22.4964 C   0  0  0  0  0  0
  -18.0273  -28.1397   22.8482 C   0  0  0  0  0  0
  -24.1491  -36.7312   23.2635 C   0  0  0  0  0  0
  -25.9462  -30.8111   21.3725 C   0  0  0  0  0  0
  -26.0212  -29.4429   20.7170 C   0  0  0  0  0  0
  -27.2072  -28.6604   20.7116 C   0  0  0  0  0  0
  -26.0456  -26.9408   19.4571 C   0  0  0  0  0  0
  -24.8682  -27.7083   19.4724 C   0  0  0  0  0  0
  -23.6223  -29.8286   20.1634 C   0  0  0  0  0  0
  -25.4111  -36.3099   24.0332 C   0  0  1  0  0  0
  -20.5867  -28.3687   23.1307 C   0  0  2  0  0  0
  -20.6769  -26.9421   22.5414 C   0  0  0  0  0  0
  -19.5748  -26.6399   21.5214 C   0  0  0  0  0  0
  -18.1924  -26.7938   22.1623 C   0  0  0  0  0  0
  -19.1521  -28.8857   23.2888 C   0  0  0  0  0  0
  -18.9451  -30.1459   23.8912 C   0  0  0  0  0  0
  -17.6454  -30.6594   24.0574 C   0  0  0  0  0  0
  -25.9039  -34.9465   23.5117 C   0  0  0  0  0  0
  -16.5346  -29.9103   23.6328 C   0  0  0  0  0  0
  -16.7261  -28.6522   23.0340 C   0  0  0  0  0  0
  -26.4485  -31.6596   25.0731 C   0  0  0  0  0  0
  -25.3748  -31.3716   26.1480 C   0  0  0  0  0  0
  -27.0321  -30.3032   24.6141 C   0  0  0  0  0  0
  -27.6062  -32.4318   25.7491 C   0  0  0  0  0  0
  -27.5580  -37.1811   24.8462 C   0  0  0  0  0  0
  -21.4164  -29.3049   22.3713 N   0  0  0  0  0  0
  -26.4293  -37.3790   23.9405 N   0  0  0  0  0  0
  -24.6779  -31.0700   22.1020 N   0  0  0  0  0  0
  -23.4193  -28.8164   23.3010 O   0  0  0  0  0  0
  -28.3700  -26.5721   20.1679 O   0  0  0  0  0  0
  -26.5600  -34.8919   22.4676 O   0  0  0  0  0  0
  -23.5387  -32.1412   23.7457 O   0  0  0  0  0  0
  -29.3328  -17.2043   23.1884 C   0  0  0  0  0  0
  -27.9587  -18.9847   24.0730 C   0  0  0  0  0  0
  -29.4809  -17.8773   21.9506 C   0  0  0  0  0  0
  -28.9510  -19.2205   21.8212 C   0  0  0  0  0  0
  -28.5893  -17.7489   24.2437 C   0  0  0  0  0  0
  -28.1283  -19.7104   22.8820 C   0  0  0  0  0  0
  -30.1744  -17.0541   20.8365 C   0  0  0  0  0  0
  -29.1715  -20.1464   20.5884 C   0  0  0  0  0  0
  -29.2069  -24.1330   20.5140 C   0  0  0  0  0  0
  -28.9570  -22.6442   20.0550 C   0  0  0  0  0  0
  -28.2288  -25.1553   19.8438 C   0  0  0  0  0  0
  -29.8895  -15.5915   20.9072 N   0  0  0  0  0  0
  -29.5443  -21.5678   20.9236 N   0  3  0  0  0  0
  -28.4210  -16.8828   25.7268 Cl  0  0  0  0  0  0
  -27.2657  -21.2091   22.7770 Cl  0  0  0  0  0  0
  -31.4761  -12.4477   19.1333 H   0  0  0  0  0  0
  -30.3477  -11.3378   19.8619 H   0  0  0  0  0  0
  -29.7523  -11.7465   17.4583 H   0  0  0  0  0  0
  -29.6692  -13.4648   17.7470 H   0  0  0  0  0  0
  -27.8366  -11.2974   18.8335 H   0  0  0  0  0  0
  -27.3741  -12.6093   17.7846 H   0  0  0  0  0  0
  -27.6894  -14.2507   19.5440 H   0  0  0  0  0  0
  -28.6951  -12.0009   21.3575 H   0  0  0  0  0  0
  -28.4665  -13.6483   21.8565 H   0  0  0  0  0  0
  -25.2754   -9.5700   22.4764 H   0  0  0  0  0  0
  -24.0000   -7.4642   22.7473 H   0  0  0  0  0  0
  -21.0825   -8.8763   19.8960 H   0  0  0  0  0  0
  -22.3671  -10.9669   19.6177 H   0  0  0  0  0  0
  -21.1997   -7.6146   23.9723 H   0  0  0  0  0  0
  -21.1497   -6.0515   25.9082 H   0  0  0  0  0  0
  -22.0590   -2.7598   23.2850 H   0  0  0  0  0  0
  -22.4073  -11.9911   22.4825 H   0  0  0  0  0  0
  -21.1107  -13.1306   22.2564 H   0  0  0  0  0  0
  -24.6636  -15.8399   20.5258 H   0  0  0  0  0  0
  -26.2747  -15.6307   20.0657 H   0  0  0  0  0  0
  -26.7140  -32.5500   23.1144 H   0  0  0  0  0  0
  -25.0102  -33.9764   25.0487 H   0  0  0  0  0  0
  -22.7018  -31.3078   21.4124 H   0  0  0  0  0  0
  -23.3745  -35.9654   23.3306 H   0  0  0  0  0  0
  -24.3580  -36.8921   22.2045 H   0  0  0  0  0  0
  -23.7251  -37.6523   23.6647 H   0  0  0  0  0  0
  -26.0655  -31.5744   20.6026 H   0  0  0  0  0  0
  -26.8322  -30.8646   21.9932 H   0  0  0  0  0  0
  -28.0989  -29.0287   21.1994 H   0  0  0  0  0  0
  -25.9978  -26.0012   18.9290 H   0  0  0  0  0  0
  -23.9795  -27.3360   18.9808 H   0  0  0  0  0  0
  -23.7370  -30.6064   19.4085 H   0  0  0  0  0  0
  -22.7452  -29.2534   19.8623 H   0  0  0  0  0  0
  -25.1288  -36.1961   25.0827 H   0  0  0  0  0  0
  -20.9948  -28.3261   24.1432 H   0  0  0  0  0  0
  -20.5683  -26.2303   23.3605 H   0  0  0  0  0  0
  -21.6639  -26.7476   22.1201 H   0  0  0  0  0  0
  -19.6916  -25.6310   21.1243 H   0  0  0  0  0  0
  -19.6687  -27.3214   20.6747 H   0  0  0  0  0  0
  -17.4195  -26.6675   21.4026 H   0  0  0  0  0  0
  -18.0333  -26.0083   22.9025 H   0  0  0  0  0  0
  -19.7925  -30.7266   24.2296 H   0  0  0  0  0  0
  -17.5011  -31.6273   24.5181 H   0  0  0  0  0  0
  -15.5348  -30.3018   23.7643 H   0  0  0  0  0  0
  -15.8657  -28.0858   22.7045 H   0  0  0  0  0  0
  -24.5909  -30.7079   25.7816 H   0  0  0  0  0  0
  -24.8961  -32.2883   26.4937 H   0  0  0  0  0  0
  -25.8094  -30.8870   27.0234 H   0  0  0  0  0  0
  -26.2881  -29.6786   24.1188 H   0  0  0  0  0  0
  -27.4070  -29.7269   25.4608 H   0  0  0  0  0  0
  -27.8725  -30.4331   23.9319 H   0  0  0  0  0  0
  -27.2680  -33.3605   26.2101 H   0  0  0  0  0  0
  -28.3856  -32.6903   25.0309 H   0  0  0  0  0  0
  -28.0759  -31.8431   26.5382 H   0  0  0  0  0  0
  -28.2606  -38.0103   24.7503 H   0  0  0  0  0  0
  -28.1070  -36.2633   24.6295 H   0  0  0  0  0  0
  -27.2299  -37.1474   25.8867 H   0  0  0  0  0  0
  -20.9338  -29.8793   21.6944 H   0  0  0  0  0  0
  -26.0179  -38.2867   24.1410 H   0  0  0  0  0  0
  -29.7772  -16.2315   23.3433 H   0  0  0  0  0  0
  -27.3447  -19.3863   24.8653 H   0  0  0  0  0  0
  -31.2500  -17.2301   20.8870 H   0  0  0  0  0  0
  -29.8417  -17.4027   19.8575 H   0  0  0  0  0  0
  -28.2484  -20.1363   20.0078 H   0  0  0  0  0  0
  -29.9448  -19.7412   19.9360 H   0  0  0  0  0  0
  -30.2396  -24.4124   20.3027 H   0  0  0  0  0  0
  -29.0848  -24.2075   21.5952 H   0  0  0  0  0  0
  -29.3196  -22.5147   19.0345 H   0  0  0  0  0  0
  -27.8785  -22.4787   20.0152 H   0  0  0  0  0  0
  -27.2412  -24.8042   20.1413 H   0  0  0  0  0  0
  -28.2907  -25.0547   18.7598 H   0  0  0  0  0  0
  -28.9519  -15.3449   21.1833 H   0  0  0  0  0  0
  -30.5477  -21.6476   20.9669 H   0  0  0  0  0  0
  -29.1776  -21.7227   21.8507 H   0  0  0  0  0  0
  1 25  1  0  0  0
  1 30  2  0  0  0
  1 82  1  0  0  0
  2  3  1  0  0  0
  2 25  1  0  0  0
  2 86  1  0  0  0
  2 87  1  0  0  0
  3  4  1  0  0  0
  3 88  1  0  0  0
  3 89  1  0  0  0
  4  5  1  0  0  0
  4 90  1  0  0  0
  4 91  1  0  0  0
  5  6  1  0  0  0
  5 26  1  0  0  0
  5 92  1  0  0  0
  6 25  1  0  0  0
  6 93  1  0  0  0
  6 94  1  0  0  0
  7  8  2  0  0  0
  7 26  1  0  0  0
  7 29  1  0  0  0
  8  9  1  0  0  0
  8 22  1  0  0  0
  9 10  1  0  0  0
  9 27  2  0  0  0
 10 11  2  0  0  0
 10 15  1  0  0  0
 11 12  1  0  0  0
 11 95  1  0  0  0
 12 13  2  0  0  0
 12 96  1  0  0  0
 13 14  1  0  0  0
 13 31  1  0  0  0
 14 15  2  0  0  0
 14 97  1  0  0  0
 15 98  1  0  0  0
 16 17  2  0  0  0
 16 21  1  0  0  0
 16 31  1  0  0  0
 17 18  1  0  0  0
 17 99  1  0  0  0
 18 19  2  0  0  0
 18100  1  0  0  0
 19 20  1  0  0  0
 19 24  1  0  0  0
 20 21  2  0  0  0
 20101  1  0  0  0
 21 23  1  0  0  0
 22 28  1  0  0  0
 22 32  2  0  0  0
 26 27  1  0  0  0
 28102  1  0  0  0
 28103  1  0  0  0
 29104  1  0  0  0
 29105  1  0  0  0
 33 34  1  0  0  0
 33 66  1  0  0  0
 33 70  2  0  0  0
 34 36  1  0  0  0
 34 59  1  0  0  0
 34106  1  0  0  0
 35 44  2  0  0  0
 35 45  1  0  0  0
 35 68  1  0  0  0
 36 56  1  0  0  0
 36107  1  0  0  0
 37 39  1  0  0  0
 37 47  1  0  0  0
 37 66  1  0  0  0
 37108  1  0  0  0
 38 43  2  0  0  0
 38 46  1  0  0  0
 38 47  1  0  0  0
 39 64  1  0  0  0
 39 67  2  0  0  0
 40 52  1  0  0  0
 40 53  2  0  0  0
 40 58  1  0  0  0
 41109  1  0  0  0
 41110  1  0  0  0
 41111  1  0  0  0
 41 48  1  0  0  0
 42 43  1  0  0  0
 42 66  1  0  0  0
 42112  1  0  0  0
 42113  1  0  0  0
 43 44  1  0  0  0
 44114  1  0  0  0
 45 46  2  0  0  0
 45115  1  0  0  0
 46116  1  0  0  0
 47117  1  0  0  0
 47118  1  0  0  0
 48 56  1  0  0  0
 48 65  1  0  0  0
 48119  1  0  0  0
 49 50  1  0  0  0
 49 53  1  0  0  0
 49 64  1  0  0  0
 49120  1  0  0  0
 50 51  1  0  0  0
 50121  1  0  0  0
 50122  1  0  0  0
 51 52  1  0  0  0
 51123  1  0  0  0
 51124  1  0  0  0
 52125  1  0  0  0
 52126  1  0  0  0
 53 54  1  0  0  0
 54 55  2  0  0  0
 54127  1  0  0  0
 55 57  1  0  0  0
 55128  1  0  0  0
 56 69  2  0  0  0
 57 58  2  0  0  0
 57129  1  0  0  0
 58130  1  0  0  0
 59 60  1  0  0  0
 59 61  1  0  0  0
 59 62  1  0  0  0
 60131  1  0  0  0
 60132  1  0  0  0
 60133  1  0  0  0
 61134  1  0  0  0
 61135  1  0  0  0
 61136  1  0  0  0
 62137  1  0  0  0
 62138  1  0  0  0
 62139  1  0  0  0
 63 65  1  0  0  0
 63140  1  0  0  0
 63141  1  0  0  0
 63142  1  0  0  0
 64143  1  0  0  0
 65144  1  0  0  0
 68 81  1  0  0  0
 71 73  2  0  0  0
 71 75  1  0  0  0
 71145  1  0  0  0
 72 75  2  0  0  0
 72 76  1  0  0  0
 72146  1  0  0  0
 73 74  1  0  0  0
 73 77  1  0  0  0
 74 76  2  0  0  0
 74 78  1  0  0  0
 75 84  1  0  0  0
 76 85  1  0  0  0
 77 82  1  0  0  0
 77147  1  0  0  0
 77148  1  0  0  0
 78 83  1  0  0  0
 78149  1  0  0  0
 78150  1  0  0  0
 79 80  1  0  0  0
 79 81  1  0  0  0
 79151  1  0  0  0
 79152  1  0  0  0
 80 83  1  0  0  0
 80153  1  0  0  0
 80154  1  0  0  0
 81155  1  0  0  0
 81156  1  0  0  0
 82157  1  0  0  0
 83158  1  0  0  0
 83159  1  0  0  0
M  CHG  1  83   1
M  ISO  4   1 100  68 101  81 101  82 100
M  END
> <chiral flag>
0

> <version>
0

> <s_m_source_file>
/data/baiqing/PycharmProjects/Reinvent-master-3.2/result/LINK_invent/BTK/process_docking_weight1_custom_product_contain_oxygen_bond_distance_aromatic_linkinvent_7_9_3/rearranged_h_0042.sdf

> <i_m_source_file_index>
85

> <r_mmod_Potential_Energy-OPLS-2005>
-270.912780761719

> <r_mmod_Stretch_Energy-OPLS-2005>
60.0356483459473

> <r_mmod_Bend_Energy-OPLS-2005>
116.6015625

> <r_mmod_Torsional_Energy-OPLS-2005>
203.882232666016

> <r_mmod_Improper_Torsional_Energy-OPLS-2005>
4.71094560623169

> <r_mmod_Van_der_Waal_Energy-OPLS-2005>
157.514144897461

> <r_mmod_Electrostatic_Energy-OPLS-2005>
-353.896423339844

> <r_mmod_Solvation_Energy-OPLS-2005>
-486.993225097656

> <b_mmod_Minimization_Converged-OPLS-2005>
0

> <r_mmod_RMS_Derivative-OPLS-2005>
1.98666858673096

$$$$
85
                    3D
 Structure written by MMmdl.
173182  0  0  1  0            999 V2000
  -31.2305  -14.9037   20.9949 C   0  0  0  0  0  0
  -31.0707  -13.8239   19.1421 C   0  0  0  0  0  0
  -28.7224  -14.0859   17.0906 C   0  0  0  0  0  0
  -27.1800  -13.8250   18.1399 C   0  0  0  0  0  0
  -27.3177  -13.7810   20.0015 C   0  0  2  0  0  0
  -28.7974  -13.7055   21.1180 C   0  0  0  0  0  0
  -25.0222  -13.9389   20.6736 C   0  0  0  0  0  0
  -24.0374  -13.0702   20.9746 C   0  0  0  0  0  0
  -24.5829  -11.7500   20.8977 C   0  0  0  0  0  0
  -23.8988  -10.4500   21.0302 C   0  0  0  0  0  0
  -24.3483   -9.4549   21.9255 C   0  0  0  0  0  0
  -23.6216   -8.2535   22.0907 C   0  0  0  0  0  0
  -22.4337   -8.0366   21.3562 C   0  0  0  0  0  0
  -22.0018   -9.0181   20.4492 C   0  0  0  0  0  0
  -22.7241  -10.2092   20.2858 C   0  0  0  0  0  0
  -21.6791   -6.0854   22.5336 C   0  0  0  0  0  0
  -21.3876   -6.5715   23.8262 C   0  0  0  0  0  0
  -21.3618   -5.6852   24.9230 C   0  0  0  0  0  0
  -21.6026   -4.3115   24.7239 C   0  0  0  0  0  0
  -21.8786   -3.8246   23.4317 C   0  0  0  0  0  0
  -21.9114   -4.7093   22.3420 C   0  0  0  0  0  0
  -22.6344  -13.5020   21.2055 C   0  0  0  0  0  0
  -22.1612   -4.2302   21.0956 F   0  0  0  0  0  0
  -21.5648   -3.4590   25.7717 F   0  0  0  0  0  0
  -30.4227  -13.8809   20.6696 N   0  0  0  0  0  0
  -26.1218  -13.1741   20.4890 N   0  0  0  0  0  0
  -25.8783  -11.8309   20.6214 N   0  0  0  0  0  0
  -21.9172  -12.7849   22.0558 N   0  0  0  0  0  0
  -25.0533  -15.3272   20.5154 N   0  0  0  0  0  0
  -32.4266  -14.7032   21.0635 O   0  0  0  0  0  0
  -21.6641   -6.8982   21.4310 O   0  0  0  0  0  0
  -22.2137  -14.5339   20.6928 O   0  0  0  0  0  0
  -24.7277  -31.7499   23.1221 C   0  0  0  0  0  0
  -25.9661  -32.4189   23.7884 C   0  0  1  0  0  0
  -27.1159  -26.2537   20.1294 C   0  0  0  0  0  0
  -25.6050  -33.8050   24.1681 N   0  0  0  0  0  0
  -23.5574  -30.3534   21.4877 C   0  0  2  0  0  0
  -24.9692  -28.6159   20.0913 C   0  0  0  0  0  0
  -22.7871  -29.4127   22.4583 C   0  0  0  0  0  0
  -18.0373  -28.1449   22.8435 C   0  0  0  0  0  0
  -24.1484  -36.7012   23.2670 C   0  0  0  0  0  0
  -26.1494  -30.3106   21.4509 C   0  0  0  0  0  0
  -26.1739  -28.8492   20.7617 C   0  0  0  0  0  0
  -27.2147  -27.7112   20.7301 C   0  0  0  0  0  0
  -25.8781  -26.3392   19.4182 C   0  0  0  0  0  0
  -24.8864  -27.3950   19.3908 C   0  0  0  0  0  0
  -23.8109  -29.6494   20.1250 C   0  0  0  0  0  0
  -25.4166  -36.2726   24.0241 C   0  0  1  0  0  0
  -20.6014  -28.3833   23.1046 C   0  0  2  0  0  0
  -20.6797  -26.9454   22.5395 C   0  0  0  0  0  0
  -19.5777  -26.6346   21.5212 C   0  0  0  0  0  0
  -18.1972  -26.7972   22.1609 C   0  0  0  0  0  0
  -19.1647  -28.8976   23.2717 C   0  0  0  0  0  0
  -18.9549  -30.1550   23.8781 C   0  0  0  0  0  0
  -17.6532  -30.6614   24.0553 C   0  0  0  0  0  0
  -25.9187  -34.9138   23.4829 C   0  0  0  0  0  0
  -16.5421  -29.9080   23.6365 C   0  0  0  0  0  0
  -16.7350  -28.6510   23.0371 C   0  0  0  0  0  0
  -26.4687  -31.6500   25.0754 C   0  0  0  0  0  0
  -25.3614  -31.4010   26.1283 C   0  0  0  0  0  0
  -27.0753  -30.2780   24.7131 C   0  0  0  0  0  0
  -27.5990  -32.4580   25.7573 C   0  0  0  0  0  0
  -27.5533  -37.1666   24.8453 C   0  0  0  0  0  0
  -21.4489  -29.3004   22.3295 N   0  0  0  0  0  0
  -26.4232  -37.3549   23.9407 N   0  0  0  0  0  0
  -24.8441  -30.8506   22.0693 N   0  0  0  0  0  0
  -23.4138  -28.7783   23.3101 O   0  0  0  0  0  0
  -27.9465  -24.8066   20.2400 O   0  0  0  0  0  0
  -26.5888  -34.8805   22.4489 O   0  0  0  0  0  0
  -23.6208  -32.0819   23.5912 O   0  0  0  0  0  0
  -31.0344  -14.9579   16.9605 C   0  0  0  0  0  0
  -30.2574  -15.7862   18.0739 C   0  0  0  0  0  0
  -29.1747  -12.8291   18.8139 C   0  0  0  0  0  0
  -29.1558  -15.1594   18.9916 C   0  0  0  0  0  0
  -30.1716  -12.2914   17.5749 C   0  0  0  0  0  0
  -31.0239  -13.3748   16.7339 C   0  0  0  0  0  0
  -26.3896  -20.7925   19.7918 C   0  0  0  0  0  0
  -27.7422  -20.8958   19.8199 C   0  0  0  0  0  0
  -25.5947  -19.5418   19.3853 C   0  0  0  0  0  0
  -25.6481  -19.3000   17.8508 C   0  0  0  0  0  0
  -26.9036  -18.5933   17.2560 C   0  0  0  0  0  0
  -28.2874  -19.0341   17.8089 C   0  0  0  0  0  0
  -28.5835  -11.5041   19.4360 C   0  0  0  0  0  0
  -30.3515  -10.8262   17.1779 C   0  0  0  0  0  0
  -31.1097  -16.6261   19.0914 C   0  0  0  0  0  0
  -28.3746  -17.0028   19.6084 C   0  0  0  0  0  0
  -28.2971  -22.8793   19.8473 C   0  0  0  0  0  0
  -30.9366  -16.1644   20.5395 N   0  0  0  0  0  0
  -28.3367  -18.9401   19.2864 N   0  3  1  0  0  0
  -32.0471  -12.8047   15.4624 Cl  0  0  0  0  0  0
  -32.0577  -14.2420   18.8937 H   0  0  0  0  0  0
  -31.5449  -12.8434   19.3017 H   0  0  0  0  0  0
  -28.6219  -13.4149   16.2262 H   0  0  0  0  0  0
  -28.5714  -15.0380   16.5679 H   0  0  0  0  0  0
  -26.6884  -12.9127   17.7984 H   0  0  0  0  0  0
  -26.4648  -14.6103   17.8742 H   0  0  0  0  0  0
  -27.2108  -14.8208   20.2310 H   0  0  0  0  0  0
  -28.7418  -12.8658   21.8093 H   0  0  0  0  0  0
  -28.6330  -14.5171   21.8317 H   0  0  0  0  0  0
  -25.2364   -9.6382   22.5183 H   0  0  0  0  0  0
  -23.9679   -7.5166   22.8000 H   0  0  0  0  0  0
  -21.0948   -8.8459   19.8833 H   0  0  0  0  0  0
  -22.3565  -10.9571   19.5950 H   0  0  0  0  0  0
  -21.1773   -7.6196   23.9851 H   0  0  0  0  0  0
  -21.1455   -6.0526   25.9133 H   0  0  0  0  0  0
  -22.0547   -2.7734   23.2735 H   0  0  0  0  0  0
  -22.2817  -11.9491   22.4842 H   0  0  0  0  0  0
  -20.9800  -13.0859   22.2923 H   0  0  0  0  0  0
  -24.2260  -15.9111   20.6038 H   0  0  0  0  0  0
  -25.8250  -15.8035   20.0744 H   0  0  0  0  0  0
  -26.7777  -32.4486   23.0596 H   0  0  0  0  0  0
  -25.0007  -33.9013   24.9705 H   0  0  0  0  0  0
  -22.9112  -31.2172   21.2913 H   0  0  0  0  0  0
  -23.3794  -35.9285   23.3239 H   0  0  0  0  0  0
  -24.3532  -36.8799   22.2103 H   0  0  0  0  0  0
  -23.7205  -37.6120   23.6858 H   0  0  0  0  0  0
  -26.4484  -31.0213   20.6817 H   0  0  0  0  0  0
  -26.9646  -30.3295   22.1668 H   0  0  0  0  0  0
  -28.1227  -27.9008   21.2725 H   0  0  0  0  0  0
  -25.5738  -25.4403   18.8935 H   0  0  0  0  0  0
  -23.9875  -27.2211   18.8092 H   0  0  0  0  0  0
  -24.0385  -30.4132   19.3772 H   0  0  0  0  0  0
  -22.8911  -29.1762   19.7788 H   0  0  0  0  0  0
  -25.1401  -36.1404   25.0724 H   0  0  0  0  0  0
  -21.0124  -28.3506   24.1159 H   0  0  0  0  0  0
  -20.5594  -26.2498   23.3708 H   0  0  0  0  0  0
  -21.6664  -26.7308   22.1277 H   0  0  0  0  0  0
  -19.6903  -25.6208   21.1357 H   0  0  0  0  0  0
  -19.6725  -27.3059   20.6671 H   0  0  0  0  0  0
  -17.4237  -26.6750   21.4007 H   0  0  0  0  0  0
  -18.0329  -26.0140   22.9030 H   0  0  0  0  0  0
  -19.8033  -30.7400   24.2076 H   0  0  0  0  0  0
  -17.5087  -31.6282   24.5179 H   0  0  0  0  0  0
  -15.5415  -30.2942   23.7749 H   0  0  0  0  0  0
  -15.8771  -28.0784   22.7130 H   0  0  0  0  0  0
  -24.5766  -30.7411   25.7570 H   0  0  0  0  0  0
  -24.8872  -32.3314   26.4394 H   0  0  0  0  0  0
  -25.7652  -30.9340   27.0273 H   0  0  0  0  0  0
  -26.3542  -29.6126   24.2371 H   0  0  0  0  0  0
  -27.4164  -29.7587   25.6102 H   0  0  0  0  0  0
  -27.9537  -30.3782   24.0769 H   0  0  0  0  0  0
  -27.2376  -33.3996   26.1724 H   0  0  0  0  0  0
  -28.3968  -32.7003   25.0542 H   0  0  0  0  0  0
  -28.0485  -31.9074   26.5835 H   0  0  0  0  0  0
  -28.2474  -38.0028   24.7532 H   0  0  0  0  0  0
  -28.1108  -36.2547   24.6249 H   0  0  0  0  0  0
  -27.2254  -37.1244   25.8853 H   0  0  0  0  0  0
  -20.9852  -29.8628   21.6299 H   0  0  0  0  0  0
  -26.0010  -38.2559   24.1453 H   0  0  0  0  0  0
  -31.7987  -15.4944   16.4105 H   0  0  0  0  0  0
  -25.7774  -21.6823   19.9095 H   0  0  0  0  0  0
  -24.5573  -19.6973   19.6669 H   0  0  0  0  0  0
  -25.8823  -18.6628   19.9651 H   0  0  0  0  0  0
  -25.5219  -20.2713   17.3570 H   0  0  0  0  0  0
  -24.7741  -18.7230   17.5489 H   0  0  0  0  0  0
  -26.9032  -18.7875   16.1876 H   0  0  0  0  0  0
  -26.7935  -17.5116   17.3341 H   0  0  0  0  0  0
  -28.4591  -20.0698   17.4952 H   0  0  0  0  0  0
  -29.0793  -18.4406   17.3613 H   0  0  0  0  0  0
  -28.2472  -11.4623   20.4516 H   0  0  0  0  0  0
  -29.3591  -10.7395   19.4909 H   0  0  0  0  0  0
  -27.7836  -11.1044   18.8060 H   0  0  0  0  0  0
  -29.5256  -10.1809   17.4588 H   0  0  0  0  0  0
  -31.2708  -10.4597   17.6383 H   0  0  0  0  0  0
  -30.4443  -10.7291   16.0974 H   0  0  0  0  0  0
  -30.8962  -17.6912   19.0011 H   0  0  0  0  0  0
  -32.1674  -16.5336   18.8212 H   0  0  0  0  0  0
  -28.4451  -16.9274   20.6935 H   0  0  0  0  0  0
  -27.3141  -16.8240   19.4475 H   0  0  0  0  0  0
  -29.1261  -22.8648   19.1122 H   0  0  0  0  0  0
  -28.8573  -22.7389   20.7761 H   0  0  0  0  0  0
  -31.3234  -16.8473   21.1700 H   0  0  0  0  0  0
  -27.3660  -18.7047   19.4417 H   0  0  0  0  0  0
  1 25  1  0  0  0
  1 30  2  0  0  0
  1 88  1  0  0  0
  2  3  1  0  0  0
  2 25  1  0  0  0
  2 91  1  0  0  0
  2 92  1  0  0  0
  3  4  1  0  0  0
  3 93  1  0  0  0
  3 94  1  0  0  0
  4  5  1  0  0  0
  4 95  1  0  0  0
  4 96  1  0  0  0
  5  6  1  0  0  0
  5 26  1  0  0  0
  5 97  1  0  0  0
  6 25  1  0  0  0
  6 98  1  0  0  0
  6 99  1  0  0  0
  7  8  2  0  0  0
  7 26  1  0  0  0
  7 29  1  0  0  0
  8  9  1  0  0  0
  8 22  1  0  0  0
  9 10  1  0  0  0
  9 27  2  0  0  0
 10 11  2  0  0  0
 10 15  1  0  0  0
 11 12  1  0  0  0
 11100  1  0  0  0
 12 13  2  0  0  0
 12101  1  0  0  0
 13 14  1  0  0  0
 13 31  1  0  0  0
 14 15  2  0  0  0
 14102  1  0  0  0
 15103  1  0  0  0
 16 17  2  0  0  0
 16 21  1  0  0  0
 16 31  1  0  0  0
 17 18  1  0  0  0
 17104  1  0  0  0
 18 19  2  0  0  0
 18105  1  0  0  0
 19 20  1  0  0  0
 19 24  1  0  0  0
 20 21  2  0  0  0
 20106  1  0  0  0
 21 23  1  0  0  0
 22 28  1  0  0  0
 22 32  2  0  0  0
 26 27  1  0  0  0
 28107  1  0  0  0
 28108  1  0  0  0
 29109  1  0  0  0
 29110  1  0  0  0
 33 34  1  0  0  0
 33 66  1  0  0  0
 33 70  2  0  0  0
 34 36  1  0  0  0
 34 59  1  0  0  0
 34111  1  0  0  0
 35 44  2  0  0  0
 35 45  1  0  0  0
 35 68  1  0  0  0
 36 56  1  0  0  0
 36112  1  0  0  0
 37 39  1  0  0  0
 37 47  1  0  0  0
 37 66  1  0  0  0
 37113  1  0  0  0
 38 43  2  0  0  0
 38 46  1  0  0  0
 38 47  1  0  0  0
 39 64  1  0  0  0
 39 67  2  0  0  0
 40 52  1  0  0  0
 40 53  2  0  0  0
 40 58  1  0  0  0
 41114  1  0  0  0
 41115  1  0  0  0
 41116  1  0  0  0
 41 48  1  0  0  0
 42 43  1  0  0  0
 42 66  1  0  0  0
 42117  1  0  0  0
 42118  1  0  0  0
 43 44  1  0  0  0
 44119  1  0  0  0
 45 46  2  0  0  0
 45120  1  0  0  0
 46121  1  0  0  0
 47122  1  0  0  0
 47123  1  0  0  0
 48 56  1  0  0  0
 48 65  1  0  0  0
 48124  1  0  0  0
 49 50  1  0  0  0
 49 53  1  0  0  0
 49 64  1  0  0  0
 49125  1  0  0  0
 50 51  1  0  0  0
 50126  1  0  0  0
 50127  1  0  0  0
 51 52  1  0  0  0
 51128  1  0  0  0
 51129  1  0  0  0
 52130  1  0  0  0
 52131  1  0  0  0
 53 54  1  0  0  0
 54 55  2  0  0  0
 54132  1  0  0  0
 55 57  1  0  0  0
 55133  1  0  0  0
 56 69  2  0  0  0
 57 58  2  0  0  0
 57134  1  0  0  0
 58135  1  0  0  0
 59 60  1  0  0  0
 59 61  1  0  0  0
 59 62  1  0  0  0
 60136  1  0  0  0
 60137  1  0  0  0
 60138  1  0  0  0
 61139  1  0  0  0
 61140  1  0  0  0
 61141  1  0  0  0
 62142  1  0  0  0
 62143  1  0  0  0
 62144  1  0  0  0
 63 65  1  0  0  0
 63145  1  0  0  0
 63146  1  0  0  0
 63147  1  0  0  0
 64148  1  0  0  0
 65149  1  0  0  0
 68 87  1  0  0  0
 71 72  2  0  0  0
 71 76  1  0  0  0
 71150  1  0  0  0
 72 74  1  0  0  0
 72 85  1  0  0  0
 73 74  2  0  0  0
 73 75  1  0  0  0
 73 83  1  0  0  0
 74 86  1  0  0  0
 75 76  2  0  0  0
 75 84  1  0  0  0
 76 90  1  0  0  0
 77 78  2  0  0  0
 77 79  1  0  0  0
 77151  1  0  0  0
 78 87  1  0  0  0
 78 89  1  0  0  0
 79 80  1  0  0  0
 79152  1  0  0  0
 79153  1  0  0  0
 80 81  1  0  0  0
 80154  1  0  0  0
 80155  1  0  0  0
 81 82  1  0  0  0
 81156  1  0  0  0
 81157  1  0  0  0
 82 89  1  0  0  0
 82158  1  0  0  0
 82159  1  0  0  0
 83160  1  0  0  0
 83161  1  0  0  0
 83162  1  0  0  0
 84163  1  0  0  0
 84164  1  0  0  0
 84165  1  0  0  0
 85 88  1  0  0  0
 85166  1  0  0  0
 85167  1  0  0  0
 86168  1  0  0  0
 86169  1  0  0  0
 86 89  1  0  0  0
 87170  1  0  0  0
 87171  1  0  0  0
 88172  1  0  0  0
 89173  1  0  0  0
M  CHG  1  89   1
M  ISO  4   1 100  68 101  87 101  88 100
M  END
> <chiral flag>
0

> <version>
0

> <s_m_source_file>
/data/baiqing/PycharmProjects/Reinvent-master-3.2/result/LINK_invent/BTK/process_docking_weight1_custom_product_contain_oxygen_bond_distance_aromatic_linkinvent_7_9_3/rearranged_h_0042.sdf

> <i_m_source_file_index>
86

> <r_mmod_Potential_Energy-OPLS-2005>
14772.3818359375

> <r_mmod_Stretch_Energy-OPLS-2005>
8129.86376953125

> <r_mmod_Bend_Energy-OPLS-2005>
1729.873046875

> <r_mmod_Torsional_Energy-OPLS-2005>
482.635711669922

> <r_mmod_Improper_Torsional_Energy-OPLS-2005>
57.0583343505859

> <r_mmod_Van_der_Waal_Energy-OPLS-2005>
2837.59399414062

> <r_mmod_Electrostatic_Energy-OPLS-2005>
-292.926361083984

> <r_mmod_Solvation_Energy-OPLS-2005>
-464.728210449219

> <b_mmod_Minimization_Converged-OPLS-2005>
0

> <r_mmod_RMS_Derivative-OPLS-2005>
16.7756004333496

$$$$
86
                    3D
 Structure written by MMmdl.
169178  0  0  1  0            999 V2000
  -30.6298  -14.9305   20.3875 C   0  0  0  0  0  0
  -30.4266  -12.5842   19.4962 C   0  0  0  0  0  0
  -29.5158  -12.5005   18.2580 C   0  0  0  0  0  0
  -28.0538  -12.2849   18.6833 C   0  0  0  0  0  0
  -27.6215  -13.2496   19.8195 C   0  0  2  0  0  0
  -28.6651  -13.3479   20.9507 C   0  0  0  0  0  0
  -25.2443  -13.8241   20.5709 C   0  0  0  0  0  0
  -24.1765  -13.0459   20.9256 C   0  0  0  0  0  0
  -24.6375  -11.6949   20.8762 C   0  0  0  0  0  0
  -23.9086  -10.4311   21.0416 C   0  0  0  0  0  0
  -24.3652   -9.4218   21.9202 C   0  0  0  0  0  0
  -23.6315   -8.2249   22.0761 C   0  0  0  0  0  0
  -22.4279   -8.0322   21.3550 C   0  0  0  0  0  0
  -21.9928   -9.0308   20.4635 C   0  0  0  0  0  0
  -22.7266  -10.2179   20.3053 C   0  0  0  0  0  0
  -21.6857   -6.0769   22.5305 C   0  0  0  0  0  0
  -21.4024   -6.5678   23.8247 C   0  0  0  0  0  0
  -21.3649   -5.6795   24.9200 C   0  0  0  0  0  0
  -21.6016   -4.3060   24.7202 C   0  0  0  0  0  0
  -21.8821   -3.8174   23.4326 C   0  0  0  0  0  0
  -21.9181   -4.6999   22.3392 C   0  0  0  0  0  0
  -22.7803  -13.5255   21.1878 C   0  0  0  0  0  0
  -22.1650   -4.2203   21.0967 F   0  0  0  0  0  0
  -21.5603   -3.4534   25.7705 F   0  0  0  0  0  0
  -29.9397  -13.7204   20.3263 N   0  0  0  0  0  0
  -26.2861  -12.9481   20.3185 N   0  0  0  0  0  0
  -25.9305  -11.6614   20.5738 N   0  0  0  0  0  0
  -22.0388  -12.8278   22.0413 N   0  0  0  0  0  0
  -25.4078  -15.1989   20.4164 N   0  0  0  0  0  0
  -31.8512  -14.8301   20.2824 O   0  0  0  0  0  0
  -21.6617   -6.8940   21.4280 O   0  0  0  0  0  0
  -22.3517  -14.5561   20.6690 O   0  0  0  0  0  0
  -24.6386  -31.8468   23.1926 C   0  0  0  0  0  0
  -25.9199  -32.4710   23.8280 C   0  0  1  0  0  0
  -27.2162  -27.1809   20.1536 C   0  0  0  0  0  0
  -25.5966  -33.8516   24.2217 N   0  0  0  0  0  0
  -23.4415  -30.4671   21.5361 C   0  0  2  0  0  0
  -24.8908  -28.8987   20.1126 C   0  0  0  0  0  0
  -22.7564  -29.4564   22.4880 C   0  0  0  0  0  0
  -18.0307  -28.1385   22.8505 C   0  0  0  0  0  0
  -24.1495  -36.7251   23.2635 C   0  0  0  0  0  0
  -25.9914  -30.7392   21.3806 C   0  0  0  0  0  0
  -26.0644  -29.3540   20.7234 C   0  0  0  0  0  0
  -27.2335  -28.5119   20.7215 C   0  0  0  0  0  0
  -26.0158  -26.8051   19.5193 C   0  0  0  0  0  0
  -24.8770  -27.6380   19.4953 C   0  0  0  0  0  0
  -23.6651  -29.7977   20.1547 C   0  0  0  0  0  0
  -25.4129  -36.3033   24.0314 C   0  0  1  0  0  0
  -20.5926  -28.3694   23.1279 C   0  0  2  0  0  0
  -20.6775  -26.9404   22.5410 C   0  0  0  0  0  0
  -19.5739  -26.6382   21.5219 C   0  0  0  0  0  0
  -18.1933  -26.7931   22.1644 C   0  0  0  0  0  0
  -19.1563  -28.8867   23.2888 C   0  0  0  0  0  0
  -18.9460  -30.1469   23.8896 C   0  0  0  0  0  0
  -17.6448  -30.6572   24.0567 C   0  0  0  0  0  0
  -25.9071  -34.9408   23.5071 C   0  0  0  0  0  0
  -16.5356  -29.9050   23.6331 C   0  0  0  0  0  0
  -16.7294  -28.6479   23.0360 C   0  0  0  0  0  0
  -26.4539  -31.6560   25.0686 C   0  0  0  0  0  0
  -25.3740  -31.3726   26.1394 C   0  0  0  0  0  0
  -27.0369  -30.2959   24.6196 C   0  0  0  0  0  0
  -27.6081  -32.4305   25.7458 C   0  0  0  0  0  0
  -27.5584  -37.1782   24.8473 C   0  0  0  0  0  0
  -21.4258  -29.3028   22.3649 N   0  0  0  0  0  0
  -26.4296  -37.3745   23.9408 N   0  0  0  0  0  0
  -24.7095  -31.0365   22.0932 N   0  0  0  0  0  0
  -23.4230  -28.8105   23.3012 O   0  0  0  0  0  0
  -28.2947  -26.2449   20.2011 O   0  0  0  0  0  0
  -26.5627  -34.8916   22.4626 O   0  0  0  0  0  0
  -23.5516  -32.1347   23.7166 O   0  0  0  0  0  0
  -32.8992  -18.5201   20.0865 C   0  0  0  0  0  0
  -31.2440  -19.6612   21.4007 C   0  0  0  0  0  0
  -32.5933  -19.4165   21.1212 C   0  0  0  0  0  0
  -31.8906  -17.6749   19.5701 C   0  0  0  0  0  0
  -30.2057  -18.9654   20.7378 C   0  0  0  0  0  0
  -30.5977  -17.6223   20.1812 C   0  0  0  0  0  0
  -29.1620  -23.9976   21.2660 C   0  0  0  0  0  0
  -28.1530  -23.7708   19.1055 C   0  0  0  0  0  0
  -29.0067  -22.4174   21.5062 C   0  0  0  0  0  0
  -28.0907  -24.7234   20.3690 C   0  0  2  0  0  0
  -28.0753  -22.1582   19.2918 C   0  0  1  0  0  0
  -33.6546  -20.2379   21.8309 C   0  0  0  0  0  0
  -32.2416  -16.8646   18.3292 C   0  0  0  0  0  0
  -28.1961  -21.5233   17.8827 C   0  0  0  0  0  0
  -28.9069  -19.9329   20.5536 C   0  0  0  0  0  0
  -29.9895  -16.2122   20.3333 N   0  0  0  0  0  0
  -29.0410  -21.5063   20.2888 N   0  3  1  0  0  0
  -31.4593  -12.7114   19.1694 H   0  0  0  0  0  0
  -30.4227  -11.6604   20.0731 H   0  0  0  0  0  0
  -29.8440  -11.6866   17.6099 H   0  0  0  0  0  0
  -29.6035  -13.4238   17.6801 H   0  0  0  0  0  0
  -27.9547  -11.2512   19.0214 H   0  0  0  0  0  0
  -27.3939  -12.3846   17.8233 H   0  0  0  0  0  0
  -27.5714  -14.2328   19.3528 H   0  0  0  0  0  0
  -28.7470  -12.4108   21.5010 H   0  0  0  0  0  0
  -28.3654  -14.1113   21.6724 H   0  0  0  0  0  0
  -25.2776   -9.5688   22.4820 H   0  0  0  0  0  0
  -24.0003   -7.4613   22.7487 H   0  0  0  0  0  0
  -21.0851   -8.8851   19.8918 H   0  0  0  0  0  0
  -22.3741  -10.9761   19.6173 H   0  0  0  0  0  0
  -21.2074   -7.6184   23.9796 H   0  0  0  0  0  0
  -21.1445   -6.0501   25.9107 H   0  0  0  0  0  0
  -22.0599   -2.7632   23.2795 H   0  0  0  0  0  0
  -22.3921  -11.9950   22.4874 H   0  0  0  0  0  0
  -21.1022  -13.1380   22.2556 H   0  0  0  0  0  0
  -24.6361  -15.8459   20.5391 H   0  0  0  0  0  0
  -26.2530  -15.6434   20.0852 H   0  0  0  0  0  0
  -26.7254  -32.5348   23.1006 H   0  0  0  0  0  0
  -25.0161  -33.9641   25.0392 H   0  0  0  0  0  0
  -22.7412  -31.2898   21.3847 H   0  0  0  0  0  0
  -23.3768  -35.9572   23.3298 H   0  0  0  0  0  0
  -24.3590  -36.8874   22.2050 H   0  0  0  0  0  0
  -23.7245  -37.6447   23.6667 H   0  0  0  0  0  0
  -26.1402  -31.4974   20.6103 H   0  0  0  0  0  0
  -26.8645  -30.7899   22.0196 H   0  0  0  0  0  0
  -28.1363  -28.8577   21.2088 H   0  0  0  0  0  0
  -25.9414  -25.8317   19.0580 H   0  0  0  0  0  0
  -23.9782  -27.2841   19.0088 H   0  0  0  0  0  0
  -23.8073  -30.5733   19.4010 H   0  0  0  0  0  0
  -22.7801  -29.2395   19.8407 H   0  0  0  0  0  0
  -25.1319  -36.1866   25.0802 H   0  0  0  0  0  0
  -21.0042  -28.3254   24.1396 H   0  0  0  0  0  0
  -20.5689  -26.2285   23.3615 H   0  0  0  0  0  0
  -21.6631  -26.7401   22.1195 H   0  0  0  0  0  0
  -19.6876  -25.6293   21.1234 H   0  0  0  0  0  0
  -19.6665  -27.3213   20.6772 H   0  0  0  0  0  0
  -17.4208  -26.6742   21.4046 H   0  0  0  0  0  0
  -18.0295  -26.0059   22.9020 H   0  0  0  0  0  0
  -19.7929  -30.7300   24.2267 H   0  0  0  0  0  0
  -17.4983  -31.6261   24.5149 H   0  0  0  0  0  0
  -15.5354  -30.2928   23.7636 H   0  0  0  0  0  0
  -15.8716  -28.0773   22.7058 H   0  0  0  0  0  0
  -24.5936  -30.7054   25.7731 H   0  0  0  0  0  0
  -24.8902  -32.2883   26.4790 H   0  0  0  0  0  0
  -25.8042  -30.8933   27.0195 H   0  0  0  0  0  0
  -26.2936  -29.6707   24.1229 H   0  0  0  0  0  0
  -27.4050  -29.7242   25.4726 H   0  0  0  0  0  0
  -27.8832  -30.4225   23.9439 H   0  0  0  0  0  0
  -27.2700  -33.3640   26.1990 H   0  0  0  0  0  0
  -28.3912  -32.6825   25.0285 H   0  0  0  0  0  0
  -28.0729  -31.8451   26.5411 H   0  0  0  0  0  0
  -28.2598  -38.0080   24.7514 H   0  0  0  0  0  0
  -28.1087  -36.2612   24.6312 H   0  0  0  0  0  0
  -27.2300  -37.1440   25.8874 H   0  0  0  0  0  0
  -20.9451  -29.8759   21.6851 H   0  0  0  0  0  0
  -26.0172  -38.2812   24.1415 H   0  0  0  0  0  0
  -33.9089  -18.4549   19.6978 H   0  0  0  0  0  0
  -31.0308  -20.4904   22.0510 H   0  0  0  0  0  0
  -30.1484  -24.1968   20.8466 H   0  0  0  0  0  0
  -29.1667  -24.4832   22.2424 H   0  0  0  0  0  0
  -29.0617  -24.0090   18.5524 H   0  0  0  0  0  0
  -27.3444  -24.0672   18.4354 H   0  0  0  0  0  0
  -28.0788  -22.2369   22.0509 H   0  0  0  0  0  0
  -29.7904  -22.1310   22.2020 H   0  0  0  0  0  0
  -27.1222  -24.5891   20.8579 H   0  0  0  0  0  0
  -27.0675  -21.9413   19.6572 H   0  0  0  0  0  0
  -33.7099  -21.2513   21.4274 H   0  0  0  0  0  0
  -34.6416  -19.7803   21.7626 H   0  0  0  0  0  0
  -33.4036  -20.3193   22.8899 H   0  0  0  0  0  0
  -33.0766  -16.1919   18.5195 H   0  0  0  0  0  0
  -32.5455  -17.5361   17.5252 H   0  0  0  0  0  0
  -31.3950  -16.2916   17.9528 H   0  0  0  0  0  0
  -29.2264  -21.5027   17.5316 H   0  0  0  0  0  0
  -27.6283  -22.0946   17.1466 H   0  0  0  0  0  0
  -27.8114  -20.5049   17.8353 H   0  0  0  0  0  0
  -28.3275  -19.4872   19.7478 H   0  0  0  0  0  0
  -28.2865  -19.8130   21.4427 H   0  0  0  0  0  0
  -28.9888  -16.1797   20.4532 H   0  0  0  0  0  0
  -29.9588  -21.6163   19.8835 H   0  0  0  0  0  0
  1 25  1  0  0  0
  1 30  2  0  0  0
  1 86  1  0  0  0
  2  3  1  0  0  0
  2 25  1  0  0  0
  2 88  1  0  0  0
  2 89  1  0  0  0
  3  4  1  0  0  0
  3 90  1  0  0  0
  3 91  1  0  0  0
  4  5  1  0  0  0
  4 92  1  0  0  0
  4 93  1  0  0  0
  5  6  1  0  0  0
  5 26  1  0  0  0
  5 94  1  0  0  0
  6 25  1  0  0  0
  6 95  1  0  0  0
  6 96  1  0  0  0
  7  8  2  0  0  0
  7 26  1  0  0  0
  7 29  1  0  0  0
  8  9  1  0  0  0
  8 22  1  0  0  0
  9 10  1  0  0  0
  9 27  2  0  0  0
 10 11  2  0  0  0
 10 15  1  0  0  0
 11 12  1  0  0  0
 11 97  1  0  0  0
 12 13  2  0  0  0
 12 98  1  0  0  0
 13 14  1  0  0  0
 13 31  1  0  0  0
 14 15  2  0  0  0
 14 99  1  0  0  0
 15100  1  0  0  0
 16 17  2  0  0  0
 16 21  1  0  0  0
 16 31  1  0  0  0
 17 18  1  0  0  0
 17101  1  0  0  0
 18 19  2  0  0  0
 18102  1  0  0  0
 19 20  1  0  0  0
 19 24  1  0  0  0
 20 21  2  0  0  0
 20103  1  0  0  0
 21 23  1  0  0  0
 22 28  1  0  0  0
 22 32  2  0  0  0
 26 27  1  0  0  0
 28104  1  0  0  0
 28105  1  0  0  0
 29106  1  0  0  0
 29107  1  0  0  0
 33 34  1  0  0  0
 33 66  1  0  0  0
 33 70  2  0  0  0
 34 36  1  0  0  0
 34 59  1  0  0  0
 34108  1  0  0  0
 35 44  2  0  0  0
 35 45  1  0  0  0
 35 68  1  0  0  0
 36 56  1  0  0  0
 36109  1  0  0  0
 37 39  1  0  0  0
 37 47  1  0  0  0
 37 66  1  0  0  0
 37110  1  0  0  0
 38 43  2  0  0  0
 38 46  1  0  0  0
 38 47  1  0  0  0
 39 64  1  0  0  0
 39 67  2  0  0  0
 40 52  1  0  0  0
 40 53  2  0  0  0
 40 58  1  0  0  0
 41111  1  0  0  0
 41112  1  0  0  0
 41113  1  0  0  0
 41 48  1  0  0  0
 42 43  1  0  0  0
 42 66  1  0  0  0
 42114  1  0  0  0
 42115  1  0  0  0
 43 44  1  0  0  0
 44116  1  0  0  0
 45 46  2  0  0  0
 45117  1  0  0  0
 46118  1  0  0  0
 47119  1  0  0  0
 47120  1  0  0  0
 48 56  1  0  0  0
 48 65  1  0  0  0
 48121  1  0  0  0
 49 50  1  0  0  0
 49 53  1  0  0  0
 49 64  1  0  0  0
 49122  1  0  0  0
 50 51  1  0  0  0
 50123  1  0  0  0
 50124  1  0  0  0
 51 52  1  0  0  0
 51125  1  0  0  0
 51126  1  0  0  0
 52127  1  0  0  0
 52128  1  0  0  0
 53 54  1  0  0  0
 54 55  2  0  0  0
 54129  1  0  0  0
 55 57  1  0  0  0
 55130  1  0  0  0
 56 69  2  0  0  0
 57 58  2  0  0  0
 57131  1  0  0  0
 58132  1  0  0  0
 59 60  1  0  0  0
 59 61  1  0  0  0
 59 62  1  0  0  0
 60133  1  0  0  0
 60134  1  0  0  0
 60135  1  0  0  0
 61136  1  0  0  0
 61137  1  0  0  0
 61138  1  0  0  0
 62139  1  0  0  0
 62140  1  0  0  0
 62141  1  0  0  0
 63 65  1  0  0  0
 63142  1  0  0  0
 63143  1  0  0  0
 63144  1  0  0  0
 64145  1  0  0  0
 65146  1  0  0  0
 68 80  1  0  0  0
 71 73  2  0  0  0
 71 74  1  0  0  0
 71147  1  0  0  0
 72 73  1  0  0  0
 72 75  2  0  0  0
 72148  1  0  0  0
 73 82  1  0  0  0
 74 76  2  0  0  0
 74 83  1  0  0  0
 75 76  1  0  0  0
 75 85  1  0  0  0
 76 86  1  0  0  0
 77 79  1  0  0  0
 77 80  1  0  0  0
 77149  1  0  0  0
 77150  1  0  0  0
 78 80  1  0  0  0
 78 81  1  0  0  0
 78151  1  0  0  0
 78152  1  0  0  0
 79 87  1  0  0  0
 79153  1  0  0  0
 79154  1  0  0  0
 80155  1  0  0  0
 81 84  1  0  0  0
 81 87  1  0  0  0
 81156  1  0  0  0
 82157  1  0  0  0
 82158  1  0  0  0
 82159  1  0  0  0
 83160  1  0  0  0
 83161  1  0  0  0
 83162  1  0  0  0
 84163  1  0  0  0
 84164  1  0  0  0
 84165  1  0  0  0
 85166  1  0  0  0
 85167  1  0  0  0
 85 87  1  0  0  0
 86168  1  0  0  0
 87169  1  0  0  0
M  CHG  1  87   1
M  ISO  4   1 100  68 101  80 101  86 100
M  END
> <chiral flag>
0

> <version>
0

> <s_m_source_file>
/data/baiqing/PycharmProjects/Reinvent-master-3.2/result/LINK_invent/BTK/process_docking_weight1_custom_product_contain_oxygen_bond_distance_aromatic_linkinvent_7_9_3/rearranged_h_0042.sdf

> <i_m_source_file_index>
87

> <r_mmod_Potential_Energy-OPLS-2005>
517.499633789062

> <r_mmod_Stretch_Energy-OPLS-2005>
230.833923339844

> <r_mmod_Bend_Energy-OPLS-2005>
266.978210449219

> <r_mmod_Torsional_Energy-OPLS-2005>
421.396240234375

> <r_mmod_Improper_Torsional_Energy-OPLS-2005>
8.11097621917725

> <r_mmod_Van_der_Waal_Energy-OPLS-2005>
147.497817993164

> <r_mmod_Electrostatic_Energy-OPLS-2005>
-286.619964599609

> <r_mmod_Solvation_Energy-OPLS-2005>
-445.848663330078

> <b_mmod_Minimization_Converged-OPLS-2005>
0

> <r_mmod_RMS_Derivative-OPLS-2005>
4.88048696517944

$$$$
87
                    3D
 Structure written by MMmdl.
167176  0  0  1  0            999 V2000
  -29.1611  -17.6957   20.3131 C   0  0  0  0  0  0
  -29.9945  -14.7031   19.5461 C   0  0  0  0  0  0
  -29.5256  -13.4813   18.5523 C   0  0  0  0  0  0
  -28.3539  -12.6492   19.0672 C   0  0  0  0  0  0
  -27.5287  -13.6387   19.8850 C   0  0  2  0  0  0
  -28.2840  -14.6977   20.8554 C   0  0  0  0  0  0
  -25.1643  -13.8875   20.6012 C   0  0  0  0  0  0
  -24.1426  -13.0569   20.9346 C   0  0  0  0  0  0
  -24.6670  -11.7262   20.8733 C   0  0  0  0  0  0
  -23.9478  -10.4439   21.0296 C   0  0  0  0  0  0
  -24.3889   -9.4350   21.9157 C   0  0  0  0  0  0
  -23.6488   -8.2399   22.0768 C   0  0  0  0  0  0
  -22.4463   -8.0420   21.3571 C   0  0  0  0  0  0
  -22.0174   -9.0412   20.4647 C   0  0  0  0  0  0
  -22.7585  -10.2263   20.3021 C   0  0  0  0  0  0
  -21.6932   -6.0835   22.5265 C   0  0  0  0  0  0
  -21.4083   -6.5704   23.8209 C   0  0  0  0  0  0
  -21.3667   -5.6828   24.9148 C   0  0  0  0  0  0
  -21.6030   -4.3092   24.7181 C   0  0  0  0  0  0
  -21.8832   -3.8210   23.4299 C   0  0  0  0  0  0
  -21.9234   -4.7048   22.3369 C   0  0  0  0  0  0
  -22.7362  -13.5020   21.1923 C   0  0  0  0  0  0
  -22.1688   -4.2220   21.0945 F   0  0  0  0  0  0
  -21.5608   -3.4569   25.7691 F   0  0  0  0  0  0
  -29.0006  -15.9456   20.1487 N   0  0  0  0  0  0
  -26.2647  -13.0963   20.3905 N   0  0  0  0  0  0
  -25.9781  -11.7654   20.5738 N   0  0  0  0  0  0
  -22.0154  -12.7910   22.0473 N   0  0  0  0  0  0
  -25.2488  -15.2650   20.4219 N   0  0  0  0  0  0
  -30.4395  -17.3769   20.2828 O   0  0  0  0  0  0
  -21.6786   -6.9034   21.4259 O   0  0  0  0  0  0
  -22.2947  -14.5301   20.6787 O   0  0  0  0  0  0
  -24.7165  -31.5940   23.0163 C   0  0  0  0  0  0
  -25.9322  -32.3418   23.7096 C   0  0  1  0  0  0
  -28.4678  -25.8411   19.7938 C   0  0  0  0  0  0
  -25.5550  -33.7394   24.0860 N   0  0  0  0  0  0
  -23.5898  -29.9334   21.4354 C   0  0  2  0  0  0
  -24.7141  -27.3785   20.5815 C   0  0  0  0  0  0
  -22.7479  -29.3023   22.5294 C   0  0  0  0  0  0
  -18.0158  -28.1348   22.8405 C   0  0  0  0  0  0
  -24.1499  -36.6824   23.2722 C   0  0  0  0  0  0
  -26.1137  -29.9002   21.5415 C   0  0  0  0  0  0
  -26.2738  -28.2513   21.3170 C   0  0  0  0  0  0
  -28.1201  -27.4645   21.1312 C   0  0  0  0  0  0
  -26.7757  -24.9152   18.4898 C   0  0  0  0  0  0
  -24.7911  -25.5839   19.3703 C   0  0  0  0  0  0
  -23.7792  -28.7322   20.3361 C   0  0  0  0  0  0
  -25.4175  -36.2292   24.0197 C   0  0  1  0  0  0
  -20.5686  -28.3574   23.1393 C   0  0  2  0  0  0
  -20.6533  -26.9228   22.5606 C   0  0  0  0  0  0
  -19.5640  -26.6302   21.5211 C   0  0  0  0  0  0
  -18.1764  -26.7880   22.1535 C   0  0  0  0  0  0
  -19.1403  -28.8796   23.2830 C   0  0  0  0  0  0
  -18.9392  -30.1380   23.8881 C   0  0  0  0  0  0
  -17.6400  -30.6568   24.0506 C   0  0  0  0  0  0
  -25.9136  -34.8724   23.4572 C   0  0  0  0  0  0
  -16.5266  -29.9099   23.6246 C   0  0  0  0  0  0
  -16.7157  -28.6489   23.0303 C   0  0  0  0  0  0
  -26.4551  -31.6147   25.0226 C   0  0  0  0  0  0
  -25.3536  -31.3730   26.0865 C   0  0  0  0  0  0
  -27.0837  -30.2509   24.6785 C   0  0  0  0  0  0
  -27.5770  -32.4456   25.6984 C   0  0  0  0  0  0
  -27.5504  -37.1485   24.8423 C   0  0  0  0  0  0
  -21.4205  -29.2703   22.3785 N   0  0  0  0  0  0
  -26.4135  -37.3242   23.9445 N   0  0  0  0  0  0
  -24.8322  -30.5658   22.0423 N   0  0  0  0  0  0
  -23.3335  -28.7295   23.4487 O   0  0  0  0  0  0
  -29.7544  -25.6391   19.8670 O   0  0  0  0  0  0
  -26.6142  -34.8610   22.4449 O   0  0  0  0  0  0
  -23.6097  -31.9856   23.4388 O   0  0  0  0  0  0
  -26.5037  -26.8931   19.2617 C   0  0  0  0  0  0
  -25.8194  -24.6482   21.5290 C   0  0  0  0  0  0
  -26.7346  -24.5519   20.6072 C   0  0  0  0  0  0
  -26.4761  -27.3156   17.9317 C   0  0  0  0  0  0
  -26.4793  -25.8527   21.1538 C   0  0  0  0  0  0
  -26.8553  -27.2750   19.3027 C   0  0  0  0  0  0
  -30.4521  -27.4911   18.5337 C   0  0  0  0  0  0
  -29.5155  -25.7120   16.4229 C   0  0  0  0  0  0
  -30.3301  -25.0675   17.5687 C   0  0  0  0  0  0
  -29.1717  -27.2316   16.5596 C   0  0  0  0  0  0
  -30.5993  -25.9831   18.7788 C   0  0  2  0  0  0
  -26.0045  -28.6446   17.2160 C   0  0  0  0  0  0
  -26.8888  -25.9857   22.7627 C   0  0  0  0  0  0
  -28.2114  -28.4116   18.7844 C   0  0  0  0  0  0
  -27.7646  -22.0777   20.4369 C   0  0  0  0  0  0
  -29.3021  -27.8015   17.9244 N   0  0  0  0  0  0
  -28.2680  -19.5799   20.3686 N   0  0  0  0  0  0
  -31.2119  -28.3162   19.0473 O   0  0  0  0  0  0
  -30.7210  -15.2550   18.9529 H   0  0  0  0  0  0
  -30.6337  -14.3037   20.3390 H   0  0  0  0  0  0
  -30.3721  -12.8359   18.3190 H   0  0  0  0  0  0
  -29.2266  -13.9222   17.5992 H   0  0  0  0  0  0
  -28.7156  -11.8433   19.7070 H   0  0  0  0  0  0
  -27.7816  -12.2117   18.2472 H   0  0  0  0  0  0
  -27.1871  -14.2951   19.0817 H   0  0  0  0  0  0
  -28.8989  -14.1914   21.6019 H   0  0  0  0  0  0
  -27.5481  -15.1877   21.4879 H   0  0  0  0  0  0
  -25.3024   -9.5811   22.4775 H   0  0  0  0  0  0
  -24.0156   -7.4835   22.7554 H   0  0  0  0  0  0
  -21.1097   -8.9033   19.8940 H   0  0  0  0  0  0
  -22.4086  -10.9815   19.6120 H   0  0  0  0  0  0
  -21.2107   -7.6217   23.9717 H   0  0  0  0  0  0
  -21.1445   -6.0558   25.9046 H   0  0  0  0  0  0
  -22.0585   -2.7668   23.2774 H   0  0  0  0  0  0
  -22.4009  -11.9676   22.4832 H   0  0  0  0  0  0
  -21.0733  -13.0784   22.2725 H   0  0  0  0  0  0
  -24.4440  -15.8740   20.5238 H   0  0  0  0  0  0
  -26.0857  -15.7424   20.1116 H   0  0  0  0  0  0
  -26.7455  -32.3764   22.9815 H   0  0  0  0  0  0
  -24.9270  -33.8211   24.8712 H   0  0  0  0  0  0
  -23.0177  -30.7336   20.9522 H   0  0  0  0  0  0
  -23.3730  -35.9140   23.3015 H   0  0  0  0  0  0
  -24.3562  -36.8954   22.2193 H   0  0  0  0  0  0
  -23.7227  -37.5856   23.7172 H   0  0  0  0  0  0
  -26.2721  -30.3169   20.5437 H   0  0  0  0  0  0
  -26.9770  -30.2431   22.0917 H   0  0  0  0  0  0
  -28.9822  -27.9479   21.5596 H   0  0  0  0  0  0
  -26.9023  -24.0949   17.7997 H   0  0  0  0  0  0
  -23.8861  -25.1944   18.9259 H   0  0  0  0  0  0
  -24.1943  -29.2170   19.4545 H   0  0  0  0  0  0
  -22.7963  -28.3984   19.9941 H   0  0  0  0  0  0
  -25.1415  -36.0853   25.0664 H   0  0  0  0  0  0
  -20.9597  -28.3165   24.1596 H   0  0  0  0  0  0
  -20.5116  -26.2210   23.3840 H   0  0  0  0  0  0
  -21.6447  -26.6981   22.1608 H   0  0  0  0  0  0
  -19.6803  -25.6217   21.1160 H   0  0  0  0  0  0
  -19.6687  -27.3206   20.6814 H   0  0  0  0  0  0
  -17.4077  -26.6679   21.3869 H   0  0  0  0  0  0
  -18.0105  -25.9993   22.8915 H   0  0  0  0  0  0
  -19.7892  -30.7123   24.2337 H   0  0  0  0  0  0
  -17.4972  -31.6260   24.5134 H   0  0  0  0  0  0
  -15.5255  -30.3065   23.7522 H   0  0  0  0  0  0
  -15.8520  -28.0801   22.7125 H   0  0  0  0  0  0
  -24.5724  -30.6992   25.7292 H   0  0  0  0  0  0
  -24.8725  -32.3053   26.3848 H   0  0  0  0  0  0
  -25.7653  -30.9264   26.9922 H   0  0  0  0  0  0
  -26.3632  -29.5650   24.2360 H   0  0  0  0  0  0
  -27.4559  -29.7573   25.5753 H   0  0  0  0  0  0
  -27.9385  -30.3450   24.0092 H   0  0  0  0  0  0
  -27.2022  -33.3857   26.1037 H   0  0  0  0  0  0
  -28.3715  -32.6887   24.9913 H   0  0  0  0  0  0
  -28.0303  -31.9086   26.5313 H   0  0  0  0  0  0
  -28.2280  -37.9995   24.7555 H   0  0  0  0  0  0
  -28.1222  -36.2500   24.6058 H   0  0  0  0  0  0
  -27.2299  -37.0829   25.8839 H   0  0  0  0  0  0
  -21.0079  -29.7711   21.6013 H   0  0  0  0  0  0
  -25.9807  -38.2213   24.1535 H   0  0  0  0  0  0
  -25.2657  -27.2973   18.5437 H   0  0  0  0  0  0
  -24.7956  -24.9746   21.6178 H   0  0  0  0  0  0
  -28.6127  -25.1254   16.2425 H   0  0  0  0  0  0
  -30.1096  -25.5795   15.5166 H   0  0  0  0  0  0
  -31.2847  -24.6874   17.1984 H   0  0  0  0  0  0
  -29.7998  -24.1746   17.9045 H   0  0  0  0  0  0
  -28.2135  -27.4276   16.0967 H   0  0  0  0  0  0
  -29.8949  -27.7638   15.9395 H   0  0  0  0  0  0
  -31.6148  -25.8014   19.1274 H   0  0  0  0  0  0
  -25.0543  -28.5070   16.7022 H   0  0  0  0  0  0
  -26.7034  -28.9615   16.4427 H   0  0  0  0  0  0
  -25.8575  -29.4574   17.9301 H   0  0  0  0  0  0
  -26.3821  -25.3580   23.5037 H   0  0  0  0  0  0
  -26.7458  -26.9617   23.2250 H   0  0  0  0  0  0
  -27.9475  -25.7292   22.9061 H   0  0  0  0  0  0
  -28.7279  -28.9846   19.5627 H   0  0  0  0  0  0
  -27.9395  -29.3284   18.2644 H   0  0  0  0  0  0
  -26.7502  -21.7581   20.6755 H   0  0  0  0  0  0
  -28.3293  -22.1951   21.3623 H   0  0  0  0  0  0
  -27.3139  -19.2359   20.3261 H   0  0  0  0  0  0
  1 25  1  0  0  0
  1 30  2  0  0  0
  1 87  1  0  0  0
  2  3  1  0  0  0
  2 25  1  0  0  0
  2 89  1  0  0  0
  2 90  1  0  0  0
  3  4  1  0  0  0
  3 91  1  0  0  0
  3 92  1  0  0  0
  4  5  1  0  0  0
  4 93  1  0  0  0
  4 94  1  0  0  0
  5  6  1  0  0  0
  5 26  1  0  0  0
  5 95  1  0  0  0
  6 25  1  0  0  0
  6 96  1  0  0  0
  6 97  1  0  0  0
  7  8  2  0  0  0
  7 26  1  0  0  0
  7 29  1  0  0  0
  8  9  1  0  0  0
  8 22  1  0  0  0
  9 10  1  0  0  0
  9 27  2  0  0  0
 10 11  2  0  0  0
 10 15  1  0  0  0
 11 12  1  0  0  0
 11 98  1  0  0  0
 12 13  2  0  0  0
 12 99  1  0  0  0
 13 14  1  0  0  0
 13 31  1  0  0  0
 14 15  2  0  0  0
 14100  1  0  0  0
 15101  1  0  0  0
 16 17  2  0  0  0
 16 21  1  0  0  0
 16 31  1  0  0  0
 17 18  1  0  0  0
 17102  1  0  0  0
 18 19  2  0  0  0
 18103  1  0  0  0
 19 20  1  0  0  0
 19 24  1  0  0  0
 20 21  2  0  0  0
 20104  1  0  0  0
 21 23  1  0  0  0
 22 28  1  0  0  0
 22 32  2  0  0  0
 26 27  1  0  0  0
 28105  1  0  0  0
 28106  1  0  0  0
 29107  1  0  0  0
 29108  1  0  0  0
 33 34  1  0  0  0
 33 66  1  0  0  0
 33 70  2  0  0  0
 34 36  1  0  0  0
 34 59  1  0  0  0
 34109  1  0  0  0
 35 44  2  0  0  0
 35 45  1  0  0  0
 35 68  1  0  0  0
 36 56  1  0  0  0
 36110  1  0  0  0
 37 39  1  0  0  0
 37 47  1  0  0  0
 37 66  1  0  0  0
 37111  1  0  0  0
 38 43  2  0  0  0
 38 46  1  0  0  0
 38 47  1  0  0  0
 39 64  1  0  0  0
 39 67  2  0  0  0
 40 52  1  0  0  0
 40 53  2  0  0  0
 40 58  1  0  0  0
 41112  1  0  0  0
 41113  1  0  0  0
 41114  1  0  0  0
 41 48  1  0  0  0
 42 43  1  0  0  0
 42 66  1  0  0  0
 42115  1  0  0  0
 42116  1  0  0  0
 43 44  1  0  0  0
 44117  1  0  0  0
 45 46  2  0  0  0
 45118  1  0  0  0
 46119  1  0  0  0
 47120  1  0  0  0
 47121  1  0  0  0
 48 56  1  0  0  0
 48 65  1  0  0  0
 48122  1  0  0  0
 49 50  1  0  0  0
 49 53  1  0  0  0
 49 64  1  0  0  0
 49123  1  0  0  0
 50 51  1  0  0  0
 50124  1  0  0  0
 50125  1  0  0  0
 51 52  1  0  0  0
 51126  1  0  0  0
 51127  1  0  0  0
 52128  1  0  0  0
 52129  1  0  0  0
 53 54  1  0  0  0
 54 55  2  0  0  0
 54130  1  0  0  0
 55 57  1  0  0  0
 55131  1  0  0  0
 56 69  2  0  0  0
 57 58  2  0  0  0
 57132  1  0  0  0
 58133  1  0  0  0
 59 60  1  0  0  0
 59 61  1  0  0  0
 59 62  1  0  0  0
 60134  1  0  0  0
 60135  1  0  0  0
 60136  1  0  0  0
 61137  1  0  0  0
 61138  1  0  0  0
 61139  1  0  0  0
 62140  1  0  0  0
 62141  1  0  0  0
 62142  1  0  0  0
 63 65  1  0  0  0
 63143  1  0  0  0
 63144  1  0  0  0
 63145  1  0  0  0
 64146  1  0  0  0
 65147  1  0  0  0
 68 81  1  0  0  0
 71 73  2  0  0  0
 71 74  1  0  0  0
 71148  1  0  0  0
 72 73  1  0  0  0
 72 75  2  0  0  0
 72149  1  0  0  0
 73 85  1  0  0  0
 74 76  2  0  0  0
 74 82  1  0  0  0
 75 76  1  0  0  0
 75 83  1  0  0  0
 76 84  1  0  0  0
 77 81  1  0  0  0
 77 86  1  0  0  0
 77 88  2  0  0  0
 78 79  1  0  0  0
 78 80  1  0  0  0
 78150  1  0  0  0
 78151  1  0  0  0
 79 81  1  0  0  0
 79152  1  0  0  0
 79153  1  0  0  0
 80 86  1  0  0  0
 80154  1  0  0  0
 80155  1  0  0  0
 81156  1  0  0  0
 82157  1  0  0  0
 82158  1  0  0  0
 82159  1  0  0  0
 83160  1  0  0  0
 83161  1  0  0  0
 83162  1  0  0  0
 84 86  1  0  0  0
 84163  1  0  0  0
 84164  1  0  0  0
 85 87  1  0  0  0
 85165  1  0  0  0
 85166  1  0  0  0
 87167  1  0  0  0
M  ISO  4   1 100  68 101  81 101  87 100
M  END
> <chiral flag>
0

> <version>
0

> <s_m_source_file>
/data/baiqing/PycharmProjects/Reinvent-master-3.2/result/LINK_invent/BTK/process_docking_weight1_custom_product_contain_oxygen_bond_distance_aromatic_linkinvent_7_9_3/rearranged_h_0042.sdf

> <i_m_source_file_index>
88

> <r_mmod_Potential_Energy-OPLS-2005>
33092.91015625

> <r_mmod_Stretch_Energy-OPLS-2005>
17739.556640625

> <r_mmod_Bend_Energy-OPLS-2005>
3064.0361328125

> <r_mmod_Torsional_Energy-OPLS-2005>
771.61328125

> <r_mmod_Improper_Torsional_Energy-OPLS-2005>
55.3460006713867

> <r_mmod_Van_der_Waal_Energy-OPLS-2005>
4897.21728515625

> <r_mmod_Electrostatic_Energy-OPLS-2005>
-327.914123535156

> <r_mmod_Solvation_Energy-OPLS-2005>
-257.714691162109

> <b_mmod_Minimization_Converged-OPLS-2005>
0

> <r_mmod_RMS_Derivative-OPLS-2005>
18.3211441040039

$$$$
88
                    3D
 Structure written by MMmdl.
162170  0  0  1  0            999 V2000
  -30.7215  -14.5485   20.3634 C   0  0  0  0  0  0
  -30.4355  -12.3003   19.4425 C   0  0  0  0  0  0
  -29.4856  -12.3418   18.2270 C   0  0  0  0  0  0
  -28.0155  -12.2775   18.6626 C   0  0  0  0  0  0
  -27.6604  -13.2102   19.8526 C   0  0  2  0  0  0
  -28.7266  -13.1379   20.9716 C   0  0  0  0  0  0
  -25.2658  -13.8215   20.5786 C   0  0  0  0  0  0
  -24.1906  -13.0462   20.9296 C   0  0  0  0  0  0
  -24.6477  -11.6953   20.8828 C   0  0  0  0  0  0
  -23.9135  -10.4324   21.0470 C   0  0  0  0  0  0
  -24.3677   -9.4215   21.9230 C   0  0  0  0  0  0
  -23.6361   -8.2238   22.0782 C   0  0  0  0  0  0
  -22.4318   -8.0316   21.3590 C   0  0  0  0  0  0
  -21.9973   -9.0292   20.4678 C   0  0  0  0  0  0
  -22.7317  -10.2178   20.3115 C   0  0  0  0  0  0
  -21.6855   -6.0782   22.5281 C   0  0  0  0  0  0
  -21.4005   -6.5666   23.8222 C   0  0  0  0  0  0
  -21.3674   -5.6815   24.9180 C   0  0  0  0  0  0
  -21.6047   -4.3073   24.7217 C   0  0  0  0  0  0
  -21.8822   -3.8188   23.4323 C   0  0  0  0  0  0
  -21.9207   -4.7011   22.3397 C   0  0  0  0  0  0
  -22.7928  -13.5259   21.1908 C   0  0  0  0  0  0
  -22.1682   -4.2201   21.0972 F   0  0  0  0  0  0
  -21.5624   -3.4556   25.7721 F   0  0  0  0  0  0
  -30.0425  -13.3747   20.3591 N   0  0  0  0  0  0
  -26.3082  -12.9393   20.3433 N   0  0  0  0  0  0
  -25.9408  -11.6543   20.5917 N   0  0  0  0  0  0
  -22.0574  -12.8236   22.0447 N   0  0  0  0  0  0
  -25.4265  -15.1943   20.4152 N   0  0  0  0  0  0
  -31.9337  -14.6260   20.1619 O   0  0  0  0  0  0
  -21.6675   -6.8920   21.4253 O   0  0  0  0  0  0
  -22.3608  -14.5568   20.6778 O   0  0  0  0  0  0
  -24.6146  -31.8661   23.2086 C   0  0  0  0  0  0
  -25.9025  -32.4827   23.8426 C   0  0  1  0  0  0
  -27.2479  -27.4356   20.1039 C   0  0  0  0  0  0
  -25.5856  -33.8627   24.2341 N   0  0  0  0  0  0
  -23.4038  -30.4884   21.5488 C   0  0  2  0  0  0
  -24.8540  -28.9502   20.1212 C   0  0  0  0  0  0
  -22.7448  -29.4652   22.4993 C   0  0  0  0  0  0
  -18.0285  -28.1373   22.8517 C   0  0  0  0  0  0
  -24.1491  -36.7360   23.2641 C   0  0  0  0  0  0
  -25.9295  -30.8292   21.3614 C   0  0  0  0  0  0
  -26.0078  -29.4574   20.7261 C   0  0  0  0  0  0
  -27.2032  -28.7035   20.7266 C   0  0  0  0  0  0
  -26.0760  -26.9473   19.4783 C   0  0  0  0  0  0
  -24.8807  -27.6912   19.4938 C   0  0  0  0  0  0
  -23.6172  -29.8173   20.1643 C   0  0  0  0  0  0
  -25.4086  -36.3135   24.0354 C   0  0  1  0  0  0
  -20.5882  -28.3636   23.1334 C   0  0  2  0  0  0
  -20.6761  -26.9375   22.5419 C   0  0  0  0  0  0
  -19.5726  -26.6387   21.5223 C   0  0  0  0  0  0
  -18.1923  -26.7926   22.1659 C   0  0  0  0  0  0
  -19.1535  -28.8826   23.2934 C   0  0  0  0  0  0
  -18.9451  -30.1435   23.8930 C   0  0  0  0  0  0
  -17.6443  -30.6573   24.0578 C   0  0  0  0  0  0
  -25.9011  -34.9482   23.5145 C   0  0  0  0  0  0
  -16.5344  -29.9075   23.6305 C   0  0  0  0  0  0
  -16.7275  -28.6501   23.0336 C   0  0  0  0  0  0
  -26.4443  -31.6602   25.0743 C   0  0  0  0  0  0
  -25.3750  -31.3660   26.1530 C   0  0  0  0  0  0
  -27.0241  -30.3061   24.6049 C   0  0  0  0  0  0
  -27.6043  -32.4308   25.7484 C   0  0  0  0  0  0
  -27.5585  -37.1832   24.8463 C   0  0  0  0  0  0
  -21.4169  -29.3015   22.3767 N   0  0  0  0  0  0
  -26.4287  -37.3795   23.9426 N   0  0  0  0  0  0
  -24.6693  -31.0779   22.0989 N   0  0  0  0  0  0
  -23.4245  -28.8175   23.3028 O   0  0  0  0  0  0
  -28.4559  -26.7614   20.0795 O   0  0  0  0  0  0
  -26.5599  -34.8921   22.4734 O   0  0  0  0  0  0
  -23.5341  -32.1457   23.7460 O   0  0  0  0  0  0
  -28.4806  -24.2289   19.8554 C   0  0  0  0  0  0
  -28.4624  -25.4405   20.0266 C   0  0  0  0  0  0
  -27.9583  -18.7520   16.6419 C   0  0  0  0  0  0
  -28.3882  -19.5674   17.7101 C   0  0  0  0  0  0
  -28.4918  -17.4608   16.5257 C   0  0  0  0  0  0
  -29.2463  -19.0648   18.7238 C   0  0  0  0  0  0
  -29.6392  -17.6869   18.7024 C   0  0  0  0  0  0
  -29.3667  -16.9625   17.5096 C   0  0  0  0  0  0
  -27.3193  -22.1102   21.6643 C   0  0  0  0  0  0
  -27.1779  -21.4503   22.8302 C   0  0  0  0  0  0
  -28.3048  -21.7646   20.6070 C   0  0  0  0  0  0
  -26.1509  -21.8435   23.8683 C   0  0  0  0  0  0
  -28.4620  -22.7963   19.4694 C   0  0  0  0  0  0
  -29.8392  -20.0830   19.7136 C   0  0  0  0  0  0
  -30.3878  -17.0191   19.8910 C   0  0  0  0  0  0
  -28.8764  -20.6121   20.6737 N   0  0  0  0  0  0
  -29.9520  -15.6512   20.2792 N   0  0  0  0  0  0
  -30.2346  -15.5372   17.1112 Cl  0  0  0  0  0  0
  -31.4704  -12.4036   19.1119 H   0  0  0  0  0  0
  -30.3737  -11.3432   19.9579 H   0  0  0  0  0  0
  -29.7040  -11.5078   17.5592 H   0  0  0  0  0  0
  -29.6386  -13.2197   17.6215 H   0  0  0  0  0  0
  -27.8423  -11.2410   18.9493 H   0  0  0  0  0  0
  -27.3563  -12.4744   17.8166 H   0  0  0  0  0  0
  -27.6634  -14.2285   19.4625 H   0  0  0  0  0  0
  -28.7253  -12.1763   21.4839 H   0  0  0  0  0  0
  -28.5322  -13.8904   21.7375 H   0  0  0  0  0  0
  -25.2808   -9.5677   22.4834 H   0  0  0  0  0  0
  -24.0075   -7.4616   22.7489 H   0  0  0  0  0  0
  -21.0906   -8.8829   19.8981 H   0  0  0  0  0  0
  -22.3785  -10.9742   19.6242 H   0  0  0  0  0  0
  -21.1982   -7.6169   23.9742 H   0  0  0  0  0  0
  -21.1489   -6.0537   25.9087 H   0  0  0  0  0  0
  -22.0587   -2.7654   23.2807 H   0  0  0  0  0  0
  -22.4194  -11.9837   22.4697 H   0  0  0  0  0  0
  -21.1218  -13.1271   22.2730 H   0  0  0  0  0  0
  -24.6443  -15.8302   20.5347 H   0  0  0  0  0  0
  -26.2598  -15.6536   20.0681 H   0  0  0  0  0  0
  -26.7126  -32.5549   23.1232 H   0  0  0  0  0  0
  -24.9959  -33.9783   25.0457 H   0  0  0  0  0  0
  -22.6907  -31.3018   21.4021 H   0  0  0  0  0  0
  -23.3718  -35.9735   23.3301 H   0  0  0  0  0  0
  -24.3582  -36.8973   22.2056 H   0  0  0  0  0  0
  -23.7281  -37.6584   23.6642 H   0  0  0  0  0  0
  -26.0330  -31.5727   20.5701 H   0  0  0  0  0  0
  -26.8256  -30.9051   21.9663 H   0  0  0  0  0  0
  -28.0978  -29.0963   21.1911 H   0  0  0  0  0  0
  -26.0739  -25.9966   18.9648 H   0  0  0  0  0  0
  -24.0007  -27.2917   19.0085 H   0  0  0  0  0  0
  -23.7447  -30.5869   19.4037 H   0  0  0  0  0  0
  -22.7396  -29.2429   19.8604 H   0  0  0  0  0  0
  -25.1255  -36.2018   25.0842 H   0  0  0  0  0  0
  -21.0004  -28.3193   24.1443 H   0  0  0  0  0  0
  -20.5644  -26.2253   23.3616 H   0  0  0  0  0  0
  -21.6625  -26.7402   22.1202 H   0  0  0  0  0  0
  -19.6865  -25.6312   21.1222 H   0  0  0  0  0  0
  -19.6634  -27.3226   20.6780 H   0  0  0  0  0  0
  -17.4182  -26.6703   21.4068 H   0  0  0  0  0  0
  -18.0300  -26.0047   22.9031 H   0  0  0  0  0  0
  -19.7902  -30.7259   24.2335 H   0  0  0  0  0  0
  -17.4963  -31.6237   24.5195 H   0  0  0  0  0  0
  -15.5339  -30.2977   23.7547 H   0  0  0  0  0  0
  -15.8703  -28.0802   22.7019 H   0  0  0  0  0  0
  -24.5908  -30.7010   25.7891 H   0  0  0  0  0  0
  -24.8945  -32.2777   26.5086 H   0  0  0  0  0  0
  -25.8150  -30.8779   27.0243 H   0  0  0  0  0  0
  -26.2742  -29.6855   24.1124 H   0  0  0  0  0  0
  -27.4074  -29.7241   25.4439 H   0  0  0  0  0  0
  -27.8555  -30.4402   23.9130 H   0  0  0  0  0  0
  -27.2681  -33.3580   26.2142 H   0  0  0  0  0  0
  -28.3796  -32.6933   25.0272 H   0  0  0  0  0  0
  -28.0796  -31.8401   26.5334 H   0  0  0  0  0  0
  -28.2615  -38.0124   24.7481 H   0  0  0  0  0  0
  -28.1081  -36.2646   24.6305 H   0  0  0  0  0  0
  -27.2315  -37.1512   25.8875 H   0  0  0  0  0  0
  -20.9346  -29.8811   21.7030 H   0  0  0  0  0  0
  -26.0197  -38.2901   24.1359 H   0  0  0  0  0  0
  -27.2931  -19.1221   15.8692 H   0  0  0  0  0  0
  -28.0639  -20.5981   17.7449 H   0  0  0  0  0  0
  -28.2651  -16.8592   15.6546 H   0  0  0  0  0  0
  -26.6787  -22.9589   21.4607 H   0  0  0  0  0  0
  -27.8156  -20.6070   23.0741 H   0  0  0  0  0  0
  -25.9667  -21.0363   24.5796 H   0  0  0  0  0  0
  -25.2101  -22.0850   23.3711 H   0  0  0  0  0  0
  -26.4990  -22.7240   24.4127 H   0  0  0  0  0  0
  -29.3654  -22.6434   18.8886 H   0  0  0  0  0  0
  -27.6271  -22.6792   18.7781 H   0  0  0  0  0  0
  -30.3612  -20.8504   19.1428 H   0  0  0  0  0  0
  -30.6534  -19.6309   20.2771 H   0  0  0  0  0  0
  -30.2319  -17.6230   20.7856 H   0  0  0  0  0  0
  -31.4622  -17.0454   19.6937 H   0  0  0  0  0  0
  -28.9678  -15.5069   20.4294 H   0  0  0  0  0  0
  1 25  1  0  0  0
  1 30  2  0  0  0
  1 87  1  0  0  0
  2  3  1  0  0  0
  2 25  1  0  0  0
  2 89  1  0  0  0
  2 90  1  0  0  0
  3  4  1  0  0  0
  3 91  1  0  0  0
  3 92  1  0  0  0
  4  5  1  0  0  0
  4 93  1  0  0  0
  4 94  1  0  0  0
  5  6  1  0  0  0
  5 26  1  0  0  0
  5 95  1  0  0  0
  6 25  1  0  0  0
  6 96  1  0  0  0
  6 97  1  0  0  0
  7  8  2  0  0  0
  7 26  1  0  0  0
  7 29  1  0  0  0
  8  9  1  0  0  0
  8 22  1  0  0  0
  9 10  1  0  0  0
  9 27  2  0  0  0
 10 11  2  0  0  0
 10 15  1  0  0  0
 11 12  1  0  0  0
 11 98  1  0  0  0
 12 13  2  0  0  0
 12 99  1  0  0  0
 13 14  1  0  0  0
 13 31  1  0  0  0
 14 15  2  0  0  0
 14100  1  0  0  0
 15101  1  0  0  0
 16 17  2  0  0  0
 16 21  1  0  0  0
 16 31  1  0  0  0
 17 18  1  0  0  0
 17102  1  0  0  0
 18 19  2  0  0  0
 18103  1  0  0  0
 19 20  1  0  0  0
 19 24  1  0  0  0
 20 21  2  0  0  0
 20104  1  0  0  0
 21 23  1  0  0  0
 22 28  1  0  0  0
 22 32  2  0  0  0
 26 27  1  0  0  0
 28105  1  0  0  0
 28106  1  0  0  0
 29107  1  0  0  0
 29108  1  0  0  0
 33 34  1  0  0  0
 33 66  1  0  0  0
 33 70  2  0  0  0
 34 36  1  0  0  0
 34 59  1  0  0  0
 34109  1  0  0  0
 35 44  2  0  0  0
 35 45  1  0  0  0
 35 68  1  0  0  0
 36 56  1  0  0  0
 36110  1  0  0  0
 37 39  1  0  0  0
 37 47  1  0  0  0
 37 66  1  0  0  0
 37111  1  0  0  0
 38 43  2  0  0  0
 38 46  1  0  0  0
 38 47  1  0  0  0
 39 64  1  0  0  0
 39 67  2  0  0  0
 40 52  1  0  0  0
 40 53  2  0  0  0
 40 58  1  0  0  0
 41112  1  0  0  0
 41113  1  0  0  0
 41114  1  0  0  0
 41 48  1  0  0  0
 42 43  1  0  0  0
 42 66  1  0  0  0
 42115  1  0  0  0
 42116  1  0  0  0
 43 44  1  0  0  0
 44117  1  0  0  0
 45 46  2  0  0  0
 45118  1  0  0  0
 46119  1  0  0  0
 47120  1  0  0  0
 47121  1  0  0  0
 48 56  1  0  0  0
 48 65  1  0  0  0
 48122  1  0  0  0
 49 50  1  0  0  0
 49 53  1  0  0  0
 49 64  1  0  0  0
 49123  1  0  0  0
 50 51  1  0  0  0
 50124  1  0  0  0
 50125  1  0  0  0
 51 52  1  0  0  0
 51126  1  0  0  0
 51127  1  0  0  0
 52128  1  0  0  0
 52129  1  0  0  0
 53 54  1  0  0  0
 54 55  2  0  0  0
 54130  1  0  0  0
 55 57  1  0  0  0
 55131  1  0  0  0
 56 69  2  0  0  0
 57 58  2  0  0  0
 57132  1  0  0  0
 58133  1  0  0  0
 59 60  1  0  0  0
 59 61  1  0  0  0
 59 62  1  0  0  0
 60134  1  0  0  0
 60135  1  0  0  0
 60136  1  0  0  0
 61137  1  0  0  0
 61138  1  0  0  0
 61139  1  0  0  0
 62140  1  0  0  0
 62141  1  0  0  0
 62142  1  0  0  0
 63 65  1  0  0  0
 63143  1  0  0  0
 63144  1  0  0  0
 63145  1  0  0  0
 64146  1  0  0  0
 65147  1  0  0  0
 68 72  1  0  0  0
 71 72  3  0  0  0
 71 83  1  0  0  0
 73 74  2  0  0  0
 73 75  1  0  0  0
 73148  1  0  0  0
 74 76  1  0  0  0
 74149  1  0  0  0
 75 78  2  0  0  0
 75150  1  0  0  0
 76 77  2  0  0  0
 76 84  1  0  0  0
 77 78  1  0  0  0
 77 85  1  0  0  0
 78 88  1  0  0  0
 79 80  2  0  0  0
 79 81  1  0  0  0
 79151  1  0  0  0
 80 82  1  0  0  0
 80152  1  0  0  0
 81 83  1  0  0  0
 81 86  2  0  0  0
 82153  1  0  0  0
 82154  1  0  0  0
 82155  1  0  0  0
 83156  1  0  0  0
 83157  1  0  0  0
 84 86  1  0  0  0
 84158  1  0  0  0
 84159  1  0  0  0
 85 87  1  0  0  0
 85160  1  0  0  0
 85161  1  0  0  0
 87162  1  0  0  0
M  ISO  4   1 100  68 101  72 101  87 100
M  END
> <chiral flag>
0

> <version>
0

> <s_m_source_file>
/data/baiqing/PycharmProjects/Reinvent-master-3.2/result/LINK_invent/BTK/process_docking_weight1_custom_product_contain_oxygen_bond_distance_aromatic_linkinvent_7_9_3/rearranged_h_0042.sdf

> <i_m_source_file_index>
89

> <r_mmod_Potential_Energy-OPLS-2005>
0.897178113460541

> <r_mmod_Stretch_Energy-OPLS-2005>
45.484561920166

> <r_mmod_Bend_Energy-OPLS-2005>
125.767227172852

> <r_mmod_Torsional_Energy-OPLS-2005>
246.250579833984

> <r_mmod_Improper_Torsional_Energy-OPLS-2005>
9.79823112487793

> <r_mmod_Van_der_Waal_Energy-OPLS-2005>
165.118103027344

> <r_mmod_Electrostatic_Energy-OPLS-2005>
-417.348297119141

> <r_mmod_Solvation_Energy-OPLS-2005>
-211.984222412109

> <b_mmod_Minimization_Converged-OPLS-2005>
0

> <r_mmod_RMS_Derivative-OPLS-2005>
7.02721500396729

$$$$
89
                    3D
 Structure written by MMmdl.
168177  0  0  1  0            999 V2000
  -30.5740  -14.7573   20.4777 C   0  0  0  0  0  0
  -30.4491  -12.4753   19.4526 C   0  0  0  0  0  0
  -29.5108  -12.5084   18.2254 C   0  0  0  0  0  0
  -28.0381  -12.3242   18.6452 C   0  0  0  0  0  0
  -27.6401  -13.2217   19.8468 C   0  0  2  0  0  0
  -28.6901  -13.1505   20.9755 C   0  0  0  0  0  0
  -25.2513  -13.8156   20.5701 C   0  0  0  0  0  0
  -24.1805  -13.0421   20.9216 C   0  0  0  0  0  0
  -24.6394  -11.6897   20.8759 C   0  0  0  0  0  0
  -23.9078  -10.4275   21.0414 C   0  0  0  0  0  0
  -24.3624   -9.4190   21.9194 C   0  0  0  0  0  0
  -23.6289   -8.2234   22.0765 C   0  0  0  0  0  0
  -22.4269   -8.0277   21.3547 C   0  0  0  0  0  0
  -21.9913   -9.0259   20.4662 C   0  0  0  0  0  0
  -22.7255  -10.2127   20.3072 C   0  0  0  0  0  0
  -21.6841   -6.0747   22.5285 C   0  0  0  0  0  0
  -21.4009   -6.5652   23.8224 C   0  0  0  0  0  0
  -21.3657   -5.6803   24.9185 C   0  0  0  0  0  0
  -21.6040   -4.3064   24.7227 C   0  0  0  0  0  0
  -21.8816   -3.8154   23.4351 C   0  0  0  0  0  0
  -21.9191   -4.6974   22.3405 C   0  0  0  0  0  0
  -22.7830  -13.5217   21.1860 C   0  0  0  0  0  0
  -22.1656   -4.2161   21.0980 F   0  0  0  0  0  0
  -21.5623   -3.4546   25.7741 F   0  0  0  0  0  0
  -29.9824  -13.5205   20.3848 N   0  0  0  0  0  0
  -26.2936  -12.9348   20.3261 N   0  0  0  0  0  0
  -25.9319  -11.6500   20.5759 N   0  0  0  0  0  0
  -22.0464  -12.8229   22.0411 N   0  0  0  0  0  0
  -25.4157  -15.1902   20.4114 N   0  0  0  0  0  0
  -31.7824  -14.8899   20.2624 O   0  0  0  0  0  0
  -21.6630   -6.8882   21.4246 O   0  0  0  0  0  0
  -22.3533  -14.5533   20.6714 O   0  0  0  0  0  0
  -24.6264  -31.8527   23.1984 C   0  0  0  0  0  0
  -25.9083  -32.4761   23.8277 C   0  0  1  0  0  0
  -27.2395  -27.2709   20.1448 C   0  0  0  0  0  0
  -25.5889  -33.8557   24.2193 N   0  0  0  0  0  0
  -23.4245  -30.4718   21.5393 C   0  0  2  0  0  0
  -24.8776  -28.9021   20.1285 C   0  0  0  0  0  0
  -22.7486  -29.4589   22.4934 C   0  0  0  0  0  0
  -18.0286  -28.1415   22.8498 C   0  0  0  0  0  0
  -24.1491  -36.7284   23.2645 C   0  0  0  0  0  0
  -25.9675  -30.7659   21.3771 C   0  0  0  0  0  0
  -26.0451  -29.3815   20.7376 C   0  0  0  0  0  0
  -27.2304  -28.5787   20.7313 C   0  0  0  0  0  0
  -26.0507  -26.8448   19.5205 C   0  0  0  0  0  0
  -24.8839  -27.6390   19.5109 C   0  0  0  0  0  0
  -23.6448  -29.7884   20.1626 C   0  0  0  0  0  0
  -25.4127  -36.3068   24.0326 C   0  0  1  0  0  0
  -20.5871  -28.3703   23.1271 C   0  0  2  0  0  0
  -20.6755  -26.9427   22.5390 C   0  0  0  0  0  0
  -19.5748  -26.6408   21.5181 C   0  0  0  0  0  0
  -18.1929  -26.7965   22.1620 C   0  0  0  0  0  0
  -19.1535  -28.8876   23.2884 C   0  0  0  0  0  0
  -18.9477  -30.1466   23.8914 C   0  0  0  0  0  0
  -17.6477  -30.6612   24.0567 C   0  0  0  0  0  0
  -25.9070  -34.9447   23.5069 C   0  0  0  0  0  0
  -16.5359  -29.9107   23.6347 C   0  0  0  0  0  0
  -16.7271  -28.6522   23.0372 C   0  0  0  0  0  0
  -26.4487  -31.6596   25.0652 C   0  0  0  0  0  0
  -25.3785  -31.3794   26.1433 C   0  0  0  0  0  0
  -27.0296  -30.2996   24.6126 C   0  0  0  0  0  0
  -27.6024  -32.4442   25.7315 C   0  0  0  0  0  0
  -27.5600  -37.1773   24.8449 C   0  0  0  0  0  0
  -21.4192  -29.3044   22.3662 N   0  0  0  0  0  0
  -26.4297  -37.3757   23.9416 N   0  0  0  0  0  0
  -24.6907  -31.0489   22.0959 N   0  0  0  0  0  0
  -23.4175  -28.8145   23.3051 O   0  0  0  0  0  0
  -28.3957  -26.4973   19.9474 O   0  0  0  0  0  0
  -26.5668  -34.8945   22.4657 O   0  0  0  0  0  0
  -23.5418  -32.1345   23.7311 O   0  0  0  0  0  0
  -29.0413  -19.6389   22.3570 C   0  0  0  0  0  0
  -29.5974  -17.2500   22.4269 C   0  0  0  0  0  0
  -29.5590  -18.4539   20.2966 C   0  0  0  0  0  0
  -29.2707  -19.7340   20.9620 C   0  0  0  0  0  0
  -29.7108  -17.1932   21.0236 C   0  0  0  0  0  0
  -29.2456  -18.4467   23.0769 C   0  0  0  0  0  0
  -28.5786  -23.8406   20.0517 C   0  0  0  0  0  0
  -28.1254  -23.7165   18.7887 C   0  0  0  0  0  0
  -30.4227  -19.1031   18.0284 C   0  0  0  0  0  0
  -29.6430  -18.3587   18.8304 C   0  0  0  0  0  0
  -31.2374  -24.8879   21.6985 C   0  0  0  0  0  0
  -31.2145  -23.3663   21.5636 C   0  0  0  0  0  0
  -30.3389  -25.5994   20.6853 C   0  0  0  0  0  0
  -29.8756  -22.7726   22.0175 C   0  0  0  0  0  0
  -28.8186  -25.2821   20.7067 C   0  0  1  0  0  0
  -29.0992  -21.1599   20.2175 C   0  0  0  0  0  0
  -29.7087  -15.8389   20.4259 N   0  0  0  0  0  0
  -28.8898  -22.5367   20.9223 N   0  3  2  0  0  0
  -29.0029  -18.4460   24.7858 Cl  0  0  0  0  0  0
  -31.4822  -12.6448   19.1440 H   0  0  0  0  0  0
  -30.4286  -11.4993   19.9386 H   0  0  0  0  0  0
  -29.7989  -11.7350   17.5135 H   0  0  0  0  0  0
  -29.6251  -13.4606   17.7034 H   0  0  0  0  0  0
  -27.9038  -11.2747   18.9104 H   0  0  0  0  0  0
  -27.3793  -12.5094   17.7969 H   0  0  0  0  0  0
  -27.6293  -14.2427   19.4655 H   0  0  0  0  0  0
  -28.7390  -12.1499   21.4066 H   0  0  0  0  0  0
  -28.4282  -13.8257   21.7927 H   0  0  0  0  0  0
  -25.2763   -9.5661   22.4783 H   0  0  0  0  0  0
  -23.9993   -7.4624   22.7491 H   0  0  0  0  0  0
  -21.0847   -8.8794   19.8967 H   0  0  0  0  0  0
  -22.3718  -10.9683   19.6193 H   0  0  0  0  0  0
  -21.1999   -7.6160   23.9727 H   0  0  0  0  0  0
  -21.1479   -6.0533   25.9089 H   0  0  0  0  0  0
  -22.0593   -2.7619   23.2850 H   0  0  0  0  0  0
  -22.4068  -11.9892   22.4818 H   0  0  0  0  0  0
  -21.1093  -13.1278   22.2618 H   0  0  0  0  0  0
  -24.6375  -15.8308   20.5282 H   0  0  0  0  0  0
  -26.2527  -15.6435   20.0716 H   0  0  0  0  0  0
  -26.7128  -32.5417   23.1006 H   0  0  0  0  0  0
  -24.9959  -33.9676   25.0293 H   0  0  0  0  0  0
  -22.7207  -31.2936   21.3858 H   0  0  0  0  0  0
  -23.3757  -35.9602   23.3317 H   0  0  0  0  0  0
  -24.3562  -36.8897   22.2046 H   0  0  0  0  0  0
  -23.7244  -37.6496   23.6660 H   0  0  0  0  0  0
  -26.0992  -31.5196   20.5991 H   0  0  0  0  0  0
  -26.8487  -30.8241   22.0040 H   0  0  0  0  0  0
  -28.1425  -28.9624   21.1658 H   0  0  0  0  0  0
  -26.0353  -25.8958   19.0052 H   0  0  0  0  0  0
  -23.9969  -27.2699   19.0127 H   0  0  0  0  0  0
  -23.7613  -30.5543   19.3953 H   0  0  0  0  0  0
  -22.7670  -29.2111   19.8663 H   0  0  0  0  0  0
  -25.1314  -36.1898   25.0821 H   0  0  0  0  0  0
  -20.9956  -28.3266   24.1395 H   0  0  0  0  0  0
  -20.5592  -26.2311   23.3573 H   0  0  0  0  0  0
  -21.6627  -26.7427   22.1207 H   0  0  0  0  0  0
  -19.6887  -25.6300   21.1258 H   0  0  0  0  0  0
  -19.6707  -27.3184   20.6685 H   0  0  0  0  0  0
  -17.4180  -26.6701   21.4045 H   0  0  0  0  0  0
  -18.0377  -26.0105   22.9035 H   0  0  0  0  0  0
  -19.7937  -30.7282   24.2306 H   0  0  0  0  0  0
  -17.5037  -31.6306   24.5141 H   0  0  0  0  0  0
  -15.5364  -30.3012   23.7658 H   0  0  0  0  0  0
  -15.8693  -28.0820   22.7090 H   0  0  0  0  0  0
  -24.6359  -30.6561   25.8075 H   0  0  0  0  0  0
  -24.8552  -32.2923   26.4264 H   0  0  0  0  0  0
  -25.8233  -30.9697   27.0517 H   0  0  0  0  0  0
  -26.2822  -29.6807   24.1152 H   0  0  0  0  0  0
  -27.3900  -29.7189   25.4623 H   0  0  0  0  0  0
  -27.8761  -30.4208   23.9338 H   0  0  0  0  0  0
  -28.3650  -32.7148   25.0011 H   0  0  0  0  0  0
  -28.0893  -31.8623   26.5139 H   0  0  0  0  0  0
  -27.2548  -33.3697   26.1907 H   0  0  0  0  0  0
  -28.2621  -38.0068   24.7515 H   0  0  0  0  0  0
  -28.1100  -36.2621   24.6254 H   0  0  0  0  0  0
  -27.2336  -37.1387   25.8850 H   0  0  0  0  0  0
  -20.9425  -29.8752   21.6820 H   0  0  0  0  0  0
  -26.0166  -38.2806   24.1521 H   0  0  0  0  0  0
  -28.6843  -20.4827   22.9256 H   0  0  0  0  0  0
  -29.6803  -16.3484   23.0167 H   0  0  0  0  0  0
  -27.9322  -24.5967   18.1931 H   0  0  0  0  0  0
  -27.9471  -22.7659   18.3110 H   0  0  0  0  0  0
  -30.3973  -18.9663   16.9564 H   0  0  0  0  0  0
  -31.1043  -19.8463   18.4116 H   0  0  0  0  0  0
  -28.9962  -17.6239   18.3729 H   0  0  0  0  0  0
  -32.2643  -25.2275   21.5506 H   0  0  0  0  0  0
  -30.9719  -25.1951   22.7111 H   0  0  0  0  0  0
  -31.9925  -22.9662   22.2166 H   0  0  0  0  0  0
  -31.4824  -23.0471   20.5550 H   0  0  0  0  0  0
  -30.7201  -25.4113   19.6801 H   0  0  0  0  0  0
  -30.4893  -26.6679   20.8493 H   0  0  0  0  0  0
  -29.4145  -23.4033   22.7782 H   0  0  0  0  0  0
  -30.1337  -21.8669   22.5478 H   0  0  0  0  0  0
  -28.4218  -25.3257   21.7201 H   0  0  0  0  0  0
  -28.2587  -21.0096   19.5417 H   0  0  0  0  0  0
  -29.9739  -21.3010   19.5876 H   0  0  0  0  0  0
  -28.7781  -15.5328   20.1892 H   0  0  0  0  0  0
  -28.0383  -22.3610   21.4363 H   0  0  0  0  0  0
  1 25  1  0  0  0
  1 30  2  0  0  0
  1 87  1  0  0  0
  2  3  1  0  0  0
  2 25  1  0  0  0
  2 90  1  0  0  0
  2 91  1  0  0  0
  3  4  1  0  0  0
  3 92  1  0  0  0
  3 93  1  0  0  0
  4  5  1  0  0  0
  4 94  1  0  0  0
  4 95  1  0  0  0
  5  6  1  0  0  0
  5 26  1  0  0  0
  5 96  1  0  0  0
  6 25  1  0  0  0
  6 97  1  0  0  0
  6 98  1  0  0  0
  7  8  2  0  0  0
  7 26  1  0  0  0
  7 29  1  0  0  0
  8  9  1  0  0  0
  8 22  1  0  0  0
  9 10  1  0  0  0
  9 27  2  0  0  0
 10 11  2  0  0  0
 10 15  1  0  0  0
 11 12  1  0  0  0
 11 99  1  0  0  0
 12 13  2  0  0  0
 12100  1  0  0  0
 13 14  1  0  0  0
 13 31  1  0  0  0
 14 15  2  0  0  0
 14101  1  0  0  0
 15102  1  0  0  0
 16 17  2  0  0  0
 16 21  1  0  0  0
 16 31  1  0  0  0
 17 18  1  0  0  0
 17103  1  0  0  0
 18 19  2  0  0  0
 18104  1  0  0  0
 19 20  1  0  0  0
 19 24  1  0  0  0
 20 21  2  0  0  0
 20105  1  0  0  0
 21 23  1  0  0  0
 22 28  1  0  0  0
 22 32  2  0  0  0
 26 27  1  0  0  0
 28106  1  0  0  0
 28107  1  0  0  0
 29108  1  0  0  0
 29109  1  0  0  0
 33 34  1  0  0  0
 33 66  1  0  0  0
 33 70  2  0  0  0
 34 36  1  0  0  0
 34 59  1  0  0  0
 34110  1  0  0  0
 35 44  2  0  0  0
 35 45  1  0  0  0
 35 68  1  0  0  0
 36 56  1  0  0  0
 36111  1  0  0  0
 37 39  1  0  0  0
 37 47  1  0  0  0
 37 66  1  0  0  0
 37112  1  0  0  0
 38 43  2  0  0  0
 38 46  1  0  0  0
 38 47  1  0  0  0
 39 64  1  0  0  0
 39 67  2  0  0  0
 40 52  1  0  0  0
 40 53  2  0  0  0
 40 58  1  0  0  0
 41113  1  0  0  0
 41114  1  0  0  0
 41115  1  0  0  0
 41 48  1  0  0  0
 42 43  1  0  0  0
 42 66  1  0  0  0
 42116  1  0  0  0
 42117  1  0  0  0
 43 44  1  0  0  0
 44118  1  0  0  0
 45 46  2  0  0  0
 45119  1  0  0  0
 46120  1  0  0  0
 47121  1  0  0  0
 47122  1  0  0  0
 48 56  1  0  0  0
 48 65  1  0  0  0
 48123  1  0  0  0
 49 50  1  0  0  0
 49 53  1  0  0  0
 49 64  1  0  0  0
 49124  1  0  0  0
 50 51  1  0  0  0
 50125  1  0  0  0
 50126  1  0  0  0
 51 52  1  0  0  0
 51127  1  0  0  0
 51128  1  0  0  0
 52129  1  0  0  0
 52130  1  0  0  0
 53 54  1  0  0  0
 54 55  2  0  0  0
 54131  1  0  0  0
 55 57  1  0  0  0
 55132  1  0  0  0
 56 69  2  0  0  0
 57 58  2  0  0  0
 57133  1  0  0  0
 58134  1  0  0  0
 59 60  1  0  0  0
 59 61  1  0  0  0
 59 62  1  0  0  0
 60135  1  0  0  0
 60136  1  0  0  0
 60137  1  0  0  0
 61138  1  0  0  0
 61139  1  0  0  0
 61140  1  0  0  0
 62141  1  0  0  0
 62142  1  0  0  0
 62143  1  0  0  0
 63 65  1  0  0  0
 63144  1  0  0  0
 63145  1  0  0  0
 63146  1  0  0  0
 64147  1  0  0  0
 65148  1  0  0  0
 68 85  1  0  0  0
 71 74  2  0  0  0
 71 76  1  0  0  0
 71149  1  0  0  0
 72 75  1  0  0  0
 72 76  2  0  0  0
 72150  1  0  0  0
 73 74  1  0  0  0
 73 75  2  0  0  0
 73 80  1  0  0  0
 74 86  1  0  0  0
 75 87  1  0  0  0
 76 89  1  0  0  0
 77 78  2  0  0  0
 77 85  1  0  0  0
 77 88  1  0  0  0
 78151  1  0  0  0
 78152  1  0  0  0
 79 80  2  0  0  0
 79153  1  0  0  0
 79154  1  0  0  0
 80155  1  0  0  0
 81 82  1  0  0  0
 81 83  1  0  0  0
 81156  1  0  0  0
 81157  1  0  0  0
 82 84  1  0  0  0
 82158  1  0  0  0
 82159  1  0  0  0
 83 85  1  0  0  0
 83160  1  0  0  0
 83161  1  0  0  0
 84 88  1  0  0  0
 84162  1  0  0  0
 84163  1  0  0  0
 85164  1  0  0  0
 86165  1  0  0  0
 86166  1  0  0  0
 86 88  1  0  0  0
 87167  1  0  0  0
 88168  1  0  0  0
M  CHG  1  88   1
M  ISO  4   1 100  68 101  85 101  87 100
M  END
> <chiral flag>
0

> <version>
0

> <s_m_source_file>
/data/baiqing/PycharmProjects/Reinvent-master-3.2/result/LINK_invent/BTK/process_docking_weight1_custom_product_contain_oxygen_bond_distance_aromatic_linkinvent_7_9_3/rearranged_h_0042.sdf

> <i_m_source_file_index>
90

> <r_mmod_Potential_Energy-OPLS-2005>
205.257675170898

> <r_mmod_Stretch_Energy-OPLS-2005>
140.563018798828

> <r_mmod_Bend_Energy-OPLS-2005>
220.133010864258

> <r_mmod_Torsional_Energy-OPLS-2005>
331.537567138672

> <r_mmod_Improper_Torsional_Energy-OPLS-2005>
15.2816295623779

> <r_mmod_Van_der_Waal_Energy-OPLS-2005>
135.853576660156

> <r_mmod_Electrostatic_Energy-OPLS-2005>
-270.939361572266

> <r_mmod_Solvation_Energy-OPLS-2005>
-448.473907470703

> <b_mmod_Minimization_Converged-OPLS-2005>
0

> <r_mmod_RMS_Derivative-OPLS-2005>
3.46119737625122

$$$$
90
                    3D
 Structure written by MMmdl.
163171  0  0  1  0            999 V2000
  -30.5897  -14.7435   20.4676 C   0  0  0  0  0  0
  -30.4422  -12.4581   19.4537 C   0  0  0  0  0  0
  -29.5069  -12.4955   18.2248 C   0  0  0  0  0  0
  -28.0350  -12.3152   18.6470 C   0  0  0  0  0  0
  -27.6396  -13.2217   19.8426 C   0  0  2  0  0  0
  -28.6886  -13.1519   20.9719 C   0  0  0  0  0  0
  -25.2518  -13.8171   20.5685 C   0  0  0  0  0  0
  -24.1803  -13.0427   20.9205 C   0  0  0  0  0  0
  -24.6382  -11.6902   20.8751 C   0  0  0  0  0  0
  -23.9054  -10.4285   21.0409 C   0  0  0  0  0  0
  -24.3607   -9.4202   21.9185 C   0  0  0  0  0  0
  -23.6284   -8.2239   22.0752 C   0  0  0  0  0  0
  -22.4271   -8.0273   21.3537 C   0  0  0  0  0  0
  -21.9902   -9.0245   20.4642 C   0  0  0  0  0  0
  -22.7227  -10.2126   20.3056 C   0  0  0  0  0  0
  -21.6851   -6.0732   22.5275 C   0  0  0  0  0  0
  -21.4011   -6.5638   23.8205 C   0  0  0  0  0  0
  -21.3663   -5.6790   24.9169 C   0  0  0  0  0  0
  -21.6043   -4.3050   24.7220 C   0  0  0  0  0  0
  -21.8824   -3.8145   23.4340 C   0  0  0  0  0  0
  -21.9188   -4.6962   22.3398 C   0  0  0  0  0  0
  -22.7825  -13.5218   21.1862 C   0  0  0  0  0  0
  -22.1661   -4.2150   21.0974 F   0  0  0  0  0  0
  -21.5628   -3.4536   25.7733 F   0  0  0  0  0  0
  -29.9832  -13.5128   20.3805 N   0  0  0  0  0  0
  -26.2928  -12.9357   20.3249 N   0  0  0  0  0  0
  -25.9304  -11.6512   20.5743 N   0  0  0  0  0  0
  -22.0470  -12.8206   22.0413 N   0  0  0  0  0  0
  -25.4202  -15.1900   20.4116 N   0  0  0  0  0  0
  -31.7944  -14.8625   20.2233 O   0  0  0  0  0  0
  -21.6633   -6.8872   21.4237 O   0  0  0  0  0  0
  -22.3511  -14.5522   20.6704 O   0  0  0  0  0  0
  -24.6295  -31.8556   23.1973 C   0  0  0  0  0  0
  -25.9122  -32.4758   23.8329 C   0  0  1  0  0  0
  -27.2209  -27.2701   20.1277 C   0  0  0  0  0  0
  -25.5921  -33.8561   24.2257 N   0  0  0  0  0  0
  -23.4268  -30.4789   21.5400 C   0  0  2  0  0  0
  -24.8755  -28.9259   20.1108 C   0  0  0  0  0  0
  -22.7497  -29.4601   22.4888 C   0  0  0  0  0  0
  -18.0291  -28.1380   22.8464 C   0  0  0  0  0  0
  -24.1491  -36.7282   23.2642 C   0  0  0  0  0  0
  -25.9727  -30.7739   21.3746 C   0  0  0  0  0  0
  -26.0485  -29.3970   20.7146 C   0  0  0  0  0  0
  -27.2268  -28.5840   20.7050 C   0  0  0  0  0  0
  -26.0216  -26.8608   19.5033 C   0  0  0  0  0  0
  -24.8671  -27.6665   19.4925 C   0  0  0  0  0  0
  -23.6471  -29.8135   20.1567 C   0  0  0  0  0  0
  -25.4113  -36.3067   24.0330 C   0  0  1  0  0  0
  -20.5891  -28.3693   23.1253 C   0  0  2  0  0  0
  -20.6779  -26.9409   22.5395 C   0  0  0  0  0  0
  -19.5759  -26.6377   21.5194 C   0  0  0  0  0  0
  -18.1941  -26.7922   22.1608 C   0  0  0  0  0  0
  -19.1549  -28.8851   23.2856 C   0  0  0  0  0  0
  -18.9479  -30.1450   23.8883 C   0  0  0  0  0  0
  -17.6485  -30.6584   24.0553 C   0  0  0  0  0  0
  -25.9053  -34.9439   23.5090 C   0  0  0  0  0  0
  -16.5369  -29.9087   23.6328 C   0  0  0  0  0  0
  -16.7283  -28.6504   23.0343 C   0  0  0  0  0  0
  -26.4496  -31.6584   25.0718 C   0  0  0  0  0  0
  -25.3714  -31.3740   26.1438 C   0  0  0  0  0  0
  -27.0358  -30.3009   24.6191 C   0  0  0  0  0  0
  -27.6056  -32.4321   25.7488 C   0  0  0  0  0  0
  -27.5574  -37.1797   24.8465 C   0  0  0  0  0  0
  -21.4201  -29.3047   22.3649 N   0  0  0  0  0  0
  -26.4287  -37.3764   23.9412 N   0  0  0  0  0  0
  -24.6956  -31.0535   22.0940 N   0  0  0  0  0  0
  -23.4205  -28.8129   23.2973 O   0  0  0  0  0  0
  -28.3151  -26.3775   20.1610 O   0  0  0  0  0  0
  -26.5624  -34.8907   22.4660 O   0  0  0  0  0  0
  -23.5444  -32.1372   23.7271 O   0  0  0  0  0  0
  -30.2705  -18.6881   22.9763 C   0  0  0  0  0  0
  -29.6120  -18.4446   20.3114 C   0  0  0  0  0  0
  -30.0309  -19.8845   22.2493 C   0  0  0  0  0  0
  -30.2269  -17.3962   22.4118 C   0  0  0  0  0  0
  -29.6566  -19.7954   20.8693 C   0  0  0  0  0  0
  -29.9217  -17.2240   21.0421 C   0  0  0  0  0  0
  -29.0269  -23.6958   20.0119 C   0  0  0  0  0  0
  -30.4760  -16.2086   23.3312 C   0  0  0  0  0  0
  -28.8569  -21.7337   23.5438 C   0  0  0  0  0  0
  -31.2269  -21.1756   24.1558 C   0  0  0  0  0  0
  -29.4360  -21.0867   19.9369 C   0  0  0  0  0  0
  -28.0104  -24.9105   20.3102 C   0  0  0  0  0  0
  -30.2025  -21.2222   23.0023 C   0  0  0  0  0  0
  -29.7506  -15.8482   20.5173 N   0  0  0  0  0  0
  -28.7133  -22.3805   20.3314 N   0  0  0  0  0  0
  -30.1001  -23.9467   19.4508 O   0  0  0  0  0  0
  -30.7336  -22.1360   22.1952 F   0  0  0  0  0  0
  -31.4775  -12.6097   19.1409 H   0  0  0  0  0  0
  -30.4108  -11.4823   19.9411 H   0  0  0  0  0  0
  -29.7882  -11.7181   17.5135 H   0  0  0  0  0  0
  -29.6244  -13.4458   17.7017 H   0  0  0  0  0  0
  -27.8981  -11.2685   18.9210 H   0  0  0  0  0  0
  -27.3720  -12.4936   17.8000 H   0  0  0  0  0  0
  -27.6298  -14.2400   19.4542 H   0  0  0  0  0  0
  -28.7303  -12.1526   21.4075 H   0  0  0  0  0  0
  -28.4248  -13.8305   21.7847 H   0  0  0  0  0  0
  -25.2752   -9.5681   22.4757 H   0  0  0  0  0  0
  -23.9993   -7.4633   22.7476 H   0  0  0  0  0  0
  -21.0829   -8.8758   19.8951 H   0  0  0  0  0  0
  -22.3679  -10.9662   19.6165 H   0  0  0  0  0  0
  -21.2011   -7.6148   23.9707 H   0  0  0  0  0  0
  -21.1479   -6.0521   25.9068 H   0  0  0  0  0  0
  -22.0603   -2.7609   23.2836 H   0  0  0  0  0  0
  -22.4083  -11.9864   22.4794 H   0  0  0  0  0  0
  -21.1090  -13.1238   22.2631 H   0  0  0  0  0  0
  -24.6513  -15.8405   20.5308 H   0  0  0  0  0  0
  -26.2618  -15.6361   20.0719 H   0  0  0  0  0  0
  -26.7187  -32.5420   23.1072 H   0  0  0  0  0  0
  -25.0074  -33.9707   25.0403 H   0  0  0  0  0  0
  -22.7215  -31.2994   21.3921 H   0  0  0  0  0  0
  -23.3757  -35.9612   23.3301 H   0  0  0  0  0  0
  -24.3577  -36.8908   22.2058 H   0  0  0  0  0  0
  -23.7241  -37.6481   23.6667 H   0  0  0  0  0  0
  -26.1051  -31.5361   20.6056 H   0  0  0  0  0  0
  -26.8528  -30.8249   22.0051 H   0  0  0  0  0  0
  -28.1287  -28.9416   21.1818 H   0  0  0  0  0  0
  -25.9556  -25.8953   19.0236 H   0  0  0  0  0  0
  -23.9686  -27.3008   19.0148 H   0  0  0  0  0  0
  -23.7739  -30.5901   19.4013 H   0  0  0  0  0  0
  -22.7664  -29.2470   19.8494 H   0  0  0  0  0  0
  -25.1292  -36.1915   25.0823 H   0  0  0  0  0  0
  -20.9987  -28.3276   24.1373 H   0  0  0  0  0  0
  -20.5653  -26.2310   23.3603 H   0  0  0  0  0  0
  -21.6655  -26.7410   22.1207 H   0  0  0  0  0  0
  -19.6925  -25.6281   21.1239 H   0  0  0  0  0  0
  -19.6708  -27.3176   20.6712 H   0  0  0  0  0  0
  -17.4201  -26.6647   21.4022 H   0  0  0  0  0  0
  -18.0356  -26.0068   22.9010 H   0  0  0  0  0  0
  -19.7962  -30.7256   24.2254 H   0  0  0  0  0  0
  -17.5047  -31.6267   24.5161 H   0  0  0  0  0  0
  -15.5370  -30.2997   23.7661 H   0  0  0  0  0  0
  -15.8673  -28.0830   22.7065 H   0  0  0  0  0  0
  -24.5902  -30.7069   25.7770 H   0  0  0  0  0  0
  -24.8891  -32.2918   26.4816 H   0  0  0  0  0  0
  -25.8027  -30.8956   27.0240 H   0  0  0  0  0  0
  -26.2952  -29.6740   24.1214 H   0  0  0  0  0  0
  -27.4069  -29.7279   25.4698 H   0  0  0  0  0  0
  -27.8800  -30.4310   23.9416 H   0  0  0  0  0  0
  -27.2687  -33.3647   26.2020 H   0  0  0  0  0  0
  -28.3894  -32.6832   25.0331 H   0  0  0  0  0  0
  -28.0685  -31.8465   26.5444 H   0  0  0  0  0  0
  -28.2586  -38.0096   24.7506 H   0  0  0  0  0  0
  -28.1077  -36.2626   24.6300 H   0  0  0  0  0  0
  -27.2291  -37.1448   25.8867 H   0  0  0  0  0  0
  -20.9372  -29.8808   21.6896 H   0  0  0  0  0  0
  -26.0166  -38.2835   24.1428 H   0  0  0  0  0  0
  -30.5045  -18.7432   24.0271 H   0  0  0  0  0  0
  -29.3387  -18.3441   19.2707 H   0  0  0  0  0  0
  -30.4701  -16.5017   24.3813 H   0  0  0  0  0  0
  -31.4462  -15.7592   23.1182 H   0  0  0  0  0  0
  -29.7024  -15.4501   23.2107 H   0  0  0  0  0  0
  -28.4540  -21.0506   24.2919 H   0  0  0  0  0  0
  -28.1005  -21.8262   22.7686 H   0  0  0  0  0  0
  -28.9691  -22.7110   24.0141 H   0  0  0  0  0  0
  -30.8745  -20.5909   25.0055 H   0  0  0  0  0  0
  -31.4247  -22.1772   24.5391 H   0  0  0  0  0  0
  -32.1804  -20.7615   23.8262 H   0  0  0  0  0  0
  -28.9249  -20.7353   19.0401 H   0  0  0  0  0  0
  -30.4307  -21.3644   19.5871 H   0  0  0  0  0  0
  -28.0450  -24.9877   19.2218 H   0  0  0  0  0  0
  -28.7102  -25.0688   21.1325 H   0  0  0  0  0  0
  -28.7873  -15.5993   20.3575 H   0  0  0  0  0  0
  -27.8235  -22.2489   20.7913 H   0  0  0  0  0  0
  1 25  1  0  0  0
  1 30  2  0  0  0
  1 84  1  0  0  0
  2  3  1  0  0  0
  2 25  1  0  0  0
  2 88  1  0  0  0
  2 89  1  0  0  0
  3  4  1  0  0  0
  3 90  1  0  0  0
  3 91  1  0  0  0
  4  5  1  0  0  0
  4 92  1  0  0  0
  4 93  1  0  0  0
  5  6  1  0  0  0
  5 26  1  0  0  0
  5 94  1  0  0  0
  6 25  1  0  0  0
  6 95  1  0  0  0
  6 96  1  0  0  0
  7  8  2  0  0  0
  7 26  1  0  0  0
  7 29  1  0  0  0
  8  9  1  0  0  0
  8 22  1  0  0  0
  9 10  1  0  0  0
  9 27  2  0  0  0
 10 11  2  0  0  0
 10 15  1  0  0  0
 11 12  1  0  0  0
 11 97  1  0  0  0
 12 13  2  0  0  0
 12 98  1  0  0  0
 13 14  1  0  0  0
 13 31  1  0  0  0
 14 15  2  0  0  0
 14 99  1  0  0  0
 15100  1  0  0  0
 16 17  2  0  0  0
 16 21  1  0  0  0
 16 31  1  0  0  0
 17 18  1  0  0  0
 17101  1  0  0  0
 18 19  2  0  0  0
 18102  1  0  0  0
 19 20  1  0  0  0
 19 24  1  0  0  0
 20 21  2  0  0  0
 20103  1  0  0  0
 21 23  1  0  0  0
 22 28  1  0  0  0
 22 32  2  0  0  0
 26 27  1  0  0  0
 28104  1  0  0  0
 28105  1  0  0  0
 29106  1  0  0  0
 29107  1  0  0  0
 33 34  1  0  0  0
 33 66  1  0  0  0
 33 70  2  0  0  0
 34 36  1  0  0  0
 34 59  1  0  0  0
 34108  1  0  0  0
 35 44  2  0  0  0
 35 45  1  0  0  0
 35 68  1  0  0  0
 36 56  1  0  0  0
 36109  1  0  0  0
 37 39  1  0  0  0
 37 47  1  0  0  0
 37 66  1  0  0  0
 37110  1  0  0  0
 38 43  2  0  0  0
 38 46  1  0  0  0
 38 47  1  0  0  0
 39 64  1  0  0  0
 39 67  2  0  0  0
 40 52  1  0  0  0
 40 53  2  0  0  0
 40 58  1  0  0  0
 41111  1  0  0  0
 41112  1  0  0  0
 41113  1  0  0  0
 41 48  1  0  0  0
 42 43  1  0  0  0
 42 66  1  0  0  0
 42114  1  0  0  0
 42115  1  0  0  0
 43 44  1  0  0  0
 44116  1  0  0  0
 45 46  2  0  0  0
 45117  1  0  0  0
 46118  1  0  0  0
 47119  1  0  0  0
 47120  1  0  0  0
 48 56  1  0  0  0
 48 65  1  0  0  0
 48121  1  0  0  0
 49 50  1  0  0  0
 49 53  1  0  0  0
 49 64  1  0  0  0
 49122  1  0  0  0
 50 51  1  0  0  0
 50123  1  0  0  0
 50124  1  0  0  0
 51 52  1  0  0  0
 51125  1  0  0  0
 51126  1  0  0  0
 52127  1  0  0  0
 52128  1  0  0  0
 53 54  1  0  0  0
 54 55  2  0  0  0
 54129  1  0  0  0
 55 57  1  0  0  0
 55130  1  0  0  0
 56 69  2  0  0  0
 57 58  2  0  0  0
 57131  1  0  0  0
 58132  1  0  0  0
 59 60  1  0  0  0
 59 61  1  0  0  0
 59 62  1  0  0  0
 60133  1  0  0  0
 60134  1  0  0  0
 60135  1  0  0  0
 61136  1  0  0  0
 61137  1  0  0  0
 61138  1  0  0  0
 62139  1  0  0  0
 62140  1  0  0  0
 62141  1  0  0  0
 63 65  1  0  0  0
 63142  1  0  0  0
 63143  1  0  0  0
 63144  1  0  0  0
 64145  1  0  0  0
 65146  1  0  0  0
 68 82  1  0  0  0
 71 73  2  0  0  0
 71 74  1  0  0  0
 71147  1  0  0  0
 72 75  2  0  0  0
 72 76  1  0  0  0
 72148  1  0  0  0
 73 75  1  0  0  0
 73 83  1  0  0  0
 74 76  2  0  0  0
 74 78  1  0  0  0
 75 81  1  0  0  0
 76 84  1  0  0  0
 77 82  1  0  0  0
 77 85  1  0  0  0
 77 86  2  0  0  0
 78149  1  0  0  0
 78150  1  0  0  0
 78151  1  0  0  0
 79152  1  0  0  0
 79153  1  0  0  0
 79154  1  0  0  0
 79 83  1  0  0  0
 80 83  1  0  0  0
 80155  1  0  0  0
 80156  1  0  0  0
 80157  1  0  0  0
 81 85  1  0  0  0
 81158  1  0  0  0
 81159  1  0  0  0
 82160  1  0  0  0
 82161  1  0  0  0
 83 87  1  0  0  0
 84162  1  0  0  0
 85163  1  0  0  0
M  ISO  4   1 100  68 101  82 101  84 100
M  END
> <chiral flag>
0

> <version>
0

> <s_m_source_file>
/data/baiqing/PycharmProjects/Reinvent-master-3.2/result/LINK_invent/BTK/process_docking_weight1_custom_product_contain_oxygen_bond_distance_aromatic_linkinvent_7_9_3/rearranged_h_0042.sdf

> <i_m_source_file_index>
91

> <r_mmod_Potential_Energy-OPLS-2005>
317.252716064453

> <r_mmod_Stretch_Energy-OPLS-2005>
127.502166748047

> <r_mmod_Bend_Energy-OPLS-2005>
375.074493408203

> <r_mmod_Torsional_Energy-OPLS-2005>
250.736053466797

> <r_mmod_Improper_Torsional_Energy-OPLS-2005>
9.87343692779541

> <r_mmod_Van_der_Waal_Energy-OPLS-2005>
152.920349121094

> <r_mmod_Electrostatic_Energy-OPLS-2005>
-444.460571289062

> <r_mmod_Solvation_Energy-OPLS-2005>
-239.931335449219

> <b_mmod_Minimization_Converged-OPLS-2005>
0

> <r_mmod_RMS_Derivative-OPLS-2005>
1.33405137062073

$$$$
91
                    3D
 Structure written by MMmdl.
171180  0  0  1  0            999 V2000
  -30.6593  -14.5404   20.5765 C   0  0  0  0  0  0
  -30.4399  -12.3440   19.4337 C   0  0  0  0  0  0
  -29.5071  -12.4942   18.2121 C   0  0  0  0  0  0
  -28.0302  -12.3316   18.6284 C   0  0  0  0  0  0
  -27.6602  -13.1991   19.8606 C   0  0  2  0  0  0
  -28.7029  -13.0136   20.9868 C   0  0  0  0  0  0
  -25.2622  -13.8138   20.5676 C   0  0  0  0  0  0
  -24.1863  -13.0433   20.9174 C   0  0  0  0  0  0
  -24.6408  -11.6895   20.8757 C   0  0  0  0  0  0
  -23.9068  -10.4284   21.0432 C   0  0  0  0  0  0
  -24.3621   -9.4192   21.9198 C   0  0  0  0  0  0
  -23.6285   -8.2235   22.0767 C   0  0  0  0  0  0
  -22.4271   -8.0280   21.3549 C   0  0  0  0  0  0
  -21.9919   -9.0257   20.4661 C   0  0  0  0  0  0
  -22.7255  -10.2126   20.3066 C   0  0  0  0  0  0
  -21.6848   -6.0736   22.5284 C   0  0  0  0  0  0
  -21.4009   -6.5633   23.8219 C   0  0  0  0  0  0
  -21.3651   -5.6789   24.9181 C   0  0  0  0  0  0
  -21.6047   -4.3054   24.7238 C   0  0  0  0  0  0
  -21.8812   -3.8145   23.4359 C   0  0  0  0  0  0
  -21.9190   -4.6964   22.3414 C   0  0  0  0  0  0
  -22.7888  -13.5247   21.1853 C   0  0  0  0  0  0
  -22.1659   -4.2148   21.0993 F   0  0  0  0  0  0
  -21.5634   -3.4537   25.7750 F   0  0  0  0  0  0
  -30.0240  -13.3443   20.4291 N   0  0  0  0  0  0
  -26.3028  -12.9283   20.3283 N   0  0  0  0  0  0
  -25.9326  -11.6455   20.5742 N   0  0  0  0  0  0
  -22.0507  -12.8232   22.0378 N   0  0  0  0  0  0
  -25.4363  -15.1852   20.4061 N   0  0  0  0  0  0
  -31.8170  -14.7263   20.1831 O   0  0  0  0  0  0
  -21.6630   -6.8881   21.4244 O   0  0  0  0  0  0
  -22.3559  -14.5541   20.6695 O   0  0  0  0  0  0
  -24.6160  -31.8632   23.2022 C   0  0  0  0  0  0
  -25.9034  -32.4782   23.8307 C   0  0  1  0  0  0
  -27.2431  -27.3632   20.1602 C   0  0  0  0  0  0
  -25.5896  -33.8574   24.2282 N   0  0  0  0  0  0
  -23.4089  -30.4798   21.5435 C   0  0  2  0  0  0
  -24.8643  -28.9267   20.1207 C   0  0  0  0  0  0
  -22.7444  -29.4617   22.4977 C   0  0  0  0  0  0
  -18.0292  -28.1332   22.8450 C   0  0  0  0  0  0
  -24.1517  -36.7301   23.2661 C   0  0  0  0  0  0
  -25.9434  -30.8051   21.3697 C   0  0  0  0  0  0
  -26.0248  -29.4338   20.7194 C   0  0  0  0  0  0
  -27.2158  -28.6641   20.7269 C   0  0  0  0  0  0
  -26.0684  -26.8811   19.5463 C   0  0  0  0  0  0
  -24.8849  -27.6500   19.5245 C   0  0  0  0  0  0
  -23.6278  -29.8024   20.1629 C   0  0  0  0  0  0
  -25.4122  -36.3083   24.0372 C   0  0  1  0  0  0
  -20.5886  -28.3604   23.1318 C   0  0  2  0  0  0
  -20.6755  -26.9345   22.5413 C   0  0  0  0  0  0
  -19.5740  -26.6328   21.5210 C   0  0  0  0  0  0
  -18.1914  -26.7868   22.1603 C   0  0  0  0  0  0
  -19.1538  -28.8771   23.2876 C   0  0  0  0  0  0
  -18.9489  -30.1412   23.8813 C   0  0  0  0  0  0
  -17.6501  -30.6518   24.0540 C   0  0  0  0  0  0
  -25.9070  -34.9454   23.5152 C   0  0  0  0  0  0
  -16.5381  -29.9022   23.6341 C   0  0  0  0  0  0
  -16.7284  -28.6447   23.0334 C   0  0  0  0  0  0
  -26.4462  -31.6584   25.0664 C   0  0  0  0  0  0
  -25.3743  -31.3670   26.1462 C   0  0  0  0  0  0
  -27.0335  -30.3043   24.6037 C   0  0  0  0  0  0
  -27.6006  -32.4372   25.7400 C   0  0  0  0  0  0
  -27.5602  -37.1818   24.8488 C   0  0  0  0  0  0
  -21.4169  -29.2987   22.3734 N   0  0  0  0  0  0
  -26.4315  -37.3767   23.9430 N   0  0  0  0  0  0
  -24.6729  -31.0669   22.0955 N   0  0  0  0  0  0
  -23.4184  -28.8175   23.3041 O   0  0  0  0  0  0
  -28.3978  -26.5897   20.1615 O   0  0  0  0  0  0
  -26.5651  -34.8917   22.4710 O   0  0  0  0  0  0
  -23.5370  -32.1454   23.7392 O   0  0  0  0  0  0
  -31.3030  -17.0580   22.2538 C   0  0  0  0  0  0
  -29.3894  -18.0499   21.0962 C   0  0  0  0  0  0
  -29.7092  -19.3534   21.6342 C   0  0  0  0  0  0
  -30.1979  -16.9008   21.3989 C   0  0  0  0  0  0
  -31.6062  -18.3036   22.8179 C   0  0  0  0  0  0
  -30.8193  -19.4374   22.5252 C   0  0  0  0  0  0
  -29.5297  -22.9712   20.3965 C   0  0  0  0  0  0
  -32.1159  -21.3658   19.5498 C   0  0  0  0  0  0
  -30.8430  -23.2783   20.5019 C   0  0  0  0  0  0
  -31.9307  -22.3113   20.4904 C   0  0  0  0  0  0
  -26.7992  -22.1072   19.4742 C   0  0  0  0  0  0
  -27.0011  -23.2833   20.4537 C   0  0  0  0  0  0
  -28.1074  -21.3573   19.1413 C   0  0  0  0  0  0
  -28.3523  -23.9939   20.2168 C   0  0  1  0  0  0
  -28.1628  -17.8423   20.2125 C   0  0  0  0  0  0
  -28.8411  -20.6472   21.4124 C   0  0  0  0  0  0
  -28.4260  -25.3797   20.9824 C   0  0  0  0  0  0
  -29.8574  -15.5651   20.9695 N   0  0  0  0  0  0
  -29.1338  -21.5028   20.2045 N   0  3  2  0  0  0
  -32.9464  -18.4016   23.9100 Cl  0  0  0  0  0  0
  -31.2094  -20.9180   23.3379 Cl  0  0  0  0  0  0
  -31.4828  -12.4640   19.1346 H   0  0  0  0  0  0
  -30.3622  -11.3413   19.8565 H   0  0  0  0  0  0
  -29.7656  -11.7613   17.4465 H   0  0  0  0  0  0
  -29.6494  -13.4745   17.7528 H   0  0  0  0  0  0
  -27.8702  -11.2767   18.8602 H   0  0  0  0  0  0
  -27.3701  -12.5595   17.7909 H   0  0  0  0  0  0
  -27.6911  -14.2351   19.5252 H   0  0  0  0  0  0
  -28.7035  -11.9826   21.3428 H   0  0  0  0  0  0
  -28.4573  -13.6262   21.8545 H   0  0  0  0  0  0
  -25.2782   -9.5645   22.4752 H   0  0  0  0  0  0
  -23.9996   -7.4617   22.7479 H   0  0  0  0  0  0
  -21.0853   -8.8779   19.8959 H   0  0  0  0  0  0
  -22.3747  -10.9658   19.6150 H   0  0  0  0  0  0
  -21.1990   -7.6142   23.9725 H   0  0  0  0  0  0
  -21.1483   -6.0521   25.9083 H   0  0  0  0  0  0
  -22.0604   -2.7606   23.2867 H   0  0  0  0  0  0
  -22.4102  -11.9879   22.4766 H   0  0  0  0  0  0
  -21.1129  -13.1258   22.2588 H   0  0  0  0  0  0
  -24.6738  -15.8450   20.5186 H   0  0  0  0  0  0
  -26.2679  -15.6072   20.0143 H   0  0  0  0  0  0
  -26.7074  -32.5485   23.1042 H   0  0  0  0  0  0
  -24.9890  -33.9696   25.0321 H   0  0  0  0  0  0
  -22.7030  -31.2983   21.3864 H   0  0  0  0  0  0
  -23.3764  -35.9661   23.3318 H   0  0  0  0  0  0
  -24.3586  -36.8913   22.2066 H   0  0  0  0  0  0
  -23.7280  -37.6518   23.6666 H   0  0  0  0  0  0
  -26.0927  -31.5762   20.6110 H   0  0  0  0  0  0
  -26.8134  -30.8404   22.0096 H   0  0  0  0  0  0
  -28.1092  -29.0502   21.1936 H   0  0  0  0  0  0
  -26.0752  -25.8998   19.0900 H   0  0  0  0  0  0
  -23.9970  -27.2385   19.0618 H   0  0  0  0  0  0
  -23.7434  -30.5759   19.4059 H   0  0  0  0  0  0
  -22.7474  -29.2317   19.8610 H   0  0  0  0  0  0
  -25.1285  -36.1937   25.0865 H   0  0  0  0  0  0
  -20.9948  -28.3125   24.1458 H   0  0  0  0  0  0
  -20.5680  -26.2196   23.3585 H   0  0  0  0  0  0
  -21.6608  -26.7404   22.1176 H   0  0  0  0  0  0
  -19.6915  -25.6252   21.1235 H   0  0  0  0  0  0
  -19.6657  -27.3103   20.6715 H   0  0  0  0  0  0
  -17.4202  -26.6685   21.3979 H   0  0  0  0  0  0
  -18.0233  -25.9993   22.8972 H   0  0  0  0  0  0
  -19.7992  -30.7226   24.2117 H   0  0  0  0  0  0
  -17.5086  -31.6223   24.5125 H   0  0  0  0  0  0
  -15.5366  -30.2897   23.7714 H   0  0  0  0  0  0
  -15.8694  -28.0788   22.7001 H   0  0  0  0  0  0
  -24.5926  -30.6988   25.7851 H   0  0  0  0  0  0
  -24.8900  -32.2821   26.4895 H   0  0  0  0  0  0
  -25.8156  -30.8914   27.0233 H   0  0  0  0  0  0
  -26.2891  -29.6771   24.1154 H   0  0  0  0  0  0
  -27.4218  -29.7345   25.4469 H   0  0  0  0  0  0
  -27.8686  -30.4369   23.9147 H   0  0  0  0  0  0
  -27.2588  -33.3699   26.1878 H   0  0  0  0  0  0
  -28.3812  -32.6861   25.0206 H   0  0  0  0  0  0
  -28.0674  -31.8589   26.5374 H   0  0  0  0  0  0
  -28.2608  -38.0137   24.7505 H   0  0  0  0  0  0
  -28.1108  -36.2661   24.6313 H   0  0  0  0  0  0
  -27.2336  -37.1439   25.8904 H   0  0  0  0  0  0
  -20.9345  -29.8832   21.7054 H   0  0  0  0  0  0
  -26.0230  -38.2864   24.1382 H   0  0  0  0  0  0
  -31.9086  -16.2064   22.5319 H   0  0  0  0  0  0
  -32.9416  -20.6758   19.6390 H   0  0  0  0  0  0
  -31.4809  -21.2540   18.6807 H   0  0  0  0  0  0
  -31.1244  -24.3232   20.5271 H   0  0  0  0  0  0
  -32.6428  -22.3375   21.3054 H   0  0  0  0  0  0
  -26.3869  -22.4788   18.5369 H   0  0  0  0  0  0
  -26.0489  -21.4216   19.8717 H   0  0  0  0  0  0
  -26.9641  -22.9043   21.4781 H   0  0  0  0  0  0
  -26.1661  -23.9802   20.3704 H   0  0  0  0  0  0
  -28.5236  -21.7727   18.2217 H   0  0  0  0  0  0
  -27.9103  -20.3115   18.9266 H   0  0  0  0  0  0
  -28.3828  -24.2674   19.1609 H   0  0  0  0  0  0
  -27.3597  -18.5483   20.4062 H   0  0  0  0  0  0
  -27.7241  -16.8575   20.3720 H   0  0  0  0  0  0
  -28.4340  -17.9218   19.1600 H   0  0  0  0  0  0
  -28.9057  -21.2872   22.2925 H   0  0  0  0  0  0
  -27.7857  -20.3823   21.4191 H   0  0  0  0  0  0
  -29.3425  -25.4299   21.5740 H   0  0  0  0  0  0
  -27.6336  -25.4228   21.7353 H   0  0  0  0  0  0
  -28.8823  -15.3168   21.0400 H   0  0  0  0  0  0
  -29.9598  -21.0701   19.8140 H   0  0  0  0  0  0
  1 25  1  0  0  0
  1 30  2  0  0  0
  1 88  1  0  0  0
  2  3  1  0  0  0
  2 25  1  0  0  0
  2 92  1  0  0  0
  2 93  1  0  0  0
  3  4  1  0  0  0
  3 94  1  0  0  0
  3 95  1  0  0  0
  4  5  1  0  0  0
  4 96  1  0  0  0
  4 97  1  0  0  0
  5  6  1  0  0  0
  5 26  1  0  0  0
  5 98  1  0  0  0
  6 25  1  0  0  0
  6 99  1  0  0  0
  6100  1  0  0  0
  7  8  2  0  0  0
  7 26  1  0  0  0
  7 29  1  0  0  0
  8  9  1  0  0  0
  8 22  1  0  0  0
  9 10  1  0  0  0
  9 27  2  0  0  0
 10 11  2  0  0  0
 10 15  1  0  0  0
 11 12  1  0  0  0
 11101  1  0  0  0
 12 13  2  0  0  0
 12102  1  0  0  0
 13 14  1  0  0  0
 13 31  1  0  0  0
 14 15  2  0  0  0
 14103  1  0  0  0
 15104  1  0  0  0
 16 17  2  0  0  0
 16 21  1  0  0  0
 16 31  1  0  0  0
 17 18  1  0  0  0
 17105  1  0  0  0
 18 19  2  0  0  0
 18106  1  0  0  0
 19 20  1  0  0  0
 19 24  1  0  0  0
 20 21  2  0  0  0
 20107  1  0  0  0
 21 23  1  0  0  0
 22 28  1  0  0  0
 22 32  2  0  0  0
 26 27  1  0  0  0
 28108  1  0  0  0
 28109  1  0  0  0
 29110  1  0  0  0
 29111  1  0  0  0
 33 34  1  0  0  0
 33 66  1  0  0  0
 33 70  2  0  0  0
 34 36  1  0  0  0
 34 59  1  0  0  0
 34112  1  0  0  0
 35 44  2  0  0  0
 35 45  1  0  0  0
 35 68  1  0  0  0
 36 56  1  0  0  0
 36113  1  0  0  0
 37 39  1  0  0  0
 37 47  1  0  0  0
 37 66  1  0  0  0
 37114  1  0  0  0
 38 43  2  0  0  0
 38 46  1  0  0  0
 38 47  1  0  0  0
 39 64  1  0  0  0
 39 67  2  0  0  0
 40 52  1  0  0  0
 40 53  2  0  0  0
 40 58  1  0  0  0
 41115  1  0  0  0
 41116  1  0  0  0
 41117  1  0  0  0
 41 48  1  0  0  0
 42 43  1  0  0  0
 42 66  1  0  0  0
 42118  1  0  0  0
 42119  1  0  0  0
 43 44  1  0  0  0
 44120  1  0  0  0
 45 46  2  0  0  0
 45121  1  0  0  0
 46122  1  0  0  0
 47123  1  0  0  0
 47124  1  0  0  0
 48 56  1  0  0  0
 48 65  1  0  0  0
 48125  1  0  0  0
 49 50  1  0  0  0
 49 53  1  0  0  0
 49 64  1  0  0  0
 49126  1  0  0  0
 50 51  1  0  0  0
 50127  1  0  0  0
 50128  1  0  0  0
 51 52  1  0  0  0
 51129  1  0  0  0
 51130  1  0  0  0
 52131  1  0  0  0
 52132  1  0  0  0
 53 54  1  0  0  0
 54 55  2  0  0  0
 54133  1  0  0  0
 55 57  1  0  0  0
 55134  1  0  0  0
 56 69  2  0  0  0
 57 58  2  0  0  0
 57135  1  0  0  0
 58136  1  0  0  0
 59 60  1  0  0  0
 59 61  1  0  0  0
 59 62  1  0  0  0
 60137  1  0  0  0
 60138  1  0  0  0
 60139  1  0  0  0
 61140  1  0  0  0
 61141  1  0  0  0
 61142  1  0  0  0
 62143  1  0  0  0
 62144  1  0  0  0
 62145  1  0  0  0
 63 65  1  0  0  0
 63146  1  0  0  0
 63147  1  0  0  0
 63148  1  0  0  0
 64149  1  0  0  0
 65150  1  0  0  0
 68 87  1  0  0  0
 71 74  2  0  0  0
 71 75  1  0  0  0
 71151  1  0  0  0
 72 73  2  0  0  0
 72 74  1  0  0  0
 72 85  1  0  0  0
 73 76  1  0  0  0
 73 86  1  0  0  0
 74 88  1  0  0  0
 75 76  2  0  0  0
 75 90  1  0  0  0
 76 91  1  0  0  0
 77 79  2  0  0  0
 77 84  1  0  0  0
 77 89  1  0  0  0
 78 80  2  0  0  0
 78152  1  0  0  0
 78153  1  0  0  0
 79 80  1  0  0  0
 79154  1  0  0  0
 80155  1  0  0  0
 81 82  1  0  0  0
 81 83  1  0  0  0
 81156  1  0  0  0
 81157  1  0  0  0
 82 84  1  0  0  0
 82158  1  0  0  0
 82159  1  0  0  0
 83 89  1  0  0  0
 83160  1  0  0  0
 83161  1  0  0  0
 84 87  1  0  0  0
 84162  1  0  0  0
 85163  1  0  0  0
 85164  1  0  0  0
 85165  1  0  0  0
 86166  1  0  0  0
 86167  1  0  0  0
 86 89  1  0  0  0
 87168  1  0  0  0
 87169  1  0  0  0
 88170  1  0  0  0
 89171  1  0  0  0
M  CHG  1  89   1
M  ISO  4   1 100  68 101  87 101  88 100
M  END
> <chiral flag>
0

> <version>
0

> <s_m_source_file>
/data/baiqing/PycharmProjects/Reinvent-master-3.2/result/LINK_invent/BTK/process_docking_weight1_custom_product_contain_oxygen_bond_distance_aromatic_linkinvent_7_9_3/rearranged_h_0042.sdf

> <i_m_source_file_index>
92

> <r_mmod_Potential_Energy-OPLS-2005>
-19.0222778320312

> <r_mmod_Stretch_Energy-OPLS-2005>
70.3661499023438

> <r_mmod_Bend_Energy-OPLS-2005>
135.019958496094

> <r_mmod_Torsional_Energy-OPLS-2005>
301.446685791016

> <r_mmod_Improper_Torsional_Energy-OPLS-2005>
6.43796682357788

> <r_mmod_Van_der_Waal_Energy-OPLS-2005>
152.12077331543

> <r_mmod_Electrostatic_Energy-OPLS-2005>
-271.330322265625

> <r_mmod_Solvation_Energy-OPLS-2005>
-440.485290527344

> <b_mmod_Minimization_Converged-OPLS-2005>
0

> <r_mmod_RMS_Derivative-OPLS-2005>
6.13348913192749

$$$$
92
                    3D
 Structure written by MMmdl.
173182  0  0  1  0            999 V2000
  -30.7707  -14.4462   20.6399 C   0  0  0  0  0  0
  -30.4092  -12.3261   19.4236 C   0  0  0  0  0  0
  -29.4881  -12.5174   18.2056 C   0  0  0  0  0  0
  -28.0121  -12.3747   18.6176 C   0  0  0  0  0  0
  -27.6552  -13.2198   19.8693 C   0  0  2  0  0  0
  -28.6959  -13.0319   20.9964 C   0  0  0  0  0  0
  -25.2539  -13.8198   20.5694 C   0  0  0  0  0  0
  -24.1811  -13.0452   20.9203 C   0  0  0  0  0  0
  -24.6378  -11.6920   20.8742 C   0  0  0  0  0  0
  -23.9054  -10.4302   21.0382 C   0  0  0  0  0  0
  -24.3605   -9.4222   21.9167 C   0  0  0  0  0  0
  -23.6289   -8.2248   22.0743 C   0  0  0  0  0  0
  -22.4272   -8.0281   21.3538 C   0  0  0  0  0  0
  -21.9896   -9.0249   20.4640 C   0  0  0  0  0  0
  -22.7215  -10.2132   20.3039 C   0  0  0  0  0  0
  -21.6858   -6.0723   22.5275 C   0  0  0  0  0  0
  -21.4010   -6.5638   23.8207 C   0  0  0  0  0  0
  -21.3665   -5.6793   24.9182 C   0  0  0  0  0  0
  -21.6046   -4.3052   24.7226 C   0  0  0  0  0  0
  -21.8822   -3.8139   23.4349 C   0  0  0  0  0  0
  -21.9196   -4.6951   22.3402 C   0  0  0  0  0  0
  -22.7834  -13.5239   21.1884 C   0  0  0  0  0  0
  -22.1668   -4.2136   21.0972 F   0  0  0  0  0  0
  -21.5633   -3.4534   25.7739 F   0  0  0  0  0  0
  -30.0301  -13.3177   20.4442 N   0  0  0  0  0  0
  -26.2983  -12.9383   20.3345 N   0  0  0  0  0  0
  -25.9308  -11.6536   20.5750 N   0  0  0  0  0  0
  -22.0462  -12.8213   22.0422 N   0  0  0  0  0  0
  -25.4247  -15.1912   20.4104 N   0  0  0  0  0  0
  -31.8551  -14.6168   20.0800 O   0  0  0  0  0  0
  -21.6649   -6.8863   21.4233 O   0  0  0  0  0  0
  -22.3515  -14.5546   20.6741 O   0  0  0  0  0  0
  -24.6195  -31.8643   23.2039 C   0  0  0  0  0  0
  -25.9075  -32.4789   23.8361 C   0  0  1  0  0  0
  -27.2124  -27.3950   20.1029 C   0  0  0  0  0  0
  -25.5914  -33.8590   24.2285 N   0  0  0  0  0  0
  -23.4049  -30.4977   21.5449 C   0  0  2  0  0  0
  -24.8425  -28.9582   20.1129 C   0  0  0  0  0  0
  -22.7430  -29.4714   22.4934 C   0  0  0  0  0  0
  -18.0311  -28.1423   22.8516 C   0  0  0  0  0  0
  -24.1483  -36.7307   23.2633 C   0  0  0  0  0  0
  -25.9391  -30.8229   21.3577 C   0  0  0  0  0  0
  -26.0077  -29.4535   20.7095 C   0  0  0  0  0  0
  -27.1968  -28.6829   20.6986 C   0  0  0  0  0  0
  -26.0271  -26.9344   19.4803 C   0  0  0  0  0  0
  -24.8469  -27.6998   19.4953 C   0  0  0  0  0  0
  -23.6091  -29.8331   20.1587 C   0  0  0  0  0  0
  -25.4110  -36.3099   24.0325 C   0  0  1  0  0  0
  -20.5900  -28.3688   23.1306 C   0  0  2  0  0  0
  -20.6792  -26.9403   22.5410 C   0  0  0  0  0  0
  -19.5747  -26.6387   21.5209 C   0  0  0  0  0  0
  -18.1956  -26.7981   22.1622 C   0  0  0  0  0  0
  -19.1556  -28.8878   23.2927 C   0  0  0  0  0  0
  -18.9476  -30.1508   23.8896 C   0  0  0  0  0  0
  -17.6465  -30.6608   24.0594 C   0  0  0  0  0  0
  -25.9039  -34.9461   23.5099 C   0  0  0  0  0  0
  -16.5366  -29.9110   23.6333 C   0  0  0  0  0  0
  -16.7299  -28.6550   23.0320 C   0  0  0  0  0  0
  -26.4484  -31.6602   25.0725 C   0  0  0  0  0  0
  -25.3733  -31.3751   26.1474 C   0  0  0  0  0  0
  -27.0312  -30.3054   24.6127 C   0  0  0  0  0  0
  -27.6067  -32.4315   25.7478 C   0  0  0  0  0  0
  -27.5592  -37.1816   24.8468 C   0  0  0  0  0  0
  -21.4161  -29.3065   22.3692 N   0  0  0  0  0  0
  -26.4285  -37.3798   23.9424 N   0  0  0  0  0  0
  -24.6730  -31.0804   22.0901 N   0  0  0  0  0  0
  -23.4201  -28.8253   23.2962 O   0  0  0  0  0  0
  -28.3703  -26.6285   20.1581 O   0  0  0  0  0  0
  -26.5592  -34.8905   22.4664 O   0  0  0  0  0  0
  -23.5391  -32.1357   23.7463 O   0  0  0  0  0  0
  -31.0399  -19.9197   20.3491 C   0  0  0  0  0  0
  -31.2312  -18.5389   20.5746 C   0  0  0  0  0  0
  -30.4491  -20.7552   21.3183 C   0  0  0  0  0  0
  -30.0012  -20.1618   22.5315 C   0  0  0  0  0  0
  -30.0626  -18.7473   22.7066 C   0  0  0  0  0  0
  -30.7346  -17.9256   21.7571 C   0  0  0  0  0  0
  -29.0871  -24.4494   21.1439 C   0  0  0  0  0  0
  -29.7316  -25.0521   22.1642 C   0  0  0  0  0  0
  -28.4613  -23.1880   18.4993 C   0  0  0  0  0  0
  -28.6266  -24.7108   18.6743 C   0  0  0  0  0  0
  -28.2765  -22.4103   19.8256 C   0  0  0  0  0  0
  -28.2473  -25.1838   20.0852 C   0  0  2  0  0  0
  -32.0415  -17.7653   19.5466 C   0  0  0  0  0  0
  -29.5361  -21.0283   23.7023 C   0  0  0  0  0  0
  -29.4627  -18.1253   23.9643 C   0  0  0  0  0  0
  -31.0826  -16.4514   22.0908 C   0  0  0  0  0  0
  -30.4386  -22.2787   21.0515 C   0  0  0  0  0  0
  -30.2773  -15.3738   21.4811 N   0  0  0  0  0  0
  -29.0957  -22.9294   20.9595 N   0  3  1  0  0  0
  -31.4532  -12.4100   19.1171 H   0  0  0  0  0  0
  -30.3056  -11.3191   19.8282 H   0  0  0  0  0  0
  -29.7317  -11.7885   17.4318 H   0  0  0  0  0  0
  -29.6575  -13.5005   17.7630 H   0  0  0  0  0  0
  -27.8255  -11.3191   18.8179 H   0  0  0  0  0  0
  -27.3614  -12.6438   17.7853 H   0  0  0  0  0  0
  -27.6913  -14.2645   19.5609 H   0  0  0  0  0  0
  -28.6692  -12.0102   21.3756 H   0  0  0  0  0  0
  -28.4443  -13.6656   21.8470 H   0  0  0  0  0  0
  -25.2738   -9.5719   22.4752 H   0  0  0  0  0  0
  -24.0018   -7.4634   22.7446 H   0  0  0  0  0  0
  -21.0839   -8.8750   19.8931 H   0  0  0  0  0  0
  -22.3659  -10.9669   19.6157 H   0  0  0  0  0  0
  -21.1991   -7.6144   23.9711 H   0  0  0  0  0  0
  -21.1490   -6.0520   25.9086 H   0  0  0  0  0  0
  -22.0589   -2.7592   23.2851 H   0  0  0  0  0  0
  -22.4079  -11.9898   22.4848 H   0  0  0  0  0  0
  -21.1049  -13.1206   22.2568 H   0  0  0  0  0  0
  -24.6573  -15.8468   20.5099 H   0  0  0  0  0  0
  -26.2819  -15.6281   20.0932 H   0  0  0  0  0  0
  -26.7148  -32.5463   23.1106 H   0  0  0  0  0  0
  -25.0176  -33.9743   25.0526 H   0  0  0  0  0  0
  -22.6958  -31.3181   21.4084 H   0  0  0  0  0  0
  -23.3723  -35.9657   23.3291 H   0  0  0  0  0  0
  -24.3617  -36.8893   22.2048 H   0  0  0  0  0  0
  -23.7220  -37.6520   23.6641 H   0  0  0  0  0  0
  -26.0609  -31.5748   20.5769 H   0  0  0  0  0  0
  -26.8256  -30.8749   21.9777 H   0  0  0  0  0  0
  -28.0927  -29.0619   21.1664 H   0  0  0  0  0  0
  -25.9749  -25.9776   18.9803 H   0  0  0  0  0  0
  -23.9508  -27.3191   19.0249 H   0  0  0  0  0  0
  -23.7246  -30.6063   19.3963 H   0  0  0  0  0  0
  -22.7282  -29.2602   19.8597 H   0  0  0  0  0  0
  -25.1277  -36.1947   25.0808 H   0  0  0  0  0  0
  -21.0073  -28.3260   24.1389 H   0  0  0  0  0  0
  -20.5718  -26.2275   23.3593 H   0  0  0  0  0  0
  -21.6663  -26.7437   22.1186 H   0  0  0  0  0  0
  -19.6851  -25.6286   21.1242 H   0  0  0  0  0  0
  -19.6717  -27.3219   20.6749 H   0  0  0  0  0  0
  -17.4216  -26.6773   21.4006 H   0  0  0  0  0  0
  -18.0338  -26.0143   22.9027 H   0  0  0  0  0  0
  -19.7938  -30.7393   24.2204 H   0  0  0  0  0  0
  -17.4980  -31.6271   24.5228 H   0  0  0  0  0  0
  -15.5371  -30.2974   23.7654 H   0  0  0  0  0  0
  -15.8717  -28.0872   22.6942 H   0  0  0  0  0  0
  -24.5911  -30.7070   25.7852 H   0  0  0  0  0  0
  -24.8926  -32.2925   26.4891 H   0  0  0  0  0  0
  -25.8078  -30.8980   27.0264 H   0  0  0  0  0  0
  -26.2871  -29.6821   24.1176 H   0  0  0  0  0  0
  -27.4079  -29.7294   25.4593 H   0  0  0  0  0  0
  -27.8691  -30.4372   23.9265 H   0  0  0  0  0  0
  -27.2720  -33.3633   26.2048 H   0  0  0  0  0  0
  -28.3903  -32.6822   25.0308 H   0  0  0  0  0  0
  -28.0714  -31.8428   26.5396 H   0  0  0  0  0  0
  -28.2609  -38.0128   24.7591 H   0  0  0  0  0  0
  -28.1082  -36.2683   24.6191 H   0  0  0  0  0  0
  -27.2363  -37.1333   25.8881 H   0  0  0  0  0  0
  -20.9279  -29.8779   21.6945 H   0  0  0  0  0  0
  -26.0152  -38.2852   24.1465 H   0  0  0  0  0  0
  -31.4352  -20.3605   19.4444 H   0  0  0  0  0  0
  -29.6987  -26.1267   22.2792 H   0  0  0  0  0  0
  -30.2953  -24.5052   22.9063 H   0  0  0  0  0  0
  -29.3053  -22.7879   17.9347 H   0  0  0  0  0  0
  -27.5847  -22.9987   17.8766 H   0  0  0  0  0  0
  -28.0400  -25.2433   17.9254 H   0  0  0  0  0  0
  -29.6655  -24.9847   18.4868 H   0  0  0  0  0  0
  -28.4488  -21.3451   19.6598 H   0  0  0  0  0  0
  -27.2314  -22.4773   20.1302 H   0  0  0  0  0  0
  -27.2270  -24.8813   20.3207 H   0  0  0  0  0  0
  -32.4336  -18.4243   18.7720 H   0  0  0  0  0  0
  -31.4336  -17.0072   19.0538 H   0  0  0  0  0  0
  -32.9039  -17.2856   20.0103 H   0  0  0  0  0  0
  -29.9122  -22.0481   23.6656 H   0  0  0  0  0  0
  -29.9188  -20.6237   24.6417 H   0  0  0  0  0  0
  -28.4485  -21.0555   23.7694 H   0  0  0  0  0  0
  -28.5908  -18.6777   24.3137 H   0  0  0  0  0  0
  -30.2025  -18.1074   24.7669 H   0  0  0  0  0  0
  -29.1051  -17.1107   23.7939 H   0  0  0  0  0  0
  -31.0633  -16.2901   23.1670 H   0  0  0  0  0  0
  -32.1391  -16.3063   21.8708 H   0  0  0  0  0  0
  -30.9746  -22.4997   20.1277 H   0  0  0  0  0  0
  -31.0465  -22.7341   21.8311 H   0  0  0  0  0  0
  -29.3684  -15.1947   21.8805 H   0  0  0  0  0  0
  -28.6089  -22.5519   21.7585 H   0  0  0  0  0  0
  1 25  1  0  0  0
  1 30  2  0  0  0
  1 88  1  0  0  0
  2  3  1  0  0  0
  2 25  1  0  0  0
  2 90  1  0  0  0
  2 91  1  0  0  0
  3  4  1  0  0  0
  3 92  1  0  0  0
  3 93  1  0  0  0
  4  5  1  0  0  0
  4 94  1  0  0  0
  4 95  1  0  0  0
  5  6  1  0  0  0
  5 26  1  0  0  0
  5 96  1  0  0  0
  6 25  1  0  0  0
  6 97  1  0  0  0
  6 98  1  0  0  0
  7  8  2  0  0  0
  7 26  1  0  0  0
  7 29  1  0  0  0
  8  9  1  0  0  0
  8 22  1  0  0  0
  9 10  1  0  0  0
  9 27  2  0  0  0
 10 11  2  0  0  0
 10 15  1  0  0  0
 11 12  1  0  0  0
 11 99  1  0  0  0
 12 13  2  0  0  0
 12100  1  0  0  0
 13 14  1  0  0  0
 13 31  1  0  0  0
 14 15  2  0  0  0
 14101  1  0  0  0
 15102  1  0  0  0
 16 17  2  0  0  0
 16 21  1  0  0  0
 16 31  1  0  0  0
 17 18  1  0  0  0
 17103  1  0  0  0
 18 19  2  0  0  0
 18104  1  0  0  0
 19 20  1  0  0  0
 19 24  1  0  0  0
 20 21  2  0  0  0
 20105  1  0  0  0
 21 23  1  0  0  0
 22 28  1  0  0  0
 22 32  2  0  0  0
 26 27  1  0  0  0
 28106  1  0  0  0
 28107  1  0  0  0
 29108  1  0  0  0
 29109  1  0  0  0
 33 34  1  0  0  0
 33 66  1  0  0  0
 33 70  2  0  0  0
 34 36  1  0  0  0
 34 59  1  0  0  0
 34110  1  0  0  0
 35 44  2  0  0  0
 35 45  1  0  0  0
 35 68  1  0  0  0
 36 56  1  0  0  0
 36111  1  0  0  0
 37 39  1  0  0  0
 37 47  1  0  0  0
 37 66  1  0  0  0
 37112  1  0  0  0
 38 43  2  0  0  0
 38 46  1  0  0  0
 38 47  1  0  0  0
 39 64  1  0  0  0
 39 67  2  0  0  0
 40 52  1  0  0  0
 40 53  2  0  0  0
 40 58  1  0  0  0
 41113  1  0  0  0
 41114  1  0  0  0
 41115  1  0  0  0
 41 48  1  0  0  0
 42 43  1  0  0  0
 42 66  1  0  0  0
 42116  1  0  0  0
 42117  1  0  0  0
 43 44  1  0  0  0
 44118  1  0  0  0
 45 46  2  0  0  0
 45119  1  0  0  0
 46120  1  0  0  0
 47121  1  0  0  0
 47122  1  0  0  0
 48 56  1  0  0  0
 48 65  1  0  0  0
 48123  1  0  0  0
 49 50  1  0  0  0
 49 53  1  0  0  0
 49 64  1  0  0  0
 49124  1  0  0  0
 50 51  1  0  0  0
 50125  1  0  0  0
 50126  1  0  0  0
 51 52  1  0  0  0
 51127  1  0  0  0
 51128  1  0  0  0
 52129  1  0  0  0
 52130  1  0  0  0
 53 54  1  0  0  0
 54 55  2  0  0  0
 54131  1  0  0  0
 55 57  1  0  0  0
 55132  1  0  0  0
 56 69  2  0  0  0
 57 58  2  0  0  0
 57133  1  0  0  0
 58134  1  0  0  0
 59 60  1  0  0  0
 59 61  1  0  0  0
 59 62  1  0  0  0
 60135  1  0  0  0
 60136  1  0  0  0
 60137  1  0  0  0
 61138  1  0  0  0
 61139  1  0  0  0
 61140  1  0  0  0
 62141  1  0  0  0
 62142  1  0  0  0
 62143  1  0  0  0
 63 65  1  0  0  0
 63144  1  0  0  0
 63145  1  0  0  0
 63146  1  0  0  0
 64147  1  0  0  0
 65148  1  0  0  0
 68 82  1  0  0  0
 71 72  2  0  0  0
 71 73  1  0  0  0
 71149  1  0  0  0
 72 76  1  0  0  0
 72 83  1  0  0  0
 73 74  2  0  0  0
 73 87  1  0  0  0
 74 75  1  0  0  0
 74 84  1  0  0  0
 75 76  2  0  0  0
 75 85  1  0  0  0
 76 86  1  0  0  0
 77 78  2  0  0  0
 77 82  1  0  0  0
 77 89  1  0  0  0
 78150  1  0  0  0
 78151  1  0  0  0
 79 80  1  0  0  0
 79 81  1  0  0  0
 79152  1  0  0  0
 79153  1  0  0  0
 80 82  1  0  0  0
 80154  1  0  0  0
 80155  1  0  0  0
 81 89  1  0  0  0
 81156  1  0  0  0
 81157  1  0  0  0
 82158  1  0  0  0
 83159  1  0  0  0
 83160  1  0  0  0
 83161  1  0  0  0
 84162  1  0  0  0
 84163  1  0  0  0
 84164  1  0  0  0
 85165  1  0  0  0
 85166  1  0  0  0
 85167  1  0  0  0
 86 88  1  0  0  0
 86168  1  0  0  0
 86169  1  0  0  0
 87170  1  0  0  0
 87171  1  0  0  0
 87 89  1  0  0  0
 88172  1  0  0  0
 89173  1  0  0  0
M  CHG  1  89   1
M  ISO  4   1 100  68 101  82 101  88 100
M  END
> <chiral flag>
0

> <version>
0

> <s_m_source_file>
/data/baiqing/PycharmProjects/Reinvent-master-3.2/result/LINK_invent/BTK/process_docking_weight1_custom_product_contain_oxygen_bond_distance_aromatic_linkinvent_7_9_3/rearranged_h_0042.sdf

> <i_m_source_file_index>
93

> <r_mmod_Potential_Energy-OPLS-2005>
-166.941452026367

> <r_mmod_Stretch_Energy-OPLS-2005>
52.7307243347168

> <r_mmod_Bend_Energy-OPLS-2005>
120.782417297363

> <r_mmod_Torsional_Energy-OPLS-2005>
234.611099243164

> <r_mmod_Improper_Torsional_Energy-OPLS-2005>
3.51520776748657

> <r_mmod_Van_der_Waal_Energy-OPLS-2005>
174.130676269531

> <r_mmod_Electrostatic_Energy-OPLS-2005>
-357.589141845703

> <r_mmod_Solvation_Energy-OPLS-2005>
-412.521514892578

> <b_mmod_Minimization_Converged-OPLS-2005>
0

> <r_mmod_RMS_Derivative-OPLS-2005>
4.93233156204224

$$$$
93
                    3D
 Structure written by MMmdl.
171180  0  0  1  0            999 V2000
  -30.6872  -14.7559   20.5013 C   0  0  0  0  0  0
  -30.4346  -12.4717   19.4922 C   0  0  0  0  0  0
  -29.5294  -12.5646   18.2447 C   0  0  0  0  0  0
  -28.0444  -12.4062   18.6284 C   0  0  0  0  0  0
  -27.6480  -13.2649   19.8592 C   0  0  2  0  0  0
  -28.6995  -13.2263   20.9941 C   0  0  0  0  0  0
  -25.2468  -13.8237   20.5704 C   0  0  0  0  0  0
  -24.1793  -13.0431   20.9202 C   0  0  0  0  0  0
  -24.6428  -11.6921   20.8652 C   0  0  0  0  0  0
  -23.9096  -10.4269   21.0297 C   0  0  0  0  0  0
  -24.3661   -9.4205   21.9106 C   0  0  0  0  0  0
  -23.6340   -8.2233   22.0691 C   0  0  0  0  0  0
  -22.4304   -8.0251   21.3498 C   0  0  0  0  0  0
  -21.9942   -9.0221   20.4584 C   0  0  0  0  0  0
  -22.7259  -10.2101   20.2964 C   0  0  0  0  0  0
  -21.6847   -6.0718   22.5252 C   0  0  0  0  0  0
  -21.4005   -6.5608   23.8188 C   0  0  0  0  0  0
  -21.3666   -5.6761   24.9149 C   0  0  0  0  0  0
  -21.6059   -4.3030   24.7197 C   0  0  0  0  0  0
  -21.8832   -3.8117   23.4312 C   0  0  0  0  0  0
  -21.9200   -4.6937   22.3379 C   0  0  0  0  0  0
  -22.7783  -13.5120   21.1923 C   0  0  0  0  0  0
  -22.1665   -4.2130   21.0948 F   0  0  0  0  0  0
  -21.5668   -3.4514   25.7710 F   0  0  0  0  0  0
  -30.0166  -13.5451   20.4229 N   0  0  0  0  0  0
  -26.2980  -12.9534   20.3320 N   0  0  0  0  0  0
  -25.9391  -11.6631   20.5687 N   0  0  0  0  0  0
  -22.0434  -12.8075   22.0417 N   0  0  0  0  0  0
  -25.4103  -15.1987   20.4178 N   0  0  0  0  0  0
  -31.8571  -14.8352   20.1350 O   0  0  0  0  0  0
  -21.6643   -6.8879   21.4214 O   0  0  0  0  0  0
  -22.3417  -14.5435   20.6776 O   0  0  0  0  0  0
  -24.6181  -31.8612   23.2034 C   0  0  0  0  0  0
  -25.9049  -32.4777   23.8339 C   0  0  1  0  0  0
  -27.2223  -27.3374   20.1230 C   0  0  0  0  0  0
  -25.5847  -33.8583   24.2249 N   0  0  0  0  0  0
  -23.4091  -30.4838   21.5455 C   0  0  2  0  0  0
  -24.8565  -28.9427   20.1068 C   0  0  0  0  0  0
  -22.7437  -29.4623   22.4945 C   0  0  0  0  0  0
  -18.0270  -28.1383   22.8494 C   0  0  0  0  0  0
  -24.1462  -36.7281   23.2649 C   0  0  0  0  0  0
  -25.9480  -30.7964   21.3727 C   0  0  0  0  0  0
  -26.0204  -29.4274   20.7138 C   0  0  0  0  0  0
  -27.2029  -28.6352   20.7136 C   0  0  0  0  0  0
  -26.0404  -26.9060   19.4734 C   0  0  0  0  0  0
  -24.8684  -27.6880   19.4758 C   0  0  0  0  0  0
  -23.6194  -29.8154   20.1601 C   0  0  0  0  0  0
  -25.4097  -36.3086   24.0328 C   0  0  1  0  0  0
  -20.5873  -28.3671   23.1312 C   0  0  2  0  0  0
  -20.6762  -26.9400   22.5420 C   0  0  0  0  0  0
  -19.5742  -26.6385   21.5218 C   0  0  0  0  0  0
  -18.1921  -26.7926   22.1628 C   0  0  0  0  0  0
  -19.1537  -28.8844   23.2894 C   0  0  0  0  0  0
  -18.9459  -30.1451   23.8891 C   0  0  0  0  0  0
  -17.6462  -30.6589   24.0558 C   0  0  0  0  0  0
  -25.9056  -34.9450   23.5101 C   0  0  0  0  0  0
  -16.5339  -29.9080   23.6342 C   0  0  0  0  0  0
  -16.7262  -28.6502   23.0347 C   0  0  0  0  0  0
  -26.4440  -31.6588   25.0711 C   0  0  0  0  0  0
  -25.3692  -31.3654   26.1441 C   0  0  0  0  0  0
  -27.0319  -30.3032   24.6144 C   0  0  0  0  0  0
  -27.5957  -32.4361   25.7512 C   0  0  0  0  0  0
  -27.5554  -37.1817   24.8462 C   0  0  0  0  0  0
  -21.4154  -29.3005   22.3692 N   0  0  0  0  0  0
  -26.4273  -37.3783   23.9404 N   0  0  0  0  0  0
  -24.6764  -31.0641   22.0962 N   0  0  0  0  0  0
  -23.4185  -28.8202   23.3041 O   0  0  0  0  0  0
  -28.3639  -26.5319   20.2213 O   0  0  0  0  0  0
  -26.5659  -34.8923   22.4700 O   0  0  0  0  0  0
  -23.5358  -32.1399   23.7384 O   0  0  0  0  0  0
  -30.2317  -19.6532   19.9254 C   0  0  0  0  0  0
  -30.3952  -20.3098   21.1769 C   0  0  0  0  0  0
  -30.6420  -19.4224   22.2810 C   0  0  0  0  0  0
  -30.5711  -17.9851   22.1548 C   0  0  0  0  0  0
  -30.3094  -17.3376   20.9055 C   0  0  0  0  0  0
  -30.1918  -18.2246   19.7884 C   0  0  0  0  0  0
  -30.6274  -23.3886   19.2825 C   0  0  0  0  0  0
  -33.6362  -25.2682   20.3554 C   0  0  0  0  0  0
  -31.8156  -24.0364   19.3434 C   0  0  0  0  0  0
  -32.6561  -24.3582   20.4839 C   0  0  0  0  0  0
  -29.6651  -23.6416   18.1417 C   0  0  0  0  0  0
  -28.8874  -24.9496   18.4549 C   0  0  0  0  0  0
  -29.1712  -24.2026   20.9761 C   0  0  0  0  0  0
  -28.3570  -25.0833   19.9173 C   0  0  1  0  0  0
  -31.0234  -20.0011   23.6487 C   0  0  0  0  0  0
  -30.7476  -17.1044   23.3895 C   0  0  0  0  0  0
  -30.3537  -21.8967   21.4020 C   0  0  0  0  0  0
  -29.9662  -15.8889   20.8383 N   0  0  0  0  0  0
  -29.7840  -22.9240   20.4164 N   0  3  2  0  0  0
  -29.9439  -17.5903   18.2003 Cl  0  0  0  0  0  0
  -31.4845  -12.5596   19.2063 H   0  0  0  0  0  0
  -30.3305  -11.4955   19.9655 H   0  0  0  0  0  0
  -29.8201  -11.8182   17.5067 H   0  0  0  0  0  0
  -29.6831  -13.5369   17.7723 H   0  0  0  0  0  0
  -27.8517  -11.3504   18.8212 H   0  0  0  0  0  0
  -27.4125  -12.6868   17.7819 H   0  0  0  0  0  0
  -27.6305  -14.2954   19.5026 H   0  0  0  0  0  0
  -28.7201  -12.2586   21.4918 H   0  0  0  0  0  0
  -28.4304  -13.9605   21.7560 H   0  0  0  0  0  0
  -25.2815   -9.5698   22.4659 H   0  0  0  0  0  0
  -24.0062   -7.4617   22.7408 H   0  0  0  0  0  0
  -21.0866   -8.8719   19.8909 H   0  0  0  0  0  0
  -22.3701  -10.9621   19.6050 H   0  0  0  0  0  0
  -21.1961   -7.6106   23.9692 H   0  0  0  0  0  0
  -21.1495   -6.0466   25.9064 H   0  0  0  0  0  0
  -22.0619   -2.7575   23.2782 H   0  0  0  0  0  0
  -22.4065  -11.9738   22.4835 H   0  0  0  0  0  0
  -21.0979  -13.0937   22.2535 H   0  0  0  0  0  0
  -24.6407  -15.8486   20.5226 H   0  0  0  0  0  0
  -26.2655  -15.6509   20.1214 H   0  0  0  0  0  0
  -26.7094  -32.5455   23.1076 H   0  0  0  0  0  0
  -24.9835  -33.9709   25.0268 H   0  0  0  0  0  0
  -22.7005  -31.3030   21.4062 H   0  0  0  0  0  0
  -23.3736  -35.9603   23.3315 H   0  0  0  0  0  0
  -24.3545  -36.8908   22.2066 H   0  0  0  0  0  0
  -23.7211  -37.6474   23.6682 H   0  0  0  0  0  0
  -26.0855  -31.5618   20.6069 H   0  0  0  0  0  0
  -26.8274  -30.8374   22.0030 H   0  0  0  0  0  0
  -28.0952  -29.0047   21.2003 H   0  0  0  0  0  0
  -25.9860  -25.9583   18.9604 H   0  0  0  0  0  0
  -23.9799  -27.3136   18.9855 H   0  0  0  0  0  0
  -23.7166  -30.5878   19.3970 H   0  0  0  0  0  0
  -22.7417  -29.2329   19.8753 H   0  0  0  0  0  0
  -25.1285  -36.1921   25.0822 H   0  0  0  0  0  0
  -20.9969  -28.3238   24.1436 H   0  0  0  0  0  0
  -20.5682  -26.2266   23.3609 H   0  0  0  0  0  0
  -21.6631  -26.7446   22.1207 H   0  0  0  0  0  0
  -19.6906  -25.6313   21.1216 H   0  0  0  0  0  0
  -19.6684  -27.3219   20.6778 H   0  0  0  0  0  0
  -17.4195  -26.6676   21.4016 H   0  0  0  0  0  0
  -18.0315  -26.0064   22.9029 H   0  0  0  0  0  0
  -19.7940  -30.7272   24.2238 H   0  0  0  0  0  0
  -17.5019  -31.6281   24.5148 H   0  0  0  0  0  0
  -15.5345  -30.2977   23.7688 H   0  0  0  0  0  0
  -15.8654  -28.0831   22.7049 H   0  0  0  0  0  0
  -24.5831  -30.7067   25.7722 H   0  0  0  0  0  0
  -24.8931  -32.2797   26.4995 H   0  0  0  0  0  0
  -25.8034  -30.8700   27.0136 H   0  0  0  0  0  0
  -26.2921  -29.6814   24.1093 H   0  0  0  0  0  0
  -27.3955  -29.7237   25.4636 H   0  0  0  0  0  0
  -27.8793  -30.4342   23.9418 H   0  0  0  0  0  0
  -27.2507  -33.3669   26.2022 H   0  0  0  0  0  0
  -28.3806  -32.6923   25.0388 H   0  0  0  0  0  0
  -28.0567  -31.8542   26.5497 H   0  0  0  0  0  0
  -28.2565  -38.0117   24.7505 H   0  0  0  0  0  0
  -28.1049  -36.2649   24.6286 H   0  0  0  0  0  0
  -27.2271  -37.1460   25.8863 H   0  0  0  0  0  0
  -20.9331  -29.8646   21.6837 H   0  0  0  0  0  0
  -26.0133  -38.2849   24.1412 H   0  0  0  0  0  0
  -30.1206  -20.2416   19.0260 H   0  0  0  0  0  0
  -34.3009  -25.5216   21.1710 H   0  0  0  0  0  0
  -33.7830  -25.7864   19.4171 H   0  0  0  0  0  0
  -32.1437  -24.4743   18.4125 H   0  0  0  0  0  0
  -32.5378  -23.8988   21.4512 H   0  0  0  0  0  0
  -28.9841  -22.7987   18.0201 H   0  0  0  0  0  0
  -30.2216  -23.7363   17.2055 H   0  0  0  0  0  0
  -28.0618  -25.0727   17.7525 H   0  0  0  0  0  0
  -29.5584  -25.7900   18.2755 H   0  0  0  0  0  0
  -28.5305  -23.9756   21.8280 H   0  0  0  0  0  0
  -29.9660  -24.8337   21.3762 H   0  0  0  0  0  0
  -27.3459  -24.6797   19.9514 H   0  0  0  0  0  0
  -32.0243  -19.6569   23.9094 H   0  0  0  0  0  0
  -30.3349  -19.6632   24.4218 H   0  0  0  0  0  0
  -31.0685  -21.0861   23.7107 H   0  0  0  0  0  0
  -29.7801  -16.9326   23.8619 H   0  0  0  0  0  0
  -31.4348  -17.5040   24.1349 H   0  0  0  0  0  0
  -31.1682  -16.1405   23.1136 H   0  0  0  0  0  0
  -31.3356  -22.2190   21.7404 H   0  0  0  0  0  0
  -29.7068  -21.9980   22.2748 H   0  0  0  0  0  0
  -29.0008  -15.6983   21.0583 H   0  0  0  0  0  0
  -29.0082  -22.4247   20.0100 H   0  0  0  0  0  0
  1 25  1  0  0  0
  1 30  2  0  0  0
  1 88  1  0  0  0
  2  3  1  0  0  0
  2 25  1  0  0  0
  2 91  1  0  0  0
  2 92  1  0  0  0
  3  4  1  0  0  0
  3 93  1  0  0  0
  3 94  1  0  0  0
  4  5  1  0  0  0
  4 95  1  0  0  0
  4 96  1  0  0  0
  5  6  1  0  0  0
  5 26  1  0  0  0
  5 97  1  0  0  0
  6 25  1  0  0  0
  6 98  1  0  0  0
  6 99  1  0  0  0
  7  8  2  0  0  0
  7 26  1  0  0  0
  7 29  1  0  0  0
  8  9  1  0  0  0
  8 22  1  0  0  0
  9 10  1  0  0  0
  9 27  2  0  0  0
 10 11  2  0  0  0
 10 15  1  0  0  0
 11 12  1  0  0  0
 11100  1  0  0  0
 12 13  2  0  0  0
 12101  1  0  0  0
 13 14  1  0  0  0
 13 31  1  0  0  0
 14 15  2  0  0  0
 14102  1  0  0  0
 15103  1  0  0  0
 16 17  2  0  0  0
 16 21  1  0  0  0
 16 31  1  0  0  0
 17 18  1  0  0  0
 17104  1  0  0  0
 18 19  2  0  0  0
 18105  1  0  0  0
 19 20  1  0  0  0
 19 24  1  0  0  0
 20 21  2  0  0  0
 20106  1  0  0  0
 21 23  1  0  0  0
 22 28  1  0  0  0
 22 32  2  0  0  0
 26 27  1  0  0  0
 28107  1  0  0  0
 28108  1  0  0  0
 29109  1  0  0  0
 29110  1  0  0  0
 33 34  1  0  0  0
 33 66  1  0  0  0
 33 70  2  0  0  0
 34 36  1  0  0  0
 34 59  1  0  0  0
 34111  1  0  0  0
 35 44  2  0  0  0
 35 45  1  0  0  0
 35 68  1  0  0  0
 36 56  1  0  0  0
 36112  1  0  0  0
 37 39  1  0  0  0
 37 47  1  0  0  0
 37 66  1  0  0  0
 37113  1  0  0  0
 38 43  2  0  0  0
 38 46  1  0  0  0
 38 47  1  0  0  0
 39 64  1  0  0  0
 39 67  2  0  0  0
 40 52  1  0  0  0
 40 53  2  0  0  0
 40 58  1  0  0  0
 41114  1  0  0  0
 41115  1  0  0  0
 41116  1  0  0  0
 41 48  1  0  0  0
 42 43  1  0  0  0
 42 66  1  0  0  0
 42117  1  0  0  0
 42118  1  0  0  0
 43 44  1  0  0  0
 44119  1  0  0  0
 45 46  2  0  0  0
 45120  1  0  0  0
 46121  1  0  0  0
 47122  1  0  0  0
 47123  1  0  0  0
 48 56  1  0  0  0
 48 65  1  0  0  0
 48124  1  0  0  0
 49 50  1  0  0  0
 49 53  1  0  0  0
 49 64  1  0  0  0
 49125  1  0  0  0
 50 51  1  0  0  0
 50126  1  0  0  0
 50127  1  0  0  0
 51 52  1  0  0  0
 51128  1  0  0  0
 51129  1  0  0  0
 52130  1  0  0  0
 52131  1  0  0  0
 53 54  1  0  0  0
 54 55  2  0  0  0
 54132  1  0  0  0
 55 57  1  0  0  0
 55133  1  0  0  0
 56 69  2  0  0  0
 57 58  2  0  0  0
 57134  1  0  0  0
 58135  1  0  0  0
 59 60  1  0  0  0
 59 61  1  0  0  0
 59 62  1  0  0  0
 60136  1  0  0  0
 60137  1  0  0  0
 60138  1  0  0  0
 61139  1  0  0  0
 61140  1  0  0  0
 61141  1  0  0  0
 62142  1  0  0  0
 62143  1  0  0  0
 62144  1  0  0  0
 63 65  1  0  0  0
 63145  1  0  0  0
 63146  1  0  0  0
 63147  1  0  0  0
 64148  1  0  0  0
 65149  1  0  0  0
 68 84  1  0  0  0
 71 72  2  0  0  0
 71 76  1  0  0  0
 71150  1  0  0  0
 72 73  1  0  0  0
 72 87  1  0  0  0
 73 74  2  0  0  0
 73 85  1  0  0  0
 74 75  1  0  0  0
 74 86  1  0  0  0
 75 76  2  0  0  0
 75 88  1  0  0  0
 76 90  1  0  0  0
 77 79  2  0  0  0
 77 81  1  0  0  0
 77 89  1  0  0  0
 78 80  2  0  0  0
 78151  1  0  0  0
 78152  1  0  0  0
 79 80  1  0  0  0
 79153  1  0  0  0
 80154  1  0  0  0
 81 82  1  0  0  0
 81155  1  0  0  0
 81156  1  0  0  0
 82 84  1  0  0  0
 82157  1  0  0  0
 82158  1  0  0  0
 83 84  1  0  0  0
 83 89  1  0  0  0
 83159  1  0  0  0
 83160  1  0  0  0
 84161  1  0  0  0
 85162  1  0  0  0
 85163  1  0  0  0
 85164  1  0  0  0
 86165  1  0  0  0
 86166  1  0  0  0
 86167  1  0  0  0
 87168  1  0  0  0
 87169  1  0  0  0
 87 89  1  0  0  0
 88170  1  0  0  0
 89171  1  0  0  0
M  CHG  1  89   1
M  ISO  4   1 100  68 101  84 101  88 100
M  END
> <chiral flag>
0

> <version>
0

> <s_m_source_file>
/data/baiqing/PycharmProjects/Reinvent-master-3.2/result/LINK_invent/BTK/process_docking_weight1_custom_product_contain_oxygen_bond_distance_aromatic_linkinvent_7_9_3/rearranged_h_0042.sdf

> <i_m_source_file_index>
94

> <r_mmod_Potential_Energy-OPLS-2005>
111.212387084961

> <r_mmod_Stretch_Energy-OPLS-2005>
108.388168334961

> <r_mmod_Bend_Energy-OPLS-2005>
203.935256958008

> <r_mmod_Torsional_Energy-OPLS-2005>
299.923370361328

> <r_mmod_Improper_Torsional_Energy-OPLS-2005>
6.59172058105469

> <r_mmod_Van_der_Waal_Energy-OPLS-2005>
151.56623840332

> <r_mmod_Electrostatic_Energy-OPLS-2005>
-301.668914794922

> <r_mmod_Solvation_Energy-OPLS-2005>
-428.8427734375

> <b_mmod_Minimization_Converged-OPLS-2005>
0

> <r_mmod_RMS_Derivative-OPLS-2005>
6.86994504928589

$$$$
94
                    3D
 Structure written by MMmdl.
161170  0  0  1  0            999 V2000
  -30.5826  -14.6599   20.5231 C   0  0  0  0  0  0
  -30.4415  -12.4116   19.4549 C   0  0  0  0  0  0
  -29.5112  -12.5249   18.2246 C   0  0  0  0  0  0
  -28.0275  -12.3831   18.6213 C   0  0  0  0  0  0
  -27.6538  -13.2223   19.8704 C   0  0  2  0  0  0
  -28.6913  -13.0523   21.0003 C   0  0  0  0  0  0
  -25.2541  -13.8159   20.5607 C   0  0  0  0  0  0
  -24.1828  -13.0439   20.9175 C   0  0  0  0  0  0
  -24.6413  -11.6908   20.8751 C   0  0  0  0  0  0
  -23.9106  -10.4292   21.0423 C   0  0  0  0  0  0
  -24.3662   -9.4202   21.9201 C   0  0  0  0  0  0
  -23.6336   -8.2234   22.0749 C   0  0  0  0  0  0
  -22.4313   -8.0293   21.3542 C   0  0  0  0  0  0
  -21.9963   -9.0267   20.4638 C   0  0  0  0  0  0
  -22.7287  -10.2144   20.3062 C   0  0  0  0  0  0
  -21.6860   -6.0766   22.5287 C   0  0  0  0  0  0
  -21.4000   -6.5663   23.8219 C   0  0  0  0  0  0
  -21.3661   -5.6810   24.9189 C   0  0  0  0  0  0
  -21.6043   -4.3066   24.7226 C   0  0  0  0  0  0
  -21.8821   -3.8173   23.4336 C   0  0  0  0  0  0
  -21.9197   -4.6998   22.3404 C   0  0  0  0  0  0
  -22.7847  -13.5215   21.1872 C   0  0  0  0  0  0
  -22.1678   -4.2187   21.0979 F   0  0  0  0  0  0
  -21.5638   -3.4541   25.7732 F   0  0  0  0  0  0
  -30.0071  -13.4160   20.4504 N   0  0  0  0  0  0
  -26.2989  -12.9362   20.3305 N   0  0  0  0  0  0
  -25.9334  -11.6512   20.5735 N   0  0  0  0  0  0
  -22.0500  -12.8210   22.0425 N   0  0  0  0  0  0
  -25.4210  -15.1871   20.3861 N   0  0  0  0  0  0
  -31.7258  -14.8621   20.0961 O   0  0  0  0  0  0
  -21.6653   -6.8909   21.4248 O   0  0  0  0  0  0
  -22.3541  -14.5542   20.6756 O   0  0  0  0  0  0
  -24.6254  -31.8553   23.1964 C   0  0  0  0  0  0
  -25.9081  -32.4775   23.8307 C   0  0  1  0  0  0
  -27.2518  -27.3490   20.1200 C   0  0  0  0  0  0
  -25.5887  -33.8571   24.2246 N   0  0  0  0  0  0
  -23.4240  -30.4760   21.5358 C   0  0  2  0  0  0
  -24.8779  -28.9236   20.1195 C   0  0  0  0  0  0
  -22.7495  -29.4614   22.4897 C   0  0  0  0  0  0
  -18.0288  -28.1398   22.8523 C   0  0  0  0  0  0
  -24.1479  -36.7253   23.2651 C   0  0  0  0  0  0
  -25.9646  -30.7961   21.3684 C   0  0  0  0  0  0
  -26.0446  -29.4240   20.7170 C   0  0  0  0  0  0
  -27.2354  -28.6474   20.7060 C   0  0  0  0  0  0
  -26.0690  -26.8841   19.5117 C   0  0  0  0  0  0
  -24.8900  -27.6549   19.5132 C   0  0  0  0  0  0
  -23.6442  -29.7955   20.1567 C   0  0  0  0  0  0
  -25.4108  -36.3078   24.0345 C   0  0  1  0  0  0
  -20.5904  -28.3678   23.1276 C   0  0  2  0  0  0
  -20.6790  -26.9393   22.5413 C   0  0  0  0  0  0
  -19.5751  -26.6417   21.5224 C   0  0  0  0  0  0
  -18.1927  -26.7967   22.1621 C   0  0  0  0  0  0
  -19.1566  -28.8847   23.2918 C   0  0  0  0  0  0
  -18.9488  -30.1462   23.8919 C   0  0  0  0  0  0
  -17.6495  -30.6605   24.0587 C   0  0  0  0  0  0
  -25.9027  -34.9461   23.5087 C   0  0  0  0  0  0
  -16.5367  -29.9126   23.6349 C   0  0  0  0  0  0
  -16.7285  -28.6536   23.0378 C   0  0  0  0  0  0
  -26.4443  -31.6606   25.0696 C   0  0  0  0  0  0
  -25.3668  -31.3782   26.1423 C   0  0  0  0  0  0
  -27.0277  -30.3033   24.6148 C   0  0  0  0  0  0
  -27.6003  -32.4326   25.7469 C   0  0  0  0  0  0
  -27.5566  -37.1782   24.8480 C   0  0  0  0  0  0
  -21.4203  -29.3045   22.3674 N   0  0  0  0  0  0
  -26.4278  -37.3780   23.9423 N   0  0  0  0  0  0
  -24.6899  -31.0603   22.0900 N   0  0  0  0  0  0
  -23.4216  -28.8137   23.2962 O   0  0  0  0  0  0
  -28.3820  -26.5307   20.1047 O   0  0  0  0  0  0
  -26.5628  -34.8930   22.4670 O   0  0  0  0  0  0
  -23.5419  -32.1305   23.7327 O   0  0  0  0  0  0
  -28.6742  -19.3319   21.2972 C   0  0  0  0  0  0
  -30.0918  -17.7100   19.5262 C   0  0  0  0  0  0
  -28.9570  -17.9714   21.6262 C   0  0  0  0  0  0
  -29.0988  -19.9506   20.0892 C   0  0  0  0  0  0
  -29.6647  -17.1027   20.7349 C   0  0  0  0  0  0
  -29.8205  -19.0787   19.2111 C   0  0  0  0  0  0
  -28.4215  -23.9328   19.8641 C   0  0  0  0  0  0
  -29.1190  -23.8561   22.6766 C   0  0  0  0  0  0
  -29.3216  -25.1554   21.8921 C   0  0  0  0  0  0
  -29.3010  -22.6114   21.7842 C   0  0  0  0  0  0
  -28.2747  -25.2200   20.7745 C   0  0  1  0  0  0
  -28.4415  -17.4791   22.9702 C   0  0  0  0  0  0
  -28.6206  -21.4037   19.6292 C   0  0  0  0  0  0
  -28.7244  -22.6967   20.4280 N   0  0  0  0  0  0
  -29.7795  -15.6636   21.0136 N   0  0  0  0  0  0
  -28.2065  -24.0551   18.6522 O   0  0  0  0  0  0
  -30.3223  -19.6200   17.6496 Cl  0  0  0  0  0  0
  -31.4779  -12.5655   19.1486 H   0  0  0  0  0  0
  -30.4015  -11.4078   19.8786 H   0  0  0  0  0  0
  -29.7683  -11.7663   17.4842 H   0  0  0  0  0  0
  -29.6664  -13.4901   17.7385 H   0  0  0  0  0  0
  -27.8269  -11.3278   18.8096 H   0  0  0  0  0  0
  -27.3919  -12.6704   17.7823 H   0  0  0  0  0  0
  -27.6779  -14.2666   19.5592 H   0  0  0  0  0  0
  -28.6987  -12.0256   21.3683 H   0  0  0  0  0  0
  -28.4209  -13.6665   21.8600 H   0  0  0  0  0  0
  -25.2791   -9.5688   22.4796 H   0  0  0  0  0  0
  -24.0049   -7.4619   22.7459 H   0  0  0  0  0  0
  -21.0898   -8.8819   19.8922 H   0  0  0  0  0  0
  -22.3766  -10.9724   19.6195 H   0  0  0  0  0  0
  -21.1968   -7.6164   23.9745 H   0  0  0  0  0  0
  -21.1477   -6.0524   25.9097 H   0  0  0  0  0  0
  -22.0586   -2.7632   23.2817 H   0  0  0  0  0  0
  -22.4104  -11.9862   22.4815 H   0  0  0  0  0  0
  -21.1115  -13.1242   22.2622 H   0  0  0  0  0  0
  -24.6247  -15.8152   20.4030 H   0  0  0  0  0  0
  -26.2468  -15.6098   19.9801 H   0  0  0  0  0  0
  -26.7166  -32.5416   23.1077 H   0  0  0  0  0  0
  -25.0092  -33.9708   25.0434 H   0  0  0  0  0  0
  -22.7201  -31.2965   21.3800 H   0  0  0  0  0  0
  -23.3790  -35.9531   23.3315 H   0  0  0  0  0  0
  -24.3595  -36.8849   22.2068 H   0  0  0  0  0  0
  -23.7181  -37.6431   23.6649 H   0  0  0  0  0  0
  -26.1038  -31.5591   20.6010 H   0  0  0  0  0  0
  -26.8442  -30.8404   22.0004 H   0  0  0  0  0  0
  -28.1348  -29.0345   21.1636 H   0  0  0  0  0  0
  -26.0665  -25.9082   19.0438 H   0  0  0  0  0  0
  -23.9937  -27.2618   19.0513 H   0  0  0  0  0  0
  -23.7700  -30.5589   19.3891 H   0  0  0  0  0  0
  -22.7683  -29.2149   19.8530 H   0  0  0  0  0  0
  -25.1316  -36.1909   25.0844 H   0  0  0  0  0  0
  -20.9984  -28.3219   24.1394 H   0  0  0  0  0  0
  -20.5693  -26.2250   23.3600 H   0  0  0  0  0  0
  -21.6648  -26.7438   22.1155 H   0  0  0  0  0  0
  -19.6899  -25.6349   21.1190 H   0  0  0  0  0  0
  -19.6695  -27.3286   20.6801 H   0  0  0  0  0  0
  -17.4204  -26.6754   21.4021 H   0  0  0  0  0  0
  -18.0293  -26.0125   22.8999 H   0  0  0  0  0  0
  -19.7965  -30.7301   24.2267 H   0  0  0  0  0  0
  -17.5050  -31.6283   24.5193 H   0  0  0  0  0  0
  -15.5359  -30.3045   23.7707 H   0  0  0  0  0  0
  -15.8666  -28.0882   22.7073 H   0  0  0  0  0  0
  -24.5885  -30.7071   25.7785 H   0  0  0  0  0  0
  -24.8824  -32.2972   26.4719 H   0  0  0  0  0  0
  -25.7997  -30.9079   27.0264 H   0  0  0  0  0  0
  -26.2847  -29.6825   24.1131 H   0  0  0  0  0  0
  -27.3968  -29.7245   25.4624 H   0  0  0  0  0  0
  -27.8712  -30.4378   23.9381 H   0  0  0  0  0  0
  -27.2642  -33.3708   26.1897 H   0  0  0  0  0  0
  -28.3885  -32.6712   25.0323 H   0  0  0  0  0  0
  -28.0550  -31.8519   26.5508 H   0  0  0  0  0  0
  -28.2578  -38.0082   24.7548 H   0  0  0  0  0  0
  -28.1064  -36.2615   24.6288 H   0  0  0  0  0  0
  -27.2288  -37.1397   25.8883 H   0  0  0  0  0  0
  -20.9362  -29.8735   21.6873 H   0  0  0  0  0  0
  -26.0159  -38.2835   24.1476 H   0  0  0  0  0  0
  -28.0491  -19.8821   21.9842 H   0  0  0  0  0  0
  -30.5861  -17.1043   18.7798 H   0  0  0  0  0  0
  -28.1149  -23.8555   23.1080 H   0  0  0  0  0  0
  -29.8105  -23.8143   23.5197 H   0  0  0  0  0  0
  -30.3258  -25.1848   21.4659 H   0  0  0  0  0  0
  -29.2402  -26.0180   22.5522 H   0  0  0  0  0  0
  -28.8773  -21.7682   22.3193 H   0  0  0  0  0  0
  -30.3689  -22.4193   21.6736 H   0  0  0  0  0  0
  -27.2899  -25.1513   21.2400 H   0  0  0  0  0  0
  -28.6426  -16.4284   23.1703 H   0  0  0  0  0  0
  -27.3641  -17.6342   23.0328 H   0  0  0  0  0  0
  -28.9045  -18.0593   23.7690 H   0  0  0  0  0  0
  -27.5614  -21.2764   19.3941 H   0  0  0  0  0  0
  -29.0731  -21.6200   18.6639 H   0  0  0  0  0  0
  -28.9910  -15.2980   21.5254 H   0  0  0  0  0  0
  1 25  1  0  0  0
  1 30  2  0  0  0
  1 85  1  0  0  0
  2  3  1  0  0  0
  2 25  1  0  0  0
  2 88  1  0  0  0
  2 89  1  0  0  0
  3  4  1  0  0  0
  3 90  1  0  0  0
  3 91  1  0  0  0
  4  5  1  0  0  0
  4 92  1  0  0  0
  4 93  1  0  0  0
  5  6  1  0  0  0
  5 26  1  0  0  0
  5 94  1  0  0  0
  6 25  1  0  0  0
  6 95  1  0  0  0
  6 96  1  0  0  0
  7  8  2  0  0  0
  7 26  1  0  0  0
  7 29  1  0  0  0
  8  9  1  0  0  0
  8 22  1  0  0  0
  9 10  1  0  0  0
  9 27  2  0  0  0
 10 11  2  0  0  0
 10 15  1  0  0  0
 11 12  1  0  0  0
 11 97  1  0  0  0
 12 13  2  0  0  0
 12 98  1  0  0  0
 13 14  1  0  0  0
 13 31  1  0  0  0
 14 15  2  0  0  0
 14 99  1  0  0  0
 15100  1  0  0  0
 16 17  2  0  0  0
 16 21  1  0  0  0
 16 31  1  0  0  0
 17 18  1  0  0  0
 17101  1  0  0  0
 18 19  2  0  0  0
 18102  1  0  0  0
 19 20  1  0  0  0
 19 24  1  0  0  0
 20 21  2  0  0  0
 20103  1  0  0  0
 21 23  1  0  0  0
 22 28  1  0  0  0
 22 32  2  0  0  0
 26 27  1  0  0  0
 28104  1  0  0  0
 28105  1  0  0  0
 29106  1  0  0  0
 29107  1  0  0  0
 33 34  1  0  0  0
 33 66  1  0  0  0
 33 70  2  0  0  0
 34 36  1  0  0  0
 34 59  1  0  0  0
 34108  1  0  0  0
 35 44  2  0  0  0
 35 45  1  0  0  0
 35 68  1  0  0  0
 36 56  1  0  0  0
 36109  1  0  0  0
 37 39  1  0  0  0
 37 47  1  0  0  0
 37 66  1  0  0  0
 37110  1  0  0  0
 38 43  2  0  0  0
 38 46  1  0  0  0
 38 47  1  0  0  0
 39 64  1  0  0  0
 39 67  2  0  0  0
 40 52  1  0  0  0
 40 53  2  0  0  0
 40 58  1  0  0  0
 41111  1  0  0  0
 41112  1  0  0  0
 41113  1  0  0  0
 41 48  1  0  0  0
 42 43  1  0  0  0
 42 66  1  0  0  0
 42114  1  0  0  0
 42115  1  0  0  0
 43 44  1  0  0  0
 44116  1  0  0  0
 45 46  2  0  0  0
 45117  1  0  0  0
 46118  1  0  0  0
 47119  1  0  0  0
 47120  1  0  0  0
 48 56  1  0  0  0
 48 65  1  0  0  0
 48121  1  0  0  0
 49 50  1  0  0  0
 49 53  1  0  0  0
 49 64  1  0  0  0
 49122  1  0  0  0
 50 51  1  0  0  0
 50123  1  0  0  0
 50124  1  0  0  0
 51 52  1  0  0  0
 51125  1  0  0  0
 51126  1  0  0  0
 52127  1  0  0  0
 52128  1  0  0  0
 53 54  1  0  0  0
 54 55  2  0  0  0
 54129  1  0  0  0
 55 57  1  0  0  0
 55130  1  0  0  0
 56 69  2  0  0  0
 57 58  2  0  0  0
 57131  1  0  0  0
 58132  1  0  0  0
 59 60  1  0  0  0
 59 61  1  0  0  0
 59 62  1  0  0  0
 60133  1  0  0  0
 60134  1  0  0  0
 60135  1  0  0  0
 61136  1  0  0  0
 61137  1  0  0  0
 61138  1  0  0  0
 62139  1  0  0  0
 62140  1  0  0  0
 62141  1  0  0  0
 63 65  1  0  0  0
 63142  1  0  0  0
 63143  1  0  0  0
 63144  1  0  0  0
 64145  1  0  0  0
 65146  1  0  0  0
 68 81  1  0  0  0
 71 73  2  0  0  0
 71 74  1  0  0  0
 71147  1  0  0  0
 72 75  2  0  0  0
 72 76  1  0  0  0
 72148  1  0  0  0
 73 75  1  0  0  0
 73 82  1  0  0  0
 74 76  2  0  0  0
 74 83  1  0  0  0
 75 85  1  0  0  0
 76 87  1  0  0  0
 77 81  1  0  0  0
 77 84  1  0  0  0
 77 86  2  0  0  0
 78 79  1  0  0  0
 78 80  1  0  0  0
 78149  1  0  0  0
 78150  1  0  0  0
 79 81  1  0  0  0
 79151  1  0  0  0
 79152  1  0  0  0
 80 84  1  0  0  0
 80153  1  0  0  0
 80154  1  0  0  0
 81155  1  0  0  0
 82156  1  0  0  0
 82157  1  0  0  0
 82158  1  0  0  0
 83 84  1  0  0  0
 83159  1  0  0  0
 83160  1  0  0  0
 85161  1  0  0  0
M  ISO  4   1 100  68 101  81 101  85 100
M  END
> <chiral flag>
0

> <version>
0

> <s_m_source_file>
/data/baiqing/PycharmProjects/Reinvent-master-3.2/result/LINK_invent/BTK/process_docking_weight1_custom_product_contain_oxygen_bond_distance_aromatic_linkinvent_7_9_3/rearranged_h_0042.sdf

> <i_m_source_file_index>
95

> <r_mmod_Potential_Energy-OPLS-2005>
144.641845703125

> <r_mmod_Stretch_Energy-OPLS-2005>
91.9359970092773

> <r_mmod_Bend_Energy-OPLS-2005>
154.780715942383

> <r_mmod_Torsional_Energy-OPLS-2005>
272.225616455078

> <r_mmod_Improper_Torsional_Energy-OPLS-2005>
6.1530499458313

> <r_mmod_Van_der_Waal_Energy-OPLS-2005>
151.483337402344

> <r_mmod_Electrostatic_Energy-OPLS-2005>
-345.661956787109

> <r_mmod_Solvation_Energy-OPLS-2005>
-232.319915771484

> <b_mmod_Minimization_Converged-OPLS-2005>
0

> <r_mmod_RMS_Derivative-OPLS-2005>
4.99071931838989

$$$$
95
                    3D
 Structure written by MMmdl.
172181  0  0  1  0            999 V2000
  -30.7099  -14.5153   20.5301 C   0  0  0  0  0  0
  -30.4244  -12.3347   19.4443 C   0  0  0  0  0  0
  -29.4905  -12.4774   18.2254 C   0  0  0  0  0  0
  -28.0196  -12.3296   18.6486 C   0  0  0  0  0  0
  -27.6589  -13.2118   19.8730 C   0  0  2  0  0  0
  -28.6982  -13.0871   21.0084 C   0  0  0  0  0  0
  -25.2592  -13.8209   20.5683 C   0  0  0  0  0  0
  -24.1825  -13.0457   20.9235 C   0  0  0  0  0  0
  -24.6393  -11.6963   20.8790 C   0  0  0  0  0  0
  -23.9090  -10.4343   21.0469 C   0  0  0  0  0  0
  -24.3660   -9.4231   21.9204 C   0  0  0  0  0  0
  -23.6325   -8.2260   22.0742 C   0  0  0  0  0  0
  -22.4302   -8.0327   21.3547 C   0  0  0  0  0  0
  -21.9973   -9.0306   20.4635 C   0  0  0  0  0  0
  -22.7301  -10.2189   20.3069 C   0  0  0  0  0  0
  -21.6868   -6.0757   22.5268 C   0  0  0  0  0  0
  -21.4038   -6.5663   23.8205 C   0  0  0  0  0  0
  -21.3655   -5.6808   24.9160 C   0  0  0  0  0  0
  -21.6017   -4.3070   24.7212 C   0  0  0  0  0  0
  -21.8823   -3.8169   23.4342 C   0  0  0  0  0  0
  -21.9210   -4.6980   22.3397 C   0  0  0  0  0  0
  -22.7863  -13.5254   21.1852 C   0  0  0  0  0  0
  -22.1668   -4.2182   21.0967 F   0  0  0  0  0  0
  -21.5619   -3.4545   25.7719 F   0  0  0  0  0  0
  -30.0261  -13.3500   20.4282 N   0  0  0  0  0  0
  -26.3027  -12.9359   20.3427 N   0  0  0  0  0  0
  -25.9320  -11.6541   20.5906 N   0  0  0  0  0  0
  -22.0493  -12.8211   22.0395 N   0  0  0  0  0  0
  -25.4249  -15.1908   20.4083 N   0  0  0  0  0  0
  -31.8713  -14.6325   20.1261 O   0  0  0  0  0  0
  -21.6654   -6.8913   21.4242 O   0  0  0  0  0  0
  -22.3532  -14.5525   20.6672 O   0  0  0  0  0  0
  -24.6178  -31.8788   23.2107 C   0  0  0  0  0  0
  -25.9054  -32.4853   23.8391 C   0  0  1  0  0  0
  -27.2058  -27.3820   20.0819 C   0  0  0  0  0  0
  -25.5909  -33.8629   24.2363 N   0  0  0  0  0  0
  -23.4067  -30.4969   21.5674 C   0  0  2  0  0  0
  -24.8382  -28.9691   20.1255 C   0  0  0  0  0  0
  -22.7509  -29.4620   22.5064 C   0  0  0  0  0  0
  -18.0298  -28.1384   22.8701 C   0  0  0  0  0  0
  -24.1478  -36.7304   23.2647 C   0  0  0  0  0  0
  -25.9367  -30.8257   21.3715 C   0  0  0  0  0  0
  -26.0078  -29.4580   20.7147 C   0  0  0  0  0  0
  -27.1890  -28.6742   20.6820 C   0  0  0  0  0  0
  -26.0003  -26.9300   19.5112 C   0  0  0  0  0  0
  -24.8283  -27.6987   19.5365 C   0  0  0  0  0  0
  -23.6052  -29.8451   20.1800 C   0  0  0  0  0  0
  -25.4120  -36.3173   24.0365 C   0  0  1  0  0  0
  -20.5933  -28.3567   23.1364 C   0  0  2  0  0  0
  -20.6798  -26.9370   22.5383 C   0  0  0  0  0  0
  -19.5601  -26.6210   21.5377 C   0  0  0  0  0  0
  -18.1866  -26.7867   22.1937 C   0  0  0  0  0  0
  -19.1601  -28.8763   23.3046 C   0  0  0  0  0  0
  -18.9579  -30.1409   23.9041 C   0  0  0  0  0  0
  -17.6608  -30.6673   24.0607 C   0  0  0  0  0  0
  -25.9011  -34.9488   23.5163 C   0  0  0  0  0  0
  -16.5478  -29.9114   23.6477 C   0  0  0  0  0  0
  -16.7306  -28.6505   23.0573 C   0  0  0  0  0  0
  -26.4429  -31.6660   25.0745 C   0  0  0  0  0  0
  -25.3635  -31.3701   26.1418 C   0  0  0  0  0  0
  -27.0144  -30.3069   24.6194 C   0  0  0  0  0  0
  -27.6093  -32.4238   25.7505 C   0  0  0  0  0  0
  -27.5586  -37.1817   24.8478 C   0  0  0  0  0  0
  -21.4238  -29.3007   22.3837 N   0  0  0  0  0  0
  -26.4314  -37.3856   23.9424 N   0  0  0  0  0  0
  -24.6721  -31.0835   22.1046 N   0  0  0  0  0  0
  -23.4351  -28.8121   23.3005 O   0  0  0  0  0  0
  -28.4005  -26.6637   20.1094 O   0  0  0  0  0  0
  -26.5529  -34.8941   22.4699 O   0  0  0  0  0  0
  -23.5346  -32.1480   23.7518 O   0  0  0  0  0  0
  -29.6322  -19.1131   20.1707 C   0  0  0  0  0  0
  -29.6568  -18.1438   21.1841 C   0  0  0  0  0  0
  -29.0081  -18.4247   22.4109 C   0  0  0  0  0  0
  -28.4706  -19.7427   22.6338 C   0  0  0  0  0  0
  -28.5423  -20.7748   21.6184 C   0  0  0  0  0  0
  -29.1022  -20.3945   20.3624 C   0  0  0  0  0  0
  -27.8593  -24.7300   18.3813 C   0  0  0  0  0  0
  -26.8369  -23.6516   18.8220 C   0  0  0  0  0  0
  -29.0655  -24.2621   20.5957 C   0  0  0  0  0  0
  -28.6896  -25.3509   19.5351 C   0  0  2  0  0  0
  -26.6306  -23.5655   20.3567 C   0  0  2  0  0  0
  -29.0198  -17.3699   23.5332 C   0  0  0  0  0  0
  -27.9269  -20.0631   24.0351 C   0  0  0  0  0  0
  -25.5294  -22.5608   20.7280 C   0  0  0  0  0  0
  -30.5848  -16.9423   20.9493 C   0  0  0  0  0  0
  -28.2054  -22.2570   22.0234 C   0  0  0  0  0  0
  -30.0093  -15.5914   20.9315 N   0  0  0  0  0  0
  -27.9206  -23.4357   21.1086 N   0  3  1  0  0  0
  -29.2949  -21.4311   19.0044 Cl  0  0  0  0  0  0
  -31.4654  -12.4479   19.1222 H   0  0  0  0  0  0
  -30.3569  -11.3418   19.8861 H   0  0  0  0  0  0
  -29.7453  -11.7274   17.4750 H   0  0  0  0  0  0
  -29.6383  -13.4550   17.7653 H   0  0  0  0  0  0
  -27.8619  -11.2825   18.8919 H   0  0  0  0  0  0
  -27.3581  -12.5602   17.8138 H   0  0  0  0  0  0
  -27.6820  -14.2429   19.5229 H   0  0  0  0  0  0
  -28.6758  -12.1102   21.4925 H   0  0  0  0  0  0
  -28.4458  -13.8018   21.7935 H   0  0  0  0  0  0
  -25.2805   -9.5700   22.4787 H   0  0  0  0  0  0
  -24.0043   -7.4648   22.7477 H   0  0  0  0  0  0
  -21.0885   -8.8825   19.8951 H   0  0  0  0  0  0
  -22.3754  -10.9731   19.6182 H   0  0  0  0  0  0
  -21.2040   -7.6175   23.9718 H   0  0  0  0  0  0
  -21.1457   -6.0537   25.9062 H   0  0  0  0  0  0
  -22.0609   -2.7642   23.2813 H   0  0  0  0  0  0
  -22.4160  -11.9905   22.4816 H   0  0  0  0  0  0
  -21.1095  -13.1225   22.2537 H   0  0  0  0  0  0
  -24.6506  -15.8435   20.5055 H   0  0  0  0  0  0
  -26.2722  -15.6420   20.0816 H   0  0  0  0  0  0
  -26.7161  -32.5562   23.1160 H   0  0  0  0  0  0
  -25.0096  -33.9831   25.0532 H   0  0  0  0  0  0
  -22.6940  -31.3126   21.4357 H   0  0  0  0  0  0
  -23.3769  -35.9579   23.3331 H   0  0  0  0  0  0
  -24.3615  -36.8879   22.2055 H   0  0  0  0  0  0
  -23.7123  -37.6480   23.6606 H   0  0  0  0  0  0
  -26.0457  -31.5962   20.6054 H   0  0  0  0  0  0
  -26.8215  -30.8799   21.9917 H   0  0  0  0  0  0
  -28.0906  -29.0433   21.1404 H   0  0  0  0  0  0
  -25.8830  -25.9639   19.0713 H   0  0  0  0  0  0
  -23.9137  -27.2926   19.1271 H   0  0  0  0  0  0
  -23.7053  -30.6242   19.4227 H   0  0  0  0  0  0
  -22.7203  -29.2746   19.8898 H   0  0  0  0  0  0
  -25.1287  -36.2046   25.0851 H   0  0  0  0  0  0
  -21.0136  -28.2955   24.1406 H   0  0  0  0  0  0
  -20.5850  -26.2223   23.3587 H   0  0  0  0  0  0
  -21.6607  -26.7421   22.1012 H   0  0  0  0  0  0
  -19.6725  -25.5973   21.1773 H   0  0  0  0  0  0
  -19.6512  -27.2685   20.6641 H   0  0  0  0  0  0
  -17.3941  -26.6489   21.4548 H   0  0  0  0  0  0
  -18.0373  -26.0268   22.9621 H   0  0  0  0  0  0
  -19.8112  -30.7071   24.2554 H   0  0  0  0  0  0
  -17.5244  -31.6470   24.5055 H   0  0  0  0  0  0
  -15.5458  -30.3059   23.7751 H   0  0  0  0  0  0
  -15.8681  -28.0736   22.7486 H   0  0  0  0  0  0
  -24.5954  -30.6942   25.7680 H   0  0  0  0  0  0
  -24.8648  -32.2749   26.4845 H   0  0  0  0  0  0
  -25.7942  -30.8893   27.0194 H   0  0  0  0  0  0
  -26.2687  -29.6957   24.1109 H   0  0  0  0  0  0
  -27.3634  -29.7301   25.4761 H   0  0  0  0  0  0
  -27.8703  -30.4266   23.9578 H   0  0  0  0  0  0
  -27.2872  -33.3492   26.2224 H   0  0  0  0  0  0
  -28.3819  -32.6858   25.0292 H   0  0  0  0  0  0
  -28.0794  -31.8213   26.5266 H   0  0  0  0  0  0
  -28.2635  -38.0096   24.7552 H   0  0  0  0  0  0
  -28.1054  -36.2614   24.6305 H   0  0  0  0  0  0
  -27.2310  -37.1457   25.8886 H   0  0  0  0  0  0
  -20.9364  -29.8848   21.7207 H   0  0  0  0  0  0
  -26.0230  -38.2937   24.1435 H   0  0  0  0  0  0
  -30.1276  -18.9094   19.2328 H   0  0  0  0  0  0
  -27.4179  -25.4796   17.7207 H   0  0  0  0  0  0
  -28.5663  -24.2214   17.7247 H   0  0  0  0  0  0
  -27.1118  -22.6767   18.4163 H   0  0  0  0  0  0
  -25.8954  -23.8506   18.3137 H   0  0  0  0  0  0
  -29.5211  -24.7492   21.4548 H   0  0  0  0  0  0
  -29.8612  -23.6304   20.2113 H   0  0  0  0  0  0
  -29.6437  -25.5996   19.0540 H   0  0  0  0  0  0
  -26.2323  -24.5209   20.7049 H   0  0  0  0  0  0
  -29.3985  -16.3987   23.2235 H   0  0  0  0  0  0
  -28.0321  -17.1714   23.9422 H   0  0  0  0  0  0
  -29.6485  -17.7048   24.3621 H   0  0  0  0  0  0
  -28.4087  -20.9518   24.4358 H   0  0  0  0  0  0
  -28.1196  -19.3087   24.7952 H   0  0  0  0  0  0
  -26.8480  -20.2159   24.0354 H   0  0  0  0  0  0
  -24.6248  -22.7593   20.1448 H   0  0  0  0  0  0
  -25.2614  -22.6374   21.7824 H   0  0  0  0  0  0
  -25.8358  -21.5413   20.5141 H   0  0  0  0  0  0
  -31.3591  -16.9903   21.7148 H   0  0  0  0  0  0
  -31.0981  -17.0990   19.9989 H   0  0  0  0  0  0
  -27.3551  -22.2474   22.7034 H   0  0  0  0  0  0
  -29.0514  -22.5425   22.6489 H   0  0  0  0  0  0
  -29.0664  -15.4559   21.2544 H   0  0  0  0  0  0
  -27.6778  -24.0584   21.8699 H   0  0  0  0  0  0
  1 25  1  0  0  0
  1 30  2  0  0  0
  1 87  1  0  0  0
  2  3  1  0  0  0
  2 25  1  0  0  0
  2 90  1  0  0  0
  2 91  1  0  0  0
  3  4  1  0  0  0
  3 92  1  0  0  0
  3 93  1  0  0  0
  4  5  1  0  0  0
  4 94  1  0  0  0
  4 95  1  0  0  0
  5  6  1  0  0  0
  5 26  1  0  0  0
  5 96  1  0  0  0
  6 25  1  0  0  0
  6 97  1  0  0  0
  6 98  1  0  0  0
  7  8  2  0  0  0
  7 26  1  0  0  0
  7 29  1  0  0  0
  8  9  1  0  0  0
  8 22  1  0  0  0
  9 10  1  0  0  0
  9 27  2  0  0  0
 10 11  2  0  0  0
 10 15  1  0  0  0
 11 12  1  0  0  0
 11 99  1  0  0  0
 12 13  2  0  0  0
 12100  1  0  0  0
 13 14  1  0  0  0
 13 31  1  0  0  0
 14 15  2  0  0  0
 14101  1  0  0  0
 15102  1  0  0  0
 16 17  2  0  0  0
 16 21  1  0  0  0
 16 31  1  0  0  0
 17 18  1  0  0  0
 17103  1  0  0  0
 18 19  2  0  0  0
 18104  1  0  0  0
 19 20  1  0  0  0
 19 24  1  0  0  0
 20 21  2  0  0  0
 20105  1  0  0  0
 21 23  1  0  0  0
 22 28  1  0  0  0
 22 32  2  0  0  0
 26 27  1  0  0  0
 28106  1  0  0  0
 28107  1  0  0  0
 29108  1  0  0  0
 29109  1  0  0  0
 33 34  1  0  0  0
 33 66  1  0  0  0
 33 70  2  0  0  0
 34 36  1  0  0  0
 34 59  1  0  0  0
 34110  1  0  0  0
 35 44  2  0  0  0
 35 45  1  0  0  0
 35 68  1  0  0  0
 36 56  1  0  0  0
 36111  1  0  0  0
 37 39  1  0  0  0
 37 47  1  0  0  0
 37 66  1  0  0  0
 37112  1  0  0  0
 38 43  2  0  0  0
 38 46  1  0  0  0
 38 47  1  0  0  0
 39 64  1  0  0  0
 39 67  2  0  0  0
 40 52  1  0  0  0
 40 53  2  0  0  0
 40 58  1  0  0  0
 41113  1  0  0  0
 41114  1  0  0  0
 41115  1  0  0  0
 41 48  1  0  0  0
 42 43  1  0  0  0
 42 66  1  0  0  0
 42116  1  0  0  0
 42117  1  0  0  0
 43 44  1  0  0  0
 44118  1  0  0  0
 45 46  2  0  0  0
 45119  1  0  0  0
 46120  1  0  0  0
 47121  1  0  0  0
 47122  1  0  0  0
 48 56  1  0  0  0
 48 65  1  0  0  0
 48123  1  0  0  0
 49 50  1  0  0  0
 49 53  1  0  0  0
 49 64  1  0  0  0
 49124  1  0  0  0
 50 51  1  0  0  0
 50125  1  0  0  0
 50126  1  0  0  0
 51 52  1  0  0  0
 51127  1  0  0  0
 51128  1  0  0  0
 52129  1  0  0  0
 52130  1  0  0  0
 53 54  1  0  0  0
 54 55  2  0  0  0
 54131  1  0  0  0
 55 57  1  0  0  0
 55132  1  0  0  0
 56 69  2  0  0  0
 57 58  2  0  0  0
 57133  1  0  0  0
 58134  1  0  0  0
 59 60  1  0  0  0
 59 61  1  0  0  0
 59 62  1  0  0  0
 60135  1  0  0  0
 60136  1  0  0  0
 60137  1  0  0  0
 61138  1  0  0  0
 61139  1  0  0  0
 61140  1  0  0  0
 62141  1  0  0  0
 62142  1  0  0  0
 62143  1  0  0  0
 63 65  1  0  0  0
 63144  1  0  0  0
 63145  1  0  0  0
 63146  1  0  0  0
 64147  1  0  0  0
 65148  1  0  0  0
 68 80  1  0  0  0
 71 72  2  0  0  0
 71 76  1  0  0  0
 71149  1  0  0  0
 72 73  1  0  0  0
 72 85  1  0  0  0
 73 74  2  0  0  0
 73 82  1  0  0  0
 74 75  1  0  0  0
 74 83  1  0  0  0
 75 76  2  0  0  0
 75 86  1  0  0  0
 76 89  1  0  0  0
 77 78  1  0  0  0
 77 80  1  0  0  0
 77150  1  0  0  0
 77151  1  0  0  0
 78 81  1  0  0  0
 78152  1  0  0  0
 78153  1  0  0  0
 79 80  1  0  0  0
 79 88  1  0  0  0
 79154  1  0  0  0
 79155  1  0  0  0
 80156  1  0  0  0
 81 84  1  0  0  0
 81 88  1  0  0  0
 81157  1  0  0  0
 82158  1  0  0  0
 82159  1  0  0  0
 82160  1  0  0  0
 83161  1  0  0  0
 83162  1  0  0  0
 83163  1  0  0  0
 84164  1  0  0  0
 84165  1  0  0  0
 84166  1  0  0  0
 85 87  1  0  0  0
 85167  1  0  0  0
 85168  1  0  0  0
 86169  1  0  0  0
 86170  1  0  0  0
 86 88  1  0  0  0
 87171  1  0  0  0
 88172  1  0  0  0
M  CHG  1  88   1
M  ISO  4   1 100  68 101  80 101  87 100
M  END
> <chiral flag>
0

> <version>
0

> <s_m_source_file>
/data/baiqing/PycharmProjects/Reinvent-master-3.2/result/LINK_invent/BTK/process_docking_weight1_custom_product_contain_oxygen_bond_distance_aromatic_linkinvent_7_9_3/rearranged_h_0042.sdf

> <i_m_source_file_index>
96

> <r_mmod_Potential_Energy-OPLS-2005>
58.7550735473633

> <r_mmod_Stretch_Energy-OPLS-2005>
62.1404609680176

> <r_mmod_Bend_Energy-OPLS-2005>
250.213043212891

> <r_mmod_Torsional_Energy-OPLS-2005>
280.046142578125

> <r_mmod_Improper_Torsional_Energy-OPLS-2005>
6.54709434509277

> <r_mmod_Van_der_Waal_Energy-OPLS-2005>
177.853790283203

> <r_mmod_Electrostatic_Energy-OPLS-2005>
-346.069366455078

> <r_mmod_Solvation_Energy-OPLS-2005>
-396.681091308594

> <b_mmod_Minimization_Converged-OPLS-2005>
0

> <r_mmod_RMS_Derivative-OPLS-2005>
12.49351978302

$$$$
96
                    3D
 Structure written by MMmdl.
156164  0  0  1  0            999 V2000
  -30.6274  -14.7244   20.4979 C   0  0  0  0  0  0
  -30.4345  -12.4527   19.4715 C   0  0  0  0  0  0
  -29.5058  -12.5048   18.2384 C   0  0  0  0  0  0
  -28.0351  -12.3226   18.6562 C   0  0  0  0  0  0
  -27.6419  -13.2292   19.8516 C   0  0  2  0  0  0
  -28.6838  -13.1633   20.9898 C   0  0  0  0  0  0
  -25.2505  -13.8191   20.5638 C   0  0  0  0  0  0
  -24.1800  -13.0440   20.9208 C   0  0  0  0  0  0
  -24.6398  -11.6924   20.8773 C   0  0  0  0  0  0
  -23.9073  -10.4292   21.0418 C   0  0  0  0  0  0
  -24.3625   -9.4199   21.9186 C   0  0  0  0  0  0
  -23.6297   -8.2236   22.0757 C   0  0  0  0  0  0
  -22.4283   -8.0285   21.3536 C   0  0  0  0  0  0
  -21.9915   -9.0258   20.4638 C   0  0  0  0  0  0
  -22.7255  -10.2132   20.3053 C   0  0  0  0  0  0
  -21.6850   -6.0734   22.5268 C   0  0  0  0  0  0
  -21.4016   -6.5637   23.8207 C   0  0  0  0  0  0
  -21.3649   -5.6789   24.9169 C   0  0  0  0  0  0
  -21.6043   -4.3055   24.7216 C   0  0  0  0  0  0
  -21.8824   -3.8143   23.4340 C   0  0  0  0  0  0
  -21.9199   -4.6959   22.3395 C   0  0  0  0  0  0
  -22.7823  -13.5215   21.1861 C   0  0  0  0  0  0
  -22.1669   -4.2145   21.0974 F   0  0  0  0  0  0
  -21.5617   -3.4541   25.7729 F   0  0  0  0  0  0
  -29.9883  -13.5080   20.4095 N   0  0  0  0  0  0
  -26.2939  -12.9392   20.3278 N   0  0  0  0  0  0
  -25.9330  -11.6539   20.5788 N   0  0  0  0  0  0
  -22.0483  -12.8177   22.0418 N   0  0  0  0  0  0
  -25.4148  -15.1900   20.3887 N   0  0  0  0  0  0
  -31.8161  -14.8121   20.1781 O   0  0  0  0  0  0
  -21.6647   -6.8886   21.4234 O   0  0  0  0  0  0
  -22.3492  -14.5519   20.6730 O   0  0  0  0  0  0
  -24.6294  -31.8569   23.1972 C   0  0  0  0  0  0
  -25.9139  -32.4750   23.8314 C   0  0  1  0  0  0
  -27.2301  -27.2906   20.1420 C   0  0  0  0  0  0
  -25.5952  -33.8541   24.2248 N   0  0  0  0  0  0
  -23.4232  -30.4743   21.5413 C   0  0  2  0  0  0
  -24.8740  -28.9167   20.1164 C   0  0  0  0  0  0
  -22.7496  -29.4587   22.4948 C   0  0  0  0  0  0
  -18.0282  -28.1355   22.8464 C   0  0  0  0  0  0
  -24.1497  -36.7265   23.2633 C   0  0  0  0  0  0
  -25.9634  -30.7834   21.3660 C   0  0  0  0  0  0
  -26.0420  -29.4030   20.7178 C   0  0  0  0  0  0
  -27.2255  -28.6020   20.7178 C   0  0  0  0  0  0
  -26.0433  -26.8594   19.5150 C   0  0  0  0  0  0
  -24.8768  -27.6503   19.5068 C   0  0  0  0  0  0
  -23.6421  -29.8010   20.1593 C   0  0  0  0  0  0
  -25.4119  -36.3066   24.0314 C   0  0  1  0  0  0
  -20.5887  -28.3669   23.1282 C   0  0  2  0  0  0
  -20.6797  -26.9397   22.5400 C   0  0  0  0  0  0
  -19.5782  -26.6377   21.5183 C   0  0  0  0  0  0
  -18.1951  -26.7912   22.1584 C   0  0  0  0  0  0
  -19.1536  -28.8822   23.2873 C   0  0  0  0  0  0
  -18.9477  -30.1427   23.8890 C   0  0  0  0  0  0
  -17.6480  -30.6578   24.0527 C   0  0  0  0  0  0
  -25.9057  -34.9429   23.5079 C   0  0  0  0  0  0
  -16.5365  -29.9061   23.6328 C   0  0  0  0  0  0
  -16.7277  -28.6481   23.0346 C   0  0  0  0  0  0
  -26.4505  -31.6567   25.0687 C   0  0  0  0  0  0
  -25.3725  -31.3712   26.1413 C   0  0  0  0  0  0
  -27.0322  -30.2999   24.6100 C   0  0  0  0  0  0
  -27.6100  -32.4257   25.7448 C   0  0  0  0  0  0
  -27.5582  -37.1785   24.8460 C   0  0  0  0  0  0
  -21.4207  -29.3011   22.3682 N   0  0  0  0  0  0
  -26.4287  -37.3766   23.9416 N   0  0  0  0  0  0
  -24.6910  -31.0556   22.0936 N   0  0  0  0  0  0
  -23.4224  -28.8147   23.3043 O   0  0  0  0  0  0
  -28.3448  -26.4326   20.1458 O   0  0  0  0  0  0
  -26.5633  -34.8904   22.4654 O   0  0  0  0  0  0
  -23.5454  -32.1355   23.7311 O   0  0  0  0  0  0
  -31.4714  -17.6183   21.4042 C   0  0  0  0  0  0
  -31.8794  -18.9555   21.5514 C   0  0  0  0  0  0
  -29.3835  -18.4146   20.4263 C   0  0  0  0  0  0
  -29.7933  -19.8201   20.5607 C   0  0  0  0  0  0
  -30.2283  -17.2910   20.8249 C   0  0  0  0  0  0
  -31.0778  -20.0320   21.1279 C   0  0  0  0  0  0
  -28.0299  -18.0780   19.8182 C   0  0  0  0  0  0
  -28.9989  -21.0942   19.9806 C   0  0  0  0  0  0
  -28.7308  -23.7482   19.9553 C   0  0  0  0  0  0
  -28.2165  -25.0633   20.7387 C   0  0  0  0  0  0
  -29.8533  -15.8569   20.7187 N   0  0  0  0  0  0
  -28.8907  -22.4273   20.7406 N   0  3  0  0  0  0
  -31.7444  -21.6175   21.3029 Cl  0  0  0  0  0  0
  -31.4717  -12.5853   19.1600 H   0  0  0  0  0  0
  -30.3884  -11.4749   19.9539 H   0  0  0  0  0  0
  -29.7872  -11.7323   17.5222 H   0  0  0  0  0  0
  -29.6265  -13.4594   17.7243 H   0  0  0  0  0  0
  -27.8994  -11.2760   18.9305 H   0  0  0  0  0  0
  -27.3722  -12.5036   17.8094 H   0  0  0  0  0  0
  -27.6380  -14.2495   19.4678 H   0  0  0  0  0  0
  -28.7151  -12.1681   21.4369 H   0  0  0  0  0  0
  -28.4162  -13.8504   21.7953 H   0  0  0  0  0  0
  -25.2771   -9.5663   22.4765 H   0  0  0  0  0  0
  -23.9997   -7.4619   22.7476 H   0  0  0  0  0  0
  -21.0848   -8.8775   19.8939 H   0  0  0  0  0  0
  -22.3719  -10.9669   19.6160 H   0  0  0  0  0  0
  -21.2021   -7.6151   23.9700 H   0  0  0  0  0  0
  -21.1458   -6.0526   25.9067 H   0  0  0  0  0  0
  -22.0617   -2.7606   23.2841 H   0  0  0  0  0  0
  -22.4114  -11.9826   22.4747 H   0  0  0  0  0  0
  -21.1097  -13.1157   22.2646 H   0  0  0  0  0  0
  -24.6210  -15.8221   20.4288 H   0  0  0  0  0  0
  -26.2237  -15.6004   19.9410 H   0  0  0  0  0  0
  -26.7214  -32.5398   23.1066 H   0  0  0  0  0  0
  -25.0125  -33.9665   25.0421 H   0  0  0  0  0  0
  -22.7167  -31.2942   21.3951 H   0  0  0  0  0  0
  -23.3769  -35.9588   23.3257 H   0  0  0  0  0  0
  -24.3619  -36.8929   22.2066 H   0  0  0  0  0  0
  -23.7224  -37.6433   23.6688 H   0  0  0  0  0  0
  -26.0863  -31.5450   20.5943 H   0  0  0  0  0  0
  -26.8443  -30.8400   21.9916 H   0  0  0  0  0  0
  -28.1240  -28.9738   21.1906 H   0  0  0  0  0  0
  -26.0141  -25.8913   19.0320 H   0  0  0  0  0  0
  -23.9807  -27.2685   19.0350 H   0  0  0  0  0  0
  -23.7606  -30.5724   19.3981 H   0  0  0  0  0  0
  -22.7626  -29.2272   19.8600 H   0  0  0  0  0  0
  -25.1301  -36.1902   25.0806 H   0  0  0  0  0  0
  -20.9936  -28.3245   24.1416 H   0  0  0  0  0  0
  -20.5700  -26.2263   23.3595 H   0  0  0  0  0  0
  -21.6677  -26.7453   22.1198 H   0  0  0  0  0  0
  -19.6961  -25.6292   21.1210 H   0  0  0  0  0  0
  -19.6745  -27.3188   20.6728 H   0  0  0  0  0  0
  -17.4238  -26.6644   21.3976 H   0  0  0  0  0  0
  -18.0350  -26.0033   22.8952 H   0  0  0  0  0  0
  -19.7961  -30.7208   24.2280 H   0  0  0  0  0  0
  -17.5047  -31.6257   24.5133 H   0  0  0  0  0  0
  -15.5368  -30.2957   23.7663 H   0  0  0  0  0  0
  -15.8675  -28.0791   22.7076 H   0  0  0  0  0  0
  -24.5932  -30.7021   25.7754 H   0  0  0  0  0  0
  -24.8862  -32.2860   26.4800 H   0  0  0  0  0  0
  -25.8029  -30.8937   27.0217 H   0  0  0  0  0  0
  -26.2859  -29.6749   24.1176 H   0  0  0  0  0  0
  -27.4109  -29.7271   25.4573 H   0  0  0  0  0  0
  -27.8695  -30.4311   23.9238 H   0  0  0  0  0  0
  -27.2826  -33.3676   26.1855 H   0  0  0  0  0  0
  -28.3998  -32.6571   25.0289 H   0  0  0  0  0  0
  -28.0614  -31.8414   26.5480 H   0  0  0  0  0  0
  -28.2561  -38.0123   24.7555 H   0  0  0  0  0  0
  -28.1104  -36.2645   24.6218 H   0  0  0  0  0  0
  -27.2295  -37.1352   25.8859 H   0  0  0  0  0  0
  -20.9412  -29.8706   21.6851 H   0  0  0  0  0  0
  -26.0152  -38.2813   24.1466 H   0  0  0  0  0  0
  -32.1391  -16.8429   21.7535 H   0  0  0  0  0  0
  -32.8467  -19.1654   21.9877 H   0  0  0  0  0  0
  -27.2672  -18.0501   20.5968 H   0  0  0  0  0  0
  -28.0385  -17.1061   19.3249 H   0  0  0  0  0  0
  -27.7284  -18.7910   19.0553 H   0  0  0  0  0  0
  -27.9733  -20.8138   19.7502 H   0  0  0  0  0  0
  -29.4612  -21.3107   19.0167 H   0  0  0  0  0  0
  -29.7037  -23.9780   19.5221 H   0  0  0  0  0  0
  -28.0672  -23.5767   19.1087 H   0  0  0  0  0  0
  -28.7815  -25.1211   21.6698 H   0  0  0  0  0  0
  -27.1881  -24.8958   21.0604 H   0  0  0  0  0  0
  -28.8681  -15.6611   20.7983 H   0  0  0  0  0  0
  -29.7271  -22.5065   21.3023 H   0  0  0  0  0  0
  -28.1174  -22.3328   21.3809 H   0  0  0  0  0  0
  1 25  1  0  0  0
  1 30  2  0  0  0
  1 81  1  0  0  0
  2  3  1  0  0  0
  2 25  1  0  0  0
  2 84  1  0  0  0
  2 85  1  0  0  0
  3  4  1  0  0  0
  3 86  1  0  0  0
  3 87  1  0  0  0
  4  5  1  0  0  0
  4 88  1  0  0  0
  4 89  1  0  0  0
  5  6  1  0  0  0
  5 26  1  0  0  0
  5 90  1  0  0  0
  6 25  1  0  0  0
  6 91  1  0  0  0
  6 92  1  0  0  0
  7  8  2  0  0  0
  7 26  1  0  0  0
  7 29  1  0  0  0
  8  9  1  0  0  0
  8 22  1  0  0  0
  9 10  1  0  0  0
  9 27  2  0  0  0
 10 11  2  0  0  0
 10 15  1  0  0  0
 11 12  1  0  0  0
 11 93  1  0  0  0
 12 13  2  0  0  0
 12 94  1  0  0  0
 13 14  1  0  0  0
 13 31  1  0  0  0
 14 15  2  0  0  0
 14 95  1  0  0  0
 15 96  1  0  0  0
 16 17  2  0  0  0
 16 21  1  0  0  0
 16 31  1  0  0  0
 17 18  1  0  0  0
 17 97  1  0  0  0
 18 19  2  0  0  0
 18 98  1  0  0  0
 19 20  1  0  0  0
 19 24  1  0  0  0
 20 21  2  0  0  0
 20 99  1  0  0  0
 21 23  1  0  0  0
 22 28  1  0  0  0
 22 32  2  0  0  0
 26 27  1  0  0  0
 28100  1  0  0  0
 28101  1  0  0  0
 29102  1  0  0  0
 29103  1  0  0  0
 33 34  1  0  0  0
 33 66  1  0  0  0
 33 70  2  0  0  0
 34 36  1  0  0  0
 34 59  1  0  0  0
 34104  1  0  0  0
 35 44  2  0  0  0
 35 45  1  0  0  0
 35 68  1  0  0  0
 36 56  1  0  0  0
 36105  1  0  0  0
 37 39  1  0  0  0
 37 47  1  0  0  0
 37 66  1  0  0  0
 37106  1  0  0  0
 38 43  2  0  0  0
 38 46  1  0  0  0
 38 47  1  0  0  0
 39 64  1  0  0  0
 39 67  2  0  0  0
 40 52  1  0  0  0
 40 53  2  0  0  0
 40 58  1  0  0  0
 41107  1  0  0  0
 41108  1  0  0  0
 41109  1  0  0  0
 41 48  1  0  0  0
 42 43  1  0  0  0
 42 66  1  0  0  0
 42110  1  0  0  0
 42111  1  0  0  0
 43 44  1  0  0  0
 44112  1  0  0  0
 45 46  2  0  0  0
 45113  1  0  0  0
 46114  1  0  0  0
 47115  1  0  0  0
 47116  1  0  0  0
 48 56  1  0  0  0
 48 65  1  0  0  0
 48117  1  0  0  0
 49 50  1  0  0  0
 49 53  1  0  0  0
 49 64  1  0  0  0
 49118  1  0  0  0
 50 51  1  0  0  0
 50119  1  0  0  0
 50120  1  0  0  0
 51 52  1  0  0  0
 51121  1  0  0  0
 51122  1  0  0  0
 52123  1  0  0  0
 52124  1  0  0  0
 53 54  1  0  0  0
 54 55  2  0  0  0
 54125  1  0  0  0
 55 57  1  0  0  0
 55126  1  0  0  0
 56 69  2  0  0  0
 57 58  2  0  0  0
 57127  1  0  0  0
 58128  1  0  0  0
 59 60  1  0  0  0
 59 61  1  0  0  0
 59 62  1  0  0  0
 60129  1  0  0  0
 60130  1  0  0  0
 60131  1  0  0  0
 61132  1  0  0  0
 61133  1  0  0  0
 61134  1  0  0  0
 62135  1  0  0  0
 62136  1  0  0  0
 62137  1  0  0  0
 63 65  1  0  0  0
 63138  1  0  0  0
 63139  1  0  0  0
 63140  1  0  0  0
 64141  1  0  0  0
 65142  1  0  0  0
 68 80  1  0  0  0
 71 72  2  0  0  0
 71 75  1  0  0  0
 71143  1  0  0  0
 72 76  1  0  0  0
 72144  1  0  0  0
 73 74  1  0  0  0
 73 75  2  0  0  0
 73 77  1  0  0  0
 74 76  2  0  0  0
 74 78  1  0  0  0
 75 81  1  0  0  0
 76 83  1  0  0  0
 77145  1  0  0  0
 77146  1  0  0  0
 77147  1  0  0  0
 78 82  1  0  0  0
 78148  1  0  0  0
 78149  1  0  0  0
 79 80  1  0  0  0
 79 82  1  0  0  0
 79150  1  0  0  0
 79151  1  0  0  0
 80152  1  0  0  0
 80153  1  0  0  0
 81154  1  0  0  0
 82155  1  0  0  0
 82156  1  0  0  0
M  CHG  1  82   1
M  ISO  4   1 100  68 101  80 101  81 100
M  END
> <chiral flag>
0

> <version>
0

> <s_m_source_file>
/data/baiqing/PycharmProjects/Reinvent-master-3.2/result/LINK_invent/BTK/process_docking_weight1_custom_product_contain_oxygen_bond_distance_aromatic_linkinvent_7_9_3/rearranged_h_0042.sdf

> <i_m_source_file_index>
97

> <r_mmod_Potential_Energy-OPLS-2005>
-40.938289642334

> <r_mmod_Stretch_Energy-OPLS-2005>
121.628639221191

> <r_mmod_Bend_Energy-OPLS-2005>
154.050643920898

> <r_mmod_Torsional_Energy-OPLS-2005>
238.62141418457

> <r_mmod_Improper_Torsional_Energy-OPLS-2005>
6.60172033309937

> <r_mmod_Van_der_Waal_Energy-OPLS-2005>
140.758010864258

> <r_mmod_Electrostatic_Energy-OPLS-2005>
-319.163818359375

> <r_mmod_Solvation_Energy-OPLS-2005>
-454.901824951172

> <b_mmod_Minimization_Converged-OPLS-2005>
0

> <r_mmod_RMS_Derivative-OPLS-2005>
3.06791853904724

$$$$
