0
                    3D
 Structure written by MMmdl.
169178  0  0  1  0            999 V2000
  -30.7197  -14.4779   20.5385 C   0  0  0  0  0  0
  -30.4140  -12.3060   19.4112 C   0  0  0  0  0  0
  -29.4889  -12.5076   18.1934 C   0  0  0  0  0  0
  -28.0081  -12.3837   18.6051 C   0  0  0  0  0  0
  -27.6577  -13.2125   19.8700 C   0  0  2  0  0  0
  -28.7066  -13.0174   20.9874 C   0  0  0  0  0  0
  -25.2575  -13.8149   20.5702 C   0  0  0  0  0  0
  -24.1832  -13.0423   20.9165 C   0  0  0  0  0  0
  -24.6386  -11.6886   20.8716 C   0  0  0  0  0  0
  -23.9045  -10.4283   21.0391 C   0  0  0  0  0  0
  -24.3597   -9.4208   21.9175 C   0  0  0  0  0  0
  -23.6284   -8.2244   22.0755 C   0  0  0  0  0  0
  -22.4265   -8.0277   21.3557 C   0  0  0  0  0  0
  -21.9898   -9.0241   20.4658 C   0  0  0  0  0  0
  -22.7209  -10.2123   20.3061 C   0  0  0  0  0  0
  -21.6848   -6.0726   22.5276 C   0  0  0  0  0  0
  -21.4004   -6.5634   23.8208 C   0  0  0  0  0  0
  -21.3664   -5.6795   24.9172 C   0  0  0  0  0  0
  -21.6047   -4.3061   24.7228 C   0  0  0  0  0  0
  -21.8825   -3.8143   23.4355 C   0  0  0  0  0  0
  -21.9196   -4.6955   22.3406 C   0  0  0  0  0  0
  -22.7855  -13.5221   21.1829 C   0  0  0  0  0  0
  -22.1671   -4.2140   21.0989 F   0  0  0  0  0  0
  -21.5638   -3.4552   25.7749 F   0  0  0  0  0  0
  -30.0332  -13.3060   20.4197 N   0  0  0  0  0  0
  -26.3020  -12.9338   20.3375 N   0  0  0  0  0  0
  -25.9316  -11.6494   20.5740 N   0  0  0  0  0  0
  -22.0509  -12.8223   22.0392 N   0  0  0  0  0  0
  -25.4293  -15.1872   20.4127 N   0  0  0  0  0  0
  -31.8780  -14.6176   20.1375 O   0  0  0  0  0  0
  -21.6636   -6.8868   21.4239 O   0  0  0  0  0  0
  -22.3545  -14.5539   20.6688 O   0  0  0  0  0  0
  -24.6155  -31.8710   23.2141 C   0  0  0  0  0  0
  -25.9047  -32.4847   23.8420 C   0  0  1  0  0  0
  -27.2211  -27.4472   20.0851 C   0  0  0  0  0  0
  -25.5906  -33.8642   24.2359 N   0  0  0  0  0  0
  -23.4020  -30.4984   21.5562 C   0  0  2  0  0  0
  -24.8460  -28.9702   20.1213 C   0  0  0  0  0  0
  -22.7414  -29.4679   22.5002 C   0  0  0  0  0  0
  -18.0273  -28.1389   22.8492 C   0  0  0  0  0  0
  -24.1491  -36.7329   23.2635 C   0  0  0  0  0  0
  -25.9316  -30.8405   21.3654 C   0  0  0  0  0  0
  -26.0102  -29.4725   20.7206 C   0  0  0  0  0  0
  -27.2083  -28.7166   20.7112 C   0  0  0  0  0  0
  -26.0419  -26.9600   19.4906 C   0  0  0  0  0  0
  -24.8534  -27.7077   19.5089 C   0  0  0  0  0  0
  -23.6112  -29.8407   20.1683 C   0  0  0  0  0  0
  -25.4107  -36.3129   24.0345 C   0  0  1  0  0  0
  -20.5866  -28.3667   23.1325 C   0  0  2  0  0  0
  -20.6765  -26.9404   22.5426 C   0  0  0  0  0  0
  -19.5749  -26.6399   21.5216 C   0  0  0  0  0  0
  -18.1918  -26.7948   22.1607 C   0  0  0  0  0  0
  -19.1523  -28.8843   23.2910 C   0  0  0  0  0  0
  -18.9452  -30.1450   23.8924 C   0  0  0  0  0  0
  -17.6456  -30.6590   24.0581 C   0  0  0  0  0  0
  -25.9039  -34.9491   23.5148 C   0  0  0  0  0  0
  -16.5350  -29.9100   23.6330 C   0  0  0  0  0  0
  -16.7266  -28.6520   23.0343 C   0  0  0  0  0  0
  -26.4493  -31.6599   25.0716 C   0  0  0  0  0  0
  -25.3775  -31.3692   26.1470 C   0  0  0  0  0  0
  -27.0305  -30.3050   24.6037 C   0  0  0  0  0  0
  -27.6097  -32.4291   25.7451 C   0  0  0  0  0  0
  -27.5595  -37.1808   24.8465 C   0  0  0  0  0  0
  -21.4143  -29.3044   22.3739 N   0  0  0  0  0  0
  -26.4299  -37.3809   23.9424 N   0  0  0  0  0  0
  -24.6683  -31.0827   22.1044 N   0  0  0  0  0  0
  -23.4192  -28.8202   23.3024 O   0  0  0  0  0  0
  -28.2999  -26.6071   19.9645 O   0  0  0  0  0  0
  -26.5596  -34.8937   22.4704 O   0  0  0  0  0  0
  -23.5351  -32.1443   23.7545 O   0  0  0  0  0  0
  -29.1840  -18.6296   22.0186 C   0  0  0  0  0  0
  -29.2498  -20.0376   22.1116 C   0  0  0  0  0  0
  -30.3569  -17.8427   22.0692 C   0  0  0  0  0  0
  -30.4905  -20.6917   22.2868 C   0  0  0  0  0  0
  -31.6043  -18.5027   22.1726 C   0  0  0  0  0  0
  -31.6704  -19.9108   22.2920 C   0  0  0  0  0  0
  -32.3494  -24.2241   19.8945 C   0  0  0  0  0  0
  -31.7141  -25.5994   20.1588 C   0  0  0  0  0  0
  -32.1592  -23.2628   21.0867 C   0  0  0  0  0  0
  -30.1036  -24.4614   21.7401 C   0  0  0  0  0  0
  -30.2368  -25.4202   20.5307 C   0  0  1  0  0  0
  -29.5083  -16.3800   19.7260 C   0  0  0  0  0  0
  -30.2697  -16.3038   22.1105 C   0  0  0  0  0  0
  -30.5227  -22.1888   22.6230 C   0  0  0  0  0  0
  -29.4877  -26.7704   20.7126 C   0  0  0  0  0  0
  -29.9807  -15.5689   20.8568 N   0  0  0  0  0  0
  -30.7280  -23.1271   21.4804 N   0  3  2  0  0  0
  -32.7506  -17.7816   22.2074 F   0  0  0  0  0  0
  -32.8751  -20.5051   22.4624 F   0  0  0  0  0  0
  -31.4602  -12.3890   19.1103 H   0  0  0  0  0  0
  -30.3002  -11.2988   19.8167 H   0  0  0  0  0  0
  -29.7166  -11.7779   17.4136 H   0  0  0  0  0  0
  -29.6674  -13.4867   17.7462 H   0  0  0  0  0  0
  -27.7969  -11.3278   18.7741 H   0  0  0  0  0  0
  -27.3671  -12.6899   17.7756 H   0  0  0  0  0  0
  -27.6861  -14.2592   19.5710 H   0  0  0  0  0  0
  -28.6786  -11.9939   21.3639 H   0  0  0  0  0  0
  -28.4794  -13.6566   21.8426 H   0  0  0  0  0  0
  -25.2751   -9.5676   22.4738 H   0  0  0  0  0  0
  -24.0000   -7.4628   22.7462 H   0  0  0  0  0  0
  -21.0843   -8.8738   19.8955 H   0  0  0  0  0  0
  -22.3661  -10.9653   19.6174 H   0  0  0  0  0  0
  -21.1976   -7.6136   23.9697 H   0  0  0  0  0  0
  -21.1491   -6.0532   25.9070 H   0  0  0  0  0  0
  -22.0597   -2.7604   23.2857 H   0  0  0  0  0  0
  -22.4163  -11.9914   22.4806 H   0  0  0  0  0  0
  -21.1130  -13.1254   22.2605 H   0  0  0  0  0  0
  -24.6625  -15.8431   20.5120 H   0  0  0  0  0  0
  -26.2935  -15.6266   20.1236 H   0  0  0  0  0  0
  -26.7121  -32.5579   23.1191 H   0  0  0  0  0  0
  -25.0064  -33.9808   25.0510 H   0  0  0  0  0  0
  -22.6908  -31.3153   21.4221 H   0  0  0  0  0  0
  -23.3766  -35.9647   23.3274 H   0  0  0  0  0  0
  -24.3603  -36.8966   22.2057 H   0  0  0  0  0  0
  -23.7220  -37.6517   23.6661 H   0  0  0  0  0  0
  -26.0338  -31.6010   20.5898 H   0  0  0  0  0  0
  -26.8246  -30.9033   21.9746 H   0  0  0  0  0  0
  -28.1052  -29.1118   21.1663 H   0  0  0  0  0  0
  -26.0436  -25.9916   19.0088 H   0  0  0  0  0  0
  -23.9581  -27.3139   19.0460 H   0  0  0  0  0  0
  -23.7277  -30.6220   19.4162 H   0  0  0  0  0  0
  -22.7327  -29.2692   19.8639 H   0  0  0  0  0  0
  -25.1277  -36.2005   25.0839 H   0  0  0  0  0  0
  -20.9951  -28.3228   24.1447 H   0  0  0  0  0  0
  -20.5658  -26.2281   23.3609 H   0  0  0  0  0  0
  -21.6639  -26.7444   22.1226 H   0  0  0  0  0  0
  -19.6910  -25.6310   21.1247 H   0  0  0  0  0  0
  -19.6712  -27.3216   20.6751 H   0  0  0  0  0  0
  -17.4203  -26.6719   21.3992 H   0  0  0  0  0  0
  -18.0294  -26.0077   22.8981 H   0  0  0  0  0  0
  -19.7928  -30.7258   24.2312 H   0  0  0  0  0  0
  -17.5013  -31.6268   24.5179 H   0  0  0  0  0  0
  -15.5353  -30.3014   23.7637 H   0  0  0  0  0  0
  -15.8663  -28.0855   22.7038 H   0  0  0  0  0  0
  -24.5953  -30.7031   25.7810 H   0  0  0  0  0  0
  -24.8959  -32.2843   26.4922 H   0  0  0  0  0  0
  -25.8136  -30.8859   27.0219 H   0  0  0  0  0  0
  -26.2803  -29.6789   24.1188 H   0  0  0  0  0  0
  -27.4214  -29.7299   25.4442 H   0  0  0  0  0  0
  -27.8586  -30.4393   23.9071 H   0  0  0  0  0  0
  -27.2758  -33.3593   26.2051 H   0  0  0  0  0  0
  -28.3877  -32.6831   25.0241 H   0  0  0  0  0  0
  -28.0788  -31.8387   26.5328 H   0  0  0  0  0  0
  -28.2612  -38.0107   24.7530 H   0  0  0  0  0  0
  -28.1089  -36.2644   24.6259 H   0  0  0  0  0  0
  -27.2325  -37.1427   25.8869 H   0  0  0  0  0  0
  -20.9292  -29.8791   21.6988 H   0  0  0  0  0  0
  -26.0198  -38.2889   24.1439 H   0  0  0  0  0  0
  -28.2162  -18.1531   21.9481 H   0  0  0  0  0  0
  -28.3300  -20.6083   22.1139 H   0  0  0  0  0  0
  -33.4130  -24.3442   19.6801 H   0  0  0  0  0  0
  -31.9138  -23.7793   18.9980 H   0  0  0  0  0  0
  -31.7981  -26.2205   19.2655 H   0  0  0  0  0  0
  -32.2468  -26.1228   20.9552 H   0  0  0  0  0  0
  -32.7382  -23.6155   21.9409 H   0  0  0  0  0  0
  -32.5669  -22.2898   20.8163 H   0  0  0  0  0  0
  -29.0457  -24.3319   21.9730 H   0  0  0  0  0  0
  -30.5606  -24.9150   22.6206 H   0  0  0  0  0  0
  -29.7800  -24.9137   19.6773 H   0  0  0  0  0  0
  -28.5326  -16.8141   19.9439 H   0  0  0  0  0  0
  -29.3965  -15.7907   18.8142 H   0  0  0  0  0  0
  -30.2090  -17.1847   19.4950 H   0  0  0  0  0  0
  -29.4866  -16.0410   22.8228 H   0  0  0  0  0  0
  -31.1902  -15.9250   22.5614 H   0  0  0  0  0  0
  -31.2678  -22.3739   23.3973 H   0  0  0  0  0  0
  -29.5671  -22.4137   23.0992 H   0  0  0  0  0  0
  -30.0498  -27.6034   20.2891 H   0  0  0  0  0  0
  -29.2874  -26.9865   21.7631 H   0  0  0  0  0  0
  -30.2331  -22.7292   20.6972 H   0  0  0  0  0  0
  1 25  1  0  0  0
  1 30  2  0  0  0
  1 86  1  0  0  0
  2  3  1  0  0  0
  2 25  1  0  0  0
  2 90  1  0  0  0
  2 91  1  0  0  0
  3  4  1  0  0  0
  3 92  1  0  0  0
  3 93  1  0  0  0
  4  5  1  0  0  0
  4 94  1  0  0  0
  4 95  1  0  0  0
  5  6  1  0  0  0
  5 26  1  0  0  0
  5 96  1  0  0  0
  6 25  1  0  0  0
  6 97  1  0  0  0
  6 98  1  0  0  0
  7  8  2  0  0  0
  7 26  1  0  0  0
  7 29  1  0  0  0
  8  9  1  0  0  0
  8 22  1  0  0  0
  9 10  1  0  0  0
  9 27  2  0  0  0
 10 11  2  0  0  0
 10 15  1  0  0  0
 11 12  1  0  0  0
 11 99  1  0  0  0
 12 13  2  0  0  0
 12100  1  0  0  0
 13 14  1  0  0  0
 13 31  1  0  0  0
 14 15  2  0  0  0
 14101  1  0  0  0
 15102  1  0  0  0
 16 17  2  0  0  0
 16 21  1  0  0  0
 16 31  1  0  0  0
 17 18  1  0  0  0
 17103  1  0  0  0
 18 19  2  0  0  0
 18104  1  0  0  0
 19 20  1  0  0  0
 19 24  1  0  0  0
 20 21  2  0  0  0
 20105  1  0  0  0
 21 23  1  0  0  0
 22 28  1  0  0  0
 22 32  2  0  0  0
 26 27  1  0  0  0
 28106  1  0  0  0
 28107  1  0  0  0
 29108  1  0  0  0
 29109  1  0  0  0
 33 34  1  0  0  0
 33 66  1  0  0  0
 33 70  2  0  0  0
 34 36  1  0  0  0
 34 59  1  0  0  0
 34110  1  0  0  0
 35 44  2  0  0  0
 35 45  1  0  0  0
 35 68  1  0  0  0
 36 56  1  0  0  0
 36111  1  0  0  0
 37 39  1  0  0  0
 37 47  1  0  0  0
 37 66  1  0  0  0
 37112  1  0  0  0
 38 43  2  0  0  0
 38 46  1  0  0  0
 38 47  1  0  0  0
 39 64  1  0  0  0
 39 67  2  0  0  0
 40 52  1  0  0  0
 40 53  2  0  0  0
 40 58  1  0  0  0
 41113  1  0  0  0
 41114  1  0  0  0
 41115  1  0  0  0
 41 48  1  0  0  0
 42 43  1  0  0  0
 42 66  1  0  0  0
 42116  1  0  0  0
 42117  1  0  0  0
 43 44  1  0  0  0
 44118  1  0  0  0
 45 46  2  0  0  0
 45119  1  0  0  0
 46120  1  0  0  0
 47121  1  0  0  0
 47122  1  0  0  0
 48 56  1  0  0  0
 48 65  1  0  0  0
 48123  1  0  0  0
 49 50  1  0  0  0
 49 53  1  0  0  0
 49 64  1  0  0  0
 49124  1  0  0  0
 50 51  1  0  0  0
 50125  1  0  0  0
 50126  1  0  0  0
 51 52  1  0  0  0
 51127  1  0  0  0
 51128  1  0  0  0
 52129  1  0  0  0
 52130  1  0  0  0
 53 54  1  0  0  0
 54 55  2  0  0  0
 54131  1  0  0  0
 55 57  1  0  0  0
 55132  1  0  0  0
 56 69  2  0  0  0
 57 58  2  0  0  0
 57133  1  0  0  0
 58134  1  0  0  0
 59 60  1  0  0  0
 59 61  1  0  0  0
 59 62  1  0  0  0
 60135  1  0  0  0
 60136  1  0  0  0
 60137  1  0  0  0
 61138  1  0  0  0
 61139  1  0  0  0
 61140  1  0  0  0
 62141  1  0  0  0
 62142  1  0  0  0
 62143  1  0  0  0
 63 65  1  0  0  0
 63144  1  0  0  0
 63145  1  0  0  0
 63146  1  0  0  0
 64147  1  0  0  0
 65148  1  0  0  0
 68 85  1  0  0  0
 71 72  2  0  0  0
 71 73  1  0  0  0
 71149  1  0  0  0
 72 74  1  0  0  0
 72150  1  0  0  0
 73 75  2  0  0  0
 73 83  1  0  0  0
 74 76  2  0  0  0
 74 84  1  0  0  0
 75 76  1  0  0  0
 75 88  1  0  0  0
 76 89  1  0  0  0
 77 78  1  0  0  0
 77 79  1  0  0  0
 77151  1  0  0  0
 77152  1  0  0  0
 78 81  1  0  0  0
 78153  1  0  0  0
 78154  1  0  0  0
 79 87  1  0  0  0
 79155  1  0  0  0
 79156  1  0  0  0
 80 81  1  0  0  0
 80 87  1  0  0  0
 80157  1  0  0  0
 80158  1  0  0  0
 81 85  1  0  0  0
 81159  1  0  0  0
 82 86  1  0  0  0
 82160  1  0  0  0
 82161  1  0  0  0
 82162  1  0  0  0
 83 86  1  0  0  0
 83163  1  0  0  0
 83164  1  0  0  0
 84165  1  0  0  0
 84166  1  0  0  0
 84 87  1  0  0  0
 85167  1  0  0  0
 85168  1  0  0  0
 87169  1  0  0  0
M  CHG  1  87   1
M  ISO  4   1 100  68 101  85 101  86 100
M  END
> <chiral flag>
0

> <version>
0

> <s_m_source_file>
/data/baiqing/PycharmProjects/Reinvent-master-3.2/result/LINK_invent/BTK/process_docking_weight1_custom_product_contain_oxygen_bond_distance_aromatic_linkinvent_7_9_3/rearranged_h_0015.sdf

> <i_m_source_file_index>
1

> <r_mmod_Potential_Energy-OPLS-2005>
35.2726058959961

> <r_mmod_Stretch_Energy-OPLS-2005>
40.1124229431152

> <r_mmod_Bend_Energy-OPLS-2005>
121.083038330078

> <r_mmod_Torsional_Energy-OPLS-2005>
315.056945800781

> <r_mmod_Improper_Torsional_Energy-OPLS-2005>
9.78841209411621

> <r_mmod_Van_der_Waal_Energy-OPLS-2005>
154.122314453125

> <r_mmod_Electrostatic_Energy-OPLS-2005>
-206.302734375

> <r_mmod_Solvation_Energy-OPLS-2005>
-415.367004394531

> <b_mmod_Minimization_Converged-OPLS-2005>
0

> <r_mmod_RMS_Derivative-OPLS-2005>
2.70302486419678

$$$$
1
                    3D
 Structure written by MMmdl.
184192  0  0  1  0            999 V2000
  -30.7806  -14.3430   20.7219 C   0  0  0  0  0  0
  -30.4107  -12.3058   19.3679 C   0  0  0  0  0  0
  -29.4753  -12.5597   18.1736 C   0  0  0  0  0  0
  -27.9983  -12.3991   18.5873 C   0  0  0  0  0  0
  -27.6593  -13.1986   19.8743 C   0  0  2  0  0  0
  -28.7015  -12.9113   20.9774 C   0  0  0  0  0  0
  -25.2571  -13.8096   20.5626 C   0  0  0  0  0  0
  -24.1835  -13.0390   20.9158 C   0  0  0  0  0  0
  -24.6395  -11.6870   20.8723 C   0  0  0  0  0  0
  -23.9067  -10.4271   21.0389 C   0  0  0  0  0  0
  -24.3620   -9.4184   21.9170 C   0  0  0  0  0  0
  -23.6308   -8.2216   22.0745 C   0  0  0  0  0  0
  -22.4289   -8.0258   21.3528 C   0  0  0  0  0  0
  -21.9930   -9.0227   20.4619 C   0  0  0  0  0  0
  -22.7253  -10.2106   20.3036 C   0  0  0  0  0  0
  -21.6850   -6.0733   22.5277 C   0  0  0  0  0  0
  -21.4009   -6.5641   23.8214 C   0  0  0  0  0  0
  -21.3658   -5.6794   24.9175 C   0  0  0  0  0  0
  -21.6051   -4.3057   24.7221 C   0  0  0  0  0  0
  -21.8819   -3.8149   23.4346 C   0  0  0  0  0  0
  -21.9191   -4.6963   22.3402 C   0  0  0  0  0  0
  -22.7860  -13.5205   21.1852 C   0  0  0  0  0  0
  -22.1651   -4.2144   21.0980 F   0  0  0  0  0  0
  -21.5656   -3.4544   25.7736 F   0  0  0  0  0  0
  -30.0390  -13.2339   20.4461 N   0  0  0  0  0  0
  -26.3014  -12.9259   20.3356 N   0  0  0  0  0  0
  -25.9317  -11.6431   20.5740 N   0  0  0  0  0  0
  -22.0513  -12.8205   22.0391 N   0  0  0  0  0  0
  -25.4278  -15.1767   20.4007 N   0  0  0  0  0  0
  -31.7802  -14.6607   20.0679 O   0  0  0  0  0  0
  -21.6641   -6.8863   21.4233 O   0  0  0  0  0  0
  -22.3577  -14.5531   20.6701 O   0  0  0  0  0  0
  -24.6137  -31.8676   23.2117 C   0  0  0  0  0  0
  -25.9055  -32.4787   23.8424 C   0  0  1  0  0  0
  -27.2406  -27.4702   20.1056 C   0  0  0  0  0  0
  -25.5939  -33.8595   24.2388 N   0  0  0  0  0  0
  -23.3998  -30.4944   21.5463 C   0  0  2  0  0  0
  -24.8513  -28.9634   20.1165 C   0  0  0  0  0  0
  -22.7386  -29.4680   22.4932 C   0  0  0  0  0  0
  -18.0254  -28.1407   22.8464 C   0  0  0  0  0  0
  -24.1488  -36.7299   23.2622 C   0  0  0  0  0  0
  -25.9256  -30.8447   21.3626 C   0  0  0  0  0  0
  -26.0052  -29.4798   20.7214 C   0  0  0  0  0  0
  -27.2034  -28.7358   20.7269 C   0  0  0  0  0  0
  -26.0877  -26.9768   19.4651 C   0  0  0  0  0  0
  -24.8837  -27.7056   19.4902 C   0  0  0  0  0  0
  -23.6112  -29.8274   20.1606 C   0  0  0  0  0  0
  -25.4088  -36.3088   24.0356 C   0  0  1  0  0  0
  -20.5850  -28.3714   23.1270 C   0  0  2  0  0  0
  -20.6791  -26.9461   22.5362 C   0  0  0  0  0  0
  -19.5760  -26.6381   21.5191 C   0  0  0  0  0  0
  -18.1930  -26.7935   22.1609 C   0  0  0  0  0  0
  -19.1503  -28.8860   23.2856 C   0  0  0  0  0  0
  -18.9446  -30.1470   23.8867 C   0  0  0  0  0  0
  -17.6457  -30.6605   24.0563 C   0  0  0  0  0  0
  -25.9036  -34.9455   23.5161 C   0  0  0  0  0  0
  -16.5338  -29.9123   23.6327 C   0  0  0  0  0  0
  -16.7238  -28.6545   23.0303 C   0  0  0  0  0  0
  -26.4542  -31.6501   25.0697 C   0  0  0  0  0  0
  -25.3883  -31.3540   26.1482 C   0  0  0  0  0  0
  -27.0307  -30.2931   24.5980 C   0  0  0  0  0  0
  -27.6129  -32.4182   25.7463 C   0  0  0  0  0  0
  -27.5591  -37.1766   24.8446 C   0  0  0  0  0  0
  -21.4102  -29.3088   22.3669 N   0  0  0  0  0  0
  -26.4261  -37.3785   23.9453 N   0  0  0  0  0  0
  -24.6636  -31.0834   22.0993 N   0  0  0  0  0  0
  -23.4139  -28.8210   23.2974 O   0  0  0  0  0  0
  -28.3850  -26.7125   20.0935 O   0  0  0  0  0  0
  -26.5541  -34.8940   22.4701 O   0  0  0  0  0  0
  -23.5350  -32.1398   23.7542 O   0  0  0  0  0  0
  -27.6384  -17.3669   20.9970 C   0  0  0  0  0  0
  -28.7695  -16.5406   20.8503 C   0  0  0  0  0  0
  -28.6882  -16.0312   23.2260 C   0  0  0  0  0  0
  -27.0198  -17.5364   22.2563 C   0  0  0  0  0  0
  -29.3110  -15.8640   21.9682 C   0  0  0  0  0  0
  -27.5452  -16.8502   23.3783 C   0  0  0  0  0  0
  -26.5043  -24.5716   23.2171 C   0  0  0  0  0  0
  -31.4570  -15.0551   22.9304 C   0  0  0  0  0  0
  -27.7924  -17.3043   25.7332 C   0  0  0  0  0  0
  -26.0405  -15.7891   24.8556 C   0  0  0  0  0  0
  -26.2449  -23.1530   19.7961 C   0  0  0  0  0  0
  -25.1509  -20.5170   23.5405 C   0  0  0  0  0  0
  -25.7847  -18.4335   22.3836 C   0  0  0  0  0  0
  -28.3893  -24.6805   21.4662 C   0  0  0  0  0  0
  -27.2052  -21.9439   21.6770 C   0  0  0  0  0  0
  -26.4593  -20.6065   21.4416 C   0  0  0  0  0  0
  -28.7626  -26.1767   21.3683 C   0  0  0  0  0  0
  -26.8868  -24.4058   21.7400 C   0  0  1  0  0  0
  -30.4551  -15.0059   21.8585 N   0  0  0  0  0  0
  -26.9090  -16.9431   24.6276 N   0  0  0  0  0  0
  -26.4024  -23.1014   21.2548 N   0  0  0  0  0  0
  -26.1527  -19.8425   22.6798 N   0  3  1  0  0  0
  -31.4548  -12.4045   19.0618 H   0  0  0  0  0  0
  -30.3045  -11.2755   19.7127 H   0  0  0  0  0  0
  -29.7171  -11.8849   17.3509 H   0  0  0  0  0  0
  -29.6408  -13.5700   17.7951 H   0  0  0  0  0  0
  -27.8034  -11.3355   18.7436 H   0  0  0  0  0  0
  -27.3403  -12.7039   17.7695 H   0  0  0  0  0  0
  -27.7178  -14.2557   19.6219 H   0  0  0  0  0  0
  -28.6775  -11.8555   21.2431 H   0  0  0  0  0  0
  -28.4503  -13.4236   21.9053 H   0  0  0  0  0  0
  -25.2758   -9.5663   22.4741 H   0  0  0  0  0  0
  -24.0016   -7.4607   22.7465 H   0  0  0  0  0  0
  -21.0870   -8.8724   19.8932 H   0  0  0  0  0  0
  -22.3705  -10.9631   19.6132 H   0  0  0  0  0  0
  -21.1981   -7.6143   23.9708 H   0  0  0  0  0  0
  -21.1488   -6.0525   25.9076 H   0  0  0  0  0  0
  -22.0609   -2.7615   23.2842 H   0  0  0  0  0  0
  -22.4128  -11.9801   22.4674 H   0  0  0  0  0  0
  -21.1093  -13.1173   22.2581 H   0  0  0  0  0  0
  -24.6698  -15.8401   20.5020 H   0  0  0  0  0  0
  -26.3173  -15.6075   20.1896 H   0  0  0  0  0  0
  -26.7121  -32.5509   23.1193 H   0  0  0  0  0  0
  -25.0198  -33.9799   25.0608 H   0  0  0  0  0  0
  -22.6895  -31.3119   21.4057 H   0  0  0  0  0  0
  -23.3782  -35.9584   23.3174 H   0  0  0  0  0  0
  -24.3635  -36.8988   22.2058 H   0  0  0  0  0  0
  -23.7219  -37.6482   23.6682 H   0  0  0  0  0  0
  -26.0344  -31.5998   20.5837 H   0  0  0  0  0  0
  -26.8175  -30.9046   21.9718 H   0  0  0  0  0  0
  -28.0935  -29.1346   21.1950 H   0  0  0  0  0  0
  -26.1185  -26.0210   18.9647 H   0  0  0  0  0  0
  -24.0026  -27.3030   19.0072 H   0  0  0  0  0  0
  -23.7240  -30.6017   19.4008 H   0  0  0  0  0  0
  -22.7381  -29.2450   19.8597 H   0  0  0  0  0  0
  -25.1252  -36.1913   25.0835 H   0  0  0  0  0  0
  -20.9951  -28.3279   24.1390 H   0  0  0  0  0  0
  -20.5770  -26.2319   23.3547 H   0  0  0  0  0  0
  -21.6650  -26.7567   22.1102 H   0  0  0  0  0  0
  -19.6942  -25.6268   21.1270 H   0  0  0  0  0  0
  -19.6701  -27.3140   20.6680 H   0  0  0  0  0  0
  -17.4212  -26.6600   21.4012 H   0  0  0  0  0  0
  -18.0407  -26.0101   22.9044 H   0  0  0  0  0  0
  -19.7926  -30.7264   24.2224 H   0  0  0  0  0  0
  -17.5027  -31.6291   24.5165 H   0  0  0  0  0  0
  -15.5350  -30.3038   23.7674 H   0  0  0  0  0  0
  -15.8616  -28.0894   22.7010 H   0  0  0  0  0  0
  -24.6145  -30.6751   25.7893 H   0  0  0  0  0  0
  -24.9012  -32.2665   26.4928 H   0  0  0  0  0  0
  -25.8375  -30.8796   27.0228 H   0  0  0  0  0  0
  -26.2772  -29.6673   24.1183 H   0  0  0  0  0  0
  -27.4258  -29.7133   25.4341 H   0  0  0  0  0  0
  -27.8562  -30.4202   23.8958 H   0  0  0  0  0  0
  -27.2772  -33.3496   26.2035 H   0  0  0  0  0  0
  -28.3997  -32.6673   25.0325 H   0  0  0  0  0  0
  -28.0757  -31.8287   26.5396 H   0  0  0  0  0  0
  -28.2498  -38.0166   24.7643 H   0  0  0  0  0  0
  -28.1199  -36.2726   24.6058 H   0  0  0  0  0  0
  -27.2348  -37.1136   25.8844 H   0  0  0  0  0  0
  -20.9223  -29.8867   21.6960 H   0  0  0  0  0  0
  -26.0121  -38.2813   24.1591 H   0  0  0  0  0  0
  -27.2384  -17.8598   20.1215 H   0  0  0  0  0  0
  -29.2126  -16.4451   19.8689 H   0  0  0  0  0  0
  -29.0629  -15.4942   24.0844 H   0  0  0  0  0  0
  -26.6591  -25.5997   23.5463 H   0  0  0  0  0  0
  -27.0802  -23.9237   23.8765 H   0  0  0  0  0  0
  -25.4461  -24.3511   23.3645 H   0  0  0  0  0  0
  -31.0904  -14.5317   23.8141 H   0  0  0  0  0  0
  -31.6772  -16.0886   23.2110 H   0  0  0  0  0  0
  -32.3981  -14.5756   22.6481 H   0  0  0  0  0  0
  -28.5652  -18.0115   25.4194 H   0  0  0  0  0  0
  -28.2859  -16.4235   26.1509 H   0  0  0  0  0  0
  -27.2198  -17.7789   26.5326 H   0  0  0  0  0  0
  -25.4429  -15.5485   23.9721 H   0  0  0  0  0  0
  -25.3493  -15.9739   25.6795 H   0  0  0  0  0  0
  -26.6272  -14.9041   25.1093 H   0  0  0  0  0  0
  -25.8079  -22.2440   19.3843 H   0  0  0  0  0  0
  -27.1928  -23.3182   19.2797 H   0  0  0  0  0  0
  -25.5671  -23.9613   19.5183 H   0  0  0  0  0  0
  -24.9796  -19.9479   24.4570 H   0  0  0  0  0  0
  -24.1948  -20.6283   23.0281 H   0  0  0  0  0  0
  -25.4867  -21.5080   23.8407 H   0  0  0  0  0  0
  -25.1354  -18.0380   23.1665 H   0  0  0  0  0  0
  -25.1781  -18.3812   21.4799 H   0  0  0  0  0  0
  -28.9790  -24.2232   22.2621 H   0  0  0  0  0  0
  -28.7255  -24.2005   20.5485 H   0  0  0  0  0  0
  -28.1562  -21.9242   21.1414 H   0  0  0  0  0  0
  -27.4709  -22.0294   22.7323 H   0  0  0  0  0  0
  -27.0785  -20.0081   20.7769 H   0  0  0  0  0  0
  -25.5189  -20.7502   20.9067 H   0  0  0  0  0  0
  -29.8462  -26.2757   21.4580 H   0  0  0  0  0  0
  -28.3471  -26.7377   22.2090 H   0  0  0  0  0  0
  -26.3071  -25.1581   21.2136 H   0  0  0  0  0  0
  -26.9961  -19.7807   23.2282 H   0  0  0  0  0  0
  1 25  1  0  0  0
  1 30  2  0  0  0
  1 89  1  0  0  0
  2  3  1  0  0  0
  2 25  1  0  0  0
  2 93  1  0  0  0
  2 94  1  0  0  0
  3  4  1  0  0  0
  3 95  1  0  0  0
  3 96  1  0  0  0
  4  5  1  0  0  0
  4 97  1  0  0  0
  4 98  1  0  0  0
  5  6  1  0  0  0
  5 26  1  0  0  0
  5 99  1  0  0  0
  6 25  1  0  0  0
  6100  1  0  0  0
  6101  1  0  0  0
  7  8  2  0  0  0
  7 26  1  0  0  0
  7 29  1  0  0  0
  8  9  1  0  0  0
  8 22  1  0  0  0
  9 10  1  0  0  0
  9 27  2  0  0  0
 10 11  2  0  0  0
 10 15  1  0  0  0
 11 12  1  0  0  0
 11102  1  0  0  0
 12 13  2  0  0  0
 12103  1  0  0  0
 13 14  1  0  0  0
 13 31  1  0  0  0
 14 15  2  0  0  0
 14104  1  0  0  0
 15105  1  0  0  0
 16 17  2  0  0  0
 16 21  1  0  0  0
 16 31  1  0  0  0
 17 18  1  0  0  0
 17106  1  0  0  0
 18 19  2  0  0  0
 18107  1  0  0  0
 19 20  1  0  0  0
 19 24  1  0  0  0
 20 21  2  0  0  0
 20108  1  0  0  0
 21 23  1  0  0  0
 22 28  1  0  0  0
 22 32  2  0  0  0
 26 27  1  0  0  0
 28109  1  0  0  0
 28110  1  0  0  0
 29111  1  0  0  0
 29112  1  0  0  0
 33 34  1  0  0  0
 33 66  1  0  0  0
 33 70  2  0  0  0
 34 36  1  0  0  0
 34 59  1  0  0  0
 34113  1  0  0  0
 35 44  2  0  0  0
 35 45  1  0  0  0
 35 68  1  0  0  0
 36 56  1  0  0  0
 36114  1  0  0  0
 37 39  1  0  0  0
 37 47  1  0  0  0
 37 66  1  0  0  0
 37115  1  0  0  0
 38 43  2  0  0  0
 38 46  1  0  0  0
 38 47  1  0  0  0
 39 64  1  0  0  0
 39 67  2  0  0  0
 40 52  1  0  0  0
 40 53  2  0  0  0
 40 58  1  0  0  0
 41116  1  0  0  0
 41117  1  0  0  0
 41118  1  0  0  0
 41 48  1  0  0  0
 42 43  1  0  0  0
 42 66  1  0  0  0
 42119  1  0  0  0
 42120  1  0  0  0
 43 44  1  0  0  0
 44121  1  0  0  0
 45 46  2  0  0  0
 45122  1  0  0  0
 46123  1  0  0  0
 47124  1  0  0  0
 47125  1  0  0  0
 48 56  1  0  0  0
 48 65  1  0  0  0
 48126  1  0  0  0
 49 50  1  0  0  0
 49 53  1  0  0  0
 49 64  1  0  0  0
 49127  1  0  0  0
 50 51  1  0  0  0
 50128  1  0  0  0
 50129  1  0  0  0
 51 52  1  0  0  0
 51130  1  0  0  0
 51131  1  0  0  0
 52132  1  0  0  0
 52133  1  0  0  0
 53 54  1  0  0  0
 54 55  2  0  0  0
 54134  1  0  0  0
 55 57  1  0  0  0
 55135  1  0  0  0
 56 69  2  0  0  0
 57 58  2  0  0  0
 57136  1  0  0  0
 58137  1  0  0  0
 59 60  1  0  0  0
 59 61  1  0  0  0
 59 62  1  0  0  0
 60138  1  0  0  0
 60139  1  0  0  0
 60140  1  0  0  0
 61141  1  0  0  0
 61142  1  0  0  0
 61143  1  0  0  0
 62144  1  0  0  0
 62145  1  0  0  0
 62146  1  0  0  0
 63 65  1  0  0  0
 63147  1  0  0  0
 63148  1  0  0  0
 63149  1  0  0  0
 64150  1  0  0  0
 65151  1  0  0  0
 68 87  1  0  0  0
 71 72  2  0  0  0
 71 74  1  0  0  0
 71152  1  0  0  0
 72 75  1  0  0  0
 72153  1  0  0  0
 73 75  2  0  0  0
 73 76  1  0  0  0
 73154  1  0  0  0
 74 76  2  0  0  0
 74 83  1  0  0  0
 75 89  1  0  0  0
 76 90  1  0  0  0
 77155  1  0  0  0
 77156  1  0  0  0
 77157  1  0  0  0
 77 88  1  0  0  0
 78 89  1  0  0  0
 78158  1  0  0  0
 78159  1  0  0  0
 78160  1  0  0  0
 79 90  1  0  0  0
 79161  1  0  0  0
 79162  1  0  0  0
 79163  1  0  0  0
 80 90  1  0  0  0
 80164  1  0  0  0
 80165  1  0  0  0
 80166  1  0  0  0
 81 91  1  0  0  0
 81167  1  0  0  0
 81168  1  0  0  0
 81169  1  0  0  0
 82170  1  0  0  0
 82171  1  0  0  0
 82172  1  0  0  0
 82 92  1  0  0  0
 83 92  1  0  0  0
 83173  1  0  0  0
 83174  1  0  0  0
 84 87  1  0  0  0
 84 88  1  0  0  0
 84175  1  0  0  0
 84176  1  0  0  0
 85 86  1  0  0  0
 85 91  1  0  0  0
 85177  1  0  0  0
 85178  1  0  0  0
 86 92  1  0  0  0
 86179  1  0  0  0
 86180  1  0  0  0
 87181  1  0  0  0
 87182  1  0  0  0
 88 91  1  0  0  0
 88183  1  0  0  0
 92184  1  0  0  0
M  CHG  1  92   1
M  ISO  4   1 100  68 101  87 101  89 100
M  END
> <chiral flag>
0

> <version>
0

> <s_m_source_file>
/data/baiqing/PycharmProjects/Reinvent-master-3.2/result/LINK_invent/BTK/process_docking_weight1_custom_product_contain_oxygen_bond_distance_aromatic_linkinvent_7_9_3/rearranged_h_0015.sdf

> <i_m_source_file_index>
2

> <r_mmod_Potential_Energy-OPLS-2005>
22.0137157440186

> <r_mmod_Stretch_Energy-OPLS-2005>
40.9576072692871

> <r_mmod_Bend_Energy-OPLS-2005>
106.984313964844

> <r_mmod_Torsional_Energy-OPLS-2005>
325.508270263672

> <r_mmod_Improper_Torsional_Energy-OPLS-2005>
7.66759204864502

> <r_mmod_Van_der_Waal_Energy-OPLS-2005>
157.043853759766

> <r_mmod_Electrostatic_Energy-OPLS-2005>
-219.682189941406

> <r_mmod_Solvation_Energy-OPLS-2005>
-404.346893310547

> <b_mmod_Minimization_Converged-OPLS-2005>
0

> <r_mmod_RMS_Derivative-OPLS-2005>
4.52141046524048

$$$$
2
                    3D
 Structure written by MMmdl.
159167  0  0  1  0            999 V2000
  -30.6630  -14.4738   20.5996 C   0  0  0  0  0  0
  -30.4355  -12.3140   19.4136 C   0  0  0  0  0  0
  -29.4986  -12.5085   18.2018 C   0  0  0  0  0  0
  -28.0175  -12.3685   18.6113 C   0  0  0  0  0  0
  -27.6649  -13.1945   19.8765 C   0  0  2  0  0  0
  -28.7032  -12.9387   20.9915 C   0  0  0  0  0  0
  -25.2618  -13.8126   20.5646 C   0  0  0  0  0  0
  -24.1855  -13.0433   20.9168 C   0  0  0  0  0  0
  -24.6384  -11.6890   20.8729 C   0  0  0  0  0  0
  -23.9041  -10.4287   21.0401 C   0  0  0  0  0  0
  -24.3601   -9.4212   21.9185 C   0  0  0  0  0  0
  -23.6284   -8.2243   22.0757 C   0  0  0  0  0  0
  -22.4268   -8.0276   21.3539 C   0  0  0  0  0  0
  -21.9897   -9.0247   20.4645 C   0  0  0  0  0  0
  -22.7214  -10.2130   20.3053 C   0  0  0  0  0  0
  -21.6854   -6.0733   22.5279 C   0  0  0  0  0  0
  -21.4013   -6.5640   23.8212 C   0  0  0  0  0  0
  -21.3659   -5.6793   24.9174 C   0  0  0  0  0  0
  -21.6039   -4.3054   24.7228 C   0  0  0  0  0  0
  -21.8822   -3.8146   23.4350 C   0  0  0  0  0  0
  -21.9193   -4.6960   22.3401 C   0  0  0  0  0  0
  -22.7881  -13.5245   21.1833 C   0  0  0  0  0  0
  -22.1663   -4.2143   21.0978 F   0  0  0  0  0  0
  -21.5629   -3.4536   25.7744 F   0  0  0  0  0  0
  -30.0345  -13.2749   20.4521 N   0  0  0  0  0  0
  -26.3035  -12.9269   20.3338 N   0  0  0  0  0  0
  -25.9303  -11.6444   20.5737 N   0  0  0  0  0  0
  -22.0512  -12.8244   22.0389 N   0  0  0  0  0  0
  -25.4383  -15.1844   20.4027 N   0  0  0  0  0  0
  -31.7797  -14.7061   20.1238 O   0  0  0  0  0  0
  -21.6637   -6.8872   21.4237 O   0  0  0  0  0  0
  -22.3577  -14.5557   20.6685 O   0  0  0  0  0  0
  -24.6132  -31.8671   23.2078 C   0  0  0  0  0  0
  -25.9020  -32.4823   23.8375 C   0  0  1  0  0  0
  -27.2381  -27.4349   20.0977 C   0  0  0  0  0  0
  -25.5865  -33.8618   24.2302 N   0  0  0  0  0  0
  -23.4013  -30.4891   21.5498 C   0  0  2  0  0  0
  -24.8486  -28.9521   20.1190 C   0  0  0  0  0  0
  -22.7403  -29.4641   22.4993 C   0  0  0  0  0  0
  -18.0266  -28.1369   22.8495 C   0  0  0  0  0  0
  -24.1484  -36.7323   23.2636 C   0  0  0  0  0  0
  -25.9290  -30.8363   21.3582 C   0  0  0  0  0  0
  -26.0092  -29.4698   20.7069 C   0  0  0  0  0  0
  -27.2079  -28.7202   20.6877 C   0  0  0  0  0  0
  -26.0573  -26.9271   19.5111 C   0  0  0  0  0  0
  -24.8667  -27.6794   19.5202 C   0  0  0  0  0  0
  -23.6106  -29.8187   20.1662 C   0  0  0  0  0  0
  -25.4105  -36.3115   24.0332 C   0  0  1  0  0  0
  -20.5856  -28.3648   23.1325 C   0  0  2  0  0  0
  -20.6763  -26.9385   22.5426 C   0  0  0  0  0  0
  -19.5741  -26.6377   21.5217 C   0  0  0  0  0  0
  -18.1917  -26.7916   22.1625 C   0  0  0  0  0  0
  -19.1518  -28.8827   23.2907 C   0  0  0  0  0  0
  -18.9451  -30.1435   23.8915 C   0  0  0  0  0  0
  -17.6459  -30.6587   24.0556 C   0  0  0  0  0  0
  -25.9030  -34.9477   23.5122 C   0  0  0  0  0  0
  -16.5347  -29.9091   23.6316 C   0  0  0  0  0  0
  -16.7259  -28.6502   23.0345 C   0  0  0  0  0  0
  -26.4455  -31.6601   25.0697 C   0  0  0  0  0  0
  -25.3717  -31.3712   26.1444 C   0  0  0  0  0  0
  -27.0255  -30.3039   24.6041 C   0  0  0  0  0  0
  -27.6023  -32.4317   25.7475 C   0  0  0  0  0  0
  -27.5584  -37.1816   24.8457 C   0  0  0  0  0  0
  -21.4131  -29.3018   22.3739 N   0  0  0  0  0  0
  -26.4296  -37.3797   23.9406 N   0  0  0  0  0  0
  -24.6664  -31.0772   22.0982 N   0  0  0  0  0  0
  -23.4180  -28.8184   23.3033 O   0  0  0  0  0  0
  -28.4201  -26.7232   20.0836 O   0  0  0  0  0  0
  -26.5614  -34.8941   22.4700 O   0  0  0  0  0  0
  -23.5331  -32.1418   23.7487 O   0  0  0  0  0  0
  -28.8695  -18.9699   21.6864 C   0  0  0  0  0  0
  -31.2790  -18.9331   21.3798 C   0  0  0  0  0  0
  -28.8336  -17.5690   21.5127 C   0  0  0  0  0  0
  -31.2438  -17.5312   21.2002 C   0  0  0  0  0  0
  -30.0966  -19.6655   21.6428 C   0  0  0  0  0  0
  -30.0172  -16.8298   21.2797 C   0  0  0  0  0  0
  -30.6160  -21.9426   19.7027 C   0  0  0  0  0  0
  -30.1658  -21.1563   22.0104 C   0  0  0  0  0  0
  -29.7812  -24.7728   20.5643 C   0  0  0  0  0  0
  -29.9523  -23.5426   21.5097 C   0  0  0  0  0  0
  -28.3491  -25.3122   20.3457 C   0  0  0  0  0  0
  -29.8989  -15.4079   21.2059 N   0  0  0  0  0  0
  -29.8359  -22.1554   20.9470 N   0  3  1  0  0  0
  -31.4766  -12.4421   19.1116 H   0  0  0  0  0  0
  -30.3597  -11.2955   19.7965 H   0  0  0  0  0  0
  -29.7377  -11.7843   17.4223 H   0  0  0  0  0  0
  -29.6657  -13.4937   17.7635 H   0  0  0  0  0  0
  -27.8228  -11.3109   18.7943 H   0  0  0  0  0  0
  -27.3701  -12.6558   17.7818 H   0  0  0  0  0  0
  -27.7182  -14.2456   19.5951 H   0  0  0  0  0  0
  -28.6873  -11.8882   21.2871 H   0  0  0  0  0  0
  -28.4519  -13.4895   21.8986 H   0  0  0  0  0  0
  -25.2748   -9.5692   22.4756 H   0  0  0  0  0  0
  -23.9997   -7.4636   22.7480 H   0  0  0  0  0  0
  -21.0831   -8.8756   19.8952 H   0  0  0  0  0  0
  -22.3671  -10.9666   19.6162 H   0  0  0  0  0  0
  -21.2008   -7.6151   23.9710 H   0  0  0  0  0  0
  -21.1476   -6.0526   25.9075 H   0  0  0  0  0  0
  -22.0602   -2.7607   23.2852 H   0  0  0  0  0  0
  -22.4119  -11.9901   22.4771 H   0  0  0  0  0  0
  -21.1131  -13.1279   22.2578 H   0  0  0  0  0  0
  -24.6705  -15.8409   20.4939 H   0  0  0  0  0  0
  -26.2806  -15.6100   20.0376 H   0  0  0  0  0  0
  -26.7091  -32.5549   23.1139 H   0  0  0  0  0  0
  -24.9971  -33.9772   25.0418 H   0  0  0  0  0  0
  -22.6892  -31.3051   21.4092 H   0  0  0  0  0  0
  -23.3746  -35.9655   23.3299 H   0  0  0  0  0  0
  -24.3582  -36.8938   22.2050 H   0  0  0  0  0  0
  -23.7239  -37.6527   23.6659 H   0  0  0  0  0  0
  -26.0314  -31.6029   20.5891 H   0  0  0  0  0  0
  -26.8194  -30.8950   21.9722 H   0  0  0  0  0  0
  -28.1076  -29.1192   21.1375 H   0  0  0  0  0  0
  -26.0476  -25.9590   19.0316 H   0  0  0  0  0  0
  -23.9725  -27.2730   19.0671 H   0  0  0  0  0  0
  -23.7184  -30.5912   19.4035 H   0  0  0  0  0  0
  -22.7348  -29.2371   19.8740 H   0  0  0  0  0  0
  -25.1285  -36.1980   25.0824 H   0  0  0  0  0  0
  -20.9948  -28.3235   24.1439 H   0  0  0  0  0  0
  -20.5671  -26.2259   23.3617 H   0  0  0  0  0  0
  -21.6639  -26.7437   22.1211 H   0  0  0  0  0  0
  -19.6902  -25.6290   21.1235 H   0  0  0  0  0  0
  -19.6687  -27.3203   20.6759 H   0  0  0  0  0  0
  -17.4186  -26.6659   21.4025 H   0  0  0  0  0  0
  -18.0305  -26.0060   22.9024 H   0  0  0  0  0  0
  -19.7939  -30.7223   24.2315 H   0  0  0  0  0  0
  -17.5025  -31.6276   24.5143 H   0  0  0  0  0  0
  -15.5350  -30.3004   23.7633 H   0  0  0  0  0  0
  -15.8654  -28.0834   22.7050 H   0  0  0  0  0  0
  -24.5897  -30.7044   25.7784 H   0  0  0  0  0  0
  -24.8906  -32.2875   26.4878 H   0  0  0  0  0  0
  -25.8070  -30.8899   27.0208 H   0  0  0  0  0  0
  -26.2768  -29.6845   24.1084 H   0  0  0  0  0  0
  -27.4000  -29.7229   25.4476 H   0  0  0  0  0  0
  -27.8622  -30.4335   23.9173 H   0  0  0  0  0  0
  -27.2612  -33.3600   26.2072 H   0  0  0  0  0  0
  -28.3835  -32.6904   25.0313 H   0  0  0  0  0  0
  -28.0679  -31.8421   26.5383 H   0  0  0  0  0  0
  -28.2598  -38.0124   24.7528 H   0  0  0  0  0  0
  -28.1094  -36.2659   24.6259 H   0  0  0  0  0  0
  -27.2306  -37.1421   25.8862 H   0  0  0  0  0  0
  -20.9288  -29.8751   21.6970 H   0  0  0  0  0  0
  -26.0192  -38.2871   24.1437 H   0  0  0  0  0  0
  -27.9512  -19.4993   21.9020 H   0  0  0  0  0  0
  -32.2353  -19.4382   21.3593 H   0  0  0  0  0  0
  -27.8798  -17.0642   21.5855 H   0  0  0  0  0  0
  -32.1759  -17.0057   21.0456 H   0  0  0  0  0  0
  -30.5278  -20.9177   19.3427 H   0  0  0  0  0  0
  -31.6749  -22.1535   19.8552 H   0  0  0  0  0  0
  -30.2494  -22.5730   18.8943 H   0  0  0  0  0  0
  -31.1698  -21.3595   22.3869 H   0  0  0  0  0  0
  -29.5000  -21.3154   22.8607 H   0  0  0  0  0  0
  -30.3000  -24.6564   19.6150 H   0  0  0  0  0  0
  -30.3245  -25.5806   21.0566 H   0  0  0  0  0  0
  -29.2749  -23.6457   22.3586 H   0  0  0  0  0  0
  -30.9524  -23.6238   21.9385 H   0  0  0  0  0  0
  -27.7410  -25.1472   21.2376 H   0  0  0  0  0  0
  -27.8804  -24.7767   19.5196 H   0  0  0  0  0  0
  -29.0125  -15.0397   21.5148 H   0  0  0  0  0  0
  -28.8678  -22.0032   20.7073 H   0  0  0  0  0  0
  1 25  1  0  0  0
  1 30  2  0  0  0
  1 82  1  0  0  0
  2  3  1  0  0  0
  2 25  1  0  0  0
  2 84  1  0  0  0
  2 85  1  0  0  0
  3  4  1  0  0  0
  3 86  1  0  0  0
  3 87  1  0  0  0
  4  5  1  0  0  0
  4 88  1  0  0  0
  4 89  1  0  0  0
  5  6  1  0  0  0
  5 26  1  0  0  0
  5 90  1  0  0  0
  6 25  1  0  0  0
  6 91  1  0  0  0
  6 92  1  0  0  0
  7  8  2  0  0  0
  7 26  1  0  0  0
  7 29  1  0  0  0
  8  9  1  0  0  0
  8 22  1  0  0  0
  9 10  1  0  0  0
  9 27  2  0  0  0
 10 11  2  0  0  0
 10 15  1  0  0  0
 11 12  1  0  0  0
 11 93  1  0  0  0
 12 13  2  0  0  0
 12 94  1  0  0  0
 13 14  1  0  0  0
 13 31  1  0  0  0
 14 15  2  0  0  0
 14 95  1  0  0  0
 15 96  1  0  0  0
 16 17  2  0  0  0
 16 21  1  0  0  0
 16 31  1  0  0  0
 17 18  1  0  0  0
 17 97  1  0  0  0
 18 19  2  0  0  0
 18 98  1  0  0  0
 19 20  1  0  0  0
 19 24  1  0  0  0
 20 21  2  0  0  0
 20 99  1  0  0  0
 21 23  1  0  0  0
 22 28  1  0  0  0
 22 32  2  0  0  0
 26 27  1  0  0  0
 28100  1  0  0  0
 28101  1  0  0  0
 29102  1  0  0  0
 29103  1  0  0  0
 33 34  1  0  0  0
 33 66  1  0  0  0
 33 70  2  0  0  0
 34 36  1  0  0  0
 34 59  1  0  0  0
 34104  1  0  0  0
 35 44  2  0  0  0
 35 45  1  0  0  0
 35 68  1  0  0  0
 36 56  1  0  0  0
 36105  1  0  0  0
 37 39  1  0  0  0
 37 47  1  0  0  0
 37 66  1  0  0  0
 37106  1  0  0  0
 38 43  2  0  0  0
 38 46  1  0  0  0
 38 47  1  0  0  0
 39 64  1  0  0  0
 39 67  2  0  0  0
 40 52  1  0  0  0
 40 53  2  0  0  0
 40 58  1  0  0  0
 41107  1  0  0  0
 41108  1  0  0  0
 41109  1  0  0  0
 41 48  1  0  0  0
 42 43  1  0  0  0
 42 66  1  0  0  0
 42110  1  0  0  0
 42111  1  0  0  0
 43 44  1  0  0  0
 44112  1  0  0  0
 45 46  2  0  0  0
 45113  1  0  0  0
 46114  1  0  0  0
 47115  1  0  0  0
 47116  1  0  0  0
 48 56  1  0  0  0
 48 65  1  0  0  0
 48117  1  0  0  0
 49 50  1  0  0  0
 49 53  1  0  0  0
 49 64  1  0  0  0
 49118  1  0  0  0
 50 51  1  0  0  0
 50119  1  0  0  0
 50120  1  0  0  0
 51 52  1  0  0  0
 51121  1  0  0  0
 51122  1  0  0  0
 52123  1  0  0  0
 52124  1  0  0  0
 53 54  1  0  0  0
 54 55  2  0  0  0
 54125  1  0  0  0
 55 57  1  0  0  0
 55126  1  0  0  0
 56 69  2  0  0  0
 57 58  2  0  0  0
 57127  1  0  0  0
 58128  1  0  0  0
 59 60  1  0  0  0
 59 61  1  0  0  0
 59 62  1  0  0  0
 60129  1  0  0  0
 60130  1  0  0  0
 60131  1  0  0  0
 61132  1  0  0  0
 61133  1  0  0  0
 61134  1  0  0  0
 62135  1  0  0  0
 62136  1  0  0  0
 62137  1  0  0  0
 63 65  1  0  0  0
 63138  1  0  0  0
 63139  1  0  0  0
 63140  1  0  0  0
 64141  1  0  0  0
 65142  1  0  0  0
 68 81  1  0  0  0
 71 73  2  0  0  0
 71 75  1  0  0  0
 71143  1  0  0  0
 72 74  1  0  0  0
 72 75  2  0  0  0
 72144  1  0  0  0
 73 76  1  0  0  0
 73145  1  0  0  0
 74 76  2  0  0  0
 74146  1  0  0  0
 75 78  1  0  0  0
 76 82  1  0  0  0
 77147  1  0  0  0
 77148  1  0  0  0
 77149  1  0  0  0
 77 83  1  0  0  0
 78 83  1  0  0  0
 78150  1  0  0  0
 78151  1  0  0  0
 79 80  1  0  0  0
 79 81  1  0  0  0
 79152  1  0  0  0
 79153  1  0  0  0
 80 83  1  0  0  0
 80154  1  0  0  0
 80155  1  0  0  0
 81156  1  0  0  0
 81157  1  0  0  0
 82158  1  0  0  0
 83159  1  0  0  0
M  CHG  1  83   1
M  ISO  4   1 100  68 101  81 101  82 100
M  END
> <chiral flag>
0

> <version>
0

> <s_m_source_file>
/data/baiqing/PycharmProjects/Reinvent-master-3.2/result/LINK_invent/BTK/process_docking_weight1_custom_product_contain_oxygen_bond_distance_aromatic_linkinvent_7_9_3/rearranged_h_0015.sdf

> <i_m_source_file_index>
3

> <r_mmod_Potential_Energy-OPLS-2005>
-169.5888671875

> <r_mmod_Stretch_Energy-OPLS-2005>
39.6837730407715

> <r_mmod_Bend_Energy-OPLS-2005>
116.625686645508

> <r_mmod_Torsional_Energy-OPLS-2005>
224.905197143555

> <r_mmod_Improper_Torsional_Energy-OPLS-2005>
4.02819395065308

> <r_mmod_Van_der_Waal_Energy-OPLS-2005>
155.463958740234

> <r_mmod_Electrostatic_Energy-OPLS-2005>
-270.951782226562

> <r_mmod_Solvation_Energy-OPLS-2005>
-451.460754394531

> <b_mmod_Minimization_Converged-OPLS-2005>
0

> <r_mmod_RMS_Derivative-OPLS-2005>
1.51259875297546

$$$$
3
                    3D
 Structure written by MMmdl.
166174  0  0  1  0            999 V2000
  -30.6998  -14.5838   20.5597 C   0  0  0  0  0  0
  -30.4024  -12.3456   19.4817 C   0  0  0  0  0  0
  -29.5106  -12.4856   18.2311 C   0  0  0  0  0  0
  -28.0274  -12.3647   18.6248 C   0  0  0  0  0  0
  -27.6501  -13.2350   19.8606 C   0  0  2  0  0  0
  -28.6824  -13.0845   20.9951 C   0  0  0  0  0  0
  -25.2479  -13.8203   20.5710 C   0  0  0  0  0  0
  -24.1806  -13.0432   20.9238 C   0  0  0  0  0  0
  -24.6402  -11.6910   20.8728 C   0  0  0  0  0  0
  -23.9114  -10.4262   21.0362 C   0  0  0  0  0  0
  -24.3602   -9.4137   21.9163 C   0  0  0  0  0  0
  -23.6264   -8.2180   22.0719 C   0  0  0  0  0  0
  -22.4247   -8.0228   21.3522 C   0  0  0  0  0  0
  -21.9917   -9.0217   20.4627 C   0  0  0  0  0  0
  -22.7277  -10.2095   20.3021 C   0  0  0  0  0  0
  -21.6836   -6.0689   22.5293 C   0  0  0  0  0  0
  -21.4026   -6.5602   23.8219 C   0  0  0  0  0  0
  -21.3671   -5.6762   24.9195 C   0  0  0  0  0  0
  -21.6047   -4.3032   24.7254 C   0  0  0  0  0  0
  -21.8802   -3.8107   23.4370 C   0  0  0  0  0  0
  -21.9168   -4.6899   22.3424 C   0  0  0  0  0  0
  -22.7767  -13.5126   21.1928 C   0  0  0  0  0  0
  -22.1604   -4.2070   21.0993 F   0  0  0  0  0  0
  -21.5652   -3.4522   25.7771 F   0  0  0  0  0  0
  -30.0066  -13.4018   20.4383 N   0  0  0  0  0  0
  -26.2961  -12.9467   20.3293 N   0  0  0  0  0  0
  -25.9302  -11.6596   20.5702 N   0  0  0  0  0  0
  -22.0430  -12.8118   22.0503 N   0  0  0  0  0  0
  -25.4182  -15.1943   20.4124 N   0  0  0  0  0  0
  -31.8601  -14.6764   20.1491 O   0  0  0  0  0  0
  -21.6615   -6.8813   21.4240 O   0  0  0  0  0  0
  -22.3440  -14.5433   20.6773 O   0  0  0  0  0  0
  -24.6253  -31.8599   23.2023 C   0  0  0  0  0  0
  -25.9107  -32.4770   23.8355 C   0  0  1  0  0  0
  -27.2101  -27.3536   20.1199 C   0  0  0  0  0  0
  -25.5917  -33.8574   24.2305 N   0  0  0  0  0  0
  -23.4170  -30.4844   21.5430 C   0  0  2  0  0  0
  -24.8578  -28.9436   20.1079 C   0  0  0  0  0  0
  -22.7479  -29.4623   22.4926 C   0  0  0  0  0  0
  -18.0282  -28.1384   22.8489 C   0  0  0  0  0  0
  -24.1489  -36.7355   23.2632 C   0  0  0  0  0  0
  -25.9498  -30.8051   21.3577 C   0  0  0  0  0  0
  -26.0235  -29.4305   20.7165 C   0  0  0  0  0  0
  -27.2062  -28.6409   20.7232 C   0  0  0  0  0  0
  -26.0317  -26.9155   19.4773 C   0  0  0  0  0  0
  -24.8587  -27.6893   19.4821 C   0  0  0  0  0  0
  -23.6263  -29.8177   20.1569 C   0  0  0  0  0  0
  -25.4101  -36.3113   24.0340 C   0  0  1  0  0  0
  -20.5885  -28.3695   23.1286 C   0  0  2  0  0  0
  -20.6768  -26.9414   22.5395 C   0  0  0  0  0  0
  -19.5748  -26.6392   21.5198 C   0  0  0  0  0  0
  -18.1934  -26.7933   22.1615 C   0  0  0  0  0  0
  -19.1535  -28.8852   23.2886 C   0  0  0  0  0  0
  -18.9458  -30.1448   23.8909 C   0  0  0  0  0  0
  -17.6458  -30.6576   24.0573 C   0  0  0  0  0  0
  -25.9023  -34.9464   23.5114 C   0  0  0  0  0  0
  -16.5344  -29.9084   23.6304 C   0  0  0  0  0  0
  -16.7272  -28.6506   23.0334 C   0  0  0  0  0  0
  -26.4496  -31.6566   25.0704 C   0  0  0  0  0  0
  -25.3759  -31.3712   26.1458 C   0  0  0  0  0  0
  -27.0279  -30.2995   24.6071 C   0  0  0  0  0  0
  -27.6081  -32.4255   25.7490 C   0  0  0  0  0  0
  -27.5585  -37.1820   24.8450 C   0  0  0  0  0  0
  -21.4195  -29.3052   22.3691 N   0  0  0  0  0  0
  -26.4284  -37.3801   23.9402 N   0  0  0  0  0  0
  -24.6847  -31.0653   22.0945 N   0  0  0  0  0  0
  -23.4212  -28.8146   23.2983 O   0  0  0  0  0  0
  -28.3011  -26.4940   20.1799 O   0  0  0  0  0  0
  -26.5601  -34.8928   22.4678 O   0  0  0  0  0  0
  -23.5421  -32.1371   23.7365 O   0  0  0  0  0  0
  -29.8022  -19.5887   18.9973 C   0  0  0  0  0  0
  -30.0326  -18.4249   18.2614 C   0  0  0  0  0  0
  -29.6379  -18.2228   21.0001 C   0  0  0  0  0  0
  -29.5176  -19.4989   20.3656 C   0  0  0  0  0  0
  -30.0106  -17.1475   18.8612 C   0  0  0  0  0  0
  -29.9259  -17.0013   20.2853 C   0  0  0  0  0  0
  -29.7068  -23.2082   21.2748 C   0  0  0  0  0  0
  -29.9591  -16.0007   17.8751 C   0  0  0  0  0  0
  -32.2910  -21.4208   21.9075 C   0  0  0  0  0  0
  -29.9029  -15.7870   22.4759 C   0  0  0  0  0  0
  -28.9201  -20.7532   21.0539 C   0  0  0  0  0  0
  -28.6718  -23.8729   20.3151 C   0  0  0  0  0  0
  -30.8479  -21.3645   22.4483 C   0  0  0  0  0  0
  -28.0084  -25.2110   20.8322 C   0  0  0  0  0  0
  -30.0369  -15.7097   21.0095 N   0  0  0  0  0  0
  -29.8419  -21.8459   21.4740 N   0  0  0  0  0  0
  -30.4559  -23.9907   21.8677 O   0  0  0  0  0  0
  -31.4671  -12.3694   19.2381 H   0  0  0  0  0  0
  -30.2340  -11.3609   19.9230 H   0  0  0  0  0  0
  -29.7668  -11.7265   17.4927 H   0  0  0  0  0  0
  -29.6938  -13.4285   17.7271 H   0  0  0  0  0  0
  -27.8551  -11.3135   18.8469 H   0  0  0  0  0  0
  -27.3807  -12.5955   17.7778 H   0  0  0  0  0  0
  -27.6726  -14.2794   19.5424 H   0  0  0  0  0  0
  -28.6653  -12.0603   21.3695 H   0  0  0  0  0  0
  -28.4131  -13.7131   21.8454 H   0  0  0  0  0  0
  -25.2745   -9.5577   22.4756 H   0  0  0  0  0  0
  -23.9923   -7.4563   22.7451 H   0  0  0  0  0  0
  -21.0817   -8.8774   19.8947 H   0  0  0  0  0  0
  -22.3745  -10.9604   19.6103 H   0  0  0  0  0  0
  -21.2024   -7.6125   23.9733 H   0  0  0  0  0  0
  -21.1529   -6.0495   25.9109 H   0  0  0  0  0  0
  -22.0567   -2.7552   23.2950 H   0  0  0  0  0  0
  -22.3955  -11.9747   22.4917 H   0  0  0  0  0  0
  -21.1051  -13.1156   22.2696 H   0  0  0  0  0  0
  -24.6745  -15.8618   20.5833 H   0  0  0  0  0  0
  -26.2710  -15.6379   20.0969 H   0  0  0  0  0  0
  -26.7182  -32.5483   23.1127 H   0  0  0  0  0  0
  -25.0080  -33.9704   25.0461 H   0  0  0  0  0  0
  -22.7112  -31.3052   21.3991 H   0  0  0  0  0  0
  -23.3701  -35.9723   23.3280 H   0  0  0  0  0  0
  -24.3608  -36.8975   22.2044 H   0  0  0  0  0  0
  -23.7268  -37.6578   23.6642 H   0  0  0  0  0  0
  -26.0429  -31.5457   20.5629 H   0  0  0  0  0  0
  -26.8502  -30.8855   21.9555 H   0  0  0  0  0  0
  -28.0986  -28.9880   21.2244 H   0  0  0  0  0  0
  -26.0011  -25.9484   18.9945 H   0  0  0  0  0  0
  -23.9636  -27.3110   19.0048 H   0  0  0  0  0  0
  -23.7424  -30.5889   19.3955 H   0  0  0  0  0  0
  -22.7502  -29.2389   19.8593 H   0  0  0  0  0  0
  -25.1255  -36.1977   25.0828 H   0  0  0  0  0  0
  -20.9989  -28.3241   24.1411 H   0  0  0  0  0  0
  -20.5662  -26.2293   23.3597 H   0  0  0  0  0  0
  -21.6640  -26.7423   22.1191 H   0  0  0  0  0  0
  -19.6900  -25.6312   21.1222 H   0  0  0  0  0  0
  -19.6683  -27.3208   20.6746 H   0  0  0  0  0  0
  -17.4199  -26.6684   21.4021 H   0  0  0  0  0  0
  -18.0323  -26.0060   22.9003 H   0  0  0  0  0  0
  -19.7939  -30.7256   24.2295 H   0  0  0  0  0  0
  -17.5009  -31.6259   24.5184 H   0  0  0  0  0  0
  -15.5350  -30.2995   23.7614 H   0  0  0  0  0  0
  -15.8683  -28.0831   22.7025 H   0  0  0  0  0  0
  -24.5927  -30.7049   25.7833 H   0  0  0  0  0  0
  -24.8961  -32.2879   26.4898 H   0  0  0  0  0  0
  -25.8114  -30.8910   27.0230 H   0  0  0  0  0  0
  -26.2792  -29.6786   24.1138 H   0  0  0  0  0  0
  -27.4048  -29.7202   25.4512 H   0  0  0  0  0  0
  -27.8641  -30.4291   23.9196 H   0  0  0  0  0  0
  -27.2723  -33.3560   26.2083 H   0  0  0  0  0  0
  -28.3923  -32.6783   25.0342 H   0  0  0  0  0  0
  -28.0709  -31.8347   26.5407 H   0  0  0  0  0  0
  -28.2574  -38.0147   24.7495 H   0  0  0  0  0  0
  -28.1107  -36.2670   24.6240 H   0  0  0  0  0  0
  -27.2327  -37.1430   25.8863 H   0  0  0  0  0  0
  -20.9364  -29.8835   21.6969 H   0  0  0  0  0  0
  -26.0176  -38.2874   24.1387 H   0  0  0  0  0  0
  -29.7402  -20.5326   18.4709 H   0  0  0  0  0  0
  -30.1492  -18.5126   17.1907 H   0  0  0  0  0  0
  -29.4395  -18.1918   22.0587 H   0  0  0  0  0  0
  -28.9963  -15.4944   17.9649 H   0  0  0  0  0  0
  -30.7879  -15.3149   18.0023 H   0  0  0  0  0  0
  -30.0461  -16.3545   16.8503 H   0  0  0  0  0  0
  -32.9842  -20.9711   22.6209 H   0  0  0  0  0  0
  -32.6295  -22.4452   21.7427 H   0  0  0  0  0  0
  -32.3828  -20.8781   20.9654 H   0  0  0  0  0  0
  -28.9023  -16.1417   22.7288 H   0  0  0  0  0  0
  -30.6235  -16.4932   22.8931 H   0  0  0  0  0  0
  -30.0493  -14.8391   23.0008 H   0  0  0  0  0  0
  -28.3592  -20.4246   21.9329 H   0  0  0  0  0  0
  -28.1596  -21.1288   20.3708 H   0  0  0  0  0  0
  -27.8548  -23.1836   20.1191 H   0  0  0  0  0  0
  -29.1494  -24.0356   19.3475 H   0  0  0  0  0  0
  -30.7755  -21.9432   23.3715 H   0  0  0  0  0  0
  -30.6329  -20.3417   22.7607 H   0  0  0  0  0  0
  -28.2164  -25.3432   21.8926 H   0  0  0  0  0  0
  -26.9361  -25.0099   20.8208 H   0  0  0  0  0  0
  1 25  1  0  0  0
  1 30  2  0  0  0
  1 85  1  0  0  0
  2  3  1  0  0  0
  2 25  1  0  0  0
  2 88  1  0  0  0
  2 89  1  0  0  0
  3  4  1  0  0  0
  3 90  1  0  0  0
  3 91  1  0  0  0
  4  5  1  0  0  0
  4 92  1  0  0  0
  4 93  1  0  0  0
  5  6  1  0  0  0
  5 26  1  0  0  0
  5 94  1  0  0  0
  6 25  1  0  0  0
  6 95  1  0  0  0
  6 96  1  0  0  0
  7  8  2  0  0  0
  7 26  1  0  0  0
  7 29  1  0  0  0
  8  9  1  0  0  0
  8 22  1  0  0  0
  9 10  1  0  0  0
  9 27  2  0  0  0
 10 11  2  0  0  0
 10 15  1  0  0  0
 11 12  1  0  0  0
 11 97  1  0  0  0
 12 13  2  0  0  0
 12 98  1  0  0  0
 13 14  1  0  0  0
 13 31  1  0  0  0
 14 15  2  0  0  0
 14 99  1  0  0  0
 15100  1  0  0  0
 16 17  2  0  0  0
 16 21  1  0  0  0
 16 31  1  0  0  0
 17 18  1  0  0  0
 17101  1  0  0  0
 18 19  2  0  0  0
 18102  1  0  0  0
 19 20  1  0  0  0
 19 24  1  0  0  0
 20 21  2  0  0  0
 20103  1  0  0  0
 21 23  1  0  0  0
 22 28  1  0  0  0
 22 32  2  0  0  0
 26 27  1  0  0  0
 28104  1  0  0  0
 28105  1  0  0  0
 29106  1  0  0  0
 29107  1  0  0  0
 33 34  1  0  0  0
 33 66  1  0  0  0
 33 70  2  0  0  0
 34 36  1  0  0  0
 34 59  1  0  0  0
 34108  1  0  0  0
 35 44  2  0  0  0
 35 45  1  0  0  0
 35 68  1  0  0  0
 36 56  1  0  0  0
 36109  1  0  0  0
 37 39  1  0  0  0
 37 47  1  0  0  0
 37 66  1  0  0  0
 37110  1  0  0  0
 38 43  2  0  0  0
 38 46  1  0  0  0
 38 47  1  0  0  0
 39 64  1  0  0  0
 39 67  2  0  0  0
 40 52  1  0  0  0
 40 53  2  0  0  0
 40 58  1  0  0  0
 41111  1  0  0  0
 41112  1  0  0  0
 41113  1  0  0  0
 41 48  1  0  0  0
 42 43  1  0  0  0
 42 66  1  0  0  0
 42114  1  0  0  0
 42115  1  0  0  0
 43 44  1  0  0  0
 44116  1  0  0  0
 45 46  2  0  0  0
 45117  1  0  0  0
 46118  1  0  0  0
 47119  1  0  0  0
 47120  1  0  0  0
 48 56  1  0  0  0
 48 65  1  0  0  0
 48121  1  0  0  0
 49 50  1  0  0  0
 49 53  1  0  0  0
 49 64  1  0  0  0
 49122  1  0  0  0
 50 51  1  0  0  0
 50123  1  0  0  0
 50124  1  0  0  0
 51 52  1  0  0  0
 51125  1  0  0  0
 51126  1  0  0  0
 52127  1  0  0  0
 52128  1  0  0  0
 53 54  1  0  0  0
 54 55  2  0  0  0
 54129  1  0  0  0
 55 57  1  0  0  0
 55130  1  0  0  0
 56 69  2  0  0  0
 57 58  2  0  0  0
 57131  1  0  0  0
 58132  1  0  0  0
 59 60  1  0  0  0
 59 61  1  0  0  0
 59 62  1  0  0  0
 60133  1  0  0  0
 60134  1  0  0  0
 60135  1  0  0  0
 61136  1  0  0  0
 61137  1  0  0  0
 61138  1  0  0  0
 62139  1  0  0  0
 62140  1  0  0  0
 62141  1  0  0  0
 63 65  1  0  0  0
 63142  1  0  0  0
 63143  1  0  0  0
 63144  1  0  0  0
 64145  1  0  0  0
 65146  1  0  0  0
 68 84  1  0  0  0
 71 72  2  0  0  0
 71 74  1  0  0  0
 71147  1  0  0  0
 72 75  1  0  0  0
 72148  1  0  0  0
 73 74  2  0  0  0
 73 76  1  0  0  0
 73149  1  0  0  0
 74 81  1  0  0  0
 75 76  2  0  0  0
 75 78  1  0  0  0
 76 85  1  0  0  0
 77 82  1  0  0  0
 77 86  1  0  0  0
 77 87  2  0  0  0
 78150  1  0  0  0
 78151  1  0  0  0
 78152  1  0  0  0
 79 83  1  0  0  0
 79153  1  0  0  0
 79154  1  0  0  0
 79155  1  0  0  0
 80 85  1  0  0  0
 80156  1  0  0  0
 80157  1  0  0  0
 80158  1  0  0  0
 81 86  1  0  0  0
 81159  1  0  0  0
 81160  1  0  0  0
 82 84  1  0  0  0
 82161  1  0  0  0
 82162  1  0  0  0
 83 86  1  0  0  0
 83163  1  0  0  0
 83164  1  0  0  0
 84165  1  0  0  0
 84166  1  0  0  0
M  ISO  4   1 100  68 101  84 101  85 100
M  END
> <chiral flag>
0

> <version>
0

> <s_m_source_file>
/data/baiqing/PycharmProjects/Reinvent-master-3.2/result/LINK_invent/BTK/process_docking_weight1_custom_product_contain_oxygen_bond_distance_aromatic_linkinvent_7_9_3/rearranged_h_0015.sdf

> <i_m_source_file_index>
4

> <r_mmod_Potential_Energy-OPLS-2005>
267.572570800781

> <r_mmod_Stretch_Energy-OPLS-2005>
79.8388900756836

> <r_mmod_Bend_Energy-OPLS-2005>
152.011779785156

> <r_mmod_Torsional_Energy-OPLS-2005>
333.548217773438

> <r_mmod_Improper_Torsional_Energy-OPLS-2005>
6.30193424224854

> <r_mmod_Van_der_Waal_Energy-OPLS-2005>
172.477096557617

> <r_mmod_Electrostatic_Energy-OPLS-2005>
-299.417663574219

> <r_mmod_Solvation_Energy-OPLS-2005>
-215.858963012695

> <b_mmod_Minimization_Converged-OPLS-2005>
0

> <r_mmod_RMS_Derivative-OPLS-2005>
6.964524269104

$$$$
4
                    3D
 Structure written by MMmdl.
151159  0  0  1  0            999 V2000
  -30.5356  -15.0618   20.3980 C   0  0  0  0  0  0
  -30.4452  -12.6803   19.4733 C   0  0  0  0  0  0
  -29.5101  -12.4737   18.2574 C   0  0  0  0  0  0
  -28.0701  -12.2323   18.7341 C   0  0  0  0  0  0
  -27.6077  -13.2496   19.8098 C   0  0  2  0  0  0
  -28.6545  -13.3927   20.9292 C   0  0  0  0  0  0
  -25.2379  -13.8192   20.5677 C   0  0  0  0  0  0
  -24.1679  -13.0377   20.9237 C   0  0  0  0  0  0
  -24.6338  -11.6903   20.8766 C   0  0  0  0  0  0
  -23.8990  -10.4261   21.0409 C   0  0  0  0  0  0
  -24.3555   -9.4198   21.9171 C   0  0  0  0  0  0
  -23.6266   -8.2186   22.0730 C   0  0  0  0  0  0
  -22.4249   -8.0201   21.3505 C   0  0  0  0  0  0
  -21.9868   -9.0164   20.4601 C   0  0  0  0  0  0
  -22.7171  -10.2086   20.3051 C   0  0  0  0  0  0
  -21.6826   -6.0661   22.5248 C   0  0  0  0  0  0
  -21.4006   -6.5597   23.8181 C   0  0  0  0  0  0
  -21.3681   -5.6760   24.9154 C   0  0  0  0  0  0
  -21.6050   -4.3021   24.7216 C   0  0  0  0  0  0
  -21.8818   -3.8087   23.4349 C   0  0  0  0  0  0
  -21.9202   -4.6889   22.3394 C   0  0  0  0  0  0
  -22.7720  -13.5141   21.1951 C   0  0  0  0  0  0
  -22.1653   -4.2064   21.0973 F   0  0  0  0  0  0
  -21.5661   -3.4529   25.7746 F   0  0  0  0  0  0
  -29.9066  -13.8169   20.2786 N   0  0  0  0  0  0
  -26.2764  -12.9411   20.3201 N   0  0  0  0  0  0
  -25.9264  -11.6541   20.5687 N   0  0  0  0  0  0
  -22.0420  -12.8068   22.0568 N   0  0  0  0  0  0
  -25.4148  -15.1862   20.4113 N   0  0  0  0  0  0
  -31.7695  -15.0525   20.3137 O   0  0  0  0  0  0
  -21.6624   -6.8776   21.4191 O   0  0  0  0  0  0
  -22.3405  -14.5437   20.6812 O   0  0  0  0  0  0
  -24.6549  -31.8375   23.1703 C   0  0  0  0  0  0
  -25.9289  -32.4625   23.8132 C   0  0  1  0  0  0
  -27.2163  -27.0604   20.1805 C   0  0  0  0  0  0
  -25.5970  -33.8414   24.2112 N   0  0  0  0  0  0
  -23.4594  -30.4488   21.5180 C   0  0  2  0  0  0
  -24.9096  -28.8581   20.1088 C   0  0  0  0  0  0
  -22.7623  -29.4524   22.4803 C   0  0  0  0  0  0
  -18.0301  -28.1425   22.8407 C   0  0  0  0  0  0
  -24.1546  -36.7331   23.2629 C   0  0  0  0  0  0
  -26.0117  -30.6978   21.3635 C   0  0  0  0  0  0
  -26.0883  -29.2910   20.7274 C   0  0  0  0  0  0
  -27.2422  -28.4092   20.7486 C   0  0  0  0  0  0
  -26.0113  -26.7515   19.5157 C   0  0  0  0  0  0
  -24.8906  -27.6093   19.4754 C   0  0  0  0  0  0
  -23.6916  -29.7645   20.1406 C   0  0  0  0  0  0
  -25.4131  -36.2982   24.0309 C   0  0  1  0  0  0
  -20.5908  -28.3789   23.1163 C   0  0  2  0  0  0
  -20.6816  -26.9503   22.5381 C   0  0  0  0  0  0
  -19.5801  -26.6413   21.5193 C   0  0  0  0  0  0
  -18.1957  -26.7930   22.1599 C   0  0  0  0  0  0
  -19.1551  -28.8925   23.2763 C   0  0  0  0  0  0
  -18.9500  -30.1467   23.8860 C   0  0  0  0  0  0
  -17.6523  -30.6617   24.0546 C   0  0  0  0  0  0
  -25.9072  -34.9365   23.5048 C   0  0  0  0  0  0
  -16.5385  -29.9144   23.6282 C   0  0  0  0  0  0
  -16.7295  -28.6542   23.0306 C   0  0  0  0  0  0
  -26.4568  -31.6427   25.0571 C   0  0  0  0  0  0
  -25.3780  -31.3624   26.1308 C   0  0  0  0  0  0
  -27.0419  -30.2788   24.6129 C   0  0  0  0  0  0
  -27.6075  -32.4182   25.7406 C   0  0  0  0  0  0
  -27.5576  -37.1834   24.8453 C   0  0  0  0  0  0
  -21.4322  -29.3153   22.3596 N   0  0  0  0  0  0
  -26.4296  -37.3720   23.9391 N   0  0  0  0  0  0
  -24.7294  -31.0165   22.0750 N   0  0  0  0  0  0
  -23.4180  -28.8146   23.3071 O   0  0  0  0  0  0
  -28.2339  -26.0148   20.2564 O   0  0  0  0  0  0
  -26.5686  -34.8894   22.4611 O   0  0  0  0  0  0
  -23.5655  -32.1271   23.6880 O   0  0  0  0  0  0
  -30.8086  -18.0661   21.7429 C   0  0  0  0  0  0
  -30.8505  -19.3331   22.3616 C   0  0  0  0  0  0
  -29.2505  -19.0295   20.1601 C   0  0  0  0  0  0
  -29.9550  -17.7904   20.6521 C   0  0  0  0  0  0
  -29.3450  -20.4377   20.7163 C   0  0  0  0  0  0
  -30.1266  -20.4631   21.9139 C   0  0  0  0  0  0
  -28.9009  -23.1671   20.3487 C   0  0  0  0  0  0
  -27.3163  -21.4334   19.5866 C   0  0  0  0  0  0
  -27.8711  -24.4768   20.0719 C   0  0  0  0  0  0
  -29.7982  -16.2942   20.2277 N   0  0  0  0  0  0
  -28.5789  -21.7410   20.2655 N   0  0  0  0  0  0
  -30.0632  -23.4924   20.5940 O   0  0  0  0  0  0
  -30.1169  -21.8040   23.0014 Cl  0  0  0  0  0  0
  -31.4632  -12.8661   19.1172 H   0  0  0  0  0  0
  -30.4941  -11.7666   20.0700 H   0  0  0  0  0  0
  -29.8509  -11.6095   17.6829 H   0  0  0  0  0  0
  -29.5521  -13.3326   17.5893 H   0  0  0  0  0  0
  -28.0627  -11.2396   19.1830 H   0  0  0  0  0  0
  -27.3673  -12.1776   17.9023 H   0  0  0  0  0  0
  -27.5249  -14.2094   19.2975 H   0  0  0  0  0  0
  -28.7750  -12.4484   21.4653 H   0  0  0  0  0  0
  -28.3193  -14.1299   21.6667 H   0  0  0  0  0  0
  -25.2694   -9.5633   22.4789 H   0  0  0  0  0  0
  -23.9936   -7.4532   22.7489 H   0  0  0  0  0  0
  -21.0773   -8.8656   19.8899 H   0  0  0  0  0  0
  -22.3582  -10.9605   19.6163 H   0  0  0  0  0  0
  -21.1987   -7.6099   23.9657 H   0  0  0  0  0  0
  -21.1535   -6.0498   25.9051 H   0  0  0  0  0  0
  -22.0613   -2.7550   23.2884 H   0  0  0  0  0  0
  -22.4046  -11.9688   22.4839 H   0  0  0  0  0  0
  -21.1037  -13.1029   22.2902 H   0  0  0  0  0  0
  -24.6522  -15.8521   20.4792 H   0  0  0  0  0  0
  -26.2787  -15.6142   20.1011 H   0  0  0  0  0  0
  -26.7363  -32.5258   23.0864 H   0  0  0  0  0  0
  -25.0030  -33.9478   25.0185 H   0  0  0  0  0  0
  -22.7636  -31.2725   21.3461 H   0  0  0  0  0  0
  -23.3741  -35.9753   23.3252 H   0  0  0  0  0  0
  -24.3641  -36.8994   22.2055 H   0  0  0  0  0  0
  -23.7444  -37.6570   23.6698 H   0  0  0  0  0  0
  -26.1369  -31.4401   20.5696 H   0  0  0  0  0  0
  -26.8899  -30.7768   21.9951 H   0  0  0  0  0  0
  -28.1324  -28.7364   21.2627 H   0  0  0  0  0  0
  -25.8942  -25.7855   19.0403 H   0  0  0  0  0  0
  -24.0032  -27.2834   18.9506 H   0  0  0  0  0  0
  -23.8418  -30.5260   19.3770 H   0  0  0  0  0  0
  -22.8122  -29.2084   19.8150 H   0  0  0  0  0  0
  -25.1345  -36.1779   25.0822 H   0  0  0  0  0  0
  -20.9892  -28.3451   24.1329 H   0  0  0  0  0  0
  -20.5707  -26.2499   23.3660 H   0  0  0  0  0  0
  -21.6692  -26.7586   22.1219 H   0  0  0  0  0  0
  -19.7031  -25.6319   21.1266 H   0  0  0  0  0  0
  -19.6668  -27.3180   20.6657 H   0  0  0  0  0  0
  -17.4249  -26.6553   21.3995 H   0  0  0  0  0  0
  -18.0416  -26.0073   22.9005 H   0  0  0  0  0  0
  -19.8003  -30.7204   24.2267 H   0  0  0  0  0  0
  -17.5132  -31.6256   24.5228 H   0  0  0  0  0  0
  -15.5407  -30.3099   23.7628 H   0  0  0  0  0  0
  -15.8652  -28.0878   22.7075 H   0  0  0  0  0  0
  -24.5997  -30.6893   25.7689 H   0  0  0  0  0  0
  -24.8971  -32.2825   26.4640 H   0  0  0  0  0  0
  -25.8156  -30.8901   27.0121 H   0  0  0  0  0  0
  -26.2987  -29.6462   24.1273 H   0  0  0  0  0  0
  -27.4147  -29.7109   25.4663 H   0  0  0  0  0  0
  -27.8838  -30.3941   23.9308 H   0  0  0  0  0  0
  -27.2584  -33.3465   26.1932 H   0  0  0  0  0  0
  -28.3940  -32.6744   25.0299 H   0  0  0  0  0  0
  -28.0669  -31.8328   26.5388 H   0  0  0  0  0  0
  -28.2603  -38.0114   24.7415 H   0  0  0  0  0  0
  -28.1060  -36.2642   24.6360 H   0  0  0  0  0  0
  -27.2292  -37.1571   25.8854 H   0  0  0  0  0  0
  -20.9642  -29.8872   21.6711 H   0  0  0  0  0  0
  -26.0147  -38.2818   24.1258 H   0  0  0  0  0  0
  -31.3769  -17.2801   22.2149 H   0  0  0  0  0  0
  -31.4127  -19.4269   23.2840 H   0  0  0  0  0  0
  -28.5713  -18.8819   19.3328 H   0  0  0  0  0  0
  -27.5083  -21.1552   18.5505 H   0  0  0  0  0  0
  -26.5831  -22.2383   19.5962 H   0  0  0  0  0  0
  -26.8480  -20.5831   20.0757 H   0  0  0  0  0  0
  -27.5557  -24.3581   19.0337 H   0  0  0  0  0  0
  -27.0019  -24.2877   20.6987 H   0  0  0  0  0  0
  -28.9576  -16.1088   19.7024 H   0  0  0  0  0  0
  1 25  1  0  0  0
  1 30  2  0  0  0
  1 80  1  0  0  0
  2  3  1  0  0  0
  2 25  1  0  0  0
  2 84  1  0  0  0
  2 85  1  0  0  0
  3  4  1  0  0  0
  3 86  1  0  0  0
  3 87  1  0  0  0
  4  5  1  0  0  0
  4 88  1  0  0  0
  4 89  1  0  0  0
  5  6  1  0  0  0
  5 26  1  0  0  0
  5 90  1  0  0  0
  6 25  1  0  0  0
  6 91  1  0  0  0
  6 92  1  0  0  0
  7  8  2  0  0  0
  7 26  1  0  0  0
  7 29  1  0  0  0
  8  9  1  0  0  0
  8 22  1  0  0  0
  9 10  1  0  0  0
  9 27  2  0  0  0
 10 11  2  0  0  0
 10 15  1  0  0  0
 11 12  1  0  0  0
 11 93  1  0  0  0
 12 13  2  0  0  0
 12 94  1  0  0  0
 13 14  1  0  0  0
 13 31  1  0  0  0
 14 15  2  0  0  0
 14 95  1  0  0  0
 15 96  1  0  0  0
 16 17  2  0  0  0
 16 21  1  0  0  0
 16 31  1  0  0  0
 17 18  1  0  0  0
 17 97  1  0  0  0
 18 19  2  0  0  0
 18 98  1  0  0  0
 19 20  1  0  0  0
 19 24  1  0  0  0
 20 21  2  0  0  0
 20 99  1  0  0  0
 21 23  1  0  0  0
 22 28  1  0  0  0
 22 32  2  0  0  0
 26 27  1  0  0  0
 28100  1  0  0  0
 28101  1  0  0  0
 29102  1  0  0  0
 29103  1  0  0  0
 33 34  1  0  0  0
 33 66  1  0  0  0
 33 70  2  0  0  0
 34 36  1  0  0  0
 34 59  1  0  0  0
 34104  1  0  0  0
 35 44  2  0  0  0
 35 45  1  0  0  0
 35 68  1  0  0  0
 36 56  1  0  0  0
 36105  1  0  0  0
 37 39  1  0  0  0
 37 47  1  0  0  0
 37 66  1  0  0  0
 37106  1  0  0  0
 38 43  2  0  0  0
 38 46  1  0  0  0
 38 47  1  0  0  0
 39 64  1  0  0  0
 39 67  2  0  0  0
 40 52  1  0  0  0
 40 53  2  0  0  0
 40 58  1  0  0  0
 41107  1  0  0  0
 41108  1  0  0  0
 41109  1  0  0  0
 41 48  1  0  0  0
 42 43  1  0  0  0
 42 66  1  0  0  0
 42110  1  0  0  0
 42111  1  0  0  0
 43 44  1  0  0  0
 44112  1  0  0  0
 45 46  2  0  0  0
 45113  1  0  0  0
 46114  1  0  0  0
 47115  1  0  0  0
 47116  1  0  0  0
 48 56  1  0  0  0
 48 65  1  0  0  0
 48117  1  0  0  0
 49 50  1  0  0  0
 49 53  1  0  0  0
 49 64  1  0  0  0
 49118  1  0  0  0
 50 51  1  0  0  0
 50119  1  0  0  0
 50120  1  0  0  0
 51 52  1  0  0  0
 51121  1  0  0  0
 51122  1  0  0  0
 52123  1  0  0  0
 52124  1  0  0  0
 53 54  1  0  0  0
 54 55  2  0  0  0
 54125  1  0  0  0
 55 57  1  0  0  0
 55126  1  0  0  0
 56 69  2  0  0  0
 57 58  2  0  0  0
 57127  1  0  0  0
 58128  1  0  0  0
 59 60  1  0  0  0
 59 61  1  0  0  0
 59 62  1  0  0  0
 60129  1  0  0  0
 60130  1  0  0  0
 60131  1  0  0  0
 61132  1  0  0  0
 61133  1  0  0  0
 61134  1  0  0  0
 62135  1  0  0  0
 62136  1  0  0  0
 62137  1  0  0  0
 63 65  1  0  0  0
 63138  1  0  0  0
 63139  1  0  0  0
 63140  1  0  0  0
 64141  1  0  0  0
 65142  1  0  0  0
 68 79  1  0  0  0
 71 72  2  0  0  0
 71 74  1  0  0  0
 71143  1  0  0  0
 72 76  1  0  0  0
 72144  1  0  0  0
 73 74  2  0  0  0
 73 75  1  0  0  0
 73145  1  0  0  0
 74 80  1  0  0  0
 75 76  2  0  0  0
 75 81  1  0  0  0
 76 83  1  0  0  0
 77 79  1  0  0  0
 77 81  1  0  0  0
 77 82  2  0  0  0
 78 81  1  0  0  0
 78146  1  0  0  0
 78147  1  0  0  0
 78148  1  0  0  0
 79149  1  0  0  0
 79150  1  0  0  0
 80151  1  0  0  0
M  ISO  4   1 100  68 101  79 101  80 100
M  END
> <chiral flag>
0

> <version>
0

> <s_m_source_file>
/data/baiqing/PycharmProjects/Reinvent-master-3.2/result/LINK_invent/BTK/process_docking_weight1_custom_product_contain_oxygen_bond_distance_aromatic_linkinvent_7_9_3/rearranged_h_0015.sdf

> <i_m_source_file_index>
5

> <r_mmod_Potential_Energy-OPLS-2005>
779.084899902344

> <r_mmod_Stretch_Energy-OPLS-2005>
352.179412841797

> <r_mmod_Bend_Energy-OPLS-2005>
273.630004882812

> <r_mmod_Torsional_Energy-OPLS-2005>
279.610412597656

> <r_mmod_Improper_Torsional_Energy-OPLS-2005>
12.3576421737671

> <r_mmod_Van_der_Waal_Energy-OPLS-2005>
139.155120849609

> <r_mmod_Electrostatic_Energy-OPLS-2005>
-329.922058105469

> <r_mmod_Solvation_Energy-OPLS-2005>
-241.998764038086

> <b_mmod_Minimization_Converged-OPLS-2005>
0

> <r_mmod_RMS_Derivative-OPLS-2005>
10.519118309021

$$$$
5
                    3D
 Structure written by MMmdl.
159168  0  0  1  0            999 V2000
  -30.5110  -14.9754   20.4856 C   0  0  0  0  0  0
  -30.4579  -12.6136   19.5388 C   0  0  0  0  0  0
  -29.5649  -12.5087   18.2820 C   0  0  0  0  0  0
  -28.0976  -12.2630   18.6882 C   0  0  0  0  0  0
  -27.6358  -13.2300   19.8150 C   0  0  2  0  0  0
  -28.6483  -13.2706   20.9765 C   0  0  0  0  0  0
  -25.2523  -13.8139   20.5605 C   0  0  0  0  0  0
  -24.1843  -13.0400   20.9183 C   0  0  0  0  0  0
  -24.6421  -11.6883   20.8737 C   0  0  0  0  0  0
  -23.9126  -10.4274   21.0432 C   0  0  0  0  0  0
  -24.3663   -9.4188   21.9197 C   0  0  0  0  0  0
  -23.6345   -8.2228   22.0762 C   0  0  0  0  0  0
  -22.4321   -8.0294   21.3543 C   0  0  0  0  0  0
  -21.9941   -9.0300   20.4661 C   0  0  0  0  0  0
  -22.7316  -10.2159   20.3074 C   0  0  0  0  0  0
  -21.6866   -6.0721   22.5224 C   0  0  0  0  0  0
  -21.4056   -6.5604   23.8167 C   0  0  0  0  0  0
  -21.3676   -5.6748   24.9114 C   0  0  0  0  0  0
  -21.6029   -4.3011   24.7157 C   0  0  0  0  0  0
  -21.8855   -3.8115   23.4285 C   0  0  0  0  0  0
  -21.9221   -4.6945   22.3345 C   0  0  0  0  0  0
  -22.7884  -13.5223   21.1868 C   0  0  0  0  0  0
  -22.1685   -4.2115   21.0933 F   0  0  0  0  0  0
  -21.5651   -3.4497   25.7687 F   0  0  0  0  0  0
  -29.9323  -13.7078   20.4099 N   0  0  0  0  0  0
  -26.2900  -12.9343   20.3033 N   0  0  0  0  0  0
  -25.9305  -11.6514   20.5591 N   0  0  0  0  0  0
  -22.0446  -12.8265   22.0411 N   0  0  0  0  0  0
  -25.4128  -15.1877   20.4127 N   0  0  0  0  0  0
  -31.6816  -15.0676   20.0876 O   0  0  0  0  0  0
  -21.6707   -6.8888   21.4203 O   0  0  0  0  0  0
  -22.3593  -14.5520   20.6705 O   0  0  0  0  0  0
  -24.6398  -31.8482   23.1977 C   0  0  0  0  0  0
  -25.9173  -32.4771   23.8369 C   0  0  1  0  0  0
  -27.2171  -27.1690   20.1673 C   0  0  0  0  0  0
  -25.5978  -33.8575   24.2315 N   0  0  0  0  0  0
  -23.4416  -30.4678   21.5408 C   0  0  2  0  0  0
  -24.8912  -28.8963   20.1086 C   0  0  0  0  0  0
  -22.7543  -29.4515   22.4891 C   0  0  0  0  0  0
  -18.0339  -28.1311   22.8526 C   0  0  0  0  0  0
  -24.1449  -36.7233   23.2639 C   0  0  0  0  0  0
  -25.9941  -30.7362   21.3880 C   0  0  0  0  0  0
  -26.0640  -29.3503   20.7264 C   0  0  0  0  0  0
  -27.2228  -28.5029   20.7406 C   0  0  0  0  0  0
  -26.0146  -26.7948   19.5215 C   0  0  0  0  0  0
  -24.8813  -27.6339   19.4882 C   0  0  0  0  0  0
  -23.6684  -29.7966   20.1598 C   0  0  0  0  0  0
  -25.4109  -36.3135   24.0363 C   0  0  1  0  0  0
  -20.5928  -28.3645   23.1221 C   0  0  2  0  0  0
  -20.6821  -26.9347   22.5361 C   0  0  0  0  0  0
  -19.5758  -26.6326   21.5182 C   0  0  0  0  0  0
  -18.1974  -26.7896   22.1635 C   0  0  0  0  0  0
  -19.1581  -28.8782   23.2917 C   0  0  0  0  0  0
  -18.9503  -30.1402   23.8901 C   0  0  0  0  0  0
  -17.6488  -30.6536   24.0463 C   0  0  0  0  0  0
  -25.9040  -34.9475   23.5158 C   0  0  0  0  0  0
  -16.5374  -29.9004   23.6289 C   0  0  0  0  0  0
  -16.7323  -28.6376   23.0429 C   0  0  0  0  0  0
  -26.4514  -31.6629   25.0787 C   0  0  0  0  0  0
  -25.3712  -31.3748   26.1469 C   0  0  0  0  0  0
  -27.0301  -30.3033   24.6307 C   0  0  0  0  0  0
  -27.6109  -32.4393   25.7471 C   0  0  0  0  0  0
  -27.5588  -37.1777   24.8498 C   0  0  0  0  0  0
  -21.4235  -29.3029   22.3616 N   0  0  0  0  0  0
  -26.4308  -37.3844   23.9449 N   0  0  0  0  0  0
  -24.7126  -31.0397   22.0963 N   0  0  0  0  0  0
  -23.4206  -28.8085   23.3050 O   0  0  0  0  0  0
  -28.2860  -26.2269   20.3021 O   0  0  0  0  0  0
  -26.5547  -34.8956   22.4678 O   0  0  0  0  0  0
  -23.5520  -32.1272   23.7200 O   0  0  0  0  0  0
  -30.4626  -20.0008   20.6025 C   0  0  0  0  0  0
  -30.6774  -18.5664   20.6596 C   0  0  0  0  0  0
  -28.1607  -19.6797   20.2767 C   0  0  0  0  0  0
  -29.1979  -20.6793   20.4367 C   0  0  0  0  0  0
  -29.6404  -17.5782   20.5695 C   0  0  0  0  0  0
  -28.3683  -18.2268   20.3451 C   0  0  0  0  0  0
  -28.3689  -23.4153   22.5190 C   0  0  0  0  0  0
  -27.2464  -23.3763   21.4726 C   0  0  0  0  0  0
  -29.5456  -22.6262   21.8798 C   0  0  0  0  0  0
  -28.0406  -23.2649   20.1850 C   0  0  2  0  0  0
  -29.7950  -16.0440   22.4782 C   0  0  0  0  0  0
  -28.4446  -24.8284   19.6647 C   0  0  0  0  0  0
  -29.1006  -22.1824   20.5408 N   0  0  0  0  0  0
  -29.8083  -16.1045   21.0086 N   0  0  0  0  0  0
  -27.2669  -17.4385   20.2335 F   0  0  0  0  0  0
  -31.4990  -12.7714   19.2500 H   0  0  0  0  0  0
  -30.4702  -11.6786   20.0970 H   0  0  0  0  0  0
  -29.9253  -11.6930   17.6525 H   0  0  0  0  0  0
  -29.6465  -13.4196   17.6861 H   0  0  0  0  0  0
  -28.0404  -11.2353   19.0534 H   0  0  0  0  0  0
  -27.4387  -12.3192   17.8195 H   0  0  0  0  0  0
  -27.6111  -14.2249   19.3611 H   0  0  0  0  0  0
  -28.7318  -12.3003   21.4805 H   0  0  0  0  0  0
  -28.2953  -13.9656   21.7352 H   0  0  0  0  0  0
  -25.2787   -9.5669   22.4803 H   0  0  0  0  0  0
  -24.0042   -7.4599   22.7439 H   0  0  0  0  0  0
  -21.0882   -8.8889   19.8937 H   0  0  0  0  0  0
  -22.3820  -10.9750   19.6228 H   0  0  0  0  0  0
  -21.2084   -7.6110   23.9677 H   0  0  0  0  0  0
  -21.1468   -6.0455   25.9022 H   0  0  0  0  0  0
  -22.0643   -2.7572   23.2772 H   0  0  0  0  0  0
  -22.4069  -12.0035   22.4959 H   0  0  0  0  0  0
  -21.1026  -13.1342   22.2452 H   0  0  0  0  0  0
  -24.6380  -15.8203   20.5668 H   0  0  0  0  0  0
  -26.2638  -15.6646   20.1367 H   0  0  0  0  0  0
  -26.7246  -32.5325   23.1081 H   0  0  0  0  0  0
  -25.0452  -33.9726   25.0681 H   0  0  0  0  0  0
  -22.7373  -31.2885   21.3815 H   0  0  0  0  0  0
  -23.3836  -35.9451   23.3291 H   0  0  0  0  0  0
  -24.3585  -36.8825   22.2077 H   0  0  0  0  0  0
  -23.7011  -37.6367   23.6581 H   0  0  0  0  0  0
  -26.1572  -31.5023   20.6277 H   0  0  0  0  0  0
  -26.8587  -30.7677   22.0393 H   0  0  0  0  0  0
  -28.1038  -28.8607   21.2680 H   0  0  0  0  0  0
  -25.9183  -25.8048   19.1049 H   0  0  0  0  0  0
  -23.9808  -27.2654   19.0094 H   0  0  0  0  0  0
  -23.8022  -30.5615   19.3971 H   0  0  0  0  0  0
  -22.7820  -29.2415   19.8570 H   0  0  0  0  0  0
  -25.1295  -36.2045   25.0883 H   0  0  0  0  0  0
  -21.0023  -28.3223   24.1322 H   0  0  0  0  0  0
  -20.5738  -26.2275   23.3613 H   0  0  0  0  0  0
  -21.6711  -26.7442   22.1085 H   0  0  0  0  0  0
  -19.6957  -25.6231   21.1244 H   0  0  0  0  0  0
  -19.6662  -27.3080   20.6657 H   0  0  0  0  0  0
  -17.4250  -26.6649   21.4023 H   0  0  0  0  0  0
  -18.0360  -26.0022   22.9016 H   0  0  0  0  0  0
  -19.7991  -30.7212   24.2241 H   0  0  0  0  0  0
  -17.5060  -31.6212   24.5049 H   0  0  0  0  0  0
  -15.5377  -30.2887   23.7564 H   0  0  0  0  0  0
  -15.8779  -28.0591   22.7239 H   0  0  0  0  0  0
  -24.5893  -30.7138   25.7701 H   0  0  0  0  0  0
  -24.8876  -32.2862   26.4962 H   0  0  0  0  0  0
  -25.7979  -30.8813   27.0179 H   0  0  0  0  0  0
  -26.2832  -29.6823   24.1340 H   0  0  0  0  0  0
  -27.3923  -29.7360   25.4872 H   0  0  0  0  0  0
  -27.8791  -30.4353   23.9606 H   0  0  0  0  0  0
  -27.2816  -33.3801   26.1883 H   0  0  0  0  0  0
  -28.3866  -32.6740   25.0173 H   0  0  0  0  0  0
  -28.0793  -31.8625   26.5440 H   0  0  0  0  0  0
  -28.2634  -38.0053   24.7641 H   0  0  0  0  0  0
  -28.1042  -36.2598   24.6222 H   0  0  0  0  0  0
  -27.2300  -37.1337   25.8895 H   0  0  0  0  0  0
  -20.9424  -29.8749   21.6785 H   0  0  0  0  0  0
  -26.0209  -38.2929   24.1492 H   0  0  0  0  0  0
  -31.3527  -20.6029   20.7330 H   0  0  0  0  0  0
  -31.6868  -18.2296   20.8602 H   0  0  0  0  0  0
  -27.1359  -19.9971   20.1569 H   0  0  0  0  0  0
  -28.0445  -23.0214   23.4878 H   0  0  0  0  0  0
  -28.6761  -24.4500   22.7079 H   0  0  0  0  0  0
  -26.5852  -24.2478   21.4866 H   0  0  0  0  0  0
  -26.6252  -22.4846   21.5923 H   0  0  0  0  0  0
  -29.8299  -21.7860   22.5181 H   0  0  0  0  0  0
  -30.4375  -23.2527   21.8142 H   0  0  0  0  0  0
  -27.3831  -22.8605   19.4077 H   0  0  0  0  0  0
  -28.8616  -16.4271   22.8957 H   0  0  0  0  0  0
  -30.6034  -16.6644   22.8716 H   0  0  0  0  0  0
  -29.9421  -15.0402   22.8972 H   0  0  0  0  0  0
  -28.0402  -24.9326   18.6541 H   0  0  0  0  0  0
  -29.5189  -24.7887   19.4893 H   0  0  0  0  0  0
  1 25  1  0  0  0
  1 30  2  0  0  0
  1 84  1  0  0  0
  2  3  1  0  0  0
  2 25  1  0  0  0
  2 86  1  0  0  0
  2 87  1  0  0  0
  3  4  1  0  0  0
  3 88  1  0  0  0
  3 89  1  0  0  0
  4  5  1  0  0  0
  4 90  1  0  0  0
  4 91  1  0  0  0
  5  6  1  0  0  0
  5 26  1  0  0  0
  5 92  1  0  0  0
  6 25  1  0  0  0
  6 93  1  0  0  0
  6 94  1  0  0  0
  7  8  2  0  0  0
  7 26  1  0  0  0
  7 29  1  0  0  0
  8  9  1  0  0  0
  8 22  1  0  0  0
  9 10  1  0  0  0
  9 27  2  0  0  0
 10 11  2  0  0  0
 10 15  1  0  0  0
 11 12  1  0  0  0
 11 95  1  0  0  0
 12 13  2  0  0  0
 12 96  1  0  0  0
 13 14  1  0  0  0
 13 31  1  0  0  0
 14 15  2  0  0  0
 14 97  1  0  0  0
 15 98  1  0  0  0
 16 17  2  0  0  0
 16 21  1  0  0  0
 16 31  1  0  0  0
 17 18  1  0  0  0
 17 99  1  0  0  0
 18 19  2  0  0  0
 18100  1  0  0  0
 19 20  1  0  0  0
 19 24  1  0  0  0
 20 21  2  0  0  0
 20101  1  0  0  0
 21 23  1  0  0  0
 22 28  1  0  0  0
 22 32  2  0  0  0
 26 27  1  0  0  0
 28102  1  0  0  0
 28103  1  0  0  0
 29104  1  0  0  0
 29105  1  0  0  0
 33 34  1  0  0  0
 33 66  1  0  0  0
 33 70  2  0  0  0
 34 36  1  0  0  0
 34 59  1  0  0  0
 34106  1  0  0  0
 35 44  2  0  0  0
 35 45  1  0  0  0
 35 68  1  0  0  0
 36 56  1  0  0  0
 36107  1  0  0  0
 37 39  1  0  0  0
 37 47  1  0  0  0
 37 66  1  0  0  0
 37108  1  0  0  0
 38 43  2  0  0  0
 38 46  1  0  0  0
 38 47  1  0  0  0
 39 64  1  0  0  0
 39 67  2  0  0  0
 40 52  1  0  0  0
 40 53  2  0  0  0
 40 58  1  0  0  0
 41109  1  0  0  0
 41110  1  0  0  0
 41111  1  0  0  0
 41 48  1  0  0  0
 42 43  1  0  0  0
 42 66  1  0  0  0
 42112  1  0  0  0
 42113  1  0  0  0
 43 44  1  0  0  0
 44114  1  0  0  0
 45 46  2  0  0  0
 45115  1  0  0  0
 46116  1  0  0  0
 47117  1  0  0  0
 47118  1  0  0  0
 48 56  1  0  0  0
 48 65  1  0  0  0
 48119  1  0  0  0
 49 50  1  0  0  0
 49 53  1  0  0  0
 49 64  1  0  0  0
 49120  1  0  0  0
 50 51  1  0  0  0
 50121  1  0  0  0
 50122  1  0  0  0
 51 52  1  0  0  0
 51123  1  0  0  0
 51124  1  0  0  0
 52125  1  0  0  0
 52126  1  0  0  0
 53 54  1  0  0  0
 54 55  2  0  0  0
 54127  1  0  0  0
 55 57  1  0  0  0
 55128  1  0  0  0
 56 69  2  0  0  0
 57 58  2  0  0  0
 57129  1  0  0  0
 58130  1  0  0  0
 59 60  1  0  0  0
 59 61  1  0  0  0
 59 62  1  0  0  0
 60131  1  0  0  0
 60132  1  0  0  0
 60133  1  0  0  0
 61134  1  0  0  0
 61135  1  0  0  0
 61136  1  0  0  0
 62137  1  0  0  0
 62138  1  0  0  0
 62139  1  0  0  0
 63 65  1  0  0  0
 63140  1  0  0  0
 63141  1  0  0  0
 63142  1  0  0  0
 64143  1  0  0  0
 65144  1  0  0  0
 68 82  1  0  0  0
 71 72  2  0  0  0
 71 74  1  0  0  0
 71145  1  0  0  0
 72 75  1  0  0  0
 72146  1  0  0  0
 73 74  2  0  0  0
 73 76  1  0  0  0
 73147  1  0  0  0
 74 83  1  0  0  0
 75 76  2  0  0  0
 75 84  1  0  0  0
 76 85  1  0  0  0
 77 78  1  0  0  0
 77 79  1  0  0  0
 77148  1  0  0  0
 77149  1  0  0  0
 78 80  1  0  0  0
 78150  1  0  0  0
 78151  1  0  0  0
 79 83  1  0  0  0
 79152  1  0  0  0
 79153  1  0  0  0
 80 82  1  0  0  0
 80 83  1  0  0  0
 80154  1  0  0  0
 81 84  1  0  0  0
 81155  1  0  0  0
 81156  1  0  0  0
 81157  1  0  0  0
 82158  1  0  0  0
 82159  1  0  0  0
M  ISO  4   1 100  68 101  82 101  84 100
M  END
> <chiral flag>
0

> <version>
0

> <s_m_source_file>
/data/baiqing/PycharmProjects/Reinvent-master-3.2/result/LINK_invent/BTK/process_docking_weight1_custom_product_contain_oxygen_bond_distance_aromatic_linkinvent_7_9_3/rearranged_h_0015.sdf

> <i_m_source_file_index>
6

> <r_mmod_Potential_Energy-OPLS-2005>
813.602844238281

> <r_mmod_Stretch_Energy-OPLS-2005>
241.882858276367

> <r_mmod_Bend_Energy-OPLS-2005>
363.513031005859

> <r_mmod_Torsional_Energy-OPLS-2005>
395.165618896484

> <r_mmod_Improper_Torsional_Energy-OPLS-2005>
11.7154388427734

> <r_mmod_Van_der_Waal_Energy-OPLS-2005>
126.11417388916

> <r_mmod_Electrostatic_Energy-OPLS-2005>
-322.089172363281

> <r_mmod_Solvation_Energy-OPLS-2005>
-198.381301879883

> <b_mmod_Minimization_Converged-OPLS-2005>
0

> <r_mmod_RMS_Derivative-OPLS-2005>
10.8069276809692

$$$$
6
                    3D
 Structure written by MMmdl.
159167  0  0  1  0            999 V2000
  -30.6630  -14.4738   20.5996 C   0  0  0  0  0  0
  -30.4355  -12.3140   19.4136 C   0  0  0  0  0  0
  -29.4986  -12.5085   18.2018 C   0  0  0  0  0  0
  -28.0175  -12.3685   18.6113 C   0  0  0  0  0  0
  -27.6649  -13.1945   19.8765 C   0  0  2  0  0  0
  -28.7032  -12.9387   20.9915 C   0  0  0  0  0  0
  -25.2618  -13.8126   20.5646 C   0  0  0  0  0  0
  -24.1855  -13.0433   20.9168 C   0  0  0  0  0  0
  -24.6384  -11.6890   20.8729 C   0  0  0  0  0  0
  -23.9041  -10.4287   21.0401 C   0  0  0  0  0  0
  -24.3601   -9.4212   21.9185 C   0  0  0  0  0  0
  -23.6284   -8.2243   22.0757 C   0  0  0  0  0  0
  -22.4268   -8.0276   21.3539 C   0  0  0  0  0  0
  -21.9897   -9.0247   20.4645 C   0  0  0  0  0  0
  -22.7214  -10.2130   20.3053 C   0  0  0  0  0  0
  -21.6854   -6.0733   22.5279 C   0  0  0  0  0  0
  -21.4013   -6.5640   23.8212 C   0  0  0  0  0  0
  -21.3659   -5.6793   24.9174 C   0  0  0  0  0  0
  -21.6039   -4.3054   24.7228 C   0  0  0  0  0  0
  -21.8822   -3.8146   23.4350 C   0  0  0  0  0  0
  -21.9193   -4.6960   22.3401 C   0  0  0  0  0  0
  -22.7881  -13.5245   21.1833 C   0  0  0  0  0  0
  -22.1663   -4.2143   21.0978 F   0  0  0  0  0  0
  -21.5629   -3.4536   25.7744 F   0  0  0  0  0  0
  -30.0345  -13.2749   20.4521 N   0  0  0  0  0  0
  -26.3035  -12.9269   20.3338 N   0  0  0  0  0  0
  -25.9303  -11.6444   20.5737 N   0  0  0  0  0  0
  -22.0512  -12.8244   22.0389 N   0  0  0  0  0  0
  -25.4383  -15.1844   20.4027 N   0  0  0  0  0  0
  -31.7797  -14.7061   20.1238 O   0  0  0  0  0  0
  -21.6637   -6.8872   21.4237 O   0  0  0  0  0  0
  -22.3577  -14.5557   20.6685 O   0  0  0  0  0  0
  -24.6132  -31.8671   23.2078 C   0  0  0  0  0  0
  -25.9020  -32.4823   23.8375 C   0  0  1  0  0  0
  -27.2381  -27.4349   20.0977 C   0  0  0  0  0  0
  -25.5865  -33.8618   24.2302 N   0  0  0  0  0  0
  -23.4013  -30.4891   21.5498 C   0  0  2  0  0  0
  -24.8486  -28.9521   20.1190 C   0  0  0  0  0  0
  -22.7403  -29.4641   22.4993 C   0  0  0  0  0  0
  -18.0266  -28.1369   22.8495 C   0  0  0  0  0  0
  -24.1484  -36.7323   23.2636 C   0  0  0  0  0  0
  -25.9290  -30.8363   21.3582 C   0  0  0  0  0  0
  -26.0092  -29.4698   20.7069 C   0  0  0  0  0  0
  -27.2079  -28.7202   20.6877 C   0  0  0  0  0  0
  -26.0573  -26.9271   19.5111 C   0  0  0  0  0  0
  -24.8667  -27.6794   19.5202 C   0  0  0  0  0  0
  -23.6106  -29.8187   20.1662 C   0  0  0  0  0  0
  -25.4105  -36.3115   24.0332 C   0  0  1  0  0  0
  -20.5856  -28.3648   23.1325 C   0  0  2  0  0  0
  -20.6763  -26.9385   22.5426 C   0  0  0  0  0  0
  -19.5741  -26.6377   21.5217 C   0  0  0  0  0  0
  -18.1917  -26.7916   22.1625 C   0  0  0  0  0  0
  -19.1518  -28.8827   23.2907 C   0  0  0  0  0  0
  -18.9451  -30.1435   23.8915 C   0  0  0  0  0  0
  -17.6459  -30.6587   24.0556 C   0  0  0  0  0  0
  -25.9030  -34.9477   23.5122 C   0  0  0  0  0  0
  -16.5347  -29.9091   23.6316 C   0  0  0  0  0  0
  -16.7259  -28.6502   23.0345 C   0  0  0  0  0  0
  -26.4455  -31.6601   25.0697 C   0  0  0  0  0  0
  -25.3717  -31.3712   26.1444 C   0  0  0  0  0  0
  -27.0255  -30.3039   24.6041 C   0  0  0  0  0  0
  -27.6023  -32.4317   25.7475 C   0  0  0  0  0  0
  -27.5584  -37.1816   24.8457 C   0  0  0  0  0  0
  -21.4131  -29.3018   22.3739 N   0  0  0  0  0  0
  -26.4296  -37.3797   23.9406 N   0  0  0  0  0  0
  -24.6664  -31.0772   22.0982 N   0  0  0  0  0  0
  -23.4180  -28.8184   23.3033 O   0  0  0  0  0  0
  -28.4201  -26.7232   20.0836 O   0  0  0  0  0  0
  -26.5614  -34.8941   22.4700 O   0  0  0  0  0  0
  -23.5331  -32.1418   23.7487 O   0  0  0  0  0  0
  -28.8695  -18.9699   21.6864 C   0  0  0  0  0  0
  -31.2790  -18.9331   21.3798 C   0  0  0  0  0  0
  -28.8336  -17.5690   21.5127 C   0  0  0  0  0  0
  -31.2438  -17.5312   21.2002 C   0  0  0  0  0  0
  -30.0966  -19.6655   21.6428 C   0  0  0  0  0  0
  -30.0172  -16.8298   21.2797 C   0  0  0  0  0  0
  -30.6160  -21.9426   19.7027 C   0  0  0  0  0  0
  -30.1658  -21.1563   22.0104 C   0  0  0  0  0  0
  -29.7812  -24.7728   20.5643 C   0  0  0  0  0  0
  -29.9523  -23.5426   21.5097 C   0  0  0  0  0  0
  -28.3491  -25.3122   20.3457 C   0  0  0  0  0  0
  -29.8989  -15.4079   21.2059 N   0  0  0  0  0  0
  -29.8359  -22.1554   20.9470 N   0  3  1  0  0  0
  -31.4766  -12.4421   19.1116 H   0  0  0  0  0  0
  -30.3597  -11.2955   19.7965 H   0  0  0  0  0  0
  -29.7377  -11.7843   17.4223 H   0  0  0  0  0  0
  -29.6657  -13.4937   17.7635 H   0  0  0  0  0  0
  -27.8228  -11.3109   18.7943 H   0  0  0  0  0  0
  -27.3701  -12.6558   17.7818 H   0  0  0  0  0  0
  -27.7182  -14.2456   19.5951 H   0  0  0  0  0  0
  -28.6873  -11.8882   21.2871 H   0  0  0  0  0  0
  -28.4519  -13.4895   21.8986 H   0  0  0  0  0  0
  -25.2748   -9.5692   22.4756 H   0  0  0  0  0  0
  -23.9997   -7.4636   22.7480 H   0  0  0  0  0  0
  -21.0831   -8.8756   19.8952 H   0  0  0  0  0  0
  -22.3671  -10.9666   19.6162 H   0  0  0  0  0  0
  -21.2008   -7.6151   23.9710 H   0  0  0  0  0  0
  -21.1476   -6.0526   25.9075 H   0  0  0  0  0  0
  -22.0602   -2.7607   23.2852 H   0  0  0  0  0  0
  -22.4119  -11.9901   22.4771 H   0  0  0  0  0  0
  -21.1131  -13.1279   22.2578 H   0  0  0  0  0  0
  -24.6705  -15.8409   20.4939 H   0  0  0  0  0  0
  -26.2806  -15.6100   20.0376 H   0  0  0  0  0  0
  -26.7091  -32.5549   23.1139 H   0  0  0  0  0  0
  -24.9971  -33.9772   25.0418 H   0  0  0  0  0  0
  -22.6892  -31.3051   21.4092 H   0  0  0  0  0  0
  -23.3746  -35.9655   23.3299 H   0  0  0  0  0  0
  -24.3582  -36.8938   22.2050 H   0  0  0  0  0  0
  -23.7239  -37.6527   23.6659 H   0  0  0  0  0  0
  -26.0314  -31.6029   20.5891 H   0  0  0  0  0  0
  -26.8194  -30.8950   21.9722 H   0  0  0  0  0  0
  -28.1076  -29.1192   21.1375 H   0  0  0  0  0  0
  -26.0476  -25.9590   19.0316 H   0  0  0  0  0  0
  -23.9725  -27.2730   19.0671 H   0  0  0  0  0  0
  -23.7184  -30.5912   19.4035 H   0  0  0  0  0  0
  -22.7348  -29.2371   19.8740 H   0  0  0  0  0  0
  -25.1285  -36.1980   25.0824 H   0  0  0  0  0  0
  -20.9948  -28.3235   24.1439 H   0  0  0  0  0  0
  -20.5671  -26.2259   23.3617 H   0  0  0  0  0  0
  -21.6639  -26.7437   22.1211 H   0  0  0  0  0  0
  -19.6902  -25.6290   21.1235 H   0  0  0  0  0  0
  -19.6687  -27.3203   20.6759 H   0  0  0  0  0  0
  -17.4186  -26.6659   21.4025 H   0  0  0  0  0  0
  -18.0305  -26.0060   22.9024 H   0  0  0  0  0  0
  -19.7939  -30.7223   24.2315 H   0  0  0  0  0  0
  -17.5025  -31.6276   24.5143 H   0  0  0  0  0  0
  -15.5350  -30.3004   23.7633 H   0  0  0  0  0  0
  -15.8654  -28.0834   22.7050 H   0  0  0  0  0  0
  -24.5897  -30.7044   25.7784 H   0  0  0  0  0  0
  -24.8906  -32.2875   26.4878 H   0  0  0  0  0  0
  -25.8070  -30.8899   27.0208 H   0  0  0  0  0  0
  -26.2768  -29.6845   24.1084 H   0  0  0  0  0  0
  -27.4000  -29.7229   25.4476 H   0  0  0  0  0  0
  -27.8622  -30.4335   23.9173 H   0  0  0  0  0  0
  -27.2612  -33.3600   26.2072 H   0  0  0  0  0  0
  -28.3835  -32.6904   25.0313 H   0  0  0  0  0  0
  -28.0679  -31.8421   26.5383 H   0  0  0  0  0  0
  -28.2598  -38.0124   24.7528 H   0  0  0  0  0  0
  -28.1094  -36.2659   24.6259 H   0  0  0  0  0  0
  -27.2306  -37.1421   25.8862 H   0  0  0  0  0  0
  -20.9288  -29.8751   21.6970 H   0  0  0  0  0  0
  -26.0192  -38.2871   24.1437 H   0  0  0  0  0  0
  -27.9512  -19.4993   21.9020 H   0  0  0  0  0  0
  -32.2353  -19.4382   21.3593 H   0  0  0  0  0  0
  -27.8798  -17.0642   21.5855 H   0  0  0  0  0  0
  -32.1759  -17.0057   21.0456 H   0  0  0  0  0  0
  -30.5278  -20.9177   19.3427 H   0  0  0  0  0  0
  -31.6749  -22.1535   19.8552 H   0  0  0  0  0  0
  -30.2494  -22.5730   18.8943 H   0  0  0  0  0  0
  -31.1698  -21.3595   22.3869 H   0  0  0  0  0  0
  -29.5000  -21.3154   22.8607 H   0  0  0  0  0  0
  -30.3000  -24.6564   19.6150 H   0  0  0  0  0  0
  -30.3245  -25.5806   21.0566 H   0  0  0  0  0  0
  -29.2749  -23.6457   22.3586 H   0  0  0  0  0  0
  -30.9524  -23.6238   21.9385 H   0  0  0  0  0  0
  -27.7410  -25.1472   21.2376 H   0  0  0  0  0  0
  -27.8804  -24.7767   19.5196 H   0  0  0  0  0  0
  -29.0125  -15.0397   21.5148 H   0  0  0  0  0  0
  -28.8678  -22.0032   20.7073 H   0  0  0  0  0  0
  1 25  1  0  0  0
  1 30  2  0  0  0
  1 82  1  0  0  0
  2  3  1  0  0  0
  2 25  1  0  0  0
  2 84  1  0  0  0
  2 85  1  0  0  0
  3  4  1  0  0  0
  3 86  1  0  0  0
  3 87  1  0  0  0
  4  5  1  0  0  0
  4 88  1  0  0  0
  4 89  1  0  0  0
  5  6  1  0  0  0
  5 26  1  0  0  0
  5 90  1  0  0  0
  6 25  1  0  0  0
  6 91  1  0  0  0
  6 92  1  0  0  0
  7  8  2  0  0  0
  7 26  1  0  0  0
  7 29  1  0  0  0
  8  9  1  0  0  0
  8 22  1  0  0  0
  9 10  1  0  0  0
  9 27  2  0  0  0
 10 11  2  0  0  0
 10 15  1  0  0  0
 11 12  1  0  0  0
 11 93  1  0  0  0
 12 13  2  0  0  0
 12 94  1  0  0  0
 13 14  1  0  0  0
 13 31  1  0  0  0
 14 15  2  0  0  0
 14 95  1  0  0  0
 15 96  1  0  0  0
 16 17  2  0  0  0
 16 21  1  0  0  0
 16 31  1  0  0  0
 17 18  1  0  0  0
 17 97  1  0  0  0
 18 19  2  0  0  0
 18 98  1  0  0  0
 19 20  1  0  0  0
 19 24  1  0  0  0
 20 21  2  0  0  0
 20 99  1  0  0  0
 21 23  1  0  0  0
 22 28  1  0  0  0
 22 32  2  0  0  0
 26 27  1  0  0  0
 28100  1  0  0  0
 28101  1  0  0  0
 29102  1  0  0  0
 29103  1  0  0  0
 33 34  1  0  0  0
 33 66  1  0  0  0
 33 70  2  0  0  0
 34 36  1  0  0  0
 34 59  1  0  0  0
 34104  1  0  0  0
 35 44  2  0  0  0
 35 45  1  0  0  0
 35 68  1  0  0  0
 36 56  1  0  0  0
 36105  1  0  0  0
 37 39  1  0  0  0
 37 47  1  0  0  0
 37 66  1  0  0  0
 37106  1  0  0  0
 38 43  2  0  0  0
 38 46  1  0  0  0
 38 47  1  0  0  0
 39 64  1  0  0  0
 39 67  2  0  0  0
 40 52  1  0  0  0
 40 53  2  0  0  0
 40 58  1  0  0  0
 41107  1  0  0  0
 41108  1  0  0  0
 41109  1  0  0  0
 41 48  1  0  0  0
 42 43  1  0  0  0
 42 66  1  0  0  0
 42110  1  0  0  0
 42111  1  0  0  0
 43 44  1  0  0  0
 44112  1  0  0  0
 45 46  2  0  0  0
 45113  1  0  0  0
 46114  1  0  0  0
 47115  1  0  0  0
 47116  1  0  0  0
 48 56  1  0  0  0
 48 65  1  0  0  0
 48117  1  0  0  0
 49 50  1  0  0  0
 49 53  1  0  0  0
 49 64  1  0  0  0
 49118  1  0  0  0
 50 51  1  0  0  0
 50119  1  0  0  0
 50120  1  0  0  0
 51 52  1  0  0  0
 51121  1  0  0  0
 51122  1  0  0  0
 52123  1  0  0  0
 52124  1  0  0  0
 53 54  1  0  0  0
 54 55  2  0  0  0
 54125  1  0  0  0
 55 57  1  0  0  0
 55126  1  0  0  0
 56 69  2  0  0  0
 57 58  2  0  0  0
 57127  1  0  0  0
 58128  1  0  0  0
 59 60  1  0  0  0
 59 61  1  0  0  0
 59 62  1  0  0  0
 60129  1  0  0  0
 60130  1  0  0  0
 60131  1  0  0  0
 61132  1  0  0  0
 61133  1  0  0  0
 61134  1  0  0  0
 62135  1  0  0  0
 62136  1  0  0  0
 62137  1  0  0  0
 63 65  1  0  0  0
 63138  1  0  0  0
 63139  1  0  0  0
 63140  1  0  0  0
 64141  1  0  0  0
 65142  1  0  0  0
 68 81  1  0  0  0
 71 73  2  0  0  0
 71 75  1  0  0  0
 71143  1  0  0  0
 72 74  1  0  0  0
 72 75  2  0  0  0
 72144  1  0  0  0
 73 76  1  0  0  0
 73145  1  0  0  0
 74 76  2  0  0  0
 74146  1  0  0  0
 75 78  1  0  0  0
 76 82  1  0  0  0
 77147  1  0  0  0
 77148  1  0  0  0
 77149  1  0  0  0
 77 83  1  0  0  0
 78 83  1  0  0  0
 78150  1  0  0  0
 78151  1  0  0  0
 79 80  1  0  0  0
 79 81  1  0  0  0
 79152  1  0  0  0
 79153  1  0  0  0
 80 83  1  0  0  0
 80154  1  0  0  0
 80155  1  0  0  0
 81156  1  0  0  0
 81157  1  0  0  0
 82158  1  0  0  0
 83159  1  0  0  0
M  CHG  1  83   1
M  ISO  4   1 100  68 101  81 101  82 100
M  END
> <chiral flag>
0

> <version>
0

> <s_m_source_file>
/data/baiqing/PycharmProjects/Reinvent-master-3.2/result/LINK_invent/BTK/process_docking_weight1_custom_product_contain_oxygen_bond_distance_aromatic_linkinvent_7_9_3/rearranged_h_0015.sdf

> <i_m_source_file_index>
7

> <r_mmod_Potential_Energy-OPLS-2005>
-169.5888671875

> <r_mmod_Stretch_Energy-OPLS-2005>
39.6837730407715

> <r_mmod_Bend_Energy-OPLS-2005>
116.625686645508

> <r_mmod_Torsional_Energy-OPLS-2005>
224.905197143555

> <r_mmod_Improper_Torsional_Energy-OPLS-2005>
4.02819395065308

> <r_mmod_Van_der_Waal_Energy-OPLS-2005>
155.463958740234

> <r_mmod_Electrostatic_Energy-OPLS-2005>
-270.951782226562

> <r_mmod_Solvation_Energy-OPLS-2005>
-451.460754394531

> <b_mmod_Minimization_Converged-OPLS-2005>
0

> <r_mmod_RMS_Derivative-OPLS-2005>
1.51259875297546

$$$$
7
                    3D
 Structure written by MMmdl.
155163  0  0  1  0            999 V2000
  -30.5586  -14.9266   20.3690 C   0  0  0  0  0  0
  -30.4467  -12.5570   19.4817 C   0  0  0  0  0  0
  -29.5194  -12.4510   18.2481 C   0  0  0  0  0  0
  -28.0410  -12.3106   18.6630 C   0  0  0  0  0  0
  -27.6314  -13.2416   19.8373 C   0  0  2  0  0  0
  -28.6873  -13.2745   20.9589 C   0  0  0  0  0  0
  -25.2511  -13.8221   20.5752 C   0  0  0  0  0  0
  -24.1795  -13.0448   20.9219 C   0  0  0  0  0  0
  -24.6390  -11.6936   20.8742 C   0  0  0  0  0  0
  -23.9064  -10.4306   21.0387 C   0  0  0  0  0  0
  -24.3622   -9.4233   21.9179 C   0  0  0  0  0  0
  -23.6314   -8.2256   22.0758 C   0  0  0  0  0  0
  -22.4304   -8.0272   21.3542 C   0  0  0  0  0  0
  -21.9916   -9.0239   20.4657 C   0  0  0  0  0  0
  -22.7219  -10.2131   20.3064 C   0  0  0  0  0  0
  -21.6870   -6.0732   22.5250 C   0  0  0  0  0  0
  -21.4014   -6.5641   23.8170 C   0  0  0  0  0  0
  -21.3670   -5.6803   24.9135 C   0  0  0  0  0  0
  -21.6048   -4.3061   24.7197 C   0  0  0  0  0  0
  -21.8830   -3.8152   23.4320 C   0  0  0  0  0  0
  -21.9209   -4.6966   22.3379 C   0  0  0  0  0  0
  -22.7812  -13.5215   21.1873 C   0  0  0  0  0  0
  -22.1681   -4.2148   21.0957 F   0  0  0  0  0  0
  -21.5635   -3.4554   25.7716 F   0  0  0  0  0  0
  -29.9520  -13.6737   20.3287 N   0  0  0  0  0  0
  -26.2924  -12.9435   20.3322 N   0  0  0  0  0  0
  -25.9327  -11.6568   20.5787 N   0  0  0  0  0  0
  -22.0481  -12.8174   22.0418 N   0  0  0  0  0  0
  -25.4230  -15.1947   20.4202 N   0  0  0  0  0  0
  -31.7925  -14.9564   20.2953 O   0  0  0  0  0  0
  -21.6676   -6.8865   21.4213 O   0  0  0  0  0  0
  -22.3483  -14.5513   20.6722 O   0  0  0  0  0  0
  -24.6409  -31.8460   23.1908 C   0  0  0  0  0  0
  -25.9207  -32.4684   23.8278 C   0  0  1  0  0  0
  -27.2139  -27.1611   20.1487 C   0  0  0  0  0  0
  -25.5955  -33.8489   24.2191 N   0  0  0  0  0  0
  -23.4415  -30.4698   21.5357 C   0  0  2  0  0  0
  -24.8906  -28.9046   20.1058 C   0  0  0  0  0  0
  -22.7536  -29.4579   22.4863 C   0  0  0  0  0  0
  -18.0292  -28.1394   22.8479 C   0  0  0  0  0  0
  -24.1505  -36.7262   23.2650 C   0  0  0  0  0  0
  -25.9966  -30.7316   21.3849 C   0  0  0  0  0  0
  -26.0684  -29.3470   20.7227 C   0  0  0  0  0  0
  -27.2308  -28.4924   20.7257 C   0  0  0  0  0  0
  -26.0118  -26.8187   19.4889 C   0  0  0  0  0  0
  -24.8765  -27.6540   19.4725 C   0  0  0  0  0  0
  -23.6650  -29.8025   20.1531 C   0  0  0  0  0  0
  -25.4133  -36.3024   24.0317 C   0  0  1  0  0  0
  -20.5898  -28.3732   23.1224 C   0  0  2  0  0  0
  -20.6779  -26.9430   22.5412 C   0  0  0  0  0  0
  -19.5763  -26.6385   21.5208 C   0  0  0  0  0  0
  -18.1941  -26.7938   22.1609 C   0  0  0  0  0  0
  -19.1547  -28.8876   23.2847 C   0  0  0  0  0  0
  -18.9473  -30.1465   23.8888 C   0  0  0  0  0  0
  -17.6471  -30.6592   24.0557 C   0  0  0  0  0  0
  -25.9078  -34.9395   23.5063 C   0  0  0  0  0  0
  -16.5363  -29.9093   23.6328 C   0  0  0  0  0  0
  -16.7274  -28.6498   23.0368 C   0  0  0  0  0  0
  -26.4539  -31.6538   25.0717 C   0  0  0  0  0  0
  -25.3720  -31.3699   26.1404 C   0  0  0  0  0  0
  -27.0413  -30.2933   24.6305 C   0  0  0  0  0  0
  -27.6078  -32.4306   25.7487 C   0  0  0  0  0  0
  -27.5577  -37.1786   24.8460 C   0  0  0  0  0  0
  -21.4231  -29.3066   22.3595 N   0  0  0  0  0  0
  -26.4288  -37.3741   23.9402 N   0  0  0  0  0  0
  -24.7131  -31.0361   22.0926 N   0  0  0  0  0  0
  -23.4190  -28.8136   23.3016 O   0  0  0  0  0  0
  -28.2663  -26.1826   20.2304 O   0  0  0  0  0  0
  -26.5655  -34.8888   22.4637 O   0  0  0  0  0  0
  -23.5544  -32.1325   23.7154 O   0  0  0  0  0  0
  -28.2886  -18.0600   19.8674 C   0  0  0  0  0  0
  -30.4304  -18.5169   20.7323 C   0  0  0  0  0  0
  -27.9540  -19.4582   19.9386 C   0  0  0  0  0  0
  -30.0832  -19.9422   20.8103 C   0  0  0  0  0  0
  -29.5421  -17.4880   20.2459 C   0  0  0  0  0  0
  -28.8148  -20.5032   20.4102 C   0  0  0  0  0  0
  -29.7443  -15.9310   18.3749 C   0  0  0  0  0  0
  -26.9733  -21.9058   21.1459 C   0  0  0  0  0  0
  -28.9153  -23.3304   20.4737 C   0  0  0  0  0  0
  -27.9537  -24.6691   20.1105 C   0  0  0  0  0  0
  -29.8316  -16.0377   19.8451 N   0  0  0  0  0  0
  -28.2987  -21.9006   20.5167 N   0  0  0  0  0  0
  -31.4757  -12.7194   19.1579 H   0  0  0  0  0  0
  -30.4543  -11.6236   20.0459 H   0  0  0  0  0  0
  -29.8067  -11.5888   17.6454 H   0  0  0  0  0  0
  -29.6468  -13.3136   17.5973 H   0  0  0  0  0  0
  -27.8915  -11.2703   18.9510 H   0  0  0  0  0  0
  -27.3907  -12.4827   17.8050 H   0  0  0  0  0  0
  -27.5833  -14.2447   19.4195 H   0  0  0  0  0  0
  -28.7758  -12.3027   21.4464 H   0  0  0  0  0  0
  -28.4082  -13.9938   21.7302 H   0  0  0  0  0  0
  -25.2748   -9.5741   22.4774 H   0  0  0  0  0  0
  -24.0036   -7.4664   22.7487 H   0  0  0  0  0  0
  -21.0848   -8.8731   19.8963 H   0  0  0  0  0  0
  -22.3633  -10.9677   19.6202 H   0  0  0  0  0  0
  -21.1984   -7.6151   23.9655 H   0  0  0  0  0  0
  -21.1496   -6.0543   25.9032 H   0  0  0  0  0  0
  -22.0607   -2.7622   23.2809 H   0  0  0  0  0  0
  -22.4123  -11.9825   22.4786 H   0  0  0  0  0  0
  -21.1105  -13.1178   22.2648 H   0  0  0  0  0  0
  -24.6690  -15.8606   20.5469 H   0  0  0  0  0  0
  -26.2927  -15.6302   20.1434 H   0  0  0  0  0  0
  -26.7274  -32.5307   23.1008 H   0  0  0  0  0  0
  -25.0053  -33.9593   25.0308 H   0  0  0  0  0  0
  -22.7434  -31.2959   21.3840 H   0  0  0  0  0  0
  -23.3752  -35.9607   23.3293 H   0  0  0  0  0  0
  -24.3596  -36.8924   22.2071 H   0  0  0  0  0  0
  -23.7281  -37.6461   23.6702 H   0  0  0  0  0  0
  -26.1469  -31.4941   20.6188 H   0  0  0  0  0  0
  -26.8669  -30.7774   22.0273 H   0  0  0  0  0  0
  -28.1259  -28.8270   21.2293 H   0  0  0  0  0  0
  -25.9107  -25.8634   18.9968 H   0  0  0  0  0  0
  -23.9794  -27.3115   18.9757 H   0  0  0  0  0  0
  -23.7928  -30.5802   19.3988 H   0  0  0  0  0  0
  -22.7802  -29.2433   19.8451 H   0  0  0  0  0  0
  -25.1329  -36.1843   25.0809 H   0  0  0  0  0  0
  -20.9976  -28.3340   24.1345 H   0  0  0  0  0  0
  -20.5668  -26.2353   23.3648 H   0  0  0  0  0  0
  -21.6653  -26.7451   22.1214 H   0  0  0  0  0  0
  -19.6943  -25.6289   21.1264 H   0  0  0  0  0  0
  -19.6698  -27.3177   20.6722 H   0  0  0  0  0  0
  -17.4212  -26.6670   21.4012 H   0  0  0  0  0  0
  -18.0334  -26.0085   22.9007 H   0  0  0  0  0  0
  -19.7950  -30.7276   24.2271 H   0  0  0  0  0  0
  -17.5031  -31.6273   24.5158 H   0  0  0  0  0  0
  -15.5368  -30.3001   23.7668 H   0  0  0  0  0  0
  -15.8663  -28.0816   22.7120 H   0  0  0  0  0  0
  -24.5948  -30.6992   25.7715 H   0  0  0  0  0  0
  -24.8846  -32.2860   26.4754 H   0  0  0  0  0  0
  -25.8018  -30.8933   27.0225 H   0  0  0  0  0  0
  -26.3040  -29.6622   24.1335 H   0  0  0  0  0  0
  -27.4039  -29.7271   25.4896 H   0  0  0  0  0  0
  -27.8935  -30.4158   23.9613 H   0  0  0  0  0  0
  -27.2690  -33.3643   26.1981 H   0  0  0  0  0  0
  -28.3919  -32.6799   25.0322 H   0  0  0  0  0  0
  -28.0703  -31.8475   26.5463 H   0  0  0  0  0  0
  -28.2570  -38.0103   24.7503 H   0  0  0  0  0  0
  -28.1089  -36.2625   24.6280 H   0  0  0  0  0  0
  -27.2283  -37.1428   25.8860 H   0  0  0  0  0  0
  -20.9437  -29.8747   21.6749 H   0  0  0  0  0  0
  -26.0144  -38.2811   24.1390 H   0  0  0  0  0  0
  -27.5410  -17.4034   19.4471 H   0  0  0  0  0  0
  -31.4326  -18.2273   21.0157 H   0  0  0  0  0  0
  -26.9660  -19.7250   19.5934 H   0  0  0  0  0  0
  -30.8259  -20.6168   21.2109 H   0  0  0  0  0  0
  -28.8063  -15.4755   18.0650 H   0  0  0  0  0  0
  -30.5616  -15.3570   17.9322 H   0  0  0  0  0  0
  -29.7980  -16.9062   17.8891 H   0  0  0  0  0  0
  -26.6700  -20.9394   21.5543 H   0  0  0  0  0  0
  -26.2147  -22.2142   20.4253 H   0  0  0  0  0  0
  -26.9416  -22.6039   21.9843 H   0  0  0  0  0  0
  -29.3637  -23.5007   21.4540 H   0  0  0  0  0  0
  -29.7548  -23.3118   19.7790 H   0  0  0  0  0  0
  -27.0419  -24.5488   20.6948 H   0  0  0  0  0  0
  -27.6514  -24.5190   19.0737 H   0  0  0  0  0  0
  1 25  1  0  0  0
  1 30  2  0  0  0
  1 81  1  0  0  0
  2  3  1  0  0  0
  2 25  1  0  0  0
  2 83  1  0  0  0
  2 84  1  0  0  0
  3  4  1  0  0  0
  3 85  1  0  0  0
  3 86  1  0  0  0
  4  5  1  0  0  0
  4 87  1  0  0  0
  4 88  1  0  0  0
  5  6  1  0  0  0
  5 26  1  0  0  0
  5 89  1  0  0  0
  6 25  1  0  0  0
  6 90  1  0  0  0
  6 91  1  0  0  0
  7  8  2  0  0  0
  7 26  1  0  0  0
  7 29  1  0  0  0
  8  9  1  0  0  0
  8 22  1  0  0  0
  9 10  1  0  0  0
  9 27  2  0  0  0
 10 11  2  0  0  0
 10 15  1  0  0  0
 11 12  1  0  0  0
 11 92  1  0  0  0
 12 13  2  0  0  0
 12 93  1  0  0  0
 13 14  1  0  0  0
 13 31  1  0  0  0
 14 15  2  0  0  0
 14 94  1  0  0  0
 15 95  1  0  0  0
 16 17  2  0  0  0
 16 21  1  0  0  0
 16 31  1  0  0  0
 17 18  1  0  0  0
 17 96  1  0  0  0
 18 19  2  0  0  0
 18 97  1  0  0  0
 19 20  1  0  0  0
 19 24  1  0  0  0
 20 21  2  0  0  0
 20 98  1  0  0  0
 21 23  1  0  0  0
 22 28  1  0  0  0
 22 32  2  0  0  0
 26 27  1  0  0  0
 28 99  1  0  0  0
 28100  1  0  0  0
 29101  1  0  0  0
 29102  1  0  0  0
 33 34  1  0  0  0
 33 66  1  0  0  0
 33 70  2  0  0  0
 34 36  1  0  0  0
 34 59  1  0  0  0
 34103  1  0  0  0
 35 44  2  0  0  0
 35 45  1  0  0  0
 35 68  1  0  0  0
 36 56  1  0  0  0
 36104  1  0  0  0
 37 39  1  0  0  0
 37 47  1  0  0  0
 37 66  1  0  0  0
 37105  1  0  0  0
 38 43  2  0  0  0
 38 46  1  0  0  0
 38 47  1  0  0  0
 39 64  1  0  0  0
 39 67  2  0  0  0
 40 52  1  0  0  0
 40 53  2  0  0  0
 40 58  1  0  0  0
 41106  1  0  0  0
 41107  1  0  0  0
 41108  1  0  0  0
 41 48  1  0  0  0
 42 43  1  0  0  0
 42 66  1  0  0  0
 42109  1  0  0  0
 42110  1  0  0  0
 43 44  1  0  0  0
 44111  1  0  0  0
 45 46  2  0  0  0
 45112  1  0  0  0
 46113  1  0  0  0
 47114  1  0  0  0
 47115  1  0  0  0
 48 56  1  0  0  0
 48 65  1  0  0  0
 48116  1  0  0  0
 49 50  1  0  0  0
 49 53  1  0  0  0
 49 64  1  0  0  0
 49117  1  0  0  0
 50 51  1  0  0  0
 50118  1  0  0  0
 50119  1  0  0  0
 51 52  1  0  0  0
 51120  1  0  0  0
 51121  1  0  0  0
 52122  1  0  0  0
 52123  1  0  0  0
 53 54  1  0  0  0
 54 55  2  0  0  0
 54124  1  0  0  0
 55 57  1  0  0  0
 55125  1  0  0  0
 56 69  2  0  0  0
 57 58  2  0  0  0
 57126  1  0  0  0
 58127  1  0  0  0
 59 60  1  0  0  0
 59 61  1  0  0  0
 59 62  1  0  0  0
 60128  1  0  0  0
 60129  1  0  0  0
 60130  1  0  0  0
 61131  1  0  0  0
 61132  1  0  0  0
 61133  1  0  0  0
 62134  1  0  0  0
 62135  1  0  0  0
 62136  1  0  0  0
 63 65  1  0  0  0
 63137  1  0  0  0
 63138  1  0  0  0
 63139  1  0  0  0
 64140  1  0  0  0
 65141  1  0  0  0
 68 80  1  0  0  0
 71 73  2  0  0  0
 71 75  1  0  0  0
 71142  1  0  0  0
 72 74  1  0  0  0
 72 75  2  0  0  0
 72143  1  0  0  0
 73 76  1  0  0  0
 73144  1  0  0  0
 74 76  2  0  0  0
 74145  1  0  0  0
 75 81  1  0  0  0
 76 82  1  0  0  0
 77 81  1  0  0  0
 77146  1  0  0  0
 77147  1  0  0  0
 77148  1  0  0  0
 78 82  1  0  0  0
 78149  1  0  0  0
 78150  1  0  0  0
 78151  1  0  0  0
 79 80  1  0  0  0
 79 82  1  0  0  0
 79152  1  0  0  0
 79153  1  0  0  0
 80154  1  0  0  0
 80155  1  0  0  0
M  ISO  4   1 100  68 101  80 101  81 100
M  END
> <chiral flag>
0

> <version>
0

> <s_m_source_file>
/data/baiqing/PycharmProjects/Reinvent-master-3.2/result/LINK_invent/BTK/process_docking_weight1_custom_product_contain_oxygen_bond_distance_aromatic_linkinvent_7_9_3/rearranged_h_0015.sdf

> <i_m_source_file_index>
8

> <r_mmod_Potential_Energy-OPLS-2005>
683.878845214844

> <r_mmod_Stretch_Energy-OPLS-2005>
219.790084838867

> <r_mmod_Bend_Energy-OPLS-2005>
288.205352783203

> <r_mmod_Torsional_Energy-OPLS-2005>
327.888244628906

> <r_mmod_Improper_Torsional_Energy-OPLS-2005>
28.8177642822266

> <r_mmod_Van_der_Waal_Energy-OPLS-2005>
147.120971679688

> <r_mmod_Electrostatic_Energy-OPLS-2005>
-296.586944580078

> <r_mmod_Solvation_Energy-OPLS-2005>
-213.265380859375

> <b_mmod_Minimization_Converged-OPLS-2005>
0

> <r_mmod_RMS_Derivative-OPLS-2005>
2.22342562675476

$$$$
8
                    3D
 Structure written by MMmdl.
155164  0  0  1  0            999 V2000
  -30.7253  -14.6383   20.5541 C   0  0  0  0  0  0
  -30.4515  -12.4243   19.4542 C   0  0  0  0  0  0
  -29.5145  -12.5253   18.2272 C   0  0  0  0  0  0
  -28.0408  -12.3546   18.6435 C   0  0  0  0  0  0
  -27.6624  -13.2289   19.8742 C   0  0  2  0  0  0
  -28.7203  -13.1138   20.9967 C   0  0  0  0  0  0
  -25.2584  -13.8166   20.5707 C   0  0  0  0  0  0
  -24.1832  -13.0429   20.9136 C   0  0  0  0  0  0
  -24.6399  -11.6892   20.8673 C   0  0  0  0  0  0
  -23.9053  -10.4272   21.0405 C   0  0  0  0  0  0
  -24.3586   -9.4214   21.9194 C   0  0  0  0  0  0
  -23.6241   -8.2263   22.0779 C   0  0  0  0  0  0
  -22.4231   -8.0281   21.3572 C   0  0  0  0  0  0
  -21.9888   -9.0232   20.4675 C   0  0  0  0  0  0
  -22.7210  -10.2113   20.3081 C   0  0  0  0  0  0
  -21.6860   -6.0714   22.5280 C   0  0  0  0  0  0
  -21.4034   -6.5635   23.8203 C   0  0  0  0  0  0
  -21.3656   -5.6780   24.9151 C   0  0  0  0  0  0
  -21.6051   -4.3043   24.7201 C   0  0  0  0  0  0
  -21.8822   -3.8138   23.4326 C   0  0  0  0  0  0
  -21.9189   -4.6947   22.3391 C   0  0  0  0  0  0
  -22.7867  -13.5267   21.1706 C   0  0  0  0  0  0
  -22.1665   -4.2149   21.0959 F   0  0  0  0  0  0
  -21.5600   -3.4544   25.7716 F   0  0  0  0  0  0
  -30.0342  -13.4579   20.4233 N   0  0  0  0  0  0
  -26.3065  -12.9375   20.3426 N   0  0  0  0  0  0
  -25.9359  -11.6515   20.5758 N   0  0  0  0  0  0
  -22.0446  -12.8324   22.0268 N   0  0  0  0  0  0
  -25.4266  -15.1850   20.4115 N   0  0  0  0  0  0
  -31.8818  -14.7559   20.1445 O   0  0  0  0  0  0
  -21.6641   -6.8855   21.4234 O   0  0  0  0  0  0
  -22.3588  -14.5534   20.6459 O   0  0  0  0  0  0
  -24.6290  -31.8581   23.2019 C   0  0  0  0  0  0
  -25.9098  -32.4802   23.8378 C   0  0  1  0  0  0
  -27.2334  -27.2921   20.0740 C   0  0  0  0  0  0
  -25.5908  -33.8599   24.2313 N   0  0  0  0  0  0
  -23.4219  -30.4813   21.5474 C   0  0  2  0  0  0
  -24.8700  -28.9385   20.1148 C   0  0  0  0  0  0
  -22.7443  -29.4568   22.4905 C   0  0  0  0  0  0
  -18.0224  -28.1334   22.8401 C   0  0  0  0  0  0
  -24.1450  -36.7244   23.2659 C   0  0  0  0  0  0
  -25.9713  -30.7790   21.3734 C   0  0  0  0  0  0
  -26.0489  -29.4065   20.7077 C   0  0  0  0  0  0
  -27.2306  -28.5982   20.6752 C   0  0  0  0  0  0
  -26.0074  -26.8821   19.4941 C   0  0  0  0  0  0
  -24.8508  -27.6809   19.5115 C   0  0  0  0  0  0
  -23.6409  -29.8198   20.1642 C   0  0  0  0  0  0
  -25.4088  -36.3082   24.0349 C   0  0  1  0  0  0
  -20.5812  -28.3549   23.1146 C   0  0  2  0  0  0
  -20.6677  -26.9317   22.5169 C   0  0  0  0  0  0
  -19.5667  -26.6330   21.4960 C   0  0  0  0  0  0
  -18.1843  -26.7930   22.1376 C   0  0  0  0  0  0
  -19.1521  -28.8769   23.2767 C   0  0  0  0  0  0
  -18.9470  -30.1330   23.8884 C   0  0  0  0  0  0
  -17.6469  -30.6544   24.0524 C   0  0  0  0  0  0
  -25.9003  -34.9449   23.5107 C   0  0  0  0  0  0
  -16.5337  -29.9045   23.6385 C   0  0  0  0  0  0
  -16.7250  -28.6466   23.0380 C   0  0  0  0  0  0
  -26.4486  -31.6602   25.0751 C   0  0  0  0  0  0
  -25.3713  -31.3710   26.1467 C   0  0  0  0  0  0
  -27.0364  -30.3057   24.6176 C   0  0  0  0  0  0
  -27.6030  -32.4342   25.7547 C   0  0  0  0  0  0
  -27.5549  -37.1779   24.8493 C   0  0  0  0  0  0
  -21.4158  -29.2968   22.3580 N   0  0  0  0  0  0
  -26.4279  -37.3788   23.9418 N   0  0  0  0  0  0
  -24.6923  -31.0519   22.0987 N   0  0  0  0  0  0
  -23.4161  -28.8125   23.3015 O   0  0  0  0  0  0
  -28.3756  -26.4522   20.0204 O   0  0  0  0  0  0
  -26.5593  -34.8943   22.4694 O   0  0  0  0  0  0
  -23.5416  -32.1375   23.7324 O   0  0  0  0  0  0
  -31.0666  -18.7060   23.0365 C   0  0  0  0  0  0
  -31.0891  -19.7685   22.1066 C   0  0  0  0  0  0
  -30.7332  -17.3974   22.6321 C   0  0  0  0  0  0
  -30.5175  -18.1856   20.3385 C   0  0  0  0  0  0
  -30.8017  -19.5439   20.7445 C   0  0  0  0  0  0
  -30.4696  -17.0928   21.2781 C   0  0  0  0  0  0
  -29.0249  -22.4911   19.2288 C   0  0  0  0  0  0
  -30.5491  -23.4016   20.2864 C   0  0  0  0  0  0
  -29.4109  -24.0055   19.4106 C   0  0  2  0  0  0
  -30.9802  -20.7323   19.7313 C   0  0  0  0  0  0
  -28.2208  -24.9637   19.8726 C   0  0  0  0  0  0
  -30.2029  -22.0279   19.8175 N   0  0  0  0  0  0
  -30.0147  -15.7387   20.9619 N   0  0  0  0  0  0
  -28.1167  -21.8764   18.7097 O   0  0  0  0  0  0
  -31.4897  -12.5532   19.1446 H   0  0  0  0  0  0
  -30.3974  -11.4348   19.9106 H   0  0  0  0  0  0
  -29.7777  -11.7744   17.4787 H   0  0  0  0  0  0
  -29.6355  -13.4948   17.7397 H   0  0  0  0  0  0
  -27.8826  -11.2952   18.8628 H   0  0  0  0  0  0
  -27.3816  -12.5828   17.8051 H   0  0  0  0  0  0
  -27.6703  -14.2628   19.5303 H   0  0  0  0  0  0
  -28.7446  -12.0967   21.3898 H   0  0  0  0  0  0
  -28.4651  -13.7490   21.8462 H   0  0  0  0  0  0
  -25.2721   -9.5701   22.4756 H   0  0  0  0  0  0
  -23.9949   -7.4701   22.7560 H   0  0  0  0  0  0
  -21.0817   -8.8724   19.9009 H   0  0  0  0  0  0
  -22.3638  -10.9620   19.6177 H   0  0  0  0  0  0
  -21.2068   -7.6157   23.9701 H   0  0  0  0  0  0
  -21.1470   -6.0520   25.9053 H   0  0  0  0  0  0
  -22.0599   -2.7618   23.2814 H   0  0  0  0  0  0
  -22.4047  -12.0065   22.4792 H   0  0  0  0  0  0
  -21.1075  -13.1433   22.2385 H   0  0  0  0  0  0
  -24.6487  -15.8280   20.5191 H   0  0  0  0  0  0
  -26.2636  -15.6343   20.0611 H   0  0  0  0  0  0
  -26.7176  -32.5463   23.1129 H   0  0  0  0  0  0
  -25.0143  -33.9791   25.0514 H   0  0  0  0  0  0
  -22.7179  -31.3045   21.4072 H   0  0  0  0  0  0
  -23.3758  -35.9539   23.3358 H   0  0  0  0  0  0
  -24.3520  -36.8817   22.2066 H   0  0  0  0  0  0
  -23.7168  -37.6442   23.6657 H   0  0  0  0  0  0
  -26.1016  -31.5513   20.6131 H   0  0  0  0  0  0
  -26.8525  -30.8322   22.0019 H   0  0  0  0  0  0
  -28.1349  -28.9706   21.1346 H   0  0  0  0  0  0
  -25.8796  -25.9348   19.0012 H   0  0  0  0  0  0
  -23.9446  -27.3131   19.0528 H   0  0  0  0  0  0
  -23.7460  -30.5993   19.4064 H   0  0  0  0  0  0
  -22.7655  -29.2384   19.8645 H   0  0  0  0  0  0
  -25.1278  -36.1948   25.0860 H   0  0  0  0  0  0
  -20.9931  -28.2957   24.1222 H   0  0  0  0  0  0
  -21.6536  -26.7369   22.0934 H   0  0  0  0  0  0
  -20.5496  -26.2083   23.3291 H   0  0  0  0  0  0
  -19.6744  -25.6245   21.0930 H   0  0  0  0  0  0
  -19.6645  -27.3129   20.6468 H   0  0  0  0  0  0
  -17.4144  -26.6831   21.3718 H   0  0  0  0  0  0
  -18.0174  -25.9948   22.8614 H   0  0  0  0  0  0
  -19.7958  -30.7109   24.2319 H   0  0  0  0  0  0
  -17.5119  -31.6285   24.5059 H   0  0  0  0  0  0
  -15.5351  -30.2980   23.7752 H   0  0  0  0  0  0
  -15.8630  -28.0743   22.7172 H   0  0  0  0  0  0
  -24.5865  -30.7130   25.7733 H   0  0  0  0  0  0
  -24.8966  -32.2882   26.4970 H   0  0  0  0  0  0
  -25.8028  -30.8799   27.0189 H   0  0  0  0  0  0
  -26.2942  -29.6804   24.1221 H   0  0  0  0  0  0
  -27.4123  -29.7340   25.4652 H   0  0  0  0  0  0
  -27.8773  -30.4409   23.9380 H   0  0  0  0  0  0
  -27.2633  -33.3620   26.2173 H   0  0  0  0  0  0
  -28.3844  -32.6933   25.0387 H   0  0  0  0  0  0
  -28.0700  -31.8442   26.5438 H   0  0  0  0  0  0
  -28.2612  -38.0033   24.7523 H   0  0  0  0  0  0
  -28.1004  -36.2564   24.6364 H   0  0  0  0  0  0
  -27.2249  -37.1469   25.8898 H   0  0  0  0  0  0
  -20.9360  -29.8703   21.6808 H   0  0  0  0  0  0
  -26.0142  -38.2851   24.1513 H   0  0  0  0  0  0
  -31.2985  -18.8968   24.0764 H   0  0  0  0  0  0
  -31.3701  -20.7562   22.4559 H   0  0  0  0  0  0
  -30.6765  -16.6266   23.3863 H   0  0  0  0  0  0
  -30.3235  -17.9725   19.3002 H   0  0  0  0  0  0
  -30.4263  -23.5339   21.3617 H   0  0  0  0  0  0
  -31.5314  -23.7572   19.9619 H   0  0  0  0  0  0
  -29.8493  -24.3922   18.4871 H   0  0  0  0  0  0
  -30.9625  -20.3368   18.7142 H   0  0  0  0  0  0
  -32.0205  -21.0469   19.8650 H   0  0  0  0  0  0
  -27.8021  -24.5722   20.8002 H   0  0  0  0  0  0
  -27.4634  -24.7624   19.1185 H   0  0  0  0  0  0
  -29.0590  -15.5359   21.2106 H   0  0  0  0  0  0
  1 25  1  0  0  0
  1 30  2  0  0  0
  1 83  1  0  0  0
  2  3  1  0  0  0
  2 25  1  0  0  0
  2 85  1  0  0  0
  2 86  1  0  0  0
  3  4  1  0  0  0
  3 87  1  0  0  0
  3 88  1  0  0  0
  4  5  1  0  0  0
  4 89  1  0  0  0
  4 90  1  0  0  0
  5  6  1  0  0  0
  5 26  1  0  0  0
  5 91  1  0  0  0
  6 25  1  0  0  0
  6 92  1  0  0  0
  6 93  1  0  0  0
  7  8  2  0  0  0
  7 26  1  0  0  0
  7 29  1  0  0  0
  8  9  1  0  0  0
  8 22  1  0  0  0
  9 10  1  0  0  0
  9 27  2  0  0  0
 10 11  2  0  0  0
 10 15  1  0  0  0
 11 12  1  0  0  0
 11 94  1  0  0  0
 12 13  2  0  0  0
 12 95  1  0  0  0
 13 14  1  0  0  0
 13 31  1  0  0  0
 14 15  2  0  0  0
 14 96  1  0  0  0
 15 97  1  0  0  0
 16 17  2  0  0  0
 16 21  1  0  0  0
 16 31  1  0  0  0
 17 18  1  0  0  0
 17 98  1  0  0  0
 18 19  2  0  0  0
 18 99  1  0  0  0
 19 20  1  0  0  0
 19 24  1  0  0  0
 20 21  2  0  0  0
 20100  1  0  0  0
 21 23  1  0  0  0
 22 28  1  0  0  0
 22 32  2  0  0  0
 26 27  1  0  0  0
 28101  1  0  0  0
 28102  1  0  0  0
 29103  1  0  0  0
 29104  1  0  0  0
 33 34  1  0  0  0
 33 66  1  0  0  0
 33 70  2  0  0  0
 34 36  1  0  0  0
 34 59  1  0  0  0
 34105  1  0  0  0
 35 44  2  0  0  0
 35 45  1  0  0  0
 35 68  1  0  0  0
 36 56  1  0  0  0
 36106  1  0  0  0
 37 39  1  0  0  0
 37 47  1  0  0  0
 37 66  1  0  0  0
 37107  1  0  0  0
 38 43  2  0  0  0
 38 46  1  0  0  0
 38 47  1  0  0  0
 39 64  1  0  0  0
 39 67  2  0  0  0
 40 52  1  0  0  0
 40 53  2  0  0  0
 40 58  1  0  0  0
 41108  1  0  0  0
 41109  1  0  0  0
 41110  1  0  0  0
 41 48  1  0  0  0
 42 43  1  0  0  0
 42 66  1  0  0  0
 42111  1  0  0  0
 42112  1  0  0  0
 43 44  1  0  0  0
 44113  1  0  0  0
 45 46  2  0  0  0
 45114  1  0  0  0
 46115  1  0  0  0
 47116  1  0  0  0
 47117  1  0  0  0
 48 56  1  0  0  0
 48 65  1  0  0  0
 48118  1  0  0  0
 49 50  1  0  0  0
 49 53  1  0  0  0
 49 64  1  0  0  0
 49119  1  0  0  0
 50 51  1  0  0  0
 50120  1  0  0  0
 50121  1  0  0  0
 51 52  1  0  0  0
 51122  1  0  0  0
 51123  1  0  0  0
 52124  1  0  0  0
 52125  1  0  0  0
 53 54  1  0  0  0
 54 55  2  0  0  0
 54126  1  0  0  0
 55 57  1  0  0  0
 55127  1  0  0  0
 56 69  2  0  0  0
 57 58  2  0  0  0
 57128  1  0  0  0
 58129  1  0  0  0
 59 60  1  0  0  0
 59 61  1  0  0  0
 59 62  1  0  0  0
 60130  1  0  0  0
 60131  1  0  0  0
 60132  1  0  0  0
 61133  1  0  0  0
 61134  1  0  0  0
 61135  1  0  0  0
 62136  1  0  0  0
 62137  1  0  0  0
 62138  1  0  0  0
 63 65  1  0  0  0
 63139  1  0  0  0
 63140  1  0  0  0
 63141  1  0  0  0
 64142  1  0  0  0
 65143  1  0  0  0
 68 81  1  0  0  0
 71 72  2  0  0  0
 71 73  1  0  0  0
 71144  1  0  0  0
 72 75  1  0  0  0
 72145  1  0  0  0
 73 76  2  0  0  0
 73146  1  0  0  0
 74 75  2  0  0  0
 74 76  1  0  0  0
 74147  1  0  0  0
 75 80  1  0  0  0
 76 83  1  0  0  0
 77 79  1  0  0  0
 77 82  1  0  0  0
 77 84  2  0  0  0
 78 79  1  0  0  0
 78 82  1  0  0  0
 78148  1  0  0  0
 78149  1  0  0  0
 79 81  1  0  0  0
 79150  1  0  0  0
 80 82  1  0  0  0
 80151  1  0  0  0
 80152  1  0  0  0
 81153  1  0  0  0
 81154  1  0  0  0
 83155  1  0  0  0
M  ISO  4   1 100  68 101  81 101  83 100
M  END
> <chiral flag>
0

> <version>
0

> <s_m_source_file>
/data/baiqing/PycharmProjects/Reinvent-master-3.2/result/LINK_invent/BTK/process_docking_weight1_custom_product_contain_oxygen_bond_distance_aromatic_linkinvent_7_9_3/rearranged_h_0015.sdf

> <i_m_source_file_index>
9

> <r_mmod_Potential_Energy-OPLS-2005>
81.0270614624023

> <r_mmod_Stretch_Energy-OPLS-2005>
95.7677536010742

> <r_mmod_Bend_Energy-OPLS-2005>
158.47509765625

> <r_mmod_Torsional_Energy-OPLS-2005>
262.611755371094

> <r_mmod_Improper_Torsional_Energy-OPLS-2005>
6.58475065231323

> <r_mmod_Van_der_Waal_Energy-OPLS-2005>
136.164855957031

> <r_mmod_Electrostatic_Energy-OPLS-2005>
-393.52001953125

> <r_mmod_Solvation_Energy-OPLS-2005>
-237.149566650391

> <b_mmod_Minimization_Converged-OPLS-2005>
0

> <r_mmod_RMS_Derivative-OPLS-2005>
11.2042474746704

$$$$
9
                    3D
 Structure written by MMmdl.
162170  0  0  1  0            999 V2000
  -30.7555  -14.4121   20.6627 C   0  0  0  0  0  0
  -30.4123  -12.3016   19.4194 C   0  0  0  0  0  0
  -29.4979  -12.5202   18.1988 C   0  0  0  0  0  0
  -28.0141  -12.3899   18.5926 C   0  0  0  0  0  0
  -27.6578  -13.2126   19.8574 C   0  0  2  0  0  0
  -28.6828  -12.9791   20.9821 C   0  0  0  0  0  0
  -25.2584  -13.8192   20.5631 C   0  0  0  0  0  0
  -24.1853  -13.0453   20.9136 C   0  0  0  0  0  0
  -24.6409  -11.6924   20.8706 C   0  0  0  0  0  0
  -23.9065  -10.4301   21.0397 C   0  0  0  0  0  0
  -24.3623   -9.4219   21.9179 C   0  0  0  0  0  0
  -23.6309   -8.2251   22.0748 C   0  0  0  0  0  0
  -22.4285   -8.0286   21.3538 C   0  0  0  0  0  0
  -21.9907   -9.0260   20.4646 C   0  0  0  0  0  0
  -22.7226  -10.2142   20.3055 C   0  0  0  0  0  0
  -21.6865   -6.0741   22.5281 C   0  0  0  0  0  0
  -21.4011   -6.5637   23.8217 C   0  0  0  0  0  0
  -21.3664   -5.6793   24.9177 C   0  0  0  0  0  0
  -21.6049   -4.3053   24.7229 C   0  0  0  0  0  0
  -21.8821   -3.8148   23.4344 C   0  0  0  0  0  0
  -21.9190   -4.6971   22.3406 C   0  0  0  0  0  0
  -22.7867  -13.5231   21.1865 C   0  0  0  0  0  0
  -22.1665   -4.2146   21.0985 F   0  0  0  0  0  0
  -21.5632   -3.4540   25.7740 F   0  0  0  0  0  0
  -30.0300  -13.2732   20.4583 N   0  0  0  0  0  0
  -26.2991  -12.9368   20.3207 N   0  0  0  0  0  0
  -25.9316  -11.6520   20.5639 N   0  0  0  0  0  0
  -22.0514  -12.8236   22.0418 N   0  0  0  0  0  0
  -25.4331  -15.1915   20.4100 N   0  0  0  0  0  0
  -31.8126  -14.6350   20.0607 O   0  0  0  0  0  0
  -21.6648   -6.8883   21.4243 O   0  0  0  0  0  0
  -22.3540  -14.5564   20.6722 O   0  0  0  0  0  0
  -24.6184  -31.8634   23.2065 C   0  0  0  0  0  0
  -25.9061  -32.4807   23.8382 C   0  0  1  0  0  0
  -27.2396  -27.4263   20.0864 C   0  0  0  0  0  0
  -25.5893  -33.8607   24.2304 N   0  0  0  0  0  0
  -23.4062  -30.4879   21.5488 C   0  0  2  0  0  0
  -24.8516  -28.9425   20.1240 C   0  0  0  0  0  0
  -22.7413  -29.4655   22.4998 C   0  0  0  0  0  0
  -18.0274  -28.1393   22.8486 C   0  0  0  0  0  0
  -24.1476  -36.7317   23.2644 C   0  0  0  0  0  0
  -25.9329  -30.8323   21.3523 C   0  0  0  0  0  0
  -26.0161  -29.4615   20.7056 C   0  0  0  0  0  0
  -27.2183  -28.7137   20.6742 C   0  0  0  0  0  0
  -26.0522  -26.9105   19.5272 C   0  0  0  0  0  0
  -24.8642  -27.6658   19.5359 C   0  0  0  0  0  0
  -23.6146  -29.8130   20.1649 C   0  0  0  0  0  0
  -25.4092  -36.3113   24.0347 C   0  0  1  0  0  0
  -20.5865  -28.3676   23.1306 C   0  0  2  0  0  0
  -20.6774  -26.9411   22.5417 C   0  0  0  0  0  0
  -19.5747  -26.6385   21.5221 C   0  0  0  0  0  0
  -18.1914  -26.7938   22.1625 C   0  0  0  0  0  0
  -19.1525  -28.8851   23.2899 C   0  0  0  0  0  0
  -18.9465  -30.1461   23.8901 C   0  0  0  0  0  0
  -17.6467  -30.6603   24.0564 C   0  0  0  0  0  0
  -25.9021  -34.9480   23.5118 C   0  0  0  0  0  0
  -16.5350  -29.9106   23.6335 C   0  0  0  0  0  0
  -16.7265  -28.6528   23.0346 C   0  0  0  0  0  0
  -26.4472  -31.6608   25.0726 C   0  0  0  0  0  0
  -25.3718  -31.3709   26.1469 C   0  0  0  0  0  0
  -27.0318  -30.3080   24.6059 C   0  0  0  0  0  0
  -27.6067  -32.4318   25.7458 C   0  0  0  0  0  0
  -27.5581  -37.1797   24.8463 C   0  0  0  0  0  0
  -21.4146  -29.3027   22.3719 N   0  0  0  0  0  0
  -26.4280  -37.3806   23.9426 N   0  0  0  0  0  0
  -24.6723  -31.0759   22.0950 N   0  0  0  0  0  0
  -23.4169  -28.8204   23.3056 O   0  0  0  0  0  0
  -28.4073  -26.6932   20.0385 O   0  0  0  0  0  0
  -26.5610  -34.8940   22.4690 O   0  0  0  0  0  0
  -23.5378  -32.1376   23.7473 O   0  0  0  0  0  0
  -30.0142  -18.4724   19.3727 C   0  0  0  0  0  0
  -29.9631  -17.1192   19.7825 C   0  0  0  0  0  0
  -30.3749  -19.1469   21.6663 C   0  0  0  0  0  0
  -30.2437  -19.5032   20.3101 C   0  0  0  0  0  0
  -30.1819  -16.7399   21.1375 C   0  0  0  0  0  0
  -30.3576  -17.7985   22.0770 C   0  0  0  0  0  0
  -30.2589  -14.9546   22.9440 C   0  0  0  0  0  0
  -28.4251  -21.3186   18.5263 C   0  0  0  0  0  0
  -30.4564  -20.9680   19.8872 C   0  0  0  0  0  0
  -28.2191  -24.1495   19.8533 C   0  0  0  0  0  0
  -29.4875  -23.2569   19.6869 C   0  0  0  0  0  0
  -28.3891  -25.4322   20.7273 C   0  0  0  0  0  0
  -30.2465  -15.3346   21.5189 N   0  0  0  0  0  0
  -29.2175  -21.7791   19.6944 N   0  3  1  0  0  0
  -30.5519  -17.5641   23.3946 F   0  0  0  0  0  0
  -31.4604  -12.3861   19.1235 H   0  0  0  0  0  0
  -30.3006  -11.2847   19.7977 H   0  0  0  0  0  0
  -29.7434  -11.8051   17.4099 H   0  0  0  0  0  0
  -29.6856  -13.5110   17.7803 H   0  0  0  0  0  0
  -27.8065  -11.3325   18.7632 H   0  0  0  0  0  0
  -27.3818  -12.6959   17.7591 H   0  0  0  0  0  0
  -27.7085  -14.2670   19.5812 H   0  0  0  0  0  0
  -28.6403  -11.9453   21.3293 H   0  0  0  0  0  0
  -28.3938  -13.5849   21.8372 H   0  0  0  0  0  0
  -25.2771   -9.5705   22.4743 H   0  0  0  0  0  0
  -24.0024   -7.4640   22.7461 H   0  0  0  0  0  0
  -21.0831   -8.8777   19.8961 H   0  0  0  0  0  0
  -22.3679  -10.9684   19.6170 H   0  0  0  0  0  0
  -21.2005   -7.6140   23.9717 H   0  0  0  0  0  0
  -21.1490   -6.0522   25.9082 H   0  0  0  0  0  0
  -22.0599   -2.7605   23.2850 H   0  0  0  0  0  0
  -22.4119  -11.9895   22.4821 H   0  0  0  0  0  0
  -21.1126  -13.1283   22.2622 H   0  0  0  0  0  0
  -24.6787  -15.8535   20.5426 H   0  0  0  0  0  0
  -26.2991  -15.6295   20.1253 H   0  0  0  0  0  0
  -26.7110  -32.5533   23.1142 H   0  0  0  0  0  0
  -25.0052  -33.9752   25.0458 H   0  0  0  0  0  0
  -22.6955  -31.3051   21.4041 H   0  0  0  0  0  0
  -23.3753  -35.9640   23.3313 H   0  0  0  0  0  0
  -24.3554  -36.8931   22.2053 H   0  0  0  0  0  0
  -23.7208  -37.6519   23.6644 H   0  0  0  0  0  0
  -26.0244  -31.5872   20.5702 H   0  0  0  0  0  0
  -26.8274  -30.9023   21.9587 H   0  0  0  0  0  0
  -28.1276  -29.1141   21.1009 H   0  0  0  0  0  0
  -26.0432  -25.9283   19.0765 H   0  0  0  0  0  0
  -23.9649  -27.2530   19.1000 H   0  0  0  0  0  0
  -23.7229  -30.5811   19.3970 H   0  0  0  0  0  0
  -22.7364  -29.2329   19.8782 H   0  0  0  0  0  0
  -25.1263  -36.1981   25.0844 H   0  0  0  0  0  0
  -20.9944  -28.3248   24.1444 H   0  0  0  0  0  0
  -20.5660  -26.2287   23.3612 H   0  0  0  0  0  0
  -21.6644  -26.7449   22.1216 H   0  0  0  0  0  0
  -19.6904  -25.6289   21.1262 H   0  0  0  0  0  0
  -19.6707  -27.3193   20.6744 H   0  0  0  0  0  0
  -17.4189  -26.6683   21.4033 H   0  0  0  0  0  0
  -18.0334  -26.0082   22.9018 H   0  0  0  0  0  0
  -19.7931  -30.7288   24.2262 H   0  0  0  0  0  0
  -17.5018  -31.6283   24.5177 H   0  0  0  0  0  0
  -15.5350  -30.3018   23.7676 H   0  0  0  0  0  0
  -15.8658  -28.0870   22.7053 H   0  0  0  0  0  0
  -24.5903  -30.7038   25.7798 H   0  0  0  0  0  0
  -24.8893  -32.2866   26.4909 H   0  0  0  0  0  0
  -25.8079  -30.8885   27.0223 H   0  0  0  0  0  0
  -26.2858  -29.6823   24.1139 H   0  0  0  0  0  0
  -27.4164  -29.7340   25.4496 H   0  0  0  0  0  0
  -27.8644  -30.4477   23.9156 H   0  0  0  0  0  0
  -27.2728  -33.3626   26.2051 H   0  0  0  0  0  0
  -28.3859  -32.6845   25.0253 H   0  0  0  0  0  0
  -28.0725  -31.8403   26.5350 H   0  0  0  0  0  0
  -28.2599  -38.0101   24.7560 H   0  0  0  0  0  0
  -28.1078  -36.2645   24.6224 H   0  0  0  0  0  0
  -27.2308  -37.1378   25.8868 H   0  0  0  0  0  0
  -20.9324  -29.8742   21.6930 H   0  0  0  0  0  0
  -26.0184  -38.2882   24.1477 H   0  0  0  0  0  0
  -29.9027  -18.7050   18.3220 H   0  0  0  0  0  0
  -29.7901  -16.3704   19.0222 H   0  0  0  0  0  0
  -30.5453  -19.9110   22.4120 H   0  0  0  0  0  0
  -29.4129  -15.3977   23.4717 H   0  0  0  0  0  0
  -31.1844  -15.2739   23.4198 H   0  0  0  0  0  0
  -30.1994  -13.8794   23.1149 H   0  0  0  0  0  0
  -28.0762  -20.2966   18.6808 H   0  0  0  0  0  0
  -29.0179  -21.3370   17.6102 H   0  0  0  0  0  0
  -27.5356  -21.9267   18.3683 H   0  0  0  0  0  0
  -31.0700  -21.0133   18.9865 H   0  0  0  0  0  0
  -31.0623  -21.4303   20.6678 H   0  0  0  0  0  0
  -27.4411  -23.5514   20.3254 H   0  0  0  0  0  0
  -27.8205  -24.4032   18.8688 H   0  0  0  0  0  0
  -30.1861  -23.4790   20.4961 H   0  0  0  0  0  0
  -30.0114  -23.5350   18.7684 H   0  0  0  0  0  0
  -27.5987  -25.4434   21.4820 H   0  0  0  0  0  0
  -29.3149  -25.3699   21.3009 H   0  0  0  0  0  0
  -28.6572  -21.5992   20.5121 H   0  0  0  0  0  0
  1 25  1  0  0  0
  1 30  2  0  0  0
  1 83  1  0  0  0
  2  3  1  0  0  0
  2 25  1  0  0  0
  2 86  1  0  0  0
  2 87  1  0  0  0
  3  4  1  0  0  0
  3 88  1  0  0  0
  3 89  1  0  0  0
  4  5  1  0  0  0
  4 90  1  0  0  0
  4 91  1  0  0  0
  5  6  1  0  0  0
  5 26  1  0  0  0
  5 92  1  0  0  0
  6 25  1  0  0  0
  6 93  1  0  0  0
  6 94  1  0  0  0
  7  8  2  0  0  0
  7 26  1  0  0  0
  7 29  1  0  0  0
  8  9  1  0  0  0
  8 22  1  0  0  0
  9 10  1  0  0  0
  9 27  2  0  0  0
 10 11  2  0  0  0
 10 15  1  0  0  0
 11 12  1  0  0  0
 11 95  1  0  0  0
 12 13  2  0  0  0
 12 96  1  0  0  0
 13 14  1  0  0  0
 13 31  1  0  0  0
 14 15  2  0  0  0
 14 97  1  0  0  0
 15 98  1  0  0  0
 16 17  2  0  0  0
 16 21  1  0  0  0
 16 31  1  0  0  0
 17 18  1  0  0  0
 17 99  1  0  0  0
 18 19  2  0  0  0
 18100  1  0  0  0
 19 20  1  0  0  0
 19 24  1  0  0  0
 20 21  2  0  0  0
 20101  1  0  0  0
 21 23  1  0  0  0
 22 28  1  0  0  0
 22 32  2  0  0  0
 26 27  1  0  0  0
 28102  1  0  0  0
 28103  1  0  0  0
 29104  1  0  0  0
 29105  1  0  0  0
 33 34  1  0  0  0
 33 66  1  0  0  0
 33 70  2  0  0  0
 34 36  1  0  0  0
 34 59  1  0  0  0
 34106  1  0  0  0
 35 44  2  0  0  0
 35 45  1  0  0  0
 35 68  1  0  0  0
 36 56  1  0  0  0
 36107  1  0  0  0
 37 39  1  0  0  0
 37 47  1  0  0  0
 37 66  1  0  0  0
 37108  1  0  0  0
 38 43  2  0  0  0
 38 46  1  0  0  0
 38 47  1  0  0  0
 39 64  1  0  0  0
 39 67  2  0  0  0
 40 52  1  0  0  0
 40 53  2  0  0  0
 40 58  1  0  0  0
 41109  1  0  0  0
 41110  1  0  0  0
 41111  1  0  0  0
 41 48  1  0  0  0
 42 43  1  0  0  0
 42 66  1  0  0  0
 42112  1  0  0  0
 42113  1  0  0  0
 43 44  1  0  0  0
 44114  1  0  0  0
 45 46  2  0  0  0
 45115  1  0  0  0
 46116  1  0  0  0
 47117  1  0  0  0
 47118  1  0  0  0
 48 56  1  0  0  0
 48 65  1  0  0  0
 48119  1  0  0  0
 49 50  1  0  0  0
 49 53  1  0  0  0
 49 64  1  0  0  0
 49120  1  0  0  0
 50 51  1  0  0  0
 50121  1  0  0  0
 50122  1  0  0  0
 51 52  1  0  0  0
 51123  1  0  0  0
 51124  1  0  0  0
 52125  1  0  0  0
 52126  1  0  0  0
 53 54  1  0  0  0
 54 55  2  0  0  0
 54127  1  0  0  0
 55 57  1  0  0  0
 55128  1  0  0  0
 56 69  2  0  0  0
 57 58  2  0  0  0
 57129  1  0  0  0
 58130  1  0  0  0
 59 60  1  0  0  0
 59 61  1  0  0  0
 59 62  1  0  0  0
 60131  1  0  0  0
 60132  1  0  0  0
 60133  1  0  0  0
 61134  1  0  0  0
 61135  1  0  0  0
 61136  1  0  0  0
 62137  1  0  0  0
 62138  1  0  0  0
 62139  1  0  0  0
 63 65  1  0  0  0
 63140  1  0  0  0
 63141  1  0  0  0
 63142  1  0  0  0
 64143  1  0  0  0
 65144  1  0  0  0
 68 82  1  0  0  0
 71 72  2  0  0  0
 71 74  1  0  0  0
 71145  1  0  0  0
 72 75  1  0  0  0
 72146  1  0  0  0
 73 74  2  0  0  0
 73 76  1  0  0  0
 73147  1  0  0  0
 74 79  1  0  0  0
 75 76  2  0  0  0
 75 83  1  0  0  0
 76 85  1  0  0  0
 77 83  1  0  0  0
 77148  1  0  0  0
 77149  1  0  0  0
 77150  1  0  0  0
 78151  1  0  0  0
 78152  1  0  0  0
 78153  1  0  0  0
 78 84  1  0  0  0
 79 84  1  0  0  0
 79154  1  0  0  0
 79155  1  0  0  0
 80 81  1  0  0  0
 80 82  1  0  0  0
 80156  1  0  0  0
 80157  1  0  0  0
 81 84  1  0  0  0
 81158  1  0  0  0
 81159  1  0  0  0
 82160  1  0  0  0
 82161  1  0  0  0
 84162  1  0  0  0
M  CHG  1  84   1
M  ISO  4   1 100  68 101  82 101  83 100
M  END
> <chiral flag>
0

> <version>
0

> <s_m_source_file>
/data/baiqing/PycharmProjects/Reinvent-master-3.2/result/LINK_invent/BTK/process_docking_weight1_custom_product_contain_oxygen_bond_distance_aromatic_linkinvent_7_9_3/rearranged_h_0015.sdf

> <i_m_source_file_index>
10

> <r_mmod_Potential_Energy-OPLS-2005>
-5.08770847320557

> <r_mmod_Stretch_Energy-OPLS-2005>
47.7403793334961

> <r_mmod_Bend_Energy-OPLS-2005>
107.14151763916

> <r_mmod_Torsional_Energy-OPLS-2005>
307.034240722656

> <r_mmod_Improper_Torsional_Energy-OPLS-2005>
3.27989721298218

> <r_mmod_Van_der_Waal_Energy-OPLS-2005>
167.20915222168

> <r_mmod_Electrostatic_Energy-OPLS-2005>
-203.203659057617

> <r_mmod_Solvation_Energy-OPLS-2005>
-444.204864501953

> <b_mmod_Minimization_Converged-OPLS-2005>
0

> <r_mmod_RMS_Derivative-OPLS-2005>
3.97116446495056

$$$$
10
                    3D
 Structure written by MMmdl.
157165  0  0  1  0            999 V2000
  -30.6651  -14.6895   20.3935 C   0  0  0  0  0  0
  -30.4353  -12.3942   19.4573 C   0  0  0  0  0  0
  -29.4962  -12.3854   18.2292 C   0  0  0  0  0  0
  -28.0177  -12.2964   18.6531 C   0  0  0  0  0  0
  -27.6443  -13.2183   19.8464 C   0  0  2  0  0  0
  -28.7048  -13.1733   20.9668 C   0  0  0  0  0  0
  -25.2557  -13.8179   20.5750 C   0  0  0  0  0  0
  -24.1820  -13.0439   20.9235 C   0  0  0  0  0  0
  -24.6387  -11.6910   20.8774 C   0  0  0  0  0  0
  -23.9062  -10.4287   21.0410 C   0  0  0  0  0  0
  -24.3609   -9.4204   21.9190 C   0  0  0  0  0  0
  -23.6298   -8.2231   22.0748 C   0  0  0  0  0  0
  -22.4281   -8.0266   21.3536 C   0  0  0  0  0  0
  -21.9917   -9.0242   20.4642 C   0  0  0  0  0  0
  -22.7236  -10.2130   20.3058 C   0  0  0  0  0  0
  -21.6853   -6.0723   22.5290 C   0  0  0  0  0  0
  -21.4007   -6.5634   23.8218 C   0  0  0  0  0  0
  -21.3651   -5.6796   24.9188 C   0  0  0  0  0  0
  -21.6033   -4.3058   24.7246 C   0  0  0  0  0  0
  -21.8811   -3.8143   23.4373 C   0  0  0  0  0  0
  -21.9191   -4.6950   22.3423 C   0  0  0  0  0  0
  -22.7840  -13.5223   21.1884 C   0  0  0  0  0  0
  -22.1666   -4.2125   21.1005 F   0  0  0  0  0  0
  -21.5624   -3.4554   25.7764 F   0  0  0  0  0  0
  -30.0010  -13.4856   20.3524 N   0  0  0  0  0  0
  -26.2984  -12.9367   20.3377 N   0  0  0  0  0  0
  -25.9327  -11.6526   20.5858 N   0  0  0  0  0  0
  -22.0486  -12.8201   22.0429 N   0  0  0  0  0  0
  -25.4285  -15.1893   20.4136 N   0  0  0  0  0  0
  -31.8924  -14.7154   20.2764 O   0  0  0  0  0  0
  -21.6641   -6.8861   21.4245 O   0  0  0  0  0  0
  -22.3530  -14.5538   20.6748 O   0  0  0  0  0  0
  -24.6279  -31.8601   23.2027 C   0  0  0  0  0  0
  -25.9136  -32.4782   23.8338 C   0  0  1  0  0  0
  -27.2196  -27.3205   20.1317 C   0  0  0  0  0  0
  -25.5966  -33.8574   24.2281 N   0  0  0  0  0  0
  -23.4196  -30.4847   21.5446 C   0  0  2  0  0  0
  -24.8661  -28.9401   20.1113 C   0  0  0  0  0  0
  -22.7475  -29.4629   22.4928 C   0  0  0  0  0  0
  -18.0292  -28.1398   22.8493 C   0  0  0  0  0  0
  -24.1479  -36.7260   23.2634 C   0  0  0  0  0  0
  -25.9599  -30.7936   21.3719 C   0  0  0  0  0  0
  -26.0336  -29.4197   20.7187 C   0  0  0  0  0  0
  -27.2152  -28.6209   20.7217 C   0  0  0  0  0  0
  -26.0372  -26.9031   19.4796 C   0  0  0  0  0  0
  -24.8686  -27.6861   19.4810 C   0  0  0  0  0  0
  -23.6348  -29.8211   20.1593 C   0  0  0  0  0  0
  -25.4110  -36.3071   24.0333 C   0  0  1  0  0  0
  -20.5893  -28.3691   23.1287 C   0  0  2  0  0  0
  -20.6782  -26.9419   22.5406 C   0  0  0  0  0  0
  -19.5750  -26.6402   21.5214 C   0  0  0  0  0  0
  -18.1930  -26.7946   22.1629 C   0  0  0  0  0  0
  -19.1545  -28.8858   23.2888 C   0  0  0  0  0  0
  -18.9476  -30.1468   23.8894 C   0  0  0  0  0  0
  -17.6480  -30.6598   24.0570 C   0  0  0  0  0  0
  -25.9058  -34.9448   23.5091 C   0  0  0  0  0  0
  -16.5364  -29.9100   23.6341 C   0  0  0  0  0  0
  -16.7286  -28.6519   23.0359 C   0  0  0  0  0  0
  -26.4526  -31.6569   25.0682 C   0  0  0  0  0  0
  -25.3769  -31.3694   26.1409 C   0  0  0  0  0  0
  -27.0353  -30.2998   24.6096 C   0  0  0  0  0  0
  -27.6090  -32.4284   25.7468 C   0  0  0  0  0  0
  -27.5571  -37.1784   24.8480 C   0  0  0  0  0  0
  -21.4189  -29.3040   22.3671 N   0  0  0  0  0  0
  -26.4278  -37.3777   23.9430 N   0  0  0  0  0  0
  -24.6873  -31.0622   22.0975 N   0  0  0  0  0  0
  -23.4197  -28.8180   23.3029 O   0  0  0  0  0  0
  -28.3210  -26.4550   20.1806 O   0  0  0  0  0  0
  -26.5603  -34.8931   22.4644 O   0  0  0  0  0  0
  -23.5447  -32.1396   23.7383 O   0  0  0  0  0  0
  -28.9126  -19.4478   19.9762 C   0  0  0  0  0  0
  -28.8947  -18.0330   19.8095 C   0  0  0  0  0  0
  -30.8071  -19.2098   21.4278 C   0  0  0  0  0  0
  -29.9017  -20.0861   20.7579 C   0  0  0  0  0  0
  -29.8732  -17.1600   20.3802 C   0  0  0  0  0  0
  -30.7971  -17.7886   21.2608 C   0  0  0  0  0  0
  -29.1707  -23.9886   20.4172 C   0  0  0  0  0  0
  -29.8942  -15.7394   18.4059 C   0  0  0  0  0  0
  -27.7755  -22.2548   21.5097 C   0  0  0  0  0  0
  -30.1177  -21.6512   20.7890 C   0  0  0  0  0  0
  -28.0328  -25.0670   20.6293 C   0  0  0  0  0  0
  -29.9606  -15.7703   19.8850 N   0  0  0  0  0  0
  -29.0005  -22.6713   20.8202 N   0  0  0  0  0  0
  -30.2248  -24.3626   19.8912 O   0  0  0  0  0  0
  -31.7377  -17.0549   21.9026 F   0  0  0  0  0  0
  -31.4724  -12.5121   19.1351 H   0  0  0  0  0  0
  -30.3901  -11.4383   19.9811 H   0  0  0  0  0  0
  -29.7387  -11.5308   17.5963 H   0  0  0  0  0  0
  -29.6472  -13.2486   17.5901 H   0  0  0  0  0  0
  -27.8349  -11.2565   18.9269 H   0  0  0  0  0  0
  -27.3673  -12.4991   17.8016 H   0  0  0  0  0  0
  -27.6279  -14.2330   19.4561 H   0  0  0  0  0  0
  -28.7282  -12.1914   21.4427 H   0  0  0  0  0  0
  -28.4695  -13.8964   21.7485 H   0  0  0  0  0  0
  -25.2736   -9.5692   22.4785 H   0  0  0  0  0  0
  -24.0001   -7.4625   22.7473 H   0  0  0  0  0  0
  -21.0847   -8.8760   19.8960 H   0  0  0  0  0  0
  -22.3676  -10.9669   19.6181 H   0  0  0  0  0  0
  -21.1998   -7.6141   23.9716 H   0  0  0  0  0  0
  -21.1475   -6.0533   25.9087 H   0  0  0  0  0  0
  -22.0589   -2.7602   23.2900 H   0  0  0  0  0  0
  -22.4105  -11.9849   22.4794 H   0  0  0  0  0  0
  -21.1096  -13.1193   22.2642 H   0  0  0  0  0  0
  -24.6691  -15.8516   20.5259 H   0  0  0  0  0  0
  -26.2956  -15.6260   20.1283 H   0  0  0  0  0  0
  -26.7194  -32.5461   23.1077 H   0  0  0  0  0  0
  -25.0210  -33.9716   25.0497 H   0  0  0  0  0  0
  -22.7142  -31.3056   21.4031 H   0  0  0  0  0  0
  -23.3765  -35.9568   23.3306 H   0  0  0  0  0  0
  -24.3570  -36.8864   22.2046 H   0  0  0  0  0  0
  -23.7209  -37.6462   23.6631 H   0  0  0  0  0  0
  -26.0889  -31.5541   20.6008 H   0  0  0  0  0  0
  -26.8417  -30.8442   21.9977 H   0  0  0  0  0  0
  -28.1073  -28.9807   21.2142 H   0  0  0  0  0  0
  -25.9978  -25.9572   18.9592 H   0  0  0  0  0  0
  -23.9761  -27.3186   18.9923 H   0  0  0  0  0  0
  -23.7591  -30.5971   19.4024 H   0  0  0  0  0  0
  -22.7539  -29.2521   19.8557 H   0  0  0  0  0  0
  -25.1295  -36.1898   25.0826 H   0  0  0  0  0  0
  -20.9990  -28.3264   24.1410 H   0  0  0  0  0  0
  -20.5691  -26.2305   23.3608 H   0  0  0  0  0  0
  -21.6655  -26.7464   22.1195 H   0  0  0  0  0  0
  -19.6906  -25.6318   21.1235 H   0  0  0  0  0  0
  -19.6682  -27.3220   20.6748 H   0  0  0  0  0  0
  -17.4207  -26.6709   21.4025 H   0  0  0  0  0  0
  -18.0317  -26.0089   22.9020 H   0  0  0  0  0  0
  -19.7952  -30.7285   24.2251 H   0  0  0  0  0  0
  -17.5039  -31.6281   24.5178 H   0  0  0  0  0  0
  -15.5367  -30.3009   23.7663 H   0  0  0  0  0  0
  -15.8683  -28.0841   22.7073 H   0  0  0  0  0  0
  -24.5971  -30.7000   25.7753 H   0  0  0  0  0  0
  -24.8927  -32.2858   26.4784 H   0  0  0  0  0  0
  -25.8120  -30.8920   27.0198 H   0  0  0  0  0  0
  -26.2906  -29.6773   24.1115 H   0  0  0  0  0  0
  -27.4077  -29.7216   25.4566 H   0  0  0  0  0  0
  -27.8771  -30.4317   23.9291 H   0  0  0  0  0  0
  -27.2707  -33.3600   26.2017 H   0  0  0  0  0  0
  -28.3932  -32.6803   25.0312 H   0  0  0  0  0  0
  -28.0713  -31.8404   26.5410 H   0  0  0  0  0  0
  -28.2599  -38.0074   24.7547 H   0  0  0  0  0  0
  -28.1047  -36.2608   24.6273 H   0  0  0  0  0  0
  -27.2290  -37.1417   25.8884 H   0  0  0  0  0  0
  -20.9359  -29.8734   21.6859 H   0  0  0  0  0  0
  -26.0149  -38.2837   24.1465 H   0  0  0  0  0  0
  -28.1917  -20.0481   19.4379 H   0  0  0  0  0  0
  -28.1456  -17.6221   19.1480 H   0  0  0  0  0  0
  -31.5834  -19.6350   22.0466 H   0  0  0  0  0  0
  -28.9130  -15.4223   18.0577 H   0  0  0  0  0  0
  -30.6515  -15.0935   17.9561 H   0  0  0  0  0  0
  -30.0991  -16.7118   17.9555 H   0  0  0  0  0  0
  -27.5766  -22.8960   22.3691 H   0  0  0  0  0  0
  -27.8355  -21.2392   21.8987 H   0  0  0  0  0  0
  -26.9168  -22.3015   20.8388 H   0  0  0  0  0  0
  -30.7298  -21.8632   19.9106 H   0  0  0  0  0  0
  -30.7623  -21.8795   21.6400 H   0  0  0  0  0  0
  -27.8154  -25.1172   21.6965 H   0  0  0  0  0  0
  -27.1426  -24.6572   20.1574 H   0  0  0  0  0  0
  1 25  1  0  0  0
  1 30  2  0  0  0
  1 82  1  0  0  0
  2  3  1  0  0  0
  2 25  1  0  0  0
  2 86  1  0  0  0
  2 87  1  0  0  0
  3  4  1  0  0  0
  3 88  1  0  0  0
  3 89  1  0  0  0
  4  5  1  0  0  0
  4 90  1  0  0  0
  4 91  1  0  0  0
  5  6  1  0  0  0
  5 26  1  0  0  0
  5 92  1  0  0  0
  6 25  1  0  0  0
  6 93  1  0  0  0
  6 94  1  0  0  0
  7  8  2  0  0  0
  7 26  1  0  0  0
  7 29  1  0  0  0
  8  9  1  0  0  0
  8 22  1  0  0  0
  9 10  1  0  0  0
  9 27  2  0  0  0
 10 11  2  0  0  0
 10 15  1  0  0  0
 11 12  1  0  0  0
 11 95  1  0  0  0
 12 13  2  0  0  0
 12 96  1  0  0  0
 13 14  1  0  0  0
 13 31  1  0  0  0
 14 15  2  0  0  0
 14 97  1  0  0  0
 15 98  1  0  0  0
 16 17  2  0  0  0
 16 21  1  0  0  0
 16 31  1  0  0  0
 17 18  1  0  0  0
 17 99  1  0  0  0
 18 19  2  0  0  0
 18100  1  0  0  0
 19 20  1  0  0  0
 19 24  1  0  0  0
 20 21  2  0  0  0
 20101  1  0  0  0
 21 23  1  0  0  0
 22 28  1  0  0  0
 22 32  2  0  0  0
 26 27  1  0  0  0
 28102  1  0  0  0
 28103  1  0  0  0
 29104  1  0  0  0
 29105  1  0  0  0
 33 34  1  0  0  0
 33 66  1  0  0  0
 33 70  2  0  0  0
 34 36  1  0  0  0
 34 59  1  0  0  0
 34106  1  0  0  0
 35 44  2  0  0  0
 35 45  1  0  0  0
 35 68  1  0  0  0
 36 56  1  0  0  0
 36107  1  0  0  0
 37 39  1  0  0  0
 37 47  1  0  0  0
 37 66  1  0  0  0
 37108  1  0  0  0
 38 43  2  0  0  0
 38 46  1  0  0  0
 38 47  1  0  0  0
 39 64  1  0  0  0
 39 67  2  0  0  0
 40 52  1  0  0  0
 40 53  2  0  0  0
 40 58  1  0  0  0
 41109  1  0  0  0
 41110  1  0  0  0
 41111  1  0  0  0
 41 48  1  0  0  0
 42 43  1  0  0  0
 42 66  1  0  0  0
 42112  1  0  0  0
 42113  1  0  0  0
 43 44  1  0  0  0
 44114  1  0  0  0
 45 46  2  0  0  0
 45115  1  0  0  0
 46116  1  0  0  0
 47117  1  0  0  0
 47118  1  0  0  0
 48 56  1  0  0  0
 48 65  1  0  0  0
 48119  1  0  0  0
 49 50  1  0  0  0
 49 53  1  0  0  0
 49 64  1  0  0  0
 49120  1  0  0  0
 50 51  1  0  0  0
 50121  1  0  0  0
 50122  1  0  0  0
 51 52  1  0  0  0
 51123  1  0  0  0
 51124  1  0  0  0
 52125  1  0  0  0
 52126  1  0  0  0
 53 54  1  0  0  0
 54 55  2  0  0  0
 54127  1  0  0  0
 55 57  1  0  0  0
 55128  1  0  0  0
 56 69  2  0  0  0
 57 58  2  0  0  0
 57129  1  0  0  0
 58130  1  0  0  0
 59 60  1  0  0  0
 59 61  1  0  0  0
 59 62  1  0  0  0
 60131  1  0  0  0
 60132  1  0  0  0
 60133  1  0  0  0
 61134  1  0  0  0
 61135  1  0  0  0
 61136  1  0  0  0
 62137  1  0  0  0
 62138  1  0  0  0
 62139  1  0  0  0
 63 65  1  0  0  0
 63140  1  0  0  0
 63141  1  0  0  0
 63142  1  0  0  0
 64143  1  0  0  0
 65144  1  0  0  0
 68 81  1  0  0  0
 71 72  2  0  0  0
 71 74  1  0  0  0
 71145  1  0  0  0
 72 75  1  0  0  0
 72146  1  0  0  0
 73 74  2  0  0  0
 73 76  1  0  0  0
 73147  1  0  0  0
 74 80  1  0  0  0
 75 76  2  0  0  0
 75 82  1  0  0  0
 76 85  1  0  0  0
 77 81  1  0  0  0
 77 83  1  0  0  0
 77 84  2  0  0  0
 78 82  1  0  0  0
 78148  1  0  0  0
 78149  1  0  0  0
 78150  1  0  0  0
 79 83  1  0  0  0
 79151  1  0  0  0
 79152  1  0  0  0
 79153  1  0  0  0
 80 83  1  0  0  0
 80154  1  0  0  0
 80155  1  0  0  0
 81156  1  0  0  0
 81157  1  0  0  0
M  ISO  4   1 100  68 101  81 101  82 100
M  END
> <chiral flag>
0

> <version>
0

> <s_m_source_file>
/data/baiqing/PycharmProjects/Reinvent-master-3.2/result/LINK_invent/BTK/process_docking_weight1_custom_product_contain_oxygen_bond_distance_aromatic_linkinvent_7_9_3/rearranged_h_0015.sdf

> <i_m_source_file_index>
11

> <r_mmod_Potential_Energy-OPLS-2005>
326.563262939453

> <r_mmod_Stretch_Energy-OPLS-2005>
91.3405838012695

> <r_mmod_Bend_Energy-OPLS-2005>
153.491073608398

> <r_mmod_Torsional_Energy-OPLS-2005>
338.606842041016

> <r_mmod_Improper_Torsional_Energy-OPLS-2005>
29.4448833465576

> <r_mmod_Van_der_Waal_Energy-OPLS-2005>
161.146743774414

> <r_mmod_Electrostatic_Energy-OPLS-2005>
-290.560638427734

> <r_mmod_Solvation_Energy-OPLS-2005>
-228.967422485352

> <b_mmod_Minimization_Converged-OPLS-2005>
0

> <r_mmod_RMS_Derivative-OPLS-2005>
2.10264897346497

$$$$
11
                    3D
 Structure written by MMmdl.
152160  0  0  1  0            999 V2000
  -30.5403  -14.9162   20.4301 C   0  0  0  0  0  0
  -30.4466  -12.5607   19.4953 C   0  0  0  0  0  0
  -29.5172  -12.5106   18.2599 C   0  0  0  0  0  0
  -28.0578  -12.2839   18.6924 C   0  0  0  0  0  0
  -27.6374  -13.2307   19.8442 C   0  0  2  0  0  0
  -28.6786  -13.2440   20.9849 C   0  0  0  0  0  0
  -25.2519  -13.8188   20.5710 C   0  0  0  0  0  0
  -24.1801  -13.0443   20.9206 C   0  0  0  0  0  0
  -24.6389  -11.6918   20.8762 C   0  0  0  0  0  0
  -23.9066  -10.4293   21.0419 C   0  0  0  0  0  0
  -24.3615   -9.4206   21.9195 C   0  0  0  0  0  0
  -23.6291   -8.2243   22.0767 C   0  0  0  0  0  0
  -22.4273   -8.0285   21.3548 C   0  0  0  0  0  0
  -21.9909   -9.0256   20.4648 C   0  0  0  0  0  0
  -22.7242  -10.2135   20.3065 C   0  0  0  0  0  0
  -21.6842   -6.0740   22.5274 C   0  0  0  0  0  0
  -21.4013   -6.5640   23.8210 C   0  0  0  0  0  0
  -21.3668   -5.6794   24.9168 C   0  0  0  0  0  0
  -21.6036   -4.3052   24.7215 C   0  0  0  0  0  0
  -21.8825   -3.8149   23.4333 C   0  0  0  0  0  0
  -21.9194   -4.6970   22.3391 C   0  0  0  0  0  0
  -22.7823  -13.5229   21.1869 C   0  0  0  0  0  0
  -22.1658   -4.2157   21.0969 F   0  0  0  0  0  0
  -21.5631   -3.4548   25.7728 F   0  0  0  0  0  0
  -29.9664  -13.6462   20.3994 N   0  0  0  0  0  0
  -26.2927  -12.9390   20.3268 N   0  0  0  0  0  0
  -25.9313  -11.6543   20.5762 N   0  0  0  0  0  0
  -22.0460  -12.8222   22.0412 N   0  0  0  0  0  0
  -25.4259  -15.1919   20.4158 N   0  0  0  0  0  0
  -31.7222  -15.0240   20.0851 O   0  0  0  0  0  0
  -21.6637   -6.8884   21.4233 O   0  0  0  0  0  0
  -22.3519  -14.5538   20.6713 O   0  0  0  0  0  0
  -24.6422  -31.8448   23.1892 C   0  0  0  0  0  0
  -25.9199  -32.4695   23.8267 C   0  0  1  0  0  0
  -27.2112  -27.1487   20.1338 C   0  0  0  0  0  0
  -25.5966  -33.8498   24.2187 N   0  0  0  0  0  0
  -23.4434  -30.4662   21.5362 C   0  0  2  0  0  0
  -24.8878  -28.8954   20.1077 C   0  0  0  0  0  0
  -22.7567  -29.4544   22.4862 C   0  0  0  0  0  0
  -18.0305  -28.1383   22.8433 C   0  0  0  0  0  0
  -24.1497  -36.7262   23.2649 C   0  0  0  0  0  0
  -25.9974  -30.7237   21.3833 C   0  0  0  0  0  0
  -26.0656  -29.3354   20.7231 C   0  0  0  0  0  0
  -27.2256  -28.4764   20.7218 C   0  0  0  0  0  0
  -26.0012  -26.8041   19.4875 C   0  0  0  0  0  0
  -24.8661  -27.6420   19.4794 C   0  0  0  0  0  0
  -23.6681  -29.8015   20.1514 C   0  0  0  0  0  0
  -25.4123  -36.3036   24.0332 C   0  0  1  0  0  0
  -20.5919  -28.3705   23.1226 C   0  0  2  0  0  0
  -20.6788  -26.9418   22.5390 C   0  0  0  0  0  0
  -19.5765  -26.6370   21.5183 C   0  0  0  0  0  0
  -18.1941  -26.7916   22.1585 C   0  0  0  0  0  0
  -19.1568  -28.8860   23.2809 C   0  0  0  0  0  0
  -18.9496  -30.1447   23.8841 C   0  0  0  0  0  0
  -17.6497  -30.6570   24.0550 C   0  0  0  0  0  0
  -25.9073  -34.9410   23.5065 C   0  0  0  0  0  0
  -16.5381  -29.9073   23.6329 C   0  0  0  0  0  0
  -16.7300  -28.6503   23.0322 C   0  0  0  0  0  0
  -26.4541  -31.6563   25.0694 C   0  0  0  0  0  0
  -25.3745  -31.3738   26.1408 C   0  0  0  0  0  0
  -27.0440  -30.2987   24.6239 C   0  0  0  0  0  0
  -27.6058  -32.4337   25.7469 C   0  0  0  0  0  0
  -27.5576  -37.1783   24.8472 C   0  0  0  0  0  0
  -21.4270  -29.3030   22.3610 N   0  0  0  0  0  0
  -26.4279  -37.3752   23.9430 N   0  0  0  0  0  0
  -24.7139  -31.0327   22.0921 N   0  0  0  0  0  0
  -23.4222  -28.8096   23.2994 O   0  0  0  0  0  0
  -28.2881  -26.1970   20.2355 O   0  0  0  0  0  0
  -26.5655  -34.8911   22.4642 O   0  0  0  0  0  0
  -23.5551  -32.1320   23.7145 O   0  0  0  0  0  0
  -28.8852  -18.4465   21.2823 C   0  0  0  0  0  0
  -28.7785  -19.8911   21.1051 C   0  0  0  0  0  0
  -30.5237  -18.3210   19.6090 C   0  0  0  0  0  0
  -29.7601  -17.5641   20.5490 C   0  0  0  0  0  0
  -29.5333  -20.6575   20.1560 C   0  0  0  0  0  0
  -30.4129  -19.7583   19.4157 C   0  0  0  0  0  0
  -30.7620  -22.6869   19.5108 C   0  0  0  0  0  0
  -28.6084  -23.3006   20.5424 C   0  0  0  0  0  0
  -28.3051  -24.7367   19.7041 C   0  0  0  0  0  0
  -29.7293  -16.0394   20.7294 N   0  0  0  0  0  0
  -29.4700  -22.1472   19.9423 N   0  0  0  0  0  0
  -31.1954  -20.2626   18.4303 F   0  0  0  0  0  0
  -31.4767  -12.7193   19.1736 H   0  0  0  0  0  0
  -30.4438  -11.6016   20.0152 H   0  0  0  0  0  0
  -29.8313  -11.7163   17.5800 H   0  0  0  0  0  0
  -29.5926  -13.4440   17.7001 H   0  0  0  0  0  0
  -27.9783  -11.2480   19.0290 H   0  0  0  0  0  0
  -27.3812  -12.3793   17.8429 H   0  0  0  0  0  0
  -27.6113  -14.2316   19.4117 H   0  0  0  0  0  0
  -28.7532  -12.2640   21.4604 H   0  0  0  0  0  0
  -28.3750  -13.9394   21.7687 H   0  0  0  0  0  0
  -25.2758   -9.5682   22.4770 H   0  0  0  0  0  0
  -23.9996   -7.4638   22.7492 H   0  0  0  0  0  0
  -21.0844   -8.8772   19.8950 H   0  0  0  0  0  0
  -22.3703  -10.9672   19.6176 H   0  0  0  0  0  0
  -21.2012   -7.6155   23.9706 H   0  0  0  0  0  0
  -21.1479   -6.0529   25.9069 H   0  0  0  0  0  0
  -22.0600   -2.7617   23.2825 H   0  0  0  0  0  0
  -22.4075  -11.9859   22.4761 H   0  0  0  0  0  0
  -21.1086  -13.1251   22.2640 H   0  0  0  0  0  0
  -24.6646  -15.8501   20.5360 H   0  0  0  0  0  0
  -26.2804  -15.6293   20.0944 H   0  0  0  0  0  0
  -26.7253  -32.5315   23.0985 H   0  0  0  0  0  0
  -25.0117  -33.9606   25.0338 H   0  0  0  0  0  0
  -22.7459  -31.2934   21.3868 H   0  0  0  0  0  0
  -23.3761  -35.9586   23.3293 H   0  0  0  0  0  0
  -24.3580  -36.8911   22.2066 H   0  0  0  0  0  0
  -23.7247  -37.6451   23.6691 H   0  0  0  0  0  0
  -26.1487  -31.4801   20.6116 H   0  0  0  0  0  0
  -26.8700  -30.7731   22.0236 H   0  0  0  0  0  0
  -28.1219  -28.8065   21.2281 H   0  0  0  0  0  0
  -25.8682  -25.8473   19.0122 H   0  0  0  0  0  0
  -23.9606  -27.2959   18.9986 H   0  0  0  0  0  0
  -23.8158  -30.5822   19.4046 H   0  0  0  0  0  0
  -22.7803  -29.2552   19.8294 H   0  0  0  0  0  0
  -25.1298  -36.1866   25.0823 H   0  0  0  0  0  0
  -20.9979  -28.3287   24.1360 H   0  0  0  0  0  0
  -20.5677  -26.2328   23.3607 H   0  0  0  0  0  0
  -21.6663  -26.7422   22.1207 H   0  0  0  0  0  0
  -19.6958  -25.6281   21.1219 H   0  0  0  0  0  0
  -19.6722  -27.3166   20.6700 H   0  0  0  0  0  0
  -17.4229  -26.6653   21.3967 H   0  0  0  0  0  0
  -18.0348  -26.0053   22.8988 H   0  0  0  0  0  0
  -19.7995  -30.7240   24.2213 H   0  0  0  0  0  0
  -17.5080  -31.6254   24.5164 H   0  0  0  0  0  0
  -15.5386  -30.2966   23.7695 H   0  0  0  0  0  0
  -15.8695  -28.0824   22.7042 H   0  0  0  0  0  0
  -24.5910  -30.7092   25.7745 H   0  0  0  0  0  0
  -24.8947  -32.2922   26.4798 H   0  0  0  0  0  0
  -25.8043  -30.8938   27.0212 H   0  0  0  0  0  0
  -26.3054  -29.6679   24.1279 H   0  0  0  0  0  0
  -27.4157  -29.7297   25.4765 H   0  0  0  0  0  0
  -27.8907  -30.4273   23.9494 H   0  0  0  0  0  0
  -27.2640  -33.3667   26.1964 H   0  0  0  0  0  0
  -28.3902  -32.6863   25.0325 H   0  0  0  0  0  0
  -28.0693  -31.8533   26.5458 H   0  0  0  0  0  0
  -28.2579  -38.0088   24.7519 H   0  0  0  0  0  0
  -28.1085  -36.2622   24.6284 H   0  0  0  0  0  0
  -27.2300  -37.1409   25.8873 H   0  0  0  0  0  0
  -20.9501  -29.8814   21.6847 H   0  0  0  0  0  0
  -26.0155  -38.2826   24.1438 H   0  0  0  0  0  0
  -28.2478  -18.0044   22.0345 H   0  0  0  0  0  0
  -28.0795  -20.4222   21.7361 H   0  0  0  0  0  0
  -31.2137  -17.7920   18.9689 H   0  0  0  0  0  0
  -31.5934  -22.2278   20.0497 H   0  0  0  0  0  0
  -30.8427  -23.7595   19.6917 H   0  0  0  0  0  0
  -30.9108  -22.5427   18.4417 H   0  0  0  0  0  0
  -27.6498  -22.8799   20.8500 H   0  0  0  0  0  0
  -29.0965  -23.5805   21.4758 H   0  0  0  0  0  0
  -27.4119  -24.5358   19.1209 H   0  0  0  0  0  0
  -29.0583  -24.7986   18.9201 H   0  0  0  0  0  0
  -28.8579  -15.7208   21.1252 H   0  0  0  0  0  0
  1 25  1  0  0  0
  1 30  2  0  0  0
  1 80  1  0  0  0
  2  3  1  0  0  0
  2 25  1  0  0  0
  2 83  1  0  0  0
  2 84  1  0  0  0
  3  4  1  0  0  0
  3 85  1  0  0  0
  3 86  1  0  0  0
  4  5  1  0  0  0
  4 87  1  0  0  0
  4 88  1  0  0  0
  5  6  1  0  0  0
  5 26  1  0  0  0
  5 89  1  0  0  0
  6 25  1  0  0  0
  6 90  1  0  0  0
  6 91  1  0  0  0
  7  8  2  0  0  0
  7 26  1  0  0  0
  7 29  1  0  0  0
  8  9  1  0  0  0
  8 22  1  0  0  0
  9 10  1  0  0  0
  9 27  2  0  0  0
 10 11  2  0  0  0
 10 15  1  0  0  0
 11 12  1  0  0  0
 11 92  1  0  0  0
 12 13  2  0  0  0
 12 93  1  0  0  0
 13 14  1  0  0  0
 13 31  1  0  0  0
 14 15  2  0  0  0
 14 94  1  0  0  0
 15 95  1  0  0  0
 16 17  2  0  0  0
 16 21  1  0  0  0
 16 31  1  0  0  0
 17 18  1  0  0  0
 17 96  1  0  0  0
 18 19  2  0  0  0
 18 97  1  0  0  0
 19 20  1  0  0  0
 19 24  1  0  0  0
 20 21  2  0  0  0
 20 98  1  0  0  0
 21 23  1  0  0  0
 22 28  1  0  0  0
 22 32  2  0  0  0
 26 27  1  0  0  0
 28 99  1  0  0  0
 28100  1  0  0  0
 29101  1  0  0  0
 29102  1  0  0  0
 33 34  1  0  0  0
 33 66  1  0  0  0
 33 70  2  0  0  0
 34 36  1  0  0  0
 34 59  1  0  0  0
 34103  1  0  0  0
 35 44  2  0  0  0
 35 45  1  0  0  0
 35 68  1  0  0  0
 36 56  1  0  0  0
 36104  1  0  0  0
 37 39  1  0  0  0
 37 47  1  0  0  0
 37 66  1  0  0  0
 37105  1  0  0  0
 38 43  2  0  0  0
 38 46  1  0  0  0
 38 47  1  0  0  0
 39 64  1  0  0  0
 39 67  2  0  0  0
 40 52  1  0  0  0
 40 53  2  0  0  0
 40 58  1  0  0  0
 41106  1  0  0  0
 41107  1  0  0  0
 41108  1  0  0  0
 41 48  1  0  0  0
 42 43  1  0  0  0
 42 66  1  0  0  0
 42109  1  0  0  0
 42110  1  0  0  0
 43 44  1  0  0  0
 44111  1  0  0  0
 45 46  2  0  0  0
 45112  1  0  0  0
 46113  1  0  0  0
 47114  1  0  0  0
 47115  1  0  0  0
 48 56  1  0  0  0
 48 65  1  0  0  0
 48116  1  0  0  0
 49 50  1  0  0  0
 49 53  1  0  0  0
 49 64  1  0  0  0
 49117  1  0  0  0
 50 51  1  0  0  0
 50118  1  0  0  0
 50119  1  0  0  0
 51 52  1  0  0  0
 51120  1  0  0  0
 51121  1  0  0  0
 52122  1  0  0  0
 52123  1  0  0  0
 53 54  1  0  0  0
 54 55  2  0  0  0
 54124  1  0  0  0
 55 57  1  0  0  0
 55125  1  0  0  0
 56 69  2  0  0  0
 57 58  2  0  0  0
 57126  1  0  0  0
 58127  1  0  0  0
 59 60  1  0  0  0
 59 61  1  0  0  0
 59 62  1  0  0  0
 60128  1  0  0  0
 60129  1  0  0  0
 60130  1  0  0  0
 61131  1  0  0  0
 61132  1  0  0  0
 61133  1  0  0  0
 62134  1  0  0  0
 62135  1  0  0  0
 62136  1  0  0  0
 63 65  1  0  0  0
 63137  1  0  0  0
 63138  1  0  0  0
 63139  1  0  0  0
 64140  1  0  0  0
 65141  1  0  0  0
 68 79  1  0  0  0
 71 72  2  0  0  0
 71 74  1  0  0  0
 71142  1  0  0  0
 72 75  1  0  0  0
 72143  1  0  0  0
 73 74  2  0  0  0
 73 76  1  0  0  0
 73144  1  0  0  0
 74 80  1  0  0  0
 75 76  2  0  0  0
 75 81  1  0  0  0
 76 82  1  0  0  0
 77 81  1  0  0  0
 77145  1  0  0  0
 77146  1  0  0  0
 77147  1  0  0  0
 78 79  1  0  0  0
 78 81  1  0  0  0
 78148  1  0  0  0
 78149  1  0  0  0
 79150  1  0  0  0
 79151  1  0  0  0
 80152  1  0  0  0
M  ISO  4   1 100  68 101  79 101  80 100
M  END
> <chiral flag>
0

> <version>
0

> <s_m_source_file>
/data/baiqing/PycharmProjects/Reinvent-master-3.2/result/LINK_invent/BTK/process_docking_weight1_custom_product_contain_oxygen_bond_distance_aromatic_linkinvent_7_9_3/rearranged_h_0015.sdf

> <i_m_source_file_index>
12

> <r_mmod_Potential_Energy-OPLS-2005>
511.603118896484

> <r_mmod_Stretch_Energy-OPLS-2005>
230.296722412109

> <r_mmod_Bend_Energy-OPLS-2005>
284.916046142578

> <r_mmod_Torsional_Energy-OPLS-2005>
211.01481628418

> <r_mmod_Improper_Torsional_Energy-OPLS-2005>
5.03031587600708

> <r_mmod_Van_der_Waal_Energy-OPLS-2005>
145.182098388672

> <r_mmod_Electrostatic_Energy-OPLS-2005>
-309.540466308594

> <r_mmod_Solvation_Energy-OPLS-2005>
-229.006332397461

> <b_mmod_Minimization_Converged-OPLS-2005>
0

> <r_mmod_RMS_Derivative-OPLS-2005>
3.109783411026

$$$$
12
                    3D
 Structure written by MMmdl.
157166  0  0  1  0            999 V2000
  -30.6364  -14.7212   20.5602 C   0  0  0  0  0  0
  -30.4343  -12.4630   19.4710 C   0  0  0  0  0  0
  -29.5102  -12.5331   18.2348 C   0  0  0  0  0  0
  -28.0366  -12.3463   18.6421 C   0  0  0  0  0  0
  -27.6458  -13.2288   19.8549 C   0  0  2  0  0  0
  -28.6824  -13.1188   20.9895 C   0  0  0  0  0  0
  -25.2522  -13.8191   20.5685 C   0  0  0  0  0  0
  -24.1806  -13.0440   20.9187 C   0  0  0  0  0  0
  -24.6394  -11.6916   20.8731 C   0  0  0  0  0  0
  -23.9071  -10.4295   21.0403 C   0  0  0  0  0  0
  -24.3622   -9.4210   21.9183 C   0  0  0  0  0  0
  -23.6296   -8.2246   22.0751 C   0  0  0  0  0  0
  -22.4277   -8.0283   21.3543 C   0  0  0  0  0  0
  -21.9915   -9.0257   20.4644 C   0  0  0  0  0  0
  -22.7244  -10.2136   20.3053 C   0  0  0  0  0  0
  -21.6854   -6.0737   22.5280 C   0  0  0  0  0  0
  -21.4015   -6.5641   23.8214 C   0  0  0  0  0  0
  -21.3659   -5.6793   24.9176 C   0  0  0  0  0  0
  -21.6044   -4.3056   24.7225 C   0  0  0  0  0  0
  -21.8821   -3.8148   23.4347 C   0  0  0  0  0  0
  -21.9193   -4.6965   22.3403 C   0  0  0  0  0  0
  -22.7829  -13.5221   21.1867 C   0  0  0  0  0  0
  -22.1661   -4.2152   21.0980 F   0  0  0  0  0  0
  -21.5629   -3.4539   25.7737 F   0  0  0  0  0  0
  -29.9964  -13.4983   20.4411 N   0  0  0  0  0  0
  -26.2948  -12.9395   20.3268 N   0  0  0  0  0  0
  -25.9321  -11.6539   20.5722 N   0  0  0  0  0  0
  -22.0483  -12.8205   22.0425 N   0  0  0  0  0  0
  -25.4238  -15.1915   20.4133 N   0  0  0  0  0  0
  -31.7365  -14.8839   20.0209 O   0  0  0  0  0  0
  -21.6642   -6.8881   21.4241 O   0  0  0  0  0  0
  -22.3511  -14.5534   20.6728 O   0  0  0  0  0  0
  -24.6334  -31.8537   23.1980 C   0  0  0  0  0  0
  -25.9154  -32.4741   23.8326 C   0  0  1  0  0  0
  -27.2156  -27.2427   20.1299 C   0  0  0  0  0  0
  -25.5946  -33.8544   24.2248 N   0  0  0  0  0  0
  -23.4310  -30.4770   21.5415 C   0  0  2  0  0  0
  -24.8779  -28.9236   20.1095 C   0  0  0  0  0  0
  -22.7514  -29.4592   22.4899 C   0  0  0  0  0  0
  -18.0292  -28.1386   22.8486 C   0  0  0  0  0  0
  -24.1488  -36.7269   23.2643 C   0  0  0  0  0  0
  -25.9796  -30.7584   21.3846 C   0  0  0  0  0  0
  -26.0497  -29.3807   20.7246 C   0  0  0  0  0  0
  -27.2203  -28.5524   20.7247 C   0  0  0  0  0  0
  -26.0258  -26.8697   19.4647 C   0  0  0  0  0  0
  -24.8724  -27.6773   19.4675 C   0  0  0  0  0  0
  -23.6503  -29.8130   20.1571 C   0  0  0  0  0  0
  -25.4118  -36.3055   24.0321 C   0  0  1  0  0  0
  -20.5900  -28.3699   23.1261 C   0  0  2  0  0  0
  -20.6777  -26.9411   22.5409 C   0  0  0  0  0  0
  -19.5750  -26.6381   21.5215 C   0  0  0  0  0  0
  -18.1931  -26.7930   22.1625 C   0  0  0  0  0  0
  -19.1548  -28.8860   23.2868 C   0  0  0  0  0  0
  -18.9467  -30.1462   23.8883 C   0  0  0  0  0  0
  -17.6466  -30.6586   24.0561 C   0  0  0  0  0  0
  -25.9063  -34.9429   23.5087 C   0  0  0  0  0  0
  -16.5355  -29.9083   23.6336 C   0  0  0  0  0  0
  -16.7279  -28.6502   23.0357 C   0  0  0  0  0  0
  -26.4513  -31.6578   25.0729 C   0  0  0  0  0  0
  -25.3722  -31.3742   26.1442 C   0  0  0  0  0  0
  -27.0372  -30.2987   24.6254 C   0  0  0  0  0  0
  -27.6061  -32.4336   25.7495 C   0  0  0  0  0  0
  -27.5573  -37.1787   24.8467 C   0  0  0  0  0  0
  -21.4218  -29.3044   22.3647 N   0  0  0  0  0  0
  -26.4288  -37.3759   23.9407 N   0  0  0  0  0  0
  -24.7001  -31.0487   22.0969 N   0  0  0  0  0  0
  -23.4208  -28.8126   23.3000 O   0  0  0  0  0  0
  -28.3069  -26.3367   20.1923 O   0  0  0  0  0  0
  -26.5633  -34.8908   22.4654 O   0  0  0  0  0  0
  -23.5478  -32.1371   23.7262 O   0  0  0  0  0  0
  -29.5551  -19.1555   19.3881 C   0  0  0  0  0  0
  -29.0509  -19.5055   21.6858 C   0  0  0  0  0  0
  -29.8855  -17.7736   19.6546 C   0  0  0  0  0  0
  -29.3798  -18.1350   21.9496 C   0  0  0  0  0  0
  -29.1055  -20.0797   20.3883 C   0  0  0  0  0  0
  -29.7965  -17.1872   20.9549 C   0  0  0  0  0  0
  -28.9042  -23.9444   19.1830 C   0  0  0  0  0  0
  -28.6939  -23.8815   21.2263 C   0  0  0  0  0  0
  -28.0751  -24.8355   20.1541 C   0  0  1  0  0  0
  -30.0633  -15.4448   22.7555 C   0  0  0  0  0  0
  -28.4551  -21.5167   20.0526 C   0  0  0  0  0  0
  -30.0553  -15.7441   21.3114 N   0  0  0  0  0  0
  -29.1576  -22.8821   20.2103 N   0  3  1  0  0  0
  -31.4743  -12.5926   19.1669 H   0  0  0  0  0  0
  -30.3863  -11.4740   19.9298 H   0  0  0  0  0  0
  -29.7955  -11.7736   17.5059 H   0  0  0  0  0  0
  -29.6339  -13.4969   17.7386 H   0  0  0  0  0  0
  -27.8919  -11.2941   18.8899 H   0  0  0  0  0  0
  -27.3799  -12.5522   17.7963 H   0  0  0  0  0  0
  -27.6553  -14.2609   19.5028 H   0  0  0  0  0  0
  -28.7165  -12.1033   21.3863 H   0  0  0  0  0  0
  -28.3711  -13.7490   21.8194 H   0  0  0  0  0  0
  -25.2768   -9.5689   22.4755 H   0  0  0  0  0  0
  -24.0010   -7.4636   22.7467 H   0  0  0  0  0  0
  -21.0848   -8.8775   19.8947 H   0  0  0  0  0  0
  -22.3704  -10.9673   19.6160 H   0  0  0  0  0  0
  -21.2008   -7.6149   23.9719 H   0  0  0  0  0  0
  -21.1478   -6.0522   25.9079 H   0  0  0  0  0  0
  -22.0600   -2.7611   23.2846 H   0  0  0  0  0  0
  -22.4097  -11.9854   22.4791 H   0  0  0  0  0  0
  -21.1104  -13.1225   22.2647 H   0  0  0  0  0  0
  -24.6626  -15.8509   20.5327 H   0  0  0  0  0  0
  -26.2883  -15.6324   20.1237 H   0  0  0  0  0  0
  -26.7217  -32.5378   23.1061 H   0  0  0  0  0  0
  -25.0093  -33.9681   25.0393 H   0  0  0  0  0  0
  -22.7282  -31.2999   21.3956 H   0  0  0  0  0  0
  -23.3755  -35.9596   23.3300 H   0  0  0  0  0  0
  -24.3574  -36.8906   22.2060 H   0  0  0  0  0  0
  -23.7240  -37.6463   23.6678 H   0  0  0  0  0  0
  -26.1284  -31.5193   20.6172 H   0  0  0  0  0  0
  -26.8537  -30.8018   22.0230 H   0  0  0  0  0  0
  -28.1154  -28.8944   21.2251 H   0  0  0  0  0  0
  -25.9555  -25.9350   18.9300 H   0  0  0  0  0  0
  -23.9800  -27.3290   18.9656 H   0  0  0  0  0  0
  -23.7769  -30.5904   19.4027 H   0  0  0  0  0  0
  -22.7677  -29.2490   19.8500 H   0  0  0  0  0  0
  -25.1302  -36.1890   25.0813 H   0  0  0  0  0  0
  -20.9993  -28.3280   24.1382 H   0  0  0  0  0  0
  -20.5679  -26.2306   23.3614 H   0  0  0  0  0  0
  -21.6643  -26.7431   22.1200 H   0  0  0  0  0  0
  -19.6909  -25.6293   21.1244 H   0  0  0  0  0  0
  -19.6687  -27.3189   20.6744 H   0  0  0  0  0  0
  -17.4202  -26.6682   21.4024 H   0  0  0  0  0  0
  -18.0323  -26.0072   22.9019 H   0  0  0  0  0  0
  -19.7945  -30.7288   24.2239 H   0  0  0  0  0  0
  -17.5019  -31.6264   24.5169 H   0  0  0  0  0  0
  -15.5355  -30.2978   23.7673 H   0  0  0  0  0  0
  -15.8679  -28.0819   22.7076 H   0  0  0  0  0  0
  -24.5898  -30.7091   25.7769 H   0  0  0  0  0  0
  -24.8907  -32.2915   26.4841 H   0  0  0  0  0  0
  -25.8025  -30.8934   27.0236 H   0  0  0  0  0  0
  -26.2970  -29.6710   24.1279 H   0  0  0  0  0  0
  -27.4041  -29.7280   25.4797 H   0  0  0  0  0  0
  -27.8853  -30.4253   23.9521 H   0  0  0  0  0  0
  -27.2679  -33.3673   26.2000 H   0  0  0  0  0  0
  -28.3897  -32.6839   25.0331 H   0  0  0  0  0  0
  -28.0691  -31.8505   26.5464 H   0  0  0  0  0  0
  -28.2587  -38.0087   24.7519 H   0  0  0  0  0  0
  -28.1072  -36.2618   24.6290 H   0  0  0  0  0  0
  -27.2287  -37.1437   25.8868 H   0  0  0  0  0  0
  -20.9403  -29.8775   21.6859 H   0  0  0  0  0  0
  -26.0157  -38.2824   24.1422 H   0  0  0  0  0  0
  -29.5980  -19.4901   18.3605 H   0  0  0  0  0  0
  -28.6884  -20.1081   22.5074 H   0  0  0  0  0  0
  -30.1867  -17.1533   18.8222 H   0  0  0  0  0  0
  -29.2614  -17.8235   22.9763 H   0  0  0  0  0  0
  -29.8364  -24.4217   18.8795 H   0  0  0  0  0  0
  -28.3454  -23.6113   18.3084 H   0  0  0  0  0  0
  -27.9710  -23.4854   21.9402 H   0  0  0  0  0  0
  -29.5381  -24.3343   21.7473 H   0  0  0  0  0  0
  -27.0210  -24.5709   20.0882 H   0  0  0  0  0  0
  -30.7711  -16.0933   23.2733 H   0  0  0  0  0  0
  -30.3557  -14.4214   23.0034 H   0  0  0  0  0  0
  -29.0730  -15.5974   23.1855 H   0  0  0  0  0  0
  -27.5042  -21.5713   20.5819 H   0  0  0  0  0  0
  -28.1652  -21.4448   19.0045 H   0  0  0  0  0  0
  -30.1504  -22.7264   20.2917 H   0  0  0  0  0  0
  1 25  1  0  0  0
  1 30  2  0  0  0
  1 82  1  0  0  0
  2  3  1  0  0  0
  2 25  1  0  0  0
  2 84  1  0  0  0
  2 85  1  0  0  0
  3  4  1  0  0  0
  3 86  1  0  0  0
  3 87  1  0  0  0
  4  5  1  0  0  0
  4 88  1  0  0  0
  4 89  1  0  0  0
  5  6  1  0  0  0
  5 26  1  0  0  0
  5 90  1  0  0  0
  6 25  1  0  0  0
  6 91  1  0  0  0
  6 92  1  0  0  0
  7  8  2  0  0  0
  7 26  1  0  0  0
  7 29  1  0  0  0
  8  9  1  0  0  0
  8 22  1  0  0  0
  9 10  1  0  0  0
  9 27  2  0  0  0
 10 11  2  0  0  0
 10 15  1  0  0  0
 11 12  1  0  0  0
 11 93  1  0  0  0
 12 13  2  0  0  0
 12 94  1  0  0  0
 13 14  1  0  0  0
 13 31  1  0  0  0
 14 15  2  0  0  0
 14 95  1  0  0  0
 15 96  1  0  0  0
 16 17  2  0  0  0
 16 21  1  0  0  0
 16 31  1  0  0  0
 17 18  1  0  0  0
 17 97  1  0  0  0
 18 19  2  0  0  0
 18 98  1  0  0  0
 19 20  1  0  0  0
 19 24  1  0  0  0
 20 21  2  0  0  0
 20 99  1  0  0  0
 21 23  1  0  0  0
 22 28  1  0  0  0
 22 32  2  0  0  0
 26 27  1  0  0  0
 28100  1  0  0  0
 28101  1  0  0  0
 29102  1  0  0  0
 29103  1  0  0  0
 33 34  1  0  0  0
 33 66  1  0  0  0
 33 70  2  0  0  0
 34 36  1  0  0  0
 34 59  1  0  0  0
 34104  1  0  0  0
 35 44  2  0  0  0
 35 45  1  0  0  0
 35 68  1  0  0  0
 36 56  1  0  0  0
 36105  1  0  0  0
 37 39  1  0  0  0
 37 47  1  0  0  0
 37 66  1  0  0  0
 37106  1  0  0  0
 38 43  2  0  0  0
 38 46  1  0  0  0
 38 47  1  0  0  0
 39 64  1  0  0  0
 39 67  2  0  0  0
 40 52  1  0  0  0
 40 53  2  0  0  0
 40 58  1  0  0  0
 41107  1  0  0  0
 41108  1  0  0  0
 41109  1  0  0  0
 41 48  1  0  0  0
 42 43  1  0  0  0
 42 66  1  0  0  0
 42110  1  0  0  0
 42111  1  0  0  0
 43 44  1  0  0  0
 44112  1  0  0  0
 45 46  2  0  0  0
 45113  1  0  0  0
 46114  1  0  0  0
 47115  1  0  0  0
 47116  1  0  0  0
 48 56  1  0  0  0
 48 65  1  0  0  0
 48117  1  0  0  0
 49 50  1  0  0  0
 49 53  1  0  0  0
 49 64  1  0  0  0
 49118  1  0  0  0
 50 51  1  0  0  0
 50119  1  0  0  0
 50120  1  0  0  0
 51 52  1  0  0  0
 51121  1  0  0  0
 51122  1  0  0  0
 52123  1  0  0  0
 52124  1  0  0  0
 53 54  1  0  0  0
 54 55  2  0  0  0
 54125  1  0  0  0
 55 57  1  0  0  0
 55126  1  0  0  0
 56 69  2  0  0  0
 57 58  2  0  0  0
 57127  1  0  0  0
 58128  1  0  0  0
 59 60  1  0  0  0
 59 61  1  0  0  0
 59 62  1  0  0  0
 60129  1  0  0  0
 60130  1  0  0  0
 60131  1  0  0  0
 61132  1  0  0  0
 61133  1  0  0  0
 61134  1  0  0  0
 62135  1  0  0  0
 62136  1  0  0  0
 62137  1  0  0  0
 63 65  1  0  0  0
 63138  1  0  0  0
 63139  1  0  0  0
 63140  1  0  0  0
 64141  1  0  0  0
 65142  1  0  0  0
 68 79  1  0  0  0
 71 73  2  0  0  0
 71 75  1  0  0  0
 71143  1  0  0  0
 72 74  1  0  0  0
 72 75  2  0  0  0
 72144  1  0  0  0
 73 76  1  0  0  0
 73145  1  0  0  0
 74 76  2  0  0  0
 74146  1  0  0  0
 75 81  1  0  0  0
 76 82  1  0  0  0
 77 79  1  0  0  0
 77 83  1  0  0  0
 77147  1  0  0  0
 77148  1  0  0  0
 78 79  1  0  0  0
 78 83  1  0  0  0
 78149  1  0  0  0
 78150  1  0  0  0
 79151  1  0  0  0
 80 82  1  0  0  0
 80152  1  0  0  0
 80153  1  0  0  0
 80154  1  0  0  0
 81155  1  0  0  0
 81156  1  0  0  0
 81 83  1  0  0  0
 83157  1  0  0  0
M  CHG  1  83   1
M  ISO  4   1 100  68 101  79 101  82 100
M  END
> <chiral flag>
0

> <version>
0

> <s_m_source_file>
/data/baiqing/PycharmProjects/Reinvent-master-3.2/result/LINK_invent/BTK/process_docking_weight1_custom_product_contain_oxygen_bond_distance_aromatic_linkinvent_7_9_3/rearranged_h_0015.sdf

> <i_m_source_file_index>
13

> <r_mmod_Potential_Energy-OPLS-2005>
180.966156005859

> <r_mmod_Stretch_Energy-OPLS-2005>
132.242858886719

> <r_mmod_Bend_Energy-OPLS-2005>
206.477325439453

> <r_mmod_Torsional_Energy-OPLS-2005>
306.332916259766

> <r_mmod_Improper_Torsional_Energy-OPLS-2005>
4.23472881317139

> <r_mmod_Van_der_Waal_Energy-OPLS-2005>
150.829284667969

> <r_mmod_Electrostatic_Energy-OPLS-2005>
-237.654479980469

> <r_mmod_Solvation_Energy-OPLS-2005>
-464.720733642578

> <b_mmod_Minimization_Converged-OPLS-2005>
0

> <r_mmod_RMS_Derivative-OPLS-2005>
0.613319218158722

$$$$
13
                    3D
 Structure written by MMmdl.
159167  0  0  1  0            999 V2000
  -30.6785  -14.4685   20.6379 C   0  0  0  0  0  0
  -30.4355  -12.3238   19.4292 C   0  0  0  0  0  0
  -29.5038  -12.5313   18.2162 C   0  0  0  0  0  0
  -28.0260  -12.3734   18.6252 C   0  0  0  0  0  0
  -27.6681  -13.2030   19.8857 C   0  0  2  0  0  0
  -28.7010  -12.9599   21.0081 C   0  0  0  0  0  0
  -25.2618  -13.8167   20.5680 C   0  0  0  0  0  0
  -24.1860  -13.0443   20.9155 C   0  0  0  0  0  0
  -24.6398  -11.6898   20.8727 C   0  0  0  0  0  0
  -23.9065  -10.4282   21.0405 C   0  0  0  0  0  0
  -24.3614   -9.4209   21.9198 C   0  0  0  0  0  0
  -23.6286   -8.2258   22.0763 C   0  0  0  0  0  0
  -22.4284   -8.0293   21.3545 C   0  0  0  0  0  0
  -21.9912   -9.0268   20.4653 C   0  0  0  0  0  0
  -22.7238  -10.2142   20.3056 C   0  0  0  0  0  0
  -21.6853   -6.0735   22.5279 C   0  0  0  0  0  0
  -21.4014   -6.5638   23.8210 C   0  0  0  0  0  0
  -21.3655   -5.6796   24.9171 C   0  0  0  0  0  0
  -21.6042   -4.3059   24.7228 C   0  0  0  0  0  0
  -21.8823   -3.8149   23.4352 C   0  0  0  0  0  0
  -21.9189   -4.6958   22.3405 C   0  0  0  0  0  0
  -22.7891  -13.5254   21.1826 C   0  0  0  0  0  0
  -22.1664   -4.2148   21.0979 F   0  0  0  0  0  0
  -21.5625   -3.4541   25.7736 F   0  0  0  0  0  0
  -30.0424  -13.2764   20.4811 N   0  0  0  0  0  0
  -26.3051  -12.9326   20.3390 N   0  0  0  0  0  0
  -25.9325  -11.6484   20.5763 N   0  0  0  0  0  0
  -22.0500  -12.8259   22.0355 N   0  0  0  0  0  0
  -25.4370  -15.1897   20.4119 N   0  0  0  0  0  0
  -31.7387  -14.7504   20.0701 O   0  0  0  0  0  0
  -21.6648   -6.8897   21.4253 O   0  0  0  0  0  0
  -22.3582  -14.5554   20.6658 O   0  0  0  0  0  0
  -24.6162  -31.8687   23.2076 C   0  0  0  0  0  0
  -25.9060  -32.4824   23.8357 C   0  0  1  0  0  0
  -27.2242  -27.4320   20.0762 C   0  0  0  0  0  0
  -25.5896  -33.8608   24.2291 N   0  0  0  0  0  0
  -23.3993  -30.4956   21.5499 C   0  0  2  0  0  0
  -24.8363  -28.9616   20.1119 C   0  0  0  0  0  0
  -22.7419  -29.4672   22.4975 C   0  0  0  0  0  0
  -18.0240  -28.1352   22.8515 C   0  0  0  0  0  0
  -24.1473  -36.7336   23.2641 C   0  0  0  0  0  0
  -25.9271  -30.8347   21.3555 C   0  0  0  0  0  0
  -25.9996  -29.4673   20.7058 C   0  0  0  0  0  0
  -27.1936  -28.7114   20.6807 C   0  0  0  0  0  0
  -26.0341  -26.9346   19.4905 C   0  0  0  0  0  0
  -24.8522  -27.6975   19.4984 C   0  0  0  0  0  0
  -23.6014  -29.8303   20.1622 C   0  0  0  0  0  0
  -25.4102  -36.3124   24.0335 C   0  0  1  0  0  0
  -20.5848  -28.3644   23.1213 C   0  0  2  0  0  0
  -20.6727  -26.9374   22.5280 C   0  0  0  0  0  0
  -19.5599  -26.6274   21.5211 C   0  0  0  0  0  0
  -18.1850  -26.7840   22.1756 C   0  0  0  0  0  0
  -19.1509  -28.8828   23.2851 C   0  0  0  0  0  0
  -18.9439  -30.1437   23.8847 C   0  0  0  0  0  0
  -17.6430  -30.6571   24.0523 C   0  0  0  0  0  0
  -25.9043  -34.9491   23.5127 C   0  0  0  0  0  0
  -16.5306  -29.9064   23.6297 C   0  0  0  0  0  0
  -16.7226  -28.6465   23.0368 C   0  0  0  0  0  0
  -26.4464  -31.6615   25.0693 C   0  0  0  0  0  0
  -25.3726  -31.3732   26.1442 C   0  0  0  0  0  0
  -27.0295  -30.3065   24.6062 C   0  0  0  0  0  0
  -27.6045  -32.4348   25.7448 C   0  0  0  0  0  0
  -27.5569  -37.1827   24.8463 C   0  0  0  0  0  0
  -21.4159  -29.3015   22.3657 N   0  0  0  0  0  0
  -26.4286  -37.3814   23.9416 N   0  0  0  0  0  0
  -24.6669  -31.0794   22.0969 N   0  0  0  0  0  0
  -23.4220  -28.8225   23.3010 O   0  0  0  0  0  0
  -28.4202  -26.7375   20.0726 O   0  0  0  0  0  0
  -26.5633  -34.8960   22.4695 O   0  0  0  0  0  0
  -23.5358  -32.1395   23.7508 O   0  0  0  0  0  0
  -28.7164  -18.4232   19.8078 C   0  0  0  0  0  0
  -29.3114  -17.4657   22.3676 C   0  0  0  0  0  0
  -28.3684  -19.2216   20.9275 C   0  0  0  0  0  0
  -29.6214  -16.6543   21.2529 C   0  0  0  0  0  0
  -29.3187  -17.1539   19.9620 C   0  0  0  0  0  0
  -28.6872  -18.7247   22.2135 C   0  0  0  0  0  0
  -27.3477  -22.2189   22.4865 C   0  0  0  0  0  0
  -27.5182  -20.4935   20.7108 C   0  0  0  0  0  0
  -28.0716  -24.3599   20.6846 C   0  0  0  0  0  0
  -28.1006  -22.8785   20.1959 C   0  0  0  0  0  0
  -28.4742  -25.3839   19.5969 C   0  0  0  0  0  0
  -30.0750  -15.3163   21.4952 N   0  0  0  0  0  0
  -28.0432  -21.7964   21.2408 N   0  3  1  0  0  0
  -29.5221  -16.3999   18.8561 F   0  0  0  0  0  0
  -28.3643  -19.4290   23.3207 F   0  0  0  0  0  0
  -31.4767  -12.4475   19.1329 H   0  0  0  0  0  0
  -30.3531  -11.3042   19.8086 H   0  0  0  0  0  0
  -29.7521  -11.8233   17.4254 H   0  0  0  0  0  0
  -29.6645  -13.5261   17.8001 H   0  0  0  0  0  0
  -27.8470  -11.3159   18.8202 H   0  0  0  0  0  0
  -27.3741  -12.6482   17.7972 H   0  0  0  0  0  0
  -27.7216  -14.2544   19.6047 H   0  0  0  0  0  0
  -28.6759  -11.9221   21.3401 H   0  0  0  0  0  0
  -28.4284  -13.5354   21.8924 H   0  0  0  0  0  0
  -25.2754   -9.5695   22.4771 H   0  0  0  0  0  0
  -23.9981   -7.4663   22.7490 H   0  0  0  0  0  0
  -21.0844   -8.8795   19.8967 H   0  0  0  0  0  0
  -22.3703  -10.9687   19.6163 H   0  0  0  0  0  0
  -21.2011   -7.6146   23.9715 H   0  0  0  0  0  0
  -21.1472   -6.0521   25.9073 H   0  0  0  0  0  0
  -22.0602   -2.7610   23.2850 H   0  0  0  0  0  0
  -22.4063  -11.9889   22.4736 H   0  0  0  0  0  0
  -21.1127  -13.1334   22.2541 H   0  0  0  0  0  0
  -24.6756  -15.8488   20.5263 H   0  0  0  0  0  0
  -26.2909  -15.6233   20.0838 H   0  0  0  0  0  0
  -26.7120  -32.5508   23.1110 H   0  0  0  0  0  0
  -24.9931  -33.9738   25.0359 H   0  0  0  0  0  0
  -22.6910  -31.3152   21.4175 H   0  0  0  0  0  0
  -23.3721  -35.9675   23.3306 H   0  0  0  0  0  0
  -24.3551  -36.8957   22.2050 H   0  0  0  0  0  0
  -23.7233  -37.6552   23.6652 H   0  0  0  0  0  0
  -26.0347  -31.5944   20.5820 H   0  0  0  0  0  0
  -26.8197  -30.8923   21.9684 H   0  0  0  0  0  0
  -28.0990  -29.1098   21.1207 H   0  0  0  0  0  0
  -25.9846  -25.9695   19.0079 H   0  0  0  0  0  0
  -23.9587  -27.3146   19.0243 H   0  0  0  0  0  0
  -23.7077  -30.6039   19.3992 H   0  0  0  0  0  0
  -22.7231  -29.2536   19.8638 H   0  0  0  0  0  0
  -25.1270  -36.1971   25.0824 H   0  0  0  0  0  0
  -20.9920  -28.3151   24.1339 H   0  0  0  0  0  0
  -20.5796  -26.2246   23.3483 H   0  0  0  0  0  0
  -21.6532  -26.7460   22.0862 H   0  0  0  0  0  0
  -19.6696  -25.6136   21.1356 H   0  0  0  0  0  0
  -19.6436  -27.3028   20.6664 H   0  0  0  0  0  0
  -17.3986  -26.6467   21.4296 H   0  0  0  0  0  0
  -18.0400  -26.0091   22.9291 H   0  0  0  0  0  0
  -19.7953  -30.7226   24.2172 H   0  0  0  0  0  0
  -17.4969  -31.6253   24.5122 H   0  0  0  0  0  0
  -15.5308  -30.2965   23.7594 H   0  0  0  0  0  0
  -15.8588  -28.0803   22.7130 H   0  0  0  0  0  0
  -24.5900  -30.7074   25.7786 H   0  0  0  0  0  0
  -24.8894  -32.2882   26.4878 H   0  0  0  0  0  0
  -25.8060  -30.8910   27.0206 H   0  0  0  0  0  0
  -26.2816  -29.6848   24.1124 H   0  0  0  0  0  0
  -27.4089  -29.7292   25.4504 H   0  0  0  0  0  0
  -27.8638  -30.4411   23.9175 H   0  0  0  0  0  0
  -27.2664  -33.3651   26.2020 H   0  0  0  0  0  0
  -28.3830  -32.6912   25.0255 H   0  0  0  0  0  0
  -28.0726  -31.8472   26.5352 H   0  0  0  0  0  0
  -28.2615  -38.0105   24.7504 H   0  0  0  0  0  0
  -28.1046  -36.2641   24.6283 H   0  0  0  0  0  0
  -27.2296  -37.1477   25.8874 H   0  0  0  0  0  0
  -20.9388  -29.8569   21.6694 H   0  0  0  0  0  0
  -26.0173  -38.2892   24.1408 H   0  0  0  0  0  0
  -28.4545  -18.7404   18.8083 H   0  0  0  0  0  0
  -29.5094  -17.1098   23.3668 H   0  0  0  0  0  0
  -27.2595  -21.4124   23.2091 H   0  0  0  0  0  0
  -26.3364  -22.5712   22.2781 H   0  0  0  0  0  0
  -27.8903  -23.0170   22.9918 H   0  0  0  0  0  0
  -26.5127  -20.3116   21.0957 H   0  0  0  0  0  0
  -27.3781  -20.5756   19.6326 H   0  0  0  0  0  0
  -28.7464  -24.5034   21.5274 H   0  0  0  0  0  0
  -27.0679  -24.5971   21.0479 H   0  0  0  0  0  0
  -29.0046  -22.7066   19.6118 H   0  0  0  0  0  0
  -27.2636  -22.7631   19.5021 H   0  0  0  0  0  0
  -27.9167  -25.2428   18.6701 H   0  0  0  0  0  0
  -29.5118  -25.1945   19.3175 H   0  0  0  0  0  0
  -29.5236  -14.8341   22.1887 H   0  0  0  0  0  0
  -28.9998  -21.6198   21.5089 H   0  0  0  0  0  0
  1 25  1  0  0  0
  1 30  2  0  0  0
  1 82  1  0  0  0
  2  3  1  0  0  0
  2 25  1  0  0  0
  2 86  1  0  0  0
  2 87  1  0  0  0
  3  4  1  0  0  0
  3 88  1  0  0  0
  3 89  1  0  0  0
  4  5  1  0  0  0
  4 90  1  0  0  0
  4 91  1  0  0  0
  5  6  1  0  0  0
  5 26  1  0  0  0
  5 92  1  0  0  0
  6 25  1  0  0  0
  6 93  1  0  0  0
  6 94  1  0  0  0
  7  8  2  0  0  0
  7 26  1  0  0  0
  7 29  1  0  0  0
  8  9  1  0  0  0
  8 22  1  0  0  0
  9 10  1  0  0  0
  9 27  2  0  0  0
 10 11  2  0  0  0
 10 15  1  0  0  0
 11 12  1  0  0  0
 11 95  1  0  0  0
 12 13  2  0  0  0
 12 96  1  0  0  0
 13 14  1  0  0  0
 13 31  1  0  0  0
 14 15  2  0  0  0
 14 97  1  0  0  0
 15 98  1  0  0  0
 16 17  2  0  0  0
 16 21  1  0  0  0
 16 31  1  0  0  0
 17 18  1  0  0  0
 17 99  1  0  0  0
 18 19  2  0  0  0
 18100  1  0  0  0
 19 20  1  0  0  0
 19 24  1  0  0  0
 20 21  2  0  0  0
 20101  1  0  0  0
 21 23  1  0  0  0
 22 28  1  0  0  0
 22 32  2  0  0  0
 26 27  1  0  0  0
 28102  1  0  0  0
 28103  1  0  0  0
 29104  1  0  0  0
 29105  1  0  0  0
 33 34  1  0  0  0
 33 66  1  0  0  0
 33 70  2  0  0  0
 34 36  1  0  0  0
 34 59  1  0  0  0
 34106  1  0  0  0
 35 44  2  0  0  0
 35 45  1  0  0  0
 35 68  1  0  0  0
 36 56  1  0  0  0
 36107  1  0  0  0
 37 39  1  0  0  0
 37 47  1  0  0  0
 37 66  1  0  0  0
 37108  1  0  0  0
 38 43  2  0  0  0
 38 46  1  0  0  0
 38 47  1  0  0  0
 39 64  1  0  0  0
 39 67  2  0  0  0
 40 52  1  0  0  0
 40 53  2  0  0  0
 40 58  1  0  0  0
 41109  1  0  0  0
 41110  1  0  0  0
 41111  1  0  0  0
 41 48  1  0  0  0
 42 43  1  0  0  0
 42 66  1  0  0  0
 42112  1  0  0  0
 42113  1  0  0  0
 43 44  1  0  0  0
 44114  1  0  0  0
 45 46  2  0  0  0
 45115  1  0  0  0
 46116  1  0  0  0
 47117  1  0  0  0
 47118  1  0  0  0
 48 56  1  0  0  0
 48 65  1  0  0  0
 48119  1  0  0  0
 49 50  1  0  0  0
 49 53  1  0  0  0
 49 64  1  0  0  0
 49120  1  0  0  0
 50 51  1  0  0  0
 50121  1  0  0  0
 50122  1  0  0  0
 51 52  1  0  0  0
 51123  1  0  0  0
 51124  1  0  0  0
 52125  1  0  0  0
 52126  1  0  0  0
 53 54  1  0  0  0
 54 55  2  0  0  0
 54127  1  0  0  0
 55 57  1  0  0  0
 55128  1  0  0  0
 56 69  2  0  0  0
 57 58  2  0  0  0
 57129  1  0  0  0
 58130  1  0  0  0
 59 60  1  0  0  0
 59 61  1  0  0  0
 59 62  1  0  0  0
 60131  1  0  0  0
 60132  1  0  0  0
 60133  1  0  0  0
 61134  1  0  0  0
 61135  1  0  0  0
 61136  1  0  0  0
 62137  1  0  0  0
 62138  1  0  0  0
 62139  1  0  0  0
 63 65  1  0  0  0
 63140  1  0  0  0
 63141  1  0  0  0
 63142  1  0  0  0
 64143  1  0  0  0
 65144  1  0  0  0
 68 81  1  0  0  0
 71 73  2  0  0  0
 71 75  1  0  0  0
 71145  1  0  0  0
 72 74  1  0  0  0
 72 76  2  0  0  0
 72146  1  0  0  0
 73 76  1  0  0  0
 73 78  1  0  0  0
 74 75  2  0  0  0
 74 82  1  0  0  0
 75 84  1  0  0  0
 76 85  1  0  0  0
 77147  1  0  0  0
 77148  1  0  0  0
 77149  1  0  0  0
 77 83  1  0  0  0
 78 83  1  0  0  0
 78150  1  0  0  0
 78151  1  0  0  0
 79 80  1  0  0  0
 79 81  1  0  0  0
 79152  1  0  0  0
 79153  1  0  0  0
 80 83  1  0  0  0
 80154  1  0  0  0
 80155  1  0  0  0
 81156  1  0  0  0
 81157  1  0  0  0
 82158  1  0  0  0
 83159  1  0  0  0
M  CHG  1  83   1
M  ISO  4   1 100  68 101  81 101  82 100
M  END
> <chiral flag>
0

> <version>
0

> <s_m_source_file>
/data/baiqing/PycharmProjects/Reinvent-master-3.2/result/LINK_invent/BTK/process_docking_weight1_custom_product_contain_oxygen_bond_distance_aromatic_linkinvent_7_9_3/rearranged_h_0015.sdf

> <i_m_source_file_index>
14

> <r_mmod_Potential_Energy-OPLS-2005>
-209.067749023438

> <r_mmod_Stretch_Energy-OPLS-2005>
42.3096542358398

> <r_mmod_Bend_Energy-OPLS-2005>
115.813148498535

> <r_mmod_Torsional_Energy-OPLS-2005>
236.907745361328

> <r_mmod_Improper_Torsional_Energy-OPLS-2005>
5.71857976913452

> <r_mmod_Van_der_Waal_Energy-OPLS-2005>
159.994415283203

> <r_mmod_Electrostatic_Energy-OPLS-2005>
-320.235382080078

> <r_mmod_Solvation_Energy-OPLS-2005>
-462.029876708984

> <b_mmod_Minimization_Converged-OPLS-2005>
0

> <r_mmod_RMS_Derivative-OPLS-2005>
4.98608303070068

$$$$
14
                    3D
 Structure written by MMmdl.
152160  0  0  1  0            999 V2000
  -30.5543  -14.9201   20.4979 C   0  0  0  0  0  0
  -30.4446  -12.5879   19.4861 C   0  0  0  0  0  0
  -29.5149  -12.5603   18.2482 C   0  0  0  0  0  0
  -28.0447  -12.3510   18.6600 C   0  0  0  0  0  0
  -27.6390  -13.2472   19.8562 C   0  0  2  0  0  0
  -28.6840  -13.2026   20.9876 C   0  0  0  0  0  0
  -25.2488  -13.8196   20.5725 C   0  0  0  0  0  0
  -24.1790  -13.0439   20.9228 C   0  0  0  0  0  0
  -24.6403  -11.6918   20.8755 C   0  0  0  0  0  0
  -23.9091  -10.4290   21.0419 C   0  0  0  0  0  0
  -24.3632   -9.4208   21.9197 C   0  0  0  0  0  0
  -23.6307   -8.2241   22.0758 C   0  0  0  0  0  0
  -22.4304   -8.0279   21.3530 C   0  0  0  0  0  0
  -21.9945   -9.0261   20.4648 C   0  0  0  0  0  0
  -22.7270  -10.2141   20.3063 C   0  0  0  0  0  0
  -21.6855   -6.0735   22.5270 C   0  0  0  0  0  0
  -21.4015   -6.5638   23.8198 C   0  0  0  0  0  0
  -21.3662   -5.6791   24.9165 C   0  0  0  0  0  0
  -21.6052   -4.3054   24.7219 C   0  0  0  0  0  0
  -21.8820   -3.8152   23.4331 C   0  0  0  0  0  0
  -21.9197   -4.6965   22.3394 C   0  0  0  0  0  0
  -22.7813  -13.5209   21.1875 C   0  0  0  0  0  0
  -22.1667   -4.2158   21.0966 F   0  0  0  0  0  0
  -21.5640   -3.4543   25.7726 F   0  0  0  0  0  0
  -29.9663  -13.6520   20.4192 N   0  0  0  0  0  0
  -26.2937  -12.9443   20.3340 N   0  0  0  0  0  0
  -25.9349  -11.6557   20.5790 N   0  0  0  0  0  0
  -22.0467  -12.8174   22.0419 N   0  0  0  0  0  0
  -25.4184  -15.1907   20.4090 N   0  0  0  0  0  0
  -31.6970  -15.0351   20.0371 O   0  0  0  0  0  0
  -21.6640   -6.8895   21.4228 O   0  0  0  0  0  0
  -22.3490  -14.5519   20.6733 O   0  0  0  0  0  0
  -24.6443  -31.8464   23.1900 C   0  0  0  0  0  0
  -25.9213  -32.4699   23.8309 C   0  0  1  0  0  0
  -27.2202  -27.1489   20.1508 C   0  0  0  0  0  0
  -25.5962  -33.8498   24.2229 N   0  0  0  0  0  0
  -23.4468  -30.4675   21.5327 C   0  0  2  0  0  0
  -24.8979  -28.8932   20.1152 C   0  0  0  0  0  0
  -22.7559  -29.4591   22.4842 C   0  0  0  0  0  0
  -18.0307  -28.1413   22.8465 C   0  0  0  0  0  0
  -24.1464  -36.7239   23.2642 C   0  0  0  0  0  0
  -26.0020  -30.7273   21.3832 C   0  0  0  0  0  0
  -26.0761  -29.3364   20.7294 C   0  0  0  0  0  0
  -27.2377  -28.4795   20.7345 C   0  0  0  0  0  0
  -26.0147  -26.8052   19.5008 C   0  0  0  0  0  0
  -24.8779  -27.6391   19.4917 C   0  0  0  0  0  0
  -23.6758  -29.7956   20.1527 C   0  0  0  0  0  0
  -25.4094  -36.3023   24.0317 C   0  0  1  0  0  0
  -20.5920  -28.3765   23.1201 C   0  0  2  0  0  0
  -20.6784  -26.9458   22.5371 C   0  0  0  0  0  0
  -19.5750  -26.6402   21.5186 C   0  0  0  0  0  0
  -18.1932  -26.7955   22.1603 C   0  0  0  0  0  0
  -19.1567  -28.8906   23.2829 C   0  0  0  0  0  0
  -18.9493  -30.1497   23.8852 C   0  0  0  0  0  0
  -17.6492  -30.6607   24.0568 C   0  0  0  0  0  0
  -25.9063  -34.9401   23.5082 C   0  0  0  0  0  0
  -16.5381  -29.9104   23.6333 C   0  0  0  0  0  0
  -16.7296  -28.6527   23.0351 C   0  0  0  0  0  0
  -26.4559  -31.6554   25.0747 C   0  0  0  0  0  0
  -25.3724  -31.3670   26.1409 C   0  0  0  0  0  0
  -27.0511  -30.2993   24.6316 C   0  0  0  0  0  0
  -27.6113  -32.4324   25.7526 C   0  0  0  0  0  0
  -27.5553  -37.1769   24.8458 C   0  0  0  0  0  0
  -21.4258  -29.3099   22.3579 N   0  0  0  0  0  0
  -26.4243  -37.3744   23.9430 N   0  0  0  0  0  0
  -24.7182  -31.0332   22.0926 N   0  0  0  0  0  0
  -23.4181  -28.8091   23.2980 O   0  0  0  0  0  0
  -28.2709  -26.1659   20.2233 O   0  0  0  0  0  0
  -26.5645  -34.8896   22.4655 O   0  0  0  0  0  0
  -23.5564  -32.1347   23.7115 O   0  0  0  0  0  0
  -27.9349  -19.3915   20.3858 C   0  0  0  0  0  0
  -28.2799  -17.9921   20.5105 C   0  0  0  0  0  0
  -30.2174  -19.9790   20.4749 C   0  0  0  0  0  0
  -28.8703  -20.4817   20.3740 C   0  0  0  0  0  0
  -29.6134  -17.4809   20.6220 C   0  0  0  0  0  0
  -30.5734  -18.5624   20.6034 C   0  0  0  0  0  0
  -29.6788  -15.9227   22.5127 C   0  0  0  0  0  0
  -28.9377  -23.3167   20.3901 C   0  0  0  0  0  0
  -27.9785  -24.6530   20.0222 C   0  0  0  0  0  0
  -28.3621  -21.8769   20.2665 N   0  0  0  0  0  0
  -29.8624  -16.0323   21.0609 N   0  0  0  0  0  0
  -31.8817  -18.2567   20.7817 F   0  0  0  0  0  0
  -31.4730  -12.7551   19.1655 H   0  0  0  0  0  0
  -30.4522  -11.6176   19.9852 H   0  0  0  0  0  0
  -29.8244  -11.7777   17.5536 H   0  0  0  0  0  0
  -29.6068  -13.5023   17.7082 H   0  0  0  0  0  0
  -27.9185  -11.3007   18.9242 H   0  0  0  0  0  0
  -27.3829  -12.5359   17.8132 H   0  0  0  0  0  0
  -27.6246  -14.2694   19.4752 H   0  0  0  0  0  0
  -28.7728  -12.1941   21.3930 H   0  0  0  0  0  0
  -28.3584  -13.8256   21.8171 H   0  0  0  0  0  0
  -25.2772   -9.5676   22.4784 H   0  0  0  0  0  0
  -24.0022   -7.4625   22.7477 H   0  0  0  0  0  0
  -21.0886   -8.8785   19.8940 H   0  0  0  0  0  0
  -22.3744  -10.9683   19.6176 H   0  0  0  0  0  0
  -21.1996   -7.6135   23.9707 H   0  0  0  0  0  0
  -21.1492   -6.0515   25.9068 H   0  0  0  0  0  0
  -22.0602   -2.7614   23.2827 H   0  0  0  0  0  0
  -22.4102  -11.9827   22.4780 H   0  0  0  0  0  0
  -21.1086  -13.1180   22.2647 H   0  0  0  0  0  0
  -24.6493  -15.8472   20.4916 H   0  0  0  0  0  0
  -26.2622  -15.6119   20.0474 H   0  0  0  0  0  0
  -26.7306  -32.5340   23.1063 H   0  0  0  0  0  0
  -25.0089  -33.9616   25.0371 H   0  0  0  0  0  0
  -22.7496  -31.2933   21.3713 H   0  0  0  0  0  0
  -23.3755  -35.9540   23.3248 H   0  0  0  0  0  0
  -24.3551  -36.8942   22.2064 H   0  0  0  0  0  0
  -23.7199  -37.6404   23.6739 H   0  0  0  0  0  0
  -26.1429  -31.4769   20.6025 H   0  0  0  0  0  0
  -26.8788  -30.7907   22.0167 H   0  0  0  0  0  0
  -28.1318  -28.8119   21.2437 H   0  0  0  0  0  0
  -25.9134  -25.8452   19.0183 H   0  0  0  0  0  0
  -23.9745  -27.2870   19.0118 H   0  0  0  0  0  0
  -23.8144  -30.5694   19.3962 H   0  0  0  0  0  0
  -22.7920  -29.2353   19.8412 H   0  0  0  0  0  0
  -25.1268  -36.1835   25.0806 H   0  0  0  0  0  0
  -21.0021  -28.3360   24.1322 H   0  0  0  0  0  0
  -20.5685  -26.2377   23.3594 H   0  0  0  0  0  0
  -21.6652  -26.7434   22.1171 H   0  0  0  0  0  0
  -19.6907  -25.6304   21.1257 H   0  0  0  0  0  0
  -19.6691  -27.3167   20.6688 H   0  0  0  0  0  0
  -17.4196  -26.6713   21.4009 H   0  0  0  0  0  0
  -18.0330  -26.0089   22.9001 H   0  0  0  0  0  0
  -19.7976  -30.7327   24.2199 H   0  0  0  0  0  0
  -17.5053  -31.6272   24.5197 H   0  0  0  0  0  0
  -15.5390  -30.2995   23.7713 H   0  0  0  0  0  0
  -15.8691  -28.0854   22.7082 H   0  0  0  0  0  0
  -24.5971  -30.6954   25.7689 H   0  0  0  0  0  0
  -24.8813  -32.2795   26.4804 H   0  0  0  0  0  0
  -25.7994  -30.8869   27.0217 H   0  0  0  0  0  0
  -26.3193  -29.6633   24.1335 H   0  0  0  0  0  0
  -27.4203  -29.7364   25.4902 H   0  0  0  0  0  0
  -27.9008  -30.4310   23.9619 H   0  0  0  0  0  0
  -27.2805  -33.3719   26.1955 H   0  0  0  0  0  0
  -28.4001  -32.6709   25.0383 H   0  0  0  0  0  0
  -28.0670  -31.8506   26.5546 H   0  0  0  0  0  0
  -28.2511  -38.0119   24.7593 H   0  0  0  0  0  0
  -28.1127  -36.2671   24.6195 H   0  0  0  0  0  0
  -27.2283  -37.1279   25.8856 H   0  0  0  0  0  0
  -20.9478  -29.8855   21.6788 H   0  0  0  0  0  0
  -26.0099  -38.2799   24.1505 H   0  0  0  0  0  0
  -26.8786  -19.6210   20.3296 H   0  0  0  0  0  0
  -27.4634  -17.2879   20.5865 H   0  0  0  0  0  0
  -31.0284  -20.6918   20.4847 H   0  0  0  0  0  0
  -30.2281  -16.7174   23.0202 H   0  0  0  0  0  0
  -30.0284  -14.9812   22.9412 H   0  0  0  0  0  0
  -28.6264  -16.0380   22.7735 H   0  0  0  0  0  0
  -29.2761  -23.4334   21.4220 H   0  0  0  0  0  0
  -29.8434  -23.3672   19.7820 H   0  0  0  0  0  0
  -27.0270  -24.4646   20.5179 H   0  0  0  0  0  0
  -27.7602  -24.5559   18.9577 H   0  0  0  0  0  0
  -27.3445  -21.9050   20.2022 H   0  0  0  0  0  0
  1 25  1  0  0  0
  1 30  2  0  0  0
  1 81  1  0  0  0
  2  3  1  0  0  0
  2 25  1  0  0  0
  2 83  1  0  0  0
  2 84  1  0  0  0
  3  4  1  0  0  0
  3 85  1  0  0  0
  3 86  1  0  0  0
  4  5  1  0  0  0
  4 87  1  0  0  0
  4 88  1  0  0  0
  5  6  1  0  0  0
  5 26  1  0  0  0
  5 89  1  0  0  0
  6 25  1  0  0  0
  6 90  1  0  0  0
  6 91  1  0  0  0
  7  8  2  0  0  0
  7 26  1  0  0  0
  7 29  1  0  0  0
  8  9  1  0  0  0
  8 22  1  0  0  0
  9 10  1  0  0  0
  9 27  2  0  0  0
 10 11  2  0  0  0
 10 15  1  0  0  0
 11 12  1  0  0  0
 11 92  1  0  0  0
 12 13  2  0  0  0
 12 93  1  0  0  0
 13 14  1  0  0  0
 13 31  1  0  0  0
 14 15  2  0  0  0
 14 94  1  0  0  0
 15 95  1  0  0  0
 16 17  2  0  0  0
 16 21  1  0  0  0
 16 31  1  0  0  0
 17 18  1  0  0  0
 17 96  1  0  0  0
 18 19  2  0  0  0
 18 97  1  0  0  0
 19 20  1  0  0  0
 19 24  1  0  0  0
 20 21  2  0  0  0
 20 98  1  0  0  0
 21 23  1  0  0  0
 22 28  1  0  0  0
 22 32  2  0  0  0
 26 27  1  0  0  0
 28 99  1  0  0  0
 28100  1  0  0  0
 29101  1  0  0  0
 29102  1  0  0  0
 33 34  1  0  0  0
 33 66  1  0  0  0
 33 70  2  0  0  0
 34 36  1  0  0  0
 34 59  1  0  0  0
 34103  1  0  0  0
 35 44  2  0  0  0
 35 45  1  0  0  0
 35 68  1  0  0  0
 36 56  1  0  0  0
 36104  1  0  0  0
 37 39  1  0  0  0
 37 47  1  0  0  0
 37 66  1  0  0  0
 37105  1  0  0  0
 38 43  2  0  0  0
 38 46  1  0  0  0
 38 47  1  0  0  0
 39 64  1  0  0  0
 39 67  2  0  0  0
 40 52  1  0  0  0
 40 53  2  0  0  0
 40 58  1  0  0  0
 41106  1  0  0  0
 41107  1  0  0  0
 41108  1  0  0  0
 41 48  1  0  0  0
 42 43  1  0  0  0
 42 66  1  0  0  0
 42109  1  0  0  0
 42110  1  0  0  0
 43 44  1  0  0  0
 44111  1  0  0  0
 45 46  2  0  0  0
 45112  1  0  0  0
 46113  1  0  0  0
 47114  1  0  0  0
 47115  1  0  0  0
 48 56  1  0  0  0
 48 65  1  0  0  0
 48116  1  0  0  0
 49 50  1  0  0  0
 49 53  1  0  0  0
 49 64  1  0  0  0
 49117  1  0  0  0
 50 51  1  0  0  0
 50118  1  0  0  0
 50119  1  0  0  0
 51 52  1  0  0  0
 51120  1  0  0  0
 51121  1  0  0  0
 52122  1  0  0  0
 52123  1  0  0  0
 53 54  1  0  0  0
 54 55  2  0  0  0
 54124  1  0  0  0
 55 57  1  0  0  0
 55125  1  0  0  0
 56 69  2  0  0  0
 57 58  2  0  0  0
 57126  1  0  0  0
 58127  1  0  0  0
 59 60  1  0  0  0
 59 61  1  0  0  0
 59 62  1  0  0  0
 60128  1  0  0  0
 60129  1  0  0  0
 60130  1  0  0  0
 61131  1  0  0  0
 61132  1  0  0  0
 61133  1  0  0  0
 62134  1  0  0  0
 62135  1  0  0  0
 62136  1  0  0  0
 63 65  1  0  0  0
 63137  1  0  0  0
 63138  1  0  0  0
 63139  1  0  0  0
 64140  1  0  0  0
 65141  1  0  0  0
 68 79  1  0  0  0
 71 72  2  0  0  0
 71 74  1  0  0  0
 71142  1  0  0  0
 72 75  1  0  0  0
 72143  1  0  0  0
 73 74  2  0  0  0
 73 76  1  0  0  0
 73144  1  0  0  0
 74 80  1  0  0  0
 75 76  2  0  0  0
 75 81  1  0  0  0
 76 82  1  0  0  0
 77 81  1  0  0  0
 77145  1  0  0  0
 77146  1  0  0  0
 77147  1  0  0  0
 78 79  1  0  0  0
 78 80  1  0  0  0
 78148  1  0  0  0
 78149  1  0  0  0
 79150  1  0  0  0
 79151  1  0  0  0
 80152  1  0  0  0
M  ISO  4   1 100  68 101  79 101  81 100
M  END
> <chiral flag>
0

> <version>
0

> <s_m_source_file>
/data/baiqing/PycharmProjects/Reinvent-master-3.2/result/LINK_invent/BTK/process_docking_weight1_custom_product_contain_oxygen_bond_distance_aromatic_linkinvent_7_9_3/rearranged_h_0015.sdf

> <i_m_source_file_index>
15

> <r_mmod_Potential_Energy-OPLS-2005>
604.692077636719

> <r_mmod_Stretch_Energy-OPLS-2005>
222.909591674805

> <r_mmod_Bend_Energy-OPLS-2005>
276.447509765625

> <r_mmod_Torsional_Energy-OPLS-2005>
302.088409423828

> <r_mmod_Improper_Torsional_Energy-OPLS-2005>
6.23343229293823

> <r_mmod_Van_der_Waal_Energy-OPLS-2005>
134.402374267578

> <r_mmod_Electrostatic_Energy-OPLS-2005>
-297.573974609375

> <r_mmod_Solvation_Energy-OPLS-2005>
-212.788314819336

> <b_mmod_Minimization_Converged-OPLS-2005>
0

> <r_mmod_RMS_Derivative-OPLS-2005>
3.80941486358643

$$$$
15
                    3D
 Structure written by MMmdl.
160168  0  0  1  0            999 V2000
  -30.6859  -14.4711   20.4744 C   0  0  0  0  0  0
  -30.4157  -12.2772   19.4254 C   0  0  0  0  0  0
  -29.4897  -12.4667   18.2054 C   0  0  0  0  0  0
  -28.0094  -12.3419   18.6210 C   0  0  0  0  0  0
  -27.6542  -13.2003   19.8654 C   0  0  2  0  0  0
  -28.7005  -13.0120   20.9877 C   0  0  0  0  0  0
  -25.2579  -13.8153   20.5695 C   0  0  0  0  0  0
  -24.1825  -13.0440   20.9192 C   0  0  0  0  0  0
  -24.6368  -11.6901   20.8753 C   0  0  0  0  0  0
  -23.9026  -10.4295   21.0410 C   0  0  0  0  0  0
  -24.3583   -9.4213   21.9185 C   0  0  0  0  0  0
  -23.6269   -8.2245   22.0751 C   0  0  0  0  0  0
  -22.4254   -8.0281   21.3537 C   0  0  0  0  0  0
  -21.9885   -9.0252   20.4644 C   0  0  0  0  0  0
  -22.7202  -10.2141   20.3057 C   0  0  0  0  0  0
  -21.6852   -6.0729   22.5275 C   0  0  0  0  0  0
  -21.4015   -6.5634   23.8211 C   0  0  0  0  0  0
  -21.3662   -5.6785   24.9173 C   0  0  0  0  0  0
  -21.6043   -4.3046   24.7219 C   0  0  0  0  0  0
  -21.8822   -3.8139   23.4343 C   0  0  0  0  0  0
  -21.9194   -4.6957   22.3400 C   0  0  0  0  0  0
  -22.7854  -13.5253   21.1858 C   0  0  0  0  0  0
  -22.1658   -4.2144   21.0974 F   0  0  0  0  0  0
  -21.5625   -3.4529   25.7734 F   0  0  0  0  0  0
  -30.0275  -13.2852   20.4200 N   0  0  0  0  0  0
  -26.2991  -12.9299   20.3359 N   0  0  0  0  0  0
  -25.9290  -11.6467   20.5786 N   0  0  0  0  0  0
  -22.0485  -12.8267   22.0424 N   0  0  0  0  0  0
  -25.4335  -15.1866   20.4120 N   0  0  0  0  0  0
  -31.8779  -14.6008   20.1945 O   0  0  0  0  0  0
  -21.6630   -6.8873   21.4236 O   0  0  0  0  0  0
  -22.3546  -14.5558   20.6702 O   0  0  0  0  0  0
  -24.6131  -31.8684   23.2107 C   0  0  0  0  0  0
  -25.9033  -32.4828   23.8390 C   0  0  1  0  0  0
  -27.2328  -27.4489   20.0967 C   0  0  0  0  0  0
  -25.5899  -33.8627   24.2326 N   0  0  0  0  0  0
  -23.4001  -30.4908   21.5512 C   0  0  2  0  0  0
  -24.8468  -28.9545   20.1186 C   0  0  0  0  0  0
  -22.7403  -29.4656   22.5004 C   0  0  0  0  0  0
  -18.0278  -28.1378   22.8494 C   0  0  0  0  0  0
  -24.1484  -36.7316   23.2635 C   0  0  0  0  0  0
  -25.9267  -30.8382   21.3611 C   0  0  0  0  0  0
  -26.0057  -29.4715   20.7135 C   0  0  0  0  0  0
  -27.2042  -28.7252   20.7006 C   0  0  0  0  0  0
  -26.0636  -26.9388   19.4994 C   0  0  0  0  0  0
  -24.8693  -27.6859   19.5106 C   0  0  0  0  0  0
  -23.6080  -29.8205   20.1668 C   0  0  0  0  0  0
  -25.4111  -36.3117   24.0333 C   0  0  1  0  0  0
  -20.5865  -28.3661   23.1335 C   0  0  2  0  0  0
  -20.6779  -26.9405   22.5426 C   0  0  0  0  0  0
  -19.5764  -26.6397   21.5214 C   0  0  0  0  0  0
  -18.1939  -26.7927   22.1618 C   0  0  0  0  0  0
  -19.1524  -28.8838   23.2912 C   0  0  0  0  0  0
  -18.9452  -30.1443   23.8922 C   0  0  0  0  0  0
  -17.6455  -30.6583   24.0575 C   0  0  0  0  0  0
  -25.9041  -34.9483   23.5131 C   0  0  0  0  0  0
  -16.5347  -29.9090   23.6326 C   0  0  0  0  0  0
  -16.7268  -28.6509   23.0344 C   0  0  0  0  0  0
  -26.4473  -31.6603   25.0713 C   0  0  0  0  0  0
  -25.3747  -31.3705   26.1468 C   0  0  0  0  0  0
  -27.0290  -30.3050   24.6064 C   0  0  0  0  0  0
  -27.6046  -32.4319   25.7471 C   0  0  0  0  0  0
  -27.5581  -37.1815   24.8466 C   0  0  0  0  0  0
  -21.4133  -29.3025   22.3742 N   0  0  0  0  0  0
  -26.4298  -37.3802   23.9408 N   0  0  0  0  0  0
  -24.6647  -31.0798   22.1000 N   0  0  0  0  0  0
  -23.4182  -28.8210   23.3050 O   0  0  0  0  0  0
  -28.3920  -26.7135   20.0665 O   0  0  0  0  0  0
  -26.5588  -34.8931   22.4682 O   0  0  0  0  0  0
  -23.5331  -32.1419   23.7521 O   0  0  0  0  0  0
  -29.3263  -16.1461   22.6361 C   0  0  0  0  0  0
  -28.6757  -17.0343   23.5118 C   0  0  0  0  0  0
  -28.5490  -17.4855   20.7508 C   0  0  0  0  0  0
  -27.8929  -18.3847   21.6225 C   0  0  0  0  0  0
  -29.2612  -16.3695   21.2440 C   0  0  0  0  0  0
  -27.9605  -18.1431   23.0155 C   0  0  0  0  0  0
  -28.2066  -21.7332   21.0099 C   0  0  0  0  0  0
  -26.3600  -21.3054   22.6106 C   0  0  0  0  0  0
  -27.0651  -19.5285   21.0203 C   0  0  0  0  0  0
  -28.3893  -23.1668   21.5609 C   0  0  0  0  0  0
  -28.2521  -24.2723   20.4845 C   0  0  0  0  0  0
  -28.4739  -25.6876   21.0598 C   0  0  0  0  0  0
  -29.8916  -15.5362   20.2871 N   0  0  0  0  0  0
  -27.2962  -20.8859   21.5607 N   0  0  0  0  0  0
  -28.9249  -21.3911   20.0658 O   0  0  0  0  0  0
  -27.3269  -18.9509   23.8948 F   0  0  0  0  0  0
  -31.4609  -12.3669   19.1257 H   0  0  0  0  0  0
  -30.3060  -11.2731   19.8388 H   0  0  0  0  0  0
  -29.7231  -11.7264   17.4391 H   0  0  0  0  0  0
  -29.6621  -13.4424   17.7491 H   0  0  0  0  0  0
  -27.8169  -11.2895   18.8329 H   0  0  0  0  0  0
  -27.3590  -12.6028   17.7856 H   0  0  0  0  0  0
  -27.6830  -14.2409   19.5440 H   0  0  0  0  0  0
  -28.6693  -11.9937   21.3783 H   0  0  0  0  0  0
  -28.4821  -13.6664   21.8306 H   0  0  0  0  0  0
  -25.2724   -9.5703   22.4761 H   0  0  0  0  0  0
  -23.9988   -7.4639   22.7468 H   0  0  0  0  0  0
  -21.0819   -8.8763   19.8948 H   0  0  0  0  0  0
  -22.3645  -10.9681   19.6170 H   0  0  0  0  0  0
  -21.2006   -7.6139   23.9717 H   0  0  0  0  0  0
  -21.1478   -6.0508   25.9078 H   0  0  0  0  0  0
  -22.0601   -2.7600   23.2835 H   0  0  0  0  0  0
  -22.4080  -11.9923   22.4824 H   0  0  0  0  0  0
  -21.1110  -13.1316   22.2634 H   0  0  0  0  0  0
  -24.6739  -15.8466   20.5352 H   0  0  0  0  0  0
  -26.3054  -15.6256   20.1443 H   0  0  0  0  0  0
  -26.7106  -32.5549   23.1155 H   0  0  0  0  0  0
  -25.0080  -33.9793   25.0491 H   0  0  0  0  0  0
  -22.6884  -31.3077   21.4136 H   0  0  0  0  0  0
  -23.3745  -35.9652   23.3319 H   0  0  0  0  0  0
  -24.3575  -36.8907   22.2045 H   0  0  0  0  0  0
  -23.7238  -37.6530   23.6631 H   0  0  0  0  0  0
  -26.0343  -31.6021   20.5897 H   0  0  0  0  0  0
  -26.8170  -30.8944   21.9760 H   0  0  0  0  0  0
  -28.1029  -29.1223   21.1521 H   0  0  0  0  0  0
  -26.0777  -25.9700   19.0211 H   0  0  0  0  0  0
  -23.9789  -27.2825   19.0488 H   0  0  0  0  0  0
  -23.7142  -30.5936   19.4045 H   0  0  0  0  0  0
  -22.7321  -29.2379   19.8745 H   0  0  0  0  0  0
  -25.1294  -36.1983   25.0826 H   0  0  0  0  0  0
  -20.9960  -28.3221   24.1453 H   0  0  0  0  0  0
  -20.5687  -26.2273   23.3607 H   0  0  0  0  0  0
  -21.6653  -26.7463   22.1223 H   0  0  0  0  0  0
  -19.6925  -25.6317   21.1222 H   0  0  0  0  0  0
  -19.6715  -27.3232   20.6768 H   0  0  0  0  0  0
  -17.4221  -26.6681   21.4009 H   0  0  0  0  0  0
  -18.0342  -26.0059   22.9004 H   0  0  0  0  0  0
  -19.7928  -30.7254   24.2300 H   0  0  0  0  0  0
  -17.5012  -31.6258   24.5182 H   0  0  0  0  0  0
  -15.5348  -30.2997   23.7655 H   0  0  0  0  0  0
  -15.8663  -28.0849   22.7034 H   0  0  0  0  0  0
  -24.5912  -30.7061   25.7808 H   0  0  0  0  0  0
  -24.8955  -32.2863   26.4936 H   0  0  0  0  0  0
  -25.8115  -30.8858   27.0209 H   0  0  0  0  0  0
  -26.2819  -29.6820   24.1131 H   0  0  0  0  0  0
  -27.4084  -29.7274   25.4505 H   0  0  0  0  0  0
  -27.8647  -30.4379   23.9188 H   0  0  0  0  0  0
  -27.2662  -33.3598   26.2095 H   0  0  0  0  0  0
  -28.3833  -32.6915   25.0285 H   0  0  0  0  0  0
  -28.0741  -31.8415   26.5349 H   0  0  0  0  0  0
  -28.2623  -38.0091   24.7511 H   0  0  0  0  0  0
  -28.1056  -36.2629   24.6305 H   0  0  0  0  0  0
  -27.2299  -37.1487   25.8868 H   0  0  0  0  0  0
  -20.9286  -29.8727   21.6955 H   0  0  0  0  0  0
  -26.0189  -38.2883   24.1400 H   0  0  0  0  0  0
  -29.8677  -15.3066   23.0480 H   0  0  0  0  0  0
  -28.7176  -16.8615   24.5771 H   0  0  0  0  0  0
  -28.4894  -17.6490   19.6837 H   0  0  0  0  0  0
  -25.7612  -22.1552   22.2808 H   0  0  0  0  0  0
  -26.8963  -21.5853   23.5185 H   0  0  0  0  0  0
  -25.6596  -20.5189   22.8903 H   0  0  0  0  0  0
  -26.0158  -19.2573   21.1362 H   0  0  0  0  0  0
  -27.2067  -19.5435   19.9379 H   0  0  0  0  0  0
  -29.3880  -23.2114   21.9961 H   0  0  0  0  0  0
  -27.7109  -23.3940   22.3795 H   0  0  0  0  0  0
  -27.2619  -24.2094   20.0318 H   0  0  0  0  0  0
  -28.9699  -24.1001   19.6814 H   0  0  0  0  0  0
  -27.7772  -25.8738   21.8802 H   0  0  0  0  0  0
  -29.4718  -25.7435   21.4958 H   0  0  0  0  0  0
  -30.1671  -16.0508   19.4644 H   0  0  0  0  0  0
  1 25  1  0  0  0
  1 30  2  0  0  0
  1 83  1  0  0  0
  2  3  1  0  0  0
  2 25  1  0  0  0
  2 87  1  0  0  0
  2 88  1  0  0  0
  3  4  1  0  0  0
  3 89  1  0  0  0
  3 90  1  0  0  0
  4  5  1  0  0  0
  4 91  1  0  0  0
  4 92  1  0  0  0
  5  6  1  0  0  0
  5 26  1  0  0  0
  5 93  1  0  0  0
  6 25  1  0  0  0
  6 94  1  0  0  0
  6 95  1  0  0  0
  7  8  2  0  0  0
  7 26  1  0  0  0
  7 29  1  0  0  0
  8  9  1  0  0  0
  8 22  1  0  0  0
  9 10  1  0  0  0
  9 27  2  0  0  0
 10 11  2  0  0  0
 10 15  1  0  0  0
 11 12  1  0  0  0
 11 96  1  0  0  0
 12 13  2  0  0  0
 12 97  1  0  0  0
 13 14  1  0  0  0
 13 31  1  0  0  0
 14 15  2  0  0  0
 14 98  1  0  0  0
 15 99  1  0  0  0
 16 17  2  0  0  0
 16 21  1  0  0  0
 16 31  1  0  0  0
 17 18  1  0  0  0
 17100  1  0  0  0
 18 19  2  0  0  0
 18101  1  0  0  0
 19 20  1  0  0  0
 19 24  1  0  0  0
 20 21  2  0  0  0
 20102  1  0  0  0
 21 23  1  0  0  0
 22 28  1  0  0  0
 22 32  2  0  0  0
 26 27  1  0  0  0
 28103  1  0  0  0
 28104  1  0  0  0
 29105  1  0  0  0
 29106  1  0  0  0
 33 34  1  0  0  0
 33 66  1  0  0  0
 33 70  2  0  0  0
 34 36  1  0  0  0
 34 59  1  0  0  0
 34107  1  0  0  0
 35 44  2  0  0  0
 35 45  1  0  0  0
 35 68  1  0  0  0
 36 56  1  0  0  0
 36108  1  0  0  0
 37 39  1  0  0  0
 37 47  1  0  0  0
 37 66  1  0  0  0
 37109  1  0  0  0
 38 43  2  0  0  0
 38 46  1  0  0  0
 38 47  1  0  0  0
 39 64  1  0  0  0
 39 67  2  0  0  0
 40 52  1  0  0  0
 40 53  2  0  0  0
 40 58  1  0  0  0
 41110  1  0  0  0
 41111  1  0  0  0
 41112  1  0  0  0
 41 48  1  0  0  0
 42 43  1  0  0  0
 42 66  1  0  0  0
 42113  1  0  0  0
 42114  1  0  0  0
 43 44  1  0  0  0
 44115  1  0  0  0
 45 46  2  0  0  0
 45116  1  0  0  0
 46117  1  0  0  0
 47118  1  0  0  0
 47119  1  0  0  0
 48 56  1  0  0  0
 48 65  1  0  0  0
 48120  1  0  0  0
 49 50  1  0  0  0
 49 53  1  0  0  0
 49 64  1  0  0  0
 49121  1  0  0  0
 50 51  1  0  0  0
 50122  1  0  0  0
 50123  1  0  0  0
 51 52  1  0  0  0
 51124  1  0  0  0
 51125  1  0  0  0
 52126  1  0  0  0
 52127  1  0  0  0
 53 54  1  0  0  0
 54 55  2  0  0  0
 54128  1  0  0  0
 55 57  1  0  0  0
 55129  1  0  0  0
 56 69  2  0  0  0
 57 58  2  0  0  0
 57130  1  0  0  0
 58131  1  0  0  0
 59 60  1  0  0  0
 59 61  1  0  0  0
 59 62  1  0  0  0
 60132  1  0  0  0
 60133  1  0  0  0
 60134  1  0  0  0
 61135  1  0  0  0
 61136  1  0  0  0
 61137  1  0  0  0
 62138  1  0  0  0
 62139  1  0  0  0
 62140  1  0  0  0
 63 65  1  0  0  0
 63141  1  0  0  0
 63142  1  0  0  0
 63143  1  0  0  0
 64144  1  0  0  0
 65145  1  0  0  0
 68 82  1  0  0  0
 71 72  2  0  0  0
 71 75  1  0  0  0
 71146  1  0  0  0
 72 76  1  0  0  0
 72147  1  0  0  0
 73 74  1  0  0  0
 73 75  2  0  0  0
 73148  1  0  0  0
 74 76  2  0  0  0
 74 79  1  0  0  0
 75 83  1  0  0  0
 76 86  1  0  0  0
 77 80  1  0  0  0
 77 84  1  0  0  0
 77 85  2  0  0  0
 78 84  1  0  0  0
 78149  1  0  0  0
 78150  1  0  0  0
 78151  1  0  0  0
 79 84  1  0  0  0
 79152  1  0  0  0
 79153  1  0  0  0
 80 81  1  0  0  0
 80154  1  0  0  0
 80155  1  0  0  0
 81 82  1  0  0  0
 81156  1  0  0  0
 81157  1  0  0  0
 82158  1  0  0  0
 82159  1  0  0  0
 83160  1  0  0  0
M  ISO  4   1 100  68 101  82 101  83 100
M  END
> <chiral flag>
0

> <version>
0

> <s_m_source_file>
/data/baiqing/PycharmProjects/Reinvent-master-3.2/result/LINK_invent/BTK/process_docking_weight1_custom_product_contain_oxygen_bond_distance_aromatic_linkinvent_7_9_3/rearranged_h_0015.sdf

> <i_m_source_file_index>
16

> <r_mmod_Potential_Energy-OPLS-2005>
-13.0485563278198

> <r_mmod_Stretch_Energy-OPLS-2005>
36.1057434082031

> <r_mmod_Bend_Energy-OPLS-2005>
104.65983581543

> <r_mmod_Torsional_Energy-OPLS-2005>
298.033935546875

> <r_mmod_Improper_Torsional_Energy-OPLS-2005>
21.0724239349365

> <r_mmod_Van_der_Waal_Energy-OPLS-2005>
150.493057250977

> <r_mmod_Electrostatic_Energy-OPLS-2005>
-424.750244140625

> <r_mmod_Solvation_Energy-OPLS-2005>
-216.431137084961

> <b_mmod_Minimization_Converged-OPLS-2005>
0

> <r_mmod_RMS_Derivative-OPLS-2005>
1.38279461860657

$$$$
16
                    3D
 Structure written by MMmdl.
161169  0  0  1  0            999 V2000
  -30.7391  -14.4692   20.6267 C   0  0  0  0  0  0
  -30.4128  -12.3312   19.4178 C   0  0  0  0  0  0
  -29.4836  -12.5143   18.2031 C   0  0  0  0  0  0
  -28.0114  -12.3521   18.6210 C   0  0  0  0  0  0
  -27.6550  -13.1999   19.8683 C   0  0  2  0  0  0
  -28.6972  -13.0059   20.9933 C   0  0  0  0  0  0
  -25.2582  -13.8140   20.5673 C   0  0  0  0  0  0
  -24.1829  -13.0426   20.9177 C   0  0  0  0  0  0
  -24.6372  -11.6888   20.8736 C   0  0  0  0  0  0
  -23.9037  -10.4282   21.0407 C   0  0  0  0  0  0
  -24.3597   -9.4202   21.9186 C   0  0  0  0  0  0
  -23.6280   -8.2235   22.0757 C   0  0  0  0  0  0
  -22.4266   -8.0272   21.3542 C   0  0  0  0  0  0
  -21.9891   -9.0242   20.4643 C   0  0  0  0  0  0
  -22.7208  -10.2127   20.3052 C   0  0  0  0  0  0
  -21.6850   -6.0724   22.5275 C   0  0  0  0  0  0
  -21.4011   -6.5632   23.8206 C   0  0  0  0  0  0
  -21.3663   -5.6789   24.9172 C   0  0  0  0  0  0
  -21.6047   -4.3051   24.7224 C   0  0  0  0  0  0
  -21.8821   -3.8138   23.4346 C   0  0  0  0  0  0
  -21.9191   -4.6952   22.3400 C   0  0  0  0  0  0
  -22.7861  -13.5243   21.1836 C   0  0  0  0  0  0
  -22.1661   -4.2135   21.0979 F   0  0  0  0  0  0
  -21.5630   -3.4539   25.7741 F   0  0  0  0  0  0
  -30.0277  -13.3169   20.4457 N   0  0  0  0  0  0
  -26.2990  -12.9285   20.3337 N   0  0  0  0  0  0
  -25.9293  -11.6454   20.5760 N   0  0  0  0  0  0
  -22.0501  -12.8245   22.0398 N   0  0  0  0  0  0
  -25.4306  -15.1855   20.4073 N   0  0  0  0  0  0
  -31.8204  -14.6592   20.0586 O   0  0  0  0  0  0
  -21.6633   -6.8865   21.4236 O   0  0  0  0  0  0
  -22.3559  -14.5550   20.6683 O   0  0  0  0  0  0
  -24.6173  -31.8666   23.2106 C   0  0  0  0  0  0
  -25.9058  -32.4813   23.8404 C   0  0  1  0  0  0
  -27.2272  -27.4049   20.0979 C   0  0  0  0  0  0
  -25.5908  -33.8613   24.2328 N   0  0  0  0  0  0
  -23.4057  -30.4924   21.5514 C   0  0  2  0  0  0
  -24.8496  -28.9603   20.1114 C   0  0  0  0  0  0
  -22.7426  -29.4648   22.4980 C   0  0  0  0  0  0
  -18.0274  -28.1368   22.8485 C   0  0  0  0  0  0
  -24.1484  -36.7316   23.2636 C   0  0  0  0  0  0
  -25.9379  -30.8220   21.3701 C   0  0  0  0  0  0
  -26.0111  -29.4560   20.7151 C   0  0  0  0  0  0
  -27.1995  -28.6848   20.7078 C   0  0  0  0  0  0
  -26.0473  -26.9471   19.4625 C   0  0  0  0  0  0
  -24.8642  -27.7061   19.4827 C   0  0  0  0  0  0
  -23.6147  -29.8307   20.1636 C   0  0  0  0  0  0
  -25.4104  -36.3107   24.0334 C   0  0  1  0  0  0
  -20.5868  -28.3655   23.1305 C   0  0  2  0  0  0
  -20.6760  -26.9386   22.5413 C   0  0  0  0  0  0
  -19.5743  -26.6375   21.5203 C   0  0  0  0  0  0
  -18.1920  -26.7911   22.1612 C   0  0  0  0  0  0
  -19.1527  -28.8827   23.2890 C   0  0  0  0  0  0
  -18.9453  -30.1430   23.8900 C   0  0  0  0  0  0
  -17.6458  -30.6576   24.0556 C   0  0  0  0  0  0
  -25.9035  -34.9471   23.5132 C   0  0  0  0  0  0
  -16.5347  -29.9080   23.6322 C   0  0  0  0  0  0
  -16.7262  -28.6496   23.0343 C   0  0  0  0  0  0
  -26.4481  -31.6597   25.0740 C   0  0  0  0  0  0
  -25.3746  -31.3695   26.1489 C   0  0  0  0  0  0
  -27.0321  -30.3038   24.6130 C   0  0  0  0  0  0
  -27.6059  -32.4320   25.7495 C   0  0  0  0  0  0
  -27.5579  -37.1808   24.8462 C   0  0  0  0  0  0
  -21.4153  -29.3028   22.3722 N   0  0  0  0  0  0
  -26.4290  -37.3794   23.9407 N   0  0  0  0  0  0
  -24.6718  -31.0754   22.1019 N   0  0  0  0  0  0
  -23.4188  -28.8181   23.3022 O   0  0  0  0  0  0
  -28.3935  -26.6532   20.1474 O   0  0  0  0  0  0
  -26.5599  -34.8926   22.4694 O   0  0  0  0  0  0
  -23.5360  -32.1438   23.7485 O   0  0  0  0  0  0
  -29.5847  -18.4841   20.2048 C   0  0  0  0  0  0
  -29.7129  -19.8946   20.2228 C   0  0  0  0  0  0
  -29.4384  -19.8816   22.6304 C   0  0  0  0  0  0
  -29.3628  -17.7567   21.3977 C   0  0  0  0  0  0
  -29.6469  -20.6145   21.4394 C   0  0  0  0  0  0
  -29.2815  -18.4778   22.6122 C   0  0  0  0  0  0
  -31.0735  -22.4037   22.1701 C   0  0  0  0  0  0
  -31.2898  -15.8367   22.5435 C   0  0  0  0  0  0
  -29.1364  -16.2304   21.3600 C   0  0  0  0  0  0
  -29.2145  -24.3891   20.8219 C   0  0  0  0  0  0
  -29.2893  -22.8781   20.4404 C   0  0  0  0  0  0
  -28.3415  -25.2347   19.8610 C   0  0  0  0  0  0
  -29.8273  -22.0184   21.5094 N   0  0  0  0  0  0
  -30.3074  -15.3427   21.5740 N   0  0  0  0  0  0
  -29.0417  -17.8245   23.7749 F   0  0  0  0  0  0
  -31.4554  -12.4258   19.1095 H   0  0  0  0  0  0
  -30.3166  -11.3206   19.8187 H   0  0  0  0  0  0
  -29.7310  -11.7896   17.4265 H   0  0  0  0  0  0
  -29.6356  -13.5015   17.7630 H   0  0  0  0  0  0
  -27.8382  -11.2957   18.8302 H   0  0  0  0  0  0
  -27.3538  -12.6070   17.7894 H   0  0  0  0  0  0
  -27.6848  -14.2369   19.5428 H   0  0  0  0  0  0
  -28.6841  -11.9746   21.3477 H   0  0  0  0  0  0
  -28.4443  -13.6087   21.8651 H   0  0  0  0  0  0
  -25.2741   -9.5686   22.4761 H   0  0  0  0  0  0
  -23.9986   -7.4631   22.7487 H   0  0  0  0  0  0
  -21.0813   -8.8750   19.8957 H   0  0  0  0  0  0
  -22.3654  -10.9665   19.6163 H   0  0  0  0  0  0
  -21.2002   -7.6139   23.9703 H   0  0  0  0  0  0
  -21.1487   -6.0523   25.9074 H   0  0  0  0  0  0
  -22.0599   -2.7597   23.2852 H   0  0  0  0  0  0
  -22.4112  -11.9900   22.4772 H   0  0  0  0  0  0
  -21.1128  -13.1290   22.2619 H   0  0  0  0  0  0
  -24.6605  -15.8379   20.5078 H   0  0  0  0  0  0
  -26.2759  -15.6227   20.0647 H   0  0  0  0  0  0
  -26.7125  -32.5507   23.1165 H   0  0  0  0  0  0
  -25.0051  -33.9764   25.0466 H   0  0  0  0  0  0
  -22.6953  -31.3102   21.4142 H   0  0  0  0  0  0
  -23.3740  -35.9655   23.3313 H   0  0  0  0  0  0
  -24.3576  -36.8930   22.2050 H   0  0  0  0  0  0
  -23.7254  -37.6529   23.6650 H   0  0  0  0  0  0
  -26.0583  -31.5880   20.6031 H   0  0  0  0  0  0
  -26.8224  -30.8706   21.9931 H   0  0  0  0  0  0
  -28.0931  -29.0606   21.1867 H   0  0  0  0  0  0
  -26.0074  -26.0077   18.9322 H   0  0  0  0  0  0
  -23.9749  -27.3243   19.0009 H   0  0  0  0  0  0
  -23.7278  -30.6088   19.4078 H   0  0  0  0  0  0
  -22.7367  -29.2555   19.8631 H   0  0  0  0  0  0
  -25.1285  -36.1976   25.0829 H   0  0  0  0  0  0
  -20.9945  -28.3216   24.1432 H   0  0  0  0  0  0
  -20.5647  -26.2261   23.3605 H   0  0  0  0  0  0
  -21.6633  -26.7418   22.1216 H   0  0  0  0  0  0
  -19.6898  -25.6290   21.1226 H   0  0  0  0  0  0
  -19.6684  -27.3186   20.6735 H   0  0  0  0  0  0
  -17.4189  -26.6659   21.4014 H   0  0  0  0  0  0
  -18.0317  -26.0044   22.9000 H   0  0  0  0  0  0
  -19.7934  -30.7235   24.2277 H   0  0  0  0  0  0
  -17.5020  -31.6256   24.5153 H   0  0  0  0  0  0
  -15.5349  -30.2981   23.7646 H   0  0  0  0  0  0
  -15.8663  -28.0819   22.7050 H   0  0  0  0  0  0
  -24.5927  -30.7031   25.7835 H   0  0  0  0  0  0
  -24.8914  -32.2834   26.4946 H   0  0  0  0  0  0
  -25.8103  -30.8871   27.0245 H   0  0  0  0  0  0
  -26.2868  -29.6784   24.1194 H   0  0  0  0  0  0
  -27.4103  -29.7296   25.4598 H   0  0  0  0  0  0
  -27.8704  -30.4365   23.9288 H   0  0  0  0  0  0
  -27.2691  -33.3617   26.2092 H   0  0  0  0  0  0
  -28.3851  -32.6881   25.0306 H   0  0  0  0  0  0
  -28.0743  -31.8429   26.5390 H   0  0  0  0  0  0
  -28.2603  -38.0100   24.7510 H   0  0  0  0  0  0
  -28.1075  -36.2632   24.6295 H   0  0  0  0  0  0
  -27.2296  -37.1477   25.8867 H   0  0  0  0  0  0
  -20.9318  -29.8795   21.6984 H   0  0  0  0  0  0
  -26.0182  -38.2875   24.1410 H   0  0  0  0  0  0
  -29.6425  -17.9635   19.2593 H   0  0  0  0  0  0
  -29.8869  -20.4115   19.2901 H   0  0  0  0  0  0
  -29.3818  -20.3984   23.5773 H   0  0  0  0  0  0
  -30.8636  -22.9489   23.0917 H   0  0  0  0  0  0
  -31.6755  -23.0476   21.5277 H   0  0  0  0  0  0
  -31.6925  -21.5425   22.4297 H   0  0  0  0  0  0
  -30.8061  -16.1246   23.4759 H   0  0  0  0  0  0
  -31.8289  -16.6990   22.1484 H   0  0  0  0  0  0
  -32.0275  -15.0715   22.7931 H   0  0  0  0  0  0
  -28.3865  -15.9794   22.1118 H   0  0  0  0  0  0
  -28.6668  -16.0078   20.4023 H   0  0  0  0  0  0
  -30.2193  -24.8112   20.8571 H   0  0  0  0  0  0
  -28.8047  -24.4900   21.8277 H   0  0  0  0  0  0
  -29.8865  -22.7628   19.5340 H   0  0  0  0  0  0
  -28.2862  -22.5239   20.1957 H   0  0  0  0  0  0
  -27.3417  -24.8146   19.9546 H   0  0  0  0  0  0
  -28.6590  -25.0809   18.8288 H   0  0  0  0  0  0
  1 25  1  0  0  0
  1 30  2  0  0  0
  1 84  1  0  0  0
  2  3  1  0  0  0
  2 25  1  0  0  0
  2 86  1  0  0  0
  2 87  1  0  0  0
  3  4  1  0  0  0
  3 88  1  0  0  0
  3 89  1  0  0  0
  4  5  1  0  0  0
  4 90  1  0  0  0
  4 91  1  0  0  0
  5  6  1  0  0  0
  5 26  1  0  0  0
  5 92  1  0  0  0
  6 25  1  0  0  0
  6 93  1  0  0  0
  6 94  1  0  0  0
  7  8  2  0  0  0
  7 26  1  0  0  0
  7 29  1  0  0  0
  8  9  1  0  0  0
  8 22  1  0  0  0
  9 10  1  0  0  0
  9 27  2  0  0  0
 10 11  2  0  0  0
 10 15  1  0  0  0
 11 12  1  0  0  0
 11 95  1  0  0  0
 12 13  2  0  0  0
 12 96  1  0  0  0
 13 14  1  0  0  0
 13 31  1  0  0  0
 14 15  2  0  0  0
 14 97  1  0  0  0
 15 98  1  0  0  0
 16 17  2  0  0  0
 16 21  1  0  0  0
 16 31  1  0  0  0
 17 18  1  0  0  0
 17 99  1  0  0  0
 18 19  2  0  0  0
 18100  1  0  0  0
 19 20  1  0  0  0
 19 24  1  0  0  0
 20 21  2  0  0  0
 20101  1  0  0  0
 21 23  1  0  0  0
 22 28  1  0  0  0
 22 32  2  0  0  0
 26 27  1  0  0  0
 28102  1  0  0  0
 28103  1  0  0  0
 29104  1  0  0  0
 29105  1  0  0  0
 33 34  1  0  0  0
 33 66  1  0  0  0
 33 70  2  0  0  0
 34 36  1  0  0  0
 34 59  1  0  0  0
 34106  1  0  0  0
 35 44  2  0  0  0
 35 45  1  0  0  0
 35 68  1  0  0  0
 36 56  1  0  0  0
 36107  1  0  0  0
 37 39  1  0  0  0
 37 47  1  0  0  0
 37 66  1  0  0  0
 37108  1  0  0  0
 38 43  2  0  0  0
 38 46  1  0  0  0
 38 47  1  0  0  0
 39 64  1  0  0  0
 39 67  2  0  0  0
 40 52  1  0  0  0
 40 53  2  0  0  0
 40 58  1  0  0  0
 41109  1  0  0  0
 41110  1  0  0  0
 41111  1  0  0  0
 41 48  1  0  0  0
 42 43  1  0  0  0
 42 66  1  0  0  0
 42112  1  0  0  0
 42113  1  0  0  0
 43 44  1  0  0  0
 44114  1  0  0  0
 45 46  2  0  0  0
 45115  1  0  0  0
 46116  1  0  0  0
 47117  1  0  0  0
 47118  1  0  0  0
 48 56  1  0  0  0
 48 65  1  0  0  0
 48119  1  0  0  0
 49 50  1  0  0  0
 49 53  1  0  0  0
 49 64  1  0  0  0
 49120  1  0  0  0
 50 51  1  0  0  0
 50121  1  0  0  0
 50122  1  0  0  0
 51 52  1  0  0  0
 51123  1  0  0  0
 51124  1  0  0  0
 52125  1  0  0  0
 52126  1  0  0  0
 53 54  1  0  0  0
 54 55  2  0  0  0
 54127  1  0  0  0
 55 57  1  0  0  0
 55128  1  0  0  0
 56 69  2  0  0  0
 57 58  2  0  0  0
 57129  1  0  0  0
 58130  1  0  0  0
 59 60  1  0  0  0
 59 61  1  0  0  0
 59 62  1  0  0  0
 60131  1  0  0  0
 60132  1  0  0  0
 60133  1  0  0  0
 61134  1  0  0  0
 61135  1  0  0  0
 61136  1  0  0  0
 62137  1  0  0  0
 62138  1  0  0  0
 62139  1  0  0  0
 63 65  1  0  0  0
 63140  1  0  0  0
 63141  1  0  0  0
 63142  1  0  0  0
 64143  1  0  0  0
 65144  1  0  0  0
 68 82  1  0  0  0
 71 72  2  0  0  0
 71 74  1  0  0  0
 71145  1  0  0  0
 72 75  1  0  0  0
 72146  1  0  0  0
 73 75  2  0  0  0
 73 76  1  0  0  0
 73147  1  0  0  0
 74 76  2  0  0  0
 74 79  1  0  0  0
 75 83  1  0  0  0
 76 85  1  0  0  0
 77 83  1  0  0  0
 77148  1  0  0  0
 77149  1  0  0  0
 77150  1  0  0  0
 78 84  1  0  0  0
 78151  1  0  0  0
 78152  1  0  0  0
 78153  1  0  0  0
 79 84  1  0  0  0
 79154  1  0  0  0
 79155  1  0  0  0
 80 81  1  0  0  0
 80 82  1  0  0  0
 80156  1  0  0  0
 80157  1  0  0  0
 81 83  1  0  0  0
 81158  1  0  0  0
 81159  1  0  0  0
 82160  1  0  0  0
 82161  1  0  0  0
M  ISO  4   1 100  68 101  82 101  84 100
M  END
> <chiral flag>
0

> <version>
0

> <s_m_source_file>
/data/baiqing/PycharmProjects/Reinvent-master-3.2/result/LINK_invent/BTK/process_docking_weight1_custom_product_contain_oxygen_bond_distance_aromatic_linkinvent_7_9_3/rearranged_h_0015.sdf

> <i_m_source_file_index>
17

> <r_mmod_Potential_Energy-OPLS-2005>
108.428802490234

> <r_mmod_Stretch_Energy-OPLS-2005>
44.937442779541

> <r_mmod_Bend_Energy-OPLS-2005>
110.963203430176

> <r_mmod_Torsional_Energy-OPLS-2005>
274.612030029297

> <r_mmod_Improper_Torsional_Energy-OPLS-2005>
7.38503885269165

> <r_mmod_Van_der_Waal_Energy-OPLS-2005>
158.607894897461

> <r_mmod_Electrostatic_Energy-OPLS-2005>
-295.229187011719

> <r_mmod_Solvation_Energy-OPLS-2005>
-208.233032226562

> <b_mmod_Minimization_Converged-OPLS-2005>
0

> <r_mmod_RMS_Derivative-OPLS-2005>
1.12671661376953

$$$$
17
                    3D
 Structure written by MMmdl.
165173  0  0  1  0            999 V2000
  -30.6838  -14.4742   20.5223 C   0  0  0  0  0  0
  -30.4228  -12.2934   19.4189 C   0  0  0  0  0  0
  -29.4910  -12.4865   18.2029 C   0  0  0  0  0  0
  -28.0114  -12.3529   18.6176 C   0  0  0  0  0  0
  -27.6579  -13.1974   19.8722 C   0  0  2  0  0  0
  -28.7051  -12.9733   20.9888 C   0  0  0  0  0  0
  -25.2574  -13.8140   20.5668 C   0  0  0  0  0  0
  -24.1827  -13.0436   20.9195 C   0  0  0  0  0  0
  -24.6366  -11.6894   20.8752 C   0  0  0  0  0  0
  -23.9030  -10.4283   21.0413 C   0  0  0  0  0  0
  -24.3591   -9.4201   21.9187 C   0  0  0  0  0  0
  -23.6277   -8.2231   22.0754 C   0  0  0  0  0  0
  -22.4265   -8.0264   21.3536 C   0  0  0  0  0  0
  -21.9888   -9.0237   20.4644 C   0  0  0  0  0  0
  -22.7207  -10.2123   20.3054 C   0  0  0  0  0  0
  -21.6845   -6.0725   22.5273 C   0  0  0  0  0  0
  -21.4013   -6.5632   23.8207 C   0  0  0  0  0  0
  -21.3659   -5.6786   24.9169 C   0  0  0  0  0  0
  -21.6048   -4.3047   24.7222 C   0  0  0  0  0  0
  -21.8820   -3.8138   23.4343 C   0  0  0  0  0  0
  -21.9193   -4.6954   22.3399 C   0  0  0  0  0  0
  -22.7849  -13.5232   21.1859 C   0  0  0  0  0  0
  -22.1660   -4.2139   21.0975 F   0  0  0  0  0  0
  -21.5632   -3.4532   25.7736 F   0  0  0  0  0  0
  -30.0266  -13.2862   20.4288 N   0  0  0  0  0  0
  -26.3001  -12.9290   20.3364 N   0  0  0  0  0  0
  -25.9290  -11.6462   20.5787 N   0  0  0  0  0  0
  -22.0479  -12.8231   22.0414 N   0  0  0  0  0  0
  -25.4312  -15.1859   20.4025 N   0  0  0  0  0  0
  -31.8638  -14.5988   20.1724 O   0  0  0  0  0  0
  -21.6635   -6.8863   21.4230 O   0  0  0  0  0  0
  -22.3530  -14.5536   20.6696 O   0  0  0  0  0  0
  -24.6136  -31.8718   23.2111 C   0  0  0  0  0  0
  -25.9033  -32.4839   23.8406 C   0  0  1  0  0  0
  -27.2298  -27.4361   20.0866 C   0  0  0  0  0  0
  -25.5881  -33.8634   24.2333 N   0  0  0  0  0  0
  -23.4000  -30.4956   21.5534 C   0  0  2  0  0  0
  -24.8417  -28.9612   20.1167 C   0  0  0  0  0  0
  -22.7385  -29.4701   22.5027 C   0  0  0  0  0  0
  -18.0283  -28.1370   22.8475 C   0  0  0  0  0  0
  -24.1479  -36.7318   23.2639 C   0  0  0  0  0  0
  -25.9299  -30.8326   21.3656 C   0  0  0  0  0  0
  -26.0029  -29.4679   20.7119 C   0  0  0  0  0  0
  -27.1972  -28.7122   20.6946 C   0  0  0  0  0  0
  -26.0444  -26.9460   19.4872 C   0  0  0  0  0  0
  -24.8574  -27.6978   19.5037 C   0  0  0  0  0  0
  -23.6053  -29.8277   20.1683 C   0  0  0  0  0  0
  -25.4102  -36.3119   24.0338 C   0  0  1  0  0  0
  -20.5854  -28.3674   23.1343 C   0  0  2  0  0  0
  -20.6771  -26.9412   22.5418 C   0  0  0  0  0  0
  -19.5762  -26.6382   21.5200 C   0  0  0  0  0  0
  -18.1936  -26.7923   22.1596 C   0  0  0  0  0  0
  -19.1515  -28.8830   23.2919 C   0  0  0  0  0  0
  -18.9427  -30.1436   23.8925 C   0  0  0  0  0  0
  -17.6436  -30.6584   24.0564 C   0  0  0  0  0  0
  -25.9031  -34.9484   23.5137 C   0  0  0  0  0  0
  -16.5337  -29.9067   23.6330 C   0  0  0  0  0  0
  -16.7275  -28.6494   23.0330 C   0  0  0  0  0  0
  -26.4450  -31.6611   25.0738 C   0  0  0  0  0  0
  -25.3718  -31.3709   26.1489 C   0  0  0  0  0  0
  -27.0277  -30.3057   24.6111 C   0  0  0  0  0  0
  -27.6032  -32.4327   25.7493 C   0  0  0  0  0  0
  -27.5579  -37.1818   24.8472 C   0  0  0  0  0  0
  -21.4108  -29.3070   22.3764 N   0  0  0  0  0  0
  -26.4299  -37.3789   23.9406 N   0  0  0  0  0  0
  -24.6663  -31.0807   22.1023 N   0  0  0  0  0  0
  -23.4170  -28.8239   23.3062 O   0  0  0  0  0  0
  -28.4156  -26.7256   20.1013 O   0  0  0  0  0  0
  -26.5596  -34.8936   22.4704 O   0  0  0  0  0  0
  -23.5326  -32.1481   23.7501 O   0  0  0  0  0  0
  -30.3934  -19.6365   22.4298 C   0  0  0  0  0  0
  -30.3386  -18.2366   22.2997 C   0  0  0  0  0  0
  -29.3009  -20.4338   22.0366 C   0  0  0  0  0  0
  -28.0899  -18.4230   21.3824 C   0  0  0  0  0  0
  -29.1845  -17.6192   21.7780 C   0  0  0  0  0  0
  -28.1367  -19.8335   21.5024 C   0  0  0  0  0  0
  -30.0325  -16.4726   19.3141 C   0  0  0  0  0  0
  -25.5849  -22.5510   21.8683 C   0  0  0  0  0  0
  -29.1375  -16.0976   21.6194 C   0  0  0  0  0  0
  -26.9229  -20.6534   21.0468 C   0  0  0  0  0  0
  -27.7682  -24.4496   20.8614 C   0  0  0  0  0  0
  -27.5652  -22.9757   20.4196 C   0  0  0  0  0  0
  -28.4112  -25.3308   19.7630 C   0  0  0  0  0  0
  -29.8716  -15.5599   20.4552 N   0  0  0  0  0  0
  -26.9332  -22.0900   21.4491 N   0  3  1  0  0  0
  -31.4654  -12.3949   19.1129 H   0  0  0  0  0  0
  -30.3284  -11.2831   19.8203 H   0  0  0  0  0  0
  -29.7276  -11.7572   17.4271 H   0  0  0  0  0  0
  -29.6589  -13.4692   17.7600 H   0  0  0  0  0  0
  -27.8227  -11.2983   18.8196 H   0  0  0  0  0  0
  -27.3598  -12.6238   17.7864 H   0  0  0  0  0  0
  -27.6957  -14.2420   19.5660 H   0  0  0  0  0  0
  -28.6847  -11.9337   21.3190 H   0  0  0  0  0  0
  -28.4804  -13.5579   21.8788 H   0  0  0  0  0  0
  -25.2736   -9.5687   22.4758 H   0  0  0  0  0  0
  -23.9988   -7.4623   22.7475 H   0  0  0  0  0  0
  -21.0817   -8.8745   19.8952 H   0  0  0  0  0  0
  -22.3657  -10.9657   19.6159 H   0  0  0  0  0  0
  -21.2001   -7.6139   23.9702 H   0  0  0  0  0  0
  -21.1484   -6.0520   25.9071 H   0  0  0  0  0  0
  -22.0603   -2.7600   23.2845 H   0  0  0  0  0  0
  -22.4075  -11.9894   22.4818 H   0  0  0  0  0  0
  -21.1091  -13.1264   22.2594 H   0  0  0  0  0  0
  -24.6608  -15.8392   20.4874 H   0  0  0  0  0  0
  -26.2741  -15.6098   20.0390 H   0  0  0  0  0  0
  -26.7114  -32.5562   23.1181 H   0  0  0  0  0  0
  -25.0045  -33.9805   25.0484 H   0  0  0  0  0  0
  -22.6906  -31.3140   21.4164 H   0  0  0  0  0  0
  -23.3734  -35.9658   23.3323 H   0  0  0  0  0  0
  -24.3577  -36.8916   22.2051 H   0  0  0  0  0  0
  -23.7239  -37.6537   23.6637 H   0  0  0  0  0  0
  -26.0417  -31.5968   20.5970 H   0  0  0  0  0  0
  -26.8192  -30.8875   21.9812 H   0  0  0  0  0  0
  -28.0955  -29.1004   21.1542 H   0  0  0  0  0  0
  -26.0068  -25.9840   19.0029 H   0  0  0  0  0  0
  -23.9660  -27.2989   19.0396 H   0  0  0  0  0  0
  -23.7151  -30.6028   19.4087 H   0  0  0  0  0  0
  -22.7278  -29.2474   19.8751 H   0  0  0  0  0  0
  -25.1273  -36.2003   25.0825 H   0  0  0  0  0  0
  -20.9940  -28.3219   24.1462 H   0  0  0  0  0  0
  -20.5681  -26.2273   23.3575 H   0  0  0  0  0  0
  -21.6642  -26.7479   22.1212 H   0  0  0  0  0  0
  -19.6942  -25.6295   21.1197 H   0  0  0  0  0  0
  -19.6698  -27.3221   20.6760 H   0  0  0  0  0  0
  -17.4214  -26.6642   21.3995 H   0  0  0  0  0  0
  -18.0372  -26.0070   22.8999 H   0  0  0  0  0  0
  -19.7886  -30.7266   24.2302 H   0  0  0  0  0  0
  -17.4988  -31.6278   24.5152 H   0  0  0  0  0  0
  -15.5334  -30.2975   23.7648 H   0  0  0  0  0  0
  -15.8692  -28.0820   22.7016 H   0  0  0  0  0  0
  -24.5885  -30.7071   25.7813 H   0  0  0  0  0  0
  -24.8910  -32.2862   26.4952 H   0  0  0  0  0  0
  -25.8066  -30.8862   27.0241 H   0  0  0  0  0  0
  -26.2821  -29.6840   24.1148 H   0  0  0  0  0  0
  -27.4035  -29.7275   25.4562 H   0  0  0  0  0  0
  -27.8656  -30.4382   23.9266 H   0  0  0  0  0  0
  -27.2652  -33.3611   26.2104 H   0  0  0  0  0  0
  -28.3801  -32.6926   25.0290 H   0  0  0  0  0  0
  -28.0745  -31.8448   26.5383 H   0  0  0  0  0  0
  -28.2610  -38.0098   24.7494 H   0  0  0  0  0  0
  -28.1062  -36.2640   24.6320 H   0  0  0  0  0  0
  -27.2307  -37.1488   25.8877 H   0  0  0  0  0  0
  -20.9256  -29.8798   21.7000 H   0  0  0  0  0  0
  -26.0202  -38.2877   24.1383 H   0  0  0  0  0  0
  -31.2817  -20.1023   22.8334 H   0  0  0  0  0  0
  -31.1887  -17.6381   22.5969 H   0  0  0  0  0  0
  -29.3860  -21.5040   22.1553 H   0  0  0  0  0  0
  -27.2066  -17.9498   20.9731 H   0  0  0  0  0  0
  -30.3882  -15.9516   18.4222 H   0  0  0  0  0  0
  -29.0833  -16.9394   19.0505 H   0  0  0  0  0  0
  -30.7525  -17.2589   19.5432 H   0  0  0  0  0  0
  -25.6329  -23.5036   22.3925 H   0  0  0  0  0  0
  -25.1200  -21.8551   22.5680 H   0  0  0  0  0  0
  -24.9206  -22.6596   21.0094 H   0  0  0  0  0  0
  -29.5208  -15.6531   22.5406 H   0  0  0  0  0  0
  -28.0945  -15.7894   21.5515 H   0  0  0  0  0  0
  -26.0515  -20.1558   21.4758 H   0  0  0  0  0  0
  -26.8003  -20.5591   19.9675 H   0  0  0  0  0  0
  -28.3865  -24.4872   21.7592 H   0  0  0  0  0  0
  -26.8110  -24.8874   21.1363 H   0  0  0  0  0  0
  -26.9620  -22.9529   19.5106 H   0  0  0  0  0  0
  -28.5347  -22.5610   20.1418 H   0  0  0  0  0  0
  -27.9582  -25.1630   18.7853 H   0  0  0  0  0  0
  -29.4512  -25.0265   19.6374 H   0  0  0  0  0  0
  -27.5035  -22.1181   22.2806 H   0  0  0  0  0  0
  1 25  1  0  0  0
  1 30  2  0  0  0
  1 84  1  0  0  0
  2  3  1  0  0  0
  2 25  1  0  0  0
  2 86  1  0  0  0
  2 87  1  0  0  0
  3  4  1  0  0  0
  3 88  1  0  0  0
  3 89  1  0  0  0
  4  5  1  0  0  0
  4 90  1  0  0  0
  4 91  1  0  0  0
  5  6  1  0  0  0
  5 26  1  0  0  0
  5 92  1  0  0  0
  6 25  1  0  0  0
  6 93  1  0  0  0
  6 94  1  0  0  0
  7  8  2  0  0  0
  7 26  1  0  0  0
  7 29  1  0  0  0
  8  9  1  0  0  0
  8 22  1  0  0  0
  9 10  1  0  0  0
  9 27  2  0  0  0
 10 11  2  0  0  0
 10 15  1  0  0  0
 11 12  1  0  0  0
 11 95  1  0  0  0
 12 13  2  0  0  0
 12 96  1  0  0  0
 13 14  1  0  0  0
 13 31  1  0  0  0
 14 15  2  0  0  0
 14 97  1  0  0  0
 15 98  1  0  0  0
 16 17  2  0  0  0
 16 21  1  0  0  0
 16 31  1  0  0  0
 17 18  1  0  0  0
 17 99  1  0  0  0
 18 19  2  0  0  0
 18100  1  0  0  0
 19 20  1  0  0  0
 19 24  1  0  0  0
 20 21  2  0  0  0
 20101  1  0  0  0
 21 23  1  0  0  0
 22 28  1  0  0  0
 22 32  2  0  0  0
 26 27  1  0  0  0
 28102  1  0  0  0
 28103  1  0  0  0
 29104  1  0  0  0
 29105  1  0  0  0
 33 34  1  0  0  0
 33 66  1  0  0  0
 33 70  2  0  0  0
 34 36  1  0  0  0
 34 59  1  0  0  0
 34106  1  0  0  0
 35 44  2  0  0  0
 35 45  1  0  0  0
 35 68  1  0  0  0
 36 56  1  0  0  0
 36107  1  0  0  0
 37 39  1  0  0  0
 37 47  1  0  0  0
 37 66  1  0  0  0
 37108  1  0  0  0
 38 43  2  0  0  0
 38 46  1  0  0  0
 38 47  1  0  0  0
 39 64  1  0  0  0
 39 67  2  0  0  0
 40 52  1  0  0  0
 40 53  2  0  0  0
 40 58  1  0  0  0
 41109  1  0  0  0
 41110  1  0  0  0
 41111  1  0  0  0
 41 48  1  0  0  0
 42 43  1  0  0  0
 42 66  1  0  0  0
 42112  1  0  0  0
 42113  1  0  0  0
 43 44  1  0  0  0
 44114  1  0  0  0
 45 46  2  0  0  0
 45115  1  0  0  0
 46116  1  0  0  0
 47117  1  0  0  0
 47118  1  0  0  0
 48 56  1  0  0  0
 48 65  1  0  0  0
 48119  1  0  0  0
 49 50  1  0  0  0
 49 53  1  0  0  0
 49 64  1  0  0  0
 49120  1  0  0  0
 50 51  1  0  0  0
 50121  1  0  0  0
 50122  1  0  0  0
 51 52  1  0  0  0
 51123  1  0  0  0
 51124  1  0  0  0
 52125  1  0  0  0
 52126  1  0  0  0
 53 54  1  0  0  0
 54 55  2  0  0  0
 54127  1  0  0  0
 55 57  1  0  0  0
 55128  1  0  0  0
 56 69  2  0  0  0
 57 58  2  0  0  0
 57129  1  0  0  0
 58130  1  0  0  0
 59 60  1  0  0  0
 59 61  1  0  0  0
 59 62  1  0  0  0
 60131  1  0  0  0
 60132  1  0  0  0
 60133  1  0  0  0
 61134  1  0  0  0
 61135  1  0  0  0
 61136  1  0  0  0
 62137  1  0  0  0
 62138  1  0  0  0
 62139  1  0  0  0
 63 65  1  0  0  0
 63140  1  0  0  0
 63141  1  0  0  0
 63142  1  0  0  0
 64143  1  0  0  0
 65144  1  0  0  0
 68 83  1  0  0  0
 71 72  2  0  0  0
 71 73  1  0  0  0
 71145  1  0  0  0
 72 75  1  0  0  0
 72146  1  0  0  0
 73 76  2  0  0  0
 73147  1  0  0  0
 74 75  2  0  0  0
 74 76  1  0  0  0
 74148  1  0  0  0
 75 79  1  0  0  0
 76 80  1  0  0  0
 77 84  1  0  0  0
 77149  1  0  0  0
 77150  1  0  0  0
 77151  1  0  0  0
 78152  1  0  0  0
 78153  1  0  0  0
 78154  1  0  0  0
 78 85  1  0  0  0
 79 84  1  0  0  0
 79155  1  0  0  0
 79156  1  0  0  0
 80 85  1  0  0  0
 80157  1  0  0  0
 80158  1  0  0  0
 81 82  1  0  0  0
 81 83  1  0  0  0
 81159  1  0  0  0
 81160  1  0  0  0
 82 85  1  0  0  0
 82161  1  0  0  0
 82162  1  0  0  0
 83163  1  0  0  0
 83164  1  0  0  0
 85165  1  0  0  0
M  CHG  1  85   1
M  ISO  4   1 100  68 101  83 101  84 100
M  END
> <chiral flag>
0

> <version>
0

> <s_m_source_file>
/data/baiqing/PycharmProjects/Reinvent-master-3.2/result/LINK_invent/BTK/process_docking_weight1_custom_product_contain_oxygen_bond_distance_aromatic_linkinvent_7_9_3/rearranged_h_0015.sdf

> <i_m_source_file_index>
18

> <r_mmod_Potential_Energy-OPLS-2005>
-43.4711036682129

> <r_mmod_Stretch_Energy-OPLS-2005>
39.5354270935059

> <r_mmod_Bend_Energy-OPLS-2005>
101.270606994629

> <r_mmod_Torsional_Energy-OPLS-2005>
270.214782714844

> <r_mmod_Improper_Torsional_Energy-OPLS-2005>
19.9116611480713

> <r_mmod_Van_der_Waal_Energy-OPLS-2005>
158.20849609375

> <r_mmod_Electrostatic_Energy-OPLS-2005>
-213.693786621094

> <r_mmod_Solvation_Energy-OPLS-2005>
-435.166168212891

> <b_mmod_Minimization_Converged-OPLS-2005>
0

> <r_mmod_RMS_Derivative-OPLS-2005>
2.11777806282043

$$$$
18
                    3D
 Structure written by MMmdl.
157165  0  0  1  0            999 V2000
  -30.7588  -14.4300   20.5868 C   0  0  0  0  0  0
  -30.4100  -12.2778   19.4366 C   0  0  0  0  0  0
  -29.4953  -12.4860   18.2144 C   0  0  0  0  0  0
  -28.0166  -12.3507   18.6227 C   0  0  0  0  0  0
  -27.6597  -13.2058   19.8705 C   0  0  2  0  0  0
  -28.6990  -13.0057   20.9956 C   0  0  0  0  0  0
  -25.2594  -13.8168   20.5708 C   0  0  0  0  0  0
  -24.1827  -13.0431   20.9159 C   0  0  0  0  0  0
  -24.6382  -11.6903   20.8723 C   0  0  0  0  0  0
  -23.9056  -10.4279   21.0406 C   0  0  0  0  0  0
  -24.3621   -9.4193   21.9188 C   0  0  0  0  0  0
  -23.6289   -8.2229   22.0769 C   0  0  0  0  0  0
  -22.4263   -8.0280   21.3564 C   0  0  0  0  0  0
  -21.9900   -9.0231   20.4647 C   0  0  0  0  0  0
  -22.7227  -10.2111   20.3049 C   0  0  0  0  0  0
  -21.6829   -6.0748   22.5279 C   0  0  0  0  0  0
  -21.3998   -6.5656   23.8214 C   0  0  0  0  0  0
  -21.3655   -5.6807   24.9176 C   0  0  0  0  0  0
  -21.6058   -4.3074   24.7211 C   0  0  0  0  0  0
  -21.8822   -3.8164   23.4327 C   0  0  0  0  0  0
  -21.9182   -4.6984   22.3391 C   0  0  0  0  0  0
  -22.7847  -13.5219   21.1810 C   0  0  0  0  0  0
  -22.1665   -4.2174   21.0966 F   0  0  0  0  0  0
  -21.5617   -3.4552   25.7720 F   0  0  0  0  0  0
  -30.0349  -13.2840   20.4444 N   0  0  0  0  0  0
  -26.3008  -12.9331   20.3353 N   0  0  0  0  0  0
  -25.9309  -11.6490   20.5761 N   0  0  0  0  0  0
  -22.0506  -12.8197   22.0385 N   0  0  0  0  0  0
  -25.4366  -15.1875   20.4158 N   0  0  0  0  0  0
  -31.8936  -14.5486   20.1119 O   0  0  0  0  0  0
  -21.6645   -6.8877   21.4237 O   0  0  0  0  0  0
  -22.3527  -14.5513   20.6662 O   0  0  0  0  0  0
  -24.6326  -31.8744   23.2176 C   0  0  0  0  0  0
  -25.9163  -32.4881   23.8481 C   0  0  1  0  0  0
  -27.2291  -27.4347   20.1082 C   0  0  0  0  0  0
  -25.5972  -33.8664   24.2405 N   0  0  0  0  0  0
  -23.4351  -30.5006   21.5702 C   0  0  2  0  0  0
  -24.8551  -28.9653   20.1201 C   0  0  0  0  0  0
  -22.7752  -29.4847   22.5272 C   0  0  0  0  0  0
  -17.9927  -28.1200   22.8693 C   0  0  0  0  0  0
  -24.1486  -36.7334   23.2632 C   0  0  0  0  0  0
  -25.9504  -30.8420   21.3637 C   0  0  0  0  0  0
  -26.0187  -29.4759   20.7102 C   0  0  0  0  0  0
  -27.2113  -28.7200   20.6929 C   0  0  0  0  0  0
  -26.0525  -26.9383   19.5045 C   0  0  0  0  0  0
  -24.8682  -27.6991   19.5085 C   0  0  0  0  0  0
  -23.6204  -29.8308   20.1806 C   0  0  0  0  0  0
  -25.4107  -36.3143   24.0338 C   0  0  1  0  0  0
  -20.4779  -28.4565   22.7850 C   0  0  2  0  0  0
  -20.6903  -26.9591   22.5346 C   0  0  0  0  0  0
  -19.5550  -26.4521   21.6201 C   0  0  0  0  0  0
  -18.1551  -26.7543   22.1969 C   0  0  0  0  0  0
  -19.1128  -28.8964   23.2548 C   0  0  0  0  0  0
  -18.9299  -30.1461   23.8824 C   0  0  0  0  0  0
  -17.6294  -30.6462   24.0815 C   0  0  0  0  0  0
  -25.9048  -34.9506   23.5163 C   0  0  0  0  0  0
  -16.5151  -29.8938   23.6719 C   0  0  0  0  0  0
  -16.6976  -28.6280   23.0851 C   0  0  0  0  0  0
  -26.4526  -31.6615   25.0791 C   0  0  0  0  0  0
  -25.3777  -31.3695   26.1524 C   0  0  0  0  0  0
  -27.0334  -30.3061   24.6127 C   0  0  0  0  0  0
  -27.6112  -32.4301   25.7563 C   0  0  0  0  0  0
  -27.5582  -37.1833   24.8469 C   0  0  0  0  0  0
  -21.4537  -29.4448   22.4034 N   0  0  0  0  0  0
  -26.4298  -37.3818   23.9412 N   0  0  0  0  0  0
  -24.6949  -31.0854   22.1095 N   0  0  0  0  0  0
  -23.4246  -28.7620   23.2844 O   0  0  0  0  0  0
  -28.3806  -26.6819   20.1427 O   0  0  0  0  0  0
  -26.5581  -34.8937   22.4706 O   0  0  0  0  0  0
  -23.5492  -32.1476   23.7531 O   0  0  0  0  0  0
  -28.5097  -18.6253   20.2639 C   0  0  0  0  0  0
  -30.7883  -18.9598   21.0329 C   0  0  0  0  0  0
  -28.2575  -20.0046   20.4158 C   0  0  0  0  0  0
  -30.5309  -20.3403   21.1950 C   0  0  0  0  0  0
  -29.7938  -18.1026   20.5119 C   0  0  0  0  0  0
  -29.2858  -20.8902   20.8222 C   0  0  0  0  0  0
  -29.8572  -15.8212   22.3773 C   0  0  0  0  0  0
  -30.1529  -16.6941   20.0305 C   0  0  0  0  0  0
  -28.4881  -24.2904   19.5535 C   0  0  0  0  0  0
  -28.1738  -22.8292   19.9500 C   0  0  0  0  0  0
  -28.2308  -25.3409   20.6480 C   0  0  0  0  0  0
  -30.0718  -15.5387   20.9551 N   0  0  0  0  0  0
  -29.1452  -22.2677   20.8405 O   0  0  0  0  0  0
  -31.4591  -12.3381   19.1441 H   0  0  0  0  0  0
  -30.2776  -11.2743   19.8446 H   0  0  0  0  0  0
  -29.7317  -11.7605   17.4361 H   0  0  0  0  0  0
  -29.6737  -13.4717   17.7819 H   0  0  0  0  0  0
  -27.8285  -11.2973   18.8338 H   0  0  0  0  0  0
  -27.3685  -12.6107   17.7850 H   0  0  0  0  0  0
  -27.7021  -14.2498   19.5635 H   0  0  0  0  0  0
  -28.6647  -11.9814   21.3708 H   0  0  0  0  0  0
  -28.4518  -13.6339   21.8484 H   0  0  0  0  0  0
  -25.2758   -9.5663   22.4770 H   0  0  0  0  0  0
  -23.9998   -7.4622   22.7485 H   0  0  0  0  0  0
  -21.0844   -8.8724   19.8934 H   0  0  0  0  0  0
  -22.3687  -10.9652   19.6161 H   0  0  0  0  0  0
  -21.2010   -7.6167   23.9714 H   0  0  0  0  0  0
  -21.1478   -6.0548   25.9079 H   0  0  0  0  0  0
  -22.0610   -2.7626   23.2818 H   0  0  0  0  0  0
  -22.4138  -11.9825   22.4705 H   0  0  0  0  0  0
  -21.1138  -13.1215   22.2638 H   0  0  0  0  0  0
  -24.6788  -15.8525   20.5292 H   0  0  0  0  0  0
  -26.3068  -15.6189   20.1318 H   0  0  0  0  0  0
  -26.7258  -32.5573   23.1276 H   0  0  0  0  0  0
  -25.0142  -33.9832   25.0562 H   0  0  0  0  0  0
  -22.7350  -31.3267   21.4261 H   0  0  0  0  0  0
  -23.3741  -35.9677   23.3325 H   0  0  0  0  0  0
  -24.3581  -36.8910   22.2040 H   0  0  0  0  0  0
  -23.7236  -37.6549   23.6623 H   0  0  0  0  0  0
  -26.0534  -31.6054   20.5911 H   0  0  0  0  0  0
  -26.8431  -30.8983   21.9750 H   0  0  0  0  0  0
  -28.1096  -29.1092   21.1529 H   0  0  0  0  0  0
  -26.0425  -25.9621   19.0397 H   0  0  0  0  0  0
  -23.9747  -27.3037   19.0454 H   0  0  0  0  0  0
  -23.7172  -30.6009   19.4156 H   0  0  0  0  0  0
  -22.7395  -29.2505   19.9003 H   0  0  0  0  0  0
  -25.1275  -36.2032   25.0830 H   0  0  0  0  0  0
  -20.1626  -28.6735   21.7644 H   0  0  0  0  0  0
  -21.6606  -26.7622   22.0761 H   0  0  0  0  0  0
  -20.6735  -26.4241   23.4847 H   0  0  0  0  0  0
  -19.6575  -25.3802   21.4450 H   0  0  0  0  0  0
  -19.6469  -26.9107   20.6348 H   0  0  0  0  0  0
  -17.4058  -26.6418   21.4108 H   0  0  0  0  0  0
  -17.9186  -26.0033   22.9498 H   0  0  0  0  0  0
  -19.7829  -30.7483   24.1619 H   0  0  0  0  0  0
  -17.4867  -31.6187   24.5353 H   0  0  0  0  0  0
  -15.5173  -30.2833   23.8186 H   0  0  0  0  0  0
  -15.8312  -28.0515   22.7863 H   0  0  0  0  0  0
  -24.5941  -30.7066   25.7837 H   0  0  0  0  0  0
  -24.8980  -32.2841   26.5025 H   0  0  0  0  0  0
  -25.8111  -30.8809   27.0264 H   0  0  0  0  0  0
  -26.2864  -29.6839   24.1184 H   0  0  0  0  0  0
  -27.4127  -29.7266   25.4555 H   0  0  0  0  0  0
  -27.8698  -30.4395   23.9260 H   0  0  0  0  0  0
  -27.2749  -33.3582   26.2210 H   0  0  0  0  0  0
  -28.3903  -32.6891   25.0375 H   0  0  0  0  0  0
  -28.0823  -31.8379   26.5428 H   0  0  0  0  0  0
  -28.2622  -38.0109   24.7501 H   0  0  0  0  0  0
  -28.1060  -36.2643   24.6329 H   0  0  0  0  0  0
  -27.2308  -37.1517   25.8874 H   0  0  0  0  0  0
  -21.0731  -30.1556   21.7962 H   0  0  0  0  0  0
  -26.0198  -38.2908   24.1389 H   0  0  0  0  0  0
  -27.7290  -17.9834   19.8788 H   0  0  0  0  0  0
  -31.7803  -18.5767   21.2369 H   0  0  0  0  0  0
  -27.2712  -20.3698   20.1684 H   0  0  0  0  0  0
  -31.3223  -20.9953   21.5353 H   0  0  0  0  0  0
  -28.8361  -16.1598   22.5469 H   0  0  0  0  0  0
  -30.0182  -14.9444   23.0066 H   0  0  0  0  0  0
  -30.5393  -16.5954   22.7266 H   0  0  0  0  0  0
  -29.5199  -16.4589   19.1733 H   0  0  0  0  0  0
  -31.1565  -16.7854   19.6091 H   0  0  0  0  0  0
  -27.8599  -24.5349   18.6982 H   0  0  0  0  0  0
  -29.5158  -24.3689   19.2008 H   0  0  0  0  0  0
  -27.1769  -22.7613   20.3854 H   0  0  0  0  0  0
  -28.1577  -22.2545   19.0221 H   0  0  0  0  0  0
  -28.9471  -25.1965   21.4570 H   0  0  0  0  0  0
  -27.2480  -25.1792   21.0977 H   0  0  0  0  0  0
  1 25  1  0  0  0
  1 30  2  0  0  0
  1 82  1  0  0  0
  2  3  1  0  0  0
  2 25  1  0  0  0
  2 84  1  0  0  0
  2 85  1  0  0  0
  3  4  1  0  0  0
  3 86  1  0  0  0
  3 87  1  0  0  0
  4  5  1  0  0  0
  4 88  1  0  0  0
  4 89  1  0  0  0
  5  6  1  0  0  0
  5 26  1  0  0  0
  5 90  1  0  0  0
  6 25  1  0  0  0
  6 91  1  0  0  0
  6 92  1  0  0  0
  7  8  2  0  0  0
  7 26  1  0  0  0
  7 29  1  0  0  0
  8  9  1  0  0  0
  8 22  1  0  0  0
  9 10  1  0  0  0
  9 27  2  0  0  0
 10 11  2  0  0  0
 10 15  1  0  0  0
 11 12  1  0  0  0
 11 93  1  0  0  0
 12 13  2  0  0  0
 12 94  1  0  0  0
 13 14  1  0  0  0
 13 31  1  0  0  0
 14 15  2  0  0  0
 14 95  1  0  0  0
 15 96  1  0  0  0
 16 17  2  0  0  0
 16 21  1  0  0  0
 16 31  1  0  0  0
 17 18  1  0  0  0
 17 97  1  0  0  0
 18 19  2  0  0  0
 18 98  1  0  0  0
 19 20  1  0  0  0
 19 24  1  0  0  0
 20 21  2  0  0  0
 20 99  1  0  0  0
 21 23  1  0  0  0
 22 28  1  0  0  0
 22 32  2  0  0  0
 26 27  1  0  0  0
 28100  1  0  0  0
 28101  1  0  0  0
 29102  1  0  0  0
 29103  1  0  0  0
 33 34  1  0  0  0
 33 66  1  0  0  0
 33 70  2  0  0  0
 34 36  1  0  0  0
 34 59  1  0  0  0
 34104  1  0  0  0
 35 44  2  0  0  0
 35 45  1  0  0  0
 35 68  1  0  0  0
 36 56  1  0  0  0
 36105  1  0  0  0
 37 39  1  0  0  0
 37 47  1  0  0  0
 37 66  1  0  0  0
 37106  1  0  0  0
 38 43  2  0  0  0
 38 46  1  0  0  0
 38 47  1  0  0  0
 39 64  1  0  0  0
 39 67  2  0  0  0
 40 52  1  0  0  0
 40 53  2  0  0  0
 40 58  1  0  0  0
 41107  1  0  0  0
 41108  1  0  0  0
 41109  1  0  0  0
 41 48  1  0  0  0
 42 43  1  0  0  0
 42 66  1  0  0  0
 42110  1  0  0  0
 42111  1  0  0  0
 43 44  1  0  0  0
 44112  1  0  0  0
 45 46  2  0  0  0
 45113  1  0  0  0
 46114  1  0  0  0
 47115  1  0  0  0
 47116  1  0  0  0
 48 56  1  0  0  0
 48 65  1  0  0  0
 48117  1  0  0  0
 49 50  1  0  0  0
 49 53  1  0  0  0
 49 64  1  0  0  0
 49118  1  0  0  0
 50 51  1  0  0  0
 50119  1  0  0  0
 50120  1  0  0  0
 51 52  1  0  0  0
 51121  1  0  0  0
 51122  1  0  0  0
 52123  1  0  0  0
 52124  1  0  0  0
 53 54  1  0  0  0
 54 55  2  0  0  0
 54125  1  0  0  0
 55 57  1  0  0  0
 55126  1  0  0  0
 56 69  2  0  0  0
 57 58  2  0  0  0
 57127  1  0  0  0
 58128  1  0  0  0
 59 60  1  0  0  0
 59 61  1  0  0  0
 59 62  1  0  0  0
 60129  1  0  0  0
 60130  1  0  0  0
 60131  1  0  0  0
 61132  1  0  0  0
 61133  1  0  0  0
 61134  1  0  0  0
 62135  1  0  0  0
 62136  1  0  0  0
 62137  1  0  0  0
 63 65  1  0  0  0
 63138  1  0  0  0
 63139  1  0  0  0
 63140  1  0  0  0
 64141  1  0  0  0
 65142  1  0  0  0
 68 81  1  0  0  0
 71 73  2  0  0  0
 71 75  1  0  0  0
 71143  1  0  0  0
 72 74  1  0  0  0
 72 75  2  0  0  0
 72144  1  0  0  0
 73 76  1  0  0  0
 73145  1  0  0  0
 74 76  2  0  0  0
 74146  1  0  0  0
 75 78  1  0  0  0
 76 83  1  0  0  0
 77 82  1  0  0  0
 77147  1  0  0  0
 77148  1  0  0  0
 77149  1  0  0  0
 78 82  1  0  0  0
 78150  1  0  0  0
 78151  1  0  0  0
 79 80  1  0  0  0
 79 81  1  0  0  0
 79152  1  0  0  0
 79153  1  0  0  0
 80 83  1  0  0  0
 80154  1  0  0  0
 80155  1  0  0  0
 81156  1  0  0  0
 81157  1  0  0  0
M  ISO  4   1 100  68 101  81 101  82 100
M  END
> <chiral flag>
0

> <version>
0

> <s_m_source_file>
/data/baiqing/PycharmProjects/Reinvent-master-3.2/result/LINK_invent/BTK/process_docking_weight1_custom_product_contain_oxygen_bond_distance_aromatic_linkinvent_7_9_3/rearranged_h_0015.sdf

> <i_m_source_file_index>
19

> <r_mmod_Potential_Energy-OPLS-2005>
246.568252563477

> <r_mmod_Stretch_Energy-OPLS-2005>
35.0753402709961

> <r_mmod_Bend_Energy-OPLS-2005>
206.54963684082

> <r_mmod_Torsional_Energy-OPLS-2005>
306.658996582031

> <r_mmod_Improper_Torsional_Energy-OPLS-2005>
13.0420942306519

> <r_mmod_Van_der_Waal_Energy-OPLS-2005>
165.716156005859

> <r_mmod_Electrostatic_Energy-OPLS-2005>
-313.024139404297

> <r_mmod_Solvation_Energy-OPLS-2005>
-201.982055664062

> <b_mmod_Minimization_Converged-OPLS-2005>
0

> <r_mmod_RMS_Derivative-OPLS-2005>
3.44465923309326

$$$$
19
                    3D
 Structure written by MMmdl.
159168  0  0  1  0            999 V2000
  -30.6910  -14.5822   20.6300 C   0  0  0  0  0  0
  -30.4307  -12.3971   19.4345 C   0  0  0  0  0  0
  -29.5044  -12.5277   18.2049 C   0  0  0  0  0  0
  -28.0264  -12.3498   18.6111 C   0  0  0  0  0  0
  -27.6522  -13.2080   19.8443 C   0  0  2  0  0  0
  -28.6846  -13.0317   20.9665 C   0  0  0  0  0  0
  -25.2597  -13.8145   20.5659 C   0  0  0  0  0  0
  -24.1869  -13.0449   20.9199 C   0  0  0  0  0  0
  -24.6404  -11.6899   20.8713 C   0  0  0  0  0  0
  -23.9044  -10.4301   21.0377 C   0  0  0  0  0  0
  -24.3601   -9.4221   21.9164 C   0  0  0  0  0  0
  -23.6278   -8.2258   22.0760 C   0  0  0  0  0  0
  -22.4255   -8.0280   21.3556 C   0  0  0  0  0  0
  -21.9872   -9.0252   20.4661 C   0  0  0  0  0  0
  -22.7202  -10.2125   20.3048 C   0  0  0  0  0  0
  -21.6862   -6.0706   22.5280 C   0  0  0  0  0  0
  -21.4014   -6.5614   23.8203 C   0  0  0  0  0  0
  -21.3665   -5.6775   24.9167 C   0  0  0  0  0  0
  -21.6070   -4.3042   24.7234 C   0  0  0  0  0  0
  -21.8815   -3.8119   23.4352 C   0  0  0  0  0  0
  -21.9192   -4.6934   22.3397 C   0  0  0  0  0  0
  -22.7896  -13.5249   21.1855 C   0  0  0  0  0  0
  -22.1664   -4.2108   21.0980 F   0  0  0  0  0  0
  -21.5636   -3.4532   25.7754 F   0  0  0  0  0  0
  -30.0151  -13.3966   20.4441 N   0  0  0  0  0  0
  -26.2985  -12.9309   20.3170 N   0  0  0  0  0  0
  -25.9316  -11.6474   20.5673 N   0  0  0  0  0  0
  -22.0493  -12.8296   22.0401 N   0  0  0  0  0  0
  -25.4324  -15.1874   20.4107 N   0  0  0  0  0  0
  -31.7693  -14.7912   20.0630 O   0  0  0  0  0  0
  -21.6657   -6.8851   21.4242 O   0  0  0  0  0  0
  -22.3606  -14.5546   20.6637 O   0  0  0  0  0  0
  -24.6271  -31.8578   23.2016 C   0  0  0  0  0  0
  -25.9104  -32.4784   23.8359 C   0  0  1  0  0  0
  -27.2365  -27.2892   20.1237 C   0  0  0  0  0  0
  -25.5926  -33.8586   24.2294 N   0  0  0  0  0  0
  -23.4263  -30.4797   21.5415 C   0  0  2  0  0  0
  -24.8817  -28.9348   20.1084 C   0  0  0  0  0  0
  -22.7496  -29.4613   22.4903 C   0  0  0  0  0  0
  -18.0284  -28.1401   22.8486 C   0  0  0  0  0  0
  -24.1471  -36.7288   23.2639 C   0  0  0  0  0  0
  -25.9704  -30.7815   21.3812 C   0  0  0  0  0  0
  -26.0486  -29.4043   20.7246 C   0  0  0  0  0  0
  -27.2264  -28.5904   20.7270 C   0  0  0  0  0  0
  -26.0513  -26.8989   19.4563 C   0  0  0  0  0  0
  -24.8885  -27.6905   19.4614 C   0  0  0  0  0  0
  -23.6483  -29.8144   20.1569 C   0  0  0  0  0  0
  -25.4100  -36.3092   24.0335 C   0  0  1  0  0  0
  -20.5892  -28.3719   23.1272 C   0  0  2  0  0  0
  -20.6786  -26.9435   22.5421 C   0  0  0  0  0  0
  -19.5760  -26.6395   21.5230 C   0  0  0  0  0  0
  -18.1935  -26.7941   22.1637 C   0  0  0  0  0  0
  -19.1535  -28.8868   23.2881 C   0  0  0  0  0  0
  -18.9468  -30.1467   23.8908 C   0  0  0  0  0  0
  -17.6469  -30.6604   24.0564 C   0  0  0  0  0  0
  -25.9029  -34.9469   23.5117 C   0  0  0  0  0  0
  -16.5358  -29.9109   23.6329 C   0  0  0  0  0  0
  -16.7272  -28.6525   23.0349 C   0  0  0  0  0  0
  -26.4478  -31.6586   25.0727 C   0  0  0  0  0  0
  -25.3708  -31.3757   26.1459 C   0  0  0  0  0  0
  -27.0303  -30.2987   24.6192 C   0  0  0  0  0  0
  -27.6052  -32.4296   25.7491 C   0  0  0  0  0  0
  -27.5577  -37.1804   24.8455 C   0  0  0  0  0  0
  -21.4198  -29.3062   22.3654 N   0  0  0  0  0  0
  -26.4276  -37.3792   23.9422 N   0  0  0  0  0  0
  -24.6930  -31.0570   22.0988 N   0  0  0  0  0  0
  -23.4197  -28.8161   23.3001 O   0  0  0  0  0  0
  -28.3390  -26.4067   20.2051 O   0  0  0  0  0  0
  -26.5582  -34.8926   22.4673 O   0  0  0  0  0  0
  -23.5428  -32.1373   23.7327 O   0  0  0  0  0  0
  -30.0881  -19.2934   22.2163 C   0  0  0  0  0  0
  -30.2676  -17.8923   22.3147 C   0  0  0  0  0  0
  -29.5061  -19.0628   19.9142 C   0  0  0  0  0  0
  -29.6745  -19.9453   21.0258 C   0  0  0  0  0  0
  -30.0574  -16.9922   21.2321 C   0  0  0  0  0  0
  -29.6761  -17.6337   20.0068 C   0  0  0  0  0  0
  -28.8331  -23.5206   22.0093 C   0  0  0  0  0  0
  -29.3503  -22.1002   22.3076 C   0  0  0  0  0  0
  -29.0685  -22.3156   19.9469 C   0  0  0  0  0  0
  -29.1060  -23.8066   20.5253 C   0  0  1  0  0  0
  -30.1445  -15.1146   22.8961 C   0  0  0  0  0  0
  -28.1485  -24.9488   19.9134 C   0  0  0  0  0  0
  -29.4504  -21.3782   21.0366 N   0  0  0  0  0  0
  -30.1521  -15.5285   21.4774 N   0  0  0  0  0  0
  -29.3208  -16.6954   18.5954 Cl  0  0  0  0  0  0
  -31.4771  -12.5063   19.1419 H   0  0  0  0  0  0
  -30.3510  -11.3944   19.8571 H   0  0  0  0  0  0
  -29.7678  -11.7787   17.4573 H   0  0  0  0  0  0
  -29.6491  -13.4994   17.7304 H   0  0  0  0  0  0
  -27.8746  -11.2936   18.8374 H   0  0  0  0  0  0
  -27.3640  -12.5793   17.7754 H   0  0  0  0  0  0
  -27.6829  -14.2504   19.5283 H   0  0  0  0  0  0
  -28.7019  -11.9981   21.3195 H   0  0  0  0  0  0
  -28.3455  -13.6287   21.8076 H   0  0  0  0  0  0
  -25.2749   -9.5725   22.4729 H   0  0  0  0  0  0
  -23.9994   -7.4661   22.7485 H   0  0  0  0  0  0
  -21.0794   -8.8780   19.8977 H   0  0  0  0  0  0
  -22.3659  -10.9665   19.6156 H   0  0  0  0  0  0
  -21.1999   -7.6117   23.9719 H   0  0  0  0  0  0
  -21.1498   -6.0487   25.9083 H   0  0  0  0  0  0
  -22.0579   -2.7575   23.2880 H   0  0  0  0  0  0
  -22.4076  -11.9992   22.4883 H   0  0  0  0  0  0
  -21.1107  -13.1374   22.2514 H   0  0  0  0  0  0
  -24.6658  -15.8383   20.5417 H   0  0  0  0  0  0
  -26.2785  -15.6333   20.0807 H   0  0  0  0  0  0
  -26.7185  -32.5448   23.1125 H   0  0  0  0  0  0
  -25.0135  -33.9739   25.0483 H   0  0  0  0  0  0
  -22.7214  -31.3005   21.3936 H   0  0  0  0  0  0
  -23.3749  -35.9601   23.3283 H   0  0  0  0  0  0
  -24.3574  -36.8908   22.2057 H   0  0  0  0  0  0
  -23.7194  -37.6484   23.6656 H   0  0  0  0  0  0
  -26.1008  -31.5472   20.6145 H   0  0  0  0  0  0
  -26.8502  -30.8360   22.0116 H   0  0  0  0  0  0
  -28.1161  -28.9405   21.2326 H   0  0  0  0  0  0
  -25.9941  -25.9635   18.9223 H   0  0  0  0  0  0
  -24.0046  -27.3332   18.9511 H   0  0  0  0  0  0
  -23.7656  -30.5911   19.3987 H   0  0  0  0  0  0
  -22.7717  -29.2398   19.8533 H   0  0  0  0  0  0
  -25.1271  -36.1960   25.0828 H   0  0  0  0  0  0
  -20.9975  -28.3310   24.1399 H   0  0  0  0  0  0
  -20.5712  -26.2322   23.3627 H   0  0  0  0  0  0
  -21.6650  -26.7481   22.1199 H   0  0  0  0  0  0
  -19.6922  -25.6303   21.1271 H   0  0  0  0  0  0
  -19.6703  -27.3196   20.6749 H   0  0  0  0  0  0
  -17.4208  -26.6677   21.4042 H   0  0  0  0  0  0
  -18.0338  -26.0093   22.9042 H   0  0  0  0  0  0
  -19.7940  -30.7272   24.2298 H   0  0  0  0  0  0
  -17.5027  -31.6282   24.5172 H   0  0  0  0  0  0
  -15.5361  -30.3027   23.7646 H   0  0  0  0  0  0
  -15.8666  -28.0856   22.7064 H   0  0  0  0  0  0
  -24.5889  -30.7087   25.7826 H   0  0  0  0  0  0
  -24.8879  -32.2938   26.4814 H   0  0  0  0  0  0
  -25.8033  -30.8999   27.0274 H   0  0  0  0  0  0
  -26.2895  -29.6789   24.1127 H   0  0  0  0  0  0
  -27.3885  -29.7211   25.4726 H   0  0  0  0  0  0
  -27.8805  -30.4247   23.9490 H   0  0  0  0  0  0
  -27.2678  -33.3608   26.2067 H   0  0  0  0  0  0
  -28.3862  -32.6844   25.0315 H   0  0  0  0  0  0
  -28.0699  -31.8389   26.5393 H   0  0  0  0  0  0
  -28.2579  -38.0117   24.7534 H   0  0  0  0  0  0
  -28.1085  -36.2656   24.6229 H   0  0  0  0  0  0
  -27.2307  -37.1386   25.8857 H   0  0  0  0  0  0
  -20.9375  -29.8782   21.6865 H   0  0  0  0  0  0
  -26.0158  -38.2861   24.1455 H   0  0  0  0  0  0
  -30.2696  -19.8574   23.1183 H   0  0  0  0  0  0
  -30.5592  -17.5350   23.2896 H   0  0  0  0  0  0
  -29.2030  -19.4689   18.9603 H   0  0  0  0  0  0
  -29.2869  -24.2650   22.6645 H   0  0  0  0  0  0
  -27.7590  -23.5392   22.1988 H   0  0  0  0  0  0
  -28.6576  -21.5977   22.9881 H   0  0  0  0  0  0
  -30.3255  -22.1464   22.7967 H   0  0  0  0  0  0
  -29.7560  -22.2034   19.1043 H   0  0  0  0  0  0
  -28.0729  -22.0546   19.5844 H   0  0  0  0  0  0
  -30.1372  -24.1492   20.4275 H   0  0  0  0  0  0
  -31.1114  -15.3265   23.3565 H   0  0  0  0  0  0
  -29.3641  -15.6472   23.4427 H   0  0  0  0  0  0
  -29.9688  -14.0529   23.0713 H   0  0  0  0  0  0
  -27.1424  -24.6551   20.2166 H   0  0  0  0  0  0
  -28.1762  -24.8483   18.8290 H   0  0  0  0  0  0
  1 25  1  0  0  0
  1 30  2  0  0  0
  1 84  1  0  0  0
  2  3  1  0  0  0
  2 25  1  0  0  0
  2 86  1  0  0  0
  2 87  1  0  0  0
  3  4  1  0  0  0
  3 88  1  0  0  0
  3 89  1  0  0  0
  4  5  1  0  0  0
  4 90  1  0  0  0
  4 91  1  0  0  0
  5  6  1  0  0  0
  5 26  1  0  0  0
  5 92  1  0  0  0
  6 25  1  0  0  0
  6 93  1  0  0  0
  6 94  1  0  0  0
  7  8  2  0  0  0
  7 26  1  0  0  0
  7 29  1  0  0  0
  8  9  1  0  0  0
  8 22  1  0  0  0
  9 10  1  0  0  0
  9 27  2  0  0  0
 10 11  2  0  0  0
 10 15  1  0  0  0
 11 12  1  0  0  0
 11 95  1  0  0  0
 12 13  2  0  0  0
 12 96  1  0  0  0
 13 14  1  0  0  0
 13 31  1  0  0  0
 14 15  2  0  0  0
 14 97  1  0  0  0
 15 98  1  0  0  0
 16 17  2  0  0  0
 16 21  1  0  0  0
 16 31  1  0  0  0
 17 18  1  0  0  0
 17 99  1  0  0  0
 18 19  2  0  0  0
 18100  1  0  0  0
 19 20  1  0  0  0
 19 24  1  0  0  0
 20 21  2  0  0  0
 20101  1  0  0  0
 21 23  1  0  0  0
 22 28  1  0  0  0
 22 32  2  0  0  0
 26 27  1  0  0  0
 28102  1  0  0  0
 28103  1  0  0  0
 29104  1  0  0  0
 29105  1  0  0  0
 33 34  1  0  0  0
 33 66  1  0  0  0
 33 70  2  0  0  0
 34 36  1  0  0  0
 34 59  1  0  0  0
 34106  1  0  0  0
 35 44  2  0  0  0
 35 45  1  0  0  0
 35 68  1  0  0  0
 36 56  1  0  0  0
 36107  1  0  0  0
 37 39  1  0  0  0
 37 47  1  0  0  0
 37 66  1  0  0  0
 37108  1  0  0  0
 38 43  2  0  0  0
 38 46  1  0  0  0
 38 47  1  0  0  0
 39 64  1  0  0  0
 39 67  2  0  0  0
 40 52  1  0  0  0
 40 53  2  0  0  0
 40 58  1  0  0  0
 41109  1  0  0  0
 41110  1  0  0  0
 41111  1  0  0  0
 41 48  1  0  0  0
 42 43  1  0  0  0
 42 66  1  0  0  0
 42112  1  0  0  0
 42113  1  0  0  0
 43 44  1  0  0  0
 44114  1  0  0  0
 45 46  2  0  0  0
 45115  1  0  0  0
 46116  1  0  0  0
 47117  1  0  0  0
 47118  1  0  0  0
 48 56  1  0  0  0
 48 65  1  0  0  0
 48119  1  0  0  0
 49 50  1  0  0  0
 49 53  1  0  0  0
 49 64  1  0  0  0
 49120  1  0  0  0
 50 51  1  0  0  0
 50121  1  0  0  0
 50122  1  0  0  0
 51 52  1  0  0  0
 51123  1  0  0  0
 51124  1  0  0  0
 52125  1  0  0  0
 52126  1  0  0  0
 53 54  1  0  0  0
 54 55  2  0  0  0
 54127  1  0  0  0
 55 57  1  0  0  0
 55128  1  0  0  0
 56 69  2  0  0  0
 57 58  2  0  0  0
 57129  1  0  0  0
 58130  1  0  0  0
 59 60  1  0  0  0
 59 61  1  0  0  0
 59 62  1  0  0  0
 60131  1  0  0  0
 60132  1  0  0  0
 60133  1  0  0  0
 61134  1  0  0  0
 61135  1  0  0  0
 61136  1  0  0  0
 62137  1  0  0  0
 62138  1  0  0  0
 62139  1  0  0  0
 63 65  1  0  0  0
 63140  1  0  0  0
 63141  1  0  0  0
 63142  1  0  0  0
 64143  1  0  0  0
 65144  1  0  0  0
 68 82  1  0  0  0
 71 72  2  0  0  0
 71 74  1  0  0  0
 71145  1  0  0  0
 72 75  1  0  0  0
 72146  1  0  0  0
 73 74  2  0  0  0
 73 76  1  0  0  0
 73147  1  0  0  0
 74 83  1  0  0  0
 75 76  2  0  0  0
 75 84  1  0  0  0
 76 85  1  0  0  0
 77 78  1  0  0  0
 77 80  1  0  0  0
 77148  1  0  0  0
 77149  1  0  0  0
 78 83  1  0  0  0
 78150  1  0  0  0
 78151  1  0  0  0
 79 80  1  0  0  0
 79 83  1  0  0  0
 79152  1  0  0  0
 79153  1  0  0  0
 80 82  1  0  0  0
 80154  1  0  0  0
 81 84  1  0  0  0
 81155  1  0  0  0
 81156  1  0  0  0
 81157  1  0  0  0
 82158  1  0  0  0
 82159  1  0  0  0
M  ISO  4   1 100  68 101  82 101  84 100
M  END
> <chiral flag>
0

> <version>
0

> <s_m_source_file>
/data/baiqing/PycharmProjects/Reinvent-master-3.2/result/LINK_invent/BTK/process_docking_weight1_custom_product_contain_oxygen_bond_distance_aromatic_linkinvent_7_9_3/rearranged_h_0015.sdf

> <i_m_source_file_index>
20

> <r_mmod_Potential_Energy-OPLS-2005>
309.671234130859

> <r_mmod_Stretch_Energy-OPLS-2005>
101.458312988281

> <r_mmod_Bend_Energy-OPLS-2005>
203.532211303711

> <r_mmod_Torsional_Energy-OPLS-2005>
327.330383300781

> <r_mmod_Improper_Torsional_Energy-OPLS-2005>
3.6997230052948

> <r_mmod_Van_der_Waal_Energy-OPLS-2005>
157.988418579102

> <r_mmod_Electrostatic_Energy-OPLS-2005>
-320.764801025391

> <r_mmod_Solvation_Energy-OPLS-2005>
-211.757461547852

> <b_mmod_Minimization_Converged-OPLS-2005>
0

> <r_mmod_RMS_Derivative-OPLS-2005>
4.4405665397644

$$$$
20
                    3D
 Structure written by MMmdl.
174183  0  0  1  0            999 V2000
  -30.6739  -14.7581   20.4326 C   0  0  0  0  0  0
  -30.4333  -12.4796   19.4462 C   0  0  0  0  0  0
  -29.4986  -12.4831   18.2199 C   0  0  0  0  0  0
  -28.0288  -12.3106   18.6538 C   0  0  0  0  0  0
  -27.6340  -13.2373   19.8346 C   0  0  2  0  0  0
  -28.6973  -13.2097   20.9533 C   0  0  0  0  0  0
  -25.2395  -13.8162   20.5513 C   0  0  0  0  0  0
  -24.1753  -13.0404   20.9227 C   0  0  0  0  0  0
  -24.6398  -11.6916   20.8829 C   0  0  0  0  0  0
  -23.9063  -10.4289   21.0465 C   0  0  0  0  0  0
  -24.3599   -9.4207   21.9247 C   0  0  0  0  0  0
  -23.6296   -8.2226   22.0764 C   0  0  0  0  0  0
  -22.4288   -8.0258   21.3550 C   0  0  0  0  0  0
  -21.9927   -9.0229   20.4649 C   0  0  0  0  0  0
  -22.7227  -10.2136   20.3106 C   0  0  0  0  0  0
  -21.6848   -6.0730   22.5273 C   0  0  0  0  0  0
  -21.4006   -6.5628   23.8209 C   0  0  0  0  0  0
  -21.3682   -5.6775   24.9170 C   0  0  0  0  0  0
  -21.6054   -4.3041   24.7223 C   0  0  0  0  0  0
  -21.8809   -3.8135   23.4342 C   0  0  0  0  0  0
  -21.9173   -4.6951   22.3399 C   0  0  0  0  0  0
  -22.7767  -13.5210   21.1838 C   0  0  0  0  0  0
  -22.1630   -4.2139   21.0978 F   0  0  0  0  0  0
  -21.5674   -3.4522   25.7750 F   0  0  0  0  0  0
  -29.9754  -13.5734   20.3318 N   0  0  0  0  0  0
  -26.2915  -12.9432   20.3282 N   0  0  0  0  0  0
  -25.9366  -11.6577   20.5899 N   0  0  0  0  0  0
  -22.0349  -12.8269   22.0404 N   0  0  0  0  0  0
  -25.3760  -15.1821   20.3478 N   0  0  0  0  0  0
  -31.9057  -14.7001   20.3982 O   0  0  0  0  0  0
  -21.6642   -6.8866   21.4243 O   0  0  0  0  0  0
  -22.3506  -14.5516   20.6652 O   0  0  0  0  0  0
  -24.6316  -31.8544   23.2045 C   0  0  0  0  0  0
  -25.9153  -32.4752   23.8381 C   0  0  1  0  0  0
  -27.2068  -27.2447   20.1219 C   0  0  0  0  0  0
  -25.5982  -33.8568   24.2289 N   0  0  0  0  0  0
  -23.4290  -30.4846   21.5435 C   0  0  2  0  0  0
  -24.8709  -28.9309   20.1112 C   0  0  0  0  0  0
  -22.7518  -29.4618   22.4876 C   0  0  0  0  0  0
  -18.0306  -28.1482   22.8413 C   0  0  0  0  0  0
  -24.1493  -36.7279   23.2638 C   0  0  0  0  0  0
  -25.9785  -30.7636   21.3858 C   0  0  0  0  0  0
  -26.0450  -29.3873   20.7199 C   0  0  0  0  0  0
  -27.2135  -28.5572   20.7100 C   0  0  0  0  0  0
  -26.0000  -26.8570   19.4920 C   0  0  0  0  0  0
  -24.8540  -27.6749   19.4891 C   0  0  0  0  0  0
  -23.6523  -29.8325   20.1541 C   0  0  0  0  0  0
  -25.4120  -36.3056   24.0310 C   0  0  1  0  0  0
  -20.5901  -28.3772   23.1269 C   0  0  2  0  0  0
  -20.6836  -26.9518   22.5344 C   0  0  0  0  0  0
  -19.5793  -26.6386   21.5186 C   0  0  0  0  0  0
  -18.1953  -26.8013   22.1561 C   0  0  0  0  0  0
  -19.1557  -28.8940   23.2842 C   0  0  0  0  0  0
  -18.9467  -30.1524   23.8899 C   0  0  0  0  0  0
  -17.6475  -30.6670   24.0543 C   0  0  0  0  0  0
  -25.9055  -34.9429   23.5078 C   0  0  0  0  0  0
  -16.5370  -29.9176   23.6297 C   0  0  0  0  0  0
  -16.7290  -28.6588   23.0312 C   0  0  0  0  0  0
  -26.4535  -31.6581   25.0768 C   0  0  0  0  0  0
  -25.3792  -31.3719   26.1515 C   0  0  0  0  0  0
  -27.0397  -30.2995   24.6270 C   0  0  0  0  0  0
  -27.6078  -32.4327   25.7544 C   0  0  0  0  0  0
  -27.5573  -37.1795   24.8461 C   0  0  0  0  0  0
  -21.4212  -29.3147   22.3692 N   0  0  0  0  0  0
  -26.4288  -37.3758   23.9403 N   0  0  0  0  0  0
  -24.6987  -31.0513   22.1018 N   0  0  0  0  0  0
  -23.4227  -28.8083   23.2910 O   0  0  0  0  0  0
  -28.3200  -26.3713   20.2068 O   0  0  0  0  0  0
  -26.5608  -34.8876   22.4631 O   0  0  0  0  0  0
  -23.5466  -32.1387   23.7324 O   0  0  0  0  0  0
  -27.2005  -17.9105   21.1496 C   0  0  0  0  0  0
  -28.1007  -16.8454   20.9670 C   0  0  0  0  0  0
  -29.7915  -18.4816   20.4136 C   0  0  0  0  0  0
  -27.5601  -19.2744   21.0038 C   0  0  0  0  0  0
  -29.4002  -17.0754   20.5044 C   0  0  0  0  0  0
  -28.9112  -19.6184   20.6910 C   0  0  0  0  0  0
  -24.1998  -19.9908   24.1192 C   0  0  0  0  0  0
  -23.8905  -21.3322   23.4633 C   0  0  0  0  0  0
  -25.2031  -19.3754   23.1483 C   0  0  0  0  0  0
  -25.2248  -21.7435   22.8259 C   0  0  0  0  0  0
  -30.7199  -16.2900   18.5992 C   0  0  0  0  0  0
  -30.6121  -21.1856   21.5009 C   0  0  0  0  0  0
  -26.4347  -20.3033   21.1783 C   0  0  0  0  0  0
  -28.9167  -22.2009   19.9244 C   0  0  0  0  0  0
  -28.3362  -24.9478   19.6977 C   0  0  0  0  0  0
  -28.6350  -23.6494   20.6263 C   0  0  1  0  0  0
  -30.1133  -15.9262   19.8899 N   0  0  0  0  0  0
  -29.3619  -21.0062   20.7626 N   0  0  0  0  0  0
  -25.9962  -20.4949   22.5850 N   0  3  0  0  0  0
  -27.5918  -23.4876   21.4433 F   0  0  0  0  0  0
  -31.4651  -12.6183   19.1161 H   0  0  0  0  0  0
  -30.4068  -11.5184   19.9608 H   0  0  0  0  0  0
  -29.7864  -11.6915   17.5250 H   0  0  0  0  0  0
  -29.6082  -13.4194   17.6733 H   0  0  0  0  0  0
  -27.8978  -11.2699   18.9523 H   0  0  0  0  0  0
  -27.3641  -12.4693   17.8034 H   0  0  0  0  0  0
  -27.6115  -14.2475   19.4259 H   0  0  0  0  0  0
  -28.7580  -12.2147   21.3964 H   0  0  0  0  0  0
  -28.4543  -13.8908   21.7683 H   0  0  0  0  0  0
  -25.2709   -9.5714   22.4878 H   0  0  0  0  0  0
  -23.9999   -7.4622   22.7483 H   0  0  0  0  0  0
  -21.0856   -8.8739   19.8952 H   0  0  0  0  0  0
  -22.3638  -10.9699   19.6258 H   0  0  0  0  0  0
  -21.1979   -7.6127   23.9734 H   0  0  0  0  0  0
  -21.1537   -6.0489   25.9086 H   0  0  0  0  0  0
  -22.0578   -2.7595   23.2828 H   0  0  0  0  0  0
  -22.3849  -11.9926   22.4878 H   0  0  0  0  0  0
  -21.1007  -13.1433   22.2601 H   0  0  0  0  0  0
  -24.5473  -15.7649   20.3134 H   0  0  0  0  0  0
  -26.1423  -15.5678   19.8105 H   0  0  0  0  0  0
  -26.7217  -32.5373   23.1125 H   0  0  0  0  0  0
  -25.0198  -33.9756   25.0477 H   0  0  0  0  0  0
  -22.7272  -31.3099   21.4033 H   0  0  0  0  0  0
  -23.3734  -35.9631   23.3304 H   0  0  0  0  0  0
  -24.3572  -36.8905   22.2049 H   0  0  0  0  0  0
  -23.7269  -37.6484   23.6678 H   0  0  0  0  0  0
  -26.1230  -31.5290   20.6228 H   0  0  0  0  0  0
  -26.8560  -30.8091   22.0205 H   0  0  0  0  0  0
  -28.1164  -28.9052   21.1944 H   0  0  0  0  0  0
  -25.8748  -25.9032   19.0071 H   0  0  0  0  0  0
  -23.9493  -27.3213   19.0150 H   0  0  0  0  0  0
  -23.8087  -30.6261   19.4211 H   0  0  0  0  0  0
  -22.7629  -29.2969   19.8200 H   0  0  0  0  0  0
  -25.1295  -36.1893   25.0800 H   0  0  0  0  0  0
  -20.9970  -28.3297   24.1402 H   0  0  0  0  0  0
  -20.5890  -26.2355   23.3526 H   0  0  0  0  0  0
  -21.6711  -26.7668   22.1073 H   0  0  0  0  0  0
  -19.6941  -25.6252   21.1334 H   0  0  0  0  0  0
  -19.6773  -27.3031   20.6598 H   0  0  0  0  0  0
  -17.4251  -26.6783   21.3931 H   0  0  0  0  0  0
  -18.0334  -26.0212   22.9019 H   0  0  0  0  0  0
  -19.7911  -30.7357   24.2338 H   0  0  0  0  0  0
  -17.5046  -31.6333   24.5188 H   0  0  0  0  0  0
  -15.5386  -30.3113   23.7688 H   0  0  0  0  0  0
  -15.8678  -28.0887   22.7096 H   0  0  0  0  0  0
  -24.5952  -30.7081   25.7873 H   0  0  0  0  0  0
  -24.9020  -32.2889   26.4982 H   0  0  0  0  0  0
  -25.8156  -30.8885   27.0269 H   0  0  0  0  0  0
  -26.3003  -29.6725   24.1286 H   0  0  0  0  0  0
  -27.4075  -29.7274   25.4800 H   0  0  0  0  0  0
  -27.8883  -30.4273   23.9542 H   0  0  0  0  0  0
  -27.2685  -33.3616   26.2140 H   0  0  0  0  0  0
  -28.3902  -32.6905   25.0396 H   0  0  0  0  0  0
  -28.0759  -31.8457   26.5462 H   0  0  0  0  0  0
  -28.2561  -38.0119   24.7467 H   0  0  0  0  0  0
  -28.1095  -36.2623   24.6325 H   0  0  0  0  0  0
  -27.2285  -37.1474   25.8870 H   0  0  0  0  0  0
  -20.9372  -29.9029   21.7056 H   0  0  0  0  0  0
  -26.0137  -38.2810   24.1452 H   0  0  0  0  0  0
  -26.1843  -17.6419   21.3827 H   0  0  0  0  0  0
  -27.7343  -15.8395   21.0734 H   0  0  0  0  0  0
  -30.8016  -18.6970   20.0967 H   0  0  0  0  0  0
  -23.3150  -19.3662   24.2490 H   0  0  0  0  0  0
  -24.6583  -20.1333   25.0994 H   0  0  0  0  0  0
  -23.5103  -22.0736   24.1662 H   0  0  0  0  0  0
  -23.1327  -21.1959   22.6887 H   0  0  0  0  0  0
  -24.6316  -18.8830   22.3600 H   0  0  0  0  0  0
  -25.8390  -18.6230   23.6174 H   0  0  0  0  0  0
  -25.7950  -22.3556   23.5252 H   0  0  0  0  0  0
  -25.0625  -22.3486   21.9315 H   0  0  0  0  0  0
  -30.9114  -15.4145   17.9757 H   0  0  0  0  0  0
  -30.0578  -16.9413   18.0264 H   0  0  0  0  0  0
  -31.6691  -16.8105   18.7352 H   0  0  0  0  0  0
  -30.4285  -21.7608   22.4092 H   0  0  0  0  0  0
  -31.3488  -21.7259   20.9032 H   0  0  0  0  0  0
  -31.0740  -20.2461   21.8142 H   0  0  0  0  0  0
  -25.5859  -20.0032   20.5617 H   0  0  0  0  0  0
  -26.7224  -21.2629   20.7723 H   0  0  0  0  0  0
  -29.7209  -22.3621   19.2049 H   0  0  0  0  0  0
  -28.0637  -21.9207   19.3067 H   0  0  0  0  0  0
  -27.4712  -24.7067   19.0904 H   0  0  0  0  0  0
  -29.1451  -24.9612   18.9690 H   0  0  0  0  0  0
  -29.4834  -23.8986   21.2637 H   0  0  0  0  0  0
  -26.8412  -20.5882   23.1292 H   0  0  0  0  0  0
  1 25  1  0  0  0
  1 30  2  0  0  0
  1 87  1  0  0  0
  2  3  1  0  0  0
  2 25  1  0  0  0
  2 91  1  0  0  0
  2 92  1  0  0  0
  3  4  1  0  0  0
  3 93  1  0  0  0
  3 94  1  0  0  0
  4  5  1  0  0  0
  4 95  1  0  0  0
  4 96  1  0  0  0
  5  6  1  0  0  0
  5 26  1  0  0  0
  5 97  1  0  0  0
  6 25  1  0  0  0
  6 98  1  0  0  0
  6 99  1  0  0  0
  7  8  2  0  0  0
  7 26  1  0  0  0
  7 29  1  0  0  0
  8  9  1  0  0  0
  8 22  1  0  0  0
  9 10  1  0  0  0
  9 27  2  0  0  0
 10 11  2  0  0  0
 10 15  1  0  0  0
 11 12  1  0  0  0
 11100  1  0  0  0
 12 13  2  0  0  0
 12101  1  0  0  0
 13 14  1  0  0  0
 13 31  1  0  0  0
 14 15  2  0  0  0
 14102  1  0  0  0
 15103  1  0  0  0
 16 17  2  0  0  0
 16 21  1  0  0  0
 16 31  1  0  0  0
 17 18  1  0  0  0
 17104  1  0  0  0
 18 19  2  0  0  0
 18105  1  0  0  0
 19 20  1  0  0  0
 19 24  1  0  0  0
 20 21  2  0  0  0
 20106  1  0  0  0
 21 23  1  0  0  0
 22 28  1  0  0  0
 22 32  2  0  0  0
 26 27  1  0  0  0
 28107  1  0  0  0
 28108  1  0  0  0
 29109  1  0  0  0
 29110  1  0  0  0
 33 34  1  0  0  0
 33 66  1  0  0  0
 33 70  2  0  0  0
 34 36  1  0  0  0
 34 59  1  0  0  0
 34111  1  0  0  0
 35 44  2  0  0  0
 35 45  1  0  0  0
 35 68  1  0  0  0
 36 56  1  0  0  0
 36112  1  0  0  0
 37 39  1  0  0  0
 37 47  1  0  0  0
 37 66  1  0  0  0
 37113  1  0  0  0
 38 43  2  0  0  0
 38 46  1  0  0  0
 38 47  1  0  0  0
 39 64  1  0  0  0
 39 67  2  0  0  0
 40 52  1  0  0  0
 40 53  2  0  0  0
 40 58  1  0  0  0
 41114  1  0  0  0
 41115  1  0  0  0
 41116  1  0  0  0
 41 48  1  0  0  0
 42 43  1  0  0  0
 42 66  1  0  0  0
 42117  1  0  0  0
 42118  1  0  0  0
 43 44  1  0  0  0
 44119  1  0  0  0
 45 46  2  0  0  0
 45120  1  0  0  0
 46121  1  0  0  0
 47122  1  0  0  0
 47123  1  0  0  0
 48 56  1  0  0  0
 48 65  1  0  0  0
 48124  1  0  0  0
 49 50  1  0  0  0
 49 53  1  0  0  0
 49 64  1  0  0  0
 49125  1  0  0  0
 50 51  1  0  0  0
 50126  1  0  0  0
 50127  1  0  0  0
 51 52  1  0  0  0
 51128  1  0  0  0
 51129  1  0  0  0
 52130  1  0  0  0
 52131  1  0  0  0
 53 54  1  0  0  0
 54 55  2  0  0  0
 54132  1  0  0  0
 55 57  1  0  0  0
 55133  1  0  0  0
 56 69  2  0  0  0
 57 58  2  0  0  0
 57134  1  0  0  0
 58135  1  0  0  0
 59 60  1  0  0  0
 59 61  1  0  0  0
 59 62  1  0  0  0
 60136  1  0  0  0
 60137  1  0  0  0
 60138  1  0  0  0
 61139  1  0  0  0
 61140  1  0  0  0
 61141  1  0  0  0
 62142  1  0  0  0
 62143  1  0  0  0
 62144  1  0  0  0
 63 65  1  0  0  0
 63145  1  0  0  0
 63146  1  0  0  0
 63147  1  0  0  0
 64148  1  0  0  0
 65149  1  0  0  0
 68 85  1  0  0  0
 71 72  2  0  0  0
 71 74  1  0  0  0
 71150  1  0  0  0
 72 75  1  0  0  0
 72151  1  0  0  0
 73 75  2  0  0  0
 73 76  1  0  0  0
 73152  1  0  0  0
 74 76  2  0  0  0
 74 83  1  0  0  0
 75 87  1  0  0  0
 76 88  1  0  0  0
 77 78  1  0  0  0
 77 79  1  0  0  0
 77153  1  0  0  0
 77154  1  0  0  0
 78 80  1  0  0  0
 78155  1  0  0  0
 78156  1  0  0  0
 79 89  1  0  0  0
 79157  1  0  0  0
 79158  1  0  0  0
 80 89  1  0  0  0
 80159  1  0  0  0
 80160  1  0  0  0
 81 87  1  0  0  0
 81161  1  0  0  0
 81162  1  0  0  0
 81163  1  0  0  0
 82 88  1  0  0  0
 82164  1  0  0  0
 82165  1  0  0  0
 82166  1  0  0  0
 83167  1  0  0  0
 83168  1  0  0  0
 83 89  1  0  0  0
 84 86  1  0  0  0
 84 88  1  0  0  0
 84169  1  0  0  0
 84170  1  0  0  0
 85 86  1  0  0  0
 85171  1  0  0  0
 85172  1  0  0  0
 86 90  1  0  0  0
 86173  1  0  0  0
 89174  1  0  0  0
M  CHG  1  89   1
M  ISO  4   1 100  68 101  85 101  87 100
M  END
> <chiral flag>
0

> <version>
0

> <s_m_source_file>
/data/baiqing/PycharmProjects/Reinvent-master-3.2/result/LINK_invent/BTK/process_docking_weight1_custom_product_contain_oxygen_bond_distance_aromatic_linkinvent_7_9_3/rearranged_h_0015.sdf

> <i_m_source_file_index>
21

> <r_mmod_Potential_Energy-OPLS-2005>
448.175689697266

> <r_mmod_Stretch_Energy-OPLS-2005>
140.84001159668

> <r_mmod_Bend_Energy-OPLS-2005>
242.363037109375

> <r_mmod_Torsional_Energy-OPLS-2005>
385.949615478516

> <r_mmod_Improper_Torsional_Energy-OPLS-2005>
32.9520263671875

> <r_mmod_Van_der_Waal_Energy-OPLS-2005>
143.115905761719

> <r_mmod_Electrostatic_Energy-OPLS-2005>
-198.174743652344

> <r_mmod_Solvation_Energy-OPLS-2005>
-407.327239990234

> <b_mmod_Minimization_Converged-OPLS-2005>
0

> <r_mmod_RMS_Derivative-OPLS-2005>
4.05711889266968

$$$$
21
                    3D
 Structure written by MMmdl.
156165  0  0  1  0            999 V2000
  -30.6061  -14.6392   20.5158 C   0  0  0  0  0  0
  -30.4417  -12.3940   19.4521 C   0  0  0  0  0  0
  -29.5103  -12.5162   18.2241 C   0  0  0  0  0  0
  -28.0319  -12.3513   18.6321 C   0  0  0  0  0  0
  -27.6559  -13.2119   19.8671 C   0  0  2  0  0  0
  -28.6985  -13.0522   20.9974 C   0  0  0  0  0  0
  -25.2576  -13.8149   20.5670 C   0  0  0  0  0  0
  -24.1832  -13.0429   20.9180 C   0  0  0  0  0  0
  -24.6389  -11.6896   20.8733 C   0  0  0  0  0  0
  -23.9042  -10.4287   21.0402 C   0  0  0  0  0  0
  -24.3604   -9.4203   21.9177 C   0  0  0  0  0  0
  -23.6288   -8.2230   22.0744 C   0  0  0  0  0  0
  -22.4276   -8.0268   21.3529 C   0  0  0  0  0  0
  -21.9902   -9.0240   20.4634 C   0  0  0  0  0  0
  -22.7218  -10.2126   20.3048 C   0  0  0  0  0  0
  -21.6851   -6.0728   22.5275 C   0  0  0  0  0  0
  -21.4011   -6.5636   23.8208 C   0  0  0  0  0  0
  -21.3663   -5.6788   24.9173 C   0  0  0  0  0  0
  -21.6047   -4.3046   24.7223 C   0  0  0  0  0  0
  -21.8819   -3.8139   23.4343 C   0  0  0  0  0  0
  -21.9193   -4.6954   22.3404 C   0  0  0  0  0  0
  -22.7862  -13.5237   21.1855 C   0  0  0  0  0  0
  -22.1657   -4.2139   21.0981 F   0  0  0  0  0  0
  -21.5643   -3.4525   25.7737 F   0  0  0  0  0  0
  -30.0149  -13.4037   20.4406 N   0  0  0  0  0  0
  -26.3005  -12.9320   20.3315 N   0  0  0  0  0  0
  -25.9319  -11.6479   20.5741 N   0  0  0  0  0  0
  -22.0493  -12.8236   22.0406 N   0  0  0  0  0  0
  -25.4301  -15.1867   20.4070 N   0  0  0  0  0  0
  -31.7620  -14.8218   20.1204 O   0  0  0  0  0  0
  -21.6643   -6.8866   21.4238 O   0  0  0  0  0  0
  -22.3549  -14.5550   20.6714 O   0  0  0  0  0  0
  -24.6252  -31.8617   23.2048 C   0  0  0  0  0  0
  -25.9111  -32.4776   23.8367 C   0  0  1  0  0  0
  -27.2234  -27.3267   20.1265 C   0  0  0  0  0  0
  -25.5947  -33.8575   24.2304 N   0  0  0  0  0  0
  -23.4166  -30.4868   21.5465 C   0  0  2  0  0  0
  -24.8659  -28.9389   20.1136 C   0  0  0  0  0  0
  -22.7457  -29.4653   22.4948 C   0  0  0  0  0  0
  -18.0276  -28.1385   22.8500 C   0  0  0  0  0  0
  -24.1489  -36.7293   23.2631 C   0  0  0  0  0  0
  -25.9572  -30.7943   21.3746 C   0  0  0  0  0  0
  -26.0338  -29.4213   20.7199 C   0  0  0  0  0  0
  -27.2176  -28.6263   20.7168 C   0  0  0  0  0  0
  -26.0397  -26.8985   19.4862 C   0  0  0  0  0  0
  -24.8705  -27.6825   19.4869 C   0  0  0  0  0  0
  -23.6322  -29.8185   20.1628 C   0  0  0  0  0  0
  -25.4114  -36.3078   24.0330 C   0  0  1  0  0  0
  -20.5877  -28.3708   23.1282 C   0  0  2  0  0  0
  -20.6778  -26.9435   22.5402 C   0  0  0  0  0  0
  -19.5756  -26.6396   21.5203 C   0  0  0  0  0  0
  -18.1936  -26.7937   22.1619 C   0  0  0  0  0  0
  -19.1528  -28.8857   23.2889 C   0  0  0  0  0  0
  -18.9456  -30.1462   23.8906 C   0  0  0  0  0  0
  -17.6458  -30.6596   24.0558 C   0  0  0  0  0  0
  -25.9065  -34.9446   23.5121 C   0  0  0  0  0  0
  -16.5343  -29.9098   23.6320 C   0  0  0  0  0  0
  -16.7263  -28.6498   23.0364 C   0  0  0  0  0  0
  -26.4506  -31.6570   25.0723 C   0  0  0  0  0  0
  -25.3742  -31.3692   26.1451 C   0  0  0  0  0  0
  -27.0341  -30.2988   24.6180 C   0  0  0  0  0  0
  -27.6092  -32.4288   25.7473 C   0  0  0  0  0  0
  -27.5588  -37.1798   24.8461 C   0  0  0  0  0  0
  -21.4172  -29.3058   22.3670 N   0  0  0  0  0  0
  -26.4289  -37.3780   23.9417 N   0  0  0  0  0  0
  -24.6848  -31.0642   22.0989 N   0  0  0  0  0  0
  -23.4184  -28.8203   23.3023 O   0  0  0  0  0  0
  -28.3315  -26.4710   20.1521 O   0  0  0  0  0  0
  -26.5619  -34.8908   22.4677 O   0  0  0  0  0  0
  -23.5428  -32.1420   23.7389 O   0  0  0  0  0  0
  -28.5931  -19.2957   20.8522 C   0  0  0  0  0  0
  -28.6412  -17.8747   20.9801 C   0  0  0  0  0  0
  -30.9638  -17.8822   20.3823 C   0  0  0  0  0  0
  -29.7259  -20.0679   20.4830 C   0  0  0  0  0  0
  -29.8227  -17.1205   20.7439 C   0  0  0  0  0  0
  -30.9198  -19.3042   20.2522 C   0  0  0  0  0  0
  -30.4004  -23.8149   20.3722 C   0  0  0  0  0  0
  -30.8358  -22.3492   20.1390 C   0  0  0  0  0  0
  -28.4810  -22.4028   20.5142 C   0  0  0  0  0  0
  -28.8999  -23.8592   20.0564 C   0  0  1  0  0  0
  -28.1084  -25.1008   20.6701 C   0  0  0  0  0  0
  -29.6588  -21.5112   20.3576 N   0  0  0  0  0  0
  -29.7780  -15.6626   20.9011 N   0  0  0  0  0  0
  -32.0714  -19.9223   19.8912 F   0  0  0  0  0  0
  -31.4822  -12.5307   19.1529 H   0  0  0  0  0  0
  -30.3833  -11.3930   19.8832 H   0  0  0  0  0  0
  -29.7762  -11.7720   17.4725 H   0  0  0  0  0  0
  -29.6512  -13.4908   17.7540 H   0  0  0  0  0  0
  -27.8681  -11.2971   18.8564 H   0  0  0  0  0  0
  -27.3784  -12.5903   17.7916 H   0  0  0  0  0  0
  -27.6779  -14.2508   19.5374 H   0  0  0  0  0  0
  -28.7102  -12.0270   21.3704 H   0  0  0  0  0  0
  -28.4405  -13.6732   21.8570 H   0  0  0  0  0  0
  -25.2747   -9.5689   22.4757 H   0  0  0  0  0  0
  -23.9997   -7.4625   22.7471 H   0  0  0  0  0  0
  -21.0824   -8.8759   19.8953 H   0  0  0  0  0  0
  -22.3663  -10.9667   19.6166 H   0  0  0  0  0  0
  -21.1992   -7.6141   23.9701 H   0  0  0  0  0  0
  -21.1495   -6.0521   25.9078 H   0  0  0  0  0  0
  -22.0598   -2.7599   23.2838 H   0  0  0  0  0  0
  -22.4110  -11.9900   22.4797 H   0  0  0  0  0  0
  -21.1115  -13.1272   22.2622 H   0  0  0  0  0  0
  -24.6566  -15.8369   20.4959 H   0  0  0  0  0  0
  -26.2675  -15.6153   20.0347 H   0  0  0  0  0  0
  -26.7175  -32.5465   23.1113 H   0  0  0  0  0  0
  -25.0107  -33.9719   25.0457 H   0  0  0  0  0  0
  -22.7094  -31.3073   21.4034 H   0  0  0  0  0  0
  -23.3756  -35.9618   23.3272 H   0  0  0  0  0  0
  -24.3585  -36.8927   22.2047 H   0  0  0  0  0  0
  -23.7237  -37.6492   23.6661 H   0  0  0  0  0  0
  -26.0862  -31.5567   20.6047 H   0  0  0  0  0  0
  -26.8375  -30.8451   22.0043 H   0  0  0  0  0  0
  -28.1133  -28.9901   21.2022 H   0  0  0  0  0  0
  -26.0125  -25.9400   18.9875 H   0  0  0  0  0  0
  -23.9776  -27.3112   19.0023 H   0  0  0  0  0  0
  -23.7473  -30.5939   19.4046 H   0  0  0  0  0  0
  -22.7531  -29.2460   19.8621 H   0  0  0  0  0  0
  -25.1286  -36.1925   25.0823 H   0  0  0  0  0  0
  -20.9972  -28.3280   24.1401 H   0  0  0  0  0  0
  -20.5681  -26.2325   23.3604 H   0  0  0  0  0  0
  -21.6652  -26.7486   22.1188 H   0  0  0  0  0  0
  -19.6927  -25.6296   21.1258 H   0  0  0  0  0  0
  -19.6700  -27.3192   20.6718 H   0  0  0  0  0  0
  -17.4217  -26.6667   21.4010 H   0  0  0  0  0  0
  -18.0364  -26.0061   22.9006 H   0  0  0  0  0  0
  -19.7927  -30.7271   24.2290 H   0  0  0  0  0  0
  -17.5012  -31.6275   24.5165 H   0  0  0  0  0  0
  -15.5347  -30.3008   23.7647 H   0  0  0  0  0  0
  -15.8658  -28.0816   22.7103 H   0  0  0  0  0  0
  -24.5930  -30.7029   25.7764 H   0  0  0  0  0  0
  -24.8909  -32.2842   26.4884 H   0  0  0  0  0  0
  -25.8068  -30.8861   27.0221 H   0  0  0  0  0  0
  -26.2905  -29.6731   24.1229 H   0  0  0  0  0  0
  -27.4050  -29.7259   25.4690 H   0  0  0  0  0  0
  -27.8776  -30.4238   23.9385 H   0  0  0  0  0  0
  -27.2734  -33.3593   26.2056 H   0  0  0  0  0  0
  -28.3895  -32.6829   25.0285 H   0  0  0  0  0  0
  -28.0769  -31.8399   26.5373 H   0  0  0  0  0  0
  -28.2587  -38.0119   24.7563 H   0  0  0  0  0  0
  -28.1110  -36.2659   24.6216 H   0  0  0  0  0  0
  -27.2328  -37.1362   25.8869 H   0  0  0  0  0  0
  -20.9363  -29.8733   21.6835 H   0  0  0  0  0  0
  -26.0172  -38.2855   24.1425 H   0  0  0  0  0  0
  -27.6550  -19.7924   21.0515 H   0  0  0  0  0  0
  -27.7340  -17.3612   21.2681 H   0  0  0  0  0  0
  -31.9073  -17.3894   20.2017 H   0  0  0  0  0  0
  -30.9762  -24.5203   19.7713 H   0  0  0  0  0  0
  -30.5631  -24.0747   21.4193 H   0  0  0  0  0  0
  -31.6542  -22.0833   20.8101 H   0  0  0  0  0  0
  -31.1821  -22.2164   19.1126 H   0  0  0  0  0  0
  -27.6313  -22.0430   19.9319 H   0  0  0  0  0  0
  -28.1750  -22.4070   21.5620 H   0  0  0  0  0  0
  -28.7876  -23.8996   18.9719 H   0  0  0  0  0  0
  -28.3341  -25.1416   21.7361 H   0  0  0  0  0  0
  -27.0506  -24.8428   20.6366 H   0  0  0  0  0  0
  -28.8893  -15.3116   21.2260 H   0  0  0  0  0  0
  1 25  1  0  0  0
  1 30  2  0  0  0
  1 83  1  0  0  0
  2  3  1  0  0  0
  2 25  1  0  0  0
  2 85  1  0  0  0
  2 86  1  0  0  0
  3  4  1  0  0  0
  3 87  1  0  0  0
  3 88  1  0  0  0
  4  5  1  0  0  0
  4 89  1  0  0  0
  4 90  1  0  0  0
  5  6  1  0  0  0
  5 26  1  0  0  0
  5 91  1  0  0  0
  6 25  1  0  0  0
  6 92  1  0  0  0
  6 93  1  0  0  0
  7  8  2  0  0  0
  7 26  1  0  0  0
  7 29  1  0  0  0
  8  9  1  0  0  0
  8 22  1  0  0  0
  9 10  1  0  0  0
  9 27  2  0  0  0
 10 11  2  0  0  0
 10 15  1  0  0  0
 11 12  1  0  0  0
 11 94  1  0  0  0
 12 13  2  0  0  0
 12 95  1  0  0  0
 13 14  1  0  0  0
 13 31  1  0  0  0
 14 15  2  0  0  0
 14 96  1  0  0  0
 15 97  1  0  0  0
 16 17  2  0  0  0
 16 21  1  0  0  0
 16 31  1  0  0  0
 17 18  1  0  0  0
 17 98  1  0  0  0
 18 19  2  0  0  0
 18 99  1  0  0  0
 19 20  1  0  0  0
 19 24  1  0  0  0
 20 21  2  0  0  0
 20100  1  0  0  0
 21 23  1  0  0  0
 22 28  1  0  0  0
 22 32  2  0  0  0
 26 27  1  0  0  0
 28101  1  0  0  0
 28102  1  0  0  0
 29103  1  0  0  0
 29104  1  0  0  0
 33 34  1  0  0  0
 33 66  1  0  0  0
 33 70  2  0  0  0
 34 36  1  0  0  0
 34 59  1  0  0  0
 34105  1  0  0  0
 35 44  2  0  0  0
 35 45  1  0  0  0
 35 68  1  0  0  0
 36 56  1  0  0  0
 36106  1  0  0  0
 37 39  1  0  0  0
 37 47  1  0  0  0
 37 66  1  0  0  0
 37107  1  0  0  0
 38 43  2  0  0  0
 38 46  1  0  0  0
 38 47  1  0  0  0
 39 64  1  0  0  0
 39 67  2  0  0  0
 40 52  1  0  0  0
 40 53  2  0  0  0
 40 58  1  0  0  0
 41108  1  0  0  0
 41109  1  0  0  0
 41110  1  0  0  0
 41 48  1  0  0  0
 42 43  1  0  0  0
 42 66  1  0  0  0
 42111  1  0  0  0
 42112  1  0  0  0
 43 44  1  0  0  0
 44113  1  0  0  0
 45 46  2  0  0  0
 45114  1  0  0  0
 46115  1  0  0  0
 47116  1  0  0  0
 47117  1  0  0  0
 48 56  1  0  0  0
 48 65  1  0  0  0
 48118  1  0  0  0
 49 50  1  0  0  0
 49 53  1  0  0  0
 49 64  1  0  0  0
 49119  1  0  0  0
 50 51  1  0  0  0
 50120  1  0  0  0
 50121  1  0  0  0
 51 52  1  0  0  0
 51122  1  0  0  0
 51123  1  0  0  0
 52124  1  0  0  0
 52125  1  0  0  0
 53 54  1  0  0  0
 54 55  2  0  0  0
 54126  1  0  0  0
 55 57  1  0  0  0
 55127  1  0  0  0
 56 69  2  0  0  0
 57 58  2  0  0  0
 57128  1  0  0  0
 58129  1  0  0  0
 59 60  1  0  0  0
 59 61  1  0  0  0
 59 62  1  0  0  0
 60130  1  0  0  0
 60131  1  0  0  0
 60132  1  0  0  0
 61133  1  0  0  0
 61134  1  0  0  0
 61135  1  0  0  0
 62136  1  0  0  0
 62137  1  0  0  0
 62138  1  0  0  0
 63 65  1  0  0  0
 63139  1  0  0  0
 63140  1  0  0  0
 63141  1  0  0  0
 64142  1  0  0  0
 65143  1  0  0  0
 68 81  1  0  0  0
 71 72  2  0  0  0
 71 74  1  0  0  0
 71144  1  0  0  0
 72 75  1  0  0  0
 72145  1  0  0  0
 73 75  2  0  0  0
 73 76  1  0  0  0
 73146  1  0  0  0
 74 76  2  0  0  0
 74 82  1  0  0  0
 75 83  1  0  0  0
 76 84  1  0  0  0
 77 78  1  0  0  0
 77 80  1  0  0  0
 77147  1  0  0  0
 77148  1  0  0  0
 78 82  1  0  0  0
 78149  1  0  0  0
 78150  1  0  0  0
 79 80  1  0  0  0
 79 82  1  0  0  0
 79151  1  0  0  0
 79152  1  0  0  0
 80 81  1  0  0  0
 80153  1  0  0  0
 81154  1  0  0  0
 81155  1  0  0  0
 83156  1  0  0  0
M  ISO  4   1 100  68 101  81 101  83 100
M  END
> <chiral flag>
0

> <version>
0

> <s_m_source_file>
/data/baiqing/PycharmProjects/Reinvent-master-3.2/result/LINK_invent/BTK/process_docking_weight1_custom_product_contain_oxygen_bond_distance_aromatic_linkinvent_7_9_3/rearranged_h_0015.sdf

> <i_m_source_file_index>
22

> <r_mmod_Potential_Energy-OPLS-2005>
174.036407470703

> <r_mmod_Stretch_Energy-OPLS-2005>
77.9916610717773

> <r_mmod_Bend_Energy-OPLS-2005>
181.72412109375

> <r_mmod_Torsional_Energy-OPLS-2005>
273.582580566406

> <r_mmod_Improper_Torsional_Energy-OPLS-2005>
4.25436925888062

> <r_mmod_Van_der_Waal_Energy-OPLS-2005>
143.523300170898

> <r_mmod_Electrostatic_Energy-OPLS-2005>
-328.852081298828

> <r_mmod_Solvation_Energy-OPLS-2005>
-225.19221496582

> <b_mmod_Minimization_Converged-OPLS-2005>
0

> <r_mmod_RMS_Derivative-OPLS-2005>
1.95960474014282

$$$$
22
                    3D
 Structure written by MMmdl.
161169  0  0  1  0            999 V2000
  -30.8063  -14.4409   20.6560 C   0  0  0  0  0  0
  -30.3939  -12.3157   19.4563 C   0  0  0  0  0  0
  -29.4933  -12.5400   18.2247 C   0  0  0  0  0  0
  -28.0154  -12.3705   18.6153 C   0  0  0  0  0  0
  -27.6528  -13.2080   19.8680 C   0  0  2  0  0  0
  -28.6824  -12.9983   20.9982 C   0  0  0  0  0  0
  -25.2537  -13.8155   20.5658 C   0  0  0  0  0  0
  -24.1800  -13.0431   20.9135 C   0  0  0  0  0  0
  -24.6351  -11.6898   20.8676 C   0  0  0  0  0  0
  -23.9036  -10.4290   21.0364 C   0  0  0  0  0  0
  -24.3592   -9.4234   21.9160 C   0  0  0  0  0  0
  -23.6271   -8.2277   22.0762 C   0  0  0  0  0  0
  -22.4257   -8.0298   21.3546 C   0  0  0  0  0  0
  -21.9875   -9.0265   20.4650 C   0  0  0  0  0  0
  -22.7198  -10.2139   20.3039 C   0  0  0  0  0  0
  -21.6846   -6.0739   22.5280 C   0  0  0  0  0  0
  -21.4028   -6.5644   23.8216 C   0  0  0  0  0  0
  -21.3672   -5.6792   24.9171 C   0  0  0  0  0  0
  -21.6052   -4.3057   24.7216 C   0  0  0  0  0  0
  -21.8813   -3.8150   23.4334 C   0  0  0  0  0  0
  -21.9194   -4.6970   22.3396 C   0  0  0  0  0  0
  -22.7838  -13.5260   21.1830 C   0  0  0  0  0  0
  -22.1656   -4.2157   21.0972 F   0  0  0  0  0  0
  -21.5629   -3.4545   25.7730 F   0  0  0  0  0  0
  -30.0290  -13.3198   20.4819 N   0  0  0  0  0  0
  -26.2947  -12.9320   20.3270 N   0  0  0  0  0  0
  -25.9268  -11.6474   20.5675 N   0  0  0  0  0  0
  -22.0473  -12.8271   22.0393 N   0  0  0  0  0  0
  -25.4241  -15.1880   20.4165 N   0  0  0  0  0  0
  -31.8838  -14.5311   20.0528 O   0  0  0  0  0  0
  -21.6637   -6.8881   21.4240 O   0  0  0  0  0  0
  -22.3546  -14.5583   20.6694 O   0  0  0  0  0  0
  -24.6126  -31.8701   23.2104 C   0  0  0  0  0  0
  -25.9051  -32.4813   23.8400 C   0  0  1  0  0  0
  -27.2510  -27.4492   20.0950 C   0  0  0  0  0  0
  -25.5966  -33.8616   24.2346 N   0  0  0  0  0  0
  -23.3981  -30.4900   21.5485 C   0  0  2  0  0  0
  -24.8493  -28.9559   20.1187 C   0  0  0  0  0  0
  -22.7391  -29.4638   22.4989 C   0  0  0  0  0  0
  -18.0254  -28.1399   22.8496 C   0  0  0  0  0  0
  -24.1485  -36.7215   23.2643 C   0  0  0  0  0  0
  -25.9275  -30.8410   21.3604 C   0  0  0  0  0  0
  -26.0074  -29.4754   20.7070 C   0  0  0  0  0  0
  -27.2061  -28.7321   20.6879 C   0  0  0  0  0  0
  -26.0669  -26.9324   19.5180 C   0  0  0  0  0  0
  -24.8731  -27.6830   19.5241 C   0  0  0  0  0  0
  -23.6091  -29.8191   20.1631 C   0  0  0  0  0  0
  -25.4132  -36.3090   24.0339 C   0  0  1  0  0  0
  -20.5842  -28.3640   23.1346 C   0  0  2  0  0  0
  -20.6739  -26.9386   22.5414 C   0  0  0  0  0  0
  -19.5737  -26.6398   21.5204 C   0  0  0  0  0  0
  -18.1915  -26.7954   22.1614 C   0  0  0  0  0  0
  -19.1503  -28.8839   23.2909 C   0  0  0  0  0  0
  -18.9453  -30.1460   23.8895 C   0  0  0  0  0  0
  -17.6464  -30.6609   24.0580 C   0  0  0  0  0  0
  -25.9088  -34.9466   23.5126 C   0  0  0  0  0  0
  -16.5342  -29.9141   23.6332 C   0  0  0  0  0  0
  -16.7239  -28.6550   23.0345 C   0  0  0  0  0  0
  -26.4499  -31.6559   25.0715 C   0  0  0  0  0  0
  -25.3781  -31.3609   26.1463 C   0  0  0  0  0  0
  -27.0306  -30.3018   24.6058 C   0  0  0  0  0  0
  -27.6088  -32.4228   25.7512 C   0  0  0  0  0  0
  -27.5579  -37.1772   24.8505 C   0  0  0  0  0  0
  -21.4117  -29.2995   22.3747 N   0  0  0  0  0  0
  -26.4307  -37.3791   23.9435 N   0  0  0  0  0  0
  -24.6629  -31.0854   22.0965 N   0  0  0  0  0  0
  -23.4166  -28.8173   23.3023 O   0  0  0  0  0  0
  -28.4706  -26.7992   20.0946 O   0  0  0  0  0  0
  -26.5622  -34.8928   22.4668 O   0  0  0  0  0  0
  -23.5319  -32.1398   23.7535 O   0  0  0  0  0  0
  -30.3551  -18.7805   22.6159 C   0  0  0  0  0  0
  -29.9595  -18.8911   20.2265 C   0  0  0  0  0  0
  -29.8311  -20.0814   22.7618 C   0  0  0  0  0  0
  -29.4581  -20.2037   20.3721 C   0  0  0  0  0  0
  -30.4165  -18.1624   21.3494 C   0  0  0  0  0  0
  -29.3796  -20.8229   21.6444 C   0  0  0  0  0  0
  -27.8668  -22.2685   22.8739 C   0  0  0  0  0  0
  -29.6876  -15.4497   22.6520 C   0  0  0  0  0  0
  -31.1228  -16.8134   21.1668 C   0  0  0  0  0  0
  -28.6103  -24.5288   21.0262 C   0  0  0  0  0  0
  -28.8306  -23.0368   20.6670 C   0  0  0  0  0  0
  -28.5950  -25.4140   19.7657 C   0  0  0  0  0  0
  -28.8804  -22.1354   21.8249 N   0  0  0  0  0  0
  -30.3634  -15.5365   21.3509 N   0  0  0  0  0  0
  -31.4424  -12.3557   19.1590 H   0  0  0  0  0  0
  -30.2572  -11.3061   19.8494 H   0  0  0  0  0  0
  -29.7605  -11.8459   17.4269 H   0  0  0  0  0  0
  -29.6513  -13.5433   17.8228 H   0  0  0  0  0  0
  -27.8399  -11.3109   18.8084 H   0  0  0  0  0  0
  -27.3697  -12.6390   17.7778 H   0  0  0  0  0  0
  -27.6930  -14.2565   19.5726 H   0  0  0  0  0  0
  -28.6581  -11.9598   21.3338 H   0  0  0  0  0  0
  -28.3640  -13.5543   21.8690 H   0  0  0  0  0  0
  -25.2735   -9.5730   22.4723 H   0  0  0  0  0  0
  -23.9989   -7.4674   22.7481 H   0  0  0  0  0  0
  -21.0814   -8.8765   19.8956 H   0  0  0  0  0  0
  -22.3637  -10.9672   19.6147 H   0  0  0  0  0  0
  -21.2030   -7.6150   23.9720 H   0  0  0  0  0  0
  -21.1500   -6.0519   25.9072 H   0  0  0  0  0  0
  -22.0579   -2.7617   23.2825 H   0  0  0  0  0  0
  -22.4045  -11.9916   22.4769 H   0  0  0  0  0  0
  -21.1107  -13.1343   22.2595 H   0  0  0  0  0  0
  -24.6580  -15.8404   20.5457 H   0  0  0  0  0  0
  -26.2936  -15.6425   20.1644 H   0  0  0  0  0  0
  -26.7126  -32.5500   23.1163 H   0  0  0  0  0  0
  -25.0205  -33.9799   25.0558 H   0  0  0  0  0  0
  -22.6835  -31.3017   21.4047 H   0  0  0  0  0  0
  -23.3809  -35.9486   23.3377 H   0  0  0  0  0  0
  -24.3574  -36.8749   22.2045 H   0  0  0  0  0  0
  -23.7186  -37.6419   23.6595 H   0  0  0  0  0  0
  -26.0608  -31.6109   20.5985 H   0  0  0  0  0  0
  -26.8091  -30.8833   21.9857 H   0  0  0  0  0  0
  -28.1011  -29.1419   21.1325 H   0  0  0  0  0  0
  -26.0271  -25.9608   19.0518 H   0  0  0  0  0  0
  -23.9777  -27.2737   19.0767 H   0  0  0  0  0  0
  -23.7156  -30.5876   19.3975 H   0  0  0  0  0  0
  -22.7354  -29.2365   19.8651 H   0  0  0  0  0  0
  -25.1324  -36.1941   25.0833 H   0  0  0  0  0  0
  -20.9929  -28.3199   24.1469 H   0  0  0  0  0  0
  -20.5683  -26.2223   23.3574 H   0  0  0  0  0  0
  -21.6618  -26.7467   22.1208 H   0  0  0  0  0  0
  -19.6907  -25.6327   21.1213 H   0  0  0  0  0  0
  -19.6721  -27.3236   20.6760 H   0  0  0  0  0  0
  -17.4182  -26.6664   21.4016 H   0  0  0  0  0  0
  -18.0325  -26.0094   22.9013 H   0  0  0  0  0  0
  -19.7923  -30.7272   24.2255 H   0  0  0  0  0  0
  -17.5030  -31.6302   24.5183 H   0  0  0  0  0  0
  -15.5356  -30.3077   23.7672 H   0  0  0  0  0  0
  -15.8599  -28.0912   22.7064 H   0  0  0  0  0  0
  -24.5991  -30.6939   25.7787 H   0  0  0  0  0  0
  -24.8931  -32.2713   26.4962 H   0  0  0  0  0  0
  -25.8175  -30.8730   27.0170 H   0  0  0  0  0  0
  -26.2792  -29.6810   24.1166 H   0  0  0  0  0  0
  -27.4159  -29.7247   25.4476 H   0  0  0  0  0  0
  -27.8631  -30.4378   23.9156 H   0  0  0  0  0  0
  -27.2763  -33.3526   26.2145 H   0  0  0  0  0  0
  -28.3935  -32.6789   25.0379 H   0  0  0  0  0  0
  -28.0734  -31.8285   26.5410 H   0  0  0  0  0  0
  -28.2662  -38.0017   24.7568 H   0  0  0  0  0  0
  -28.1012  -36.2560   24.6325 H   0  0  0  0  0  0
  -27.2279  -37.1422   25.8907 H   0  0  0  0  0  0
  -20.9265  -29.8620   21.6898 H   0  0  0  0  0  0
  -26.0186  -38.2857   24.1474 H   0  0  0  0  0  0
  -30.7436  -18.2769   23.4888 H   0  0  0  0  0  0
  -30.0321  -18.4728   19.2321 H   0  0  0  0  0  0
  -29.8052  -20.5196   23.7487 H   0  0  0  0  0  0
  -29.1396  -20.7236   19.4822 H   0  0  0  0  0  0
  -27.4389  -21.3103   23.1725 H   0  0  0  0  0  0
  -27.0316  -22.8851   22.5437 H   0  0  0  0  0  0
  -28.2963  -22.7425   23.7559 H   0  0  0  0  0  0
  -29.8628  -14.4913   23.1442 H   0  0  0  0  0  0
  -28.6157  -15.6159   22.5369 H   0  0  0  0  0  0
  -30.0415  -16.1980   23.3540 H   0  0  0  0  0  0
  -31.9780  -16.7963   21.8453 H   0  0  0  0  0  0
  -31.5529  -16.8680   20.1636 H   0  0  0  0  0  0
  -29.4025  -24.8670   21.6973 H   0  0  0  0  0  0
  -27.6734  -24.6751   21.5629 H   0  0  0  0  0  0
  -29.7715  -22.9527   20.1178 H   0  0  0  0  0  0
  -28.0473  -22.7043   19.9844 H   0  0  0  0  0  0
  -27.8687  -25.0565   19.0387 H   0  0  0  0  0  0
  -29.5583  -25.3080   19.2670 H   0  0  0  0  0  0
  1 25  1  0  0  0
  1 30  2  0  0  0
  1 84  1  0  0  0
  2  3  1  0  0  0
  2 25  1  0  0  0
  2 85  1  0  0  0
  2 86  1  0  0  0
  3  4  1  0  0  0
  3 87  1  0  0  0
  3 88  1  0  0  0
  4  5  1  0  0  0
  4 89  1  0  0  0
  4 90  1  0  0  0
  5  6  1  0  0  0
  5 26  1  0  0  0
  5 91  1  0  0  0
  6 25  1  0  0  0
  6 92  1  0  0  0
  6 93  1  0  0  0
  7  8  2  0  0  0
  7 26  1  0  0  0
  7 29  1  0  0  0
  8  9  1  0  0  0
  8 22  1  0  0  0
  9 10  1  0  0  0
  9 27  2  0  0  0
 10 11  2  0  0  0
 10 15  1  0  0  0
 11 12  1  0  0  0
 11 94  1  0  0  0
 12 13  2  0  0  0
 12 95  1  0  0  0
 13 14  1  0  0  0
 13 31  1  0  0  0
 14 15  2  0  0  0
 14 96  1  0  0  0
 15 97  1  0  0  0
 16 17  2  0  0  0
 16 21  1  0  0  0
 16 31  1  0  0  0
 17 18  1  0  0  0
 17 98  1  0  0  0
 18 19  2  0  0  0
 18 99  1  0  0  0
 19 20  1  0  0  0
 19 24  1  0  0  0
 20 21  2  0  0  0
 20100  1  0  0  0
 21 23  1  0  0  0
 22 28  1  0  0  0
 22 32  2  0  0  0
 26 27  1  0  0  0
 28101  1  0  0  0
 28102  1  0  0  0
 29103  1  0  0  0
 29104  1  0  0  0
 33 34  1  0  0  0
 33 66  1  0  0  0
 33 70  2  0  0  0
 34 36  1  0  0  0
 34 59  1  0  0  0
 34105  1  0  0  0
 35 44  2  0  0  0
 35 45  1  0  0  0
 35 68  1  0  0  0
 36 56  1  0  0  0
 36106  1  0  0  0
 37 39  1  0  0  0
 37 47  1  0  0  0
 37 66  1  0  0  0
 37107  1  0  0  0
 38 43  2  0  0  0
 38 46  1  0  0  0
 38 47  1  0  0  0
 39 64  1  0  0  0
 39 67  2  0  0  0
 40 52  1  0  0  0
 40 53  2  0  0  0
 40 58  1  0  0  0
 41108  1  0  0  0
 41109  1  0  0  0
 41110  1  0  0  0
 41 48  1  0  0  0
 42 43  1  0  0  0
 42 66  1  0  0  0
 42111  1  0  0  0
 42112  1  0  0  0
 43 44  1  0  0  0
 44113  1  0  0  0
 45 46  2  0  0  0
 45114  1  0  0  0
 46115  1  0  0  0
 47116  1  0  0  0
 47117  1  0  0  0
 48 56  1  0  0  0
 48 65  1  0  0  0
 48118  1  0  0  0
 49 50  1  0  0  0
 49 53  1  0  0  0
 49 64  1  0  0  0
 49119  1  0  0  0
 50 51  1  0  0  0
 50120  1  0  0  0
 50121  1  0  0  0
 51 52  1  0  0  0
 51122  1  0  0  0
 51123  1  0  0  0
 52124  1  0  0  0
 52125  1  0  0  0
 53 54  1  0  0  0
 54 55  2  0  0  0
 54126  1  0  0  0
 55 57  1  0  0  0
 55127  1  0  0  0
 56 69  2  0  0  0
 57 58  2  0  0  0
 57128  1  0  0  0
 58129  1  0  0  0
 59 60  1  0  0  0
 59 61  1  0  0  0
 59 62  1  0  0  0
 60130  1  0  0  0
 60131  1  0  0  0
 60132  1  0  0  0
 61133  1  0  0  0
 61134  1  0  0  0
 61135  1  0  0  0
 62136  1  0  0  0
 62137  1  0  0  0
 62138  1  0  0  0
 63 65  1  0  0  0
 63139  1  0  0  0
 63140  1  0  0  0
 63141  1  0  0  0
 64142  1  0  0  0
 65143  1  0  0  0
 68 82  1  0  0  0
 71 73  2  0  0  0
 71 75  1  0  0  0
 71144  1  0  0  0
 72 74  1  0  0  0
 72 75  2  0  0  0
 72145  1  0  0  0
 73 76  1  0  0  0
 73146  1  0  0  0
 74 76  2  0  0  0
 74147  1  0  0  0
 75 79  1  0  0  0
 76 83  1  0  0  0
 77 83  1  0  0  0
 77148  1  0  0  0
 77149  1  0  0  0
 77150  1  0  0  0
 78 84  1  0  0  0
 78151  1  0  0  0
 78152  1  0  0  0
 78153  1  0  0  0
 79 84  1  0  0  0
 79154  1  0  0  0
 79155  1  0  0  0
 80 81  1  0  0  0
 80 82  1  0  0  0
 80156  1  0  0  0
 80157  1  0  0  0
 81 83  1  0  0  0
 81158  1  0  0  0
 81159  1  0  0  0
 82160  1  0  0  0
 82161  1  0  0  0
M  ISO  4   1 100  68 101  82 101  84 100
M  END
> <chiral flag>
0

> <version>
0

> <s_m_source_file>
/data/baiqing/PycharmProjects/Reinvent-master-3.2/result/LINK_invent/BTK/process_docking_weight1_custom_product_contain_oxygen_bond_distance_aromatic_linkinvent_7_9_3/rearranged_h_0015.sdf

> <i_m_source_file_index>
23

> <r_mmod_Potential_Energy-OPLS-2005>
100.385414123535

> <r_mmod_Stretch_Energy-OPLS-2005>
46.212100982666

> <r_mmod_Bend_Energy-OPLS-2005>
142.126251220703

> <r_mmod_Torsional_Energy-OPLS-2005>
238.704498291016

> <r_mmod_Improper_Torsional_Energy-OPLS-2005>
7.92415904998779

> <r_mmod_Van_der_Waal_Energy-OPLS-2005>
180.791030883789

> <r_mmod_Electrostatic_Energy-OPLS-2005>
-317.921661376953

> <r_mmod_Solvation_Energy-OPLS-2005>
-212.284820556641

> <b_mmod_Minimization_Converged-OPLS-2005>
0

> <r_mmod_RMS_Derivative-OPLS-2005>
4.60344171524048

$$$$
23
                    3D
 Structure written by MMmdl.
157165  0  0  1  0            999 V2000
  -30.6873  -14.4723   20.5503 C   0  0  0  0  0  0
  -30.4249  -12.2992   19.4265 C   0  0  0  0  0  0
  -29.4977  -12.5008   18.2088 C   0  0  0  0  0  0
  -28.0170  -12.3661   18.6193 C   0  0  0  0  0  0
  -27.6628  -13.2059   19.8760 C   0  0  2  0  0  0
  -28.7026  -12.9812   20.9978 C   0  0  0  0  0  0
  -25.2597  -13.8162   20.5682 C   0  0  0  0  0  0
  -24.1843  -13.0442   20.9170 C   0  0  0  0  0  0
  -24.6391  -11.6907   20.8726 C   0  0  0  0  0  0
  -23.9053  -10.4295   21.0403 C   0  0  0  0  0  0
  -24.3607   -9.4212   21.9185 C   0  0  0  0  0  0
  -23.6288   -8.2243   22.0756 C   0  0  0  0  0  0
  -22.4272   -8.0278   21.3545 C   0  0  0  0  0  0
  -21.9899   -9.0250   20.4648 C   0  0  0  0  0  0
  -22.7223  -10.2132   20.3057 C   0  0  0  0  0  0
  -21.6851   -6.0731   22.5278 C   0  0  0  0  0  0
  -21.4011   -6.5637   23.8209 C   0  0  0  0  0  0
  -21.3659   -5.6791   24.9173 C   0  0  0  0  0  0
  -21.6045   -4.3054   24.7223 C   0  0  0  0  0  0
  -21.8820   -3.8142   23.4346 C   0  0  0  0  0  0
  -21.9193   -4.6959   22.3403 C   0  0  0  0  0  0
  -22.7868  -13.5244   21.1838 C   0  0  0  0  0  0
  -22.1663   -4.2143   21.0980 F   0  0  0  0  0  0
  -21.5632   -3.4536   25.7739 F   0  0  0  0  0  0
  -30.0372  -13.2819   20.4509 N   0  0  0  0  0  0
  -26.3026  -12.9325   20.3360 N   0  0  0  0  0  0
  -25.9317  -11.6486   20.5758 N   0  0  0  0  0  0
  -22.0501  -12.8244   22.0393 N   0  0  0  0  0  0
  -25.4341  -15.1879   20.4109 N   0  0  0  0  0  0
  -31.8280  -14.6426   20.1099 O   0  0  0  0  0  0
  -21.6639   -6.8873   21.4241 O   0  0  0  0  0  0
  -22.3559  -14.5552   20.6691 O   0  0  0  0  0  0
  -24.6134  -31.8680   23.2103 C   0  0  0  0  0  0
  -25.9028  -32.4820   23.8405 C   0  0  1  0  0  0
  -27.2344  -27.4474   20.0982 C   0  0  0  0  0  0
  -25.5888  -33.8616   24.2342 N   0  0  0  0  0  0
  -23.4018  -30.4920   21.5492 C   0  0  2  0  0  0
  -24.8503  -28.9591   20.1121 C   0  0  0  0  0  0
  -22.7404  -29.4664   22.4979 C   0  0  0  0  0  0
  -18.0265  -28.1375   22.8498 C   0  0  0  0  0  0
  -24.1483  -36.7316   23.2639 C   0  0  0  0  0  0
  -25.9289  -30.8384   21.3607 C   0  0  0  0  0  0
  -26.0093  -29.4733   20.7094 C   0  0  0  0  0  0
  -27.2075  -28.7245   20.7004 C   0  0  0  0  0  0
  -26.0652  -26.9452   19.4914 C   0  0  0  0  0  0
  -24.8724  -27.6934   19.4989 C   0  0  0  0  0  0
  -23.6107  -29.8233   20.1639 C   0  0  0  0  0  0
  -25.4097  -36.3106   24.0346 C   0  0  1  0  0  0
  -20.5857  -28.3661   23.1322 C   0  0  2  0  0  0
  -20.6760  -26.9399   22.5420 C   0  0  0  0  0  0
  -19.5739  -26.6388   21.5214 C   0  0  0  0  0  0
  -18.1915  -26.7926   22.1625 C   0  0  0  0  0  0
  -19.1515  -28.8833   23.2909 C   0  0  0  0  0  0
  -18.9450  -30.1442   23.8912 C   0  0  0  0  0  0
  -17.6455  -30.6589   24.0568 C   0  0  0  0  0  0
  -25.9026  -34.9473   23.5143 C   0  0  0  0  0  0
  -16.5344  -29.9098   23.6326 C   0  0  0  0  0  0
  -16.7255  -28.6514   23.0348 C   0  0  0  0  0  0
  -26.4458  -31.6587   25.0722 C   0  0  0  0  0  0
  -25.3739  -31.3702   26.1490 C   0  0  0  0  0  0
  -27.0279  -30.3035   24.6068 C   0  0  0  0  0  0
  -27.6049  -32.4292   25.7473 C   0  0  0  0  0  0
  -27.5581  -37.1805   24.8463 C   0  0  0  0  0  0
  -21.4130  -29.3036   22.3736 N   0  0  0  0  0  0
  -26.4283  -37.3791   23.9419 N   0  0  0  0  0  0
  -24.6662  -31.0800   22.0992 N   0  0  0  0  0  0
  -23.4185  -28.8201   23.3012 O   0  0  0  0  0  0
  -28.3687  -26.6711   20.1171 O   0  0  0  0  0  0
  -26.5589  -34.8927   22.4704 O   0  0  0  0  0  0
  -23.5333  -32.1418   23.7516 O   0  0  0  0  0  0
  -30.6243  -18.7628   19.2779 C   0  0  0  0  0  0
  -28.8563  -19.0680   20.9116 C   0  0  0  0  0  0
  -30.7658  -17.4170   19.6742 C   0  0  0  0  0  0
  -28.9942  -17.7169   21.3069 C   0  0  0  0  0  0
  -29.6574  -19.5969   19.8771 C   0  0  0  0  0  0
  -29.9375  -16.8653   20.6846 C   0  0  0  0  0  0
  -29.0619  -23.3491   20.0668 C   0  0  0  0  0  0
  -30.7428  -21.9740   21.2690 C   0  0  0  0  0  0
  -29.4420  -21.0192   19.3422 C   0  0  0  0  0  0
  -29.3904  -24.5466   20.9881 C   0  0  0  0  0  0
  -28.2885  -25.6291   21.1015 C   0  0  0  0  0  0
  -29.9534  -15.4817   21.0642 N   0  0  0  0  0  0
  -29.6926  -22.1556   20.2574 N   0  0  0  0  0  0
  -28.2336  -23.5112   19.1645 O   0  0  0  0  0  0
  -31.4696  -12.3963   19.1260 H   0  0  0  0  0  0
  -30.3236  -11.2873   19.8215 H   0  0  0  0  0  0
  -29.7358  -11.7732   17.4311 H   0  0  0  0  0  0
  -29.6707  -13.4846   17.7700 H   0  0  0  0  0  0
  -27.8235  -11.3108   18.8144 H   0  0  0  0  0  0
  -27.3683  -12.6420   17.7867 H   0  0  0  0  0  0
  -27.7089  -14.2545   19.5806 H   0  0  0  0  0  0
  -28.6740  -11.9449   21.3366 H   0  0  0  0  0  0
  -28.4639  -13.5788   21.8787 H   0  0  0  0  0  0
  -25.2756   -9.5686   22.4757 H   0  0  0  0  0  0
  -23.9997   -7.4633   22.7476 H   0  0  0  0  0  0
  -21.0828   -8.8763   19.8960 H   0  0  0  0  0  0
  -22.3681  -10.9665   19.6160 H   0  0  0  0  0  0
  -21.1999   -7.6148   23.9709 H   0  0  0  0  0  0
  -21.1483   -6.0525   25.9076 H   0  0  0  0  0  0
  -22.0601   -2.7607   23.2848 H   0  0  0  0  0  0
  -22.4109  -11.9901   22.4780 H   0  0  0  0  0  0
  -21.1121  -13.1280   22.2595 H   0  0  0  0  0  0
  -24.6712  -15.8463   20.5232 H   0  0  0  0  0  0
  -26.2918  -15.6250   20.0971 H   0  0  0  0  0  0
  -26.7106  -32.5541   23.1180 H   0  0  0  0  0  0
  -25.0048  -33.9775   25.0496 H   0  0  0  0  0  0
  -22.6901  -31.3086   21.4101 H   0  0  0  0  0  0
  -23.3741  -35.9651   23.3286 H   0  0  0  0  0  0
  -24.3592  -36.8937   22.2056 H   0  0  0  0  0  0
  -23.7238  -37.6522   23.6652 H   0  0  0  0  0  0
  -26.0385  -31.6034   20.5907 H   0  0  0  0  0  0
  -26.8183  -30.8948   21.9766 H   0  0  0  0  0  0
  -28.1013  -29.1134   21.1687 H   0  0  0  0  0  0
  -26.0799  -25.9698   19.0244 H   0  0  0  0  0  0
  -23.9825  -27.2922   19.0338 H   0  0  0  0  0  0
  -23.7187  -30.5975   19.4033 H   0  0  0  0  0  0
  -22.7351  -29.2421   19.8686 H   0  0  0  0  0  0
  -25.1270  -36.1962   25.0839 H   0  0  0  0  0  0
  -20.9947  -28.3214   24.1441 H   0  0  0  0  0  0
  -20.5658  -26.2266   23.3603 H   0  0  0  0  0  0
  -21.6633  -26.7449   22.1208 H   0  0  0  0  0  0
  -19.6901  -25.6303   21.1231 H   0  0  0  0  0  0
  -19.6675  -27.3212   20.6754 H   0  0  0  0  0  0
  -17.4188  -26.6672   21.4022 H   0  0  0  0  0  0
  -18.0315  -26.0063   22.9015 H   0  0  0  0  0  0
  -19.7930  -30.7254   24.2276 H   0  0  0  0  0  0
  -17.5020  -31.6268   24.5173 H   0  0  0  0  0  0
  -15.5349  -30.3014   23.7644 H   0  0  0  0  0  0
  -15.8651  -28.0853   22.7039 H   0  0  0  0  0  0
  -24.5877  -30.7080   25.7840 H   0  0  0  0  0  0
  -24.8973  -32.2870   26.4973 H   0  0  0  0  0  0
  -25.8107  -30.8843   27.0226 H   0  0  0  0  0  0
  -26.2815  -29.6802   24.1130 H   0  0  0  0  0  0
  -27.4082  -29.7249   25.4497 H   0  0  0  0  0  0
  -27.8632  -30.4370   23.9190 H   0  0  0  0  0  0
  -27.2688  -33.3595   26.2063 H   0  0  0  0  0  0
  -28.3848  -32.6839   25.0284 H   0  0  0  0  0  0
  -28.0720  -31.8399   26.5375 H   0  0  0  0  0  0
  -28.2585  -38.0114   24.7524 H   0  0  0  0  0  0
  -28.1088  -36.2651   24.6255 H   0  0  0  0  0  0
  -27.2317  -37.1411   25.8870 H   0  0  0  0  0  0
  -20.9275  -29.8788   21.6995 H   0  0  0  0  0  0
  -26.0169  -38.2868   24.1420 H   0  0  0  0  0  0
  -31.2502  -19.1439   18.4825 H   0  0  0  0  0  0
  -28.1070  -19.6886   21.3832 H   0  0  0  0  0  0
  -31.5013  -16.8232   19.1537 H   0  0  0  0  0  0
  -28.3425  -17.3339   22.0803 H   0  0  0  0  0  0
  -30.2989  -21.8279   22.2544 H   0  0  0  0  0  0
  -31.4131  -22.8327   21.3187 H   0  0  0  0  0  0
  -31.3798  -21.1146   21.0633 H   0  0  0  0  0  0
  -28.4118  -21.0431   18.9815 H   0  0  0  0  0  0
  -30.0609  -21.1697   18.4565 H   0  0  0  0  0  0
  -30.3341  -24.9962   20.6809 H   0  0  0  0  0  0
  -29.5442  -24.1597   21.9954 H   0  0  0  0  0  0
  -28.3714  -26.1027   22.0807 H   0  0  0  0  0  0
  -27.3081  -25.1490   21.0939 H   0  0  0  0  0  0
  -29.1375  -15.1711   21.5697 H   0  0  0  0  0  0
  1 25  1  0  0  0
  1 30  2  0  0  0
  1 82  1  0  0  0
  2  3  1  0  0  0
  2 25  1  0  0  0
  2 85  1  0  0  0
  2 86  1  0  0  0
  3  4  1  0  0  0
  3 87  1  0  0  0
  3 88  1  0  0  0
  4  5  1  0  0  0
  4 89  1  0  0  0
  4 90  1  0  0  0
  5  6  1  0  0  0
  5 26  1  0  0  0
  5 91  1  0  0  0
  6 25  1  0  0  0
  6 92  1  0  0  0
  6 93  1  0  0  0
  7  8  2  0  0  0
  7 26  1  0  0  0
  7 29  1  0  0  0
  8  9  1  0  0  0
  8 22  1  0  0  0
  9 10  1  0  0  0
  9 27  2  0  0  0
 10 11  2  0  0  0
 10 15  1  0  0  0
 11 12  1  0  0  0
 11 94  1  0  0  0
 12 13  2  0  0  0
 12 95  1  0  0  0
 13 14  1  0  0  0
 13 31  1  0  0  0
 14 15  2  0  0  0
 14 96  1  0  0  0
 15 97  1  0  0  0
 16 17  2  0  0  0
 16 21  1  0  0  0
 16 31  1  0  0  0
 17 18  1  0  0  0
 17 98  1  0  0  0
 18 19  2  0  0  0
 18 99  1  0  0  0
 19 20  1  0  0  0
 19 24  1  0  0  0
 20 21  2  0  0  0
 20100  1  0  0  0
 21 23  1  0  0  0
 22 28  1  0  0  0
 22 32  2  0  0  0
 26 27  1  0  0  0
 28101  1  0  0  0
 28102  1  0  0  0
 29103  1  0  0  0
 29104  1  0  0  0
 33 34  1  0  0  0
 33 66  1  0  0  0
 33 70  2  0  0  0
 34 36  1  0  0  0
 34 59  1  0  0  0
 34105  1  0  0  0
 35 44  2  0  0  0
 35 45  1  0  0  0
 35 68  1  0  0  0
 36 56  1  0  0  0
 36106  1  0  0  0
 37 39  1  0  0  0
 37 47  1  0  0  0
 37 66  1  0  0  0
 37107  1  0  0  0
 38 43  2  0  0  0
 38 46  1  0  0  0
 38 47  1  0  0  0
 39 64  1  0  0  0
 39 67  2  0  0  0
 40 52  1  0  0  0
 40 53  2  0  0  0
 40 58  1  0  0  0
 41108  1  0  0  0
 41109  1  0  0  0
 41110  1  0  0  0
 41 48  1  0  0  0
 42 43  1  0  0  0
 42 66  1  0  0  0
 42111  1  0  0  0
 42112  1  0  0  0
 43 44  1  0  0  0
 44113  1  0  0  0
 45 46  2  0  0  0
 45114  1  0  0  0
 46115  1  0  0  0
 47116  1  0  0  0
 47117  1  0  0  0
 48 56  1  0  0  0
 48 65  1  0  0  0
 48118  1  0  0  0
 49 50  1  0  0  0
 49 53  1  0  0  0
 49 64  1  0  0  0
 49119  1  0  0  0
 50 51  1  0  0  0
 50120  1  0  0  0
 50121  1  0  0  0
 51 52  1  0  0  0
 51122  1  0  0  0
 51123  1  0  0  0
 52124  1  0  0  0
 52125  1  0  0  0
 53 54  1  0  0  0
 54 55  2  0  0  0
 54126  1  0  0  0
 55 57  1  0  0  0
 55127  1  0  0  0
 56 69  2  0  0  0
 57 58  2  0  0  0
 57128  1  0  0  0
 58129  1  0  0  0
 59 60  1  0  0  0
 59 61  1  0  0  0
 59 62  1  0  0  0
 60130  1  0  0  0
 60131  1  0  0  0
 60132  1  0  0  0
 61133  1  0  0  0
 61134  1  0  0  0
 61135  1  0  0  0
 62136  1  0  0  0
 62137  1  0  0  0
 62138  1  0  0  0
 63 65  1  0  0  0
 63139  1  0  0  0
 63140  1  0  0  0
 63141  1  0  0  0
 64142  1  0  0  0
 65143  1  0  0  0
 68 81  1  0  0  0
 71 73  2  0  0  0
 71 75  1  0  0  0
 71144  1  0  0  0
 72 74  1  0  0  0
 72 75  2  0  0  0
 72145  1  0  0  0
 73 76  1  0  0  0
 73146  1  0  0  0
 74 76  2  0  0  0
 74147  1  0  0  0
 75 79  1  0  0  0
 76 82  1  0  0  0
 77 80  1  0  0  0
 77 83  1  0  0  0
 77 84  2  0  0  0
 78 83  1  0  0  0
 78148  1  0  0  0
 78149  1  0  0  0
 78150  1  0  0  0
 79 83  1  0  0  0
 79151  1  0  0  0
 79152  1  0  0  0
 80 81  1  0  0  0
 80153  1  0  0  0
 80154  1  0  0  0
 81155  1  0  0  0
 81156  1  0  0  0
 82157  1  0  0  0
M  ISO  4   1 100  68 101  81 101  82 100
M  END
> <chiral flag>
0

> <version>
0

> <s_m_source_file>
/data/baiqing/PycharmProjects/Reinvent-master-3.2/result/LINK_invent/BTK/process_docking_weight1_custom_product_contain_oxygen_bond_distance_aromatic_linkinvent_7_9_3/rearranged_h_0015.sdf

> <i_m_source_file_index>
24

> <r_mmod_Potential_Energy-OPLS-2005>
-50.8997077941895

> <r_mmod_Stretch_Energy-OPLS-2005>
39.8721160888672

> <r_mmod_Bend_Energy-OPLS-2005>
98.5852813720703

> <r_mmod_Torsional_Energy-OPLS-2005>
251.276214599609

> <r_mmod_Improper_Torsional_Energy-OPLS-2005>
4.21750116348267

> <r_mmod_Van_der_Waal_Energy-OPLS-2005>
163.873397827148

> <r_mmod_Electrostatic_Energy-OPLS-2005>
-392.501434326172

> <r_mmod_Solvation_Energy-OPLS-2005>
-229.358688354492

> <b_mmod_Minimization_Converged-OPLS-2005>
0

> <r_mmod_RMS_Derivative-OPLS-2005>
0.977296650409698

$$$$
24
                    3D
 Structure written by MMmdl.
184193  0  0  1  0            999 V2000
  -30.7828  -14.2381   20.8166 C   0  0  0  0  0  0
  -30.4332  -12.3063   19.3109 C   0  0  0  0  0  0
  -29.4658  -12.5871   18.1494 C   0  0  0  0  0  0
  -27.9946  -12.4214   18.5786 C   0  0  0  0  0  0
  -27.6747  -13.1912   19.8837 C   0  0  2  0  0  0
  -28.7173  -12.8302   20.9580 C   0  0  0  0  0  0
  -25.2646  -13.8134   20.5677 C   0  0  0  0  0  0
  -24.1877  -13.0452   20.9153 C   0  0  0  0  0  0
  -24.6387  -11.6896   20.8692 C   0  0  0  0  0  0
  -23.9039  -10.4292   21.0372 C   0  0  0  0  0  0
  -24.3590   -9.4223   21.9164 C   0  0  0  0  0  0
  -23.6269   -8.2261   22.0755 C   0  0  0  0  0  0
  -22.4246   -8.0286   21.3557 C   0  0  0  0  0  0
  -21.9879   -9.0257   20.4656 C   0  0  0  0  0  0
  -22.7203  -10.2135   20.3047 C   0  0  0  0  0  0
  -21.6862   -6.0721   22.5279 C   0  0  0  0  0  0
  -21.4020   -6.5626   23.8209 C   0  0  0  0  0  0
  -21.3659   -5.6783   24.9174 C   0  0  0  0  0  0
  -21.6043   -4.3045   24.7228 C   0  0  0  0  0  0
  -21.8819   -3.8135   23.4349 C   0  0  0  0  0  0
  -21.9197   -4.6949   22.3403 C   0  0  0  0  0  0
  -22.7893  -13.5262   21.1822 C   0  0  0  0  0  0
  -22.1663   -4.2128   21.0981 F   0  0  0  0  0  0
  -21.5623   -3.4535   25.7742 F   0  0  0  0  0  0
  -30.0649  -13.1534   20.4464 N   0  0  0  0  0  0
  -26.3095  -12.9285   20.3405 N   0  0  0  0  0  0
  -25.9312  -11.6450   20.5717 N   0  0  0  0  0  0
  -22.0511  -12.8281   22.0368 N   0  0  0  0  0  0
  -25.4407  -15.1858   20.4082 N   0  0  0  0  0  0
  -31.6624  -14.7724   20.1290 O   0  0  0  0  0  0
  -21.6644   -6.8866   21.4237 O   0  0  0  0  0  0
  -22.3589  -14.5580   20.6670 O   0  0  0  0  0  0
  -24.6059  -31.8686   23.2121 C   0  0  0  0  0  0
  -25.8994  -32.4784   23.8418 C   0  0  1  0  0  0
  -27.2393  -27.5060   20.0865 C   0  0  0  0  0  0
  -25.5863  -33.8604   24.2384 N   0  0  0  0  0  0
  -23.3905  -30.4900   21.5550 C   0  0  2  0  0  0
  -24.8352  -28.9684   20.1067 C   0  0  0  0  0  0
  -22.7391  -29.4616   22.5038 C   0  0  0  0  0  0
  -18.0227  -28.1367   22.8511 C   0  0  0  0  0  0
  -24.1528  -36.7296   23.2652 C   0  0  0  0  0  0
  -25.9061  -30.8708   21.3402 C   0  0  0  0  0  0
  -25.9899  -29.5133   20.6793 C   0  0  0  0  0  0
  -27.1994  -28.7998   20.6428 C   0  0  0  0  0  0
  -26.0786  -26.9634   19.5012 C   0  0  0  0  0  0
  -24.8728  -27.6931   19.5072 C   0  0  0  0  0  0
  -23.5883  -29.8209   20.1659 C   0  0  0  0  0  0
  -25.4148  -36.3116   24.0380 C   0  0  1  0  0  0
  -20.5817  -28.3656   23.1350 C   0  0  2  0  0  0
  -20.6747  -26.9402   22.5439 C   0  0  0  0  0  0
  -19.5715  -26.6350   21.5251 C   0  0  0  0  0  0
  -18.1870  -26.7920   22.1614 C   0  0  0  0  0  0
  -19.1489  -28.8819   23.2901 C   0  0  0  0  0  0
  -18.9444  -30.1426   23.8902 C   0  0  0  0  0  0
  -17.6464  -30.6613   24.0545 C   0  0  0  0  0  0
  -25.9066  -34.9457   23.5209 C   0  0  0  0  0  0
  -16.5331  -29.9125   23.6350 C   0  0  0  0  0  0
  -16.7223  -28.6508   23.0421 C   0  0  0  0  0  0
  -26.4395  -31.6453   25.0704 C   0  0  0  0  0  0
  -25.3635  -31.3518   26.1413 C   0  0  0  0  0  0
  -27.0083  -30.2858   24.5925 C   0  0  0  0  0  0
  -27.6055  -32.4049   25.7464 C   0  0  0  0  0  0
  -27.5626  -37.1818   24.8475 C   0  0  0  0  0  0
  -21.4116  -29.3042   22.3813 N   0  0  0  0  0  0
  -26.4342  -37.3801   23.9416 N   0  0  0  0  0  0
  -24.6540  -31.0863   22.0976 N   0  0  0  0  0  0
  -23.4214  -28.8111   23.2999 O   0  0  0  0  0  0
  -28.3904  -26.7643   20.1800 O   0  0  0  0  0  0
  -26.5641  -34.8873   22.4783 O   0  0  0  0  0  0
  -23.5272  -32.1369   23.7566 O   0  0  0  0  0  0
  -26.1110  -23.5698   24.1813 C   0  0  0  0  0  0
  -26.1092  -22.1710   24.3233 C   0  0  0  0  0  0
  -28.5270  -16.7951   24.0020 C   0  0  0  0  0  0
  -30.8547  -17.4473   24.2970 C   0  0  0  0  0  0
  -28.9216  -15.8125   23.0842 C   0  0  0  0  0  0
  -31.2557  -16.4514   23.3806 C   0  0  0  0  0  0
  -27.3101  -23.7860   26.3018 C   0  0  0  0  0  0
  -29.4890  -17.5979   24.6445 C   0  0  0  0  0  0
  -26.7669  -24.3711   25.1388 C   0  0  0  0  0  0
  -26.7622  -21.5795   25.4236 C   0  0  0  0  0  0
  -30.2884  -15.6094   22.7972 C   0  0  0  0  0  0
  -27.3127  -22.3872   26.4398 C   0  0  0  0  0  0
  -30.0573  -18.8907   26.7911 C   0  0  0  0  0  0
  -27.9467  -24.5840   21.1169 C   0  0  0  0  0  0
  -29.4117  -26.3415   24.6174 C   0  0  0  0  0  0
  -28.8131  -20.1567   23.7299 C   0  0  0  0  0  0
  -27.0033  -25.8350   24.8427 C   0  0  0  0  0  0
  -27.0272  -20.0888   25.4469 C   0  0  0  0  0  0
  -27.9118  -26.6490   22.6608 C   0  0  0  0  0  0
  -29.0072  -18.5904   25.7075 C   0  0  1  0  0  0
  -28.5229  -25.9810   21.3865 C   0  0  2  0  0  0
  -30.6713  -14.4256   22.1346 N   0  0  0  0  0  0
  -28.1733  -25.9104   23.9240 N   0  3  1  0  0  0
  -28.4655  -19.8617   25.1473 N   0  3  1  0  0  0
  -27.9528  -21.8084   27.4840 F   0  0  0  0  0  0
  -31.4635  -12.4778   18.9923 H   0  0  0  0  0  0
  -30.3810  -11.2570   19.6034 H   0  0  0  0  0  0
  -29.6863  -11.9347   17.3035 H   0  0  0  0  0  0
  -29.6212  -13.6072   17.7928 H   0  0  0  0  0  0
  -27.7879  -11.3587   18.7088 H   0  0  0  0  0  0
  -27.3371  -12.7636   17.7794 H   0  0  0  0  0  0
  -27.7592  -14.2578   19.6730 H   0  0  0  0  0  0
  -28.6746  -11.7613   21.1719 H   0  0  0  0  0  0
  -28.4627  -13.2980   21.9026 H   0  0  0  0  0  0
  -25.2737   -9.5707   22.4737 H   0  0  0  0  0  0
  -23.9983   -7.4660   22.7486 H   0  0  0  0  0  0
  -21.0807   -8.8777   19.8967 H   0  0  0  0  0  0
  -22.3658  -10.9670   19.6156 H   0  0  0  0  0  0
  -21.2017   -7.6134   23.9706 H   0  0  0  0  0  0
  -21.1476   -6.0511   25.9074 H   0  0  0  0  0  0
  -22.0595   -2.7594   23.2864 H   0  0  0  0  0  0
  -22.4095  -11.9920   22.4744 H   0  0  0  0  0  0
  -21.1141  -13.1353   22.2576 H   0  0  0  0  0  0
  -24.6758  -15.8439   20.5119 H   0  0  0  0  0  0
  -26.2964  -15.6201   20.0852 H   0  0  0  0  0  0
  -26.7112  -32.5506   23.1244 H   0  0  0  0  0  0
  -24.9855  -33.9770   25.0419 H   0  0  0  0  0  0
  -22.6720  -31.3007   21.4223 H   0  0  0  0  0  0
  -23.3803  -35.9605   23.3326 H   0  0  0  0  0  0
  -24.3639  -36.8884   22.2050 H   0  0  0  0  0  0
  -23.7235  -37.6506   23.6619 H   0  0  0  0  0  0
  -25.9919  -31.6448   20.5765 H   0  0  0  0  0  0
  -26.8023  -30.9359   21.9451 H   0  0  0  0  0  0
  -28.0901  -29.2239   21.0821 H   0  0  0  0  0  0
  -26.1075  -25.9764   19.0621 H   0  0  0  0  0  0
  -23.9876  -27.2690   19.0533 H   0  0  0  0  0  0
  -23.6775  -30.5960   19.4028 H   0  0  0  0  0  0
  -22.7156  -29.2300   19.8808 H   0  0  0  0  0  0
  -25.1321  -36.2029   25.0884 H   0  0  0  0  0  0
  -20.9857  -28.3207   24.1485 H   0  0  0  0  0  0
  -20.5716  -26.2270   23.3641 H   0  0  0  0  0  0
  -21.6614  -26.7512   22.1178 H   0  0  0  0  0  0
  -19.6906  -25.6250   21.1316 H   0  0  0  0  0  0
  -19.6652  -27.3135   20.6773 H   0  0  0  0  0  0
  -17.4155  -26.6690   21.3992 H   0  0  0  0  0  0
  -18.0197  -26.0047   22.8974 H   0  0  0  0  0  0
  -19.7946  -30.7194   24.2291 H   0  0  0  0  0  0
  -17.5064  -31.6317   24.5107 H   0  0  0  0  0  0
  -15.5341  -30.3059   23.7707 H   0  0  0  0  0  0
  -15.8592  -28.0835   22.7233 H   0  0  0  0  0  0
  -24.5746  -30.6987   25.7626 H   0  0  0  0  0  0
  -24.8872  -32.2665   26.4994 H   0  0  0  0  0  0
  -25.7872  -30.8449   27.0097 H   0  0  0  0  0  0
  -26.2525  -29.6671   24.1052 H   0  0  0  0  0  0
  -27.4021  -29.6990   25.4250 H   0  0  0  0  0  0
  -27.8308  -30.4164   23.8876 H   0  0  0  0  0  0
  -27.2770  -33.3347   26.2113 H   0  0  0  0  0  0
  -28.3836  -32.6563   25.0235 H   0  0  0  0  0  0
  -28.0716  -31.8085   26.5323 H   0  0  0  0  0  0
  -28.2665  -38.0118   24.7578 H   0  0  0  0  0  0
  -28.1123  -36.2649   24.6292 H   0  0  0  0  0  0
  -27.2325  -37.1466   25.8875 H   0  0  0  0  0  0
  -20.9272  -29.8829   21.7080 H   0  0  0  0  0  0
  -26.0259  -38.2912   24.1354 H   0  0  0  0  0  0
  -25.6756  -24.0198   23.2977 H   0  0  0  0  0  0
  -25.6810  -21.5563   23.5424 H   0  0  0  0  0  0
  -27.4765  -16.9024   24.2343 H   0  0  0  0  0  0
  -31.6159  -18.0563   24.7616 H   0  0  0  0  0  0
  -28.1483  -15.1933   22.6578 H   0  0  0  0  0  0
  -32.3083  -16.2958   23.1850 H   0  0  0  0  0  0
  -27.8016  -24.3964   27.0458 H   0  0  0  0  0  0
  -30.4368  -17.9693   27.2324 H   0  0  0  0  0  0
  -29.6225  -19.4718   27.6048 H   0  0  0  0  0  0
  -30.9063  -19.4537   26.4046 H   0  0  0  0  0  0
  -28.3762  -24.1599   20.2075 H   0  0  0  0  0  0
  -26.8642  -24.6084   20.9916 H   0  0  0  0  0  0
  -28.1824  -23.8996   21.9314 H   0  0  0  0  0  0
  -30.2784  -26.2856   23.9583 H   0  0  0  0  0  0
  -29.6148  -25.7011   25.4765 H   0  0  0  0  0  0
  -29.3283  -27.3668   24.9815 H   0  0  0  0  0  0
  -28.5558  -21.1792   23.4543 H   0  0  0  0  0  0
  -28.2734  -19.4969   23.0497 H   0  0  0  0  0  0
  -29.8819  -20.0498   23.5438 H   0  0  0  0  0  0
  -27.1924  -26.3928   25.7601 H   0  0  0  0  0  0
  -26.0886  -26.2622   24.4309 H   0  0  0  0  0  0
  -26.4014  -19.5636   24.7244 H   0  0  0  0  0  0
  -26.7547  -19.7144   26.4336 H   0  0  0  0  0  0
  -26.8350  -26.7393   22.5095 H   0  0  0  0  0  0
  -28.2895  -27.6635   22.7785 H   0  0  0  0  0  0
  -28.2021  -18.0671   26.2276 H   0  0  0  0  0  0
  -29.5954  -25.8724   21.5460 H   0  0  0  0  0  0
  -30.2005  -13.6179   22.5152 H   0  0  0  0  0  0
  -28.3283  -24.9495   23.6543 H   0  0  0  0  0  0
  -28.9337  -20.5703   25.6917 H   0  0  0  0  0  0
  1 25  1  0  0  0
  1 30  2  0  0  0
  1 92  1  0  0  0
  2  3  1  0  0  0
  2 25  1  0  0  0
  2 96  1  0  0  0
  2 97  1  0  0  0
  3  4  1  0  0  0
  3 98  1  0  0  0
  3 99  1  0  0  0
  4  5  1  0  0  0
  4100  1  0  0  0
  4101  1  0  0  0
  5  6  1  0  0  0
  5 26  1  0  0  0
  5102  1  0  0  0
  6 25  1  0  0  0
  6103  1  0  0  0
  6104  1  0  0  0
  7  8  2  0  0  0
  7 26  1  0  0  0
  7 29  1  0  0  0
  8  9  1  0  0  0
  8 22  1  0  0  0
  9 10  1  0  0  0
  9 27  2  0  0  0
 10 11  2  0  0  0
 10 15  1  0  0  0
 11 12  1  0  0  0
 11105  1  0  0  0
 12 13  2  0  0  0
 12106  1  0  0  0
 13 14  1  0  0  0
 13 31  1  0  0  0
 14 15  2  0  0  0
 14107  1  0  0  0
 15108  1  0  0  0
 16 17  2  0  0  0
 16 21  1  0  0  0
 16 31  1  0  0  0
 17 18  1  0  0  0
 17109  1  0  0  0
 18 19  2  0  0  0
 18110  1  0  0  0
 19 20  1  0  0  0
 19 24  1  0  0  0
 20 21  2  0  0  0
 20111  1  0  0  0
 21 23  1  0  0  0
 22 28  1  0  0  0
 22 32  2  0  0  0
 26 27  1  0  0  0
 28112  1  0  0  0
 28113  1  0  0  0
 29114  1  0  0  0
 29115  1  0  0  0
 33 34  1  0  0  0
 33 66  1  0  0  0
 33 70  2  0  0  0
 34 36  1  0  0  0
 34 59  1  0  0  0
 34116  1  0  0  0
 35 44  2  0  0  0
 35 45  1  0  0  0
 35 68  1  0  0  0
 36 56  1  0  0  0
 36117  1  0  0  0
 37 39  1  0  0  0
 37 47  1  0  0  0
 37 66  1  0  0  0
 37118  1  0  0  0
 38 43  2  0  0  0
 38 46  1  0  0  0
 38 47  1  0  0  0
 39 64  1  0  0  0
 39 67  2  0  0  0
 40 52  1  0  0  0
 40 53  2  0  0  0
 40 58  1  0  0  0
 41119  1  0  0  0
 41120  1  0  0  0
 41121  1  0  0  0
 41 48  1  0  0  0
 42 43  1  0  0  0
 42 66  1  0  0  0
 42122  1  0  0  0
 42123  1  0  0  0
 43 44  1  0  0  0
 44124  1  0  0  0
 45 46  2  0  0  0
 45125  1  0  0  0
 46126  1  0  0  0
 47127  1  0  0  0
 47128  1  0  0  0
 48 56  1  0  0  0
 48 65  1  0  0  0
 48129  1  0  0  0
 49 50  1  0  0  0
 49 53  1  0  0  0
 49 64  1  0  0  0
 49130  1  0  0  0
 50 51  1  0  0  0
 50131  1  0  0  0
 50132  1  0  0  0
 51 52  1  0  0  0
 51133  1  0  0  0
 51134  1  0  0  0
 52135  1  0  0  0
 52136  1  0  0  0
 53 54  1  0  0  0
 54 55  2  0  0  0
 54137  1  0  0  0
 55 57  1  0  0  0
 55138  1  0  0  0
 56 69  2  0  0  0
 57 58  2  0  0  0
 57139  1  0  0  0
 58140  1  0  0  0
 59 60  1  0  0  0
 59 61  1  0  0  0
 59 62  1  0  0  0
 60141  1  0  0  0
 60142  1  0  0  0
 60143  1  0  0  0
 61144  1  0  0  0
 61145  1  0  0  0
 61146  1  0  0  0
 62147  1  0  0  0
 62148  1  0  0  0
 62149  1  0  0  0
 63 65  1  0  0  0
 63150  1  0  0  0
 63151  1  0  0  0
 63152  1  0  0  0
 64153  1  0  0  0
 65154  1  0  0  0
 68 91  1  0  0  0
 71 72  2  0  0  0
 71 79  1  0  0  0
 71155  1  0  0  0
 72 80  1  0  0  0
 72156  1  0  0  0
 73 75  2  0  0  0
 73 78  1  0  0  0
 73157  1  0  0  0
 74 76  1  0  0  0
 74 78  2  0  0  0
 74158  1  0  0  0
 75 81  1  0  0  0
 75159  1  0  0  0
 76 81  2  0  0  0
 76160  1  0  0  0
 77 79  2  0  0  0
 77 82  1  0  0  0
 77161  1  0  0  0
 78 90  1  0  0  0
 79 87  1  0  0  0
 80 82  2  0  0  0
 80 88  1  0  0  0
 81 92  1  0  0  0
 82 95  1  0  0  0
 83162  1  0  0  0
 83163  1  0  0  0
 83164  1  0  0  0
 83 90  1  0  0  0
 84165  1  0  0  0
 84166  1  0  0  0
 84167  1  0  0  0
 84 91  1  0  0  0
 85168  1  0  0  0
 85169  1  0  0  0
 85170  1  0  0  0
 85 93  1  0  0  0
 86171  1  0  0  0
 86172  1  0  0  0
 86173  1  0  0  0
 86 94  1  0  0  0
 87 93  1  0  0  0
 87174  1  0  0  0
 87175  1  0  0  0
 88 94  1  0  0  0
 88176  1  0  0  0
 88177  1  0  0  0
 89 91  1  0  0  0
 89 93  1  0  0  0
 89178  1  0  0  0
 89179  1  0  0  0
 90 94  1  0  0  0
 90180  1  0  0  0
 91181  1  0  0  0
 92182  1  0  0  0
 93183  1  0  0  0
 94184  1  0  0  0
M  CHG  2  93   1  94   1
M  ISO  4   1 100  68 101  91 101  92 100
M  END
> <chiral flag>
0

> <version>
0

> <s_m_source_file>
/data/baiqing/PycharmProjects/Reinvent-master-3.2/result/LINK_invent/BTK/process_docking_weight1_custom_product_contain_oxygen_bond_distance_aromatic_linkinvent_7_9_3/rearranged_h_0015.sdf

> <i_m_source_file_index>
25

> <r_mmod_Potential_Energy-OPLS-2005>
-239.538238525391

> <r_mmod_Stretch_Energy-OPLS-2005>
36.6757354736328

> <r_mmod_Bend_Energy-OPLS-2005>
112.369102478027

> <r_mmod_Torsional_Energy-OPLS-2005>
297.063018798828

> <r_mmod_Improper_Torsional_Energy-OPLS-2005>
15.6665382385254

> <r_mmod_Van_der_Waal_Energy-OPLS-2005>
169.759567260742

> <r_mmod_Electrostatic_Energy-OPLS-2005>
-35.7654838562012

> <r_mmod_Solvation_Energy-OPLS-2005>
-855.192016601562

> <b_mmod_Minimization_Converged-OPLS-2005>
0

> <r_mmod_RMS_Derivative-OPLS-2005>
3.41641306877136

$$$$
25
                    3D
 Structure written by MMmdl.
161169  0  0  1  0            999 V2000
  -30.8063  -14.4409   20.6560 C   0  0  0  0  0  0
  -30.3939  -12.3157   19.4563 C   0  0  0  0  0  0
  -29.4933  -12.5400   18.2247 C   0  0  0  0  0  0
  -28.0154  -12.3705   18.6153 C   0  0  0  0  0  0
  -27.6528  -13.2080   19.8680 C   0  0  2  0  0  0
  -28.6824  -12.9983   20.9982 C   0  0  0  0  0  0
  -25.2537  -13.8155   20.5658 C   0  0  0  0  0  0
  -24.1800  -13.0431   20.9135 C   0  0  0  0  0  0
  -24.6351  -11.6898   20.8676 C   0  0  0  0  0  0
  -23.9036  -10.4290   21.0364 C   0  0  0  0  0  0
  -24.3592   -9.4234   21.9160 C   0  0  0  0  0  0
  -23.6271   -8.2277   22.0762 C   0  0  0  0  0  0
  -22.4257   -8.0298   21.3546 C   0  0  0  0  0  0
  -21.9875   -9.0265   20.4650 C   0  0  0  0  0  0
  -22.7198  -10.2139   20.3039 C   0  0  0  0  0  0
  -21.6846   -6.0739   22.5280 C   0  0  0  0  0  0
  -21.4028   -6.5644   23.8216 C   0  0  0  0  0  0
  -21.3672   -5.6792   24.9171 C   0  0  0  0  0  0
  -21.6052   -4.3057   24.7216 C   0  0  0  0  0  0
  -21.8813   -3.8150   23.4334 C   0  0  0  0  0  0
  -21.9194   -4.6970   22.3396 C   0  0  0  0  0  0
  -22.7838  -13.5260   21.1830 C   0  0  0  0  0  0
  -22.1656   -4.2157   21.0972 F   0  0  0  0  0  0
  -21.5629   -3.4545   25.7730 F   0  0  0  0  0  0
  -30.0290  -13.3198   20.4819 N   0  0  0  0  0  0
  -26.2947  -12.9320   20.3270 N   0  0  0  0  0  0
  -25.9268  -11.6474   20.5675 N   0  0  0  0  0  0
  -22.0473  -12.8271   22.0393 N   0  0  0  0  0  0
  -25.4241  -15.1880   20.4165 N   0  0  0  0  0  0
  -31.8838  -14.5311   20.0528 O   0  0  0  0  0  0
  -21.6637   -6.8881   21.4240 O   0  0  0  0  0  0
  -22.3546  -14.5583   20.6694 O   0  0  0  0  0  0
  -24.6126  -31.8701   23.2104 C   0  0  0  0  0  0
  -25.9051  -32.4813   23.8400 C   0  0  1  0  0  0
  -27.2510  -27.4492   20.0950 C   0  0  0  0  0  0
  -25.5966  -33.8616   24.2346 N   0  0  0  0  0  0
  -23.3981  -30.4900   21.5485 C   0  0  2  0  0  0
  -24.8493  -28.9559   20.1187 C   0  0  0  0  0  0
  -22.7391  -29.4638   22.4989 C   0  0  0  0  0  0
  -18.0254  -28.1399   22.8496 C   0  0  0  0  0  0
  -24.1485  -36.7215   23.2643 C   0  0  0  0  0  0
  -25.9275  -30.8410   21.3604 C   0  0  0  0  0  0
  -26.0074  -29.4754   20.7070 C   0  0  0  0  0  0
  -27.2061  -28.7321   20.6879 C   0  0  0  0  0  0
  -26.0669  -26.9324   19.5180 C   0  0  0  0  0  0
  -24.8731  -27.6830   19.5241 C   0  0  0  0  0  0
  -23.6091  -29.8191   20.1631 C   0  0  0  0  0  0
  -25.4132  -36.3090   24.0339 C   0  0  1  0  0  0
  -20.5842  -28.3640   23.1346 C   0  0  2  0  0  0
  -20.6739  -26.9386   22.5414 C   0  0  0  0  0  0
  -19.5737  -26.6398   21.5204 C   0  0  0  0  0  0
  -18.1915  -26.7954   22.1614 C   0  0  0  0  0  0
  -19.1503  -28.8839   23.2909 C   0  0  0  0  0  0
  -18.9453  -30.1460   23.8895 C   0  0  0  0  0  0
  -17.6464  -30.6609   24.0580 C   0  0  0  0  0  0
  -25.9088  -34.9466   23.5126 C   0  0  0  0  0  0
  -16.5342  -29.9141   23.6332 C   0  0  0  0  0  0
  -16.7239  -28.6550   23.0345 C   0  0  0  0  0  0
  -26.4499  -31.6559   25.0715 C   0  0  0  0  0  0
  -25.3781  -31.3609   26.1463 C   0  0  0  0  0  0
  -27.0306  -30.3018   24.6058 C   0  0  0  0  0  0
  -27.6088  -32.4228   25.7512 C   0  0  0  0  0  0
  -27.5579  -37.1772   24.8505 C   0  0  0  0  0  0
  -21.4117  -29.2995   22.3747 N   0  0  0  0  0  0
  -26.4307  -37.3791   23.9435 N   0  0  0  0  0  0
  -24.6629  -31.0854   22.0965 N   0  0  0  0  0  0
  -23.4166  -28.8173   23.3023 O   0  0  0  0  0  0
  -28.4706  -26.7992   20.0946 O   0  0  0  0  0  0
  -26.5622  -34.8928   22.4668 O   0  0  0  0  0  0
  -23.5319  -32.1398   23.7535 O   0  0  0  0  0  0
  -30.3551  -18.7805   22.6159 C   0  0  0  0  0  0
  -29.9595  -18.8911   20.2265 C   0  0  0  0  0  0
  -29.8311  -20.0814   22.7618 C   0  0  0  0  0  0
  -29.4581  -20.2037   20.3721 C   0  0  0  0  0  0
  -30.4165  -18.1624   21.3494 C   0  0  0  0  0  0
  -29.3796  -20.8229   21.6444 C   0  0  0  0  0  0
  -27.8668  -22.2685   22.8739 C   0  0  0  0  0  0
  -29.6876  -15.4497   22.6520 C   0  0  0  0  0  0
  -31.1228  -16.8134   21.1668 C   0  0  0  0  0  0
  -28.6103  -24.5288   21.0262 C   0  0  0  0  0  0
  -28.8306  -23.0368   20.6670 C   0  0  0  0  0  0
  -28.5950  -25.4140   19.7657 C   0  0  0  0  0  0
  -28.8804  -22.1354   21.8249 N   0  0  0  0  0  0
  -30.3634  -15.5365   21.3509 N   0  0  0  0  0  0
  -31.4424  -12.3557   19.1590 H   0  0  0  0  0  0
  -30.2572  -11.3061   19.8494 H   0  0  0  0  0  0
  -29.7605  -11.8459   17.4269 H   0  0  0  0  0  0
  -29.6513  -13.5433   17.8228 H   0  0  0  0  0  0
  -27.8399  -11.3109   18.8084 H   0  0  0  0  0  0
  -27.3697  -12.6390   17.7778 H   0  0  0  0  0  0
  -27.6930  -14.2565   19.5726 H   0  0  0  0  0  0
  -28.6581  -11.9598   21.3338 H   0  0  0  0  0  0
  -28.3640  -13.5543   21.8690 H   0  0  0  0  0  0
  -25.2735   -9.5730   22.4723 H   0  0  0  0  0  0
  -23.9989   -7.4674   22.7481 H   0  0  0  0  0  0
  -21.0814   -8.8765   19.8956 H   0  0  0  0  0  0
  -22.3637  -10.9672   19.6147 H   0  0  0  0  0  0
  -21.2030   -7.6150   23.9720 H   0  0  0  0  0  0
  -21.1500   -6.0519   25.9072 H   0  0  0  0  0  0
  -22.0579   -2.7617   23.2825 H   0  0  0  0  0  0
  -22.4045  -11.9916   22.4769 H   0  0  0  0  0  0
  -21.1107  -13.1343   22.2595 H   0  0  0  0  0  0
  -24.6580  -15.8404   20.5457 H   0  0  0  0  0  0
  -26.2936  -15.6425   20.1644 H   0  0  0  0  0  0
  -26.7126  -32.5500   23.1163 H   0  0  0  0  0  0
  -25.0205  -33.9799   25.0558 H   0  0  0  0  0  0
  -22.6835  -31.3017   21.4047 H   0  0  0  0  0  0
  -23.3809  -35.9486   23.3377 H   0  0  0  0  0  0
  -24.3574  -36.8749   22.2045 H   0  0  0  0  0  0
  -23.7186  -37.6419   23.6595 H   0  0  0  0  0  0
  -26.0608  -31.6109   20.5985 H   0  0  0  0  0  0
  -26.8091  -30.8833   21.9857 H   0  0  0  0  0  0
  -28.1011  -29.1419   21.1325 H   0  0  0  0  0  0
  -26.0271  -25.9608   19.0518 H   0  0  0  0  0  0
  -23.9777  -27.2737   19.0767 H   0  0  0  0  0  0
  -23.7156  -30.5876   19.3975 H   0  0  0  0  0  0
  -22.7354  -29.2365   19.8651 H   0  0  0  0  0  0
  -25.1324  -36.1941   25.0833 H   0  0  0  0  0  0
  -20.9929  -28.3199   24.1469 H   0  0  0  0  0  0
  -20.5683  -26.2223   23.3574 H   0  0  0  0  0  0
  -21.6618  -26.7467   22.1208 H   0  0  0  0  0  0
  -19.6907  -25.6327   21.1213 H   0  0  0  0  0  0
  -19.6721  -27.3236   20.6760 H   0  0  0  0  0  0
  -17.4182  -26.6664   21.4016 H   0  0  0  0  0  0
  -18.0325  -26.0094   22.9013 H   0  0  0  0  0  0
  -19.7923  -30.7272   24.2255 H   0  0  0  0  0  0
  -17.5030  -31.6302   24.5183 H   0  0  0  0  0  0
  -15.5356  -30.3077   23.7672 H   0  0  0  0  0  0
  -15.8599  -28.0912   22.7064 H   0  0  0  0  0  0
  -24.5991  -30.6939   25.7787 H   0  0  0  0  0  0
  -24.8931  -32.2713   26.4962 H   0  0  0  0  0  0
  -25.8175  -30.8730   27.0170 H   0  0  0  0  0  0
  -26.2792  -29.6810   24.1166 H   0  0  0  0  0  0
  -27.4159  -29.7247   25.4476 H   0  0  0  0  0  0
  -27.8631  -30.4378   23.9156 H   0  0  0  0  0  0
  -27.2763  -33.3526   26.2145 H   0  0  0  0  0  0
  -28.3935  -32.6789   25.0379 H   0  0  0  0  0  0
  -28.0734  -31.8285   26.5410 H   0  0  0  0  0  0
  -28.2662  -38.0017   24.7568 H   0  0  0  0  0  0
  -28.1012  -36.2560   24.6325 H   0  0  0  0  0  0
  -27.2279  -37.1422   25.8907 H   0  0  0  0  0  0
  -20.9265  -29.8620   21.6898 H   0  0  0  0  0  0
  -26.0186  -38.2857   24.1474 H   0  0  0  0  0  0
  -30.7436  -18.2769   23.4888 H   0  0  0  0  0  0
  -30.0321  -18.4728   19.2321 H   0  0  0  0  0  0
  -29.8052  -20.5196   23.7487 H   0  0  0  0  0  0
  -29.1396  -20.7236   19.4822 H   0  0  0  0  0  0
  -27.4389  -21.3103   23.1725 H   0  0  0  0  0  0
  -27.0316  -22.8851   22.5437 H   0  0  0  0  0  0
  -28.2963  -22.7425   23.7559 H   0  0  0  0  0  0
  -29.8628  -14.4913   23.1442 H   0  0  0  0  0  0
  -28.6157  -15.6159   22.5369 H   0  0  0  0  0  0
  -30.0415  -16.1980   23.3540 H   0  0  0  0  0  0
  -31.9780  -16.7963   21.8453 H   0  0  0  0  0  0
  -31.5529  -16.8680   20.1636 H   0  0  0  0  0  0
  -29.4025  -24.8670   21.6973 H   0  0  0  0  0  0
  -27.6734  -24.6751   21.5629 H   0  0  0  0  0  0
  -29.7715  -22.9527   20.1178 H   0  0  0  0  0  0
  -28.0473  -22.7043   19.9844 H   0  0  0  0  0  0
  -27.8687  -25.0565   19.0387 H   0  0  0  0  0  0
  -29.5583  -25.3080   19.2670 H   0  0  0  0  0  0
  1 25  1  0  0  0
  1 30  2  0  0  0
  1 84  1  0  0  0
  2  3  1  0  0  0
  2 25  1  0  0  0
  2 85  1  0  0  0
  2 86  1  0  0  0
  3  4  1  0  0  0
  3 87  1  0  0  0
  3 88  1  0  0  0
  4  5  1  0  0  0
  4 89  1  0  0  0
  4 90  1  0  0  0
  5  6  1  0  0  0
  5 26  1  0  0  0
  5 91  1  0  0  0
  6 25  1  0  0  0
  6 92  1  0  0  0
  6 93  1  0  0  0
  7  8  2  0  0  0
  7 26  1  0  0  0
  7 29  1  0  0  0
  8  9  1  0  0  0
  8 22  1  0  0  0
  9 10  1  0  0  0
  9 27  2  0  0  0
 10 11  2  0  0  0
 10 15  1  0  0  0
 11 12  1  0  0  0
 11 94  1  0  0  0
 12 13  2  0  0  0
 12 95  1  0  0  0
 13 14  1  0  0  0
 13 31  1  0  0  0
 14 15  2  0  0  0
 14 96  1  0  0  0
 15 97  1  0  0  0
 16 17  2  0  0  0
 16 21  1  0  0  0
 16 31  1  0  0  0
 17 18  1  0  0  0
 17 98  1  0  0  0
 18 19  2  0  0  0
 18 99  1  0  0  0
 19 20  1  0  0  0
 19 24  1  0  0  0
 20 21  2  0  0  0
 20100  1  0  0  0
 21 23  1  0  0  0
 22 28  1  0  0  0
 22 32  2  0  0  0
 26 27  1  0  0  0
 28101  1  0  0  0
 28102  1  0  0  0
 29103  1  0  0  0
 29104  1  0  0  0
 33 34  1  0  0  0
 33 66  1  0  0  0
 33 70  2  0  0  0
 34 36  1  0  0  0
 34 59  1  0  0  0
 34105  1  0  0  0
 35 44  2  0  0  0
 35 45  1  0  0  0
 35 68  1  0  0  0
 36 56  1  0  0  0
 36106  1  0  0  0
 37 39  1  0  0  0
 37 47  1  0  0  0
 37 66  1  0  0  0
 37107  1  0  0  0
 38 43  2  0  0  0
 38 46  1  0  0  0
 38 47  1  0  0  0
 39 64  1  0  0  0
 39 67  2  0  0  0
 40 52  1  0  0  0
 40 53  2  0  0  0
 40 58  1  0  0  0
 41108  1  0  0  0
 41109  1  0  0  0
 41110  1  0  0  0
 41 48  1  0  0  0
 42 43  1  0  0  0
 42 66  1  0  0  0
 42111  1  0  0  0
 42112  1  0  0  0
 43 44  1  0  0  0
 44113  1  0  0  0
 45 46  2  0  0  0
 45114  1  0  0  0
 46115  1  0  0  0
 47116  1  0  0  0
 47117  1  0  0  0
 48 56  1  0  0  0
 48 65  1  0  0  0
 48118  1  0  0  0
 49 50  1  0  0  0
 49 53  1  0  0  0
 49 64  1  0  0  0
 49119  1  0  0  0
 50 51  1  0  0  0
 50120  1  0  0  0
 50121  1  0  0  0
 51 52  1  0  0  0
 51122  1  0  0  0
 51123  1  0  0  0
 52124  1  0  0  0
 52125  1  0  0  0
 53 54  1  0  0  0
 54 55  2  0  0  0
 54126  1  0  0  0
 55 57  1  0  0  0
 55127  1  0  0  0
 56 69  2  0  0  0
 57 58  2  0  0  0
 57128  1  0  0  0
 58129  1  0  0  0
 59 60  1  0  0  0
 59 61  1  0  0  0
 59 62  1  0  0  0
 60130  1  0  0  0
 60131  1  0  0  0
 60132  1  0  0  0
 61133  1  0  0  0
 61134  1  0  0  0
 61135  1  0  0  0
 62136  1  0  0  0
 62137  1  0  0  0
 62138  1  0  0  0
 63 65  1  0  0  0
 63139  1  0  0  0
 63140  1  0  0  0
 63141  1  0  0  0
 64142  1  0  0  0
 65143  1  0  0  0
 68 82  1  0  0  0
 71 73  2  0  0  0
 71 75  1  0  0  0
 71144  1  0  0  0
 72 74  1  0  0  0
 72 75  2  0  0  0
 72145  1  0  0  0
 73 76  1  0  0  0
 73146  1  0  0  0
 74 76  2  0  0  0
 74147  1  0  0  0
 75 79  1  0  0  0
 76 83  1  0  0  0
 77 83  1  0  0  0
 77148  1  0  0  0
 77149  1  0  0  0
 77150  1  0  0  0
 78 84  1  0  0  0
 78151  1  0  0  0
 78152  1  0  0  0
 78153  1  0  0  0
 79 84  1  0  0  0
 79154  1  0  0  0
 79155  1  0  0  0
 80 81  1  0  0  0
 80 82  1  0  0  0
 80156  1  0  0  0
 80157  1  0  0  0
 81 83  1  0  0  0
 81158  1  0  0  0
 81159  1  0  0  0
 82160  1  0  0  0
 82161  1  0  0  0
M  ISO  4   1 100  68 101  82 101  84 100
M  END
> <chiral flag>
0

> <version>
0

> <s_m_source_file>
/data/baiqing/PycharmProjects/Reinvent-master-3.2/result/LINK_invent/BTK/process_docking_weight1_custom_product_contain_oxygen_bond_distance_aromatic_linkinvent_7_9_3/rearranged_h_0015.sdf

> <i_m_source_file_index>
26

> <r_mmod_Potential_Energy-OPLS-2005>
100.385414123535

> <r_mmod_Stretch_Energy-OPLS-2005>
46.212100982666

> <r_mmod_Bend_Energy-OPLS-2005>
142.126251220703

> <r_mmod_Torsional_Energy-OPLS-2005>
238.704498291016

> <r_mmod_Improper_Torsional_Energy-OPLS-2005>
7.92415904998779

> <r_mmod_Van_der_Waal_Energy-OPLS-2005>
180.791030883789

> <r_mmod_Electrostatic_Energy-OPLS-2005>
-317.921661376953

> <r_mmod_Solvation_Energy-OPLS-2005>
-212.284820556641

> <b_mmod_Minimization_Converged-OPLS-2005>
0

> <r_mmod_RMS_Derivative-OPLS-2005>
4.60344171524048

$$$$
26
                    3D
 Structure written by MMmdl.
159167  0  0  1  0            999 V2000
  -30.6118  -14.7219   20.3594 C   0  0  0  0  0  0
  -30.4359  -12.4009   19.4783 C   0  0  0  0  0  0
  -29.5120  -12.3776   18.2394 C   0  0  0  0  0  0
  -28.0302  -12.2865   18.6549 C   0  0  0  0  0  0
  -27.6376  -13.2158   19.8365 C   0  0  2  0  0  0
  -28.6883  -13.1892   20.9669 C   0  0  0  0  0  0
  -25.2504  -13.8177   20.5669 C   0  0  0  0  0  0
  -24.1784  -13.0448   20.9235 C   0  0  0  0  0  0
  -24.6342  -11.6920   20.8787 C   0  0  0  0  0  0
  -23.9018  -10.4295   21.0429 C   0  0  0  0  0  0
  -24.3590   -9.4218   21.9195 C   0  0  0  0  0  0
  -23.6304   -8.2234   22.0740 C   0  0  0  0  0  0
  -22.4291   -8.0256   21.3532 C   0  0  0  0  0  0
  -21.9922   -9.0215   20.4642 C   0  0  0  0  0  0
  -22.7197  -10.2127   20.3063 C   0  0  0  0  0  0
  -21.6846   -6.0740   22.5282 C   0  0  0  0  0  0
  -21.4004   -6.5647   23.8219 C   0  0  0  0  0  0
  -21.3674   -5.6788   24.9177 C   0  0  0  0  0  0
  -21.6068   -4.3052   24.7214 C   0  0  0  0  0  0
  -21.8809   -3.8152   23.4326 C   0  0  0  0  0  0
  -21.9182   -4.6978   22.3393 C   0  0  0  0  0  0
  -22.7806  -13.5237   21.1870 C   0  0  0  0  0  0
  -22.1639   -4.2181   21.0972 F   0  0  0  0  0  0
  -21.5675   -3.4528   25.7719 F   0  0  0  0  0  0
  -29.9833  -13.5015   20.3526 N   0  0  0  0  0  0
  -26.2914  -12.9348   20.3251 N   0  0  0  0  0  0
  -25.9259  -11.6519   20.5776 N   0  0  0  0  0  0
  -22.0419  -12.8270   22.0447 N   0  0  0  0  0  0
  -25.4188  -15.1902   20.4019 N   0  0  0  0  0  0
  -31.8426  -14.7821   20.2704 O   0  0  0  0  0  0
  -21.6643   -6.8865   21.4232 O   0  0  0  0  0  0
  -22.3486  -14.5495   20.6621 O   0  0  0  0  0  0
  -24.6256  -31.8582   23.2020 C   0  0  0  0  0  0
  -25.9120  -32.4757   23.8346 C   0  0  1  0  0  0
  -27.2323  -27.3303   20.1234 C   0  0  0  0  0  0
  -25.5936  -33.8562   24.2278 N   0  0  0  0  0  0
  -23.4174  -30.4822   21.5413 C   0  0  2  0  0  0
  -24.8641  -28.9315   20.1092 C   0  0  0  0  0  0
  -22.7462  -29.4613   22.4905 C   0  0  0  0  0  0
  -18.0297  -28.1360   22.8503 C   0  0  0  0  0  0
  -24.1488  -36.7298   23.2642 C   0  0  0  0  0  0
  -25.9550  -30.7916   21.3718 C   0  0  0  0  0  0
  -26.0278  -29.4208   20.7137 C   0  0  0  0  0  0
  -27.2099  -28.6314   20.7094 C   0  0  0  0  0  0
  -26.0415  -26.8746   19.5120 C   0  0  0  0  0  0
  -24.8721  -27.6651   19.5010 C   0  0  0  0  0  0
  -23.6323  -29.8151   20.1563 C   0  0  0  0  0  0
  -25.4102  -36.3067   24.0340 C   0  0  1  0  0  0
  -20.5904  -28.3675   23.1284 C   0  0  2  0  0  0
  -20.6783  -26.9398   22.5412 C   0  0  0  0  0  0
  -19.5752  -26.6376   21.5213 C   0  0  0  0  0  0
  -18.1934  -26.7920   22.1624 C   0  0  0  0  0  0
  -19.1555  -28.8833   23.2897 C   0  0  0  0  0  0
  -18.9469  -30.1435   23.8904 C   0  0  0  0  0  0
  -17.6468  -30.6576   24.0556 C   0  0  0  0  0  0
  -25.9040  -34.9439   23.5113 C   0  0  0  0  0  0
  -16.5360  -29.9065   23.6330 C   0  0  0  0  0  0
  -16.7283  -28.6476   23.0371 C   0  0  0  0  0  0
  -26.4529  -31.6573   25.0723 C   0  0  0  0  0  0
  -25.3778  -31.3733   26.1468 C   0  0  0  0  0  0
  -27.0386  -30.2984   24.6212 C   0  0  0  0  0  0
  -27.6043  -32.4350   25.7507 C   0  0  0  0  0  0
  -27.5582  -37.1798   24.8466 C   0  0  0  0  0  0
  -21.4176  -29.3032   22.3656 N   0  0  0  0  0  0
  -26.4279  -37.3759   23.9421 N   0  0  0  0  0  0
  -24.6837  -31.0625   22.0947 N   0  0  0  0  0  0
  -23.4190  -28.8156   23.2983 O   0  0  0  0  0  0
  -28.3953  -26.5553   20.1872 O   0  0  0  0  0  0
  -26.5597  -34.8916   22.4667 O   0  0  0  0  0  0
  -23.5437  -32.1357   23.7395 O   0  0  0  0  0  0
  -30.1492  -19.5819   19.8550 C   0  0  0  0  0  0
  -28.1395  -18.9401   20.9987 C   0  0  0  0  0  0
  -30.5528  -18.2112   19.8249 C   0  0  0  0  0  0
  -28.5323  -17.5677   20.9490 C   0  0  0  0  0  0
  -28.9003  -19.9852   20.3997 C   0  0  0  0  0  0
  -29.7243  -17.1532   20.3050 C   0  0  0  0  0  0
  -29.8216  -15.7385   18.3423 C   0  0  0  0  0  0
  -29.7023  -22.4779   21.9444 C   0  0  0  0  0  0
  -28.2765  -21.4315   20.2004 C   0  0  0  0  0  0
  -28.1379  -23.9773   20.7063 C   0  0  0  0  0  0
  -28.4992  -25.1620   19.7104 C   0  0  0  0  0  0
  -29.8767  -15.7718   19.8195 N   0  0  0  0  0  0
  -28.9851  -22.6953   20.6630 N   0  3  1  0  0  0
  -31.4765  -12.5278   19.1775 H   0  0  0  0  0  0
  -30.3853  -11.4482   20.0073 H   0  0  0  0  0  0
  -29.7680  -11.5199   17.6168 H   0  0  0  0  0  0
  -29.6828  -13.2366   17.5985 H   0  0  0  0  0  0
  -27.8586  -11.2501   18.9456 H   0  0  0  0  0  0
  -27.3819  -12.4688   17.7974 H   0  0  0  0  0  0
  -27.6083  -14.2257   19.4334 H   0  0  0  0  0  0
  -28.7187  -12.2152   21.4574 H   0  0  0  0  0  0
  -28.4434  -13.9243   21.7372 H   0  0  0  0  0  0
  -25.2699   -9.5766   22.4799 H   0  0  0  0  0  0
  -24.0050   -7.4642   22.7450 H   0  0  0  0  0  0
  -21.0860   -8.8691   19.8938 H   0  0  0  0  0  0
  -22.3595  -10.9668   19.6207 H   0  0  0  0  0  0
  -21.1962   -7.6150   23.9726 H   0  0  0  0  0  0
  -21.1524   -6.0516   25.9092 H   0  0  0  0  0  0
  -22.0574   -2.7623   23.2784 H   0  0  0  0  0  0
  -22.3968  -11.9959   22.4928 H   0  0  0  0  0  0
  -21.0996  -13.1267   22.2529 H   0  0  0  0  0  0
  -24.6447  -15.8355   20.5097 H   0  0  0  0  0  0
  -26.2506  -15.6247   20.0233 H   0  0  0  0  0  0
  -26.7187  -32.5432   23.1091 H   0  0  0  0  0  0
  -25.0134  -33.9698   25.0463 H   0  0  0  0  0  0
  -22.7117  -31.3035   21.3987 H   0  0  0  0  0  0
  -23.3751  -35.9633   23.3290 H   0  0  0  0  0  0
  -24.3576  -36.8922   22.2059 H   0  0  0  0  0  0
  -23.7254  -37.6504   23.6665 H   0  0  0  0  0  0
  -26.0973  -31.5593   20.6098 H   0  0  0  0  0  0
  -26.8303  -30.8312   22.0079 H   0  0  0  0  0  0
  -28.1033  -29.0078   21.1878 H   0  0  0  0  0  0
  -25.9863  -25.8986   19.0542 H   0  0  0  0  0  0
  -23.9730  -27.2841   19.0334 H   0  0  0  0  0  0
  -23.7567  -30.5922   19.4003 H   0  0  0  0  0  0
  -22.7502  -29.2495   19.8493 H   0  0  0  0  0  0
  -25.1279  -36.1905   25.0832 H   0  0  0  0  0  0
  -21.0009  -28.3259   24.1399 H   0  0  0  0  0  0
  -20.5696  -26.2278   23.3605 H   0  0  0  0  0  0
  -21.6644  -26.7417   22.1189 H   0  0  0  0  0  0
  -19.6918  -25.6292   21.1221 H   0  0  0  0  0  0
  -19.6705  -27.3207   20.6760 H   0  0  0  0  0  0
  -17.4213  -26.6713   21.4012 H   0  0  0  0  0  0
  -18.0307  -26.0029   22.8982 H   0  0  0  0  0  0
  -19.7942  -30.7255   24.2282 H   0  0  0  0  0  0
  -17.5020  -31.6258   24.5153 H   0  0  0  0  0  0
  -15.5367  -30.2968   23.7650 H   0  0  0  0  0  0
  -15.8676  -28.0779   22.7104 H   0  0  0  0  0  0
  -24.5902  -30.7131   25.7828 H   0  0  0  0  0  0
  -24.9067  -32.2931   26.4941 H   0  0  0  0  0  0
  -25.8132  -30.8873   27.0211 H   0  0  0  0  0  0
  -26.2968  -29.6692   24.1277 H   0  0  0  0  0  0
  -27.4111  -29.7281   25.4741 H   0  0  0  0  0  0
  -27.8831  -30.4255   23.9424 H   0  0  0  0  0  0
  -27.2571  -33.3610   26.2104 H   0  0  0  0  0  0
  -28.3846  -32.6984   25.0352 H   0  0  0  0  0  0
  -28.0730  -31.8490   26.5422 H   0  0  0  0  0  0
  -28.2580  -38.0109   24.7494 H   0  0  0  0  0  0
  -28.1090  -36.2638   24.6289 H   0  0  0  0  0  0
  -27.2306  -37.1439   25.8868 H   0  0  0  0  0  0
  -20.9340  -29.8743   21.6861 H   0  0  0  0  0  0
  -26.0169  -38.2839   24.1403 H   0  0  0  0  0  0
  -30.7762  -20.3166   19.3723 H   0  0  0  0  0  0
  -27.1759  -19.1687   21.4330 H   0  0  0  0  0  0
  -31.4675  -17.9668   19.3022 H   0  0  0  0  0  0
  -27.8430  -16.8215   21.3185 H   0  0  0  0  0  0
  -28.8968  -15.2780   18.0017 H   0  0  0  0  0  0
  -30.6630  -15.2029   17.8962 H   0  0  0  0  0  0
  -29.8286  -16.7240   17.8788 H   0  0  0  0  0  0
  -29.0089  -22.2267   22.7503 H   0  0  0  0  0  0
  -30.2553  -23.3714   22.2369 H   0  0  0  0  0  0
  -30.4333  -21.6713   21.8647 H   0  0  0  0  0  0
  -27.2962  -21.4163   20.6771 H   0  0  0  0  0  0
  -28.0653  -21.5524   19.1369 H   0  0  0  0  0  0
  -27.0813  -23.7339   20.5910 H   0  0  0  0  0  0
  -28.2023  -24.3978   21.7112 H   0  0  0  0  0  0
  -27.9791  -25.0351   18.7595 H   0  0  0  0  0  0
  -29.5524  -25.0531   19.4459 H   0  0  0  0  0  0
  -29.7127  -22.8516   19.9806 H   0  0  0  0  0  0
  1 25  1  0  0  0
  1 30  2  0  0  0
  1 82  1  0  0  0
  2  3  1  0  0  0
  2 25  1  0  0  0
  2 84  1  0  0  0
  2 85  1  0  0  0
  3  4  1  0  0  0
  3 86  1  0  0  0
  3 87  1  0  0  0
  4  5  1  0  0  0
  4 88  1  0  0  0
  4 89  1  0  0  0
  5  6  1  0  0  0
  5 26  1  0  0  0
  5 90  1  0  0  0
  6 25  1  0  0  0
  6 91  1  0  0  0
  6 92  1  0  0  0
  7  8  2  0  0  0
  7 26  1  0  0  0
  7 29  1  0  0  0
  8  9  1  0  0  0
  8 22  1  0  0  0
  9 10  1  0  0  0
  9 27  2  0  0  0
 10 11  2  0  0  0
 10 15  1  0  0  0
 11 12  1  0  0  0
 11 93  1  0  0  0
 12 13  2  0  0  0
 12 94  1  0  0  0
 13 14  1  0  0  0
 13 31  1  0  0  0
 14 15  2  0  0  0
 14 95  1  0  0  0
 15 96  1  0  0  0
 16 17  2  0  0  0
 16 21  1  0  0  0
 16 31  1  0  0  0
 17 18  1  0  0  0
 17 97  1  0  0  0
 18 19  2  0  0  0
 18 98  1  0  0  0
 19 20  1  0  0  0
 19 24  1  0  0  0
 20 21  2  0  0  0
 20 99  1  0  0  0
 21 23  1  0  0  0
 22 28  1  0  0  0
 22 32  2  0  0  0
 26 27  1  0  0  0
 28100  1  0  0  0
 28101  1  0  0  0
 29102  1  0  0  0
 29103  1  0  0  0
 33 34  1  0  0  0
 33 66  1  0  0  0
 33 70  2  0  0  0
 34 36  1  0  0  0
 34 59  1  0  0  0
 34104  1  0  0  0
 35 44  2  0  0  0
 35 45  1  0  0  0
 35 68  1  0  0  0
 36 56  1  0  0  0
 36105  1  0  0  0
 37 39  1  0  0  0
 37 47  1  0  0  0
 37 66  1  0  0  0
 37106  1  0  0  0
 38 43  2  0  0  0
 38 46  1  0  0  0
 38 47  1  0  0  0
 39 64  1  0  0  0
 39 67  2  0  0  0
 40 52  1  0  0  0
 40 53  2  0  0  0
 40 58  1  0  0  0
 41107  1  0  0  0
 41108  1  0  0  0
 41109  1  0  0  0
 41 48  1  0  0  0
 42 43  1  0  0  0
 42 66  1  0  0  0
 42110  1  0  0  0
 42111  1  0  0  0
 43 44  1  0  0  0
 44112  1  0  0  0
 45 46  2  0  0  0
 45113  1  0  0  0
 46114  1  0  0  0
 47115  1  0  0  0
 47116  1  0  0  0
 48 56  1  0  0  0
 48 65  1  0  0  0
 48117  1  0  0  0
 49 50  1  0  0  0
 49 53  1  0  0  0
 49 64  1  0  0  0
 49118  1  0  0  0
 50 51  1  0  0  0
 50119  1  0  0  0
 50120  1  0  0  0
 51 52  1  0  0  0
 51121  1  0  0  0
 51122  1  0  0  0
 52123  1  0  0  0
 52124  1  0  0  0
 53 54  1  0  0  0
 54 55  2  0  0  0
 54125  1  0  0  0
 55 57  1  0  0  0
 55126  1  0  0  0
 56 69  2  0  0  0
 57 58  2  0  0  0
 57127  1  0  0  0
 58128  1  0  0  0
 59 60  1  0  0  0
 59 61  1  0  0  0
 59 62  1  0  0  0
 60129  1  0  0  0
 60130  1  0  0  0
 60131  1  0  0  0
 61132  1  0  0  0
 61133  1  0  0  0
 61134  1  0  0  0
 62135  1  0  0  0
 62136  1  0  0  0
 62137  1  0  0  0
 63 65  1  0  0  0
 63138  1  0  0  0
 63139  1  0  0  0
 63140  1  0  0  0
 64141  1  0  0  0
 65142  1  0  0  0
 68 81  1  0  0  0
 71 73  2  0  0  0
 71 75  1  0  0  0
 71143  1  0  0  0
 72 74  1  0  0  0
 72 75  2  0  0  0
 72144  1  0  0  0
 73 76  1  0  0  0
 73145  1  0  0  0
 74 76  2  0  0  0
 74146  1  0  0  0
 75 79  1  0  0  0
 76 82  1  0  0  0
 77 82  1  0  0  0
 77147  1  0  0  0
 77148  1  0  0  0
 77149  1  0  0  0
 78150  1  0  0  0
 78151  1  0  0  0
 78152  1  0  0  0
 78 83  1  0  0  0
 79 83  1  0  0  0
 79153  1  0  0  0
 79154  1  0  0  0
 80 81  1  0  0  0
 80 83  1  0  0  0
 80155  1  0  0  0
 80156  1  0  0  0
 81157  1  0  0  0
 81158  1  0  0  0
 83159  1  0  0  0
M  CHG  1  83   1
M  ISO  4   1 100  68 101  81 101  82 100
M  END
> <chiral flag>
0

> <version>
0

> <s_m_source_file>
/data/baiqing/PycharmProjects/Reinvent-master-3.2/result/LINK_invent/BTK/process_docking_weight1_custom_product_contain_oxygen_bond_distance_aromatic_linkinvent_7_9_3/rearranged_h_0015.sdf

> <i_m_source_file_index>
27

> <r_mmod_Potential_Energy-OPLS-2005>
247.882232666016

> <r_mmod_Stretch_Energy-OPLS-2005>
86.8487396240234

> <r_mmod_Bend_Energy-OPLS-2005>
166.138732910156

> <r_mmod_Torsional_Energy-OPLS-2005>
345.793884277344

> <r_mmod_Improper_Torsional_Energy-OPLS-2005>
30.5632781982422

> <r_mmod_Van_der_Waal_Energy-OPLS-2005>
143.232284545898

> <r_mmod_Electrostatic_Energy-OPLS-2005>
-172.726577758789

> <r_mmod_Solvation_Energy-OPLS-2005>
-427.340942382812

> <b_mmod_Minimization_Converged-OPLS-2005>
0

> <r_mmod_RMS_Derivative-OPLS-2005>
3.28161954879761

$$$$
27
                    3D
 Structure written by MMmdl.
162170  0  0  1  0            999 V2000
  -30.7803  -14.4462   20.6650 C   0  0  0  0  0  0
  -30.4042  -12.3280   19.4317 C   0  0  0  0  0  0
  -29.4870  -12.5153   18.2058 C   0  0  0  0  0  0
  -28.0078  -12.3825   18.6092 C   0  0  0  0  0  0
  -27.6501  -13.2232   19.8589 C   0  0  2  0  0  0
  -28.6813  -13.0353   20.9874 C   0  0  0  0  0  0
  -25.2556  -13.8206   20.5622 C   0  0  0  0  0  0
  -24.1862  -13.0490   20.9196 C   0  0  0  0  0  0
  -24.6391  -11.6925   20.8747 C   0  0  0  0  0  0
  -23.9111  -10.4285   21.0347 C   0  0  0  0  0  0
  -24.3650   -9.4216   21.9155 C   0  0  0  0  0  0
  -23.6336   -8.2233   22.0717 C   0  0  0  0  0  0
  -22.4302   -8.0289   21.3534 C   0  0  0  0  0  0
  -21.9940   -9.0243   20.4622 C   0  0  0  0  0  0
  -22.7242  -10.2123   20.3031 C   0  0  0  0  0  0
  -21.6898   -6.0738   22.5286 C   0  0  0  0  0  0
  -21.4012   -6.5643   23.8224 C   0  0  0  0  0  0
  -21.3669   -5.6766   24.9179 C   0  0  0  0  0  0
  -21.6038   -4.3029   24.7199 C   0  0  0  0  0  0
  -21.8847   -3.8146   23.4335 C   0  0  0  0  0  0
  -21.9211   -4.6978   22.3389 C   0  0  0  0  0  0
  -22.7861  -13.5215   21.1886 C   0  0  0  0  0  0
  -22.1684   -4.2149   21.0975 F   0  0  0  0  0  0
  -21.5630   -3.4520   25.7729 F   0  0  0  0  0  0
  -30.0319  -13.3168   20.4617 N   0  0  0  0  0  0
  -26.2971  -12.9398   20.3237 N   0  0  0  0  0  0
  -25.9317  -11.6554   20.5721 N   0  0  0  0  0  0
  -22.0559  -12.8150   22.0455 N   0  0  0  0  0  0
  -25.4311  -15.1929   20.3974 N   0  0  0  0  0  0
  -31.8248  -14.6518   20.0401 O   0  0  0  0  0  0
  -21.6683   -6.8876   21.4233 O   0  0  0  0  0  0
  -22.3455  -14.5491   20.6732 O   0  0  0  0  0  0
  -24.6077  -31.8760   23.2169 C   0  0  0  0  0  0
  -25.8971  -32.4893   23.8464 C   0  0  1  0  0  0
  -27.2231  -27.4575   20.0864 C   0  0  0  0  0  0
  -25.5836  -33.8688   24.2380 N   0  0  0  0  0  0
  -23.3983  -30.5016   21.5631 C   0  0  2  0  0  0
  -24.8417  -28.9824   20.1173 C   0  0  0  0  0  0
  -22.7392  -29.4711   22.5055 C   0  0  0  0  0  0
  -18.0277  -28.1393   22.8494 C   0  0  0  0  0  0
  -24.1447  -36.7375   23.2652 C   0  0  0  0  0  0
  -25.9312  -30.8543   21.3619 C   0  0  0  0  0  0
  -26.0114  -29.5019   20.6841 C   0  0  0  0  0  0
  -27.2141  -28.7550   20.6488 C   0  0  0  0  0  0
  -26.0317  -26.9689   19.5021 C   0  0  0  0  0  0
  -24.8467  -27.7126   19.5294 C   0  0  0  0  0  0
  -23.5971  -29.8342   20.1808 C   0  0  0  0  0  0
  -25.4069  -36.3179   24.0329 C   0  0  1  0  0  0
  -20.5852  -28.3684   23.1288 C   0  0  2  0  0  0
  -20.6769  -26.9422   22.5403 C   0  0  0  0  0  0
  -19.5747  -26.6377   21.5215 C   0  0  0  0  0  0
  -18.1922  -26.7925   22.1632 C   0  0  0  0  0  0
  -19.1525  -28.8847   23.2903 C   0  0  0  0  0  0
  -18.9459  -30.1455   23.8921 C   0  0  0  0  0  0
  -17.6467  -30.6613   24.0536 C   0  0  0  0  0  0
  -25.8985  -34.9519   23.5170 C   0  0  0  0  0  0
  -16.5350  -29.9091   23.6364 C   0  0  0  0  0  0
  -16.7263  -28.6494   23.0394 C   0  0  0  0  0  0
  -26.4371  -31.6733   25.0845 C   0  0  0  0  0  0
  -25.3642  -31.3799   26.1627 C   0  0  0  0  0  0
  -27.0250  -30.3167   24.6307 C   0  0  0  0  0  0
  -27.5980  -32.4501   25.7532 C   0  0  0  0  0  0
  -27.5576  -37.1826   24.8447 C   0  0  0  0  0  0
  -21.4127  -29.3061   22.3722 N   0  0  0  0  0  0
  -26.4290  -37.3850   23.9396 N   0  0  0  0  0  0
  -24.6683  -31.0828   22.1104 N   0  0  0  0  0  0
  -23.4100  -28.8264   23.3120 O   0  0  0  0  0  0
  -28.3460  -26.6523   20.1663 O   0  0  0  0  0  0
  -26.5583  -34.8929   22.4739 O   0  0  0  0  0  0
  -23.5271  -32.1475   23.7599 O   0  0  0  0  0  0
  -30.5542  -19.1997   21.7476 C   0  0  0  0  0  0
  -30.0037  -17.2241   19.8527 C   0  0  0  0  0  0
  -30.3226  -19.5937   20.4136 C   0  0  0  0  0  0
  -30.2927  -16.8045   21.1818 C   0  0  0  0  0  0
  -30.5670  -17.8398   22.1302 C   0  0  0  0  0  0
  -30.0219  -18.5869   19.4673 C   0  0  0  0  0  0
  -30.3412  -14.9865   22.9586 C   0  0  0  0  0  0
  -28.4238  -21.7079   18.9700 C   0  0  0  0  0  0
  -30.5771  -21.0556   19.9918 C   0  0  0  0  0  0
  -29.1658  -24.3961   20.9779 C   0  0  0  0  0  0
  -29.8854  -23.4429   19.9841 C   0  0  0  0  0  0
  -28.0371  -25.2635   20.3771 C   0  0  0  0  0  0
  -30.3234  -15.3842   21.5383 N   0  0  0  0  0  0
  -29.4256  -22.0088   20.0313 N   0  3  1  0  0  0
  -30.8991  -17.5714   23.4150 F   0  0  0  0  0  0
  -29.7793  -18.9220   18.1752 F   0  0  0  0  0  0
  -31.4514  -12.4057   19.1321 H   0  0  0  0  0  0
  -30.2923  -11.3201   19.8366 H   0  0  0  0  0  0
  -29.7271  -11.7795   17.4376 H   0  0  0  0  0  0
  -29.6561  -13.4932   17.7594 H   0  0  0  0  0  0
  -27.8083  -11.3280   18.7974 H   0  0  0  0  0  0
  -27.3645  -12.6647   17.7749 H   0  0  0  0  0  0
  -27.6883  -14.2669   19.5545 H   0  0  0  0  0  0
  -28.6494  -12.0201   21.3828 H   0  0  0  0  0  0
  -28.3994  -13.6844   21.8150 H   0  0  0  0  0  0
  -25.2816   -9.5712   22.4697 H   0  0  0  0  0  0
  -24.0088   -7.4639   22.7429 H   0  0  0  0  0  0
  -21.0860   -8.8748   19.8944 H   0  0  0  0  0  0
  -22.3703  -10.9656   19.6118 H   0  0  0  0  0  0
  -21.2017   -7.6147   23.9723 H   0  0  0  0  0  0
  -21.1460   -6.0494   25.9070 H   0  0  0  0  0  0
  -22.0636   -2.7602   23.2835 H   0  0  0  0  0  0
  -22.4276  -11.9816   22.4803 H   0  0  0  0  0  0
  -21.1139  -13.1075   22.2709 H   0  0  0  0  0  0
  -24.6721  -15.8623   20.4923 H   0  0  0  0  0  0
  -26.2704  -15.6101   20.0187 H   0  0  0  0  0  0
  -26.7100  -32.5586   23.1283 H   0  0  0  0  0  0
  -24.9899  -33.9918   25.0466 H   0  0  0  0  0  0
  -22.6879  -31.3179   21.4218 H   0  0  0  0  0  0
  -23.3745  -35.9703   23.3343 H   0  0  0  0  0  0
  -24.3537  -36.8994   22.2090 H   0  0  0  0  0  0
  -23.7190  -37.6553   23.6660 H   0  0  0  0  0  0
  -26.0374  -31.6379   20.6083 H   0  0  0  0  0  0
  -26.8231  -30.9010   21.9798 H   0  0  0  0  0  0
  -28.1228  -29.1647   21.0751 H   0  0  0  0  0  0
  -25.9673  -25.9879   19.0597 H   0  0  0  0  0  0
  -23.9487  -27.2811   19.1153 H   0  0  0  0  0  0
  -23.6778  -30.6046   19.4151 H   0  0  0  0  0  0
  -22.7294  -29.2317   19.9023 H   0  0  0  0  0  0
  -25.1267  -36.2101   25.0832 H   0  0  0  0  0  0
  -20.9955  -28.3285   24.1390 H   0  0  0  0  0  0
  -20.5687  -26.2326   23.3620 H   0  0  0  0  0  0
  -21.6643  -26.7493   22.1187 H   0  0  0  0  0  0
  -19.6917  -25.6279   21.1275 H   0  0  0  0  0  0
  -19.6660  -27.3165   20.6716 H   0  0  0  0  0  0
  -17.4177  -26.6682   21.4030 H   0  0  0  0  0  0
  -18.0324  -26.0053   22.9012 H   0  0  0  0  0  0
  -19.7944  -30.7263   24.2277 H   0  0  0  0  0  0
  -17.5038  -31.6294   24.5170 H   0  0  0  0  0  0
  -15.5370  -30.3010   23.7695 H   0  0  0  0  0  0
  -15.8642  -28.0813   22.7154 H   0  0  0  0  0  0
  -24.5772  -30.7196   25.7929 H   0  0  0  0  0  0
  -24.8869  -32.2957   26.5130 H   0  0  0  0  0  0
  -25.7997  -30.8894   27.0350 H   0  0  0  0  0  0
  -26.2839  -29.6920   24.1297 H   0  0  0  0  0  0
  -27.3916  -29.7399   25.4813 H   0  0  0  0  0  0
  -27.8690  -30.4473   23.9533 H   0  0  0  0  0  0
  -27.2599  -33.3794   26.2079 H   0  0  0  0  0  0
  -28.3692  -32.7123   25.0296 H   0  0  0  0  0  0
  -28.0731  -31.8695   26.5432 H   0  0  0  0  0  0
  -28.2619  -38.0103   24.7520 H   0  0  0  0  0  0
  -28.1025  -36.2646   24.6226 H   0  0  0  0  0  0
  -27.2273  -37.1447   25.8837 H   0  0  0  0  0  0
  -20.9281  -29.8731   21.6914 H   0  0  0  0  0  0
  -26.0208  -38.2935   24.1390 H   0  0  0  0  0  0
  -30.7993  -19.9406   22.4917 H   0  0  0  0  0  0
  -29.8048  -16.4856   19.0882 H   0  0  0  0  0  0
  -29.5948  -15.5403   23.5252 H   0  0  0  0  0  0
  -31.3276  -15.1754   23.3851 H   0  0  0  0  0  0
  -30.1351  -13.9311   23.1377 H   0  0  0  0  0  0
  -28.1419  -20.6555   18.9480 H   0  0  0  0  0  0
  -28.8261  -21.9483   17.9830 H   0  0  0  0  0  0
  -27.5026  -22.2750   19.1092 H   0  0  0  0  0  0
  -31.0055  -21.0596   18.9885 H   0  0  0  0  0  0
  -31.3616  -21.4292   20.6548 H   0  0  0  0  0  0
  -29.8982  -25.0357   21.4739 H   0  0  0  0  0  0
  -28.7319  -23.7834   21.7661 H   0  0  0  0  0  0
  -30.9391  -23.4804   20.2565 H   0  0  0  0  0  0
  -29.8630  -23.8363   18.9645 H   0  0  0  0  0  0
  -27.1874  -25.2041   21.0627 H   0  0  0  0  0  0
  -27.7037  -24.8231   19.4366 H   0  0  0  0  0  0
  -28.9757  -21.8793   20.9258 H   0  0  0  0  0  0
  1 25  1  0  0  0
  1 30  2  0  0  0
  1 83  1  0  0  0
  2  3  1  0  0  0
  2 25  1  0  0  0
  2 87  1  0  0  0
  2 88  1  0  0  0
  3  4  1  0  0  0
  3 89  1  0  0  0
  3 90  1  0  0  0
  4  5  1  0  0  0
  4 91  1  0  0  0
  4 92  1  0  0  0
  5  6  1  0  0  0
  5 26  1  0  0  0
  5 93  1  0  0  0
  6 25  1  0  0  0
  6 94  1  0  0  0
  6 95  1  0  0  0
  7  8  2  0  0  0
  7 26  1  0  0  0
  7 29  1  0  0  0
  8  9  1  0  0  0
  8 22  1  0  0  0
  9 10  1  0  0  0
  9 27  2  0  0  0
 10 11  2  0  0  0
 10 15  1  0  0  0
 11 12  1  0  0  0
 11 96  1  0  0  0
 12 13  2  0  0  0
 12 97  1  0  0  0
 13 14  1  0  0  0
 13 31  1  0  0  0
 14 15  2  0  0  0
 14 98  1  0  0  0
 15 99  1  0  0  0
 16 17  2  0  0  0
 16 21  1  0  0  0
 16 31  1  0  0  0
 17 18  1  0  0  0
 17100  1  0  0  0
 18 19  2  0  0  0
 18101  1  0  0  0
 19 20  1  0  0  0
 19 24  1  0  0  0
 20 21  2  0  0  0
 20102  1  0  0  0
 21 23  1  0  0  0
 22 28  1  0  0  0
 22 32  2  0  0  0
 26 27  1  0  0  0
 28103  1  0  0  0
 28104  1  0  0  0
 29105  1  0  0  0
 29106  1  0  0  0
 33 34  1  0  0  0
 33 66  1  0  0  0
 33 70  2  0  0  0
 34 36  1  0  0  0
 34 59  1  0  0  0
 34107  1  0  0  0
 35 44  2  0  0  0
 35 45  1  0  0  0
 35 68  1  0  0  0
 36 56  1  0  0  0
 36108  1  0  0  0
 37 39  1  0  0  0
 37 47  1  0  0  0
 37 66  1  0  0  0
 37109  1  0  0  0
 38 43  2  0  0  0
 38 46  1  0  0  0
 38 47  1  0  0  0
 39 64  1  0  0  0
 39 67  2  0  0  0
 40 52  1  0  0  0
 40 53  2  0  0  0
 40 58  1  0  0  0
 41110  1  0  0  0
 41111  1  0  0  0
 41112  1  0  0  0
 41 48  1  0  0  0
 42 43  1  0  0  0
 42 66  1  0  0  0
 42113  1  0  0  0
 42114  1  0  0  0
 43 44  1  0  0  0
 44115  1  0  0  0
 45 46  2  0  0  0
 45116  1  0  0  0
 46117  1  0  0  0
 47118  1  0  0  0
 47119  1  0  0  0
 48 56  1  0  0  0
 48 65  1  0  0  0
 48120  1  0  0  0
 49 50  1  0  0  0
 49 53  1  0  0  0
 49 64  1  0  0  0
 49121  1  0  0  0
 50 51  1  0  0  0
 50122  1  0  0  0
 50123  1  0  0  0
 51 52  1  0  0  0
 51124  1  0  0  0
 51125  1  0  0  0
 52126  1  0  0  0
 52127  1  0  0  0
 53 54  1  0  0  0
 54 55  2  0  0  0
 54128  1  0  0  0
 55 57  1  0  0  0
 55129  1  0  0  0
 56 69  2  0  0  0
 57 58  2  0  0  0
 57130  1  0  0  0
 58131  1  0  0  0
 59 60  1  0  0  0
 59 61  1  0  0  0
 59 62  1  0  0  0
 60132  1  0  0  0
 60133  1  0  0  0
 60134  1  0  0  0
 61135  1  0  0  0
 61136  1  0  0  0
 61137  1  0  0  0
 62138  1  0  0  0
 62139  1  0  0  0
 62140  1  0  0  0
 63 65  1  0  0  0
 63141  1  0  0  0
 63142  1  0  0  0
 63143  1  0  0  0
 64144  1  0  0  0
 65145  1  0  0  0
 68 82  1  0  0  0
 71 73  2  0  0  0
 71 75  1  0  0  0
 71146  1  0  0  0
 72 74  1  0  0  0
 72 76  2  0  0  0
 72147  1  0  0  0
 73 76  1  0  0  0
 73 79  1  0  0  0
 74 75  2  0  0  0
 74 83  1  0  0  0
 75 85  1  0  0  0
 76 86  1  0  0  0
 77 83  1  0  0  0
 77148  1  0  0  0
 77149  1  0  0  0
 77150  1  0  0  0
 78151  1  0  0  0
 78152  1  0  0  0
 78153  1  0  0  0
 78 84  1  0  0  0
 79 84  1  0  0  0
 79154  1  0  0  0
 79155  1  0  0  0
 80 81  1  0  0  0
 80 82  1  0  0  0
 80156  1  0  0  0
 80157  1  0  0  0
 81 84  1  0  0  0
 81158  1  0  0  0
 81159  1  0  0  0
 82160  1  0  0  0
 82161  1  0  0  0
 84162  1  0  0  0
M  CHG  1  84   1
M  ISO  4   1 100  68 101  82 101  83 100
M  END
> <chiral flag>
0

> <version>
0

> <s_m_source_file>
/data/baiqing/PycharmProjects/Reinvent-master-3.2/result/LINK_invent/BTK/process_docking_weight1_custom_product_contain_oxygen_bond_distance_aromatic_linkinvent_7_9_3/rearranged_h_0015.sdf

> <i_m_source_file_index>
28

> <r_mmod_Potential_Energy-OPLS-2005>
-12.4941282272339

> <r_mmod_Stretch_Energy-OPLS-2005>
50.703929901123

> <r_mmod_Bend_Energy-OPLS-2005>
110.109771728516

> <r_mmod_Torsional_Energy-OPLS-2005>
307.685943603516

> <r_mmod_Improper_Torsional_Energy-OPLS-2005>
4.25711345672607

> <r_mmod_Van_der_Waal_Energy-OPLS-2005>
176.531448364258

> <r_mmod_Electrostatic_Energy-OPLS-2005>
-239.69416809082

> <r_mmod_Solvation_Energy-OPLS-2005>
-437.450744628906

> <b_mmod_Minimization_Converged-OPLS-2005>
0

> <r_mmod_RMS_Derivative-OPLS-2005>
10.2332391738892

$$$$
28
                    3D
 Structure written by MMmdl.
159167  0  0  1  0            999 V2000
  -30.6178  -14.4922   20.4882 C   0  0  0  0  0  0
  -30.4358  -12.3038   19.3894 C   0  0  0  0  0  0
  -29.4869  -12.4713   18.1863 C   0  0  0  0  0  0
  -28.0101  -12.3266   18.6120 C   0  0  0  0  0  0
  -27.6515  -13.1818   19.8568 C   0  0  2  0  0  0
  -28.6938  -12.9639   20.9754 C   0  0  0  0  0  0
  -25.2561  -13.8096   20.5652 C   0  0  0  0  0  0
  -24.1827  -13.0405   20.9146 C   0  0  0  0  0  0
  -24.6311  -11.6867   20.8671 C   0  0  0  0  0  0
  -23.8958  -10.4287   21.0350 C   0  0  0  0  0  0
  -24.3563   -9.4229   21.9112 C   0  0  0  0  0  0
  -23.6278   -8.2256   22.0717 C   0  0  0  0  0  0
  -22.4238   -8.0259   21.3517 C   0  0  0  0  0  0
  -21.9833   -9.0184   20.4589 C   0  0  0  0  0  0
  -22.7137  -10.2093   20.2993 C   0  0  0  0  0  0
  -21.6875   -6.0695   22.5273 C   0  0  0  0  0  0
  -21.4021   -6.5587   23.8208 C   0  0  0  0  0  0
  -21.3651   -5.6745   24.9171 C   0  0  0  0  0  0
  -21.6053   -4.3013   24.7213 C   0  0  0  0  0  0
  -21.8830   -3.8100   23.4321 C   0  0  0  0  0  0
  -21.9208   -4.6921   22.3399 C   0  0  0  0  0  0
  -22.7833  -13.5218   21.1847 C   0  0  0  0  0  0
  -22.1665   -4.2106   21.0969 F   0  0  0  0  0  0
  -21.5639   -3.4490   25.7711 F   0  0  0  0  0  0
  -30.0176  -13.2792   20.4029 N   0  0  0  0  0  0
  -26.2948  -12.9211   20.3257 N   0  0  0  0  0  0
  -25.9225  -11.6378   20.5635 N   0  0  0  0  0  0
  -22.0501  -12.8233   22.0404 N   0  0  0  0  0  0
  -25.4252  -15.1860   20.4191 N   0  0  0  0  0  0
  -31.7770  -14.7142   20.1289 O   0  0  0  0  0  0
  -21.6640   -6.8841   21.4230 O   0  0  0  0  0  0
  -22.3509  -14.5527   20.6735 O   0  0  0  0  0  0
  -24.6190  -31.8655   23.2088 C   0  0  0  0  0  0
  -25.9075  -32.4805   23.8399 C   0  0  1  0  0  0
  -27.2316  -27.4110   20.1065 C   0  0  0  0  0  0
  -25.5953  -33.8617   24.2315 N   0  0  0  0  0  0
  -23.4082  -30.4937   21.5481 C   0  0  2  0  0  0
  -24.8535  -28.9642   20.1122 C   0  0  0  0  0  0
  -22.7463  -29.4649   22.4945 C   0  0  0  0  0  0
  -18.0291  -28.1365   22.8480 C   0  0  0  0  0  0
  -24.1504  -36.7311   23.2629 C   0  0  0  0  0  0
  -25.9408  -30.8260   21.3656 C   0  0  0  0  0  0
  -26.0174  -29.4615   20.7096 C   0  0  0  0  0  0
  -27.2064  -28.6914   20.7061 C   0  0  0  0  0  0
  -26.0446  -26.9462   19.4874 C   0  0  0  0  0  0
  -24.8656  -27.7074   19.4926 C   0  0  0  0  0  0
  -23.6205  -29.8339   20.1600 C   0  0  0  0  0  0
  -25.4128  -36.3105   24.0336 C   0  0  1  0  0  0
  -20.5901  -28.3652   23.1300 C   0  0  2  0  0  0
  -20.6773  -26.9383   22.5426 C   0  0  0  0  0  0
  -19.5754  -26.6374   21.5213 C   0  0  0  0  0  0
  -18.1926  -26.7922   22.1613 C   0  0  0  0  0  0
  -19.1543  -28.8834   23.2876 C   0  0  0  0  0  0
  -18.9473  -30.1438   23.8880 C   0  0  0  0  0  0
  -17.6473  -30.6568   24.0561 C   0  0  0  0  0  0
  -25.9076  -34.9477   23.5120 C   0  0  0  0  0  0
  -16.5357  -29.9082   23.6314 C   0  0  0  0  0  0
  -16.7286  -28.6513   23.0321 C   0  0  0  0  0  0
  -26.4491  -31.6590   25.0731 C   0  0  0  0  0  0
  -25.3752  -31.3714   26.1474 C   0  0  0  0  0  0
  -27.0307  -30.3048   24.6090 C   0  0  0  0  0  0
  -27.6066  -32.4287   25.7494 C   0  0  0  0  0  0
  -27.5595  -37.1790   24.8450 C   0  0  0  0  0  0
  -21.4188  -29.3025   22.3706 N   0  0  0  0  0  0
  -26.4289  -37.3804   23.9441 N   0  0  0  0  0  0
  -24.6731  -31.0729   22.0999 N   0  0  0  0  0  0
  -23.4227  -28.8126   23.2953 O   0  0  0  0  0  0
  -28.3791  -26.6252   20.1702 O   0  0  0  0  0  0
  -26.5603  -34.8937   22.4656 O   0  0  0  0  0  0
  -23.5365  -32.1416   23.7475 O   0  0  0  0  0  0
  -29.4740  -17.9457   20.8316 C   0  0  0  0  0  0
  -30.3154  -17.8013   23.5112 C   0  0  0  0  0  0
  -29.4252  -19.1191   21.6372 C   0  0  0  0  0  0
  -29.9151  -16.7054   21.3756 C   0  0  0  0  0  0
  -29.8377  -19.0178   22.9862 C   0  0  0  0  0  0
  -30.3372  -16.6421   22.7200 C   0  0  0  0  0  0
  -30.7617  -21.8783   21.4721 C   0  0  0  0  0  0
  -28.7389  -20.4266   21.1623 C   0  0  0  0  0  0
  -29.2542  -24.2123   20.4883 C   0  0  0  0  0  0
  -28.7189  -22.7524   20.2774 C   0  0  0  0  0  0
  -28.1391  -25.2035   20.0736 C   0  0  0  0  0  0
  -29.7281  -15.4877   20.6706 N   0  0  0  0  0  0
  -29.5731  -21.5678   20.6429 N   0  3  1  0  0  0
  -29.7360  -20.0913   23.8054 F   0  0  0  0  0  0
  -30.6766  -15.4541   23.2808 F   0  0  0  0  0  0
  -31.4725  -12.4543   19.0738 H   0  0  0  0  0  0
  -30.3827  -11.2887   19.7853 H   0  0  0  0  0  0
  -29.7300  -11.7357   17.4194 H   0  0  0  0  0  0
  -29.6391  -13.4472   17.7253 H   0  0  0  0  0  0
  -27.8294  -11.2695   18.8165 H   0  0  0  0  0  0
  -27.3607  -12.5823   17.7740 H   0  0  0  0  0  0
  -27.6815  -14.2214   19.5326 H   0  0  0  0  0  0
  -28.6700  -11.9288   21.3210 H   0  0  0  0  0  0
  -28.4582  -13.5650   21.8573 H   0  0  0  0  0  0
  -25.2738   -9.5726   22.4635 H   0  0  0  0  0  0
  -23.9993   -7.4661   22.7441 H   0  0  0  0  0  0
  -21.0756   -8.8635   19.8917 H   0  0  0  0  0  0
  -22.3548  -10.9568   19.6072 H   0  0  0  0  0  0
  -21.2001   -7.6078   23.9692 H   0  0  0  0  0  0
  -21.1476   -6.0469   25.9084 H   0  0  0  0  0  0
  -22.0627   -2.7550   23.2832 H   0  0  0  0  0  0
  -22.4150  -11.9946   22.4852 H   0  0  0  0  0  0
  -21.1071  -13.1221   22.2536 H   0  0  0  0  0  0
  -24.6501  -15.8226   20.5741 H   0  0  0  0  0  0
  -26.2647  -15.6579   20.1089 H   0  0  0  0  0  0
  -26.7133  -32.5509   23.1144 H   0  0  0  0  0  0
  -25.0152  -33.9785   25.0498 H   0  0  0  0  0  0
  -22.6951  -31.3079   21.4065 H   0  0  0  0  0  0
  -23.3786  -35.9610   23.3271 H   0  0  0  0  0  0
  -24.3615  -36.8953   22.2045 H   0  0  0  0  0  0
  -23.7240  -37.6514   23.6655 H   0  0  0  0  0  0
  -26.0638  -31.5924   20.5966 H   0  0  0  0  0  0
  -26.8260  -30.8763   21.9880 H   0  0  0  0  0  0
  -28.0964  -29.0648   21.1961 H   0  0  0  0  0  0
  -25.9890  -25.9860   18.9989 H   0  0  0  0  0  0
  -23.9725  -27.3145   19.0259 H   0  0  0  0  0  0
  -23.7397  -30.6129   19.4047 H   0  0  0  0  0  0
  -22.7432  -29.2629   19.8522 H   0  0  0  0  0  0
  -25.1291  -36.1941   25.0824 H   0  0  0  0  0  0
  -20.9957  -28.3191   24.1428 H   0  0  0  0  0  0
  -20.5665  -26.2238   23.3607 H   0  0  0  0  0  0
  -21.6633  -26.7411   22.1190 H   0  0  0  0  0  0
  -19.6902  -25.6296   21.1220 H   0  0  0  0  0  0
  -19.6688  -27.3186   20.6747 H   0  0  0  0  0  0
  -17.4189  -26.6663   21.4015 H   0  0  0  0  0  0
  -18.0317  -26.0085   22.9033 H   0  0  0  0  0  0
  -19.7948  -30.7252   24.2234 H   0  0  0  0  0  0
  -17.5035  -31.6261   24.5156 H   0  0  0  0  0  0
  -15.5356  -30.2954   23.7699 H   0  0  0  0  0  0
  -15.8692  -28.0851   22.6988 H   0  0  0  0  0  0
  -24.5904  -30.7066   25.7835 H   0  0  0  0  0  0
  -24.8971  -32.2885   26.4941 H   0  0  0  0  0  0
  -25.8124  -30.8890   27.0226 H   0  0  0  0  0  0
  -26.2848  -29.6802   24.1152 H   0  0  0  0  0  0
  -27.4124  -29.7276   25.4517 H   0  0  0  0  0  0
  -27.8667  -30.4417   23.9220 H   0  0  0  0  0  0
  -27.2710  -33.3568   26.2138 H   0  0  0  0  0  0
  -28.3871  -32.6863   25.0317 H   0  0  0  0  0  0
  -28.0737  -31.8360   26.5369 H   0  0  0  0  0  0
  -28.2543  -38.0136   24.7594 H   0  0  0  0  0  0
  -28.1148  -36.2703   24.6143 H   0  0  0  0  0  0
  -27.2337  -37.1271   25.8837 H   0  0  0  0  0  0
  -20.9321  -29.8834   21.7031 H   0  0  0  0  0  0
  -26.0176  -38.2869   24.1475 H   0  0  0  0  0  0
  -29.1102  -17.9713   19.8137 H   0  0  0  0  0  0
  -30.5867  -17.7321   24.5524 H   0  0  0  0  0  0
  -31.4353  -21.0215   21.5113 H   0  0  0  0  0  0
  -30.4712  -22.1396   22.4884 H   0  0  0  0  0  0
  -31.3436  -22.7012   21.0557 H   0  0  0  0  0  0
  -28.1832  -20.7993   22.0225 H   0  0  0  0  0  0
  -27.9789  -20.1824   20.4178 H   0  0  0  0  0  0
  -30.1452  -24.3981   19.8896 H   0  0  0  0  0  0
  -29.5175  -24.3860   21.5334 H   0  0  0  0  0  0
  -28.4412  -22.6310   19.2272 H   0  0  0  0  0  0
  -27.7754  -22.6819   20.8223 H   0  0  0  0  0  0
  -27.2788  -24.9650   20.7028 H   0  0  0  0  0  0
  -27.8553  -24.9685   19.0468 H   0  0  0  0  0  0
  -28.7919  -15.1199   20.7475 H   0  0  0  0  0  0
  -29.9487  -21.2477   19.7632 H   0  0  0  0  0  0
  1 25  1  0  0  0
  1 30  2  0  0  0
  1 82  1  0  0  0
  2  3  1  0  0  0
  2 25  1  0  0  0
  2 86  1  0  0  0
  2 87  1  0  0  0
  3  4  1  0  0  0
  3 88  1  0  0  0
  3 89  1  0  0  0
  4  5  1  0  0  0
  4 90  1  0  0  0
  4 91  1  0  0  0
  5  6  1  0  0  0
  5 26  1  0  0  0
  5 92  1  0  0  0
  6 25  1  0  0  0
  6 93  1  0  0  0
  6 94  1  0  0  0
  7  8  2  0  0  0
  7 26  1  0  0  0
  7 29  1  0  0  0
  8  9  1  0  0  0
  8 22  1  0  0  0
  9 10  1  0  0  0
  9 27  2  0  0  0
 10 11  2  0  0  0
 10 15  1  0  0  0
 11 12  1  0  0  0
 11 95  1  0  0  0
 12 13  2  0  0  0
 12 96  1  0  0  0
 13 14  1  0  0  0
 13 31  1  0  0  0
 14 15  2  0  0  0
 14 97  1  0  0  0
 15 98  1  0  0  0
 16 17  2  0  0  0
 16 21  1  0  0  0
 16 31  1  0  0  0
 17 18  1  0  0  0
 17 99  1  0  0  0
 18 19  2  0  0  0
 18100  1  0  0  0
 19 20  1  0  0  0
 19 24  1  0  0  0
 20 21  2  0  0  0
 20101  1  0  0  0
 21 23  1  0  0  0
 22 28  1  0  0  0
 22 32  2  0  0  0
 26 27  1  0  0  0
 28102  1  0  0  0
 28103  1  0  0  0
 29104  1  0  0  0
 29105  1  0  0  0
 33 34  1  0  0  0
 33 66  1  0  0  0
 33 70  2  0  0  0
 34 36  1  0  0  0
 34 59  1  0  0  0
 34106  1  0  0  0
 35 44  2  0  0  0
 35 45  1  0  0  0
 35 68  1  0  0  0
 36 56  1  0  0  0
 36107  1  0  0  0
 37 39  1  0  0  0
 37 47  1  0  0  0
 37 66  1  0  0  0
 37108  1  0  0  0
 38 43  2  0  0  0
 38 46  1  0  0  0
 38 47  1  0  0  0
 39 64  1  0  0  0
 39 67  2  0  0  0
 40 52  1  0  0  0
 40 53  2  0  0  0
 40 58  1  0  0  0
 41109  1  0  0  0
 41110  1  0  0  0
 41111  1  0  0  0
 41 48  1  0  0  0
 42 43  1  0  0  0
 42 66  1  0  0  0
 42112  1  0  0  0
 42113  1  0  0  0
 43 44  1  0  0  0
 44114  1  0  0  0
 45 46  2  0  0  0
 45115  1  0  0  0
 46116  1  0  0  0
 47117  1  0  0  0
 47118  1  0  0  0
 48 56  1  0  0  0
 48 65  1  0  0  0
 48119  1  0  0  0
 49 50  1  0  0  0
 49 53  1  0  0  0
 49 64  1  0  0  0
 49120  1  0  0  0
 50 51  1  0  0  0
 50121  1  0  0  0
 50122  1  0  0  0
 51 52  1  0  0  0
 51123  1  0  0  0
 51124  1  0  0  0
 52125  1  0  0  0
 52126  1  0  0  0
 53 54  1  0  0  0
 54 55  2  0  0  0
 54127  1  0  0  0
 55 57  1  0  0  0
 55128  1  0  0  0
 56 69  2  0  0  0
 57 58  2  0  0  0
 57129  1  0  0  0
 58130  1  0  0  0
 59 60  1  0  0  0
 59 61  1  0  0  0
 59 62  1  0  0  0
 60131  1  0  0  0
 60132  1  0  0  0
 60133  1  0  0  0
 61134  1  0  0  0
 61135  1  0  0  0
 61136  1  0  0  0
 62137  1  0  0  0
 62138  1  0  0  0
 62139  1  0  0  0
 63 65  1  0  0  0
 63140  1  0  0  0
 63141  1  0  0  0
 63142  1  0  0  0
 64143  1  0  0  0
 65144  1  0  0  0
 68 81  1  0  0  0
 71 73  2  0  0  0
 71 74  1  0  0  0
 71145  1  0  0  0
 72 75  2  0  0  0
 72 76  1  0  0  0
 72146  1  0  0  0
 73 75  1  0  0  0
 73 78  1  0  0  0
 74 76  2  0  0  0
 74 82  1  0  0  0
 75 84  1  0  0  0
 76 85  1  0  0  0
 77147  1  0  0  0
 77148  1  0  0  0
 77149  1  0  0  0
 77 83  1  0  0  0
 78 83  1  0  0  0
 78150  1  0  0  0
 78151  1  0  0  0
 79 80  1  0  0  0
 79 81  1  0  0  0
 79152  1  0  0  0
 79153  1  0  0  0
 80 83  1  0  0  0
 80154  1  0  0  0
 80155  1  0  0  0
 81156  1  0  0  0
 81157  1  0  0  0
 82158  1  0  0  0
 83159  1  0  0  0
M  CHG  1  83   1
M  ISO  4   1 100  68 101  81 101  82 100
M  END
> <chiral flag>
0

> <version>
0

> <s_m_source_file>
/data/baiqing/PycharmProjects/Reinvent-master-3.2/result/LINK_invent/BTK/process_docking_weight1_custom_product_contain_oxygen_bond_distance_aromatic_linkinvent_7_9_3/rearranged_h_0015.sdf

> <i_m_source_file_index>
29

> <r_mmod_Potential_Energy-OPLS-2005>
-186.135879516602

> <r_mmod_Stretch_Energy-OPLS-2005>
44.616024017334

> <r_mmod_Bend_Energy-OPLS-2005>
120.504455566406

> <r_mmod_Torsional_Energy-OPLS-2005>
246.681213378906

> <r_mmod_Improper_Torsional_Energy-OPLS-2005>
13.8169498443604

> <r_mmod_Van_der_Waal_Energy-OPLS-2005>
167.406585693359

> <r_mmod_Electrostatic_Energy-OPLS-2005>
-338.091979980469

> <r_mmod_Solvation_Energy-OPLS-2005>
-463.426788330078

> <b_mmod_Minimization_Converged-OPLS-2005>
0

> <r_mmod_RMS_Derivative-OPLS-2005>
6.83185195922852

$$$$
29
                    3D
 Structure written by MMmdl.
163172  0  0  1  0            999 V2000
  -30.7526  -14.4143   20.6368 C   0  0  0  0  0  0
  -30.4158  -12.2986   19.4062 C   0  0  0  0  0  0
  -29.4845  -12.5105   18.1962 C   0  0  0  0  0  0
  -28.0051  -12.3782   18.6079 C   0  0  0  0  0  0
  -27.6610  -13.2056   19.8728 C   0  0  2  0  0  0
  -28.6992  -12.9579   20.9832 C   0  0  0  0  0  0
  -25.2600  -13.8168   20.5704 C   0  0  0  0  0  0
  -24.1845  -13.0442   20.9169 C   0  0  0  0  0  0
  -24.6390  -11.6908   20.8725 C   0  0  0  0  0  0
  -23.9054  -10.4299   21.0405 C   0  0  0  0  0  0
  -24.3614   -9.4219   21.9179 C   0  0  0  0  0  0
  -23.6292   -8.2254   22.0761 C   0  0  0  0  0  0
  -22.4270   -8.0294   21.3551 C   0  0  0  0  0  0
  -21.9903   -9.0262   20.4645 C   0  0  0  0  0  0
  -22.7226  -10.2144   20.3057 C   0  0  0  0  0  0
  -21.6859   -6.0743   22.5278 C   0  0  0  0  0  0
  -21.4018   -6.5649   23.8214 C   0  0  0  0  0  0
  -21.3654   -5.6802   24.9176 C   0  0  0  0  0  0
  -21.6043   -4.3063   24.7221 C   0  0  0  0  0  0
  -21.8822   -3.8154   23.4342 C   0  0  0  0  0  0
  -21.9198   -4.6968   22.3401 C   0  0  0  0  0  0
  -22.7864  -13.5239   21.1824 C   0  0  0  0  0  0
  -22.1666   -4.2160   21.0973 F   0  0  0  0  0  0
  -21.5624   -3.4542   25.7726 F   0  0  0  0  0  0
  -30.0335  -13.2715   20.4430 N   0  0  0  0  0  0
  -26.3027  -12.9334   20.3367 N   0  0  0  0  0  0
  -25.9313  -11.6489   20.5751 N   0  0  0  0  0  0
  -22.0511  -12.8233   22.0385 N   0  0  0  0  0  0
  -25.4340  -15.1884   20.4157 N   0  0  0  0  0  0
  -31.8596  -14.5794   20.1153 O   0  0  0  0  0  0
  -21.6632   -6.8890   21.4247 O   0  0  0  0  0  0
  -22.3544  -14.5539   20.6665 O   0  0  0  0  0  0
  -24.6164  -31.8695   23.2126 C   0  0  0  0  0  0
  -25.9053  -32.4825   23.8410 C   0  0  1  0  0  0
  -27.2254  -27.4294   20.0807 C   0  0  0  0  0  0
  -25.5912  -33.8622   24.2341 N   0  0  0  0  0  0
  -23.4029  -30.4969   21.5550 C   0  0  2  0  0  0
  -24.8454  -28.9741   20.1115 C   0  0  0  0  0  0
  -22.7414  -29.4676   22.5002 C   0  0  0  0  0  0
  -18.0270  -28.1390   22.8495 C   0  0  0  0  0  0
  -24.1495  -36.7323   23.2631 C   0  0  0  0  0  0
  -25.9356  -30.8327   21.3689 C   0  0  0  0  0  0
  -26.0104  -29.4696   20.7101 C   0  0  0  0  0  0
  -27.2036  -28.7060   20.6936 C   0  0  0  0  0  0
  -26.0369  -26.9688   19.4582 C   0  0  0  0  0  0
  -24.8544  -27.7223   19.4821 C   0  0  0  0  0  0
  -23.6075  -29.8376   20.1674 C   0  0  0  0  0  0
  -25.4113  -36.3117   24.0339 C   0  0  1  0  0  0
  -20.5859  -28.3680   23.1330 C   0  0  2  0  0  0
  -20.6766  -26.9418   22.5429 C   0  0  0  0  0  0
  -19.5747  -26.6392   21.5223 C   0  0  0  0  0  0
  -18.1920  -26.7936   22.1621 C   0  0  0  0  0  0
  -19.1518  -28.8850   23.2905 C   0  0  0  0  0  0
  -18.9442  -30.1456   23.8910 C   0  0  0  0  0  0
  -17.6443  -30.6590   24.0570 C   0  0  0  0  0  0
  -25.9043  -34.9476   23.5137 C   0  0  0  0  0  0
  -16.5339  -29.9092   23.6329 C   0  0  0  0  0  0
  -16.7259  -28.6514   23.0344 C   0  0  0  0  0  0
  -26.4471  -31.6590   25.0729 C   0  0  0  0  0  0
  -25.3728  -31.3700   26.1464 C   0  0  0  0  0  0
  -27.0289  -30.3028   24.6102 C   0  0  0  0  0  0
  -27.6048  -32.4295   25.7495 C   0  0  0  0  0  0
  -27.5592  -37.1816   24.8455 C   0  0  0  0  0  0
  -21.4140  -29.3051   22.3742 N   0  0  0  0  0  0
  -26.4302  -37.3801   23.9406 N   0  0  0  0  0  0
  -24.6702  -31.0792   22.1033 N   0  0  0  0  0  0
  -23.4187  -28.8197   23.3029 O   0  0  0  0  0  0
  -28.3721  -26.6480   20.1171 O   0  0  0  0  0  0
  -26.5594  -34.8922   22.4692 O   0  0  0  0  0  0
  -23.5354  -32.1440   23.7526 O   0  0  0  0  0  0
  -30.4890  -18.6407   19.3733 C   0  0  0  0  0  0
  -28.5814  -18.7957   20.8660 C   0  0  0  0  0  0
  -30.7290  -17.3254   19.8198 C   0  0  0  0  0  0
  -28.8288  -17.4833   21.3221 C   0  0  0  0  0  0
  -29.4167  -19.3895   19.8957 C   0  0  0  0  0  0
  -29.9102  -16.7228   20.8130 C   0  0  0  0  0  0
  -30.3473  -24.0017   19.4535 C   0  0  0  0  0  0
  -30.8413  -22.5931   19.8062 C   0  0  0  0  0  0
  -28.6631  -22.8587   20.7457 C   0  0  0  0  0  0
  -29.2406  -24.2698   20.4779 C   0  0  2  0  0  0
  -30.0731  -15.2600   22.8101 C   0  0  0  0  0  0
  -29.1357  -20.8011   19.3901 C   0  0  0  0  0  0
  -28.1302  -25.2328   20.0044 C   0  0  0  0  0  0
  -30.1630  -15.4092   21.3505 N   0  0  0  0  0  0
  -29.6636  -21.8488   20.3106 N   0  3  1  0  0  0
  -31.4581  -12.3935   19.0970 H   0  0  0  0  0  0
  -30.3184  -11.2834   19.7936 H   0  0  0  0  0  0
  -29.7156  -11.7894   17.4109 H   0  0  0  0  0  0
  -29.6564  -13.4991   17.7684 H   0  0  0  0  0  0
  -27.8034  -11.3231   18.7911 H   0  0  0  0  0  0
  -27.3573  -12.6713   17.7814 H   0  0  0  0  0  0
  -27.7162  -14.2586   19.5960 H   0  0  0  0  0  0
  -28.6747  -11.9138   21.2994 H   0  0  0  0  0  0
  -28.4327  -13.5259   21.8698 H   0  0  0  0  0  0
  -25.2769   -9.5694   22.4730 H   0  0  0  0  0  0
  -24.0010   -7.4648   22.7481 H   0  0  0  0  0  0
  -21.0847   -8.8779   19.8931 H   0  0  0  0  0  0
  -22.3694  -10.9690   19.6164 H   0  0  0  0  0  0
  -21.2015   -7.6158   23.9722 H   0  0  0  0  0  0
  -21.1468   -6.0528   25.9085 H   0  0  0  0  0  0
  -22.0600   -2.7614   23.2834 H   0  0  0  0  0  0
  -22.4138  -11.9907   22.4786 H   0  0  0  0  0  0
  -21.1130  -13.1260   22.2587 H   0  0  0  0  0  0
  -24.6711  -15.8460   20.5354 H   0  0  0  0  0  0
  -26.2969  -15.6290   20.1228 H   0  0  0  0  0  0
  -26.7129  -32.5540   23.1180 H   0  0  0  0  0  0
  -25.0064  -33.9786   25.0484 H   0  0  0  0  0  0
  -22.6920  -31.3146   21.4214 H   0  0  0  0  0  0
  -23.3760  -35.9652   23.3285 H   0  0  0  0  0  0
  -24.3595  -36.8941   22.2045 H   0  0  0  0  0  0
  -23.7240  -37.6527   23.6647 H   0  0  0  0  0  0
  -26.0512  -31.6011   20.6024 H   0  0  0  0  0  0
  -26.8223  -30.8815   21.9887 H   0  0  0  0  0  0
  -28.0977  -29.0812   21.1717 H   0  0  0  0  0  0
  -25.9864  -26.0214   18.9439 H   0  0  0  0  0  0
  -23.9629  -27.3390   19.0058 H   0  0  0  0  0  0
  -23.7099  -30.6141   19.4094 H   0  0  0  0  0  0
  -22.7320  -29.2561   19.8742 H   0  0  0  0  0  0
  -25.1287  -36.1992   25.0835 H   0  0  0  0  0  0
  -20.9945  -28.3248   24.1452 H   0  0  0  0  0  0
  -20.5684  -26.2286   23.3614 H   0  0  0  0  0  0
  -21.6640  -26.7468   22.1221 H   0  0  0  0  0  0
  -19.6916  -25.6304   21.1252 H   0  0  0  0  0  0
  -19.6694  -27.3204   20.6758 H   0  0  0  0  0  0
  -17.4198  -26.6698   21.4010 H   0  0  0  0  0  0
  -18.0303  -26.0070   22.9009 H   0  0  0  0  0  0
  -19.7915  -30.7275   24.2284 H   0  0  0  0  0  0
  -17.4997  -31.6271   24.5177 H   0  0  0  0  0  0
  -15.5346  -30.3001   23.7640 H   0  0  0  0  0  0
  -15.8659  -28.0842   22.7047 H   0  0  0  0  0  0
  -24.5907  -30.7041   25.7805 H   0  0  0  0  0  0
  -24.8907  -32.2855   26.4906 H   0  0  0  0  0  0
  -25.8069  -30.8875   27.0230 H   0  0  0  0  0  0
  -26.2836  -29.6811   24.1125 H   0  0  0  0  0  0
  -27.4019  -29.7240   25.4567 H   0  0  0  0  0  0
  -27.8693  -30.4339   23.9276 H   0  0  0  0  0  0
  -27.2663  -33.3571   26.2124 H   0  0  0  0  0  0
  -28.3830  -32.6888   25.0303 H   0  0  0  0  0  0
  -28.0740  -31.8376   26.5364 H   0  0  0  0  0  0
  -28.2601  -38.0122   24.7533 H   0  0  0  0  0  0
  -28.1103  -36.2664   24.6253 H   0  0  0  0  0  0
  -27.2314  -37.1424   25.8854 H   0  0  0  0  0  0
  -20.9300  -29.8809   21.6994 H   0  0  0  0  0  0
  -26.0200  -38.2884   24.1408 H   0  0  0  0  0  0
  -31.1411  -19.0673   18.6232 H   0  0  0  0  0  0
  -27.7418  -19.3454   21.2694 H   0  0  0  0  0  0
  -31.5814  -16.8175   19.3944 H   0  0  0  0  0  0
  -28.1665  -17.0658   22.0675 H   0  0  0  0  0  0
  -29.9411  -24.0000   18.4413 H   0  0  0  0  0  0
  -31.1451  -24.7440   19.4869 H   0  0  0  0  0  0
  -31.5655  -22.6611   20.6186 H   0  0  0  0  0  0
  -31.3527  -22.1026   18.9766 H   0  0  0  0  0  0
  -27.7198  -22.7366   20.2119 H   0  0  0  0  0  0
  -28.4349  -22.7277   21.8047 H   0  0  0  0  0  0
  -29.6835  -24.6394   21.4045 H   0  0  0  0  0  0
  -30.5761  -16.0909   23.3073 H   0  0  0  0  0  0
  -30.5401  -14.3410   23.1714 H   0  0  0  0  0  0
  -29.0357  -15.2573   23.1470 H   0  0  0  0  0  0
  -28.0558  -20.8781   19.2633 H   0  0  0  0  0  0
  -29.5393  -20.9244   18.3841 H   0  0  0  0  0  0
  -27.2547  -24.9964   20.6133 H   0  0  0  0  0  0
  -27.8790  -24.9890   18.9705 H   0  0  0  0  0  0
  -29.9653  -21.3483   21.1326 H   0  0  0  0  0  0
  1 25  1  0  0  0
  1 30  2  0  0  0
  1 84  1  0  0  0
  2  3  1  0  0  0
  2 25  1  0  0  0
  2 86  1  0  0  0
  2 87  1  0  0  0
  3  4  1  0  0  0
  3 88  1  0  0  0
  3 89  1  0  0  0
  4  5  1  0  0  0
  4 90  1  0  0  0
  4 91  1  0  0  0
  5  6  1  0  0  0
  5 26  1  0  0  0
  5 92  1  0  0  0
  6 25  1  0  0  0
  6 93  1  0  0  0
  6 94  1  0  0  0
  7  8  2  0  0  0
  7 26  1  0  0  0
  7 29  1  0  0  0
  8  9  1  0  0  0
  8 22  1  0  0  0
  9 10  1  0  0  0
  9 27  2  0  0  0
 10 11  2  0  0  0
 10 15  1  0  0  0
 11 12  1  0  0  0
 11 95  1  0  0  0
 12 13  2  0  0  0
 12 96  1  0  0  0
 13 14  1  0  0  0
 13 31  1  0  0  0
 14 15  2  0  0  0
 14 97  1  0  0  0
 15 98  1  0  0  0
 16 17  2  0  0  0
 16 21  1  0  0  0
 16 31  1  0  0  0
 17 18  1  0  0  0
 17 99  1  0  0  0
 18 19  2  0  0  0
 18100  1  0  0  0
 19 20  1  0  0  0
 19 24  1  0  0  0
 20 21  2  0  0  0
 20101  1  0  0  0
 21 23  1  0  0  0
 22 28  1  0  0  0
 22 32  2  0  0  0
 26 27  1  0  0  0
 28102  1  0  0  0
 28103  1  0  0  0
 29104  1  0  0  0
 29105  1  0  0  0
 33 34  1  0  0  0
 33 66  1  0  0  0
 33 70  2  0  0  0
 34 36  1  0  0  0
 34 59  1  0  0  0
 34106  1  0  0  0
 35 44  2  0  0  0
 35 45  1  0  0  0
 35 68  1  0  0  0
 36 56  1  0  0  0
 36107  1  0  0  0
 37 39  1  0  0  0
 37 47  1  0  0  0
 37 66  1  0  0  0
 37108  1  0  0  0
 38 43  2  0  0  0
 38 46  1  0  0  0
 38 47  1  0  0  0
 39 64  1  0  0  0
 39 67  2  0  0  0
 40 52  1  0  0  0
 40 53  2  0  0  0
 40 58  1  0  0  0
 41109  1  0  0  0
 41110  1  0  0  0
 41111  1  0  0  0
 41 48  1  0  0  0
 42 43  1  0  0  0
 42 66  1  0  0  0
 42112  1  0  0  0
 42113  1  0  0  0
 43 44  1  0  0  0
 44114  1  0  0  0
 45 46  2  0  0  0
 45115  1  0  0  0
 46116  1  0  0  0
 47117  1  0  0  0
 47118  1  0  0  0
 48 56  1  0  0  0
 48 65  1  0  0  0
 48119  1  0  0  0
 49 50  1  0  0  0
 49 53  1  0  0  0
 49 64  1  0  0  0
 49120  1  0  0  0
 50 51  1  0  0  0
 50121  1  0  0  0
 50122  1  0  0  0
 51 52  1  0  0  0
 51123  1  0  0  0
 51124  1  0  0  0
 52125  1  0  0  0
 52126  1  0  0  0
 53 54  1  0  0  0
 54 55  2  0  0  0
 54127  1  0  0  0
 55 57  1  0  0  0
 55128  1  0  0  0
 56 69  2  0  0  0
 57 58  2  0  0  0
 57129  1  0  0  0
 58130  1  0  0  0
 59 60  1  0  0  0
 59 61  1  0  0  0
 59 62  1  0  0  0
 60131  1  0  0  0
 60132  1  0  0  0
 60133  1  0  0  0
 61134  1  0  0  0
 61135  1  0  0  0
 61136  1  0  0  0
 62137  1  0  0  0
 62138  1  0  0  0
 62139  1  0  0  0
 63 65  1  0  0  0
 63140  1  0  0  0
 63141  1  0  0  0
 63142  1  0  0  0
 64143  1  0  0  0
 65144  1  0  0  0
 68 83  1  0  0  0
 71 73  2  0  0  0
 71 75  1  0  0  0
 71145  1  0  0  0
 72 74  1  0  0  0
 72 75  2  0  0  0
 72146  1  0  0  0
 73 76  1  0  0  0
 73147  1  0  0  0
 74 76  2  0  0  0
 74148  1  0  0  0
 75 82  1  0  0  0
 76 84  1  0  0  0
 77 78  1  0  0  0
 77 80  1  0  0  0
 77149  1  0  0  0
 77150  1  0  0  0
 78 85  1  0  0  0
 78151  1  0  0  0
 78152  1  0  0  0
 79 80  1  0  0  0
 79 85  1  0  0  0
 79153  1  0  0  0
 79154  1  0  0  0
 80 83  1  0  0  0
 80155  1  0  0  0
 81 84  1  0  0  0
 81156  1  0  0  0
 81157  1  0  0  0
 81158  1  0  0  0
 82159  1  0  0  0
 82160  1  0  0  0
 82 85  1  0  0  0
 83161  1  0  0  0
 83162  1  0  0  0
 85163  1  0  0  0
M  CHG  1  85   1
M  ISO  4   1 100  68 101  83 101  84 100
M  END
> <chiral flag>
0

> <version>
0

> <s_m_source_file>
/data/baiqing/PycharmProjects/Reinvent-master-3.2/result/LINK_invent/BTK/process_docking_weight1_custom_product_contain_oxygen_bond_distance_aromatic_linkinvent_7_9_3/rearranged_h_0015.sdf

> <i_m_source_file_index>
30

> <r_mmod_Potential_Energy-OPLS-2005>
75.7982635498047

> <r_mmod_Stretch_Energy-OPLS-2005>
40.2713966369629

> <r_mmod_Bend_Energy-OPLS-2005>
120.519744873047

> <r_mmod_Torsional_Energy-OPLS-2005>
358.195892333984

> <r_mmod_Improper_Torsional_Energy-OPLS-2005>
2.79902100563049

> <r_mmod_Van_der_Waal_Energy-OPLS-2005>
171.538558959961

> <r_mmod_Electrostatic_Energy-OPLS-2005>
-198.635848999023

> <r_mmod_Solvation_Energy-OPLS-2005>
-431.939239501953

> <b_mmod_Minimization_Converged-OPLS-2005>
0

> <r_mmod_RMS_Derivative-OPLS-2005>
1.80602955818176

$$$$
30
                    3D
 Structure written by MMmdl.
178186  0  0  1  0            999 V2000
  -30.9712  -14.2999   20.0889 C   0  0  0  0  0  0
  -30.3161  -12.1054   19.3259 C   0  0  0  0  0  0
  -29.3959  -12.3066   18.1226 C   0  0  0  0  0  0
  -27.9398  -12.3412   18.6040 C   0  0  0  0  0  0
  -27.6737  -13.2188   19.8656 C   0  0  2  0  0  0
  -28.8186  -13.1366   20.9270 C   0  0  0  0  0  0
  -25.2708  -13.8220   20.5871 C   0  0  0  0  0  0
  -24.1926  -13.0483   20.9271 C   0  0  0  0  0  0
  -24.6494  -11.6955   20.8875 C   0  0  0  0  0  0
  -23.9122  -10.4320   21.0450 C   0  0  0  0  0  0
  -24.3638   -9.4209   21.9212 C   0  0  0  0  0  0
  -23.6295   -8.2252   22.0768 C   0  0  0  0  0  0
  -22.4282   -8.0306   21.3549 C   0  0  0  0  0  0
  -21.9942   -9.0292   20.4658 C   0  0  0  0  0  0
  -22.7295  -10.2166   20.3081 C   0  0  0  0  0  0
  -21.6856   -6.0743   22.5263 C   0  0  0  0  0  0
  -21.4016   -6.5644   23.8192 C   0  0  0  0  0  0
  -21.3656   -5.6795   24.9157 C   0  0  0  0  0  0
  -21.6038   -4.3059   24.7210 C   0  0  0  0  0  0
  -21.8821   -3.8150   23.4331 C   0  0  0  0  0  0
  -21.9195   -4.6968   22.3387 C   0  0  0  0  0  0
  -22.7911  -13.5250   21.1831 C   0  0  0  0  0  0
  -22.1668   -4.2156   21.0966 F   0  0  0  0  0  0
  -21.5618   -3.4538   25.7721 F   0  0  0  0  0  0
  -30.1083  -13.2488   20.2038 N   0  0  0  0  0  0
  -26.3262  -12.9443   20.3806 N   0  0  0  0  0  0
  -25.9491  -11.6590   20.6167 N   0  0  0  0  0  0
  -22.0528  -12.8238   22.0361 N   0  0  0  0  0  0
  -25.4342  -15.1929   20.4135 N   0  0  0  0  0  0
  -31.5785  -14.8369   20.9845 O   0  0  0  0  0  0
  -21.6650   -6.8892   21.4230 O   0  0  0  0  0  0
  -22.3601  -14.5552   20.6669 O   0  0  0  0  0  0
  -24.6112  -31.8703   23.2132 C   0  0  0  0  0  0
  -25.9022  -32.4835   23.8413 C   0  0  1  0  0  0
  -27.2325  -27.4696   20.0880 C   0  0  0  0  0  0
  -25.5891  -33.8632   24.2347 N   0  0  0  0  0  0
  -23.3959  -30.4953   21.5536 C   0  0  2  0  0  0
  -24.8402  -28.9673   20.1148 C   0  0  0  0  0  0
  -22.7389  -29.4672   22.5015 C   0  0  0  0  0  0
  -18.0263  -28.1374   22.8500 C   0  0  0  0  0  0
  -24.1481  -36.7317   23.2638 C   0  0  0  0  0  0
  -25.9209  -30.8480   21.3591 C   0  0  0  0  0  0
  -25.9988  -29.4856   20.7065 C   0  0  0  0  0  0
  -27.1989  -28.7452   20.6872 C   0  0  0  0  0  0
  -26.0555  -26.9579   19.4922 C   0  0  0  0  0  0
  -24.8622  -27.7014   19.5058 C   0  0  0  0  0  0
  -23.6003  -29.8287   20.1674 C   0  0  0  0  0  0
  -25.4102  -36.3118   24.0341 C   0  0  1  0  0  0
  -20.5850  -28.3650   23.1331 C   0  0  2  0  0  0
  -20.6754  -26.9390   22.5418 C   0  0  0  0  0  0
  -19.5731  -26.6382   21.5214 C   0  0  0  0  0  0
  -18.1910  -26.7925   22.1623 C   0  0  0  0  0  0
  -19.1515  -28.8831   23.2914 C   0  0  0  0  0  0
  -18.9446  -30.1441   23.8916 C   0  0  0  0  0  0
  -17.6451  -30.6586   24.0569 C   0  0  0  0  0  0
  -25.9025  -34.9481   23.5140 C   0  0  0  0  0  0
  -16.5340  -29.9088   23.6329 C   0  0  0  0  0  0
  -16.7255  -28.6505   23.0354 C   0  0  0  0  0  0
  -26.4468  -31.6598   25.0721 C   0  0  0  0  0  0
  -25.3754  -31.3685   26.1483 C   0  0  0  0  0  0
  -27.0293  -30.3053   24.6052 C   0  0  0  0  0  0
  -27.6053  -32.4307   25.7483 C   0  0  0  0  0  0
  -27.5576  -37.1808   24.8469 C   0  0  0  0  0  0
  -21.4122  -29.3030   22.3754 N   0  0  0  0  0  0
  -26.4291  -37.3795   23.9413 N   0  0  0  0  0  0
  -24.6610  -31.0838   22.1013 N   0  0  0  0  0  0
  -23.4181  -28.8205   23.3032 O   0  0  0  0  0  0
  -28.4130  -26.7638   20.1035 O   0  0  0  0  0  0
  -26.5585  -34.8924   22.4700 O   0  0  0  0  0  0
  -23.5317  -32.1440   23.7555 O   0  0  0  0  0  0
  -31.2637  -18.0251   17.2101 C   0  0  0  0  0  0
  -29.0160  -17.1023   17.2382 C   0  0  0  0  0  0
  -31.7455  -16.8637   17.8402 C   0  0  0  0  0  0
  -29.4999  -15.9433   17.8741 C   0  0  0  0  0  0
  -29.8918  -18.1607   16.9217 C   0  0  0  0  0  0
  -30.8684  -15.8079   18.1980 C   0  0  0  0  0  0
  -29.5476  -21.7206   19.2979 C   0  0  0  0  0  0
  -31.9450  -22.9539   14.9242 C   0  0  0  0  0  0
  -28.0251  -19.7963   18.8635 C   0  0  0  0  0  0
  -32.7693  -14.2686   18.5205 C   0  0  0  0  0  0
  -29.3698  -19.4371   16.2754 C   0  0  0  0  0  0
  -31.5305  -21.7610   15.7958 C   0  0  0  0  0  0
  -29.5773  -24.7512   20.7876 C   0  0  0  0  0  0
  -29.4170  -23.2848   21.2318 C   0  0  0  0  0  0
  -30.0504  -21.8105   16.2307 C   0  0  0  0  0  0
  -28.2812  -25.3530   20.2288 C   0  0  0  0  0  0
  -28.7541  -20.9908   18.2022 C   0  0  2  0  0  0
  -28.8505  -22.4554   20.1712 N   0  0  0  0  0  0
  -31.3716  -14.6230   18.8297 N   0  0  0  0  0  0
  -29.6914  -20.6434   17.0870 N   0  3  1  0  0  0
  -30.7763  -21.6174   19.3408 O   0  0  0  0  0  0
  -31.3487  -11.9657   19.0123 H   0  0  0  0  0  0
  -30.0575  -11.1810   19.8453 H   0  0  0  0  0  0
  -29.5199  -11.4736   17.4293 H   0  0  0  0  0  0
  -29.6442  -13.1918   17.5430 H   0  0  0  0  0  0
  -27.6753  -11.3053   18.8167 H   0  0  0  0  0  0
  -27.2834  -12.6504   17.7890 H   0  0  0  0  0  0
  -27.6594  -14.2503   19.5287 H   0  0  0  0  0  0
  -28.7763  -12.1962   21.4789 H   0  0  0  0  0  0
  -28.7230  -13.9378   21.6612 H   0  0  0  0  0  0
  -25.2779   -9.5645   22.4803 H   0  0  0  0  0  0
  -23.9985   -7.4624   22.7478 H   0  0  0  0  0  0
  -21.0880   -8.8821   19.8940 H   0  0  0  0  0  0
  -22.3775  -10.9710   19.6179 H   0  0  0  0  0  0
  -21.2016   -7.6150   23.9705 H   0  0  0  0  0  0
  -21.1471   -6.0528   25.9063 H   0  0  0  0  0  0
  -22.0602   -2.7617   23.2829 H   0  0  0  0  0  0
  -22.4140  -11.9891   22.4740 H   0  0  0  0  0  0
  -21.1136  -13.1245   22.2542 H   0  0  0  0  0  0
  -24.6673  -15.8491   20.5131 H   0  0  0  0  0  0
  -26.3046  -15.6390   20.1524 H   0  0  0  0  0  0
  -26.7093  -32.5556   23.1181 H   0  0  0  0  0  0
  -25.0076  -33.9810   25.0515 H   0  0  0  0  0  0
  -22.6823  -31.3108   21.4173 H   0  0  0  0  0  0
  -23.3739  -35.9652   23.3312 H   0  0  0  0  0  0
  -24.3573  -36.8920   22.2048 H   0  0  0  0  0  0
  -23.7236  -37.6525   23.6647 H   0  0  0  0  0  0
  -26.0243  -31.6132   20.5887 H   0  0  0  0  0  0
  -26.8130  -30.9048   21.9706 H   0  0  0  0  0  0
  -28.0956  -29.1421   21.1427 H   0  0  0  0  0  0
  -26.0467  -25.9920   19.0083 H   0  0  0  0  0  0
  -23.9711  -27.2982   19.0447 H   0  0  0  0  0  0
  -23.7012  -30.6037   19.4063 H   0  0  0  0  0  0
  -22.7260  -29.2440   19.8758 H   0  0  0  0  0  0
  -25.1274  -36.1991   25.0832 H   0  0  0  0  0  0
  -20.9943  -28.3207   24.1447 H   0  0  0  0  0  0
  -20.5665  -26.2253   23.3598 H   0  0  0  0  0  0
  -21.6626  -26.7440   22.1199 H   0  0  0  0  0  0
  -19.6893  -25.6298   21.1231 H   0  0  0  0  0  0
  -19.6681  -27.3205   20.6755 H   0  0  0  0  0  0
  -17.4185  -26.6692   21.4018 H   0  0  0  0  0  0
  -18.0299  -26.0054   22.9001 H   0  0  0  0  0  0
  -19.7926  -30.7257   24.2286 H   0  0  0  0  0  0
  -17.5008  -31.6271   24.5160 H   0  0  0  0  0  0
  -15.5346  -30.3001   23.7647 H   0  0  0  0  0  0
  -15.8650  -28.0836   22.7058 H   0  0  0  0  0  0
  -24.5928  -30.7027   25.7825 H   0  0  0  0  0  0
  -24.8942  -32.2832   26.4954 H   0  0  0  0  0  0
  -25.8125  -30.8844   27.0225 H   0  0  0  0  0  0
  -26.2813  -29.6813   24.1144 H   0  0  0  0  0  0
  -27.4135  -29.7285   25.4474 H   0  0  0  0  0  0
  -27.8614  -30.4393   23.9136 H   0  0  0  0  0  0
  -27.2683  -33.3604   26.2083 H   0  0  0  0  0  0
  -28.3858  -32.6872   25.0306 H   0  0  0  0  0  0
  -28.0723  -31.8411   26.5383 H   0  0  0  0  0  0
  -28.2604  -38.0093   24.7508 H   0  0  0  0  0  0
  -28.1064  -36.2629   24.6310 H   0  0  0  0  0  0
  -27.2295  -37.1475   25.8871 H   0  0  0  0  0  0
  -20.9273  -29.8771   21.6996 H   0  0  0  0  0  0
  -26.0186  -38.2874   24.1413 H   0  0  0  0  0  0
  -31.9624  -18.8109   16.9571 H   0  0  0  0  0  0
  -27.9631  -17.1737   17.0009 H   0  0  0  0  0  0
  -32.8033  -16.8163   18.0508 H   0  0  0  0  0  0
  -28.8023  -15.1534   18.0783 H   0  0  0  0  0  0
  -32.9996  -22.8841   14.6541 H   0  0  0  0  0  0
  -31.8025  -23.9007   15.4468 H   0  0  0  0  0  0
  -31.3696  -22.9893   13.9986 H   0  0  0  0  0  0
  -27.3943  -20.1273   19.6895 H   0  0  0  0  0  0
  -28.7266  -19.0714   19.2794 H   0  0  0  0  0  0
  -27.3598  -19.2819   18.1718 H   0  0  0  0  0  0
  -32.9426  -14.2796   17.4437 H   0  0  0  0  0  0
  -33.0460  -13.2764   18.8766 H   0  0  0  0  0  0
  -33.4685  -14.9611   18.9896 H   0  0  0  0  0  0
  -28.2991  -19.3819   16.0738 H   0  0  0  0  0  0
  -29.8408  -19.4964   15.2932 H   0  0  0  0  0  0
  -32.1706  -21.7376   16.6800 H   0  0  0  0  0  0
  -31.7375  -20.8421   15.2466 H   0  0  0  0  0  0
  -30.3700  -24.8360   20.0436 H   0  0  0  0  0  0
  -29.9047  -25.3372   21.6472 H   0  0  0  0  0  0
  -28.7480  -23.2348   22.0920 H   0  0  0  0  0  0
  -30.3748  -22.8890   21.5749 H   0  0  0  0  0  0
  -29.3877  -21.8606   15.3648 H   0  0  0  0  0  0
  -29.8939  -22.7481   16.7658 H   0  0  0  0  0  0
  -27.4609  -25.1061   20.9054 H   0  0  0  0  0  0
  -28.0526  -24.9167   19.2557 H   0  0  0  0  0  0
  -27.9917  -21.6667   17.8109 H   0  0  0  0  0  0
  -27.8417  -22.4433   20.0876 H   0  0  0  0  0  0
  -30.5368  -20.4351   17.6021 H   0  0  0  0  0  0
  1 25  1  0  0  0
  1 30  2  0  0  0
  1 89  1  0  0  0
  2  3  1  0  0  0
  2 25  1  0  0  0
  2 92  1  0  0  0
  2 93  1  0  0  0
  3  4  1  0  0  0
  3 94  1  0  0  0
  3 95  1  0  0  0
  4  5  1  0  0  0
  4 96  1  0  0  0
  4 97  1  0  0  0
  5  6  1  0  0  0
  5 26  1  0  0  0
  5 98  1  0  0  0
  6 25  1  0  0  0
  6 99  1  0  0  0
  6100  1  0  0  0
  7  8  2  0  0  0
  7 26  1  0  0  0
  7 29  1  0  0  0
  8  9  1  0  0  0
  8 22  1  0  0  0
  9 10  1  0  0  0
  9 27  2  0  0  0
 10 11  2  0  0  0
 10 15  1  0  0  0
 11 12  1  0  0  0
 11101  1  0  0  0
 12 13  2  0  0  0
 12102  1  0  0  0
 13 14  1  0  0  0
 13 31  1  0  0  0
 14 15  2  0  0  0
 14103  1  0  0  0
 15104  1  0  0  0
 16 17  2  0  0  0
 16 21  1  0  0  0
 16 31  1  0  0  0
 17 18  1  0  0  0
 17105  1  0  0  0
 18 19  2  0  0  0
 18106  1  0  0  0
 19 20  1  0  0  0
 19 24  1  0  0  0
 20 21  2  0  0  0
 20107  1  0  0  0
 21 23  1  0  0  0
 22 28  1  0  0  0
 22 32  2  0  0  0
 26 27  1  0  0  0
 28108  1  0  0  0
 28109  1  0  0  0
 29110  1  0  0  0
 29111  1  0  0  0
 33 34  1  0  0  0
 33 66  1  0  0  0
 33 70  2  0  0  0
 34 36  1  0  0  0
 34 59  1  0  0  0
 34112  1  0  0  0
 35 44  2  0  0  0
 35 45  1  0  0  0
 35 68  1  0  0  0
 36 56  1  0  0  0
 36113  1  0  0  0
 37 39  1  0  0  0
 37 47  1  0  0  0
 37 66  1  0  0  0
 37114  1  0  0  0
 38 43  2  0  0  0
 38 46  1  0  0  0
 38 47  1  0  0  0
 39 64  1  0  0  0
 39 67  2  0  0  0
 40 52  1  0  0  0
 40 53  2  0  0  0
 40 58  1  0  0  0
 41115  1  0  0  0
 41116  1  0  0  0
 41117  1  0  0  0
 41 48  1  0  0  0
 42 43  1  0  0  0
 42 66  1  0  0  0
 42118  1  0  0  0
 42119  1  0  0  0
 43 44  1  0  0  0
 44120  1  0  0  0
 45 46  2  0  0  0
 45121  1  0  0  0
 46122  1  0  0  0
 47123  1  0  0  0
 47124  1  0  0  0
 48 56  1  0  0  0
 48 65  1  0  0  0
 48125  1  0  0  0
 49 50  1  0  0  0
 49 53  1  0  0  0
 49 64  1  0  0  0
 49126  1  0  0  0
 50 51  1  0  0  0
 50127  1  0  0  0
 50128  1  0  0  0
 51 52  1  0  0  0
 51129  1  0  0  0
 51130  1  0  0  0
 52131  1  0  0  0
 52132  1  0  0  0
 53 54  1  0  0  0
 54 55  2  0  0  0
 54133  1  0  0  0
 55 57  1  0  0  0
 55134  1  0  0  0
 56 69  2  0  0  0
 57 58  2  0  0  0
 57135  1  0  0  0
 58136  1  0  0  0
 59 60  1  0  0  0
 59 61  1  0  0  0
 59 62  1  0  0  0
 60137  1  0  0  0
 60138  1  0  0  0
 60139  1  0  0  0
 61140  1  0  0  0
 61141  1  0  0  0
 61142  1  0  0  0
 62143  1  0  0  0
 62144  1  0  0  0
 62145  1  0  0  0
 63 65  1  0  0  0
 63146  1  0  0  0
 63147  1  0  0  0
 63148  1  0  0  0
 64149  1  0  0  0
 65150  1  0  0  0
 68 86  1  0  0  0
 71 73  2  0  0  0
 71 75  1  0  0  0
 71151  1  0  0  0
 72 74  1  0  0  0
 72 75  2  0  0  0
 72152  1  0  0  0
 73 76  1  0  0  0
 73153  1  0  0  0
 74 76  2  0  0  0
 74154  1  0  0  0
 75 81  1  0  0  0
 76 89  1  0  0  0
 77 87  1  0  0  0
 77 88  1  0  0  0
 77 91  2  0  0  0
 78 82  1  0  0  0
 78155  1  0  0  0
 78156  1  0  0  0
 78157  1  0  0  0
 79158  1  0  0  0
 79159  1  0  0  0
 79160  1  0  0  0
 79 87  1  0  0  0
 80 89  1  0  0  0
 80161  1  0  0  0
 80162  1  0  0  0
 80163  1  0  0  0
 81164  1  0  0  0
 81165  1  0  0  0
 81 90  1  0  0  0
 82 85  1  0  0  0
 82166  1  0  0  0
 82167  1  0  0  0
 83 84  1  0  0  0
 83 86  1  0  0  0
 83168  1  0  0  0
 83169  1  0  0  0
 84 88  1  0  0  0
 84170  1  0  0  0
 84171  1  0  0  0
 85 90  1  0  0  0
 85172  1  0  0  0
 85173  1  0  0  0
 86174  1  0  0  0
 86175  1  0  0  0
 87 90  1  0  0  0
 87176  1  0  0  0
 88177  1  0  0  0
 90178  1  0  0  0
M  CHG  1  90   1
M  ISO  4   1 100  68 101  86 101  89 100
M  END
> <chiral flag>
0

> <version>
0

> <s_m_source_file>
/data/baiqing/PycharmProjects/Reinvent-master-3.2/result/LINK_invent/BTK/process_docking_weight1_custom_product_contain_oxygen_bond_distance_aromatic_linkinvent_7_9_3/rearranged_h_0015.sdf

> <i_m_source_file_index>
31

> <r_mmod_Potential_Energy-OPLS-2005>
136.414901733398

> <r_mmod_Stretch_Energy-OPLS-2005>
41.540340423584

> <r_mmod_Bend_Energy-OPLS-2005>
123.493644714355

> <r_mmod_Torsional_Energy-OPLS-2005>
347.327453613281

> <r_mmod_Improper_Torsional_Energy-OPLS-2005>
7.72571039199829

> <r_mmod_Van_der_Waal_Energy-OPLS-2005>
174.070251464844

> <r_mmod_Electrostatic_Energy-OPLS-2005>
-288.475708007812

> <r_mmod_Solvation_Energy-OPLS-2005>
-432.449462890625

> <b_mmod_Minimization_Converged-OPLS-2005>
0

> <r_mmod_RMS_Derivative-OPLS-2005>
1.31033253669739

$$$$
31
                    3D
 Structure written by MMmdl.
159167  0  0  1  0            999 V2000
  -30.6630  -14.4738   20.5996 C   0  0  0  0  0  0
  -30.4355  -12.3140   19.4136 C   0  0  0  0  0  0
  -29.4986  -12.5085   18.2018 C   0  0  0  0  0  0
  -28.0175  -12.3685   18.6113 C   0  0  0  0  0  0
  -27.6649  -13.1945   19.8765 C   0  0  2  0  0  0
  -28.7032  -12.9387   20.9915 C   0  0  0  0  0  0
  -25.2618  -13.8126   20.5646 C   0  0  0  0  0  0
  -24.1855  -13.0433   20.9168 C   0  0  0  0  0  0
  -24.6384  -11.6890   20.8729 C   0  0  0  0  0  0
  -23.9041  -10.4287   21.0401 C   0  0  0  0  0  0
  -24.3601   -9.4212   21.9185 C   0  0  0  0  0  0
  -23.6284   -8.2243   22.0757 C   0  0  0  0  0  0
  -22.4268   -8.0276   21.3539 C   0  0  0  0  0  0
  -21.9897   -9.0247   20.4645 C   0  0  0  0  0  0
  -22.7214  -10.2130   20.3053 C   0  0  0  0  0  0
  -21.6854   -6.0733   22.5279 C   0  0  0  0  0  0
  -21.4013   -6.5640   23.8212 C   0  0  0  0  0  0
  -21.3659   -5.6793   24.9174 C   0  0  0  0  0  0
  -21.6039   -4.3054   24.7228 C   0  0  0  0  0  0
  -21.8822   -3.8146   23.4350 C   0  0  0  0  0  0
  -21.9193   -4.6960   22.3401 C   0  0  0  0  0  0
  -22.7881  -13.5245   21.1833 C   0  0  0  0  0  0
  -22.1663   -4.2143   21.0978 F   0  0  0  0  0  0
  -21.5629   -3.4536   25.7744 F   0  0  0  0  0  0
  -30.0345  -13.2749   20.4521 N   0  0  0  0  0  0
  -26.3035  -12.9269   20.3338 N   0  0  0  0  0  0
  -25.9303  -11.6444   20.5737 N   0  0  0  0  0  0
  -22.0512  -12.8244   22.0389 N   0  0  0  0  0  0
  -25.4383  -15.1844   20.4027 N   0  0  0  0  0  0
  -31.7797  -14.7061   20.1238 O   0  0  0  0  0  0
  -21.6637   -6.8872   21.4237 O   0  0  0  0  0  0
  -22.3577  -14.5557   20.6685 O   0  0  0  0  0  0
  -24.6132  -31.8671   23.2078 C   0  0  0  0  0  0
  -25.9020  -32.4823   23.8375 C   0  0  1  0  0  0
  -27.2381  -27.4349   20.0977 C   0  0  0  0  0  0
  -25.5865  -33.8618   24.2302 N   0  0  0  0  0  0
  -23.4013  -30.4891   21.5498 C   0  0  2  0  0  0
  -24.8486  -28.9521   20.1190 C   0  0  0  0  0  0
  -22.7403  -29.4641   22.4993 C   0  0  0  0  0  0
  -18.0266  -28.1369   22.8495 C   0  0  0  0  0  0
  -24.1484  -36.7323   23.2636 C   0  0  0  0  0  0
  -25.9290  -30.8363   21.3582 C   0  0  0  0  0  0
  -26.0092  -29.4698   20.7069 C   0  0  0  0  0  0
  -27.2079  -28.7202   20.6877 C   0  0  0  0  0  0
  -26.0573  -26.9271   19.5111 C   0  0  0  0  0  0
  -24.8667  -27.6794   19.5202 C   0  0  0  0  0  0
  -23.6106  -29.8187   20.1662 C   0  0  0  0  0  0
  -25.4105  -36.3115   24.0332 C   0  0  1  0  0  0
  -20.5856  -28.3648   23.1325 C   0  0  2  0  0  0
  -20.6763  -26.9385   22.5426 C   0  0  0  0  0  0
  -19.5741  -26.6377   21.5217 C   0  0  0  0  0  0
  -18.1917  -26.7916   22.1625 C   0  0  0  0  0  0
  -19.1518  -28.8827   23.2907 C   0  0  0  0  0  0
  -18.9451  -30.1435   23.8915 C   0  0  0  0  0  0
  -17.6459  -30.6587   24.0556 C   0  0  0  0  0  0
  -25.9030  -34.9477   23.5122 C   0  0  0  0  0  0
  -16.5347  -29.9091   23.6316 C   0  0  0  0  0  0
  -16.7259  -28.6502   23.0345 C   0  0  0  0  0  0
  -26.4455  -31.6601   25.0697 C   0  0  0  0  0  0
  -25.3717  -31.3712   26.1444 C   0  0  0  0  0  0
  -27.0255  -30.3039   24.6041 C   0  0  0  0  0  0
  -27.6023  -32.4317   25.7475 C   0  0  0  0  0  0
  -27.5584  -37.1816   24.8457 C   0  0  0  0  0  0
  -21.4131  -29.3018   22.3739 N   0  0  0  0  0  0
  -26.4296  -37.3797   23.9406 N   0  0  0  0  0  0
  -24.6664  -31.0772   22.0982 N   0  0  0  0  0  0
  -23.4180  -28.8184   23.3033 O   0  0  0  0  0  0
  -28.4201  -26.7232   20.0836 O   0  0  0  0  0  0
  -26.5614  -34.8941   22.4700 O   0  0  0  0  0  0
  -23.5331  -32.1418   23.7487 O   0  0  0  0  0  0
  -28.8695  -18.9699   21.6864 C   0  0  0  0  0  0
  -31.2790  -18.9331   21.3798 C   0  0  0  0  0  0
  -28.8336  -17.5690   21.5127 C   0  0  0  0  0  0
  -31.2438  -17.5312   21.2002 C   0  0  0  0  0  0
  -30.0966  -19.6655   21.6428 C   0  0  0  0  0  0
  -30.0172  -16.8298   21.2797 C   0  0  0  0  0  0
  -30.6160  -21.9426   19.7027 C   0  0  0  0  0  0
  -30.1658  -21.1563   22.0104 C   0  0  0  0  0  0
  -29.7812  -24.7728   20.5643 C   0  0  0  0  0  0
  -29.9523  -23.5426   21.5097 C   0  0  0  0  0  0
  -28.3491  -25.3122   20.3457 C   0  0  0  0  0  0
  -29.8989  -15.4079   21.2059 N   0  0  0  0  0  0
  -29.8359  -22.1554   20.9470 N   0  3  1  0  0  0
  -31.4766  -12.4421   19.1116 H   0  0  0  0  0  0
  -30.3597  -11.2955   19.7965 H   0  0  0  0  0  0
  -29.7377  -11.7843   17.4223 H   0  0  0  0  0  0
  -29.6657  -13.4937   17.7635 H   0  0  0  0  0  0
  -27.8228  -11.3109   18.7943 H   0  0  0  0  0  0
  -27.3701  -12.6558   17.7818 H   0  0  0  0  0  0
  -27.7182  -14.2456   19.5951 H   0  0  0  0  0  0
  -28.6873  -11.8882   21.2871 H   0  0  0  0  0  0
  -28.4519  -13.4895   21.8986 H   0  0  0  0  0  0
  -25.2748   -9.5692   22.4756 H   0  0  0  0  0  0
  -23.9997   -7.4636   22.7480 H   0  0  0  0  0  0
  -21.0831   -8.8756   19.8952 H   0  0  0  0  0  0
  -22.3671  -10.9666   19.6162 H   0  0  0  0  0  0
  -21.2008   -7.6151   23.9710 H   0  0  0  0  0  0
  -21.1476   -6.0526   25.9075 H   0  0  0  0  0  0
  -22.0602   -2.7607   23.2852 H   0  0  0  0  0  0
  -22.4119  -11.9901   22.4771 H   0  0  0  0  0  0
  -21.1131  -13.1279   22.2578 H   0  0  0  0  0  0
  -24.6705  -15.8409   20.4939 H   0  0  0  0  0  0
  -26.2806  -15.6100   20.0376 H   0  0  0  0  0  0
  -26.7091  -32.5549   23.1139 H   0  0  0  0  0  0
  -24.9971  -33.9772   25.0418 H   0  0  0  0  0  0
  -22.6892  -31.3051   21.4092 H   0  0  0  0  0  0
  -23.3746  -35.9655   23.3299 H   0  0  0  0  0  0
  -24.3582  -36.8938   22.2050 H   0  0  0  0  0  0
  -23.7239  -37.6527   23.6659 H   0  0  0  0  0  0
  -26.0314  -31.6029   20.5891 H   0  0  0  0  0  0
  -26.8194  -30.8950   21.9722 H   0  0  0  0  0  0
  -28.1076  -29.1192   21.1375 H   0  0  0  0  0  0
  -26.0476  -25.9590   19.0316 H   0  0  0  0  0  0
  -23.9725  -27.2730   19.0671 H   0  0  0  0  0  0
  -23.7184  -30.5912   19.4035 H   0  0  0  0  0  0
  -22.7348  -29.2371   19.8740 H   0  0  0  0  0  0
  -25.1285  -36.1980   25.0824 H   0  0  0  0  0  0
  -20.9948  -28.3235   24.1439 H   0  0  0  0  0  0
  -20.5671  -26.2259   23.3617 H   0  0  0  0  0  0
  -21.6639  -26.7437   22.1211 H   0  0  0  0  0  0
  -19.6902  -25.6290   21.1235 H   0  0  0  0  0  0
  -19.6687  -27.3203   20.6759 H   0  0  0  0  0  0
  -17.4186  -26.6659   21.4025 H   0  0  0  0  0  0
  -18.0305  -26.0060   22.9024 H   0  0  0  0  0  0
  -19.7939  -30.7223   24.2315 H   0  0  0  0  0  0
  -17.5025  -31.6276   24.5143 H   0  0  0  0  0  0
  -15.5350  -30.3004   23.7633 H   0  0  0  0  0  0
  -15.8654  -28.0834   22.7050 H   0  0  0  0  0  0
  -24.5897  -30.7044   25.7784 H   0  0  0  0  0  0
  -24.8906  -32.2875   26.4878 H   0  0  0  0  0  0
  -25.8070  -30.8899   27.0208 H   0  0  0  0  0  0
  -26.2768  -29.6845   24.1084 H   0  0  0  0  0  0
  -27.4000  -29.7229   25.4476 H   0  0  0  0  0  0
  -27.8622  -30.4335   23.9173 H   0  0  0  0  0  0
  -27.2612  -33.3600   26.2072 H   0  0  0  0  0  0
  -28.3835  -32.6904   25.0313 H   0  0  0  0  0  0
  -28.0679  -31.8421   26.5383 H   0  0  0  0  0  0
  -28.2598  -38.0124   24.7528 H   0  0  0  0  0  0
  -28.1094  -36.2659   24.6259 H   0  0  0  0  0  0
  -27.2306  -37.1421   25.8862 H   0  0  0  0  0  0
  -20.9288  -29.8751   21.6970 H   0  0  0  0  0  0
  -26.0192  -38.2871   24.1437 H   0  0  0  0  0  0
  -27.9512  -19.4993   21.9020 H   0  0  0  0  0  0
  -32.2353  -19.4382   21.3593 H   0  0  0  0  0  0
  -27.8798  -17.0642   21.5855 H   0  0  0  0  0  0
  -32.1759  -17.0057   21.0456 H   0  0  0  0  0  0
  -30.5278  -20.9177   19.3427 H   0  0  0  0  0  0
  -31.6749  -22.1535   19.8552 H   0  0  0  0  0  0
  -30.2494  -22.5730   18.8943 H   0  0  0  0  0  0
  -31.1698  -21.3595   22.3869 H   0  0  0  0  0  0
  -29.5000  -21.3154   22.8607 H   0  0  0  0  0  0
  -30.3000  -24.6564   19.6150 H   0  0  0  0  0  0
  -30.3245  -25.5806   21.0566 H   0  0  0  0  0  0
  -29.2749  -23.6457   22.3586 H   0  0  0  0  0  0
  -30.9524  -23.6238   21.9385 H   0  0  0  0  0  0
  -27.7410  -25.1472   21.2376 H   0  0  0  0  0  0
  -27.8804  -24.7767   19.5196 H   0  0  0  0  0  0
  -29.0125  -15.0397   21.5148 H   0  0  0  0  0  0
  -28.8678  -22.0032   20.7073 H   0  0  0  0  0  0
  1 25  1  0  0  0
  1 30  2  0  0  0
  1 82  1  0  0  0
  2  3  1  0  0  0
  2 25  1  0  0  0
  2 84  1  0  0  0
  2 85  1  0  0  0
  3  4  1  0  0  0
  3 86  1  0  0  0
  3 87  1  0  0  0
  4  5  1  0  0  0
  4 88  1  0  0  0
  4 89  1  0  0  0
  5  6  1  0  0  0
  5 26  1  0  0  0
  5 90  1  0  0  0
  6 25  1  0  0  0
  6 91  1  0  0  0
  6 92  1  0  0  0
  7  8  2  0  0  0
  7 26  1  0  0  0
  7 29  1  0  0  0
  8  9  1  0  0  0
  8 22  1  0  0  0
  9 10  1  0  0  0
  9 27  2  0  0  0
 10 11  2  0  0  0
 10 15  1  0  0  0
 11 12  1  0  0  0
 11 93  1  0  0  0
 12 13  2  0  0  0
 12 94  1  0  0  0
 13 14  1  0  0  0
 13 31  1  0  0  0
 14 15  2  0  0  0
 14 95  1  0  0  0
 15 96  1  0  0  0
 16 17  2  0  0  0
 16 21  1  0  0  0
 16 31  1  0  0  0
 17 18  1  0  0  0
 17 97  1  0  0  0
 18 19  2  0  0  0
 18 98  1  0  0  0
 19 20  1  0  0  0
 19 24  1  0  0  0
 20 21  2  0  0  0
 20 99  1  0  0  0
 21 23  1  0  0  0
 22 28  1  0  0  0
 22 32  2  0  0  0
 26 27  1  0  0  0
 28100  1  0  0  0
 28101  1  0  0  0
 29102  1  0  0  0
 29103  1  0  0  0
 33 34  1  0  0  0
 33 66  1  0  0  0
 33 70  2  0  0  0
 34 36  1  0  0  0
 34 59  1  0  0  0
 34104  1  0  0  0
 35 44  2  0  0  0
 35 45  1  0  0  0
 35 68  1  0  0  0
 36 56  1  0  0  0
 36105  1  0  0  0
 37 39  1  0  0  0
 37 47  1  0  0  0
 37 66  1  0  0  0
 37106  1  0  0  0
 38 43  2  0  0  0
 38 46  1  0  0  0
 38 47  1  0  0  0
 39 64  1  0  0  0
 39 67  2  0  0  0
 40 52  1  0  0  0
 40 53  2  0  0  0
 40 58  1  0  0  0
 41107  1  0  0  0
 41108  1  0  0  0
 41109  1  0  0  0
 41 48  1  0  0  0
 42 43  1  0  0  0
 42 66  1  0  0  0
 42110  1  0  0  0
 42111  1  0  0  0
 43 44  1  0  0  0
 44112  1  0  0  0
 45 46  2  0  0  0
 45113  1  0  0  0
 46114  1  0  0  0
 47115  1  0  0  0
 47116  1  0  0  0
 48 56  1  0  0  0
 48 65  1  0  0  0
 48117  1  0  0  0
 49 50  1  0  0  0
 49 53  1  0  0  0
 49 64  1  0  0  0
 49118  1  0  0  0
 50 51  1  0  0  0
 50119  1  0  0  0
 50120  1  0  0  0
 51 52  1  0  0  0
 51121  1  0  0  0
 51122  1  0  0  0
 52123  1  0  0  0
 52124  1  0  0  0
 53 54  1  0  0  0
 54 55  2  0  0  0
 54125  1  0  0  0
 55 57  1  0  0  0
 55126  1  0  0  0
 56 69  2  0  0  0
 57 58  2  0  0  0
 57127  1  0  0  0
 58128  1  0  0  0
 59 60  1  0  0  0
 59 61  1  0  0  0
 59 62  1  0  0  0
 60129  1  0  0  0
 60130  1  0  0  0
 60131  1  0  0  0
 61132  1  0  0  0
 61133  1  0  0  0
 61134  1  0  0  0
 62135  1  0  0  0
 62136  1  0  0  0
 62137  1  0  0  0
 63 65  1  0  0  0
 63138  1  0  0  0
 63139  1  0  0  0
 63140  1  0  0  0
 64141  1  0  0  0
 65142  1  0  0  0
 68 81  1  0  0  0
 71 73  2  0  0  0
 71 75  1  0  0  0
 71143  1  0  0  0
 72 74  1  0  0  0
 72 75  2  0  0  0
 72144  1  0  0  0
 73 76  1  0  0  0
 73145  1  0  0  0
 74 76  2  0  0  0
 74146  1  0  0  0
 75 78  1  0  0  0
 76 82  1  0  0  0
 77147  1  0  0  0
 77148  1  0  0  0
 77149  1  0  0  0
 77 83  1  0  0  0
 78 83  1  0  0  0
 78150  1  0  0  0
 78151  1  0  0  0
 79 80  1  0  0  0
 79 81  1  0  0  0
 79152  1  0  0  0
 79153  1  0  0  0
 80 83  1  0  0  0
 80154  1  0  0  0
 80155  1  0  0  0
 81156  1  0  0  0
 81157  1  0  0  0
 82158  1  0  0  0
 83159  1  0  0  0
M  CHG  1  83   1
M  ISO  4   1 100  68 101  81 101  82 100
M  END
> <chiral flag>
0

> <version>
0

> <s_m_source_file>
/data/baiqing/PycharmProjects/Reinvent-master-3.2/result/LINK_invent/BTK/process_docking_weight1_custom_product_contain_oxygen_bond_distance_aromatic_linkinvent_7_9_3/rearranged_h_0015.sdf

> <i_m_source_file_index>
32

> <r_mmod_Potential_Energy-OPLS-2005>
-169.5888671875

> <r_mmod_Stretch_Energy-OPLS-2005>
39.6837730407715

> <r_mmod_Bend_Energy-OPLS-2005>
116.625686645508

> <r_mmod_Torsional_Energy-OPLS-2005>
224.905197143555

> <r_mmod_Improper_Torsional_Energy-OPLS-2005>
4.02819395065308

> <r_mmod_Van_der_Waal_Energy-OPLS-2005>
155.463958740234

> <r_mmod_Electrostatic_Energy-OPLS-2005>
-270.951782226562

> <r_mmod_Solvation_Energy-OPLS-2005>
-451.460754394531

> <b_mmod_Minimization_Converged-OPLS-2005>
0

> <r_mmod_RMS_Derivative-OPLS-2005>
1.51259875297546

$$$$
32
                    3D
 Structure written by MMmdl.
176185  0  0  1  0            999 V2000
  -30.7369  -14.3917   20.6012 C   0  0  0  0  0  0
  -30.4238  -12.2748   19.3864 C   0  0  0  0  0  0
  -29.4930  -12.5265   18.1838 C   0  0  0  0  0  0
  -28.0131  -12.3915   18.5970 C   0  0  0  0  0  0
  -27.6717  -13.2004   19.8779 C   0  0  2  0  0  0
  -28.7155  -12.9259   20.9866 C   0  0  0  0  0  0
  -25.2640  -13.8129   20.5653 C   0  0  0  0  0  0
  -24.1869  -13.0443   20.9138 C   0  0  0  0  0  0
  -24.6384  -11.6900   20.8669 C   0  0  0  0  0  0
  -23.9014  -10.4289   21.0363 C   0  0  0  0  0  0
  -24.3571   -9.4232   21.9162 C   0  0  0  0  0  0
  -23.6268   -8.2251   22.0755 C   0  0  0  0  0  0
  -22.4268   -8.0256   21.3539 C   0  0  0  0  0  0
  -21.9874   -9.0238   20.4649 C   0  0  0  0  0  0
  -22.7182  -10.2125   20.3033 C   0  0  0  0  0  0
  -21.6859   -6.0717   22.5270 C   0  0  0  0  0  0
  -21.4014   -6.5629   23.8204 C   0  0  0  0  0  0
  -21.3658   -5.6766   24.9173 C   0  0  0  0  0  0
  -21.6048   -4.3035   24.7211 C   0  0  0  0  0  0
  -21.8822   -3.8137   23.4327 C   0  0  0  0  0  0
  -21.9199   -4.6943   22.3395 C   0  0  0  0  0  0
  -22.7900  -13.5286   21.1785 C   0  0  0  0  0  0
  -22.1676   -4.2136   21.0968 F   0  0  0  0  0  0
  -21.5636   -3.4506   25.7713 F   0  0  0  0  0  0
  -30.0582  -13.2246   20.4470 N   0  0  0  0  0  0
  -26.3086  -12.9297   20.3359 N   0  0  0  0  0  0
  -25.9309  -11.6462   20.5702 N   0  0  0  0  0  0
  -22.0465  -12.8320   22.0319 N   0  0  0  0  0  0
  -25.4344  -15.1842   20.4078 N   0  0  0  0  0  0
  -31.8065  -14.6326   20.0361 O   0  0  0  0  0  0
  -21.6646   -6.8854   21.4235 O   0  0  0  0  0  0
  -22.3625  -14.5588   20.6595 O   0  0  0  0  0  0
  -24.6106  -31.8708   23.2129 C   0  0  0  0  0  0
  -25.9023  -32.4828   23.8398 C   0  0  1  0  0  0
  -27.2346  -27.4674   20.0804 C   0  0  0  0  0  0
  -25.5896  -33.8630   24.2330 N   0  0  0  0  0  0
  -23.3951  -30.4903   21.5557 C   0  0  2  0  0  0
  -24.8448  -28.9591   20.1183 C   0  0  0  0  0  0
  -22.7385  -29.4642   22.5075 C   0  0  0  0  0  0
  -18.0241  -28.1337   22.8492 C   0  0  0  0  0  0
  -24.1471  -36.7307   23.2630 C   0  0  0  0  0  0
  -25.9220  -30.8425   21.3644 C   0  0  0  0  0  0
  -26.0029  -29.4807   20.7089 C   0  0  0  0  0  0
  -27.2056  -28.7418   20.6884 C   0  0  0  0  0  0
  -26.0597  -26.9437   19.5112 C   0  0  0  0  0  0
  -24.8672  -27.6873   19.5164 C   0  0  0  0  0  0
  -23.5997  -29.8135   20.1746 C   0  0  0  0  0  0
  -25.4093  -36.3108   24.0332 C   0  0  1  0  0  0
  -20.5832  -28.3597   23.1382 C   0  0  2  0  0  0
  -20.6709  -26.9339   22.5459 C   0  0  0  0  0  0
  -19.5720  -26.6352   21.5220 C   0  0  0  0  0  0
  -18.1887  -26.7914   22.1580 C   0  0  0  0  0  0
  -19.1486  -28.8785   23.2918 C   0  0  0  0  0  0
  -18.9410  -30.1414   23.8890 C   0  0  0  0  0  0
  -17.6421  -30.6582   24.0502 C   0  0  0  0  0  0
  -25.9032  -34.9486   23.5131 C   0  0  0  0  0  0
  -16.5315  -29.9049   23.6338 C   0  0  0  0  0  0
  -16.7228  -28.6457   23.0374 C   0  0  0  0  0  0
  -26.4491  -31.6610   25.0722 C   0  0  0  0  0  0
  -25.3768  -31.3755   26.1485 C   0  0  0  0  0  0
  -27.0297  -30.3020   24.6139 C   0  0  0  0  0  0
  -27.6067  -32.4344   25.7480 C   0  0  0  0  0  0
  -27.5605  -37.1748   24.8417 C   0  0  0  0  0  0
  -21.4108  -29.3001   22.3838 N   0  0  0  0  0  0
  -26.4258  -37.3820   23.9456 N   0  0  0  0  0  0
  -24.6594  -31.0820   22.1018 N   0  0  0  0  0  0
  -23.4198  -28.8198   23.3082 O   0  0  0  0  0  0
  -28.3763  -26.7099   20.0100 O   0  0  0  0  0  0
  -26.5582  -34.8950   22.4693 O   0  0  0  0  0  0
  -23.5304  -32.1459   23.7543 O   0  0  0  0  0  0
  -30.9910  -18.8830   20.7014 C   0  0  0  0  0  0
  -30.9731  -17.4785   20.5669 C   0  0  0  0  0  0
  -29.5783  -18.7104   22.6711 C   0  0  0  0  0  0
  -30.2883  -19.5095   21.7522 C   0  0  0  0  0  0
  -30.2597  -16.6790   21.4967 C   0  0  0  0  0  0
  -29.5642  -17.3086   22.5495 C   0  0  0  0  0  0
  -28.4376  -22.2848   20.8696 C   0  0  0  0  0  0
  -26.8944  -22.6755   17.9778 C   0  0  0  0  0  0
  -27.7454  -21.5114   18.5082 C   0  0  0  0  0  0
  -27.7751  -23.7644   17.3490 C   0  0  0  0  0  0
  -29.6835  -23.1487   18.7930 C   0  0  0  0  0  0
  -28.9024  -21.9682   19.4293 C   0  0  1  0  0  0
  -28.4116  -21.8688   23.2669 C   0  0  0  0  0  0
  -30.3352  -21.0242   21.9220 C   0  0  0  0  0  0
  -30.3428  -26.2698   18.6856 C   0  0  0  0  0  0
  -29.6144  -25.3621   17.6695 C   0  0  0  0  0  0
  -29.4533  -27.3427   19.3299 C   0  0  0  0  0  0
  -30.1421  -15.2651   21.4183 N   0  0  0  0  0  0
  -29.0211  -21.6905   21.9421 N   0  0  0  0  0  0
  -28.8202  -24.2597   18.2868 N   0  3  1  0  0  0
  -27.5053  -23.0804   21.0076 O   0  0  0  0  0  0
  -28.6748  -16.3662   23.6971 Cl  0  0  0  0  0  0
  -31.4703  -12.3658   19.0817 H   0  0  0  0  0  0
  -30.3098  -11.2509   19.7425 H   0  0  0  0  0  0
  -29.7216  -11.8291   17.3777 H   0  0  0  0  0  0
  -29.6756  -13.5258   17.7806 H   0  0  0  0  0  0
  -27.8039  -11.3330   18.7618 H   0  0  0  0  0  0
  -27.3645  -12.6985   17.7764 H   0  0  0  0  0  0
  -27.7321  -14.2571   19.6164 H   0  0  0  0  0  0
  -28.6765  -11.8757   21.2815 H   0  0  0  0  0  0
  -28.4708  -13.4792   21.8935 H   0  0  0  0  0  0
  -25.2717   -9.5731   22.4728 H   0  0  0  0  0  0
  -23.9994   -7.4650   22.7485 H   0  0  0  0  0  0
  -21.0796   -8.8709   19.8978 H   0  0  0  0  0  0
  -22.3600  -10.9632   19.6110 H   0  0  0  0  0  0
  -21.2008   -7.6140   23.9686 H   0  0  0  0  0  0
  -21.1489   -6.0520   25.9074 H   0  0  0  0  0  0
  -22.0601   -2.7596   23.2813 H   0  0  0  0  0  0
  -22.4026  -12.0001   22.4797 H   0  0  0  0  0  0
  -21.1075  -13.1404   22.2405 H   0  0  0  0  0  0
  -24.6596  -15.8308   20.5059 H   0  0  0  0  0  0
  -26.2966  -15.6265   20.1116 H   0  0  0  0  0  0
  -26.7081  -32.5572   23.1144 H   0  0  0  0  0  0
  -25.0025  -33.9778   25.0461 H   0  0  0  0  0  0
  -22.6781  -31.3031   21.4184 H   0  0  0  0  0  0
  -23.3780  -35.9586   23.3197 H   0  0  0  0  0  0
  -24.3587  -36.9033   22.2072 H   0  0  0  0  0  0
  -23.7180  -37.6458   23.6726 H   0  0  0  0  0  0
  -26.0354  -31.6142   20.6021 H   0  0  0  0  0  0
  -26.8107  -30.8879   21.9849 H   0  0  0  0  0  0
  -28.1017  -29.1456   21.1384 H   0  0  0  0  0  0
  -26.0690  -25.9665   19.0516 H   0  0  0  0  0  0
  -23.9748  -27.2757   19.0636 H   0  0  0  0  0  0
  -23.6806  -30.5792   19.4017 H   0  0  0  0  0  0
  -22.7318  -29.2102   19.9000 H   0  0  0  0  0  0
  -25.1258  -36.1927   25.0806 H   0  0  0  0  0  0
  -20.9859  -28.3116   24.1525 H   0  0  0  0  0  0
  -20.5595  -26.2184   23.3619 H   0  0  0  0  0  0
  -21.6587  -26.7379   22.1289 H   0  0  0  0  0  0
  -19.6860  -25.6269   21.1246 H   0  0  0  0  0  0
  -19.6726  -27.3143   20.6750 H   0  0  0  0  0  0
  -17.4200  -26.6743   21.3914 H   0  0  0  0  0  0
  -18.0181  -26.0037   22.8936 H   0  0  0  0  0  0
  -19.7885  -30.7197   24.2285 H   0  0  0  0  0  0
  -17.4998  -31.6289   24.5051 H   0  0  0  0  0  0
  -15.5320  -30.2923   23.7727 H   0  0  0  0  0  0
  -15.8622  -28.0786   22.7106 H   0  0  0  0  0  0
  -24.5957  -30.7046   25.7893 H   0  0  0  0  0  0
  -24.8904  -32.2906   26.4864 H   0  0  0  0  0  0
  -25.8139  -30.9040   27.0292 H   0  0  0  0  0  0
  -26.2815  -29.6780   24.1219 H   0  0  0  0  0  0
  -27.4037  -29.7287   25.4639 H   0  0  0  0  0  0
  -27.8690  -30.4268   23.9284 H   0  0  0  0  0  0
  -27.2661  -33.3637   26.2071 H   0  0  0  0  0  0
  -28.3867  -32.6931   25.0302 H   0  0  0  0  0  0
  -28.0757  -31.8471   26.5389 H   0  0  0  0  0  0
  -28.2502  -38.0162   24.7639 H   0  0  0  0  0  0
  -28.1200  -36.2703   24.5958 H   0  0  0  0  0  0
  -27.2368  -37.1058   25.8818 H   0  0  0  0  0  0
  -20.9255  -29.8770   21.7119 H   0  0  0  0  0  0
  -26.0128  -38.2877   24.1560 H   0  0  0  0  0  0
  -31.5459  -19.4762   19.9853 H   0  0  0  0  0  0
  -31.5040  -17.0440   19.7343 H   0  0  0  0  0  0
  -29.0375  -19.1636   23.4840 H   0  0  0  0  0  0
  -26.2782  -23.0993   18.7706 H   0  0  0  0  0  0
  -26.1926  -22.3023   17.2302 H   0  0  0  0  0  0
  -28.1665  -20.9721   17.6577 H   0  0  0  0  0  0
  -27.1060  -20.7938   19.0271 H   0  0  0  0  0  0
  -27.1394  -24.5939   17.0328 H   0  0  0  0  0  0
  -28.2494  -23.3684   16.4499 H   0  0  0  0  0  0
  -30.2825  -22.7635   17.9665 H   0  0  0  0  0  0
  -30.3957  -23.5330   19.5226 H   0  0  0  0  0  0
  -29.5778  -21.1158   19.4686 H   0  0  0  0  0  0
  -27.3774  -21.5171   23.2639 H   0  0  0  0  0  0
  -28.4078  -22.9240   23.5420 H   0  0  0  0  0  0
  -28.9335  -21.3326   24.0582 H   0  0  0  0  0  0
  -30.9845  -21.4720   21.1670 H   0  0  0  0  0  0
  -30.8548  -21.2317   22.8581 H   0  0  0  0  0  0
  -31.1308  -26.7958   18.1438 H   0  0  0  0  0  0
  -30.8602  -25.6943   19.4502 H   0  0  0  0  0  0
  -30.3405  -24.9263   16.9815 H   0  0  0  0  0  0
  -28.9696  -25.9872   17.0469 H   0  0  0  0  0  0
  -29.0847  -28.0170   18.5544 H   0  0  0  0  0  0
  -30.0360  -27.9397   20.0340 H   0  0  0  0  0  0
  -29.3923  -14.8786   21.9702 H   0  0  0  0  0  0
  -28.3324  -24.6597   19.0764 H   0  0  0  0  0  0
  1 25  1  0  0  0
  1 30  2  0  0  0
  1 88  1  0  0  0
  2  3  1  0  0  0
  2 25  1  0  0  0
  2 93  1  0  0  0
  2 94  1  0  0  0
  3  4  1  0  0  0
  3 95  1  0  0  0
  3 96  1  0  0  0
  4  5  1  0  0  0
  4 97  1  0  0  0
  4 98  1  0  0  0
  5  6  1  0  0  0
  5 26  1  0  0  0
  5 99  1  0  0  0
  6 25  1  0  0  0
  6100  1  0  0  0
  6101  1  0  0  0
  7  8  2  0  0  0
  7 26  1  0  0  0
  7 29  1  0  0  0
  8  9  1  0  0  0
  8 22  1  0  0  0
  9 10  1  0  0  0
  9 27  2  0  0  0
 10 11  2  0  0  0
 10 15  1  0  0  0
 11 12  1  0  0  0
 11102  1  0  0  0
 12 13  2  0  0  0
 12103  1  0  0  0
 13 14  1  0  0  0
 13 31  1  0  0  0
 14 15  2  0  0  0
 14104  1  0  0  0
 15105  1  0  0  0
 16 17  2  0  0  0
 16 21  1  0  0  0
 16 31  1  0  0  0
 17 18  1  0  0  0
 17106  1  0  0  0
 18 19  2  0  0  0
 18107  1  0  0  0
 19 20  1  0  0  0
 19 24  1  0  0  0
 20 21  2  0  0  0
 20108  1  0  0  0
 21 23  1  0  0  0
 22 28  1  0  0  0
 22 32  2  0  0  0
 26 27  1  0  0  0
 28109  1  0  0  0
 28110  1  0  0  0
 29111  1  0  0  0
 29112  1  0  0  0
 33 34  1  0  0  0
 33 66  1  0  0  0
 33 70  2  0  0  0
 34 36  1  0  0  0
 34 59  1  0  0  0
 34113  1  0  0  0
 35 44  2  0  0  0
 35 45  1  0  0  0
 35 68  1  0  0  0
 36 56  1  0  0  0
 36114  1  0  0  0
 37 39  1  0  0  0
 37 47  1  0  0  0
 37 66  1  0  0  0
 37115  1  0  0  0
 38 43  2  0  0  0
 38 46  1  0  0  0
 38 47  1  0  0  0
 39 64  1  0  0  0
 39 67  2  0  0  0
 40 52  1  0  0  0
 40 53  2  0  0  0
 40 58  1  0  0  0
 41116  1  0  0  0
 41117  1  0  0  0
 41118  1  0  0  0
 41 48  1  0  0  0
 42 43  1  0  0  0
 42 66  1  0  0  0
 42119  1  0  0  0
 42120  1  0  0  0
 43 44  1  0  0  0
 44121  1  0  0  0
 45 46  2  0  0  0
 45122  1  0  0  0
 46123  1  0  0  0
 47124  1  0  0  0
 47125  1  0  0  0
 48 56  1  0  0  0
 48 65  1  0  0  0
 48126  1  0  0  0
 49 50  1  0  0  0
 49 53  1  0  0  0
 49 64  1  0  0  0
 49127  1  0  0  0
 50 51  1  0  0  0
 50128  1  0  0  0
 50129  1  0  0  0
 51 52  1  0  0  0
 51130  1  0  0  0
 51131  1  0  0  0
 52132  1  0  0  0
 52133  1  0  0  0
 53 54  1  0  0  0
 54 55  2  0  0  0
 54134  1  0  0  0
 55 57  1  0  0  0
 55135  1  0  0  0
 56 69  2  0  0  0
 57 58  2  0  0  0
 57136  1  0  0  0
 58137  1  0  0  0
 59 60  1  0  0  0
 59 61  1  0  0  0
 59 62  1  0  0  0
 60138  1  0  0  0
 60139  1  0  0  0
 60140  1  0  0  0
 61141  1  0  0  0
 61142  1  0  0  0
 61143  1  0  0  0
 62144  1  0  0  0
 62145  1  0  0  0
 62146  1  0  0  0
 63 65  1  0  0  0
 63147  1  0  0  0
 63148  1  0  0  0
 63149  1  0  0  0
 64150  1  0  0  0
 65151  1  0  0  0
 68 87  1  0  0  0
 71 72  2  0  0  0
 71 74  1  0  0  0
 71152  1  0  0  0
 72 75  1  0  0  0
 72153  1  0  0  0
 73 74  2  0  0  0
 73 76  1  0  0  0
 73154  1  0  0  0
 74 84  1  0  0  0
 75 76  2  0  0  0
 75 88  1  0  0  0
 76 92  1  0  0  0
 77 89  1  0  0  0
 77 91  2  0  0  0
 77 82  1  0  0  0
 78 79  1  0  0  0
 78 80  1  0  0  0
 78155  1  0  0  0
 78156  1  0  0  0
 79 82  1  0  0  0
 79157  1  0  0  0
 79158  1  0  0  0
 80 90  1  0  0  0
 80159  1  0  0  0
 80160  1  0  0  0
 81 82  1  0  0  0
 81 90  1  0  0  0
 81161  1  0  0  0
 81162  1  0  0  0
 82163  1  0  0  0
 83 89  1  0  0  0
 83164  1  0  0  0
 83165  1  0  0  0
 83166  1  0  0  0
 84 89  1  0  0  0
 84167  1  0  0  0
 84168  1  0  0  0
 85 86  1  0  0  0
 85 87  1  0  0  0
 85169  1  0  0  0
 85170  1  0  0  0
 86171  1  0  0  0
 86172  1  0  0  0
 86 90  1  0  0  0
 87173  1  0  0  0
 87174  1  0  0  0
 88175  1  0  0  0
 90176  1  0  0  0
M  CHG  1  90   1
M  ISO  4   1 100  68 101  87 101  88 100
M  END
> <chiral flag>
0

> <version>
0

> <s_m_source_file>
/data/baiqing/PycharmProjects/Reinvent-master-3.2/result/LINK_invent/BTK/process_docking_weight1_custom_product_contain_oxygen_bond_distance_aromatic_linkinvent_7_9_3/rearranged_h_0015.sdf

> <i_m_source_file_index>
33

> <r_mmod_Potential_Energy-OPLS-2005>
-162.855712890625

> <r_mmod_Stretch_Energy-OPLS-2005>
38.637264251709

> <r_mmod_Bend_Energy-OPLS-2005>
107.860404968262

> <r_mmod_Torsional_Energy-OPLS-2005>
279.090789794922

> <r_mmod_Improper_Torsional_Energy-OPLS-2005>
2.62636232376099

> <r_mmod_Van_der_Waal_Energy-OPLS-2005>
158.657302856445

> <r_mmod_Electrostatic_Energy-OPLS-2005>
-333.063323974609

> <r_mmod_Solvation_Energy-OPLS-2005>
-424.245635986328

> <b_mmod_Minimization_Converged-OPLS-2005>
0

> <r_mmod_RMS_Derivative-OPLS-2005>
4.44477081298828

$$$$
33
                    3D
 Structure written by MMmdl.
174183  0  0  1  0            999 V2000
  -30.7585  -14.4037   20.6259 C   0  0  0  0  0  0
  -30.4103  -12.2860   19.4030 C   0  0  0  0  0  0
  -29.4830  -12.5189   18.1911 C   0  0  0  0  0  0
  -27.9979  -12.4135   18.5933 C   0  0  0  0  0  0
  -27.6601  -13.2142   19.8770 C   0  0  2  0  0  0
  -28.7007  -12.9253   20.9775 C   0  0  0  0  0  0
  -25.2505  -13.8186   20.5671 C   0  0  0  0  0  0
  -24.1789  -13.0440   20.9157 C   0  0  0  0  0  0
  -24.6363  -11.6907   20.8677 C   0  0  0  0  0  0
  -23.9053  -10.4300   21.0343 C   0  0  0  0  0  0
  -24.3619   -9.4256   21.9153 C   0  0  0  0  0  0
  -23.6322   -8.2285   22.0755 C   0  0  0  0  0  0
  -22.4304   -8.0286   21.3557 C   0  0  0  0  0  0
  -21.9922   -9.0228   20.4644 C   0  0  0  0  0  0
  -22.7207  -10.2123   20.3025 C   0  0  0  0  0  0
  -21.6883   -6.0729   22.5277 C   0  0  0  0  0  0
  -21.4048   -6.5626   23.8215 C   0  0  0  0  0  0
  -21.3677   -5.6787   24.9196 C   0  0  0  0  0  0
  -21.6057   -4.3052   24.7240 C   0  0  0  0  0  0
  -21.8831   -3.8132   23.4361 C   0  0  0  0  0  0
  -21.9204   -4.6948   22.3413 C   0  0  0  0  0  0
  -22.7804  -13.5200   21.1843 C   0  0  0  0  0  0
  -22.1655   -4.2123   21.0987 F   0  0  0  0  0  0
  -21.5633   -3.4539   25.7762 F   0  0  0  0  0  0
  -30.0424  -13.2508   20.4539 N   0  0  0  0  0  0
  -26.2990  -12.9389   20.3341 N   0  0  0  0  0  0
  -25.9296  -11.6525   20.5712 N   0  0  0  0  0  0
  -22.0462  -12.8199   22.0398 N   0  0  0  0  0  0
  -25.4093  -15.1943   20.4107 N   0  0  0  0  0  0
  -31.8134  -14.6032   20.0111 O   0  0  0  0  0  0
  -21.6685   -6.8870   21.4235 O   0  0  0  0  0  0
  -22.3449  -14.5476   20.6659 O   0  0  0  0  0  0
  -24.6131  -31.8691   23.2125 C   0  0  0  0  0  0
  -25.9031  -32.4834   23.8401 C   0  0  1  0  0  0
  -27.2432  -27.4424   20.0794 C   0  0  0  0  0  0
  -25.5887  -33.8631   24.2341 N   0  0  0  0  0  0
  -23.4008  -30.4934   21.5543 C   0  0  2  0  0  0
  -24.8469  -28.9651   20.1192 C   0  0  0  0  0  0
  -22.7393  -29.4665   22.5017 C   0  0  0  0  0  0
  -18.0255  -28.1397   22.8496 C   0  0  0  0  0  0
  -24.1482  -36.7318   23.2637 C   0  0  0  0  0  0
  -25.9300  -30.8363   21.3660 C   0  0  0  0  0  0
  -26.0089  -29.4713   20.7152 C   0  0  0  0  0  0
  -27.2055  -28.7151   20.6976 C   0  0  0  0  0  0
  -26.0479  -26.9518   19.4911 C   0  0  0  0  0  0
  -24.8620  -27.7043   19.5076 C   0  0  0  0  0  0
  -23.6082  -29.8289   20.1691 C   0  0  0  0  0  0
  -25.4104  -36.3115   24.0342 C   0  0  1  0  0  0
  -20.5838  -28.3674   23.1332 C   0  0  2  0  0  0
  -20.6748  -26.9415   22.5417 C   0  0  0  0  0  0
  -19.5734  -26.6394   21.5212 C   0  0  0  0  0  0
  -18.1908  -26.7943   22.1629 C   0  0  0  0  0  0
  -19.1499  -28.8856   23.2908 C   0  0  0  0  0  0
  -18.9436  -30.1459   23.8919 C   0  0  0  0  0  0
  -17.6439  -30.6603   24.0570 C   0  0  0  0  0  0
  -25.9043  -34.9477   23.5147 C   0  0  0  0  0  0
  -16.5330  -29.9100   23.6333 C   0  0  0  0  0  0
  -16.7245  -28.6520   23.0350 C   0  0  0  0  0  0
  -26.4465  -31.6586   25.0715 C   0  0  0  0  0  0
  -25.3735  -31.3656   26.1462 C   0  0  0  0  0  0
  -27.0280  -30.3024   24.6068 C   0  0  0  0  0  0
  -27.6057  -32.4279   25.7486 C   0  0  0  0  0  0
  -27.5586  -37.1804   24.8463 C   0  0  0  0  0  0
  -21.4129  -29.3039   22.3750 N   0  0  0  0  0  0
  -26.4289  -37.3800   23.9421 N   0  0  0  0  0  0
  -24.6665  -31.0789   22.1042 N   0  0  0  0  0  0
  -23.4163  -28.8210   23.3054 O   0  0  0  0  0  0
  -28.4369  -26.7319   20.0632 O   0  0  0  0  0  0
  -26.5608  -34.8933   22.4713 O   0  0  0  0  0  0
  -23.5328  -32.1448   23.7526 O   0  0  0  0  0  0
  -32.4722  -17.0776   22.1550 C   0  0  0  0  0  0
  -33.5977  -17.8238   22.5247 C   0  0  0  0  0  0
  -31.8733  -18.8067   20.5400 C   0  0  0  0  0  0
  -31.5768  -17.5758   21.1830 C   0  0  0  0  0  0
  -33.0443  -19.5506   20.8563 C   0  0  0  0  0  0
  -33.8723  -19.0521   21.9042 C   0  0  0  0  0  0
  -31.5990  -23.2923   20.4292 C   0  0  0  0  0  0
  -30.7322  -22.6128   18.1777 C   0  0  0  0  0  0
  -30.3342  -24.1712   20.6431 C   0  0  0  0  0  0
  -29.4878  -23.4755   18.3844 C   0  0  0  0  0  0
  -31.3384  -22.0834   19.4916 C   0  0  1  0  0  0
  -29.7422  -24.6821   19.3096 C   0  0  1  0  0  0
  -34.8670  -20.7261   19.7955 C   0  0  0  0  0  0
  -29.7927  -15.3405   22.7147 C   0  0  0  0  0  0
  -30.3061  -16.8063   20.7898 C   0  0  0  0  0  0
  -32.6015  -21.2856   19.0749 C   0  0  0  0  0  0
  -28.4059  -25.4478   19.4321 C   0  0  0  0  0  0
  -33.4377  -20.7191   20.1379 N   0  0  0  0  0  0
  -30.1642  -15.4242   21.2936 N   0  0  0  0  0  0
  -34.9665  -19.7352   22.3223 F   0  0  0  0  0  0
  -31.4568  -12.3587   19.1037 H   0  0  0  0  0  0
  -30.2854  -11.2677   19.7723 H   0  0  0  0  0  0
  -29.7046  -11.7919   17.4066 H   0  0  0  0  0  0
  -29.6828  -13.5013   17.7609 H   0  0  0  0  0  0
  -27.7778  -11.3566   18.7455 H   0  0  0  0  0  0
  -27.3578  -12.7455   17.7743 H   0  0  0  0  0  0
  -27.7212  -14.2748   19.6278 H   0  0  0  0  0  0
  -28.6695  -11.8709   21.2543 H   0  0  0  0  0  0
  -28.4260  -13.4437   21.8869 H   0  0  0  0  0  0
  -25.2757   -9.5820   22.4715 H   0  0  0  0  0  0
  -24.0063   -7.4719   22.7490 H   0  0  0  0  0  0
  -21.0857   -8.8692   19.8960 H   0  0  0  0  0  0
  -22.3581  -10.9638   19.6146 H   0  0  0  0  0  0
  -21.2045   -7.6133   23.9709 H   0  0  0  0  0  0
  -21.1479   -6.0528   25.9096 H   0  0  0  0  0  0
  -22.0580   -2.7582   23.2878 H   0  0  0  0  0  0
  -22.4091  -11.9889   22.4810 H   0  0  0  0  0  0
  -21.1042  -13.1162   22.2546 H   0  0  0  0  0  0
  -24.6285  -15.8365   20.5108 H   0  0  0  0  0  0
  -26.2484  -15.6424   20.0681 H   0  0  0  0  0  0
  -26.7111  -32.5554   23.1169 H   0  0  0  0  0  0
  -24.9985  -33.9791   25.0452 H   0  0  0  0  0  0
  -22.6903  -31.3097   21.4159 H   0  0  0  0  0  0
  -23.3764  -35.9628   23.3264 H   0  0  0  0  0  0
  -24.3586  -36.8965   22.2058 H   0  0  0  0  0  0
  -23.7206  -37.6504   23.6676 H   0  0  0  0  0  0
  -26.0350  -31.6014   20.5947 H   0  0  0  0  0  0
  -26.8212  -30.8954   21.9793 H   0  0  0  0  0  0
  -28.1027  -29.1074   21.1559 H   0  0  0  0  0  0
  -25.9924  -25.9897   19.0032 H   0  0  0  0  0  0
  -23.9687  -27.3078   19.0445 H   0  0  0  0  0  0
  -23.7132  -30.6021   19.4071 H   0  0  0  0  0  0
  -22.7334  -29.2448   19.8761 H   0  0  0  0  0  0
  -25.1268  -36.1987   25.0834 H   0  0  0  0  0  0
  -20.9918  -28.3237   24.1457 H   0  0  0  0  0  0
  -20.5657  -26.2283   23.3601 H   0  0  0  0  0  0
  -21.6624  -26.7469   22.1219 H   0  0  0  0  0  0
  -19.6901  -25.6309   21.1236 H   0  0  0  0  0  0
  -19.6670  -27.3214   20.6755 H   0  0  0  0  0  0
  -17.4169  -26.6678   21.4029 H   0  0  0  0  0  0
  -18.0314  -26.0075   22.9025 H   0  0  0  0  0  0
  -19.7910  -30.7258   24.2300 H   0  0  0  0  0  0
  -17.5000  -31.6287   24.5167 H   0  0  0  0  0  0
  -15.5335  -30.3020   23.7649 H   0  0  0  0  0  0
  -15.8643  -28.0850   22.7068 H   0  0  0  0  0  0
  -24.5918  -30.7006   25.7774 H   0  0  0  0  0  0
  -24.8920  -32.2791   26.4953 H   0  0  0  0  0  0
  -25.8087  -30.8777   27.0188 H   0  0  0  0  0  0
  -26.2794  -29.6798   24.1153 H   0  0  0  0  0  0
  -27.4077  -29.7253   25.4510 H   0  0  0  0  0  0
  -27.8628  -30.4340   23.9181 H   0  0  0  0  0  0
  -27.2705  -33.3583   26.2076 H   0  0  0  0  0  0
  -28.3868  -32.6806   25.0307 H   0  0  0  0  0  0
  -28.0715  -31.8370   26.5380 H   0  0  0  0  0  0
  -28.2577  -38.0128   24.7561 H   0  0  0  0  0  0
  -28.1102  -36.2661   24.6217 H   0  0  0  0  0  0
  -27.2307  -37.1377   25.8864 H   0  0  0  0  0  0
  -20.9300  -29.8760   21.6972 H   0  0  0  0  0  0
  -26.0179  -38.2873   24.1454 H   0  0  0  0  0  0
  -32.3130  -16.1303   22.6468 H   0  0  0  0  0  0
  -34.2678  -17.4526   23.2866 H   0  0  0  0  0  0
  -31.1967  -19.1468   19.7689 H   0  0  0  0  0  0
  -31.9656  -22.9396   21.3949 H   0  0  0  0  0  0
  -32.3991  -23.9078   20.0153 H   0  0  0  0  0  0
  -31.4798  -23.2066   17.6464 H   0  0  0  0  0  0
  -30.4868  -21.7820   17.5153 H   0  0  0  0  0  0
  -30.5809  -25.0203   21.2816 H   0  0  0  0  0  0
  -29.5770  -23.5993   21.1835 H   0  0  0  0  0  0
  -28.6790  -22.8599   18.7839 H   0  0  0  0  0  0
  -29.1461  -23.8243   17.4090 H   0  0  0  0  0  0
  -30.6254  -21.4122   19.9720 H   0  0  0  0  0  0
  -30.4735  -25.3389   18.8358 H   0  0  0  0  0  0
  -35.2912  -19.7191   19.7545 H   0  0  0  0  0  0
  -35.4287  -21.3119   20.5254 H   0  0  0  0  0  0
  -35.0700  -21.1598   18.8161 H   0  0  0  0  0  0
  -28.7113  -15.3312   22.8445 H   0  0  0  0  0  0
  -30.1447  -16.2032   23.2753 H   0  0  0  0  0  0
  -30.2174  -14.4500   23.1837 H   0  0  0  0  0  0
  -29.4347  -17.3747   21.1186 H   0  0  0  0  0  0
  -30.2389  -16.7991   19.7013 H   0  0  0  0  0  0
  -33.2110  -21.9707   18.4836 H   0  0  0  0  0  0
  -32.3345  -20.4891   18.3778 H   0  0  0  0  0  0
  -27.6785  -24.8076   19.9326 H   0  0  0  0  0  0
  -28.0519  -25.6045   18.4114 H   0  0  0  0  0  0
  1 25  1  0  0  0
  1 30  2  0  0  0
  1 89  1  0  0  0
  2  3  1  0  0  0
  2 25  1  0  0  0
  2 91  1  0  0  0
  2 92  1  0  0  0
  3  4  1  0  0  0
  3 93  1  0  0  0
  3 94  1  0  0  0
  4  5  1  0  0  0
  4 95  1  0  0  0
  4 96  1  0  0  0
  5  6  1  0  0  0
  5 26  1  0  0  0
  5 97  1  0  0  0
  6 25  1  0  0  0
  6 98  1  0  0  0
  6 99  1  0  0  0
  7  8  2  0  0  0
  7 26  1  0  0  0
  7 29  1  0  0  0
  8  9  1  0  0  0
  8 22  1  0  0  0
  9 10  1  0  0  0
  9 27  2  0  0  0
 10 11  2  0  0  0
 10 15  1  0  0  0
 11 12  1  0  0  0
 11100  1  0  0  0
 12 13  2  0  0  0
 12101  1  0  0  0
 13 14  1  0  0  0
 13 31  1  0  0  0
 14 15  2  0  0  0
 14102  1  0  0  0
 15103  1  0  0  0
 16 17  2  0  0  0
 16 21  1  0  0  0
 16 31  1  0  0  0
 17 18  1  0  0  0
 17104  1  0  0  0
 18 19  2  0  0  0
 18105  1  0  0  0
 19 20  1  0  0  0
 19 24  1  0  0  0
 20 21  2  0  0  0
 20106  1  0  0  0
 21 23  1  0  0  0
 22 28  1  0  0  0
 22 32  2  0  0  0
 26 27  1  0  0  0
 28107  1  0  0  0
 28108  1  0  0  0
 29109  1  0  0  0
 29110  1  0  0  0
 33 34  1  0  0  0
 33 66  1  0  0  0
 33 70  2  0  0  0
 34 36  1  0  0  0
 34 59  1  0  0  0
 34111  1  0  0  0
 35 44  2  0  0  0
 35 45  1  0  0  0
 35 68  1  0  0  0
 36 56  1  0  0  0
 36112  1  0  0  0
 37 39  1  0  0  0
 37 47  1  0  0  0
 37 66  1  0  0  0
 37113  1  0  0  0
 38 43  2  0  0  0
 38 46  1  0  0  0
 38 47  1  0  0  0
 39 64  1  0  0  0
 39 67  2  0  0  0
 40 52  1  0  0  0
 40 53  2  0  0  0
 40 58  1  0  0  0
 41114  1  0  0  0
 41115  1  0  0  0
 41116  1  0  0  0
 41 48  1  0  0  0
 42 43  1  0  0  0
 42 66  1  0  0  0
 42117  1  0  0  0
 42118  1  0  0  0
 43 44  1  0  0  0
 44119  1  0  0  0
 45 46  2  0  0  0
 45120  1  0  0  0
 46121  1  0  0  0
 47122  1  0  0  0
 47123  1  0  0  0
 48 56  1  0  0  0
 48 65  1  0  0  0
 48124  1  0  0  0
 49 50  1  0  0  0
 49 53  1  0  0  0
 49 64  1  0  0  0
 49125  1  0  0  0
 50 51  1  0  0  0
 50126  1  0  0  0
 50127  1  0  0  0
 51 52  1  0  0  0
 51128  1  0  0  0
 51129  1  0  0  0
 52130  1  0  0  0
 52131  1  0  0  0
 53 54  1  0  0  0
 54 55  2  0  0  0
 54132  1  0  0  0
 55 57  1  0  0  0
 55133  1  0  0  0
 56 69  2  0  0  0
 57 58  2  0  0  0
 57134  1  0  0  0
 58135  1  0  0  0
 59 60  1  0  0  0
 59 61  1  0  0  0
 59 62  1  0  0  0
 60136  1  0  0  0
 60137  1  0  0  0
 60138  1  0  0  0
 61139  1  0  0  0
 61140  1  0  0  0
 61141  1  0  0  0
 62142  1  0  0  0
 62143  1  0  0  0
 62144  1  0  0  0
 63 65  1  0  0  0
 63145  1  0  0  0
 63146  1  0  0  0
 63147  1  0  0  0
 64148  1  0  0  0
 65149  1  0  0  0
 68 87  1  0  0  0
 71 72  2  0  0  0
 71 74  1  0  0  0
 71150  1  0  0  0
 72 76  1  0  0  0
 72151  1  0  0  0
 73 74  2  0  0  0
 73 75  1  0  0  0
 73152  1  0  0  0
 74 85  1  0  0  0
 75 76  2  0  0  0
 75 88  1  0  0  0
 76 90  1  0  0  0
 77 79  1  0  0  0
 77 81  1  0  0  0
 77153  1  0  0  0
 77154  1  0  0  0
 78 80  1  0  0  0
 78 81  1  0  0  0
 78155  1  0  0  0
 78156  1  0  0  0
 79 82  1  0  0  0
 79157  1  0  0  0
 79158  1  0  0  0
 80 82  1  0  0  0
 80159  1  0  0  0
 80160  1  0  0  0
 81 86  1  0  0  0
 81161  1  0  0  0
 82 87  1  0  0  0
 82162  1  0  0  0
 83 88  1  0  0  0
 83163  1  0  0  0
 83164  1  0  0  0
 83165  1  0  0  0
 84 89  1  0  0  0
 84166  1  0  0  0
 84167  1  0  0  0
 84168  1  0  0  0
 85 89  1  0  0  0
 85169  1  0  0  0
 85170  1  0  0  0
 86 88  1  0  0  0
 86171  1  0  0  0
 86172  1  0  0  0
 87173  1  0  0  0
 87174  1  0  0  0
M  ISO  4   1 100  68 101  87 101  89 100
M  END
> <chiral flag>
0

> <version>
0

> <s_m_source_file>
/data/baiqing/PycharmProjects/Reinvent-master-3.2/result/LINK_invent/BTK/process_docking_weight1_custom_product_contain_oxygen_bond_distance_aromatic_linkinvent_7_9_3/rearranged_h_0015.sdf

> <i_m_source_file_index>
34

> <r_mmod_Potential_Energy-OPLS-2005>
197.033843994141

> <r_mmod_Stretch_Energy-OPLS-2005>
46.4677886962891

> <r_mmod_Bend_Energy-OPLS-2005>
132.285858154297

> <r_mmod_Torsional_Energy-OPLS-2005>
267.290374755859

> <r_mmod_Improper_Torsional_Energy-OPLS-2005>
10.5511922836304

> <r_mmod_Van_der_Waal_Energy-OPLS-2005>
188.630111694336

> <r_mmod_Electrostatic_Energy-OPLS-2005>
-257.3720703125

> <r_mmod_Solvation_Energy-OPLS-2005>
-199.923202514648

> <b_mmod_Minimization_Converged-OPLS-2005>
0

> <r_mmod_RMS_Derivative-OPLS-2005>
4.70291757583618

$$$$
34
                    3D
 Structure written by MMmdl.
158167  0  0  1  0            999 V2000
  -30.6972  -14.4764   20.5724 C   0  0  0  0  0  0
  -30.4272  -12.3108   19.4164 C   0  0  0  0  0  0
  -29.4937  -12.5055   18.2030 C   0  0  0  0  0  0
  -28.0145  -12.3685   18.6172 C   0  0  0  0  0  0
  -27.6631  -13.2053   19.8770 C   0  0  2  0  0  0
  -28.7076  -12.9781   20.9938 C   0  0  0  0  0  0
  -25.2595  -13.8152   20.5686 C   0  0  0  0  0  0
  -24.1836  -13.0433   20.9158 C   0  0  0  0  0  0
  -24.6387  -11.6900   20.8720 C   0  0  0  0  0  0
  -23.9055  -10.4290   21.0398 C   0  0  0  0  0  0
  -24.3610   -9.4207   21.9180 C   0  0  0  0  0  0
  -23.6287   -8.2244   22.0752 C   0  0  0  0  0  0
  -22.4268   -8.0279   21.3546 C   0  0  0  0  0  0
  -21.9903   -9.0247   20.4646 C   0  0  0  0  0  0
  -22.7228  -10.2128   20.3051 C   0  0  0  0  0  0
  -21.6855   -6.0735   22.5281 C   0  0  0  0  0  0
  -21.4008   -6.5639   23.8213 C   0  0  0  0  0  0
  -21.3659   -5.6793   24.9176 C   0  0  0  0  0  0
  -21.6045   -4.3055   24.7226 C   0  0  0  0  0  0
  -21.8821   -3.8149   23.4346 C   0  0  0  0  0  0
  -21.9190   -4.6963   22.3403 C   0  0  0  0  0  0
  -22.7864  -13.5236   21.1832 C   0  0  0  0  0  0
  -22.1664   -4.2152   21.0981 F   0  0  0  0  0  0
  -21.5630   -3.4535   25.7736 F   0  0  0  0  0  0
  -30.0383  -13.2918   20.4413 N   0  0  0  0  0  0
  -26.3036  -12.9322   20.3391 N   0  0  0  0  0  0
  -25.9319  -11.6481   20.5777 N   0  0  0  0  0  0
  -22.0506  -12.8228   22.0390 N   0  0  0  0  0  0
  -25.4316  -15.1873   20.4153 N   0  0  0  0  0  0
  -31.8217  -14.6666   20.1010 O   0  0  0  0  0  0
  -21.6641   -6.8872   21.4240 O   0  0  0  0  0  0
  -22.3546  -14.5546   20.6692 O   0  0  0  0  0  0
  -24.6165  -31.8668   23.2097 C   0  0  0  0  0  0
  -25.9045  -32.4822   23.8397 C   0  0  1  0  0  0
  -27.2312  -27.4172   20.0929 C   0  0  0  0  0  0
  -25.5895  -33.8620   24.2326 N   0  0  0  0  0  0
  -23.4046  -30.4938   21.5502 C   0  0  2  0  0  0
  -24.8488  -28.9606   20.1133 C   0  0  0  0  0  0
  -22.7421  -29.4665   22.4970 C   0  0  0  0  0  0
  -18.0272  -28.1389   22.8510 C   0  0  0  0  0  0
  -24.1476  -36.7300   23.2640 C   0  0  0  0  0  0
  -25.9369  -30.8283   21.3641 C   0  0  0  0  0  0
  -26.0130  -29.4629   20.7077 C   0  0  0  0  0  0
  -27.2073  -28.7007   20.6919 C   0  0  0  0  0  0
  -26.0435  -26.9389   19.4885 C   0  0  0  0  0  0
  -24.8601  -27.6981   19.5000 C   0  0  0  0  0  0
  -23.6126  -29.8297   20.1639 C   0  0  0  0  0  0
  -25.4099  -36.3112   24.0344 C   0  0  1  0  0  0
  -20.5870  -28.3671   23.1310 C   0  0  2  0  0  0
  -20.6764  -26.9400   22.5421 C   0  0  0  0  0  0
  -19.5742  -26.6398   21.5220 C   0  0  0  0  0  0
  -18.1919  -26.7942   22.1631 C   0  0  0  0  0  0
  -19.1525  -28.8846   23.2914 C   0  0  0  0  0  0
  -18.9454  -30.1457   23.8919 C   0  0  0  0  0  0
  -17.6458  -30.6597   24.0577 C   0  0  0  0  0  0
  -25.9036  -34.9480   23.5132 C   0  0  0  0  0  0
  -16.5347  -29.9100   23.6339 C   0  0  0  0  0  0
  -16.7264  -28.6514   23.0363 C   0  0  0  0  0  0
  -26.4470  -31.6605   25.0724 C   0  0  0  0  0  0
  -25.3732  -31.3713   26.1467 C   0  0  0  0  0  0
  -27.0299  -30.3047   24.6095 C   0  0  0  0  0  0
  -27.6049  -32.4320   25.7483 C   0  0  0  0  0  0
  -27.5575  -37.1803   24.8469 C   0  0  0  0  0  0
  -21.4144  -29.3037   22.3706 N   0  0  0  0  0  0
  -26.4283  -37.3795   23.9415 N   0  0  0  0  0  0
  -24.6715  -31.0763   22.0998 N   0  0  0  0  0  0
  -23.4184  -28.8204   23.3016 O   0  0  0  0  0  0
  -28.3947  -26.6625   20.1154 O   0  0  0  0  0  0
  -26.5597  -34.8926   22.4695 O   0  0  0  0  0  0
  -23.5352  -32.1424   23.7479 O   0  0  0  0  0  0
  -29.1905  -19.0831   21.6127 C   0  0  0  0  0  0
  -31.4584  -17.5072   21.0724 C   0  0  0  0  0  0
  -30.4560  -19.7049   21.5457 C   0  0  0  0  0  0
  -30.1956  -16.8758   21.1952 C   0  0  0  0  0  0
  -29.0659  -17.6854   21.4479 C   0  0  0  0  0  0
  -31.5853  -18.9048   21.2461 C   0  0  0  0  0  0
  -29.3173  -23.2165   21.3462 C   0  0  0  0  0  0
  -30.3722  -23.8714   19.3098 C   0  0  0  0  0  0
  -30.9717  -22.5620   19.8584 C   0  0  0  0  0  0
  -29.5275  -24.4509   20.4562 C   0  0  1  0  0  0
  -30.6275  -21.1742   21.9552 C   0  0  0  0  0  0
  -28.2448  -25.2270   20.0341 C   0  0  0  0  0  0
  -30.1672  -22.2227   21.0251 N   0  0  0  0  0  0
  -29.9710  -15.4611   21.1363 N   0  0  0  0  0  0
  -28.5283  -23.2002   22.2956 O   0  0  0  0  0  0
  -27.8483  -17.1023   21.5615 F   0  0  0  0  0  0
  -32.8134  -19.4708   21.1691 F   0  0  0  0  0  0
  -31.4698  -12.4164   19.1119 H   0  0  0  0  0  0
  -30.3351  -11.2980   19.8120 H   0  0  0  0  0  0
  -29.7311  -11.7782   17.4254 H   0  0  0  0  0  0
  -29.6614  -13.4890   17.7611 H   0  0  0  0  0  0
  -27.8219  -11.3123   18.8096 H   0  0  0  0  0  0
  -27.3638  -12.6468   17.7873 H   0  0  0  0  0  0
  -27.7082  -14.2548   19.5843 H   0  0  0  0  0  0
  -28.6867  -11.9377   21.3223 H   0  0  0  0  0  0
  -28.4676  -13.5641   21.8822 H   0  0  0  0  0  0
  -25.2758   -9.5687   22.4751 H   0  0  0  0  0  0
  -24.0002   -7.4634   22.7470 H   0  0  0  0  0  0
  -21.0835   -8.8751   19.8954 H   0  0  0  0  0  0
  -22.3677  -10.9657   19.6155 H   0  0  0  0  0  0
  -21.1998   -7.6147   23.9712 H   0  0  0  0  0  0
  -21.1483   -6.0527   25.9079 H   0  0  0  0  0  0
  -22.0600   -2.7611   23.2843 H   0  0  0  0  0  0
  -22.4122  -11.9885   22.4769 H   0  0  0  0  0  0
  -21.1127  -13.1260   22.2607 H   0  0  0  0  0  0
  -24.6749  -15.8455   20.5631 H   0  0  0  0  0  0
  -26.3122  -15.6414   20.2071 H   0  0  0  0  0  0
  -26.7117  -32.5521   23.1163 H   0  0  0  0  0  0
  -25.0061  -33.9789   25.0484 H   0  0  0  0  0  0
  -22.6949  -31.3123   21.4137 H   0  0  0  0  0  0
  -23.3751  -35.9619   23.3321 H   0  0  0  0  0  0
  -24.3580  -36.8891   22.2052 H   0  0  0  0  0  0
  -23.7214  -37.6505   23.6640 H   0  0  0  0  0  0
  -26.0525  -31.5948   20.5972 H   0  0  0  0  0  0
  -26.8243  -30.8784   21.9832 H   0  0  0  0  0  0
  -28.1051  -29.0850   21.1566 H   0  0  0  0  0  0
  -26.0070  -25.9781   18.9971 H   0  0  0  0  0  0
  -23.9650  -27.3087   19.0346 H   0  0  0  0  0  0
  -23.7208  -30.6062   19.4061 H   0  0  0  0  0  0
  -22.7346  -29.2521   19.8666 H   0  0  0  0  0  0
  -25.1282  -36.1980   25.0839 H   0  0  0  0  0  0
  -20.9971  -28.3231   24.1428 H   0  0  0  0  0  0
  -20.5673  -26.2270   23.3614 H   0  0  0  0  0  0
  -21.6634  -26.7445   22.1206 H   0  0  0  0  0  0
  -19.6897  -25.6312   21.1234 H   0  0  0  0  0  0
  -19.6689  -27.3233   20.6768 H   0  0  0  0  0  0
  -17.4197  -26.6713   21.4021 H   0  0  0  0  0  0
  -18.0305  -26.0079   22.9022 H   0  0  0  0  0  0
  -19.7929  -30.7275   24.2284 H   0  0  0  0  0  0
  -17.5016  -31.6277   24.5182 H   0  0  0  0  0  0
  -15.5352  -30.3015   23.7653 H   0  0  0  0  0  0
  -15.8664  -28.0848   22.7058 H   0  0  0  0  0  0
  -24.5911  -30.7052   25.7807 H   0  0  0  0  0  0
  -24.8913  -32.2867   26.4905 H   0  0  0  0  0  0
  -25.8081  -30.8895   27.0231 H   0  0  0  0  0  0
  -26.2836  -29.6814   24.1146 H   0  0  0  0  0  0
  -27.4077  -29.7277   25.4546 H   0  0  0  0  0  0
  -27.8674  -30.4384   23.9242 H   0  0  0  0  0  0
  -27.2682  -33.3624   26.2066 H   0  0  0  0  0  0
  -28.3850  -32.6865   25.0301 H   0  0  0  0  0  0
  -28.0720  -31.8437   26.5393 H   0  0  0  0  0  0
  -28.2605  -38.0091   24.7522 H   0  0  0  0  0  0
  -28.1067  -36.2630   24.6293 H   0  0  0  0  0  0
  -27.2305  -37.1436   25.8876 H   0  0  0  0  0  0
  -20.9297  -29.8761   21.6937 H   0  0  0  0  0  0
  -26.0182  -38.2870   24.1439 H   0  0  0  0  0  0
  -28.3129  -19.6667   21.8492 H   0  0  0  0  0  0
  -32.3552  -16.9358   20.8882 H   0  0  0  0  0  0
  -29.7499  -23.6480   18.4422 H   0  0  0  0  0  0
  -31.1468  -24.5667   18.9838 H   0  0  0  0  0  0
  -32.0092  -22.7138   20.1613 H   0  0  0  0  0  0
  -30.9497  -21.7594   19.1192 H   0  0  0  0  0  0
  -30.1507  -25.1185   21.0528 H   0  0  0  0  0  0
  -31.6790  -21.3652   22.1700 H   0  0  0  0  0  0
  -30.1340  -21.2917   22.9217 H   0  0  0  0  0  0
  -27.4107  -24.9243   20.6708 H   0  0  0  0  0  0
  -27.9712  -24.9495   19.0154 H   0  0  0  0  0  0
  -29.0499  -15.1773   21.4358 H   0  0  0  0  0  0
  1 25  1  0  0  0
  1 30  2  0  0  0
  1 84  1  0  0  0
  2  3  1  0  0  0
  2 25  1  0  0  0
  2 88  1  0  0  0
  2 89  1  0  0  0
  3  4  1  0  0  0
  3 90  1  0  0  0
  3 91  1  0  0  0
  4  5  1  0  0  0
  4 92  1  0  0  0
  4 93  1  0  0  0
  5  6  1  0  0  0
  5 26  1  0  0  0
  5 94  1  0  0  0
  6 25  1  0  0  0
  6 95  1  0  0  0
  6 96  1  0  0  0
  7  8  2  0  0  0
  7 26  1  0  0  0
  7 29  1  0  0  0
  8  9  1  0  0  0
  8 22  1  0  0  0
  9 10  1  0  0  0
  9 27  2  0  0  0
 10 11  2  0  0  0
 10 15  1  0  0  0
 11 12  1  0  0  0
 11 97  1  0  0  0
 12 13  2  0  0  0
 12 98  1  0  0  0
 13 14  1  0  0  0
 13 31  1  0  0  0
 14 15  2  0  0  0
 14 99  1  0  0  0
 15100  1  0  0  0
 16 17  2  0  0  0
 16 21  1  0  0  0
 16 31  1  0  0  0
 17 18  1  0  0  0
 17101  1  0  0  0
 18 19  2  0  0  0
 18102  1  0  0  0
 19 20  1  0  0  0
 19 24  1  0  0  0
 20 21  2  0  0  0
 20103  1  0  0  0
 21 23  1  0  0  0
 22 28  1  0  0  0
 22 32  2  0  0  0
 26 27  1  0  0  0
 28104  1  0  0  0
 28105  1  0  0  0
 29106  1  0  0  0
 29107  1  0  0  0
 33 34  1  0  0  0
 33 66  1  0  0  0
 33 70  2  0  0  0
 34 36  1  0  0  0
 34 59  1  0  0  0
 34108  1  0  0  0
 35 44  2  0  0  0
 35 45  1  0  0  0
 35 68  1  0  0  0
 36 56  1  0  0  0
 36109  1  0  0  0
 37 39  1  0  0  0
 37 47  1  0  0  0
 37 66  1  0  0  0
 37110  1  0  0  0
 38 43  2  0  0  0
 38 46  1  0  0  0
 38 47  1  0  0  0
 39 64  1  0  0  0
 39 67  2  0  0  0
 40 52  1  0  0  0
 40 53  2  0  0  0
 40 58  1  0  0  0
 41111  1  0  0  0
 41112  1  0  0  0
 41113  1  0  0  0
 41 48  1  0  0  0
 42 43  1  0  0  0
 42 66  1  0  0  0
 42114  1  0  0  0
 42115  1  0  0  0
 43 44  1  0  0  0
 44116  1  0  0  0
 45 46  2  0  0  0
 45117  1  0  0  0
 46118  1  0  0  0
 47119  1  0  0  0
 47120  1  0  0  0
 48 56  1  0  0  0
 48 65  1  0  0  0
 48121  1  0  0  0
 49 50  1  0  0  0
 49 53  1  0  0  0
 49 64  1  0  0  0
 49122  1  0  0  0
 50 51  1  0  0  0
 50123  1  0  0  0
 50124  1  0  0  0
 51 52  1  0  0  0
 51125  1  0  0  0
 51126  1  0  0  0
 52127  1  0  0  0
 52128  1  0  0  0
 53 54  1  0  0  0
 54 55  2  0  0  0
 54129  1  0  0  0
 55 57  1  0  0  0
 55130  1  0  0  0
 56 69  2  0  0  0
 57 58  2  0  0  0
 57131  1  0  0  0
 58132  1  0  0  0
 59 60  1  0  0  0
 59 61  1  0  0  0
 59 62  1  0  0  0
 60133  1  0  0  0
 60134  1  0  0  0
 60135  1  0  0  0
 61136  1  0  0  0
 61137  1  0  0  0
 61138  1  0  0  0
 62139  1  0  0  0
 62140  1  0  0  0
 62141  1  0  0  0
 63 65  1  0  0  0
 63142  1  0  0  0
 63143  1  0  0  0
 63144  1  0  0  0
 64145  1  0  0  0
 65146  1  0  0  0
 68 82  1  0  0  0
 71 73  2  0  0  0
 71 75  1  0  0  0
 71147  1  0  0  0
 72 74  1  0  0  0
 72 76  2  0  0  0
 72148  1  0  0  0
 73 76  1  0  0  0
 73 81  1  0  0  0
 74 75  2  0  0  0
 74 84  1  0  0  0
 75 86  1  0  0  0
 76 87  1  0  0  0
 77 80  1  0  0  0
 77 83  1  0  0  0
 77 85  2  0  0  0
 78 79  1  0  0  0
 78 80  1  0  0  0
 78149  1  0  0  0
 78150  1  0  0  0
 79 83  1  0  0  0
 79151  1  0  0  0
 79152  1  0  0  0
 80 82  1  0  0  0
 80153  1  0  0  0
 81 83  1  0  0  0
 81154  1  0  0  0
 81155  1  0  0  0
 82156  1  0  0  0
 82157  1  0  0  0
 84158  1  0  0  0
M  ISO  4   1 100  68 101  82 101  84 100
M  END
> <chiral flag>
0

> <version>
0

> <s_m_source_file>
/data/baiqing/PycharmProjects/Reinvent-master-3.2/result/LINK_invent/BTK/process_docking_weight1_custom_product_contain_oxygen_bond_distance_aromatic_linkinvent_7_9_3/rearranged_h_0015.sdf

> <i_m_source_file_index>
35

> <r_mmod_Potential_Energy-OPLS-2005>
-37.6426658630371

> <r_mmod_Stretch_Energy-OPLS-2005>
40.3779144287109

> <r_mmod_Bend_Energy-OPLS-2005>
128.777847290039

> <r_mmod_Torsional_Energy-OPLS-2005>
253.989181518555

> <r_mmod_Improper_Torsional_Energy-OPLS-2005>
5.86262655258179

> <r_mmod_Van_der_Waal_Energy-OPLS-2005>
153.428817749023

> <r_mmod_Electrostatic_Energy-OPLS-2005>
-418.374176025391

> <r_mmod_Solvation_Energy-OPLS-2005>
-215.785034179688

> <b_mmod_Minimization_Converged-OPLS-2005>
0

> <r_mmod_RMS_Derivative-OPLS-2005>
1.38072323799133

$$$$
35
                    3D
 Structure written by MMmdl.
161170  0  0  1  0            999 V2000
  -30.6897  -14.5938   20.3627 C   0  0  0  0  0  0
  -30.4202  -12.3389   19.4138 C   0  0  0  0  0  0
  -29.4614  -12.3717   18.1987 C   0  0  0  0  0  0
  -27.9922  -12.2883   18.6416 C   0  0  0  0  0  0
  -27.6388  -13.2177   19.8344 C   0  0  2  0  0  0
  -28.7055  -13.1360   20.9451 C   0  0  0  0  0  0
  -25.2531  -13.8203   20.5684 C   0  0  0  0  0  0
  -24.1811  -13.0460   20.9192 C   0  0  0  0  0  0
  -24.6386  -11.6934   20.8788 C   0  0  0  0  0  0
  -23.9072  -10.4313   21.0449 C   0  0  0  0  0  0
  -24.3621   -9.4224   21.9220 C   0  0  0  0  0  0
  -23.6318   -8.2250   22.0767 C   0  0  0  0  0  0
  -22.4305   -8.0285   21.3556 C   0  0  0  0  0  0
  -21.9933   -9.0262   20.4671 C   0  0  0  0  0  0
  -22.7247  -10.2152   20.3096 C   0  0  0  0  0  0
  -21.6869   -6.0744   22.5283 C   0  0  0  0  0  0
  -21.4012   -6.5645   23.8211 C   0  0  0  0  0  0
  -21.3665   -5.6793   24.9167 C   0  0  0  0  0  0
  -21.6052   -4.3056   24.7217 C   0  0  0  0  0  0
  -21.8825   -3.8150   23.4339 C   0  0  0  0  0  0
  -21.9200   -4.6971   22.3403 C   0  0  0  0  0  0
  -22.7842  -13.5268   21.1841 C   0  0  0  0  0  0
  -22.1665   -4.2155   21.0983 F   0  0  0  0  0  0
  -21.5645   -3.4535   25.7731 F   0  0  0  0  0  0
  -30.0066  -13.4123   20.3285 N   0  0  0  0  0  0
  -26.2951  -12.9395   20.3318 N   0  0  0  0  0  0
  -25.9313  -11.6546   20.5828 N   0  0  0  0  0  0
  -22.0470  -12.8277   22.0395 N   0  0  0  0  0  0
  -25.4204  -15.1918   20.4090 N   0  0  0  0  0  0
  -31.9221  -14.6136   20.3995 O   0  0  0  0  0  0
  -21.6673   -6.8882   21.4244 O   0  0  0  0  0  0
  -22.3551  -14.5581   20.6689 O   0  0  0  0  0  0
  -24.6178  -31.8675   23.2083 C   0  0  0  0  0  0
  -25.9067  -32.4817   23.8390 C   0  0  1  0  0  0
  -27.2283  -27.4103   20.1186 C   0  0  0  0  0  0
  -25.5937  -33.8612   24.2340 N   0  0  0  0  0  0
  -23.4069  -30.4911   21.5480 C   0  0  2  0  0  0
  -24.8579  -28.9580   20.1103 C   0  0  0  0  0  0
  -22.7429  -29.4663   22.4954 C   0  0  0  0  0  0
  -18.0274  -28.1378   22.8491 C   0  0  0  0  0  0
  -24.1484  -36.7287   23.2635 C   0  0  0  0  0  0
  -25.9387  -30.8309   21.3630 C   0  0  0  0  0  0
  -26.0185  -29.4645   20.7086 C   0  0  0  0  0  0
  -27.2146  -28.7023   20.6998 C   0  0  0  0  0  0
  -26.0548  -26.9269   19.5073 C   0  0  0  0  0  0
  -24.8742  -27.6923   19.4983 C   0  0  0  0  0  0
  -23.6174  -29.8249   20.1619 C   0  0  0  0  0  0
  -25.4100  -36.3096   24.0349 C   0  0  1  0  0  0
  -20.5870  -28.3681   23.1294 C   0  0  2  0  0  0
  -20.6754  -26.9406   22.5409 C   0  0  0  0  0  0
  -19.5735  -26.6386   21.5200 C   0  0  0  0  0  0
  -18.1916  -26.7922   22.1617 C   0  0  0  0  0  0
  -19.1522  -28.8845   23.2898 C   0  0  0  0  0  0
  -18.9442  -30.1446   23.8922 C   0  0  0  0  0  0
  -17.6448  -30.6588   24.0566 C   0  0  0  0  0  0
  -25.9047  -34.9468   23.5132 C   0  0  0  0  0  0
  -16.5345  -29.9095   23.6321 C   0  0  0  0  0  0
  -16.7265  -28.6505   23.0355 C   0  0  0  0  0  0
  -26.4490  -31.6585   25.0715 C   0  0  0  0  0  0
  -25.3757  -31.3692   26.1463 C   0  0  0  0  0  0
  -27.0313  -30.3024   24.6085 C   0  0  0  0  0  0
  -27.6086  -32.4283   25.7465 C   0  0  0  0  0  0
  -27.5570  -37.1790   24.8463 C   0  0  0  0  0  0
  -21.4151  -29.3053   22.3704 N   0  0  0  0  0  0
  -26.4282  -37.3780   23.9412 N   0  0  0  0  0  0
  -24.6728  -31.0763   22.0997 N   0  0  0  0  0  0
  -23.4177  -28.8218   23.3021 O   0  0  0  0  0  0
  -28.3538  -26.6088   20.1377 O   0  0  0  0  0  0
  -26.5579  -34.8914   22.4676 O   0  0  0  0  0  0
  -23.5359  -32.1443   23.7458 O   0  0  0  0  0  0
  -29.5526  -17.9811   19.1934 C   0  0  0  0  0  0
  -28.5613  -18.3420   21.7533 C   0  0  0  0  0  0
  -29.0187  -19.2404   19.5571 C   0  0  0  0  0  0
  -28.5026  -19.4452   20.8599 C   0  0  0  0  0  0
  -29.6054  -16.8604   20.0755 C   0  0  0  0  0  0
  -29.1021  -17.0820   21.3825 C   0  0  0  0  0  0
  -27.5466  -23.0935   20.2310 C   0  0  0  0  0  0
  -29.2757  -22.9809   21.3574 C   0  0  0  0  0  0
  -28.6995  -24.0987   20.4576 C   0  0  2  0  0  0
  -28.9779  -20.3268   18.4942 C   0  0  0  0  0  0
  -30.6717  -15.5942   18.2184 C   0  0  0  0  0  0
  -27.7589  -20.7337   21.3110 C   0  0  0  0  0  0
  -28.2878  -25.4798   21.0500 C   0  0  0  0  0  0
  -28.2169  -22.0731   20.8833 N   0  0  0  0  0  0
  -30.1211  -15.5768   19.5952 N   0  0  0  0  0  0
  -26.4470  -23.1125   19.7210 O   0  0  0  0  0  0
  -29.1121  -16.0855   22.2986 F   0  0  0  0  0  0
  -31.4535  -12.4616   19.0795 H   0  0  0  0  0  0
  -30.3765  -11.3720   19.9189 H   0  0  0  0  0  0
  -29.6814  -11.5343   17.5352 H   0  0  0  0  0  0
  -29.5818  -13.2611   17.5875 H   0  0  0  0  0  0
  -27.8088  -11.2472   18.9130 H   0  0  0  0  0  0
  -27.3293  -12.4942   17.8010 H   0  0  0  0  0  0
  -27.6358  -14.2350   19.4419 H   0  0  0  0  0  0
  -28.7052  -12.1470   21.4021 H   0  0  0  0  0  0
  -28.4940  -13.8476   21.7405 H   0  0  0  0  0  0
  -25.2731   -9.5721   22.4819 H   0  0  0  0  0  0
  -24.0049   -7.4645   22.7468 H   0  0  0  0  0  0
  -21.0866   -8.8780   19.8982 H   0  0  0  0  0  0
  -22.3688  -10.9709   19.6235 H   0  0  0  0  0  0
  -21.1995   -7.6146   23.9711 H   0  0  0  0  0  0
  -21.1485   -6.0522   25.9072 H   0  0  0  0  0  0
  -22.0600   -2.7613   23.2834 H   0  0  0  0  0  0
  -22.4088  -11.9956   22.4818 H   0  0  0  0  0  0
  -21.1084  -13.1317   22.2588 H   0  0  0  0  0  0
  -24.6481  -15.8405   20.5095 H   0  0  0  0  0  0
  -26.2875  -15.6388   20.1419 H   0  0  0  0  0  0
  -26.7146  -32.5517   23.1160 H   0  0  0  0  0  0
  -25.0115  -33.9772   25.0504 H   0  0  0  0  0  0
  -22.6963  -31.3084   21.4083 H   0  0  0  0  0  0
  -23.3756  -35.9614   23.3310 H   0  0  0  0  0  0
  -24.3579  -36.8865   22.2042 H   0  0  0  0  0  0
  -23.7224  -37.6493   23.6633 H   0  0  0  0  0  0
  -26.0468  -31.6003   20.5956 H   0  0  0  0  0  0
  -26.8281  -30.8856   21.9787 H   0  0  0  0  0  0
  -28.1161  -29.0932   21.1523 H   0  0  0  0  0  0
  -26.0532  -25.9488   19.0473 H   0  0  0  0  0  0
  -23.9843  -27.3011   19.0253 H   0  0  0  0  0  0
  -23.7224  -30.6042   19.4063 H   0  0  0  0  0  0
  -22.7403  -29.2471   19.8668 H   0  0  0  0  0  0
  -25.1254  -36.1966   25.0842 H   0  0  0  0  0  0
  -20.9965  -28.3254   24.1408 H   0  0  0  0  0  0
  -20.5622  -26.2297   23.3601 H   0  0  0  0  0  0
  -21.6620  -26.7425   22.1208 H   0  0  0  0  0  0
  -19.6908  -25.6297   21.1222 H   0  0  0  0  0  0
  -19.6670  -27.3201   20.6727 H   0  0  0  0  0  0
  -17.4171  -26.6675   21.4034 H   0  0  0  0  0  0
  -18.0344  -26.0048   22.8998 H   0  0  0  0  0  0
  -19.7921  -30.7246   24.2310 H   0  0  0  0  0  0
  -17.5006  -31.6263   24.5159 H   0  0  0  0  0  0
  -15.5348  -30.3007   23.7626 H   0  0  0  0  0  0
  -15.8657  -28.0829   22.7071 H   0  0  0  0  0  0
  -24.5955  -30.7011   25.7790 H   0  0  0  0  0  0
  -24.8937  -32.2852   26.4899 H   0  0  0  0  0  0
  -25.8118  -30.8872   27.0222 H   0  0  0  0  0  0
  -26.2866  -29.6784   24.1133 H   0  0  0  0  0  0
  -27.4069  -29.7241   25.4526 H   0  0  0  0  0  0
  -27.8697  -30.4310   23.9237 H   0  0  0  0  0  0
  -27.2745  -33.3575   26.2089 H   0  0  0  0  0  0
  -28.3878  -32.6853   25.0282 H   0  0  0  0  0  0
  -28.0789  -31.8384   26.5335 H   0  0  0  0  0  0
  -28.2595  -38.0082   24.7491 H   0  0  0  0  0  0
  -28.1068  -36.2606   24.6314 H   0  0  0  0  0  0
  -27.2288  -37.1450   25.8872 H   0  0  0  0  0  0
  -20.9316  -29.8769   21.6912 H   0  0  0  0  0  0
  -26.0176  -38.2852   24.1447 H   0  0  0  0  0  0
  -29.9036  -17.9051   18.1765 H   0  0  0  0  0  0
  -28.1532  -18.4431   22.7499 H   0  0  0  0  0  0
  -29.2082  -23.1999   22.4256 H   0  0  0  0  0  0
  -30.2890  -22.6733   21.0875 H   0  0  0  0  0  0
  -29.3334  -24.2095   19.5778 H   0  0  0  0  0  0
  -29.2097  -19.9298   17.5040 H   0  0  0  0  0  0
  -29.7010  -21.1127   18.7124 H   0  0  0  0  0  0
  -27.9872  -20.7723   18.4324 H   0  0  0  0  0  0
  -29.8889  -15.8001   17.4884 H   0  0  0  0  0  0
  -31.1571  -14.6684   17.9067 H   0  0  0  0  0  0
  -31.4497  -16.3532   18.1264 H   0  0  0  0  0  0
  -27.7188  -20.7490   22.4012 H   0  0  0  0  0  0
  -26.7234  -20.6238   20.9865 H   0  0  0  0  0  0
  -28.9608  -25.7180   21.8733 H   0  0  0  0  0  0
  -27.3044  -25.4105   21.5213 H   0  0  0  0  0  0
  1 25  1  0  0  0
  1 30  2  0  0  0
  1 85  1  0  0  0
  2  3  1  0  0  0
  2 25  1  0  0  0
  2 88  1  0  0  0
  2 89  1  0  0  0
  3  4  1  0  0  0
  3 90  1  0  0  0
  3 91  1  0  0  0
  4  5  1  0  0  0
  4 92  1  0  0  0
  4 93  1  0  0  0
  5  6  1  0  0  0
  5 26  1  0  0  0
  5 94  1  0  0  0
  6 25  1  0  0  0
  6 95  1  0  0  0
  6 96  1  0  0  0
  7  8  2  0  0  0
  7 26  1  0  0  0
  7 29  1  0  0  0
  8  9  1  0  0  0
  8 22  1  0  0  0
  9 10  1  0  0  0
  9 27  2  0  0  0
 10 11  2  0  0  0
 10 15  1  0  0  0
 11 12  1  0  0  0
 11 97  1  0  0  0
 12 13  2  0  0  0
 12 98  1  0  0  0
 13 14  1  0  0  0
 13 31  1  0  0  0
 14 15  2  0  0  0
 14 99  1  0  0  0
 15100  1  0  0  0
 16 17  2  0  0  0
 16 21  1  0  0  0
 16 31  1  0  0  0
 17 18  1  0  0  0
 17101  1  0  0  0
 18 19  2  0  0  0
 18102  1  0  0  0
 19 20  1  0  0  0
 19 24  1  0  0  0
 20 21  2  0  0  0
 20103  1  0  0  0
 21 23  1  0  0  0
 22 28  1  0  0  0
 22 32  2  0  0  0
 26 27  1  0  0  0
 28104  1  0  0  0
 28105  1  0  0  0
 29106  1  0  0  0
 29107  1  0  0  0
 33 34  1  0  0  0
 33 66  1  0  0  0
 33 70  2  0  0  0
 34 36  1  0  0  0
 34 59  1  0  0  0
 34108  1  0  0  0
 35 44  2  0  0  0
 35 45  1  0  0  0
 35 68  1  0  0  0
 36 56  1  0  0  0
 36109  1  0  0  0
 37 39  1  0  0  0
 37 47  1  0  0  0
 37 66  1  0  0  0
 37110  1  0  0  0
 38 43  2  0  0  0
 38 46  1  0  0  0
 38 47  1  0  0  0
 39 64  1  0  0  0
 39 67  2  0  0  0
 40 52  1  0  0  0
 40 53  2  0  0  0
 40 58  1  0  0  0
 41111  1  0  0  0
 41112  1  0  0  0
 41113  1  0  0  0
 41 48  1  0  0  0
 42 43  1  0  0  0
 42 66  1  0  0  0
 42114  1  0  0  0
 42115  1  0  0  0
 43 44  1  0  0  0
 44116  1  0  0  0
 45 46  2  0  0  0
 45117  1  0  0  0
 46118  1  0  0  0
 47119  1  0  0  0
 47120  1  0  0  0
 48 56  1  0  0  0
 48 65  1  0  0  0
 48121  1  0  0  0
 49 50  1  0  0  0
 49 53  1  0  0  0
 49 64  1  0  0  0
 49122  1  0  0  0
 50 51  1  0  0  0
 50123  1  0  0  0
 50124  1  0  0  0
 51 52  1  0  0  0
 51125  1  0  0  0
 51126  1  0  0  0
 52127  1  0  0  0
 52128  1  0  0  0
 53 54  1  0  0  0
 54 55  2  0  0  0
 54129  1  0  0  0
 55 57  1  0  0  0
 55130  1  0  0  0
 56 69  2  0  0  0
 57 58  2  0  0  0
 57131  1  0  0  0
 58132  1  0  0  0
 59 60  1  0  0  0
 59 61  1  0  0  0
 59 62  1  0  0  0
 60133  1  0  0  0
 60134  1  0  0  0
 60135  1  0  0  0
 61136  1  0  0  0
 61137  1  0  0  0
 61138  1  0  0  0
 62139  1  0  0  0
 62140  1  0  0  0
 62141  1  0  0  0
 63 65  1  0  0  0
 63142  1  0  0  0
 63143  1  0  0  0
 63144  1  0  0  0
 64145  1  0  0  0
 65146  1  0  0  0
 68 83  1  0  0  0
 71 73  2  0  0  0
 71 75  1  0  0  0
 71147  1  0  0  0
 72 74  2  0  0  0
 72 76  1  0  0  0
 72148  1  0  0  0
 73 74  1  0  0  0
 73 80  1  0  0  0
 74 82  1  0  0  0
 75 76  2  0  0  0
 75 85  1  0  0  0
 76 87  1  0  0  0
 77 79  1  0  0  0
 77 84  1  0  0  0
 77 86  2  0  0  0
 78 79  1  0  0  0
 78 84  1  0  0  0
 78149  1  0  0  0
 78150  1  0  0  0
 79 83  1  0  0  0
 79151  1  0  0  0
 80152  1  0  0  0
 80153  1  0  0  0
 80154  1  0  0  0
 81 85  1  0  0  0
 81155  1  0  0  0
 81156  1  0  0  0
 81157  1  0  0  0
 82 84  1  0  0  0
 82158  1  0  0  0
 82159  1  0  0  0
 83160  1  0  0  0
 83161  1  0  0  0
M  ISO  4   1 100  68 101  83 101  85 100
M  END
> <chiral flag>
0

> <version>
0

> <s_m_source_file>
/data/baiqing/PycharmProjects/Reinvent-master-3.2/result/LINK_invent/BTK/process_docking_weight1_custom_product_contain_oxygen_bond_distance_aromatic_linkinvent_7_9_3/rearranged_h_0015.sdf

> <i_m_source_file_index>
36

> <r_mmod_Potential_Energy-OPLS-2005>
192.338363647461

> <r_mmod_Stretch_Energy-OPLS-2005>
54.0620613098145

> <r_mmod_Bend_Energy-OPLS-2005>
127.784973144531

> <r_mmod_Torsional_Energy-OPLS-2005>
333.100952148438

> <r_mmod_Improper_Torsional_Energy-OPLS-2005>
33.8489837646484

> <r_mmod_Van_der_Waal_Energy-OPLS-2005>
153.076141357422

> <r_mmod_Electrostatic_Energy-OPLS-2005>
-361.440277099609

> <r_mmod_Solvation_Energy-OPLS-2005>
-203.481796264648

> <b_mmod_Minimization_Converged-OPLS-2005>
0

> <r_mmod_RMS_Derivative-OPLS-2005>
3.85141205787659

$$$$
36
                    3D
 Structure written by MMmdl.
172181  0  0  1  0            999 V2000
  -30.8050  -14.2866   20.6805 C   0  0  0  0  0  0
  -30.3979  -12.2431   19.3916 C   0  0  0  0  0  0
  -29.4764  -12.5322   18.1940 C   0  0  0  0  0  0
  -27.9986  -12.4078   18.6051 C   0  0  0  0  0  0
  -27.6677  -13.2111   19.8908 C   0  0  2  0  0  0
  -28.7027  -12.9288   21.0039 C   0  0  0  0  0  0
  -25.2578  -13.8187   20.5693 C   0  0  0  0  0  0
  -24.1827  -13.0455   20.9164 C   0  0  0  0  0  0
  -24.6388  -11.6922   20.8734 C   0  0  0  0  0  0
  -23.9065  -10.4302   21.0403 C   0  0  0  0  0  0
  -24.3625   -9.4211   21.9181 C   0  0  0  0  0  0
  -23.6307   -8.2239   22.0754 C   0  0  0  0  0  0
  -22.4279   -8.0278   21.3555 C   0  0  0  0  0  0
  -21.9918   -9.0244   20.4649 C   0  0  0  0  0  0
  -22.7239  -10.2127   20.3051 C   0  0  0  0  0  0
  -21.6847   -6.0748   22.5289 C   0  0  0  0  0  0
  -21.4005   -6.5646   23.8224 C   0  0  0  0  0  0
  -21.3660   -5.6796   24.9187 C   0  0  0  0  0  0
  -21.6044   -4.3058   24.7231 C   0  0  0  0  0  0
  -21.8817   -3.8158   23.4349 C   0  0  0  0  0  0
  -21.9187   -4.6979   22.3410 C   0  0  0  0  0  0
  -22.7844  -13.5239   21.1852 C   0  0  0  0  0  0
  -22.1655   -4.2165   21.0992 F   0  0  0  0  0  0
  -21.5632   -3.4542   25.7745 F   0  0  0  0  0  0
  -30.0554  -13.1784   20.4715 N   0  0  0  0  0  0
  -26.3050  -12.9384   20.3446 N   0  0  0  0  0  0
  -25.9323  -11.6536   20.5793 N   0  0  0  0  0  0
  -22.0491  -12.8219   22.0399 N   0  0  0  0  0  0
  -25.4303  -15.1921   20.4101 N   0  0  0  0  0  0
  -31.8197  -14.5392   20.0211 O   0  0  0  0  0  0
  -21.6631   -6.8887   21.4251 O   0  0  0  0  0  0
  -22.3523  -14.5557   20.6716 O   0  0  0  0  0  0
  -24.6050  -31.8718   23.2136 C   0  0  0  0  0  0
  -25.8996  -32.4836   23.8384 C   0  0  1  0  0  0
  -27.2619  -27.5207   20.0948 C   0  0  0  0  0  0
  -25.5864  -33.8636   24.2315 N   0  0  0  0  0  0
  -23.3883  -30.4927   21.5522 C   0  0  2  0  0  0
  -24.8442  -28.9694   20.1136 C   0  0  0  0  0  0
  -22.7368  -29.4669   22.5034 C   0  0  0  0  0  0
  -18.0244  -28.1415   22.8495 C   0  0  0  0  0  0
  -24.1483  -36.7327   23.2642 C   0  0  0  0  0  0
  -25.9063  -30.8745   21.3507 C   0  0  0  0  0  0
  -25.9941  -29.5160   20.6937 C   0  0  0  0  0  0
  -27.2057  -28.8042   20.6717 C   0  0  0  0  0  0
  -26.1038  -26.9766   19.5016 C   0  0  0  0  0  0
  -24.8926  -27.6993   19.5078 C   0  0  0  0  0  0
  -23.5928  -29.8145   20.1696 C   0  0  0  0  0  0
  -25.4096  -36.3108   24.0339 C   0  0  1  0  0  0
  -20.5824  -28.3648   23.1372 C   0  0  2  0  0  0
  -20.6736  -26.9384   22.5467 C   0  0  0  0  0  0
  -19.5714  -26.6387   21.5265 C   0  0  0  0  0  0
  -18.1882  -26.7955   22.1651 C   0  0  0  0  0  0
  -19.1495  -28.8856   23.2923 C   0  0  0  0  0  0
  -18.9426  -30.1485   23.8894 C   0  0  0  0  0  0
  -17.6427  -30.6600   24.0591 C   0  0  0  0  0  0
  -25.9011  -34.9484   23.5113 C   0  0  0  0  0  0
  -16.5317  -29.9105   23.6341 C   0  0  0  0  0  0
  -16.7235  -28.6562   23.0289 C   0  0  0  0  0  0
  -26.4489  -31.6596   25.0678 C   0  0  0  0  0  0
  -25.3759  -31.3702   26.1393 C   0  0  0  0  0  0
  -27.0350  -30.3031   24.6089 C   0  0  0  0  0  0
  -27.6051  -32.4325   25.7440 C   0  0  0  0  0  0
  -27.5585  -37.1788   24.8444 C   0  0  0  0  0  0
  -21.4098  -29.3022   22.3802 N   0  0  0  0  0  0
  -26.4295  -37.3782   23.9401 N   0  0  0  0  0  0
  -24.6501  -31.0902   22.0987 N   0  0  0  0  0  0
  -23.4202  -28.8238   23.3044 O   0  0  0  0  0  0
  -28.4154  -26.7808   20.1407 O   0  0  0  0  0  0
  -26.5557  -34.8926   22.4671 O   0  0  0  0  0  0
  -23.5279  -32.1426   23.7617 O   0  0  0  0  0  0
  -31.1593  -18.1896   23.5764 C   0  0  0  0  0  0
  -31.7920  -18.5097   21.2412 C   0  0  0  0  0  0
  -30.7738  -16.8638   23.2937 C   0  0  0  0  0  0
  -31.3756  -17.2078   20.9507 C   0  0  0  0  0  0
  -31.2115  -24.8485   23.3972 C   0  0  0  0  0  0
  -31.2066  -23.4435   23.3970 C   0  0  0  0  0  0
  -31.7190  -24.8467   21.0010 C   0  0  0  0  0  0
  -31.6352  -19.0224   22.5420 C   0  0  0  0  0  0
  -30.8723  -16.3689   21.9768 C   0  0  0  0  0  0
  -31.4051  -25.5447   22.1813 C   0  0  0  0  0  0
  -31.4141  -22.7461   22.1871 C   0  0  0  0  0  0
  -31.7280  -23.4448   21.0022 C   0  0  0  0  0  0
  -31.9175  -20.4696   22.8008 C   0  0  0  0  0  0
  -32.3670  -29.0504   22.1217 C   0  0  0  0  0  0
  -30.0538  -20.9779   21.2184 C   0  0  0  0  0  0
  -32.0739  -27.7301   22.8409 C   0  0  0  0  0  0
  -29.7128  -27.2067   22.2665 C   0  0  0  0  0  0
  -28.7091  -26.3213   21.4637 C   0  0  0  0  0  0
  -30.4278  -15.0506   21.7120 N   0  0  0  0  0  0
  -31.1638  -21.3604   22.1084 N   0  0  0  0  0  0
  -31.1387  -26.9113   22.0764 N   0  0  0  0  0  0
  -32.7806  -20.7774   23.6282 O   0  0  0  0  0  0
  -31.9697  -22.7729   19.8498 F   0  0  0  0  0  0
  -31.4423  -12.3129   19.0811 H   0  0  0  0  0  0
  -30.2671  -11.2173   19.7368 H   0  0  0  0  0  0
  -29.6960  -11.8500   17.3715 H   0  0  0  0  0  0
  -29.6683  -13.5387   17.8191 H   0  0  0  0  0  0
  -27.7773  -11.3506   18.7595 H   0  0  0  0  0  0
  -27.3553  -12.7381   17.7891 H   0  0  0  0  0  0
  -27.7354  -14.2703   19.6419 H   0  0  0  0  0  0
  -28.6338  -11.8876   21.3212 H   0  0  0  0  0  0
  -28.4687  -13.5154   21.8921 H   0  0  0  0  0  0
  -25.2777   -9.5682   22.4747 H   0  0  0  0  0  0
  -24.0020   -7.4628   22.7468 H   0  0  0  0  0  0
  -21.0847   -8.8760   19.8956 H   0  0  0  0  0  0
  -22.3706  -10.9661   19.6150 H   0  0  0  0  0  0
  -21.1985   -7.6153   23.9740 H   0  0  0  0  0  0
  -21.1486   -6.0525   25.9096 H   0  0  0  0  0  0
  -22.0595   -2.7619   23.2847 H   0  0  0  0  0  0
  -22.4112  -11.9868   22.4762 H   0  0  0  0  0  0
  -21.1109  -13.1240   22.2622 H   0  0  0  0  0  0
  -24.6706  -15.8559   20.5213 H   0  0  0  0  0  0
  -26.2983  -15.6280   20.1233 H   0  0  0  0  0  0
  -26.7075  -32.5600   23.1168 H   0  0  0  0  0  0
  -24.9973  -33.9804   25.0431 H   0  0  0  0  0  0
  -22.6666  -31.3011   21.4133 H   0  0  0  0  0  0
  -23.3744  -35.9654   23.3294 H   0  0  0  0  0  0
  -24.3602  -36.8954   22.2062 H   0  0  0  0  0  0
  -23.7221  -37.6525   23.6660 H   0  0  0  0  0  0
  -26.0018  -31.6623   20.6012 H   0  0  0  0  0  0
  -26.7969  -30.9270   21.9650 H   0  0  0  0  0  0
  -28.0873  -29.2654   21.0864 H   0  0  0  0  0  0
  -26.1410  -25.9952   19.0519 H   0  0  0  0  0  0
  -24.0053  -27.2763   19.0574 H   0  0  0  0  0  0
  -23.6768  -30.5790   19.3981 H   0  0  0  0  0  0
  -22.7251  -29.2139   19.8897 H   0  0  0  0  0  0
  -25.1293  -36.1959   25.0832 H   0  0  0  0  0  0
  -20.9895  -28.3192   24.1498 H   0  0  0  0  0  0
  -20.5664  -26.2231   23.3645 H   0  0  0  0  0  0
  -21.6595  -26.7435   22.1237 H   0  0  0  0  0  0
  -19.6848  -25.6299   21.1282 H   0  0  0  0  0  0
  -19.6668  -27.3219   20.6818 H   0  0  0  0  0  0
  -17.4153  -26.6702   21.4054 H   0  0  0  0  0  0
  -18.0251  -26.0130   22.9073 H   0  0  0  0  0  0
  -19.7901  -30.7340   24.2202 H   0  0  0  0  0  0
  -17.4966  -31.6258   24.5235 H   0  0  0  0  0  0
  -15.5313  -30.2991   23.7719 H   0  0  0  0  0  0
  -15.8636  -28.0952   22.6878 H   0  0  0  0  0  0
  -24.5875  -30.7158   25.7655 H   0  0  0  0  0  0
  -24.9052  -32.2893   26.4888 H   0  0  0  0  0  0
  -25.8069  -30.8745   27.0095 H   0  0  0  0  0  0
  -26.2926  -29.6713   24.1198 H   0  0  0  0  0  0
  -27.4146  -29.7322   25.4578 H   0  0  0  0  0  0
  -27.8729  -30.4311   23.9233 H   0  0  0  0  0  0
  -27.2654  -33.3581   26.2086 H   0  0  0  0  0  0
  -28.3829  -32.6963   25.0269 H   0  0  0  0  0  0
  -28.0746  -31.8398   26.5292 H   0  0  0  0  0  0
  -28.2559  -38.0129   24.7520 H   0  0  0  0  0  0
  -28.1131  -36.2654   24.6229 H   0  0  0  0  0  0
  -27.2317  -37.1373   25.8851 H   0  0  0  0  0  0
  -20.9228  -29.8722   21.7026 H   0  0  0  0  0  0
  -26.0189  -38.2853   24.1412 H   0  0  0  0  0  0
  -31.0533  -18.5828   24.5781 H   0  0  0  0  0  0
  -32.1745  -19.1343   20.4434 H   0  0  0  0  0  0
  -30.3936  -16.2416   24.0943 H   0  0  0  0  0  0
  -31.4408  -16.8885   19.9198 H   0  0  0  0  0  0
  -30.9783  -25.3732   24.3146 H   0  0  0  0  0  0
  -30.9732  -22.9094   24.3079 H   0  0  0  0  0  0
  -31.8698  -25.3778   20.0721 H   0  0  0  0  0  0
  -32.9650  -29.7052   22.7557 H   0  0  0  0  0  0
  -31.4545  -29.5899   21.8614 H   0  0  0  0  0  0
  -32.9268  -28.8851   21.2006 H   0  0  0  0  0  0
  -29.3499  -21.8016   21.0926 H   0  0  0  0  0  0
  -29.4712  -20.1379   21.6002 H   0  0  0  0  0  0
  -30.4311  -20.7265   20.2255 H   0  0  0  0  0  0
  -31.6434  -27.9326   23.8240 H   0  0  0  0  0  0
  -33.0109  -27.1955   23.0202 H   0  0  0  0  0  0
  -29.4858  -27.0770   23.3255 H   0  0  0  0  0  0
  -29.5590  -28.2634   22.0718 H   0  0  0  0  0  0
  -27.7846  -26.2770   22.0456 H   0  0  0  0  0  0
  -29.0128  -25.2771   21.4072 H   0  0  0  0  0  0
  -29.7255  -14.6651   22.3271 H   0  0  0  0  0  0
  1 25  1  0  0  0
  1 30  2  0  0  0
  1 89  1  0  0  0
  2  3  1  0  0  0
  2 25  1  0  0  0
  2 94  1  0  0  0
  2 95  1  0  0  0
  3  4  1  0  0  0
  3 96  1  0  0  0
  3 97  1  0  0  0
  4  5  1  0  0  0
  4 98  1  0  0  0
  4 99  1  0  0  0
  5  6  1  0  0  0
  5 26  1  0  0  0
  5100  1  0  0  0
  6 25  1  0  0  0
  6101  1  0  0  0
  6102  1  0  0  0
  7  8  2  0  0  0
  7 26  1  0  0  0
  7 29  1  0  0  0
  8  9  1  0  0  0
  8 22  1  0  0  0
  9 10  1  0  0  0
  9 27  2  0  0  0
 10 11  2  0  0  0
 10 15  1  0  0  0
 11 12  1  0  0  0
 11103  1  0  0  0
 12 13  2  0  0  0
 12104  1  0  0  0
 13 14  1  0  0  0
 13 31  1  0  0  0
 14 15  2  0  0  0
 14105  1  0  0  0
 15106  1  0  0  0
 16 17  2  0  0  0
 16 21  1  0  0  0
 16 31  1  0  0  0
 17 18  1  0  0  0
 17107  1  0  0  0
 18 19  2  0  0  0
 18108  1  0  0  0
 19 20  1  0  0  0
 19 24  1  0  0  0
 20 21  2  0  0  0
 20109  1  0  0  0
 21 23  1  0  0  0
 22 28  1  0  0  0
 22 32  2  0  0  0
 26 27  1  0  0  0
 28110  1  0  0  0
 28111  1  0  0  0
 29112  1  0  0  0
 29113  1  0  0  0
 33 34  1  0  0  0
 33 66  1  0  0  0
 33 70  2  0  0  0
 34 36  1  0  0  0
 34 59  1  0  0  0
 34114  1  0  0  0
 35 44  2  0  0  0
 35 45  1  0  0  0
 35 68  1  0  0  0
 36 56  1  0  0  0
 36115  1  0  0  0
 37 39  1  0  0  0
 37 47  1  0  0  0
 37 66  1  0  0  0
 37116  1  0  0  0
 38 43  2  0  0  0
 38 46  1  0  0  0
 38 47  1  0  0  0
 39 64  1  0  0  0
 39 67  2  0  0  0
 40 52  1  0  0  0
 40 53  2  0  0  0
 40 58  1  0  0  0
 41117  1  0  0  0
 41118  1  0  0  0
 41119  1  0  0  0
 41 48  1  0  0  0
 42 43  1  0  0  0
 42 66  1  0  0  0
 42120  1  0  0  0
 42121  1  0  0  0
 43 44  1  0  0  0
 44122  1  0  0  0
 45 46  2  0  0  0
 45123  1  0  0  0
 46124  1  0  0  0
 47125  1  0  0  0
 47126  1  0  0  0
 48 56  1  0  0  0
 48 65  1  0  0  0
 48127  1  0  0  0
 49 50  1  0  0  0
 49 53  1  0  0  0
 49 64  1  0  0  0
 49128  1  0  0  0
 50 51  1  0  0  0
 50129  1  0  0  0
 50130  1  0  0  0
 51 52  1  0  0  0
 51131  1  0  0  0
 51132  1  0  0  0
 52133  1  0  0  0
 52134  1  0  0  0
 53 54  1  0  0  0
 54 55  2  0  0  0
 54135  1  0  0  0
 55 57  1  0  0  0
 55136  1  0  0  0
 56 69  2  0  0  0
 57 58  2  0  0  0
 57137  1  0  0  0
 58138  1  0  0  0
 59 60  1  0  0  0
 59 61  1  0  0  0
 59 62  1  0  0  0
 60139  1  0  0  0
 60140  1  0  0  0
 60141  1  0  0  0
 61142  1  0  0  0
 61143  1  0  0  0
 61144  1  0  0  0
 62145  1  0  0  0
 62146  1  0  0  0
 62147  1  0  0  0
 63 65  1  0  0  0
 63148  1  0  0  0
 63149  1  0  0  0
 63150  1  0  0  0
 64151  1  0  0  0
 65152  1  0  0  0
 68 88  1  0  0  0
 71 73  2  0  0  0
 71 78  1  0  0  0
 71153  1  0  0  0
 72 74  1  0  0  0
 72 78  2  0  0  0
 72154  1  0  0  0
 73 79  1  0  0  0
 73155  1  0  0  0
 74 79  2  0  0  0
 74156  1  0  0  0
 75 76  2  0  0  0
 75 80  1  0  0  0
 75157  1  0  0  0
 76 81  1  0  0  0
 76158  1  0  0  0
 77 80  2  0  0  0
 77 82  1  0  0  0
 77159  1  0  0  0
 78 83  1  0  0  0
 79 89  1  0  0  0
 80 91  1  0  0  0
 81 82  2  0  0  0
 81 90  1  0  0  0
 82 93  1  0  0  0
 83 90  1  0  0  0
 83 92  2  0  0  0
 84 86  1  0  0  0
 84160  1  0  0  0
 84161  1  0  0  0
 84162  1  0  0  0
 85 90  1  0  0  0
 85163  1  0  0  0
 85164  1  0  0  0
 85165  1  0  0  0
 86 91  1  0  0  0
 86166  1  0  0  0
 86167  1  0  0  0
 87 88  1  0  0  0
 87 91  1  0  0  0
 87168  1  0  0  0
 87169  1  0  0  0
 88170  1  0  0  0
 88171  1  0  0  0
 89172  1  0  0  0
M  ISO  4   1 100  68 101  88 101  89 100
M  END
> <chiral flag>
0

> <version>
0

> <s_m_source_file>
/data/baiqing/PycharmProjects/Reinvent-master-3.2/result/LINK_invent/BTK/process_docking_weight1_custom_product_contain_oxygen_bond_distance_aromatic_linkinvent_7_9_3/rearranged_h_0015.sdf

> <i_m_source_file_index>
37

> <r_mmod_Potential_Energy-OPLS-2005>
136.183929443359

> <r_mmod_Stretch_Energy-OPLS-2005>
34.9160766601562

> <r_mmod_Bend_Energy-OPLS-2005>
94.7457885742188

> <r_mmod_Torsional_Energy-OPLS-2005>
356.855651855469

> <r_mmod_Improper_Torsional_Energy-OPLS-2005>
8.3925952911377

> <r_mmod_Van_der_Waal_Energy-OPLS-2005>
207.252700805664

> <r_mmod_Electrostatic_Energy-OPLS-2005>
-350.315307617188

> <r_mmod_Solvation_Energy-OPLS-2005>
-226.053253173828

> <b_mmod_Minimization_Converged-OPLS-2005>
0

> <r_mmod_RMS_Derivative-OPLS-2005>
3.46483469009399

$$$$
37
                    3D
 Structure written by MMmdl.
160169  0  0  1  0            999 V2000
  -30.6149  -14.6374   20.5045 C   0  0  0  0  0  0
  -30.4394  -12.3896   19.4543 C   0  0  0  0  0  0
  -29.5083  -12.5106   18.2259 C   0  0  0  0  0  0
  -28.0311  -12.3481   18.6378 C   0  0  0  0  0  0
  -27.6543  -13.2162   19.8682 C   0  0  2  0  0  0
  -28.6980  -13.0608   20.9981 C   0  0  0  0  0  0
  -25.2543  -13.8160   20.5690 C   0  0  0  0  0  0
  -24.1805  -13.0420   20.9164 C   0  0  0  0  0  0
  -24.6386  -11.6899   20.8734 C   0  0  0  0  0  0
  -23.9064  -10.4282   21.0403 C   0  0  0  0  0  0
  -24.3611   -9.4201   21.9187 C   0  0  0  0  0  0
  -23.6282   -8.2242   22.0765 C   0  0  0  0  0  0
  -22.4263   -8.0279   21.3552 C   0  0  0  0  0  0
  -21.9897   -9.0256   20.4655 C   0  0  0  0  0  0
  -22.7235  -10.2126   20.3057 C   0  0  0  0  0  0
  -21.6849   -6.0729   22.5281 C   0  0  0  0  0  0
  -21.4021   -6.5637   23.8213 C   0  0  0  0  0  0
  -21.3661   -5.6790   24.9178 C   0  0  0  0  0  0
  -21.6040   -4.3053   24.7225 C   0  0  0  0  0  0
  -21.8818   -3.8143   23.4349 C   0  0  0  0  0  0
  -21.9193   -4.6960   22.3404 C   0  0  0  0  0  0
  -22.7827  -13.5221   21.1831 C   0  0  0  0  0  0
  -22.1657   -4.2148   21.0981 F   0  0  0  0  0  0
  -21.5626   -3.4538   25.7740 F   0  0  0  0  0  0
  -30.0170  -13.4051   20.4399 N   0  0  0  0  0  0
  -26.2987  -12.9354   20.3342 N   0  0  0  0  0  0
  -25.9317  -11.6507   20.5756 N   0  0  0  0  0  0
  -22.0470  -12.8226   22.0400 N   0  0  0  0  0  0
  -25.4230  -15.1880   20.4155 N   0  0  0  0  0  0
  -31.7664  -14.8163   20.0971 O   0  0  0  0  0  0
  -21.6632   -6.8873   21.4243 O   0  0  0  0  0  0
  -22.3518  -14.5539   20.6700 O   0  0  0  0  0  0
  -24.6251  -31.8607   23.2028 C   0  0  0  0  0  0
  -25.9103  -32.4784   23.8356 C   0  0  1  0  0  0
  -27.2266  -27.3292   20.1197 C   0  0  0  0  0  0
  -25.5922  -33.8584   24.2286 N   0  0  0  0  0  0
  -23.4182  -30.4836   21.5458 C   0  0  2  0  0  0
  -24.8649  -28.9363   20.1151 C   0  0  0  0  0  0
  -22.7467  -29.4626   22.4949 C   0  0  0  0  0  0
  -18.0285  -28.1381   22.8489 C   0  0  0  0  0  0
  -24.1488  -36.7299   23.2639 C   0  0  0  0  0  0
  -25.9577  -30.7943   21.3713 C   0  0  0  0  0  0
  -26.0332  -29.4206   20.7174 C   0  0  0  0  0  0
  -27.2188  -28.6304   20.7076 C   0  0  0  0  0  0
  -26.0394  -26.8958   19.4885 C   0  0  0  0  0  0
  -24.8692  -27.6784   19.4923 C   0  0  0  0  0  0
  -23.6329  -29.8165   20.1619 C   0  0  0  0  0  0
  -25.4111  -36.3088   24.0332 C   0  0  1  0  0  0
  -20.5882  -28.3683   23.1290 C   0  0  2  0  0  0
  -20.6774  -26.9410   22.5410 C   0  0  0  0  0  0
  -19.5752  -26.6385   21.5210 C   0  0  0  0  0  0
  -18.1932  -26.7924   22.1623 C   0  0  0  0  0  0
  -19.1536  -28.8850   23.2887 C   0  0  0  0  0  0
  -18.9459  -30.1451   23.8907 C   0  0  0  0  0  0
  -17.6460  -30.6586   24.0561 C   0  0  0  0  0  0
  -25.9051  -34.9456   23.5111 C   0  0  0  0  0  0
  -16.5352  -29.9086   23.6324 C   0  0  0  0  0  0
  -16.7272  -28.6499   23.0353 C   0  0  0  0  0  0
  -26.4490  -31.6590   25.0724 C   0  0  0  0  0  0
  -25.3725  -31.3723   26.1455 C   0  0  0  0  0  0
  -27.0322  -30.3015   24.6160 C   0  0  0  0  0  0
  -27.6055  -32.4320   25.7492 C   0  0  0  0  0  0
  -27.5579  -37.1805   24.8466 C   0  0  0  0  0  0
  -21.4182  -29.3041   22.3690 N   0  0  0  0  0  0
  -26.4290  -37.3780   23.9411 N   0  0  0  0  0  0
  -24.6858  -31.0629   22.0969 N   0  0  0  0  0  0
  -23.4198  -28.8163   23.3023 O   0  0  0  0  0  0
  -28.3543  -26.5003   20.1241 O   0  0  0  0  0  0
  -26.5619  -34.8920   22.4677 O   0  0  0  0  0  0
  -23.5421  -32.1400   23.7369 O   0  0  0  0  0  0
  -30.6648  -19.2836   19.8620 C   0  0  0  0  0  0
  -30.8324  -17.8838   20.1054 C   0  0  0  0  0  0
  -28.4468  -19.2016   20.7873 C   0  0  0  0  0  0
  -29.4621  -19.9815   20.1758 C   0  0  0  0  0  0
  -29.7923  -17.1030   20.6774 C   0  0  0  0  0  0
  -28.6102  -17.8063   21.0274 C   0  0  0  0  0  0
  -31.5182  -23.4435   20.8479 C   0  0  0  0  0  0
  -30.6983  -24.6114   20.3097 C   0  0  0  0  0  0
  -30.4674  -22.5800   21.5396 C   0  0  0  0  0  0
  -29.2868  -24.0439   20.0372 C   0  0  2  0  0  0
  -29.2113  -21.4686   19.7011 C   0  0  0  0  0  0
  -28.1852  -25.0845   20.5308 C   0  0  0  0  0  0
  -29.8080  -15.6610   20.9191 N   0  0  0  0  0  0
  -29.2717  -22.6414   20.6687 N   0  3  1  0  0  0
  -27.5862  -17.1101   21.5770 F   0  0  0  0  0  0
  -31.4807  -12.5181   19.1542 H   0  0  0  0  0  0
  -30.3758  -11.3905   19.8891 H   0  0  0  0  0  0
  -29.7717  -11.7626   17.4762 H   0  0  0  0  0  0
  -29.6502  -13.4811   17.7477 H   0  0  0  0  0  0
  -27.8712  -11.2950   18.8712 H   0  0  0  0  0  0
  -27.3749  -12.5777   17.7973 H   0  0  0  0  0  0
  -27.6745  -14.2527   19.5309 H   0  0  0  0  0  0
  -28.7050  -12.0363   21.3732 H   0  0  0  0  0  0
  -28.4403  -13.6851   21.8551 H   0  0  0  0  0  0
  -25.2755   -9.5677   22.4764 H   0  0  0  0  0  0
  -23.9995   -7.4630   22.7479 H   0  0  0  0  0  0
  -21.0832   -8.8774   19.8955 H   0  0  0  0  0  0
  -22.3702  -10.9667   19.6165 H   0  0  0  0  0  0
  -21.2023   -7.6145   23.9721 H   0  0  0  0  0  0
  -21.1481   -6.0518   25.9081 H   0  0  0  0  0  0
  -22.0597   -2.7608   23.2845 H   0  0  0  0  0  0
  -22.4081  -11.9886   22.4788 H   0  0  0  0  0  0
  -21.1102  -13.1283   22.2628 H   0  0  0  0  0  0
  -24.6667  -15.8429   20.5771 H   0  0  0  0  0  0
  -26.3019  -15.6475   20.2152 H   0  0  0  0  0  0
  -26.7171  -32.5456   23.1107 H   0  0  0  0  0  0
  -25.0059  -33.9722   25.0425 H   0  0  0  0  0  0
  -22.7120  -31.3039   21.4023 H   0  0  0  0  0  0
  -23.3749  -35.9633   23.3299 H   0  0  0  0  0  0
  -24.3584  -36.8920   22.2054 H   0  0  0  0  0  0
  -23.7244  -37.6501   23.6662 H   0  0  0  0  0  0
  -26.0874  -31.5561   20.6011 H   0  0  0  0  0  0
  -26.8391  -30.8453   21.9988 H   0  0  0  0  0  0
  -28.1185  -29.0039   21.1771 H   0  0  0  0  0  0
  -26.0032  -25.9450   18.9770 H   0  0  0  0  0  0
  -23.9764  -27.3051   19.0100 H   0  0  0  0  0  0
  -23.7536  -30.5919   19.4046 H   0  0  0  0  0  0
  -22.7529  -29.2464   19.8594 H   0  0  0  0  0  0
  -25.1289  -36.1939   25.0824 H   0  0  0  0  0  0
  -20.9973  -28.3255   24.1413 H   0  0  0  0  0  0
  -20.5676  -26.2295   23.3606 H   0  0  0  0  0  0
  -21.6645  -26.7446   22.1206 H   0  0  0  0  0  0
  -19.6915  -25.6298   21.1241 H   0  0  0  0  0  0
  -19.6686  -27.3194   20.6738 H   0  0  0  0  0  0
  -17.4200  -26.6672   21.4024 H   0  0  0  0  0  0
  -18.0332  -26.0064   22.9017 H   0  0  0  0  0  0
  -19.7934  -30.7258   24.2291 H   0  0  0  0  0  0
  -17.5015  -31.6267   24.5157 H   0  0  0  0  0  0
  -15.5353  -30.2991   23.7640 H   0  0  0  0  0  0
  -15.8670  -28.0815   22.7074 H   0  0  0  0  0  0
  -24.5902  -30.7068   25.7787 H   0  0  0  0  0  0
  -24.8913  -32.2886   26.4885 H   0  0  0  0  0  0
  -25.8053  -30.8901   27.0227 H   0  0  0  0  0  0
  -26.2880  -29.6777   24.1192 H   0  0  0  0  0  0
  -27.4035  -29.7262   25.4652 H   0  0  0  0  0  0
  -27.8750  -30.4312   23.9364 H   0  0  0  0  0  0
  -27.2669  -33.3622   26.2068 H   0  0  0  0  0  0
  -28.3862  -32.6875   25.0315 H   0  0  0  0  0  0
  -28.0722  -31.8444   26.5407 H   0  0  0  0  0  0
  -28.2600  -38.0099   24.7510 H   0  0  0  0  0  0
  -28.1072  -36.2634   24.6290 H   0  0  0  0  0  0
  -27.2303  -37.1452   25.8870 H   0  0  0  0  0  0
  -20.9362  -29.8769   21.6902 H   0  0  0  0  0  0
  -26.0174  -38.2858   24.1401 H   0  0  0  0  0  0
  -31.4707  -19.8170   19.3761 H   0  0  0  0  0  0
  -31.7624  -17.4132   19.8192 H   0  0  0  0  0  0
  -27.4999  -19.6578   21.0372 H   0  0  0  0  0  0
  -32.3141  -23.7598   21.5233 H   0  0  0  0  0  0
  -31.9777  -22.8928   20.0260 H   0  0  0  0  0  0
  -31.1456  -25.0598   19.4213 H   0  0  0  0  0  0
  -30.6561  -25.3920   21.0712 H   0  0  0  0  0  0
  -30.2117  -23.0252   22.5022 H   0  0  0  0  0  0
  -30.8254  -21.5719   21.7484 H   0  0  0  0  0  0
  -29.1661  -23.9344   18.9581 H   0  0  0  0  0  0
  -28.2355  -21.4969   19.2149 H   0  0  0  0  0  0
  -29.9272  -21.6659   18.9023 H   0  0  0  0  0  0
  -28.1772  -25.0856   21.6219 H   0  0  0  0  0  0
  -27.2120  -24.6915   20.2422 H   0  0  0  0  0  0
  -28.9379  -15.3299   21.3073 H   0  0  0  0  0  0
  -28.4596  -22.5486   21.2622 H   0  0  0  0  0  0
  1 25  1  0  0  0
  1 30  2  0  0  0
  1 83  1  0  0  0
  2  3  1  0  0  0
  2 25  1  0  0  0
  2 86  1  0  0  0
  2 87  1  0  0  0
  3  4  1  0  0  0
  3 88  1  0  0  0
  3 89  1  0  0  0
  4  5  1  0  0  0
  4 90  1  0  0  0
  4 91  1  0  0  0
  5  6  1  0  0  0
  5 26  1  0  0  0
  5 92  1  0  0  0
  6 25  1  0  0  0
  6 93  1  0  0  0
  6 94  1  0  0  0
  7  8  2  0  0  0
  7 26  1  0  0  0
  7 29  1  0  0  0
  8  9  1  0  0  0
  8 22  1  0  0  0
  9 10  1  0  0  0
  9 27  2  0  0  0
 10 11  2  0  0  0
 10 15  1  0  0  0
 11 12  1  0  0  0
 11 95  1  0  0  0
 12 13  2  0  0  0
 12 96  1  0  0  0
 13 14  1  0  0  0
 13 31  1  0  0  0
 14 15  2  0  0  0
 14 97  1  0  0  0
 15 98  1  0  0  0
 16 17  2  0  0  0
 16 21  1  0  0  0
 16 31  1  0  0  0
 17 18  1  0  0  0
 17 99  1  0  0  0
 18 19  2  0  0  0
 18100  1  0  0  0
 19 20  1  0  0  0
 19 24  1  0  0  0
 20 21  2  0  0  0
 20101  1  0  0  0
 21 23  1  0  0  0
 22 28  1  0  0  0
 22 32  2  0  0  0
 26 27  1  0  0  0
 28102  1  0  0  0
 28103  1  0  0  0
 29104  1  0  0  0
 29105  1  0  0  0
 33 34  1  0  0  0
 33 66  1  0  0  0
 33 70  2  0  0  0
 34 36  1  0  0  0
 34 59  1  0  0  0
 34106  1  0  0  0
 35 44  2  0  0  0
 35 45  1  0  0  0
 35 68  1  0  0  0
 36 56  1  0  0  0
 36107  1  0  0  0
 37 39  1  0  0  0
 37 47  1  0  0  0
 37 66  1  0  0  0
 37108  1  0  0  0
 38 43  2  0  0  0
 38 46  1  0  0  0
 38 47  1  0  0  0
 39 64  1  0  0  0
 39 67  2  0  0  0
 40 52  1  0  0  0
 40 53  2  0  0  0
 40 58  1  0  0  0
 41109  1  0  0  0
 41110  1  0  0  0
 41111  1  0  0  0
 41 48  1  0  0  0
 42 43  1  0  0  0
 42 66  1  0  0  0
 42112  1  0  0  0
 42113  1  0  0  0
 43 44  1  0  0  0
 44114  1  0  0  0
 45 46  2  0  0  0
 45115  1  0  0  0
 46116  1  0  0  0
 47117  1  0  0  0
 47118  1  0  0  0
 48 56  1  0  0  0
 48 65  1  0  0  0
 48119  1  0  0  0
 49 50  1  0  0  0
 49 53  1  0  0  0
 49 64  1  0  0  0
 49120  1  0  0  0
 50 51  1  0  0  0
 50121  1  0  0  0
 50122  1  0  0  0
 51 52  1  0  0  0
 51123  1  0  0  0
 51124  1  0  0  0
 52125  1  0  0  0
 52126  1  0  0  0
 53 54  1  0  0  0
 54 55  2  0  0  0
 54127  1  0  0  0
 55 57  1  0  0  0
 55128  1  0  0  0
 56 69  2  0  0  0
 57 58  2  0  0  0
 57129  1  0  0  0
 58130  1  0  0  0
 59 60  1  0  0  0
 59 61  1  0  0  0
 59 62  1  0  0  0
 60131  1  0  0  0
 60132  1  0  0  0
 60133  1  0  0  0
 61134  1  0  0  0
 61135  1  0  0  0
 61136  1  0  0  0
 62137  1  0  0  0
 62138  1  0  0  0
 62139  1  0  0  0
 63 65  1  0  0  0
 63140  1  0  0  0
 63141  1  0  0  0
 63142  1  0  0  0
 64143  1  0  0  0
 65144  1  0  0  0
 68 82  1  0  0  0
 71 72  2  0  0  0
 71 74  1  0  0  0
 71145  1  0  0  0
 72 75  1  0  0  0
 72146  1  0  0  0
 73 74  2  0  0  0
 73 76  1  0  0  0
 73147  1  0  0  0
 74 81  1  0  0  0
 75 76  2  0  0  0
 75 83  1  0  0  0
 76 85  1  0  0  0
 77 78  1  0  0  0
 77 79  1  0  0  0
 77148  1  0  0  0
 77149  1  0  0  0
 78 80  1  0  0  0
 78150  1  0  0  0
 78151  1  0  0  0
 79 84  1  0  0  0
 79152  1  0  0  0
 79153  1  0  0  0
 80 82  1  0  0  0
 80 84  1  0  0  0
 80154  1  0  0  0
 81155  1  0  0  0
 81156  1  0  0  0
 81 84  1  0  0  0
 82157  1  0  0  0
 82158  1  0  0  0
 83159  1  0  0  0
 84160  1  0  0  0
M  CHG  1  84   1
M  ISO  4   1 100  68 101  82 101  83 100
M  END
> <chiral flag>
0

> <version>
0

> <s_m_source_file>
/data/baiqing/PycharmProjects/Reinvent-master-3.2/result/LINK_invent/BTK/process_docking_weight1_custom_product_contain_oxygen_bond_distance_aromatic_linkinvent_7_9_3/rearranged_h_0015.sdf

> <i_m_source_file_index>
38

> <r_mmod_Potential_Energy-OPLS-2005>
22.1129570007324

> <r_mmod_Stretch_Energy-OPLS-2005>
80.3119430541992

> <r_mmod_Bend_Energy-OPLS-2005>
163.003128051758

> <r_mmod_Torsional_Energy-OPLS-2005>
288.649932861328

> <r_mmod_Improper_Torsional_Energy-OPLS-2005>
4.53385353088379

> <r_mmod_Van_der_Waal_Energy-OPLS-2005>
137.763717651367

> <r_mmod_Electrostatic_Energy-OPLS-2005>
-263.133239746094

> <r_mmod_Solvation_Energy-OPLS-2005>
-433.199249267578

> <b_mmod_Minimization_Converged-OPLS-2005>
0

> <r_mmod_RMS_Derivative-OPLS-2005>
1.13686311244965

$$$$
38
                    3D
 Structure written by MMmdl.
159168  0  0  1  0            999 V2000
  -30.6778  -14.5479   20.3972 C   0  0  0  0  0  0
  -30.4194  -12.2819   19.4786 C   0  0  0  0  0  0
  -29.5151  -12.3750   18.2334 C   0  0  0  0  0  0
  -28.0211  -12.3284   18.6268 C   0  0  0  0  0  0
  -27.6477  -13.2150   19.8513 C   0  0  2  0  0  0
  -28.6981  -13.1102   20.9818 C   0  0  0  0  0  0
  -25.2537  -13.8198   20.5703 C   0  0  0  0  0  0
  -24.1782  -13.0458   20.9185 C   0  0  0  0  0  0
  -24.6366  -11.6926   20.8741 C   0  0  0  0  0  0
  -23.9070  -10.4293   21.0420 C   0  0  0  0  0  0
  -24.3636   -9.4194   21.9186 C   0  0  0  0  0  0
  -23.6264   -8.2251   22.0774 C   0  0  0  0  0  0
  -22.4274   -8.0270   21.3525 C   0  0  0  0  0  0
  -21.9889   -9.0277   20.4663 C   0  0  0  0  0  0
  -22.7248  -10.2143   20.3041 C   0  0  0  0  0  0
  -21.6817   -6.0727   22.5289 C   0  0  0  0  0  0
  -21.3997   -6.5647   23.8223 C   0  0  0  0  0  0
  -21.3660   -5.6806   24.9202 C   0  0  0  0  0  0
  -21.5998   -4.3063   24.7285 C   0  0  0  0  0  0
  -21.8862   -3.8172   23.4439 C   0  0  0  0  0  0
  -21.9184   -4.6958   22.3464 C   0  0  0  0  0  0
  -22.7824  -13.5264   21.1909 C   0  0  0  0  0  0
  -22.1660   -4.2142   21.1046 F   0  0  0  0  0  0
  -21.5610   -3.4545   25.7811 F   0  0  0  0  0  0
  -30.0187  -13.3563   20.3911 N   0  0  0  0  0  0
  -26.2954  -12.9336   20.3357 N   0  0  0  0  0  0
  -25.9285  -11.6510   20.5826 N   0  0  0  0  0  0
  -22.0545  -12.8173   22.0499 N   0  0  0  0  0  0
  -25.4435  -15.1895   20.4090 N   0  0  0  0  0  0
  -31.8973  -14.6314   20.2302 O   0  0  0  0  0  0
  -21.6621   -6.8859   21.4241 O   0  0  0  0  0  0
  -22.3464  -14.5594   20.6865 O   0  0  0  0  0  0
  -24.6135  -31.8615   23.2037 C   0  0  0  0  0  0
  -25.8997  -32.4821   23.8320 C   0  0  1  0  0  0
  -27.2423  -27.4163   20.1117 C   0  0  0  0  0  0
  -25.5902  -33.8626   24.2322 N   0  0  0  0  0  0
  -23.4050  -30.4857   21.5436 C   0  0  2  0  0  0
  -24.8564  -28.9473   20.1158 C   0  0  0  0  0  0
  -22.7407  -29.4622   22.4950 C   0  0  0  0  0  0
  -18.0238  -28.1362   22.8482 C   0  0  0  0  0  0
  -24.1524  -36.7343   23.2636 C   0  0  0  0  0  0
  -25.9267  -30.8388   21.3445 C   0  0  0  0  0  0
  -26.0095  -29.4582   20.7170 C   0  0  0  0  0  0
  -27.2046  -28.7015   20.7075 C   0  0  0  0  0  0
  -26.0585  -26.9159   19.5163 C   0  0  0  0  0  0
  -24.8721  -27.6750   19.5212 C   0  0  0  0  0  0
  -23.6152  -29.8090   20.1629 C   0  0  0  0  0  0
  -25.4149  -36.3125   24.0329 C   0  0  1  0  0  0
  -20.5815  -28.3667   23.1353 C   0  0  2  0  0  0
  -20.6744  -26.9396   22.5441 C   0  0  0  0  0  0
  -19.5731  -26.6391   21.5229 C   0  0  0  0  0  0
  -18.1907  -26.7923   22.1622 C   0  0  0  0  0  0
  -19.1462  -28.8826   23.2957 C   0  0  0  0  0  0
  -18.9432  -30.1441   23.8989 C   0  0  0  0  0  0
  -17.6436  -30.6604   24.0557 C   0  0  0  0  0  0
  -25.8999  -34.9486   23.5096 C   0  0  0  0  0  0
  -16.5330  -29.9119   23.6294 C   0  0  0  0  0  0
  -16.7248  -28.6495   23.0386 C   0  0  0  0  0  0
  -26.4412  -31.6571   25.0633 C   0  0  0  0  0  0
  -25.3685  -31.3579   26.1381 C   0  0  0  0  0  0
  -27.0226  -30.3046   24.5907 C   0  0  0  0  0  0
  -27.6003  -32.4211   25.7489 C   0  0  0  0  0  0
  -27.5600  -37.1834   24.8447 C   0  0  0  0  0  0
  -21.4105  -29.3071   22.3805 N   0  0  0  0  0  0
  -26.4332  -37.3824   23.9374 N   0  0  0  0  0  0
  -24.6697  -31.0735   22.0933 N   0  0  0  0  0  0
  -23.4156  -28.8160   23.3012 O   0  0  0  0  0  0
  -28.4385  -26.7181   20.1496 O   0  0  0  0  0  0
  -26.5616  -34.8915   22.4687 O   0  0  0  0  0  0
  -23.5351  -32.1401   23.7463 O   0  0  0  0  0  0
  -29.4619  -17.1207   21.9370 C   0  0  0  0  0  0
  -29.1775  -18.4662   22.3067 C   0  0  0  0  0  0
  -29.4230  -19.1996   19.9974 C   0  0  0  0  0  0
  -29.6662  -17.8621   19.6428 C   0  0  0  0  0  0
  -29.7056  -16.8290   20.5795 C   0  0  0  0  0  0
  -29.1680  -19.5163   21.3462 C   0  0  0  0  0  0
  -29.8894  -17.3479   18.2556 C   0  0  0  0  0  0
  -29.9224  -15.8237   18.4692 C   0  0  0  0  0  0
  -29.0077  -22.8744   20.1807 C   0  0  0  0  0  0
  -28.7102  -24.2928   20.7437 C   0  0  0  0  0  0
  -29.7294  -21.9192   21.1611 C   0  0  0  0  0  0
  -28.5688  -25.3733   19.6378 C   0  0  0  0  0  0
  -29.9063  -15.5740   19.9338 N   0  0  0  0  0  0
  -28.8948  -20.8481   21.6898 N   0  0  0  0  0  0
  -31.4704  -12.3368   19.1994 H   0  0  0  0  0  0
  -30.2848  -11.3200   19.9760 H   0  0  0  0  0  0
  -29.7206  -11.5447   17.5587 H   0  0  0  0  0  0
  -29.7260  -13.2718   17.6566 H   0  0  0  0  0  0
  -27.7805  -11.2827   18.8418 H   0  0  0  0  0  0
  -27.3967  -12.6027   17.7702 H   0  0  0  0  0  0
  -27.6444  -14.2434   19.4905 H   0  0  0  0  0  0
  -28.6767  -12.1306   21.4571 H   0  0  0  0  0  0
  -28.4898  -13.8509   21.7543 H   0  0  0  0  0  0
  -25.2797   -9.5644   22.4753 H   0  0  0  0  0  0
  -23.9954   -7.4615   22.7463 H   0  0  0  0  0  0
  -21.0800   -8.8799   19.8945 H   0  0  0  0  0  0
  -22.3697  -10.9685   19.6143 H   0  0  0  0  0  0
  -21.1993   -7.6143   23.9730 H   0  0  0  0  0  0
  -21.1391   -6.0544   25.9066 H   0  0  0  0  0  0
  -22.0630   -2.7623   23.2991 H   0  0  0  0  0  0
  -22.4128  -11.9724   22.4648 H   0  0  0  0  0  0
  -21.1285  -13.1231   22.3049 H   0  0  0  0  0  0
  -24.6972  -15.8773   20.4682 H   0  0  0  0  0  0
  -26.3420  -15.6010   20.1880 H   0  0  0  0  0  0
  -26.7121  -32.5554   23.1136 H   0  0  0  0  0  0
  -24.9980  -33.9794   25.0422 H   0  0  0  0  0  0
  -22.6936  -31.3021   21.3959 H   0  0  0  0  0  0
  -23.3753  -35.9683   23.3246 H   0  0  0  0  0  0
  -24.3619  -36.9020   22.2040 H   0  0  0  0  0  0
  -23.7271  -37.6548   23.6668 H   0  0  0  0  0  0
  -25.9953  -31.5884   20.5546 H   0  0  0  0  0  0
  -26.8331  -30.9351   21.9310 H   0  0  0  0  0  0
  -28.1023  -29.0963   21.1675 H   0  0  0  0  0  0
  -26.0017  -25.9416   19.0606 H   0  0  0  0  0  0
  -23.9823  -27.2758   19.0599 H   0  0  0  0  0  0
  -23.7179  -30.5716   19.3943 H   0  0  0  0  0  0
  -22.7478  -29.2164   19.8747 H   0  0  0  0  0  0
  -25.1305  -36.1975   25.0819 H   0  0  0  0  0  0
  -20.9950  -28.3214   24.1455 H   0  0  0  0  0  0
  -20.5639  -26.2251   23.3629 H   0  0  0  0  0  0
  -21.6627  -26.7427   22.1235 H   0  0  0  0  0  0
  -19.6887  -25.6313   21.1254 H   0  0  0  0  0  0
  -19.6693  -27.3219   20.6778 H   0  0  0  0  0  0
  -17.4183  -26.6729   21.4018 H   0  0  0  0  0  0
  -18.0277  -26.0050   22.8995 H   0  0  0  0  0  0
  -19.7914  -30.7228   24.2435 H   0  0  0  0  0  0
  -17.4982  -31.6273   24.5146 H   0  0  0  0  0  0
  -15.5335  -30.3056   23.7550 H   0  0  0  0  0  0
  -15.8653  -28.0850   22.7074 H   0  0  0  0  0  0
  -24.6029  -30.6750   25.7676 H   0  0  0  0  0  0
  -24.8676  -32.2679   26.4711 H   0  0  0  0  0  0
  -25.8087  -30.8863   27.0201 H   0  0  0  0  0  0
  -26.2739  -29.6879   24.0950 H   0  0  0  0  0  0
  -27.4048  -29.7177   25.4271 H   0  0  0  0  0  0
  -27.8527  -30.4411   23.8975 H   0  0  0  0  0  0
  -27.2670  -33.3561   26.2057 H   0  0  0  0  0  0
  -28.3925  -32.6702   25.0379 H   0  0  0  0  0  0
  -28.0565  -31.8277   26.5463 H   0  0  0  0  0  0
  -28.2548  -38.0191   24.7536 H   0  0  0  0  0  0
  -28.1157  -36.2699   24.6224 H   0  0  0  0  0  0
  -27.2284  -37.1444   25.8846 H   0  0  0  0  0  0
  -20.9250  -29.8850   21.7104 H   0  0  0  0  0  0
  -26.0167  -38.2880   24.1423 H   0  0  0  0  0  0
  -29.4677  -16.3382   22.6863 H   0  0  0  0  0  0
  -28.9790  -18.6845   23.3417 H   0  0  0  0  0  0
  -29.3926  -19.9565   19.2215 H   0  0  0  0  0  0
  -30.8279  -17.7193   17.8478 H   0  0  0  0  0  0
  -29.0778  -17.6421   17.5928 H   0  0  0  0  0  0
  -30.7811  -15.3801   17.9516 H   0  0  0  0  0  0
  -29.0150  -15.3930   18.0377 H   0  0  0  0  0  0
  -29.6595  -22.9887   19.3122 H   0  0  0  0  0  0
  -28.1036  -22.4138   19.7836 H   0  0  0  0  0  0
  -29.5330  -24.5894   21.3976 H   0  0  0  0  0  0
  -27.8163  -24.2695   21.3701 H   0  0  0  0  0  0
  -30.1850  -22.4881   21.9769 H   0  0  0  0  0  0
  -30.5959  -21.4897   20.6418 H   0  0  0  0  0  0
  -27.8187  -25.0797   18.9055 H   0  0  0  0  0  0
  -29.5017  -25.3819   19.0704 H   0  0  0  0  0  0
  -28.1941  -21.0680   22.4281 H   0  0  0  0  0  0
  1 25  1  0  0  0
  1 30  2  0  0  0
  1 83  1  0  0  0
  2  3  1  0  0  0
  2 25  1  0  0  0
  2 85  1  0  0  0
  2 86  1  0  0  0
  3  4  1  0  0  0
  3 87  1  0  0  0
  3 88  1  0  0  0
  4  5  1  0  0  0
  4 89  1  0  0  0
  4 90  1  0  0  0
  5  6  1  0  0  0
  5 26  1  0  0  0
  5 91  1  0  0  0
  6 25  1  0  0  0
  6 92  1  0  0  0
  6 93  1  0  0  0
  7  8  2  0  0  0
  7 26  1  0  0  0
  7 29  1  0  0  0
  8  9  1  0  0  0
  8 22  1  0  0  0
  9 10  1  0  0  0
  9 27  2  0  0  0
 10 11  2  0  0  0
 10 15  1  0  0  0
 11 12  1  0  0  0
 11 94  1  0  0  0
 12 13  2  0  0  0
 12 95  1  0  0  0
 13 14  1  0  0  0
 13 31  1  0  0  0
 14 15  2  0  0  0
 14 96  1  0  0  0
 15 97  1  0  0  0
 16 17  2  0  0  0
 16 21  1  0  0  0
 16 31  1  0  0  0
 17 18  1  0  0  0
 17 98  1  0  0  0
 18 19  2  0  0  0
 18 99  1  0  0  0
 19 20  1  0  0  0
 19 24  1  0  0  0
 20 21  2  0  0  0
 20100  1  0  0  0
 21 23  1  0  0  0
 22 28  1  0  0  0
 22 32  2  0  0  0
 26 27  1  0  0  0
 28101  1  0  0  0
 28102  1  0  0  0
 29103  1  0  0  0
 29104  1  0  0  0
 33 34  1  0  0  0
 33 66  1  0  0  0
 33 70  2  0  0  0
 34 36  1  0  0  0
 34 59  1  0  0  0
 34105  1  0  0  0
 35 44  2  0  0  0
 35 45  1  0  0  0
 35 68  1  0  0  0
 36 56  1  0  0  0
 36106  1  0  0  0
 37 39  1  0  0  0
 37 47  1  0  0  0
 37 66  1  0  0  0
 37107  1  0  0  0
 38 43  2  0  0  0
 38 46  1  0  0  0
 38 47  1  0  0  0
 39 64  1  0  0  0
 39 67  2  0  0  0
 40 52  1  0  0  0
 40 53  2  0  0  0
 40 58  1  0  0  0
 41108  1  0  0  0
 41109  1  0  0  0
 41110  1  0  0  0
 41 48  1  0  0  0
 42 43  1  0  0  0
 42 66  1  0  0  0
 42111  1  0  0  0
 42112  1  0  0  0
 43 44  1  0  0  0
 44113  1  0  0  0
 45 46  2  0  0  0
 45114  1  0  0  0
 46115  1  0  0  0
 47116  1  0  0  0
 47117  1  0  0  0
 48 56  1  0  0  0
 48 65  1  0  0  0
 48118  1  0  0  0
 49 50  1  0  0  0
 49 53  1  0  0  0
 49 64  1  0  0  0
 49119  1  0  0  0
 50 51  1  0  0  0
 50120  1  0  0  0
 50121  1  0  0  0
 51 52  1  0  0  0
 51122  1  0  0  0
 51123  1  0  0  0
 52124  1  0  0  0
 52125  1  0  0  0
 53 54  1  0  0  0
 54 55  2  0  0  0
 54126  1  0  0  0
 55 57  1  0  0  0
 55127  1  0  0  0
 56 69  2  0  0  0
 57 58  2  0  0  0
 57128  1  0  0  0
 58129  1  0  0  0
 59 60  1  0  0  0
 59 61  1  0  0  0
 59 62  1  0  0  0
 60130  1  0  0  0
 60131  1  0  0  0
 60132  1  0  0  0
 61133  1  0  0  0
 61134  1  0  0  0
 61135  1  0  0  0
 62136  1  0  0  0
 62137  1  0  0  0
 62138  1  0  0  0
 63 65  1  0  0  0
 63139  1  0  0  0
 63140  1  0  0  0
 63141  1  0  0  0
 64142  1  0  0  0
 65143  1  0  0  0
 68 82  1  0  0  0
 71 72  2  0  0  0
 71 75  1  0  0  0
 71144  1  0  0  0
 72 76  1  0  0  0
 72145  1  0  0  0
 73 74  1  0  0  0
 73 76  2  0  0  0
 73146  1  0  0  0
 74 75  2  0  0  0
 74 77  1  0  0  0
 75 83  1  0  0  0
 76 84  1  0  0  0
 77 78  1  0  0  0
 77147  1  0  0  0
 77148  1  0  0  0
 78 83  1  0  0  0
 78149  1  0  0  0
 78150  1  0  0  0
 79 80  1  0  0  0
 79 81  1  0  0  0
 79151  1  0  0  0
 79152  1  0  0  0
 80 82  1  0  0  0
 80153  1  0  0  0
 80154  1  0  0  0
 81 84  1  0  0  0
 81155  1  0  0  0
 81156  1  0  0  0
 82157  1  0  0  0
 82158  1  0  0  0
 84159  1  0  0  0
M  ISO  4   1 100  68 101  82 101  83 100
M  END
> <chiral flag>
0

> <version>
0

> <s_m_source_file>
/data/baiqing/PycharmProjects/Reinvent-master-3.2/result/LINK_invent/BTK/process_docking_weight1_custom_product_contain_oxygen_bond_distance_aromatic_linkinvent_7_9_3/rearranged_h_0015.sdf

> <i_m_source_file_index>
39

> <r_mmod_Potential_Energy-OPLS-2005>
204.674545288086

> <r_mmod_Stretch_Energy-OPLS-2005>
44.4044494628906

> <r_mmod_Bend_Energy-OPLS-2005>
172.659591674805

> <r_mmod_Torsional_Energy-OPLS-2005>
320.052215576172

> <r_mmod_Improper_Torsional_Energy-OPLS-2005>
26.6622276306152

> <r_mmod_Van_der_Waal_Energy-OPLS-2005>
143.223922729492

> <r_mmod_Electrostatic_Energy-OPLS-2005>
-331.768310546875

> <r_mmod_Solvation_Energy-OPLS-2005>
-205.805618286133

> <b_mmod_Minimization_Converged-OPLS-2005>
0

> <r_mmod_RMS_Derivative-OPLS-2005>
15.4622888565063

$$$$
39
                    3D
 Structure written by MMmdl.
160168  0  0  1  0            999 V2000
  -30.7653  -14.4508   20.6330 C   0  0  0  0  0  0
  -30.4153  -12.3249   19.4121 C   0  0  0  0  0  0
  -29.4826  -12.5178   18.2013 C   0  0  0  0  0  0
  -28.0117  -12.3554   18.6213 C   0  0  0  0  0  0
  -27.6587  -13.1996   19.8718 C   0  0  2  0  0  0
  -28.7053  -13.0041   20.9945 C   0  0  0  0  0  0
  -25.2583  -13.8145   20.5680 C   0  0  0  0  0  0
  -24.1838  -13.0428   20.9184 C   0  0  0  0  0  0
  -24.6392  -11.6896   20.8743 C   0  0  0  0  0  0
  -23.9053  -10.4288   21.0395 C   0  0  0  0  0  0
  -24.3600   -9.4207   21.9177 C   0  0  0  0  0  0
  -23.6283   -8.2248   22.0759 C   0  0  0  0  0  0
  -22.4273   -8.0278   21.3539 C   0  0  0  0  0  0
  -21.9905   -9.0248   20.4636 C   0  0  0  0  0  0
  -22.7227  -10.2134   20.3044 C   0  0  0  0  0  0
  -21.6842   -6.0747   22.5281 C   0  0  0  0  0  0
  -21.4004   -6.5647   23.8216 C   0  0  0  0  0  0
  -21.3654   -5.6795   24.9185 C   0  0  0  0  0  0
  -21.6047   -4.3061   24.7234 C   0  0  0  0  0  0
  -21.8817   -3.8157   23.4348 C   0  0  0  0  0  0
  -21.9187   -4.6974   22.3405 C   0  0  0  0  0  0
  -22.7867  -13.5227   21.1847 C   0  0  0  0  0  0
  -22.1657   -4.2164   21.0978 F   0  0  0  0  0  0
  -21.5633   -3.4536   25.7746 F   0  0  0  0  0  0
  -30.0385  -13.3080   20.4461 N   0  0  0  0  0  0
  -26.3014  -12.9299   20.3359 N   0  0  0  0  0  0
  -25.9308  -11.6467   20.5765 N   0  0  0  0  0  0
  -22.0503  -12.8222   22.0399 N   0  0  0  0  0  0
  -25.4294  -15.1867   20.4092 N   0  0  0  0  0  0
  -31.8419  -14.6378   20.0571 O   0  0  0  0  0  0
  -21.6620   -6.8890   21.4249 O   0  0  0  0  0  0
  -22.3563  -14.5552   20.6714 O   0  0  0  0  0  0
  -24.6180  -31.8698   23.2115 C   0  0  0  0  0  0
  -25.9069  -32.4828   23.8401 C   0  0  1  0  0  0
  -27.2260  -27.4154   20.0921 C   0  0  0  0  0  0
  -25.5944  -33.8622   24.2337 N   0  0  0  0  0  0
  -23.4056  -30.4956   21.5540 C   0  0  2  0  0  0
  -24.8490  -28.9664   20.1147 C   0  0  0  0  0  0
  -22.7431  -29.4674   22.4997 C   0  0  0  0  0  0
  -18.0281  -28.1381   22.8506 C   0  0  0  0  0  0
  -24.1471  -36.7280   23.2645 C   0  0  0  0  0  0
  -25.9407  -30.8253   21.3723 C   0  0  0  0  0  0
  -26.0152  -29.4632   20.7115 C   0  0  0  0  0  0
  -27.2069  -28.6988   20.6923 C   0  0  0  0  0  0
  -26.0352  -26.9440   19.4866 C   0  0  0  0  0  0
  -24.8556  -27.7065   19.4997 C   0  0  0  0  0  0
  -23.6146  -29.8371   20.1667 C   0  0  0  0  0  0
  -25.4098  -36.3099   24.0342 C   0  0  1  0  0  0
  -20.5884  -28.3664   23.1318 C   0  0  2  0  0  0
  -20.6774  -26.9405   22.5407 C   0  0  0  0  0  0
  -19.5734  -26.6381   21.5224 C   0  0  0  0  0  0
  -18.1913  -26.7937   22.1626 C   0  0  0  0  0  0
  -19.1537  -28.8842   23.2906 C   0  0  0  0  0  0
  -18.9471  -30.1456   23.8899 C   0  0  0  0  0  0
  -17.6481  -30.6603   24.0558 C   0  0  0  0  0  0
  -25.9051  -34.9474   23.5129 C   0  0  0  0  0  0
  -16.5369  -29.9099   23.6338 C   0  0  0  0  0  0
  -16.7275  -28.6512   23.0361 C   0  0  0  0  0  0
  -26.4500  -31.6629   25.0746 C   0  0  0  0  0  0
  -25.3761  -31.3740   26.1494 C   0  0  0  0  0  0
  -27.0379  -30.3081   24.6151 C   0  0  0  0  0  0
  -27.6052  -32.4402   25.7506 C   0  0  0  0  0  0
  -27.5587  -37.1768   24.8470 C   0  0  0  0  0  0
  -21.4164  -29.3037   22.3729 N   0  0  0  0  0  0
  -26.4270  -37.3803   23.9462 N   0  0  0  0  0  0
  -24.6732  -31.0775   22.1038 N   0  0  0  0  0  0
  -23.4194  -28.8208   23.3044 O   0  0  0  0  0  0
  -28.3809  -26.6472   20.1223 O   0  0  0  0  0  0
  -26.5595  -34.8926   22.4677 O   0  0  0  0  0  0
  -23.5374  -32.1490   23.7485 O   0  0  0  0  0  0
  -30.2613  -18.2025   20.1325 C   0  0  0  0  0  0
  -28.9735  -18.6528   22.1414 C   0  0  0  0  0  0
  -30.4694  -19.5902   19.9577 C   0  0  0  0  0  0
  -29.1815  -20.0388   21.9673 C   0  0  0  0  0  0
  -29.5018  -17.7201   21.2214 C   0  0  0  0  0  0
  -29.9170  -20.5307   20.8613 C   0  0  0  0  0  0
  -29.1202  -22.8504   20.6300 C   0  0  0  0  0  0
  -31.5221  -22.3530   20.3939 C   0  0  0  0  0  0
  -31.3464  -15.8419   22.5332 C   0  0  0  0  0  0
  -29.2012  -16.2214   21.3760 C   0  0  0  0  0  0
  -29.4234  -24.3670   20.4484 C   0  0  0  0  0  0
  -28.1854  -25.2167   20.0573 C   0  0  0  0  0  0
  -30.1409  -21.9421   20.6708 N   0  0  0  0  0  0
  -30.3527  -15.3193   21.5900 N   0  0  0  0  0  0
  -27.9383  -22.5011   20.7384 O   0  0  0  0  0  0
  -31.4554  -12.4190   19.0973 H   0  0  0  0  0  0
  -30.3217  -11.3126   19.8074 H   0  0  0  0  0  0
  -29.7281  -11.8019   17.4153 H   0  0  0  0  0  0
  -29.6351  -13.5082   17.7710 H   0  0  0  0  0  0
  -27.8370  -11.2985   18.8233 H   0  0  0  0  0  0
  -27.3532  -12.6185   17.7931 H   0  0  0  0  0  0
  -27.6881  -14.2363   19.5465 H   0  0  0  0  0  0
  -28.6877  -11.9725   21.3501 H   0  0  0  0  0  0
  -28.4575  -13.6118   21.8642 H   0  0  0  0  0  0
  -25.2754   -9.5694   22.4744 H   0  0  0  0  0  0
  -24.0000   -7.4643   22.7485 H   0  0  0  0  0  0
  -21.0844   -8.8757   19.8932 H   0  0  0  0  0  0
  -22.3684  -10.9668   19.6145 H   0  0  0  0  0  0
  -21.1986   -7.6154   23.9728 H   0  0  0  0  0  0
  -21.1475   -6.0524   25.9087 H   0  0  0  0  0  0
  -22.0598   -2.7623   23.2840 H   0  0  0  0  0  0
  -22.4122  -11.9871   22.4764 H   0  0  0  0  0  0
  -21.1128  -13.1258   22.2627 H   0  0  0  0  0  0
  -24.6588  -15.8367   20.5190 H   0  0  0  0  0  0
  -26.2765  -15.6298   20.0767 H   0  0  0  0  0  0
  -26.7131  -32.5540   23.1153 H   0  0  0  0  0  0
  -25.0129  -33.9780   25.0499 H   0  0  0  0  0  0
  -22.6958  -31.3143   21.4169 H   0  0  0  0  0  0
  -23.3778  -35.9559   23.3252 H   0  0  0  0  0  0
  -24.3588  -36.8982   22.2079 H   0  0  0  0  0  0
  -23.7146  -37.6421   23.6715 H   0  0  0  0  0  0
  -26.0652  -31.5918   20.6071 H   0  0  0  0  0  0
  -26.8240  -30.8700   21.9983 H   0  0  0  0  0  0
  -28.1076  -29.0784   21.1551 H   0  0  0  0  0  0
  -25.9841  -25.9820   18.9991 H   0  0  0  0  0  0
  -23.9585  -27.3214   19.0362 H   0  0  0  0  0  0
  -23.7349  -30.6185   19.4165 H   0  0  0  0  0  0
  -22.7342  -29.2685   19.8607 H   0  0  0  0  0  0
  -25.1241  -36.1951   25.0825 H   0  0  0  0  0  0
  -20.9956  -28.3234   24.1446 H   0  0  0  0  0  0
  -20.5738  -26.2260   23.3584 H   0  0  0  0  0  0
  -21.6636  -26.7465   22.1176 H   0  0  0  0  0  0
  -19.6888  -25.6285   21.1270 H   0  0  0  0  0  0
  -19.6675  -27.3180   20.6747 H   0  0  0  0  0  0
  -17.4183  -26.6726   21.4023 H   0  0  0  0  0  0
  -18.0284  -26.0061   22.9000 H   0  0  0  0  0  0
  -19.7948  -30.7273   24.2268 H   0  0  0  0  0  0
  -17.5037  -31.6289   24.5143 H   0  0  0  0  0  0
  -15.5370  -30.3003   23.7659 H   0  0  0  0  0  0
  -15.8681  -28.0843   22.7061 H   0  0  0  0  0  0
  -24.5878  -30.7160   25.7826 H   0  0  0  0  0  0
  -24.8993  -32.2899   26.4987 H   0  0  0  0  0  0
  -25.8098  -30.8857   27.0224 H   0  0  0  0  0  0
  -26.2932  -29.6792   24.1252 H   0  0  0  0  0  0
  -27.4233  -29.7374   25.4609 H   0  0  0  0  0  0
  -27.8720  -30.4439   23.9266 H   0  0  0  0  0  0
  -27.2653  -33.3733   26.2004 H   0  0  0  0  0  0
  -28.3867  -32.6945   25.0341 H   0  0  0  0  0  0
  -28.0695  -31.8591   26.5484 H   0  0  0  0  0  0
  -28.2531  -38.0138   24.7648 H   0  0  0  0  0  0
  -28.1160  -36.2675   24.6135 H   0  0  0  0  0  0
  -27.2330  -37.1234   25.8874 H   0  0  0  0  0  0
  -20.9343  -29.8764   21.6942 H   0  0  0  0  0  0
  -26.0155  -38.2857   24.1552 H   0  0  0  0  0  0
  -30.6726  -17.5080   19.4128 H   0  0  0  0  0  0
  -28.3932  -18.3123   22.9882 H   0  0  0  0  0  0
  -31.0416  -19.9289   19.1053 H   0  0  0  0  0  0
  -28.7625  -20.7255   22.6909 H   0  0  0  0  0  0
  -32.2332  -21.6039   20.7453 H   0  0  0  0  0  0
  -31.7898  -23.2805   20.8996 H   0  0  0  0  0  0
  -31.6760  -22.4843   19.3223 H   0  0  0  0  0  0
  -30.8658  -16.2546   23.4213 H   0  0  0  0  0  0
  -31.9448  -16.6294   22.0712 H   0  0  0  0  0  0
  -32.0288  -15.0565   22.8642 H   0  0  0  0  0  0
  -28.6584  -15.9349   20.4776 H   0  0  0  0  0  0
  -28.5017  -16.0726   22.1999 H   0  0  0  0  0  0
  -30.1868  -24.5108   19.6844 H   0  0  0  0  0  0
  -29.8327  -24.7345   21.3889 H   0  0  0  0  0  0
  -27.3557  -24.9544   20.7171 H   0  0  0  0  0  0
  -27.8999  -24.9376   19.0425 H   0  0  0  0  0  0
  1 25  1  0  0  0
  1 30  2  0  0  0
  1 84  1  0  0  0
  2  3  1  0  0  0
  2 25  1  0  0  0
  2 86  1  0  0  0
  2 87  1  0  0  0
  3  4  1  0  0  0
  3 88  1  0  0  0
  3 89  1  0  0  0
  4  5  1  0  0  0
  4 90  1  0  0  0
  4 91  1  0  0  0
  5  6  1  0  0  0
  5 26  1  0  0  0
  5 92  1  0  0  0
  6 25  1  0  0  0
  6 93  1  0  0  0
  6 94  1  0  0  0
  7  8  2  0  0  0
  7 26  1  0  0  0
  7 29  1  0  0  0
  8  9  1  0  0  0
  8 22  1  0  0  0
  9 10  1  0  0  0
  9 27  2  0  0  0
 10 11  2  0  0  0
 10 15  1  0  0  0
 11 12  1  0  0  0
 11 95  1  0  0  0
 12 13  2  0  0  0
 12 96  1  0  0  0
 13 14  1  0  0  0
 13 31  1  0  0  0
 14 15  2  0  0  0
 14 97  1  0  0  0
 15 98  1  0  0  0
 16 17  2  0  0  0
 16 21  1  0  0  0
 16 31  1  0  0  0
 17 18  1  0  0  0
 17 99  1  0  0  0
 18 19  2  0  0  0
 18100  1  0  0  0
 19 20  1  0  0  0
 19 24  1  0  0  0
 20 21  2  0  0  0
 20101  1  0  0  0
 21 23  1  0  0  0
 22 28  1  0  0  0
 22 32  2  0  0  0
 26 27  1  0  0  0
 28102  1  0  0  0
 28103  1  0  0  0
 29104  1  0  0  0
 29105  1  0  0  0
 33 34  1  0  0  0
 33 66  1  0  0  0
 33 70  2  0  0  0
 34 36  1  0  0  0
 34 59  1  0  0  0
 34106  1  0  0  0
 35 44  2  0  0  0
 35 45  1  0  0  0
 35 68  1  0  0  0
 36 56  1  0  0  0
 36107  1  0  0  0
 37 39  1  0  0  0
 37 47  1  0  0  0
 37 66  1  0  0  0
 37108  1  0  0  0
 38 43  2  0  0  0
 38 46  1  0  0  0
 38 47  1  0  0  0
 39 64  1  0  0  0
 39 67  2  0  0  0
 40 52  1  0  0  0
 40 53  2  0  0  0
 40 58  1  0  0  0
 41109  1  0  0  0
 41110  1  0  0  0
 41111  1  0  0  0
 41 48  1  0  0  0
 42 43  1  0  0  0
 42 66  1  0  0  0
 42112  1  0  0  0
 42113  1  0  0  0
 43 44  1  0  0  0
 44114  1  0  0  0
 45 46  2  0  0  0
 45115  1  0  0  0
 46116  1  0  0  0
 47117  1  0  0  0
 47118  1  0  0  0
 48 56  1  0  0  0
 48 65  1  0  0  0
 48119  1  0  0  0
 49 50  1  0  0  0
 49 53  1  0  0  0
 49 64  1  0  0  0
 49120  1  0  0  0
 50 51  1  0  0  0
 50121  1  0  0  0
 50122  1  0  0  0
 51 52  1  0  0  0
 51123  1  0  0  0
 51124  1  0  0  0
 52125  1  0  0  0
 52126  1  0  0  0
 53 54  1  0  0  0
 54 55  2  0  0  0
 54127  1  0  0  0
 55 57  1  0  0  0
 55128  1  0  0  0
 56 69  2  0  0  0
 57 58  2  0  0  0
 57129  1  0  0  0
 58130  1  0  0  0
 59 60  1  0  0  0
 59 61  1  0  0  0
 59 62  1  0  0  0
 60131  1  0  0  0
 60132  1  0  0  0
 60133  1  0  0  0
 61134  1  0  0  0
 61135  1  0  0  0
 61136  1  0  0  0
 62137  1  0  0  0
 62138  1  0  0  0
 62139  1  0  0  0
 63 65  1  0  0  0
 63140  1  0  0  0
 63141  1  0  0  0
 63142  1  0  0  0
 64143  1  0  0  0
 65144  1  0  0  0
 68 82  1  0  0  0
 71 73  2  0  0  0
 71 75  1  0  0  0
 71145  1  0  0  0
 72 74  1  0  0  0
 72 75  2  0  0  0
 72146  1  0  0  0
 73 76  1  0  0  0
 73147  1  0  0  0
 74 76  2  0  0  0
 74148  1  0  0  0
 75 80  1  0  0  0
 76 83  1  0  0  0
 77 81  1  0  0  0
 77 83  1  0  0  0
 77 85  2  0  0  0
 78 83  1  0  0  0
 78149  1  0  0  0
 78150  1  0  0  0
 78151  1  0  0  0
 79 84  1  0  0  0
 79152  1  0  0  0
 79153  1  0  0  0
 79154  1  0  0  0
 80 84  1  0  0  0
 80155  1  0  0  0
 80156  1  0  0  0
 81 82  1  0  0  0
 81157  1  0  0  0
 81158  1  0  0  0
 82159  1  0  0  0
 82160  1  0  0  0
M  ISO  4   1 100  68 101  82 101  84 100
M  END
> <chiral flag>
0

> <version>
0

> <s_m_source_file>
/data/baiqing/PycharmProjects/Reinvent-master-3.2/result/LINK_invent/BTK/process_docking_weight1_custom_product_contain_oxygen_bond_distance_aromatic_linkinvent_7_9_3/rearranged_h_0015.sdf

> <i_m_source_file_index>
40

> <r_mmod_Potential_Energy-OPLS-2005>
124.217018127441

> <r_mmod_Stretch_Energy-OPLS-2005>
46.0597648620605

> <r_mmod_Bend_Energy-OPLS-2005>
100.044647216797

> <r_mmod_Torsional_Energy-OPLS-2005>
309.361267089844

> <r_mmod_Improper_Torsional_Energy-OPLS-2005>
5.27400302886963

> <r_mmod_Van_der_Waal_Energy-OPLS-2005>
170.053009033203

> <r_mmod_Electrostatic_Energy-OPLS-2005>
-311.100860595703

> <r_mmod_Solvation_Energy-OPLS-2005>
-209.629547119141

> <b_mmod_Minimization_Converged-OPLS-2005>
0

> <r_mmod_RMS_Derivative-OPLS-2005>
2.28987812995911

$$$$
40
                    3D
 Structure written by MMmdl.
165173  0  0  1  0            999 V2000
  -30.7311  -14.4888   20.5225 C   0  0  0  0  0  0
  -30.4144  -12.3078   19.4034 C   0  0  0  0  0  0
  -29.4663  -12.4465   18.1948 C   0  0  0  0  0  0
  -28.0043  -12.2478   18.6362 C   0  0  0  0  0  0
  -27.6337  -13.1372   19.8418 C   0  0  2  0  0  0
  -28.7008  -13.0083   20.9644 C   0  0  0  0  0  0
  -25.2547  -13.7947   20.5650 C   0  0  0  0  0  0
  -24.1784  -13.0340   20.9229 C   0  0  0  0  0  0
  -24.6281  -11.6792   20.8832 C   0  0  0  0  0  0
  -23.8950  -10.4235   21.0471 C   0  0  0  0  0  0
  -24.3532   -9.4146   21.9238 C   0  0  0  0  0  0
  -23.6237   -8.2168   22.0743 C   0  0  0  0  0  0
  -22.4237   -8.0228   21.3529 C   0  0  0  0  0  0
  -21.9870   -9.0195   20.4645 C   0  0  0  0  0  0
  -22.7140  -10.2091   20.3089 C   0  0  0  0  0  0
  -21.6822   -6.0709   22.5296 C   0  0  0  0  0  0
  -21.3982   -6.5617   23.8221 C   0  0  0  0  0  0
  -21.3659   -5.6775   24.9192 C   0  0  0  0  0  0
  -21.6038   -4.3034   24.7238 C   0  0  0  0  0  0
  -21.8816   -3.8132   23.4354 C   0  0  0  0  0  0
  -21.9180   -4.6951   22.3416 C   0  0  0  0  0  0
  -22.7815  -13.5201   21.1870 C   0  0  0  0  0  0
  -22.1657   -4.2131   21.0991 F   0  0  0  0  0  0
  -21.5649   -3.4528   25.7753 F   0  0  0  0  0  0
  -30.0214  -13.3252   20.3954 N   0  0  0  0  0  0
  -26.2885  -12.8966   20.3314 N   0  0  0  0  0  0
  -25.9166  -11.6221   20.5858 N   0  0  0  0  0  0
  -22.0419  -12.8276   22.0432 N   0  0  0  0  0  0
  -25.4271  -15.1658   20.3896 N   0  0  0  0  0  0
  -31.8914  -14.5902   20.1138 O   0  0  0  0  0  0
  -21.6594   -6.8835   21.4244 O   0  0  0  0  0  0
  -22.3545  -14.5510   20.6665 O   0  0  0  0  0  0
  -24.6038  -31.8714   23.2140 C   0  0  0  0  0  0
  -25.8942  -32.4857   23.8427 C   0  0  1  0  0  0
  -27.2257  -27.4744   20.0815 C   0  0  0  0  0  0
  -25.5826  -33.8660   24.2344 N   0  0  0  0  0  0
  -23.3894  -30.4986   21.5490 C   0  0  2  0  0  0
  -24.8321  -28.9729   20.1059 C   0  0  0  0  0  0
  -22.7324  -29.4690   22.4971 C   0  0  0  0  0  0
  -18.0304  -28.1464   22.8403 C   0  0  0  0  0  0
  -24.1472  -36.7332   23.2639 C   0  0  0  0  0  0
  -25.9117  -30.8466   21.3634 C   0  0  0  0  0  0
  -25.9851  -29.4817   20.7149 C   0  0  0  0  0  0
  -27.1777  -28.7329   20.7090 C   0  0  0  0  0  0
  -26.0509  -26.9822   19.4548 C   0  0  0  0  0  0
  -24.8569  -27.7209   19.4736 C   0  0  0  0  0  0
  -23.5930  -29.8315   20.1608 C   0  0  0  0  0  0
  -25.4082  -36.3144   24.0349 C   0  0  1  0  0  0
  -20.5822  -28.3668   23.1267 C   0  0  2  0  0  0
  -20.6737  -26.9343   22.5508 C   0  0  0  0  0  0
  -19.5811  -26.6315   21.5199 C   0  0  0  0  0  0
  -18.1945  -26.8097   22.1363 C   0  0  0  0  0  0
  -19.1521  -28.8880   23.2920 C   0  0  0  0  0  0
  -18.9429  -30.1441   23.9031 C   0  0  0  0  0  0
  -17.6399  -30.6564   24.0671 C   0  0  0  0  0  0
  -25.9014  -34.9502   23.5158 C   0  0  0  0  0  0
  -16.5301  -29.9053   23.6380 C   0  0  0  0  0  0
  -16.7296  -28.6548   23.0293 C   0  0  0  0  0  0
  -26.4408  -31.6657   25.0752 C   0  0  0  0  0  0
  -25.3718  -31.3726   26.1544 C   0  0  0  0  0  0
  -27.0219  -30.3101   24.6102 C   0  0  0  0  0  0
  -27.5984  -32.4346   25.7517 C   0  0  0  0  0  0
  -27.5580  -37.1811   24.8459 C   0  0  0  0  0  0
  -21.4081  -29.2958   22.3604 N   0  0  0  0  0  0
  -26.4286  -37.3798   23.9432 N   0  0  0  0  0  0
  -24.6532  -31.0877   22.1010 N   0  0  0  0  0  0
  -23.4105  -28.8350   23.3095 O   0  0  0  0  0  0
  -28.4229  -26.7948   20.1111 O   0  0  0  0  0  0
  -26.5569  -34.8932   22.4715 O   0  0  0  0  0  0
  -23.5238  -32.1478   23.7551 O   0  0  0  0  0  0
  -27.9705  -19.8095   20.8914 C   0  0  0  0  0  0
  -28.6326  -18.5775   21.0803 C   0  0  0  0  0  0
  -26.8897  -18.9213   18.9029 C   0  0  0  0  0  0
  -27.0447  -19.9600   19.8343 C   0  0  0  0  0  0
  -28.4195  -17.5007   20.1879 C   0  0  0  0  0  0
  -27.5669  -17.7047   19.0748 C   0  0  0  0  0  0
  -30.9059  -16.5231   21.8484 C   0  0  0  0  0  0
  -25.1496  -22.9414   21.0561 C   0  0  0  0  0  0
  -28.8576  -16.0515   20.4356 C   0  0  0  0  0  0
  -26.1085  -21.1511   19.6981 C   0  0  0  0  0  0
  -27.7140  -24.5128   20.6834 C   0  0  0  0  0  0
  -27.3914  -23.1868   19.9659 C   0  0  0  0  0  0
  -28.4583  -25.4404   19.6958 C   0  0  0  0  0  0
  -30.1117  -15.5771   21.0643 N   0  0  0  0  0  0
  -26.4029  -22.2844   20.6094 N   0  3  1  0  0  0
  -27.3024  -16.6978   18.2035 F   0  0  0  0  0  0
  -31.4482  -12.4075   19.0712 H   0  0  0  0  0  0
  -30.3392  -11.3059   19.8323 H   0  0  0  0  0  0
  -29.7200  -11.7113   17.4292 H   0  0  0  0  0  0
  -29.5916  -13.4265   17.7337 H   0  0  0  0  0  0
  -27.8748  -11.1986   18.9040 H   0  0  0  0  0  0
  -27.3246  -12.4237   17.8017 H   0  0  0  0  0  0
  -27.5939  -14.1202   19.4030 H   0  0  0  0  0  0
  -28.7044  -11.9843   21.3411 H   0  0  0  0  0  0
  -28.4615  -13.6264   21.8291 H   0  0  0  0  0  0
  -25.2643   -9.5639   22.4861 H   0  0  0  0  0  0
  -23.9934   -7.4523   22.7451 H   0  0  0  0  0  0
  -21.0790   -8.8696   19.8941 H   0  0  0  0  0  0
  -22.3569  -10.9655   19.6236 H   0  0  0  0  0  0
  -21.1955   -7.6121   23.9717 H   0  0  0  0  0  0
  -21.1494   -6.0513   25.9094 H   0  0  0  0  0  0
  -22.0600   -2.7595   23.2861 H   0  0  0  0  0  0
  -22.3959  -11.9927   22.4872 H   0  0  0  0  0  0
  -21.1067  -13.1382   22.2659 H   0  0  0  0  0  0
  -24.6406  -15.8038   20.4520 H   0  0  0  0  0  0
  -26.2377  -15.5817   19.9539 H   0  0  0  0  0  0
  -26.6987  -32.5578   23.1187 H   0  0  0  0  0  0
  -24.9974  -33.9827   25.0491 H   0  0  0  0  0  0
  -22.6771  -31.3131   21.4055 H   0  0  0  0  0  0
  -23.3747  -35.9661   23.3288 H   0  0  0  0  0  0
  -24.3587  -36.8942   22.2068 H   0  0  0  0  0  0
  -23.7205  -37.6527   23.6634 H   0  0  0  0  0  0
  -26.0173  -31.6074   20.5886 H   0  0  0  0  0  0
  -26.8060  -30.9046   21.9741 H   0  0  0  0  0  0
  -28.0629  -29.1122   21.1967 H   0  0  0  0  0  0
  -26.0286  -26.0371   18.9331 H   0  0  0  0  0  0
  -23.9697  -27.3324   18.9875 H   0  0  0  0  0  0
  -23.6899  -30.6003   19.3895 H   0  0  0  0  0  0
  -22.7234  -29.2331   19.8786 H   0  0  0  0  0  0
  -25.1260  -36.2038   25.0829 H   0  0  0  0  0  0
  -20.9949  -28.3354   24.1368 H   0  0  0  0  0  0
  -20.5442  -26.2308   23.3756 H   0  0  0  0  0  0
  -21.6615  -26.7309   22.1406 H   0  0  0  0  0  0
  -19.6924  -25.6195   21.1200 H   0  0  0  0  0  0
  -19.6986  -27.3158   20.6804 H   0  0  0  0  0  0
  -17.4408  -26.7145   21.3537 H   0  0  0  0  0  0
  -18.0021  -26.0186   22.8586 H   0  0  0  0  0  0
  -19.7918  -30.7222   24.2496 H   0  0  0  0  0  0
  -17.4888  -31.6240   24.5296 H   0  0  0  0  0  0
  -15.5307  -30.2915   23.7697 H   0  0  0  0  0  0
  -15.8704  -28.0970   22.6810 H   0  0  0  0  0  0
  -24.5902  -30.7040   25.7931 H   0  0  0  0  0  0
  -24.8914  -32.2866   26.5033 H   0  0  0  0  0  0
  -25.8160  -30.8916   27.0274 H   0  0  0  0  0  0
  -26.2756  -29.6895   24.1125 H   0  0  0  0  0  0
  -27.3961  -29.7311   25.4557 H   0  0  0  0  0  0
  -27.8605  -30.4433   23.9266 H   0  0  0  0  0  0
  -27.2617  -33.3609   26.2172 H   0  0  0  0  0  0
  -28.3795  -32.6943   25.0365 H   0  0  0  0  0  0
  -28.0657  -31.8423   26.5395 H   0  0  0  0  0  0
  -28.2589  -38.0106   24.7518 H   0  0  0  0  0  0
  -28.1071  -36.2651   24.6268 H   0  0  0  0  0  0
  -27.2309  -37.1451   25.8852 H   0  0  0  0  0  0
  -20.9284  -29.8383   21.6584 H   0  0  0  0  0  0
  -26.0205  -38.2887   24.1389 H   0  0  0  0  0  0
  -28.1379  -20.5976   21.6120 H   0  0  0  0  0  0
  -29.2468  -18.4761   21.9572 H   0  0  0  0  0  0
  -26.2017  -19.0170   18.0739 H   0  0  0  0  0  0
  -30.3690  -16.8255   22.7471 H   0  0  0  0  0  0
  -31.1630  -17.4020   21.2602 H   0  0  0  0  0  0
  -31.8431  -16.0851   22.1876 H   0  0  0  0  0  0
  -24.4610  -22.2064   21.4707 H   0  0  0  0  0  0
  -24.6409  -23.4277   20.2194 H   0  0  0  0  0  0
  -25.3102  -23.6714   21.8468 H   0  0  0  0  0  0
  -28.8836  -15.6464   19.4224 H   0  0  0  0  0  0
  -28.0252  -15.6193   20.9857 H   0  0  0  0  0  0
  -25.1076  -20.7635   19.8842 H   0  0  0  0  0  0
  -26.0964  -21.4752   18.6586 H   0  0  0  0  0  0
  -28.3184  -24.3593   21.5773 H   0  0  0  0  0  0
  -26.8067  -25.0061   21.0227 H   0  0  0  0  0  0
  -28.3213  -22.6430   19.7965 H   0  0  0  0  0  0
  -26.9943  -23.4426   18.9841 H   0  0  0  0  0  0
  -29.5003  -25.1327   19.6312 H   0  0  0  0  0  0
  -28.0811  -25.3623   18.6748 H   0  0  0  0  0  0
  -26.8154  -21.8724   21.4307 H   0  0  0  0  0  0
  1 25  1  0  0  0
  1 30  2  0  0  0
  1 84  1  0  0  0
  2  3  1  0  0  0
  2 25  1  0  0  0
  2 87  1  0  0  0
  2 88  1  0  0  0
  3  4  1  0  0  0
  3 89  1  0  0  0
  3 90  1  0  0  0
  4  5  1  0  0  0
  4 91  1  0  0  0
  4 92  1  0  0  0
  5  6  1  0  0  0
  5 26  1  0  0  0
  5 93  1  0  0  0
  6 25  1  0  0  0
  6 94  1  0  0  0
  6 95  1  0  0  0
  7  8  2  0  0  0
  7 26  1  0  0  0
  7 29  1  0  0  0
  8  9  1  0  0  0
  8 22  1  0  0  0
  9 10  1  0  0  0
  9 27  2  0  0  0
 10 11  2  0  0  0
 10 15  1  0  0  0
 11 12  1  0  0  0
 11 96  1  0  0  0
 12 13  2  0  0  0
 12 97  1  0  0  0
 13 14  1  0  0  0
 13 31  1  0  0  0
 14 15  2  0  0  0
 14 98  1  0  0  0
 15 99  1  0  0  0
 16 17  2  0  0  0
 16 21  1  0  0  0
 16 31  1  0  0  0
 17 18  1  0  0  0
 17100  1  0  0  0
 18 19  2  0  0  0
 18101  1  0  0  0
 19 20  1  0  0  0
 19 24  1  0  0  0
 20 21  2  0  0  0
 20102  1  0  0  0
 21 23  1  0  0  0
 22 28  1  0  0  0
 22 32  2  0  0  0
 26 27  1  0  0  0
 28103  1  0  0  0
 28104  1  0  0  0
 29105  1  0  0  0
 29106  1  0  0  0
 33 34  1  0  0  0
 33 66  1  0  0  0
 33 70  2  0  0  0
 34 36  1  0  0  0
 34 59  1  0  0  0
 34107  1  0  0  0
 35 44  2  0  0  0
 35 45  1  0  0  0
 35 68  1  0  0  0
 36 56  1  0  0  0
 36108  1  0  0  0
 37 39  1  0  0  0
 37 47  1  0  0  0
 37 66  1  0  0  0
 37109  1  0  0  0
 38 43  2  0  0  0
 38 46  1  0  0  0
 38 47  1  0  0  0
 39 64  1  0  0  0
 39 67  2  0  0  0
 40 52  1  0  0  0
 40 53  2  0  0  0
 40 58  1  0  0  0
 41110  1  0  0  0
 41111  1  0  0  0
 41112  1  0  0  0
 41 48  1  0  0  0
 42 43  1  0  0  0
 42 66  1  0  0  0
 42113  1  0  0  0
 42114  1  0  0  0
 43 44  1  0  0  0
 44115  1  0  0  0
 45 46  2  0  0  0
 45116  1  0  0  0
 46117  1  0  0  0
 47118  1  0  0  0
 47119  1  0  0  0
 48 56  1  0  0  0
 48 65  1  0  0  0
 48120  1  0  0  0
 49 50  1  0  0  0
 49 53  1  0  0  0
 49 64  1  0  0  0
 49121  1  0  0  0
 50 51  1  0  0  0
 50122  1  0  0  0
 50123  1  0  0  0
 51 52  1  0  0  0
 51124  1  0  0  0
 51125  1  0  0  0
 52126  1  0  0  0
 52127  1  0  0  0
 53 54  1  0  0  0
 54 55  2  0  0  0
 54128  1  0  0  0
 55 57  1  0  0  0
 55129  1  0  0  0
 56 69  2  0  0  0
 57 58  2  0  0  0
 57130  1  0  0  0
 58131  1  0  0  0
 59 60  1  0  0  0
 59 61  1  0  0  0
 59 62  1  0  0  0
 60132  1  0  0  0
 60133  1  0  0  0
 60134  1  0  0  0
 61135  1  0  0  0
 61136  1  0  0  0
 61137  1  0  0  0
 62138  1  0  0  0
 62139  1  0  0  0
 62140  1  0  0  0
 63 65  1  0  0  0
 63141  1  0  0  0
 63142  1  0  0  0
 63143  1  0  0  0
 64144  1  0  0  0
 65145  1  0  0  0
 68 83  1  0  0  0
 71 72  2  0  0  0
 71 74  1  0  0  0
 71146  1  0  0  0
 72 75  1  0  0  0
 72147  1  0  0  0
 73 74  2  0  0  0
 73 76  1  0  0  0
 73148  1  0  0  0
 74 80  1  0  0  0
 75 76  2  0  0  0
 75 79  1  0  0  0
 76 86  1  0  0  0
 77 84  1  0  0  0
 77149  1  0  0  0
 77150  1  0  0  0
 77151  1  0  0  0
 78152  1  0  0  0
 78153  1  0  0  0
 78154  1  0  0  0
 78 85  1  0  0  0
 79 84  1  0  0  0
 79155  1  0  0  0
 79156  1  0  0  0
 80 85  1  0  0  0
 80157  1  0  0  0
 80158  1  0  0  0
 81 82  1  0  0  0
 81 83  1  0  0  0
 81159  1  0  0  0
 81160  1  0  0  0
 82 85  1  0  0  0
 82161  1  0  0  0
 82162  1  0  0  0
 83163  1  0  0  0
 83164  1  0  0  0
 85165  1  0  0  0
M  CHG  1  85   1
M  ISO  4   1 100  68 101  83 101  84 100
M  END
> <chiral flag>
0

> <version>
0

> <s_m_source_file>
/data/baiqing/PycharmProjects/Reinvent-master-3.2/result/LINK_invent/BTK/process_docking_weight1_custom_product_contain_oxygen_bond_distance_aromatic_linkinvent_7_9_3/rearranged_h_0015.sdf

> <i_m_source_file_index>
41

> <r_mmod_Potential_Energy-OPLS-2005>
18.511173248291

> <r_mmod_Stretch_Energy-OPLS-2005>
36.7785606384277

> <r_mmod_Bend_Energy-OPLS-2005>
149.789962768555

> <r_mmod_Torsional_Energy-OPLS-2005>
268.314849853516

> <r_mmod_Improper_Torsional_Energy-OPLS-2005>
5.54809474945068

> <r_mmod_Van_der_Waal_Energy-OPLS-2005>
190.118606567383

> <r_mmod_Electrostatic_Energy-OPLS-2005>
-208.085067749023

> <r_mmod_Solvation_Energy-OPLS-2005>
-446.126983642578

> <b_mmod_Minimization_Converged-OPLS-2005>
0

> <r_mmod_RMS_Derivative-OPLS-2005>
7.23019599914551

$$$$
41
                    3D
 Structure written by MMmdl.
162170  0  0  1  0            999 V2000
  -30.6601  -14.6028   20.3938 C   0  0  0  0  0  0
  -30.4481  -12.3281   19.4535 C   0  0  0  0  0  0
  -29.5104  -12.3337   18.2254 C   0  0  0  0  0  0
  -28.0159  -12.3078   18.6305 C   0  0  0  0  0  0
  -27.6472  -13.1969   19.8557 C   0  0  2  0  0  0
  -28.7114  -13.0821   20.9664 C   0  0  0  0  0  0
  -25.2570  -13.8129   20.5726 C   0  0  0  0  0  0
  -24.1818  -13.0426   20.9223 C   0  0  0  0  0  0
  -24.6360  -11.6891   20.8778 C   0  0  0  0  0  0
  -23.9024  -10.4287   21.0423 C   0  0  0  0  0  0
  -24.3590   -9.4206   21.9193 C   0  0  0  0  0  0
  -23.6280   -8.2234   22.0743 C   0  0  0  0  0  0
  -22.4263   -8.0273   21.3531 C   0  0  0  0  0  0
  -21.9894   -9.0250   20.4634 C   0  0  0  0  0  0
  -22.7206  -10.2138   20.3055 C   0  0  0  0  0  0
  -21.6860   -6.0724   22.5277 C   0  0  0  0  0  0
  -21.4023   -6.5624   23.8211 C   0  0  0  0  0  0
  -21.3660   -5.6771   24.9169 C   0  0  0  0  0  0
  -21.6055   -4.3035   24.7224 C   0  0  0  0  0  0
  -21.8814   -3.8133   23.4341 C   0  0  0  0  0  0
  -21.9192   -4.6950   22.3400 C   0  0  0  0  0  0
  -22.7841  -13.5246   21.1846 C   0  0  0  0  0  0
  -22.1657   -4.2129   21.0975 F   0  0  0  0  0  0
  -21.5629   -3.4520   25.7738 F   0  0  0  0  0  0
  -30.0123  -13.3986   20.3637 N   0  0  0  0  0  0
  -26.2984  -12.9256   20.3402 N   0  0  0  0  0  0
  -25.9284  -11.6439   20.5838 N   0  0  0  0  0  0
  -22.0443  -12.8276   22.0398 N   0  0  0  0  0  0
  -25.4253  -15.1848   20.4119 N   0  0  0  0  0  0
  -31.8853  -14.6779   20.2825 O   0  0  0  0  0  0
  -21.6638   -6.8866   21.4235 O   0  0  0  0  0  0
  -22.3545  -14.5538   20.6652 O   0  0  0  0  0  0
  -24.6147  -31.8677   23.2101 C   0  0  0  0  0  0
  -25.9043  -32.4817   23.8405 C   0  0  1  0  0  0
  -27.2360  -27.4235   20.1000 C   0  0  0  0  0  0
  -25.5902  -33.8617   24.2338 N   0  0  0  0  0  0
  -23.4044  -30.4900   21.5499 C   0  0  2  0  0  0
  -24.8536  -28.9487   20.1206 C   0  0  0  0  0  0
  -22.7416  -29.4655   22.4990 C   0  0  0  0  0  0
  -18.0265  -28.1367   22.8486 C   0  0  0  0  0  0
  -24.1485  -36.7313   23.2643 C   0  0  0  0  0  0
  -25.9355  -30.8254   21.3697 C   0  0  0  0  0  0
  -26.0129  -29.4555   20.7237 C   0  0  0  0  0  0
  -27.2089  -28.6980   20.7181 C   0  0  0  0  0  0
  -26.0661  -26.9357   19.4877 C   0  0  0  0  0  0
  -24.8735  -27.6854   19.5028 C   0  0  0  0  0  0
  -23.6167  -29.8196   20.1657 C   0  0  0  0  0  0
  -25.4108  -36.3115   24.0346 C   0  0  1  0  0  0
  -20.5856  -28.3659   23.1303 C   0  0  2  0  0  0
  -20.6745  -26.9390   22.5414 C   0  0  0  0  0  0
  -19.5730  -26.6374   21.5203 C   0  0  0  0  0  0
  -18.1910  -26.7911   22.1616 C   0  0  0  0  0  0
  -19.1514  -28.8827   23.2892 C   0  0  0  0  0  0
  -18.9450  -30.1431   23.8908 C   0  0  0  0  0  0
  -17.6453  -30.6579   24.0558 C   0  0  0  0  0  0
  -25.9034  -34.9475   23.5144 C   0  0  0  0  0  0
  -16.5342  -29.9084   23.6321 C   0  0  0  0  0  0
  -16.7253  -28.6492   23.0355 C   0  0  0  0  0  0
  -26.4476  -31.6589   25.0730 C   0  0  0  0  0  0
  -25.3751  -31.3688   26.1488 C   0  0  0  0  0  0
  -27.0318  -30.3035   24.6106 C   0  0  0  0  0  0
  -27.6064  -32.4303   25.7480 C   0  0  0  0  0  0
  -27.5586  -37.1814   24.8470 C   0  0  0  0  0  0
  -21.4140  -29.3031   22.3721 N   0  0  0  0  0  0
  -26.4298  -37.3799   23.9410 N   0  0  0  0  0  0
  -24.6696  -31.0763   22.1014 N   0  0  0  0  0  0
  -23.4179  -28.8202   23.3043 O   0  0  0  0  0  0
  -28.3793  -26.6563   20.0238 O   0  0  0  0  0  0
  -26.5598  -34.8922   22.4706 O   0  0  0  0  0  0
  -23.5329  -32.1446   23.7467 O   0  0  0  0  0  0
  -30.4023  -19.3949   19.9758 C   0  0  0  0  0  0
  -30.6583  -18.0230   19.7586 C   0  0  0  0  0  0
  -28.9095  -18.8026   21.7819 C   0  0  0  0  0  0
  -29.4784  -19.8082   20.9622 C   0  0  0  0  0  0
  -29.9647  -17.0043   20.4677 C   0  0  0  0  0  0
  -29.1332  -17.4209   21.5398 C   0  0  0  0  0  0
  -29.7634  -15.6609   18.4476 C   0  0  0  0  0  0
  -31.1177  -22.4427   21.7081 C   0  0  0  0  0  0
  -29.0030  -21.2795   21.0772 C   0  0  0  0  0  0
  -28.6127  -24.4647   21.2553 C   0  0  0  0  0  0
  -29.4884  -23.6501   20.2527 C   0  0  0  0  0  0
  -28.8041  -26.0139   21.2330 C   0  0  0  0  0  0
  -29.9259  -15.6606   19.9198 N   0  0  0  0  0  0
  -30.0162  -22.3211   20.7245 N   0  3  1  0  0  0
  -28.2864  -16.2778   22.5118 Cl  0  0  0  0  0  0
  -31.4829  -12.4546   19.1301 H   0  0  0  0  0  0
  -30.4110  -11.3660   19.9665 H   0  0  0  0  0  0
  -29.7248  -11.4494   17.6230 H   0  0  0  0  0  0
  -29.7371  -13.1614   17.5603 H   0  0  0  0  0  0
  -27.7797  -11.2683   18.8633 H   0  0  0  0  0  0
  -27.3916  -12.5626   17.7727 H   0  0  0  0  0  0
  -27.6309  -14.2279   19.5224 H   0  0  0  0  0  0
  -28.7224  -12.0755   21.3862 H   0  0  0  0  0  0
  -28.4868  -13.7477   21.7954 H   0  0  0  0  0  0
  -25.2726   -9.5710   22.4780 H   0  0  0  0  0  0
  -23.9987   -7.4630   22.7474 H   0  0  0  0  0  0
  -21.0816   -8.8778   19.8950 H   0  0  0  0  0  0
  -22.3653  -10.9689   19.6173 H   0  0  0  0  0  0
  -21.2018   -7.6133   23.9713 H   0  0  0  0  0  0
  -21.1488   -6.0499   25.9070 H   0  0  0  0  0  0
  -22.0591   -2.7594   23.2847 H   0  0  0  0  0  0
  -22.4013  -11.9972   22.4896 H   0  0  0  0  0  0
  -21.1046  -13.1322   22.2500 H   0  0  0  0  0  0
  -24.6689  -15.8435   20.5581 H   0  0  0  0  0  0
  -26.3013  -15.6324   20.1746 H   0  0  0  0  0  0
  -26.7114  -32.5529   23.1166 H   0  0  0  0  0  0
  -25.0047  -33.9788   25.0477 H   0  0  0  0  0  0
  -22.6934  -31.3068   21.4084 H   0  0  0  0  0  0
  -23.3746  -35.9648   23.3312 H   0  0  0  0  0  0
  -24.3575  -36.8916   22.2056 H   0  0  0  0  0  0
  -23.7229  -37.6519   23.6643 H   0  0  0  0  0  0
  -26.0524  -31.5872   20.5969 H   0  0  0  0  0  0
  -26.8217  -30.8784   21.9902 H   0  0  0  0  0  0
  -28.1057  -29.0896   21.1768 H   0  0  0  0  0  0
  -26.0798  -25.9715   18.9982 H   0  0  0  0  0  0
  -23.9845  -27.2912   19.0304 H   0  0  0  0  0  0
  -23.7294  -30.5950   19.4062 H   0  0  0  0  0  0
  -22.7402  -29.2422   19.8664 H   0  0  0  0  0  0
  -25.1277  -36.1994   25.0840 H   0  0  0  0  0  0
  -20.9939  -28.3227   24.1426 H   0  0  0  0  0  0
  -20.5623  -26.2280   23.3615 H   0  0  0  0  0  0
  -21.6624  -26.7430   22.1229 H   0  0  0  0  0  0
  -19.6900  -25.6290   21.1224 H   0  0  0  0  0  0
  -19.6665  -27.3190   20.6739 H   0  0  0  0  0  0
  -17.4187  -26.6662   21.4010 H   0  0  0  0  0  0
  -18.0312  -26.0044   22.9003 H   0  0  0  0  0  0
  -19.7936  -30.7224   24.2293 H   0  0  0  0  0  0
  -17.5023  -31.6260   24.5163 H   0  0  0  0  0  0
  -15.5343  -30.2999   23.7630 H   0  0  0  0  0  0
  -15.8652  -28.0809   22.7080 H   0  0  0  0  0  0
  -24.5912  -30.7049   25.7823 H   0  0  0  0  0  0
  -24.8956  -32.2838   26.4979 H   0  0  0  0  0  0
  -25.8118  -30.8828   27.0221 H   0  0  0  0  0  0
  -26.2868  -29.6783   24.1171 H   0  0  0  0  0  0
  -27.4104  -29.7282   25.4562 H   0  0  0  0  0  0
  -27.8694  -30.4363   23.9255 H   0  0  0  0  0  0
  -27.2706  -33.3597   26.2087 H   0  0  0  0  0  0
  -28.3853  -32.6866   25.0288 H   0  0  0  0  0  0
  -28.0755  -31.8406   26.5365 H   0  0  0  0  0  0
  -28.2614  -38.0102   24.7512 H   0  0  0  0  0  0
  -28.1067  -36.2632   24.6293 H   0  0  0  0  0  0
  -27.2304  -37.1470   25.8875 H   0  0  0  0  0  0
  -20.9304  -29.8774   21.6959 H   0  0  0  0  0  0
  -26.0188  -38.2882   24.1397 H   0  0  0  0  0  0
  -30.8774  -20.1137   19.3233 H   0  0  0  0  0  0
  -31.3215  -17.7594   18.9456 H   0  0  0  0  0  0
  -28.2154  -19.0831   22.5618 H   0  0  0  0  0  0
  -29.4903  -16.6312   18.0336 H   0  0  0  0  0  0
  -28.9483  -15.0269   18.1238 H   0  0  0  0  0  0
  -30.6736  -15.3425   17.9334 H   0  0  0  0  0  0
  -31.5253  -21.4680   21.9767 H   0  0  0  0  0  0
  -30.7907  -22.9309   22.6251 H   0  0  0  0  0  0
  -31.9377  -23.0279   21.2887 H   0  0  0  0  0  0
  -28.6232  -21.4683   22.0822 H   0  0  0  0  0  0
  -28.1456  -21.3856   20.4099 H   0  0  0  0  0  0
  -28.8275  -24.1370   22.2706 H   0  0  0  0  0  0
  -27.5609  -24.2287   21.0906 H   0  0  0  0  0  0
  -30.3425  -24.2586   19.9526 H   0  0  0  0  0  0
  -28.9220  -23.4985   19.3323 H   0  0  0  0  0  0
  -29.8591  -26.2492   21.3823 H   0  0  0  0  0  0
  -28.2855  -26.4454   22.0921 H   0  0  0  0  0  0
  -30.4571  -21.9443   19.8995 H   0  0  0  0  0  0
  1 25  1  0  0  0
  1 30  2  0  0  0
  1 83  1  0  0  0
  2  3  1  0  0  0
  2 25  1  0  0  0
  2 86  1  0  0  0
  2 87  1  0  0  0
  3  4  1  0  0  0
  3 88  1  0  0  0
  3 89  1  0  0  0
  4  5  1  0  0  0
  4 90  1  0  0  0
  4 91  1  0  0  0
  5  6  1  0  0  0
  5 26  1  0  0  0
  5 92  1  0  0  0
  6 25  1  0  0  0
  6 93  1  0  0  0
  6 94  1  0  0  0
  7  8  2  0  0  0
  7 26  1  0  0  0
  7 29  1  0  0  0
  8  9  1  0  0  0
  8 22  1  0  0  0
  9 10  1  0  0  0
  9 27  2  0  0  0
 10 11  2  0  0  0
 10 15  1  0  0  0
 11 12  1  0  0  0
 11 95  1  0  0  0
 12 13  2  0  0  0
 12 96  1  0  0  0
 13 14  1  0  0  0
 13 31  1  0  0  0
 14 15  2  0  0  0
 14 97  1  0  0  0
 15 98  1  0  0  0
 16 17  2  0  0  0
 16 21  1  0  0  0
 16 31  1  0  0  0
 17 18  1  0  0  0
 17 99  1  0  0  0
 18 19  2  0  0  0
 18100  1  0  0  0
 19 20  1  0  0  0
 19 24  1  0  0  0
 20 21  2  0  0  0
 20101  1  0  0  0
 21 23  1  0  0  0
 22 28  1  0  0  0
 22 32  2  0  0  0
 26 27  1  0  0  0
 28102  1  0  0  0
 28103  1  0  0  0
 29104  1  0  0  0
 29105  1  0  0  0
 33 34  1  0  0  0
 33 66  1  0  0  0
 33 70  2  0  0  0
 34 36  1  0  0  0
 34 59  1  0  0  0
 34106  1  0  0  0
 35 44  2  0  0  0
 35 45  1  0  0  0
 35 68  1  0  0  0
 36 56  1  0  0  0
 36107  1  0  0  0
 37 39  1  0  0  0
 37 47  1  0  0  0
 37 66  1  0  0  0
 37108  1  0  0  0
 38 43  2  0  0  0
 38 46  1  0  0  0
 38 47  1  0  0  0
 39 64  1  0  0  0
 39 67  2  0  0  0
 40 52  1  0  0  0
 40 53  2  0  0  0
 40 58  1  0  0  0
 41109  1  0  0  0
 41110  1  0  0  0
 41111  1  0  0  0
 41 48  1  0  0  0
 42 43  1  0  0  0
 42 66  1  0  0  0
 42112  1  0  0  0
 42113  1  0  0  0
 43 44  1  0  0  0
 44114  1  0  0  0
 45 46  2  0  0  0
 45115  1  0  0  0
 46116  1  0  0  0
 47117  1  0  0  0
 47118  1  0  0  0
 48 56  1  0  0  0
 48 65  1  0  0  0
 48119  1  0  0  0
 49 50  1  0  0  0
 49 53  1  0  0  0
 49 64  1  0  0  0
 49120  1  0  0  0
 50 51  1  0  0  0
 50121  1  0  0  0
 50122  1  0  0  0
 51 52  1  0  0  0
 51123  1  0  0  0
 51124  1  0  0  0
 52125  1  0  0  0
 52126  1  0  0  0
 53 54  1  0  0  0
 54 55  2  0  0  0
 54127  1  0  0  0
 55 57  1  0  0  0
 55128  1  0  0  0
 56 69  2  0  0  0
 57 58  2  0  0  0
 57129  1  0  0  0
 58130  1  0  0  0
 59 60  1  0  0  0
 59 61  1  0  0  0
 59 62  1  0  0  0
 60131  1  0  0  0
 60132  1  0  0  0
 60133  1  0  0  0
 61134  1  0  0  0
 61135  1  0  0  0
 61136  1  0  0  0
 62137  1  0  0  0
 62138  1  0  0  0
 62139  1  0  0  0
 63 65  1  0  0  0
 63140  1  0  0  0
 63141  1  0  0  0
 63142  1  0  0  0
 64143  1  0  0  0
 65144  1  0  0  0
 68 82  1  0  0  0
 71 72  2  0  0  0
 71 74  1  0  0  0
 71145  1  0  0  0
 72 75  1  0  0  0
 72146  1  0  0  0
 73 74  2  0  0  0
 73 76  1  0  0  0
 73147  1  0  0  0
 74 79  1  0  0  0
 75 76  2  0  0  0
 75 83  1  0  0  0
 76 85  1  0  0  0
 77 83  1  0  0  0
 77148  1  0  0  0
 77149  1  0  0  0
 77150  1  0  0  0
 78151  1  0  0  0
 78152  1  0  0  0
 78153  1  0  0  0
 78 84  1  0  0  0
 79 84  1  0  0  0
 79154  1  0  0  0
 79155  1  0  0  0
 80 81  1  0  0  0
 80 82  1  0  0  0
 80156  1  0  0  0
 80157  1  0  0  0
 81 84  1  0  0  0
 81158  1  0  0  0
 81159  1  0  0  0
 82160  1  0  0  0
 82161  1  0  0  0
 84162  1  0  0  0
M  CHG  1  84   1
M  ISO  4   1 100  68 101  82 101  83 100
M  END
> <chiral flag>
0

> <version>
0

> <s_m_source_file>
/data/baiqing/PycharmProjects/Reinvent-master-3.2/result/LINK_invent/BTK/process_docking_weight1_custom_product_contain_oxygen_bond_distance_aromatic_linkinvent_7_9_3/rearranged_h_0015.sdf

> <i_m_source_file_index>
42

> <r_mmod_Potential_Energy-OPLS-2005>
101.626335144043

> <r_mmod_Stretch_Energy-OPLS-2005>
50.6671752929688

> <r_mmod_Bend_Energy-OPLS-2005>
123.652946472168

> <r_mmod_Torsional_Energy-OPLS-2005>
369.828857421875

> <r_mmod_Improper_Torsional_Energy-OPLS-2005>
26.798698425293

> <r_mmod_Van_der_Waal_Energy-OPLS-2005>
148.168075561523

> <r_mmod_Electrostatic_Energy-OPLS-2005>
-216.450576782227

> <r_mmod_Solvation_Energy-OPLS-2005>
-442.502563476562

> <b_mmod_Minimization_Converged-OPLS-2005>
0

> <r_mmod_RMS_Derivative-OPLS-2005>
2.22306895256042

$$$$
42
                    3D
 Structure written by MMmdl.
161169  0  0  1  0            999 V2000
  -30.8063  -14.4409   20.6560 C   0  0  0  0  0  0
  -30.3939  -12.3157   19.4563 C   0  0  0  0  0  0
  -29.4933  -12.5400   18.2247 C   0  0  0  0  0  0
  -28.0154  -12.3705   18.6153 C   0  0  0  0  0  0
  -27.6528  -13.2080   19.8680 C   0  0  2  0  0  0
  -28.6824  -12.9983   20.9982 C   0  0  0  0  0  0
  -25.2537  -13.8155   20.5658 C   0  0  0  0  0  0
  -24.1800  -13.0431   20.9135 C   0  0  0  0  0  0
  -24.6351  -11.6898   20.8676 C   0  0  0  0  0  0
  -23.9036  -10.4290   21.0364 C   0  0  0  0  0  0
  -24.3592   -9.4234   21.9160 C   0  0  0  0  0  0
  -23.6271   -8.2277   22.0762 C   0  0  0  0  0  0
  -22.4257   -8.0298   21.3546 C   0  0  0  0  0  0
  -21.9875   -9.0265   20.4650 C   0  0  0  0  0  0
  -22.7198  -10.2139   20.3039 C   0  0  0  0  0  0
  -21.6846   -6.0739   22.5280 C   0  0  0  0  0  0
  -21.4028   -6.5644   23.8216 C   0  0  0  0  0  0
  -21.3672   -5.6792   24.9171 C   0  0  0  0  0  0
  -21.6052   -4.3057   24.7216 C   0  0  0  0  0  0
  -21.8813   -3.8150   23.4334 C   0  0  0  0  0  0
  -21.9194   -4.6970   22.3396 C   0  0  0  0  0  0
  -22.7838  -13.5260   21.1830 C   0  0  0  0  0  0
  -22.1656   -4.2157   21.0972 F   0  0  0  0  0  0
  -21.5629   -3.4545   25.7730 F   0  0  0  0  0  0
  -30.0290  -13.3198   20.4819 N   0  0  0  0  0  0
  -26.2947  -12.9320   20.3270 N   0  0  0  0  0  0
  -25.9268  -11.6474   20.5675 N   0  0  0  0  0  0
  -22.0473  -12.8271   22.0393 N   0  0  0  0  0  0
  -25.4241  -15.1880   20.4165 N   0  0  0  0  0  0
  -31.8838  -14.5311   20.0528 O   0  0  0  0  0  0
  -21.6637   -6.8881   21.4240 O   0  0  0  0  0  0
  -22.3546  -14.5583   20.6694 O   0  0  0  0  0  0
  -24.6126  -31.8701   23.2104 C   0  0  0  0  0  0
  -25.9051  -32.4813   23.8400 C   0  0  1  0  0  0
  -27.2510  -27.4492   20.0950 C   0  0  0  0  0  0
  -25.5966  -33.8616   24.2346 N   0  0  0  0  0  0
  -23.3981  -30.4900   21.5485 C   0  0  2  0  0  0
  -24.8493  -28.9559   20.1187 C   0  0  0  0  0  0
  -22.7391  -29.4638   22.4989 C   0  0  0  0  0  0
  -18.0254  -28.1399   22.8496 C   0  0  0  0  0  0
  -24.1485  -36.7215   23.2643 C   0  0  0  0  0  0
  -25.9275  -30.8410   21.3604 C   0  0  0  0  0  0
  -26.0074  -29.4754   20.7070 C   0  0  0  0  0  0
  -27.2061  -28.7321   20.6879 C   0  0  0  0  0  0
  -26.0669  -26.9324   19.5180 C   0  0  0  0  0  0
  -24.8731  -27.6830   19.5241 C   0  0  0  0  0  0
  -23.6091  -29.8191   20.1631 C   0  0  0  0  0  0
  -25.4132  -36.3090   24.0339 C   0  0  1  0  0  0
  -20.5842  -28.3640   23.1346 C   0  0  2  0  0  0
  -20.6739  -26.9386   22.5414 C   0  0  0  0  0  0
  -19.5737  -26.6398   21.5204 C   0  0  0  0  0  0
  -18.1915  -26.7954   22.1614 C   0  0  0  0  0  0
  -19.1503  -28.8839   23.2909 C   0  0  0  0  0  0
  -18.9453  -30.1460   23.8895 C   0  0  0  0  0  0
  -17.6464  -30.6609   24.0580 C   0  0  0  0  0  0
  -25.9088  -34.9466   23.5126 C   0  0  0  0  0  0
  -16.5342  -29.9141   23.6332 C   0  0  0  0  0  0
  -16.7239  -28.6550   23.0345 C   0  0  0  0  0  0
  -26.4499  -31.6559   25.0715 C   0  0  0  0  0  0
  -25.3781  -31.3609   26.1463 C   0  0  0  0  0  0
  -27.0306  -30.3018   24.6058 C   0  0  0  0  0  0
  -27.6088  -32.4228   25.7512 C   0  0  0  0  0  0
  -27.5579  -37.1772   24.8505 C   0  0  0  0  0  0
  -21.4117  -29.2995   22.3747 N   0  0  0  0  0  0
  -26.4307  -37.3791   23.9435 N   0  0  0  0  0  0
  -24.6629  -31.0854   22.0965 N   0  0  0  0  0  0
  -23.4166  -28.8173   23.3023 O   0  0  0  0  0  0
  -28.4706  -26.7992   20.0946 O   0  0  0  0  0  0
  -26.5622  -34.8928   22.4668 O   0  0  0  0  0  0
  -23.5319  -32.1398   23.7535 O   0  0  0  0  0  0
  -30.3551  -18.7805   22.6159 C   0  0  0  0  0  0
  -29.9595  -18.8911   20.2265 C   0  0  0  0  0  0
  -29.8311  -20.0814   22.7618 C   0  0  0  0  0  0
  -29.4581  -20.2037   20.3721 C   0  0  0  0  0  0
  -30.4165  -18.1624   21.3494 C   0  0  0  0  0  0
  -29.3796  -20.8229   21.6444 C   0  0  0  0  0  0
  -27.8668  -22.2685   22.8739 C   0  0  0  0  0  0
  -29.6876  -15.4497   22.6520 C   0  0  0  0  0  0
  -31.1228  -16.8134   21.1668 C   0  0  0  0  0  0
  -28.6103  -24.5288   21.0262 C   0  0  0  0  0  0
  -28.8306  -23.0368   20.6670 C   0  0  0  0  0  0
  -28.5950  -25.4140   19.7657 C   0  0  0  0  0  0
  -28.8804  -22.1354   21.8249 N   0  0  0  0  0  0
  -30.3634  -15.5365   21.3509 N   0  0  0  0  0  0
  -31.4424  -12.3557   19.1590 H   0  0  0  0  0  0
  -30.2572  -11.3061   19.8494 H   0  0  0  0  0  0
  -29.7605  -11.8459   17.4269 H   0  0  0  0  0  0
  -29.6513  -13.5433   17.8228 H   0  0  0  0  0  0
  -27.8399  -11.3109   18.8084 H   0  0  0  0  0  0
  -27.3697  -12.6390   17.7778 H   0  0  0  0  0  0
  -27.6930  -14.2565   19.5726 H   0  0  0  0  0  0
  -28.6581  -11.9598   21.3338 H   0  0  0  0  0  0
  -28.3640  -13.5543   21.8690 H   0  0  0  0  0  0
  -25.2735   -9.5730   22.4723 H   0  0  0  0  0  0
  -23.9989   -7.4674   22.7481 H   0  0  0  0  0  0
  -21.0814   -8.8765   19.8956 H   0  0  0  0  0  0
  -22.3637  -10.9672   19.6147 H   0  0  0  0  0  0
  -21.2030   -7.6150   23.9720 H   0  0  0  0  0  0
  -21.1500   -6.0519   25.9072 H   0  0  0  0  0  0
  -22.0579   -2.7617   23.2825 H   0  0  0  0  0  0
  -22.4045  -11.9916   22.4769 H   0  0  0  0  0  0
  -21.1107  -13.1343   22.2595 H   0  0  0  0  0  0
  -24.6580  -15.8404   20.5457 H   0  0  0  0  0  0
  -26.2936  -15.6425   20.1644 H   0  0  0  0  0  0
  -26.7126  -32.5500   23.1163 H   0  0  0  0  0  0
  -25.0205  -33.9799   25.0558 H   0  0  0  0  0  0
  -22.6835  -31.3017   21.4047 H   0  0  0  0  0  0
  -23.3809  -35.9486   23.3377 H   0  0  0  0  0  0
  -24.3574  -36.8749   22.2045 H   0  0  0  0  0  0
  -23.7186  -37.6419   23.6595 H   0  0  0  0  0  0
  -26.0608  -31.6109   20.5985 H   0  0  0  0  0  0
  -26.8091  -30.8833   21.9857 H   0  0  0  0  0  0
  -28.1011  -29.1419   21.1325 H   0  0  0  0  0  0
  -26.0271  -25.9608   19.0518 H   0  0  0  0  0  0
  -23.9777  -27.2737   19.0767 H   0  0  0  0  0  0
  -23.7156  -30.5876   19.3975 H   0  0  0  0  0  0
  -22.7354  -29.2365   19.8651 H   0  0  0  0  0  0
  -25.1324  -36.1941   25.0833 H   0  0  0  0  0  0
  -20.9929  -28.3199   24.1469 H   0  0  0  0  0  0
  -20.5683  -26.2223   23.3574 H   0  0  0  0  0  0
  -21.6618  -26.7467   22.1208 H   0  0  0  0  0  0
  -19.6907  -25.6327   21.1213 H   0  0  0  0  0  0
  -19.6721  -27.3236   20.6760 H   0  0  0  0  0  0
  -17.4182  -26.6664   21.4016 H   0  0  0  0  0  0
  -18.0325  -26.0094   22.9013 H   0  0  0  0  0  0
  -19.7923  -30.7272   24.2255 H   0  0  0  0  0  0
  -17.5030  -31.6302   24.5183 H   0  0  0  0  0  0
  -15.5356  -30.3077   23.7672 H   0  0  0  0  0  0
  -15.8599  -28.0912   22.7064 H   0  0  0  0  0  0
  -24.5991  -30.6939   25.7787 H   0  0  0  0  0  0
  -24.8931  -32.2713   26.4962 H   0  0  0  0  0  0
  -25.8175  -30.8730   27.0170 H   0  0  0  0  0  0
  -26.2792  -29.6810   24.1166 H   0  0  0  0  0  0
  -27.4159  -29.7247   25.4476 H   0  0  0  0  0  0
  -27.8631  -30.4378   23.9156 H   0  0  0  0  0  0
  -27.2763  -33.3526   26.2145 H   0  0  0  0  0  0
  -28.3935  -32.6789   25.0379 H   0  0  0  0  0  0
  -28.0734  -31.8285   26.5410 H   0  0  0  0  0  0
  -28.2662  -38.0017   24.7568 H   0  0  0  0  0  0
  -28.1012  -36.2560   24.6325 H   0  0  0  0  0  0
  -27.2279  -37.1422   25.8907 H   0  0  0  0  0  0
  -20.9265  -29.8620   21.6898 H   0  0  0  0  0  0
  -26.0186  -38.2857   24.1474 H   0  0  0  0  0  0
  -30.7436  -18.2769   23.4888 H   0  0  0  0  0  0
  -30.0321  -18.4728   19.2321 H   0  0  0  0  0  0
  -29.8052  -20.5196   23.7487 H   0  0  0  0  0  0
  -29.1396  -20.7236   19.4822 H   0  0  0  0  0  0
  -27.4389  -21.3103   23.1725 H   0  0  0  0  0  0
  -27.0316  -22.8851   22.5437 H   0  0  0  0  0  0
  -28.2963  -22.7425   23.7559 H   0  0  0  0  0  0
  -29.8628  -14.4913   23.1442 H   0  0  0  0  0  0
  -28.6157  -15.6159   22.5369 H   0  0  0  0  0  0
  -30.0415  -16.1980   23.3540 H   0  0  0  0  0  0
  -31.9780  -16.7963   21.8453 H   0  0  0  0  0  0
  -31.5529  -16.8680   20.1636 H   0  0  0  0  0  0
  -29.4025  -24.8670   21.6973 H   0  0  0  0  0  0
  -27.6734  -24.6751   21.5629 H   0  0  0  0  0  0
  -29.7715  -22.9527   20.1178 H   0  0  0  0  0  0
  -28.0473  -22.7043   19.9844 H   0  0  0  0  0  0
  -27.8687  -25.0565   19.0387 H   0  0  0  0  0  0
  -29.5583  -25.3080   19.2670 H   0  0  0  0  0  0
  1 25  1  0  0  0
  1 30  2  0  0  0
  1 84  1  0  0  0
  2  3  1  0  0  0
  2 25  1  0  0  0
  2 85  1  0  0  0
  2 86  1  0  0  0
  3  4  1  0  0  0
  3 87  1  0  0  0
  3 88  1  0  0  0
  4  5  1  0  0  0
  4 89  1  0  0  0
  4 90  1  0  0  0
  5  6  1  0  0  0
  5 26  1  0  0  0
  5 91  1  0  0  0
  6 25  1  0  0  0
  6 92  1  0  0  0
  6 93  1  0  0  0
  7  8  2  0  0  0
  7 26  1  0  0  0
  7 29  1  0  0  0
  8  9  1  0  0  0
  8 22  1  0  0  0
  9 10  1  0  0  0
  9 27  2  0  0  0
 10 11  2  0  0  0
 10 15  1  0  0  0
 11 12  1  0  0  0
 11 94  1  0  0  0
 12 13  2  0  0  0
 12 95  1  0  0  0
 13 14  1  0  0  0
 13 31  1  0  0  0
 14 15  2  0  0  0
 14 96  1  0  0  0
 15 97  1  0  0  0
 16 17  2  0  0  0
 16 21  1  0  0  0
 16 31  1  0  0  0
 17 18  1  0  0  0
 17 98  1  0  0  0
 18 19  2  0  0  0
 18 99  1  0  0  0
 19 20  1  0  0  0
 19 24  1  0  0  0
 20 21  2  0  0  0
 20100  1  0  0  0
 21 23  1  0  0  0
 22 28  1  0  0  0
 22 32  2  0  0  0
 26 27  1  0  0  0
 28101  1  0  0  0
 28102  1  0  0  0
 29103  1  0  0  0
 29104  1  0  0  0
 33 34  1  0  0  0
 33 66  1  0  0  0
 33 70  2  0  0  0
 34 36  1  0  0  0
 34 59  1  0  0  0
 34105  1  0  0  0
 35 44  2  0  0  0
 35 45  1  0  0  0
 35 68  1  0  0  0
 36 56  1  0  0  0
 36106  1  0  0  0
 37 39  1  0  0  0
 37 47  1  0  0  0
 37 66  1  0  0  0
 37107  1  0  0  0
 38 43  2  0  0  0
 38 46  1  0  0  0
 38 47  1  0  0  0
 39 64  1  0  0  0
 39 67  2  0  0  0
 40 52  1  0  0  0
 40 53  2  0  0  0
 40 58  1  0  0  0
 41108  1  0  0  0
 41109  1  0  0  0
 41110  1  0  0  0
 41 48  1  0  0  0
 42 43  1  0  0  0
 42 66  1  0  0  0
 42111  1  0  0  0
 42112  1  0  0  0
 43 44  1  0  0  0
 44113  1  0  0  0
 45 46  2  0  0  0
 45114  1  0  0  0
 46115  1  0  0  0
 47116  1  0  0  0
 47117  1  0  0  0
 48 56  1  0  0  0
 48 65  1  0  0  0
 48118  1  0  0  0
 49 50  1  0  0  0
 49 53  1  0  0  0
 49 64  1  0  0  0
 49119  1  0  0  0
 50 51  1  0  0  0
 50120  1  0  0  0
 50121  1  0  0  0
 51 52  1  0  0  0
 51122  1  0  0  0
 51123  1  0  0  0
 52124  1  0  0  0
 52125  1  0  0  0
 53 54  1  0  0  0
 54 55  2  0  0  0
 54126  1  0  0  0
 55 57  1  0  0  0
 55127  1  0  0  0
 56 69  2  0  0  0
 57 58  2  0  0  0
 57128  1  0  0  0
 58129  1  0  0  0
 59 60  1  0  0  0
 59 61  1  0  0  0
 59 62  1  0  0  0
 60130  1  0  0  0
 60131  1  0  0  0
 60132  1  0  0  0
 61133  1  0  0  0
 61134  1  0  0  0
 61135  1  0  0  0
 62136  1  0  0  0
 62137  1  0  0  0
 62138  1  0  0  0
 63 65  1  0  0  0
 63139  1  0  0  0
 63140  1  0  0  0
 63141  1  0  0  0
 64142  1  0  0  0
 65143  1  0  0  0
 68 82  1  0  0  0
 71 73  2  0  0  0
 71 75  1  0  0  0
 71144  1  0  0  0
 72 74  1  0  0  0
 72 75  2  0  0  0
 72145  1  0  0  0
 73 76  1  0  0  0
 73146  1  0  0  0
 74 76  2  0  0  0
 74147  1  0  0  0
 75 79  1  0  0  0
 76 83  1  0  0  0
 77 83  1  0  0  0
 77148  1  0  0  0
 77149  1  0  0  0
 77150  1  0  0  0
 78 84  1  0  0  0
 78151  1  0  0  0
 78152  1  0  0  0
 78153  1  0  0  0
 79 84  1  0  0  0
 79154  1  0  0  0
 79155  1  0  0  0
 80 81  1  0  0  0
 80 82  1  0  0  0
 80156  1  0  0  0
 80157  1  0  0  0
 81 83  1  0  0  0
 81158  1  0  0  0
 81159  1  0  0  0
 82160  1  0  0  0
 82161  1  0  0  0
M  ISO  4   1 100  68 101  82 101  84 100
M  END
> <chiral flag>
0

> <version>
0

> <s_m_source_file>
/data/baiqing/PycharmProjects/Reinvent-master-3.2/result/LINK_invent/BTK/process_docking_weight1_custom_product_contain_oxygen_bond_distance_aromatic_linkinvent_7_9_3/rearranged_h_0015.sdf

> <i_m_source_file_index>
43

> <r_mmod_Potential_Energy-OPLS-2005>
100.385414123535

> <r_mmod_Stretch_Energy-OPLS-2005>
46.212100982666

> <r_mmod_Bend_Energy-OPLS-2005>
142.126251220703

> <r_mmod_Torsional_Energy-OPLS-2005>
238.704498291016

> <r_mmod_Improper_Torsional_Energy-OPLS-2005>
7.92415904998779

> <r_mmod_Van_der_Waal_Energy-OPLS-2005>
180.791030883789

> <r_mmod_Electrostatic_Energy-OPLS-2005>
-317.921661376953

> <r_mmod_Solvation_Energy-OPLS-2005>
-212.284820556641

> <b_mmod_Minimization_Converged-OPLS-2005>
0

> <r_mmod_RMS_Derivative-OPLS-2005>
4.60344171524048

$$$$
43
                    3D
 Structure written by MMmdl.
160169  0  0  1  0            999 V2000
  -30.6630  -14.5583   20.4923 C   0  0  0  0  0  0
  -30.4267  -12.3358   19.4456 C   0  0  0  0  0  0
  -29.4988  -12.4613   18.2189 C   0  0  0  0  0  0
  -28.0191  -12.3307   18.6335 C   0  0  0  0  0  0
  -27.6496  -13.2075   19.8607 C   0  0  2  0  0  0
  -28.6961  -13.0633   20.9883 C   0  0  0  0  0  0
  -25.2552  -13.8158   20.5681 C   0  0  0  0  0  0
  -24.1817  -13.0437   20.9199 C   0  0  0  0  0  0
  -24.6381  -11.6906   20.8769 C   0  0  0  0  0  0
  -23.9045  -10.4295   21.0438 C   0  0  0  0  0  0
  -24.3606   -9.4203   21.9202 C   0  0  0  0  0  0
  -23.6294   -8.2232   22.0753 C   0  0  0  0  0  0
  -22.4271   -8.0274   21.3543 C   0  0  0  0  0  0
  -21.9910   -9.0249   20.4651 C   0  0  0  0  0  0
  -22.7227  -10.2144   20.3073 C   0  0  0  0  0  0
  -21.6849   -6.0736   22.5292 C   0  0  0  0  0  0
  -21.4008   -6.5643   23.8224 C   0  0  0  0  0  0
  -21.3654   -5.6798   24.9180 C   0  0  0  0  0  0
  -21.6043   -4.3052   24.7233 C   0  0  0  0  0  0
  -21.8814   -3.8148   23.4356 C   0  0  0  0  0  0
  -21.9184   -4.6964   22.3412 C   0  0  0  0  0  0
  -22.7844  -13.5233   21.1870 C   0  0  0  0  0  0
  -22.1654   -4.2150   21.0988 F   0  0  0  0  0  0
  -21.5632   -3.4534   25.7750 F   0  0  0  0  0  0
  -30.0147  -13.3621   20.4155 N   0  0  0  0  0  0
  -26.2974  -12.9317   20.3344 N   0  0  0  0  0  0
  -25.9307  -11.6488   20.5816 N   0  0  0  0  0  0
  -22.0489  -12.8234   22.0437 N   0  0  0  0  0  0
  -25.4290  -15.1872   20.4074 N   0  0  0  0  0  0
  -31.8521  -14.6811   20.1802 O   0  0  0  0  0  0
  -21.6621   -6.8883   21.4255 O   0  0  0  0  0  0
  -22.3520  -14.5525   20.6712 O   0  0  0  0  0  0
  -24.6183  -31.8664   23.2084 C   0  0  0  0  0  0
  -25.9070  -32.4813   23.8384 C   0  0  1  0  0  0
  -27.2272  -27.3963   20.0936 C   0  0  0  0  0  0
  -25.5917  -33.8611   24.2316 N   0  0  0  0  0  0
  -23.4068  -30.4910   21.5508 C   0  0  2  0  0  0
  -24.8488  -28.9531   20.1160 C   0  0  0  0  0  0
  -22.7427  -29.4654   22.4982 C   0  0  0  0  0  0
  -18.0276  -28.1381   22.8496 C   0  0  0  0  0  0
  -24.1486  -36.7308   23.2635 C   0  0  0  0  0  0
  -25.9397  -30.8188   21.3672 C   0  0  0  0  0  0
  -26.0131  -29.4511   20.7118 C   0  0  0  0  0  0
  -27.2032  -28.6812   20.6958 C   0  0  0  0  0  0
  -26.0366  -26.9214   19.4947 C   0  0  0  0  0  0
  -24.8578  -27.6890   19.5043 C   0  0  0  0  0  0
  -23.6150  -29.8266   20.1649 C   0  0  0  0  0  0
  -25.4108  -36.3106   24.0335 C   0  0  1  0  0  0
  -20.5869  -28.3674   23.1313 C   0  0  2  0  0  0
  -20.6768  -26.9407   22.5418 C   0  0  0  0  0  0
  -19.5745  -26.6389   21.5215 C   0  0  0  0  0  0
  -18.1921  -26.7927   22.1625 C   0  0  0  0  0  0
  -19.1527  -28.8844   23.2902 C   0  0  0  0  0  0
  -18.9451  -30.1447   23.8915 C   0  0  0  0  0  0
  -17.6454  -30.6588   24.0564 C   0  0  0  0  0  0
  -25.9042  -34.9470   23.5121 C   0  0  0  0  0  0
  -16.5343  -29.9089   23.6328 C   0  0  0  0  0  0
  -16.7263  -28.6506   23.0350 C   0  0  0  0  0  0
  -26.4480  -31.6605   25.0727 C   0  0  0  0  0  0
  -25.3733  -31.3727   26.1473 C   0  0  0  0  0  0
  -27.0314  -30.3042   24.6130 C   0  0  0  0  0  0
  -27.6058  -32.4325   25.7478 C   0  0  0  0  0  0
  -27.5586  -37.1800   24.8459 C   0  0  0  0  0  0
  -21.4152  -29.3037   22.3719 N   0  0  0  0  0  0
  -26.4292  -37.3797   23.9414 N   0  0  0  0  0  0
  -24.6736  -31.0740   22.0998 N   0  0  0  0  0  0
  -23.4187  -28.8191   23.3032 O   0  0  0  0  0  0
  -28.3978  -26.6498   20.1103 O   0  0  0  0  0  0
  -26.5604  -34.8930   22.4680 O   0  0  0  0  0  0
  -23.5369  -32.1420   23.7467 O   0  0  0  0  0  0
  -30.7015  -20.2712   20.8900 C   0  0  0  0  0  0
  -30.7707  -18.8583   20.9851 C   0  0  0  0  0  0
  -28.4236  -20.2180   21.7102 C   0  0  0  0  0  0
  -29.5370  -20.9793   21.2805 C   0  0  0  0  0  0
  -29.6752  -18.1016   21.4631 C   0  0  0  0  0  0
  -28.4899  -18.8045   21.8017 C   0  0  0  0  0  0
  -27.8220  -24.2241   20.6568 C   0  0  0  0  0  0
  -29.6985  -24.5283   19.8869 C   0  0  0  0  0  0
  -28.3730  -25.2676   19.6689 C   0  0  2  0  0  0
  -29.5881  -16.3115   19.2286 C   0  0  0  0  0  0
  -29.7988  -16.5690   21.6934 C   0  0  0  0  0  0
  -29.5519  -22.5227   21.4106 C   0  0  0  0  0  0
  -29.8568  -15.6597   20.5174 N   0  0  0  0  0  0
  -28.9441  -23.3321   20.3043 N   0  3  1  0  0  0
  -27.4099  -18.1266   22.2578 F   0  0  0  0  0  0
  -31.4704  -12.4455   19.1434 H   0  0  0  0  0  0
  -30.3459  -11.3443   19.8923 H   0  0  0  0  0  0
  -29.7455  -11.6922   17.4859 H   0  0  0  0  0  0
  -29.6649  -13.4159   17.7209 H   0  0  0  0  0  0
  -27.8413  -11.2804   18.8669 H   0  0  0  0  0  0
  -27.3666  -12.5618   17.7899 H   0  0  0  0  0  0
  -27.6653  -14.2397   19.5171 H   0  0  0  0  0  0
  -28.6878  -12.0532   21.4025 H   0  0  0  0  0  0
  -28.4654  -13.7316   21.8179 H   0  0  0  0  0  0
  -25.2753   -9.5652   22.4766 H   0  0  0  0  0  0
  -24.0001   -7.4613   22.7466 H   0  0  0  0  0  0
  -21.0834   -8.8773   19.8967 H   0  0  0  0  0  0
  -22.3691  -10.9684   19.6170 H   0  0  0  0  0  0
  -21.1996   -7.6148   23.9719 H   0  0  0  0  0  0
  -21.1486   -6.0532   25.9082 H   0  0  0  0  0  0
  -22.0598   -2.7619   23.2860 H   0  0  0  0  0  0
  -22.4088  -11.9882   22.4818 H   0  0  0  0  0  0
  -21.1120  -13.1282   22.2645 H   0  0  0  0  0  0
  -24.6741  -15.8522   20.5339 H   0  0  0  0  0  0
  -26.3000  -15.6227   20.1323 H   0  0  0  0  0  0
  -26.7132  -32.5504   23.1137 H   0  0  0  0  0  0
  -25.0078  -33.9767   25.0471 H   0  0  0  0  0  0
  -22.6971  -31.3088   21.4127 H   0  0  0  0  0  0
  -23.3754  -35.9636   23.3292 H   0  0  0  0  0  0
  -24.3585  -36.8926   22.2052 H   0  0  0  0  0  0
  -23.7229  -37.6507   23.6650 H   0  0  0  0  0  0
  -26.0592  -31.5851   20.6002 H   0  0  0  0  0  0
  -26.8251  -30.8688   21.9891 H   0  0  0  0  0  0
  -28.1013  -29.0649   21.1588 H   0  0  0  0  0  0
  -25.9878  -25.9563   19.0134 H   0  0  0  0  0  0
  -23.9613  -27.3003   19.0405 H   0  0  0  0  0  0
  -23.7283  -30.6027   19.4067 H   0  0  0  0  0  0
  -22.7368  -29.2515   19.8662 H   0  0  0  0  0  0
  -25.1281  -36.1965   25.0828 H   0  0  0  0  0  0
  -20.9954  -28.3235   24.1435 H   0  0  0  0  0  0
  -20.5674  -26.2277   23.3606 H   0  0  0  0  0  0
  -21.6636  -26.7451   22.1203 H   0  0  0  0  0  0
  -19.6905  -25.6302   21.1235 H   0  0  0  0  0  0
  -19.6685  -27.3207   20.6748 H   0  0  0  0  0  0
  -17.4192  -26.6679   21.4021 H   0  0  0  0  0  0
  -18.0320  -26.0063   22.9017 H   0  0  0  0  0  0
  -19.7925  -30.7256   24.2289 H   0  0  0  0  0  0
  -17.5009  -31.6268   24.5165 H   0  0  0  0  0  0
  -15.5343  -30.2996   23.7646 H   0  0  0  0  0  0
  -15.8661  -28.0829   22.7059 H   0  0  0  0  0  0
  -24.5901  -30.7083   25.7802 H   0  0  0  0  0  0
  -24.8939  -32.2896   26.4914 H   0  0  0  0  0  0
  -25.8081  -30.8892   27.0234 H   0  0  0  0  0  0
  -26.2869  -29.6799   24.1180 H   0  0  0  0  0  0
  -27.4064  -29.7286   25.4603 H   0  0  0  0  0  0
  -27.8712  -30.4348   23.9301 H   0  0  0  0  0  0
  -27.2685  -33.3616   26.2084 H   0  0  0  0  0  0
  -28.3851  -32.6903   25.0291 H   0  0  0  0  0  0
  -28.0753  -31.8436   26.5370 H   0  0  0  0  0  0
  -28.2589  -38.0113   24.7543 H   0  0  0  0  0  0
  -28.1097  -36.2650   24.6236 H   0  0  0  0  0  0
  -27.2315  -37.1389   25.8864 H   0  0  0  0  0  0
  -20.9312  -29.8767   21.6947 H   0  0  0  0  0  0
  -26.0178  -38.2868   24.1443 H   0  0  0  0  0  0
  -31.5805  -20.8140   20.5693 H   0  0  0  0  0  0
  -31.6915  -18.3538   20.7265 H   0  0  0  0  0  0
  -27.5214  -20.7191   22.0331 H   0  0  0  0  0  0
  -26.8441  -23.8208   20.3918 H   0  0  0  0  0  0
  -27.8453  -24.5734   21.6904 H   0  0  0  0  0  0
  -30.2970  -24.9687   20.6865 H   0  0  0  0  0  0
  -30.2861  -24.3817   18.9799 H   0  0  0  0  0  0
  -28.0173  -25.1341   18.6440 H   0  0  0  0  0  0
  -28.6894  -16.9270   19.2721 H   0  0  0  0  0  0
  -29.4329  -15.5851   18.4305 H   0  0  0  0  0  0
  -30.4259  -16.9447   18.9321 H   0  0  0  0  0  0
  -30.6825  -16.4114   22.3147 H   0  0  0  0  0  0
  -28.9617  -16.2383   22.3091 H   0  0  0  0  0  0
  -30.5940  -22.8224   21.5270 H   0  0  0  0  0  0
  -29.0822  -22.7852   22.3586 H   0  0  0  0  0  0
  -28.7232  -22.7612   19.5024 H   0  0  0  0  0  0
  1 25  1  0  0  0
  1 30  2  0  0  0
  1 83  1  0  0  0
  2  3  1  0  0  0
  2 25  1  0  0  0
  2 86  1  0  0  0
  2 87  1  0  0  0
  3  4  1  0  0  0
  3 88  1  0  0  0
  3 89  1  0  0  0
  4  5  1  0  0  0
  4 90  1  0  0  0
  4 91  1  0  0  0
  5  6  1  0  0  0
  5 26  1  0  0  0
  5 92  1  0  0  0
  6 25  1  0  0  0
  6 93  1  0  0  0
  6 94  1  0  0  0
  7  8  2  0  0  0
  7 26  1  0  0  0
  7 29  1  0  0  0
  8  9  1  0  0  0
  8 22  1  0  0  0
  9 10  1  0  0  0
  9 27  2  0  0  0
 10 11  2  0  0  0
 10 15  1  0  0  0
 11 12  1  0  0  0
 11 95  1  0  0  0
 12 13  2  0  0  0
 12 96  1  0  0  0
 13 14  1  0  0  0
 13 31  1  0  0  0
 14 15  2  0  0  0
 14 97  1  0  0  0
 15 98  1  0  0  0
 16 17  2  0  0  0
 16 21  1  0  0  0
 16 31  1  0  0  0
 17 18  1  0  0  0
 17 99  1  0  0  0
 18 19  2  0  0  0
 18100  1  0  0  0
 19 20  1  0  0  0
 19 24  1  0  0  0
 20 21  2  0  0  0
 20101  1  0  0  0
 21 23  1  0  0  0
 22 28  1  0  0  0
 22 32  2  0  0  0
 26 27  1  0  0  0
 28102  1  0  0  0
 28103  1  0  0  0
 29104  1  0  0  0
 29105  1  0  0  0
 33 34  1  0  0  0
 33 66  1  0  0  0
 33 70  2  0  0  0
 34 36  1  0  0  0
 34 59  1  0  0  0
 34106  1  0  0  0
 35 44  2  0  0  0
 35 45  1  0  0  0
 35 68  1  0  0  0
 36 56  1  0  0  0
 36107  1  0  0  0
 37 39  1  0  0  0
 37 47  1  0  0  0
 37 66  1  0  0  0
 37108  1  0  0  0
 38 43  2  0  0  0
 38 46  1  0  0  0
 38 47  1  0  0  0
 39 64  1  0  0  0
 39 67  2  0  0  0
 40 52  1  0  0  0
 40 53  2  0  0  0
 40 58  1  0  0  0
 41109  1  0  0  0
 41110  1  0  0  0
 41111  1  0  0  0
 41 48  1  0  0  0
 42 43  1  0  0  0
 42 66  1  0  0  0
 42112  1  0  0  0
 42113  1  0  0  0
 43 44  1  0  0  0
 44114  1  0  0  0
 45 46  2  0  0  0
 45115  1  0  0  0
 46116  1  0  0  0
 47117  1  0  0  0
 47118  1  0  0  0
 48 56  1  0  0  0
 48 65  1  0  0  0
 48119  1  0  0  0
 49 50  1  0  0  0
 49 53  1  0  0  0
 49 64  1  0  0  0
 49120  1  0  0  0
 50 51  1  0  0  0
 50121  1  0  0  0
 50122  1  0  0  0
 51 52  1  0  0  0
 51123  1  0  0  0
 51124  1  0  0  0
 52125  1  0  0  0
 52126  1  0  0  0
 53 54  1  0  0  0
 54 55  2  0  0  0
 54127  1  0  0  0
 55 57  1  0  0  0
 55128  1  0  0  0
 56 69  2  0  0  0
 57 58  2  0  0  0
 57129  1  0  0  0
 58130  1  0  0  0
 59 60  1  0  0  0
 59 61  1  0  0  0
 59 62  1  0  0  0
 60131  1  0  0  0
 60132  1  0  0  0
 60133  1  0  0  0
 61134  1  0  0  0
 61135  1  0  0  0
 61136  1  0  0  0
 62137  1  0  0  0
 62138  1  0  0  0
 62139  1  0  0  0
 63 65  1  0  0  0
 63140  1  0  0  0
 63141  1  0  0  0
 63142  1  0  0  0
 64143  1  0  0  0
 65144  1  0  0  0
 68 79  1  0  0  0
 71 72  2  0  0  0
 71 74  1  0  0  0
 71145  1  0  0  0
 72 75  1  0  0  0
 72146  1  0  0  0
 73 74  2  0  0  0
 73 76  1  0  0  0
 73147  1  0  0  0
 74 82  1  0  0  0
 75 76  2  0  0  0
 75 81  1  0  0  0
 76 85  1  0  0  0
 77 79  1  0  0  0
 77 84  1  0  0  0
 77148  1  0  0  0
 77149  1  0  0  0
 78 79  1  0  0  0
 78 84  1  0  0  0
 78150  1  0  0  0
 78151  1  0  0  0
 79152  1  0  0  0
 80 83  1  0  0  0
 80153  1  0  0  0
 80154  1  0  0  0
 80155  1  0  0  0
 81 83  1  0  0  0
 81156  1  0  0  0
 81157  1  0  0  0
 82158  1  0  0  0
 82159  1  0  0  0
 82 84  1  0  0  0
 84160  1  0  0  0
M  CHG  1  84   1
M  ISO  4   1 100  68 101  79 101  83 100
M  END
> <chiral flag>
0

> <version>
0

> <s_m_source_file>
/data/baiqing/PycharmProjects/Reinvent-master-3.2/result/LINK_invent/BTK/process_docking_weight1_custom_product_contain_oxygen_bond_distance_aromatic_linkinvent_7_9_3/rearranged_h_0015.sdf

> <i_m_source_file_index>
44

> <r_mmod_Potential_Energy-OPLS-2005>
-56.8418807983398

> <r_mmod_Stretch_Energy-OPLS-2005>
49.3914604187012

> <r_mmod_Bend_Energy-OPLS-2005>
123.182220458984

> <r_mmod_Torsional_Energy-OPLS-2005>
300.82470703125

> <r_mmod_Improper_Torsional_Energy-OPLS-2005>
14.4298448562622

> <r_mmod_Van_der_Waal_Energy-OPLS-2005>
146.650466918945

> <r_mmod_Electrostatic_Energy-OPLS-2005>
-261.113739013672

> <r_mmod_Solvation_Energy-OPLS-2005>
-457.313079833984

> <b_mmod_Minimization_Converged-OPLS-2005>
0

> <r_mmod_RMS_Derivative-OPLS-2005>
1.84213829040527

$$$$
44
                    3D
 Structure written by MMmdl.
155164  0  0  1  0            999 V2000
  -30.6834  -14.5128   20.5427 C   0  0  0  0  0  0
  -30.4260  -12.3211   19.4352 C   0  0  0  0  0  0
  -29.5000  -12.5012   18.2138 C   0  0  0  0  0  0
  -28.0201  -12.3607   18.6226 C   0  0  0  0  0  0
  -27.6602  -13.2093   19.8720 C   0  0  2  0  0  0
  -28.7022  -13.0125   20.9970 C   0  0  0  0  0  0
  -25.2587  -13.8163   20.5671 C   0  0  0  0  0  0
  -24.1845  -13.0439   20.9180 C   0  0  0  0  0  0
  -24.6399  -11.6906   20.8741 C   0  0  0  0  0  0
  -23.9064  -10.4294   21.0404 C   0  0  0  0  0  0
  -24.3616   -9.4210   21.9182 C   0  0  0  0  0  0
  -23.6292   -8.2248   22.0753 C   0  0  0  0  0  0
  -22.4274   -8.0285   21.3549 C   0  0  0  0  0  0
  -21.9908   -9.0257   20.4651 C   0  0  0  0  0  0
  -22.7234  -10.2135   20.3056 C   0  0  0  0  0  0
  -21.6854   -6.0737   22.5276 C   0  0  0  0  0  0
  -21.4015   -6.5640   23.8210 C   0  0  0  0  0  0
  -21.3659   -5.6795   24.9174 C   0  0  0  0  0  0
  -21.6044   -4.3057   24.7226 C   0  0  0  0  0  0
  -21.8820   -3.8145   23.4348 C   0  0  0  0  0  0
  -21.9194   -4.6964   22.3401 C   0  0  0  0  0  0
  -22.7868  -13.5240   21.1842 C   0  0  0  0  0  0
  -22.1662   -4.2150   21.0981 F   0  0  0  0  0  0
  -21.5628   -3.4538   25.7738 F   0  0  0  0  0  0
  -30.0311  -13.3200   20.4431 N   0  0  0  0  0  0
  -26.3019  -12.9337   20.3350 N   0  0  0  0  0  0
  -25.9328  -11.6494   20.5767 N   0  0  0  0  0  0
  -22.0504  -12.8237   22.0396 N   0  0  0  0  0  0
  -25.4303  -15.1878   20.4045 N   0  0  0  0  0  0
  -31.8292  -14.6693   20.1110 O   0  0  0  0  0  0
  -21.6639   -6.8878   21.4241 O   0  0  0  0  0  0
  -22.3554  -14.5544   20.6687 O   0  0  0  0  0  0
  -24.6194  -31.8663   23.2084 C   0  0  0  0  0  0
  -25.9075  -32.4807   23.8392 C   0  0  1  0  0  0
  -27.2233  -27.3867   20.1018 C   0  0  0  0  0  0
  -25.5919  -33.8605   24.2315 N   0  0  0  0  0  0
  -23.4088  -30.4929   21.5504 C   0  0  2  0  0  0
  -24.8531  -28.9606   20.1109 C   0  0  0  0  0  0
  -22.7439  -29.4660   22.4962 C   0  0  0  0  0  0
  -18.0280  -28.1375   22.8489 C   0  0  0  0  0  0
  -24.1495  -36.7310   23.2636 C   0  0  0  0  0  0
  -25.9452  -30.8163   21.3719 C   0  0  0  0  0  0
  -26.0194  -29.4511   20.7116 C   0  0  0  0  0  0
  -27.2077  -28.6742   20.7016 C   0  0  0  0  0  0
  -26.0351  -26.9356   19.4772 C   0  0  0  0  0  0
  -24.8590  -27.7038   19.4891 C   0  0  0  0  0  0
  -23.6183  -29.8327   20.1632 C   0  0  0  0  0  0
  -25.4113  -36.3104   24.0335 C   0  0  1  0  0  0
  -20.5878  -28.3675   23.1297 C   0  0  2  0  0  0
  -20.6772  -26.9402   22.5415 C   0  0  0  0  0  0
  -19.5745  -26.6381   21.5213 C   0  0  0  0  0  0
  -18.1923  -26.7919   22.1625 C   0  0  0  0  0  0
  -19.1532  -28.8841   23.2888 C   0  0  0  0  0  0
  -18.9459  -30.1444   23.8900 C   0  0  0  0  0  0
  -17.6461  -30.6581   24.0565 C   0  0  0  0  0  0
  -25.9044  -34.9468   23.5120 C   0  0  0  0  0  0
  -16.5352  -29.9085   23.6323 C   0  0  0  0  0  0
  -16.7267  -28.6501   23.0345 C   0  0  0  0  0  0
  -26.4481  -31.6593   25.0738 C   0  0  0  0  0  0
  -25.3728  -31.3732   26.1478 C   0  0  0  0  0  0
  -27.0311  -30.3023   24.6156 C   0  0  0  0  0  0
  -27.6047  -32.4324   25.7499 C   0  0  0  0  0  0
  -27.5585  -37.1804   24.8452 C   0  0  0  0  0  0
  -21.4163  -29.3044   22.3702 N   0  0  0  0  0  0
  -26.4289  -37.3796   23.9408 N   0  0  0  0  0  0
  -24.6760  -31.0739   22.1004 N   0  0  0  0  0  0
  -23.4194  -28.8186   23.3006 O   0  0  0  0  0  0
  -28.3595  -26.5828   20.1527 O   0  0  0  0  0  0
  -26.5608  -34.8923   22.4685 O   0  0  0  0  0  0
  -23.5375  -32.1444   23.7448 O   0  0  0  0  0  0
  -29.0908  -19.1351   20.1684 C   0  0  0  0  0  0
  -28.9707  -17.7694   20.5338 C   0  0  0  0  0  0
  -31.3804  -17.5837   20.6682 C   0  0  0  0  0  0
  -30.3622  -19.7326   20.0095 C   0  0  0  0  0  0
  -30.1132  -16.9556   20.7366 C   0  0  0  0  0  0
  -31.5037  -18.9450   20.3027 C   0  0  0  0  0  0
  -30.1842  -23.6523   19.5265 C   0  0  0  0  0  0
  -28.9720  -22.7212   20.9235 C   0  0  0  0  0  0
  -29.2518  -24.2142   20.6144 C   0  0  2  0  0  0
  -30.5354  -21.1085   19.3313 C   0  0  0  0  0  0
  -28.1286  -25.1449   20.0870 C   0  0  0  0  0  0
  -29.9804  -22.3447   19.9185 N   0  0  0  0  0  0
  -29.9383  -15.5489   21.0003 N   0  0  0  0  0  0
  -30.8676  -24.1075   18.6314 O   0  0  0  0  0  0
  -32.7440  -19.4776   20.1854 F   0  0  0  0  0  0
  -31.4706  -12.4187   19.1341 H   0  0  0  0  0  0
  -30.3299  -11.3156   19.8469 H   0  0  0  0  0  0
  -29.7457  -11.7697   17.4431 H   0  0  0  0  0  0
  -29.6660  -13.4824   17.7672 H   0  0  0  0  0  0
  -27.8321  -11.3056   18.8252 H   0  0  0  0  0  0
  -27.3712  -12.6286   17.7876 H   0  0  0  0  0  0
  -27.6975  -14.2539   19.5620 H   0  0  0  0  0  0
  -28.6842  -11.9825   21.3567 H   0  0  0  0  0  0
  -28.4638  -13.6285   21.8650 H   0  0  0  0  0  0
  -25.2763   -9.5687   22.4754 H   0  0  0  0  0  0
  -24.0003   -7.4640   22.7472 H   0  0  0  0  0  0
  -21.0838   -8.8779   19.8956 H   0  0  0  0  0  0
  -22.3696  -10.9677   19.6165 H   0  0  0  0  0  0
  -21.2007   -7.6148   23.9714 H   0  0  0  0  0  0
  -21.1480   -6.0524   25.9078 H   0  0  0  0  0  0
  -22.0599   -2.7609   23.2847 H   0  0  0  0  0  0
  -22.4109  -11.9899   22.4790 H   0  0  0  0  0  0
  -21.1126  -13.1275   22.2601 H   0  0  0  0  0  0
  -24.6594  -15.8402   20.4985 H   0  0  0  0  0  0
  -26.2710  -15.6189   20.0428 H   0  0  0  0  0  0
  -26.7138  -32.5497   23.1138 H   0  0  0  0  0  0
  -25.0065  -33.9756   25.0461 H   0  0  0  0  0  0
  -22.6994  -31.3116   21.4144 H   0  0  0  0  0  0
  -23.3754  -35.9643   23.3293 H   0  0  0  0  0  0
  -24.3599  -36.8930   22.2049 H   0  0  0  0  0  0
  -23.7237  -37.6513   23.6654 H   0  0  0  0  0  0
  -26.0759  -31.5840   20.6080 H   0  0  0  0  0  0
  -26.8267  -30.8595   21.9996 H   0  0  0  0  0  0
  -28.1030  -29.0449   21.1812 H   0  0  0  0  0  0
  -25.9841  -25.9791   18.9787 H   0  0  0  0  0  0
  -23.9655  -27.3215   19.0156 H   0  0  0  0  0  0
  -23.7313  -30.6118   19.4085 H   0  0  0  0  0  0
  -22.7389  -29.2603   19.8623 H   0  0  0  0  0  0
  -25.1283  -36.1972   25.0825 H   0  0  0  0  0  0
  -20.9977  -28.3252   24.1414 H   0  0  0  0  0  0
  -20.5683  -26.2279   23.3608 H   0  0  0  0  0  0
  -21.6638  -26.7439   22.1203 H   0  0  0  0  0  0
  -19.6905  -25.6300   21.1216 H   0  0  0  0  0  0
  -19.6668  -27.3206   20.6752 H   0  0  0  0  0  0
  -17.4190  -26.6666   21.4029 H   0  0  0  0  0  0
  -18.0318  -26.0064   22.9024 H   0  0  0  0  0  0
  -19.7937  -30.7257   24.2271 H   0  0  0  0  0  0
  -17.5019  -31.6261   24.5166 H   0  0  0  0  0  0
  -15.5354  -30.2987   23.7652 H   0  0  0  0  0  0
  -15.8665  -28.0825   22.7055 H   0  0  0  0  0  0
  -24.5886  -30.7091   25.7823 H   0  0  0  0  0  0
  -24.8935  -32.2902   26.4918 H   0  0  0  0  0  0
  -25.8066  -30.8908   27.0242 H   0  0  0  0  0  0
  -26.2877  -29.6789   24.1172 H   0  0  0  0  0  0
  -27.4014  -29.7259   25.4642 H   0  0  0  0  0  0
  -27.8744  -30.4318   23.9366 H   0  0  0  0  0  0
  -27.2653  -33.3606   26.2107 H   0  0  0  0  0  0
  -28.3836  -32.6914   25.0316 H   0  0  0  0  0  0
  -28.0738  -31.8435   26.5388 H   0  0  0  0  0  0
  -28.2581  -38.0126   24.7545 H   0  0  0  0  0  0
  -28.1105  -36.2658   24.6221 H   0  0  0  0  0  0
  -27.2312  -37.1381   25.8857 H   0  0  0  0  0  0
  -20.9320  -29.8790   21.6942 H   0  0  0  0  0  0
  -26.0178  -38.2869   24.1438 H   0  0  0  0  0  0
  -28.2004  -19.7053   19.9437 H   0  0  0  0  0  0
  -27.9824  -17.3373   20.6003 H   0  0  0  0  0  0
  -32.2838  -17.0233   20.8572 H   0  0  0  0  0  0
  -27.9584  -22.4001   20.6735 H   0  0  0  0  0  0
  -29.2322  -22.4317   21.9438 H   0  0  0  0  0  0
  -29.7951  -24.6628   21.4460 H   0  0  0  0  0  0
  -30.1140  -21.0127   18.3301 H   0  0  0  0  0  0
  -31.5981  -21.2872   19.1643 H   0  0  0  0  0  0
  -27.2303  -24.9104   20.6603 H   0  0  0  0  0  0
  -27.9019  -24.8855   19.0520 H   0  0  0  0  0  0
  -29.0187  -15.2744   21.3088 H   0  0  0  0  0  0
  1 25  1  0  0  0
  1 30  2  0  0  0
  1 83  1  0  0  0
  2  3  1  0  0  0
  2 25  1  0  0  0
  2 86  1  0  0  0
  2 87  1  0  0  0
  3  4  1  0  0  0
  3 88  1  0  0  0
  3 89  1  0  0  0
  4  5  1  0  0  0
  4 90  1  0  0  0
  4 91  1  0  0  0
  5  6  1  0  0  0
  5 26  1  0  0  0
  5 92  1  0  0  0
  6 25  1  0  0  0
  6 93  1  0  0  0
  6 94  1  0  0  0
  7  8  2  0  0  0
  7 26  1  0  0  0
  7 29  1  0  0  0
  8  9  1  0  0  0
  8 22  1  0  0  0
  9 10  1  0  0  0
  9 27  2  0  0  0
 10 11  2  0  0  0
 10 15  1  0  0  0
 11 12  1  0  0  0
 11 95  1  0  0  0
 12 13  2  0  0  0
 12 96  1  0  0  0
 13 14  1  0  0  0
 13 31  1  0  0  0
 14 15  2  0  0  0
 14 97  1  0  0  0
 15 98  1  0  0  0
 16 17  2  0  0  0
 16 21  1  0  0  0
 16 31  1  0  0  0
 17 18  1  0  0  0
 17 99  1  0  0  0
 18 19  2  0  0  0
 18100  1  0  0  0
 19 20  1  0  0  0
 19 24  1  0  0  0
 20 21  2  0  0  0
 20101  1  0  0  0
 21 23  1  0  0  0
 22 28  1  0  0  0
 22 32  2  0  0  0
 26 27  1  0  0  0
 28102  1  0  0  0
 28103  1  0  0  0
 29104  1  0  0  0
 29105  1  0  0  0
 33 34  1  0  0  0
 33 66  1  0  0  0
 33 70  2  0  0  0
 34 36  1  0  0  0
 34 59  1  0  0  0
 34106  1  0  0  0
 35 44  2  0  0  0
 35 45  1  0  0  0
 35 68  1  0  0  0
 36 56  1  0  0  0
 36107  1  0  0  0
 37 39  1  0  0  0
 37 47  1  0  0  0
 37 66  1  0  0  0
 37108  1  0  0  0
 38 43  2  0  0  0
 38 46  1  0  0  0
 38 47  1  0  0  0
 39 64  1  0  0  0
 39 67  2  0  0  0
 40 52  1  0  0  0
 40 53  2  0  0  0
 40 58  1  0  0  0
 41109  1  0  0  0
 41110  1  0  0  0
 41111  1  0  0  0
 41 48  1  0  0  0
 42 43  1  0  0  0
 42 66  1  0  0  0
 42112  1  0  0  0
 42113  1  0  0  0
 43 44  1  0  0  0
 44114  1  0  0  0
 45 46  2  0  0  0
 45115  1  0  0  0
 46116  1  0  0  0
 47117  1  0  0  0
 47118  1  0  0  0
 48 56  1  0  0  0
 48 65  1  0  0  0
 48119  1  0  0  0
 49 50  1  0  0  0
 49 53  1  0  0  0
 49 64  1  0  0  0
 49120  1  0  0  0
 50 51  1  0  0  0
 50121  1  0  0  0
 50122  1  0  0  0
 51 52  1  0  0  0
 51123  1  0  0  0
 51124  1  0  0  0
 52125  1  0  0  0
 52126  1  0  0  0
 53 54  1  0  0  0
 54 55  2  0  0  0
 54127  1  0  0  0
 55 57  1  0  0  0
 55128  1  0  0  0
 56 69  2  0  0  0
 57 58  2  0  0  0
 57129  1  0  0  0
 58130  1  0  0  0
 59 60  1  0  0  0
 59 61  1  0  0  0
 59 62  1  0  0  0
 60131  1  0  0  0
 60132  1  0  0  0
 60133  1  0  0  0
 61134  1  0  0  0
 61135  1  0  0  0
 61136  1  0  0  0
 62137  1  0  0  0
 62138  1  0  0  0
 62139  1  0  0  0
 63 65  1  0  0  0
 63140  1  0  0  0
 63141  1  0  0  0
 63142  1  0  0  0
 64143  1  0  0  0
 65144  1  0  0  0
 68 81  1  0  0  0
 71 72  2  0  0  0
 71 74  1  0  0  0
 71145  1  0  0  0
 72 75  1  0  0  0
 72146  1  0  0  0
 73 75  2  0  0  0
 73 76  1  0  0  0
 73147  1  0  0  0
 74 76  2  0  0  0
 74 80  1  0  0  0
 75 83  1  0  0  0
 76 85  1  0  0  0
 77 79  1  0  0  0
 77 82  1  0  0  0
 77 84  2  0  0  0
 78 79  1  0  0  0
 78 82  1  0  0  0
 78148  1  0  0  0
 78149  1  0  0  0
 79 81  1  0  0  0
 79150  1  0  0  0
 80 82  1  0  0  0
 80151  1  0  0  0
 80152  1  0  0  0
 81153  1  0  0  0
 81154  1  0  0  0
 83155  1  0  0  0
M  ISO  4   1 100  68 101  81 101  83 100
M  END
> <chiral flag>
0

> <version>
0

> <s_m_source_file>
/data/baiqing/PycharmProjects/Reinvent-master-3.2/result/LINK_invent/BTK/process_docking_weight1_custom_product_contain_oxygen_bond_distance_aromatic_linkinvent_7_9_3/rearranged_h_0015.sdf

> <i_m_source_file_index>
45

> <r_mmod_Potential_Energy-OPLS-2005>
-29.6095962524414

> <r_mmod_Stretch_Energy-OPLS-2005>
46.4473152160645

> <r_mmod_Bend_Energy-OPLS-2005>
111.952415466309

> <r_mmod_Torsional_Energy-OPLS-2005>
236.530364990234

> <r_mmod_Improper_Torsional_Energy-OPLS-2005>
5.87851715087891

> <r_mmod_Van_der_Waal_Energy-OPLS-2005>
150.88330078125

> <r_mmod_Electrostatic_Energy-OPLS-2005>
-367.672637939453

> <r_mmod_Solvation_Energy-OPLS-2005>
-235.670227050781

> <b_mmod_Minimization_Converged-OPLS-2005>
0

> <r_mmod_RMS_Derivative-OPLS-2005>
1.18198025226593

$$$$
45
                    3D
 Structure written by MMmdl.
156165  0  0  1  0            999 V2000
  -30.6537  -14.6526   20.4841 C   0  0  0  0  0  0
  -30.4270  -12.4018   19.4616 C   0  0  0  0  0  0
  -29.5074  -12.5010   18.2262 C   0  0  0  0  0  0
  -28.0306  -12.3400   18.6393 C   0  0  0  0  0  0
  -27.6468  -13.2256   19.8553 C   0  0  2  0  0  0
  -28.6905  -13.1239   20.9885 C   0  0  0  0  0  0
  -25.2537  -13.8204   20.5700 C   0  0  0  0  0  0
  -24.1811  -13.0456   20.9197 C   0  0  0  0  0  0
  -24.6377  -11.6921   20.8730 C   0  0  0  0  0  0
  -23.9047  -10.4308   21.0403 C   0  0  0  0  0  0
  -24.3586   -9.4215   21.9188 C   0  0  0  0  0  0
  -23.6267   -8.2257   22.0762 C   0  0  0  0  0  0
  -22.4253   -8.0292   21.3550 C   0  0  0  0  0  0
  -21.9890   -9.0264   20.4654 C   0  0  0  0  0  0
  -22.7220  -10.2145   20.3056 C   0  0  0  0  0  0
  -21.6860   -6.0723   22.5277 C   0  0  0  0  0  0
  -21.4024   -6.5616   23.8208 C   0  0  0  0  0  0
  -21.3657   -5.6768   24.9174 C   0  0  0  0  0  0
  -21.6040   -4.3034   24.7215 C   0  0  0  0  0  0
  -21.8819   -3.8135   23.4335 C   0  0  0  0  0  0
  -21.9197   -4.6954   22.3388 C   0  0  0  0  0  0
  -22.7827  -13.5265   21.1820 C   0  0  0  0  0  0
  -22.1658   -4.2143   21.0972 F   0  0  0  0  0  0
  -21.5624   -3.4511   25.7718 F   0  0  0  0  0  0
  -30.0019  -13.4488   20.4134 N   0  0  0  0  0  0
  -26.2954  -12.9385   20.3284 N   0  0  0  0  0  0
  -25.9310  -11.6534   20.5734 N   0  0  0  0  0  0
  -22.0423  -12.8299   22.0358 N   0  0  0  0  0  0
  -25.4247  -15.1927   20.4088 N   0  0  0  0  0  0
  -31.8324  -14.7518   20.1337 O   0  0  0  0  0  0
  -21.6643   -6.8868   21.4241 O   0  0  0  0  0  0
  -22.3526  -14.5562   20.6636 O   0  0  0  0  0  0
  -24.6250  -31.8601   23.2022 C   0  0  0  0  0  0
  -25.9089  -32.4796   23.8360 C   0  0  1  0  0  0
  -27.2402  -27.3300   20.1321 C   0  0  0  0  0  0
  -25.5922  -33.8589   24.2304 N   0  0  0  0  0  0
  -23.4217  -30.4796   21.5435 C   0  0  2  0  0  0
  -24.8774  -28.9341   20.1114 C   0  0  0  0  0  0
  -22.7483  -29.4606   22.4936 C   0  0  0  0  0  0
  -18.0284  -28.1373   22.8497 C   0  0  0  0  0  0
  -24.1472  -36.7283   23.2635 C   0  0  0  0  0  0
  -25.9600  -30.7957   21.3714 C   0  0  0  0  0  0
  -26.0420  -29.4201   20.7212 C   0  0  0  0  0  0
  -27.2287  -28.6290   20.7250 C   0  0  0  0  0  0
  -26.0621  -26.8959   19.4898 C   0  0  0  0  0  0
  -24.8889  -27.6769   19.4848 C   0  0  0  0  0  0
  -23.6404  -29.8085   20.1603 C   0  0  0  0  0  0
  -25.4100  -36.3086   24.0332 C   0  0  1  0  0  0
  -20.5888  -28.3670   23.1302 C   0  0  2  0  0  0
  -20.6768  -26.9396   22.5415 C   0  0  0  0  0  0
  -19.5744  -26.6380   21.5209 C   0  0  0  0  0  0
  -18.1927  -26.7925   22.1623 C   0  0  0  0  0  0
  -19.1538  -28.8842   23.2892 C   0  0  0  0  0  0
  -18.9459  -30.1457   23.8877 C   0  0  0  0  0  0
  -17.6457  -30.6588   24.0540 C   0  0  0  0  0  0
  -25.9036  -34.9464   23.5119 C   0  0  0  0  0  0
  -16.5345  -29.9076   23.6328 C   0  0  0  0  0  0
  -16.7270  -28.6490   23.0356 C   0  0  0  0  0  0
  -26.4482  -31.6595   25.0722 C   0  0  0  0  0  0
  -25.3738  -31.3759   26.1473 C   0  0  0  0  0  0
  -27.0300  -30.3024   24.6138 C   0  0  0  0  0  0
  -27.6057  -32.4305   25.7489 C   0  0  0  0  0  0
  -27.5580  -37.1795   24.8454 C   0  0  0  0  0  0
  -21.4187  -29.3040   22.3709 N   0  0  0  0  0  0
  -26.4273  -37.3791   23.9422 N   0  0  0  0  0  0
  -24.6874  -31.0602   22.0972 N   0  0  0  0  0  0
  -23.4213  -28.8145   23.3009 O   0  0  0  0  0  0
  -28.3238  -26.4441   20.1668 O   0  0  0  0  0  0
  -26.5576  -34.8929   22.4665 O   0  0  0  0  0  0
  -23.5405  -32.1379   23.7342 O   0  0  0  0  0  0
  -29.9636  -23.4432   21.3179 C   0  0  0  0  0  0
  -27.9548  -22.8025   20.1765 C   0  0  0  0  0  0
  -30.3722  -22.0755   21.3468 C   0  0  0  0  0  0
  -28.3670  -21.4317   20.2053 C   0  0  0  0  0  0
  -28.7242  -23.8482   20.7584 C   0  0  0  0  0  0
  -29.5770  -21.0131   20.8227 C   0  0  0  0  0  0
  -31.1038  -17.7116   21.8931 C   0  0  0  0  0  0
  -31.1342  -19.2483   21.7636 C   0  0  0  0  0  0
  -29.3593  -18.3928   20.4026 C   0  0  0  0  0  0
  -30.3952  -17.2119   20.6270 C   0  0  2  0  0  0
  -28.1123  -25.2755   21.0434 C   0  0  0  0  0  0
  -29.9780  -19.6302   20.9540 N   0  0  0  0  0  0
  -29.9168  -15.7833   20.7439 N   0  0  0  0  0  0
  -31.4702  -12.5117   19.1597 H   0  0  0  0  0  0
  -30.3502  -11.4160   19.9240 H   0  0  0  0  0  0
  -29.7794  -11.7390   17.4950 H   0  0  0  0  0  0
  -29.6530  -13.4634   17.7316 H   0  0  0  0  0  0
  -27.8704  -11.2896   18.8850 H   0  0  0  0  0  0
  -27.3776  -12.5565   17.7936 H   0  0  0  0  0  0
  -27.6561  -14.2535   19.4946 H   0  0  0  0  0  0
  -28.7048  -12.1192   21.4123 H   0  0  0  0  0  0
  -28.4372  -13.7978   21.8089 H   0  0  0  0  0  0
  -25.2734   -9.5707   22.4756 H   0  0  0  0  0  0
  -23.9972   -7.4664   22.7497 H   0  0  0  0  0  0
  -21.0817   -8.8799   19.8970 H   0  0  0  0  0  0
  -22.3691  -10.9674   19.6149 H   0  0  0  0  0  0
  -21.2028   -7.6124   23.9705 H   0  0  0  0  0  0
  -21.1469   -6.0499   25.9074 H   0  0  0  0  0  0
  -22.0601   -2.7603   23.2830 H   0  0  0  0  0  0
  -22.3941  -11.9933   22.4778 H   0  0  0  0  0  0
  -21.1057  -13.1416   22.2504 H   0  0  0  0  0  0
  -24.6575  -15.8483   20.5150 H   0  0  0  0  0  0
  -26.2711  -15.6292   20.0651 H   0  0  0  0  0  0
  -26.7159  -32.5488   23.1109 H   0  0  0  0  0  0
  -25.0153  -33.9729   25.0513 H   0  0  0  0  0  0
  -22.7145  -31.2992   21.3985 H   0  0  0  0  0  0
  -23.3760  -35.9586   23.3251 H   0  0  0  0  0  0
  -24.3578  -36.8937   22.2060 H   0  0  0  0  0  0
  -23.7187  -37.6463   23.6666 H   0  0  0  0  0  0
  -26.0789  -31.5555   20.5971 H   0  0  0  0  0  0
  -26.8445  -30.8567   21.9934 H   0  0  0  0  0  0
  -28.1192  -28.9957   21.2175 H   0  0  0  0  0  0
  -26.0490  -25.9283   19.0090 H   0  0  0  0  0  0
  -23.9988  -27.2994   19.0006 H   0  0  0  0  0  0
  -23.7543  -30.5816   19.3997 H   0  0  0  0  0  0
  -22.7657  -29.2275   19.8636 H   0  0  0  0  0  0
  -25.1279  -36.1930   25.0822 H   0  0  0  0  0  0
  -20.9990  -28.3213   24.1419 H   0  0  0  0  0  0
  -20.5682  -26.2271   23.3606 H   0  0  0  0  0  0
  -21.6632  -26.7430   22.1211 H   0  0  0  0  0  0
  -19.6905  -25.6293   21.1238 H   0  0  0  0  0  0
  -19.6696  -27.3188   20.6733 H   0  0  0  0  0  0
  -17.4228  -26.6707   21.3990 H   0  0  0  0  0  0
  -18.0288  -26.0046   22.8993 H   0  0  0  0  0  0
  -19.7933  -30.7285   24.2231 H   0  0  0  0  0  0
  -17.5006  -31.6265   24.5136 H   0  0  0  0  0  0
  -15.5344  -30.2966   23.7660 H   0  0  0  0  0  0
  -15.8670  -28.0800   22.7075 H   0  0  0  0  0  0
  -24.5811  -30.7226   25.7809 H   0  0  0  0  0  0
  -24.9047  -32.2957   26.4983 H   0  0  0  0  0  0
  -25.8055  -30.8847   27.0207 H   0  0  0  0  0  0
  -26.2861  -29.6810   24.1139 H   0  0  0  0  0  0
  -27.4004  -29.7236   25.4612 H   0  0  0  0  0  0
  -27.8725  -30.4331   23.9339 H   0  0  0  0  0  0
  -27.2697  -33.3636   26.2020 H   0  0  0  0  0  0
  -28.3892  -32.6814   25.0328 H   0  0  0  0  0  0
  -28.0679  -31.8444   26.5441 H   0  0  0  0  0  0
  -28.2571  -38.0121   24.7538 H   0  0  0  0  0  0
  -28.1090  -36.2652   24.6205 H   0  0  0  0  0  0
  -27.2304  -37.1372   25.8855 H   0  0  0  0  0  0
  -20.9360  -29.8800   21.6953 H   0  0  0  0  0  0
  -26.0145  -38.2860   24.1433 H   0  0  0  0  0  0
  -30.5893  -24.1782   21.8045 H   0  0  0  0  0  0
  -26.9879  -23.0419   19.7547 H   0  0  0  0  0  0
  -31.3128  -21.8580   21.8305 H   0  0  0  0  0  0
  -27.7042  -20.6880   19.7860 H   0  0  0  0  0  0
  -30.5239  -17.4400   22.7764 H   0  0  0  0  0  0
  -32.1021  -17.2886   22.0184 H   0  0  0  0  0  0
  -32.0442  -19.5647   21.2518 H   0  0  0  0  0  0
  -31.1196  -19.7178   22.7498 H   0  0  0  0  0  0
  -28.4232  -18.1962   20.9292 H   0  0  0  0  0  0
  -29.1238  -18.5167   19.3443 H   0  0  0  0  0  0
  -31.1076  -17.2607   19.8016 H   0  0  0  0  0  0
  -28.4916  -25.5795   22.0194 H   0  0  0  0  0  0
  -27.0474  -25.1149   21.2162 H   0  0  0  0  0  0
  -28.9415  -15.6410   20.9613 H   0  0  0  0  0  0
  1 25  1  0  0  0
  1 30  2  0  0  0
  1 83  1  0  0  0
  2  3  1  0  0  0
  2 25  1  0  0  0
  2 84  1  0  0  0
  2 85  1  0  0  0
  3  4  1  0  0  0
  3 86  1  0  0  0
  3 87  1  0  0  0
  4  5  1  0  0  0
  4 88  1  0  0  0
  4 89  1  0  0  0
  5  6  1  0  0  0
  5 26  1  0  0  0
  5 90  1  0  0  0
  6 25  1  0  0  0
  6 91  1  0  0  0
  6 92  1  0  0  0
  7  8  2  0  0  0
  7 26  1  0  0  0
  7 29  1  0  0  0
  8  9  1  0  0  0
  8 22  1  0  0  0
  9 10  1  0  0  0
  9 27  2  0  0  0
 10 11  2  0  0  0
 10 15  1  0  0  0
 11 12  1  0  0  0
 11 93  1  0  0  0
 12 13  2  0  0  0
 12 94  1  0  0  0
 13 14  1  0  0  0
 13 31  1  0  0  0
 14 15  2  0  0  0
 14 95  1  0  0  0
 15 96  1  0  0  0
 16 17  2  0  0  0
 16 21  1  0  0  0
 16 31  1  0  0  0
 17 18  1  0  0  0
 17 97  1  0  0  0
 18 19  2  0  0  0
 18 98  1  0  0  0
 19 20  1  0  0  0
 19 24  1  0  0  0
 20 21  2  0  0  0
 20 99  1  0  0  0
 21 23  1  0  0  0
 22 28  1  0  0  0
 22 32  2  0  0  0
 26 27  1  0  0  0
 28100  1  0  0  0
 28101  1  0  0  0
 29102  1  0  0  0
 29103  1  0  0  0
 33 34  1  0  0  0
 33 66  1  0  0  0
 33 70  2  0  0  0
 34 36  1  0  0  0
 34 59  1  0  0  0
 34104  1  0  0  0
 35 44  2  0  0  0
 35 45  1  0  0  0
 35 68  1  0  0  0
 36 56  1  0  0  0
 36105  1  0  0  0
 37 39  1  0  0  0
 37 47  1  0  0  0
 37 66  1  0  0  0
 37106  1  0  0  0
 38 43  2  0  0  0
 38 46  1  0  0  0
 38 47  1  0  0  0
 39 64  1  0  0  0
 39 67  2  0  0  0
 40 52  1  0  0  0
 40 53  2  0  0  0
 40 58  1  0  0  0
 41107  1  0  0  0
 41108  1  0  0  0
 41109  1  0  0  0
 41 48  1  0  0  0
 42 43  1  0  0  0
 42 66  1  0  0  0
 42110  1  0  0  0
 42111  1  0  0  0
 43 44  1  0  0  0
 44112  1  0  0  0
 45 46  2  0  0  0
 45113  1  0  0  0
 46114  1  0  0  0
 47115  1  0  0  0
 47116  1  0  0  0
 48 56  1  0  0  0
 48 65  1  0  0  0
 48117  1  0  0  0
 49 50  1  0  0  0
 49 53  1  0  0  0
 49 64  1  0  0  0
 49118  1  0  0  0
 50 51  1  0  0  0
 50119  1  0  0  0
 50120  1  0  0  0
 51 52  1  0  0  0
 51121  1  0  0  0
 51122  1  0  0  0
 52123  1  0  0  0
 52124  1  0  0  0
 53 54  1  0  0  0
 54 55  2  0  0  0
 54125  1  0  0  0
 55 57  1  0  0  0
 55126  1  0  0  0
 56 69  2  0  0  0
 57 58  2  0  0  0
 57127  1  0  0  0
 58128  1  0  0  0
 59 60  1  0  0  0
 59 61  1  0  0  0
 59 62  1  0  0  0
 60129  1  0  0  0
 60130  1  0  0  0
 60131  1  0  0  0
 61132  1  0  0  0
 61133  1  0  0  0
 61134  1  0  0  0
 62135  1  0  0  0
 62136  1  0  0  0
 62137  1  0  0  0
 63 65  1  0  0  0
 63138  1  0  0  0
 63139  1  0  0  0
 63140  1  0  0  0
 64141  1  0  0  0
 65142  1  0  0  0
 68 81  1  0  0  0
 71 73  2  0  0  0
 71 75  1  0  0  0
 71143  1  0  0  0
 72 74  1  0  0  0
 72 75  2  0  0  0
 72144  1  0  0  0
 73 76  1  0  0  0
 73145  1  0  0  0
 74 76  2  0  0  0
 74146  1  0  0  0
 75 81  1  0  0  0
 76 82  1  0  0  0
 77 78  1  0  0  0
 77 80  1  0  0  0
 77147  1  0  0  0
 77148  1  0  0  0
 78 82  1  0  0  0
 78149  1  0  0  0
 78150  1  0  0  0
 79 80  1  0  0  0
 79 82  1  0  0  0
 79151  1  0  0  0
 79152  1  0  0  0
 80 83  1  0  0  0
 80153  1  0  0  0
 81154  1  0  0  0
 81155  1  0  0  0
 83156  1  0  0  0
M  ISO  4   1 100  68 101  81 101  83 100
M  END
> <chiral flag>
0

> <version>
0

> <s_m_source_file>
/data/baiqing/PycharmProjects/Reinvent-master-3.2/result/LINK_invent/BTK/process_docking_weight1_custom_product_contain_oxygen_bond_distance_aromatic_linkinvent_7_9_3/rearranged_h_0015.sdf

> <i_m_source_file_index>
46

> <r_mmod_Potential_Energy-OPLS-2005>
112.866790771484

> <r_mmod_Stretch_Energy-OPLS-2005>
77.4251022338867

> <r_mmod_Bend_Energy-OPLS-2005>
183.198394775391

> <r_mmod_Torsional_Energy-OPLS-2005>
280.733734130859

> <r_mmod_Improper_Torsional_Energy-OPLS-2005>
6.76999664306641

> <r_mmod_Van_der_Waal_Energy-OPLS-2005>
138.610626220703

> <r_mmod_Electrostatic_Energy-OPLS-2005>
-397.927917480469

> <r_mmod_Solvation_Energy-OPLS-2005>
-229.058486938477

> <b_mmod_Minimization_Converged-OPLS-2005>
0

> <r_mmod_RMS_Derivative-OPLS-2005>
2.76247310638428

$$$$
46
                    3D
 Structure written by MMmdl.
155163  0  0  1  0            999 V2000
  -30.6283  -14.6324   20.4788 C   0  0  0  0  0  0
  -30.4311  -12.3864   19.4384 C   0  0  0  0  0  0
  -29.5057  -12.5312   18.2119 C   0  0  0  0  0  0
  -28.0266  -12.3677   18.6169 C   0  0  0  0  0  0
  -27.6535  -13.2198   19.8587 C   0  0  2  0  0  0
  -28.6995  -13.0701   20.9860 C   0  0  0  0  0  0
  -25.2586  -13.8186   20.5640 C   0  0  0  0  0  0
  -24.1850  -13.0445   20.9154 C   0  0  0  0  0  0
  -24.6415  -11.6910   20.8695 C   0  0  0  0  0  0
  -23.9079  -10.4290   21.0370 C   0  0  0  0  0  0
  -24.3649   -9.4202   21.9150 C   0  0  0  0  0  0
  -23.6320   -8.2243   22.0743 C   0  0  0  0  0  0
  -22.4299   -8.0269   21.3538 C   0  0  0  0  0  0
  -21.9915   -9.0248   20.4635 C   0  0  0  0  0  0
  -22.7254  -10.2116   20.3025 C   0  0  0  0  0  0
  -21.6857   -6.0720   22.5274 C   0  0  0  0  0  0
  -21.4019   -6.5624   23.8210 C   0  0  0  0  0  0
  -21.3665   -5.6786   24.9171 C   0  0  0  0  0  0
  -21.6055   -4.3052   24.7231 C   0  0  0  0  0  0
  -21.8819   -3.8133   23.4352 C   0  0  0  0  0  0
  -21.9205   -4.6942   22.3400 C   0  0  0  0  0  0
  -22.7875  -13.5212   21.1808 C   0  0  0  0  0  0
  -22.1659   -4.2123   21.0978 F   0  0  0  0  0  0
  -21.5638   -3.4539   25.7741 F   0  0  0  0  0  0
  -30.0176  -13.4073   20.4241 N   0  0  0  0  0  0
  -26.3009  -12.9362   20.3286 N   0  0  0  0  0  0
  -25.9351  -11.6511   20.5726 N   0  0  0  0  0  0
  -22.0528  -12.8215   22.0384 N   0  0  0  0  0  0
  -25.4322  -15.1913   20.4048 N   0  0  0  0  0  0
  -31.7964  -14.7729   20.1125 O   0  0  0  0  0  0
  -21.6658   -6.8867   21.4242 O   0  0  0  0  0  0
  -22.3530  -14.5502   20.6637 O   0  0  0  0  0  0
  -24.6239  -31.8629   23.2037 C   0  0  0  0  0  0
  -25.9096  -32.4789   23.8370 C   0  0  1  0  0  0
  -27.2308  -27.3375   20.1139 C   0  0  0  0  0  0
  -25.5910  -33.8583   24.2291 N   0  0  0  0  0  0
  -23.4179  -30.4849   21.5488 C   0  0  2  0  0  0
  -24.8655  -28.9488   20.1082 C   0  0  0  0  0  0
  -22.7470  -29.4634   22.4983 C   0  0  0  0  0  0
  -18.0279  -28.1390   22.8476 C   0  0  0  0  0  0
  -24.1486  -36.7308   23.2639 C   0  0  0  0  0  0
  -25.9586  -30.7995   21.3748 C   0  0  0  0  0  0
  -26.0345  -29.4308   20.7117 C   0  0  0  0  0  0
  -27.2210  -28.6395   20.7010 C   0  0  0  0  0  0
  -26.0374  -26.9098   19.4847 C   0  0  0  0  0  0
  -24.8710  -27.6946   19.4804 C   0  0  0  0  0  0
  -23.6282  -29.8214   20.1635 C   0  0  0  0  0  0
  -25.4113  -36.3100   24.0335 C   0  0  1  0  0  0
  -20.5868  -28.3679   23.1299 C   0  0  2  0  0  0
  -20.6770  -26.9410   22.5416 C   0  0  0  0  0  0
  -19.5758  -26.6385   21.5209 C   0  0  0  0  0  0
  -18.1931  -26.7933   22.1613 C   0  0  0  0  0  0
  -19.1524  -28.8861   23.2873 C   0  0  0  0  0  0
  -18.9451  -30.1468   23.8887 C   0  0  0  0  0  0
  -17.6448  -30.6590   24.0563 C   0  0  0  0  0  0
  -25.9047  -34.9460   23.5113 C   0  0  0  0  0  0
  -16.5336  -29.9080   23.6330 C   0  0  0  0  0  0
  -16.7268  -28.6498   23.0342 C   0  0  0  0  0  0
  -26.4472  -31.6593   25.0746 C   0  0  0  0  0  0
  -25.3684  -31.3723   26.1455 C   0  0  0  0  0  0
  -27.0326  -30.3020   24.6220 C   0  0  0  0  0  0
  -27.6046  -32.4319   25.7502 C   0  0  0  0  0  0
  -27.5584  -37.1801   24.8454 C   0  0  0  0  0  0
  -21.4186  -29.3029   22.3702 N   0  0  0  0  0  0
  -26.4297  -37.3787   23.9399 N   0  0  0  0  0  0
  -24.6851  -31.0645   22.0991 N   0  0  0  0  0  0
  -23.4193  -28.8181   23.3074 O   0  0  0  0  0  0
  -28.3496  -26.4908   20.1695 O   0  0  0  0  0  0
  -26.5627  -34.8925   22.4688 O   0  0  0  0  0  0
  -23.5405  -32.1434   23.7364 O   0  0  0  0  0  0
  -28.9939  -19.4130   21.1185 C   0  0  0  0  0  0
  -29.0631  -18.0022   21.3497 C   0  0  0  0  0  0
  -30.6136  -19.1702   19.3730 C   0  0  0  0  0  0
  -29.7557  -20.0460   20.1015 C   0  0  0  0  0  0
  -29.9002  -17.1310   20.5953 C   0  0  0  0  0  0
  -30.6810  -17.7627   19.5890 C   0  0  0  0  0  0
  -29.8426  -21.7343   18.3447 C   0  0  0  0  0  0
  -29.2595  -23.9933   20.3837 C   0  0  0  0  0  0
  -28.8260  -22.4566   20.4922 C   0  0  0  0  0  0
  -28.1003  -25.0356   20.0974 C   0  0  0  0  0  0
  -29.8299  -15.6859   20.8410 N   0  0  0  0  0  0
  -29.6733  -21.4547   19.7748 N   0  0  0  0  0  0
  -31.4852  -17.0374   18.7770 F   0  0  0  0  0  0
  -31.4729  -12.5023   19.1357 H   0  0  0  0  0  0
  -30.3482  -11.3842   19.8603 H   0  0  0  0  0  0
  -29.7716  -11.8079   17.4416 H   0  0  0  0  0  0
  -29.6538  -13.5167   17.7654 H   0  0  0  0  0  0
  -27.8511  -11.3115   18.8201 H   0  0  0  0  0  0
  -27.3790  -12.6295   17.7789 H   0  0  0  0  0  0
  -27.6691  -14.2575   19.5296 H   0  0  0  0  0  0
  -28.7081  -12.0477   21.3662 H   0  0  0  0  0  0
  -28.4488  -13.7074   21.8354 H   0  0  0  0  0  0
  -25.2794   -9.5683   22.4727 H   0  0  0  0  0  0
  -24.0021   -7.4632   22.7460 H   0  0  0  0  0  0
  -21.0836   -8.8774   19.8950 H   0  0  0  0  0  0
  -22.3712  -10.9661   19.6128 H   0  0  0  0  0  0
  -21.2012   -7.6131   23.9706 H   0  0  0  0  0  0
  -21.1487   -6.0510   25.9076 H   0  0  0  0  0  0
  -22.0606   -2.7589   23.2870 H   0  0  0  0  0  0
  -22.4160  -11.9903   22.4817 H   0  0  0  0  0  0
  -21.1137  -13.1216   22.2540 H   0  0  0  0  0  0
  -24.6710  -15.8558   20.5049 H   0  0  0  0  0  0
  -26.2887  -15.6263   20.0868 H   0  0  0  0  0  0
  -26.7177  -32.5472   23.1129 H   0  0  0  0  0  0
  -25.0009  -33.9713   25.0399 H   0  0  0  0  0  0
  -22.7103  -31.3052   21.4100 H   0  0  0  0  0  0
  -23.3758  -35.9630   23.3292 H   0  0  0  0  0  0
  -24.3591  -36.8939   22.2061 H   0  0  0  0  0  0
  -23.7221  -37.6496   23.6669 H   0  0  0  0  0  0
  -26.0940  -31.5715   20.6156 H   0  0  0  0  0  0
  -26.8355  -30.8398   22.0088 H   0  0  0  0  0  0
  -28.1178  -29.0094   21.1768 H   0  0  0  0  0  0
  -25.9747  -25.9546   18.9872 H   0  0  0  0  0  0
  -23.9830  -27.3185   18.9914 H   0  0  0  0  0  0
  -23.7307  -30.6003   19.4077 H   0  0  0  0  0  0
  -22.7499  -29.2421   19.8692 H   0  0  0  0  0  0
  -25.1287  -36.1965   25.0830 H   0  0  0  0  0  0
  -20.9955  -28.3260   24.1420 H   0  0  0  0  0  0
  -20.5680  -26.2287   23.3612 H   0  0  0  0  0  0
  -21.6637  -26.7460   22.1197 H   0  0  0  0  0  0
  -19.6915  -25.6297   21.1242 H   0  0  0  0  0  0
  -19.6706  -27.3187   20.6742 H   0  0  0  0  0  0
  -17.4203  -26.6682   21.4014 H   0  0  0  0  0  0
  -18.0333  -26.0080   22.9016 H   0  0  0  0  0  0
  -19.7926  -30.7285   24.2245 H   0  0  0  0  0  0
  -17.4998  -31.6265   24.5166 H   0  0  0  0  0  0
  -15.5334  -30.2968   23.7674 H   0  0  0  0  0  0
  -15.8668  -28.0819   22.7056 H   0  0  0  0  0  0
  -24.5858  -30.7092   25.7746 H   0  0  0  0  0  0
  -24.8870  -32.2881   26.4902 H   0  0  0  0  0  0
  -25.7976  -30.8859   27.0225 H   0  0  0  0  0  0
  -26.2924  -29.6767   24.1225 H   0  0  0  0  0  0
  -27.3988  -29.7288   25.4746 H   0  0  0  0  0  0
  -27.8800  -30.4306   23.9485 H   0  0  0  0  0  0
  -27.2686  -33.3620   26.2104 H   0  0  0  0  0  0
  -28.3838  -32.6881   25.0302 H   0  0  0  0  0  0
  -28.0752  -31.8432   26.5389 H   0  0  0  0  0  0
  -28.2583  -38.0116   24.7530 H   0  0  0  0  0  0
  -28.1102  -36.2649   24.6244 H   0  0  0  0  0  0
  -27.2312  -37.1403   25.8858 H   0  0  0  0  0  0
  -20.9376  -29.8733   21.6883 H   0  0  0  0  0  0
  -26.0194  -38.2867   24.1397 H   0  0  0  0  0  0
  -28.3158  -19.9939   21.7297 H   0  0  0  0  0  0
  -28.4383  -17.5846   22.1269 H   0  0  0  0  0  0
  -31.2446  -19.5680   18.5932 H   0  0  0  0  0  0
  -30.8873  -21.9463   18.1094 H   0  0  0  0  0  0
  -29.2546  -22.6007   18.0340 H   0  0  0  0  0  0
  -29.5070  -20.9083   17.7132 H   0  0  0  0  0  0
  -30.0298  -24.1201   19.6229 H   0  0  0  0  0  0
  -29.7540  -24.2719   21.3160 H   0  0  0  0  0  0
  -27.8059  -22.3549   20.1191 H   0  0  0  0  0  0
  -28.7717  -22.1925   21.5480 H   0  0  0  0  0  0
  -27.2768  -24.7976   20.7746 H   0  0  0  0  0  0
  -27.7518  -24.8033   19.0903 H   0  0  0  0  0  0
  -28.9630  -15.3833   21.2575 H   0  0  0  0  0  0
  1 25  1  0  0  0
  1 30  2  0  0  0
  1 81  1  0  0  0
  2  3  1  0  0  0
  2 25  1  0  0  0
  2 84  1  0  0  0
  2 85  1  0  0  0
  3  4  1  0  0  0
  3 86  1  0  0  0
  3 87  1  0  0  0
  4  5  1  0  0  0
  4 88  1  0  0  0
  4 89  1  0  0  0
  5  6  1  0  0  0
  5 26  1  0  0  0
  5 90  1  0  0  0
  6 25  1  0  0  0
  6 91  1  0  0  0
  6 92  1  0  0  0
  7  8  2  0  0  0
  7 26  1  0  0  0
  7 29  1  0  0  0
  8  9  1  0  0  0
  8 22  1  0  0  0
  9 10  1  0  0  0
  9 27  2  0  0  0
 10 11  2  0  0  0
 10 15  1  0  0  0
 11 12  1  0  0  0
 11 93  1  0  0  0
 12 13  2  0  0  0
 12 94  1  0  0  0
 13 14  1  0  0  0
 13 31  1  0  0  0
 14 15  2  0  0  0
 14 95  1  0  0  0
 15 96  1  0  0  0
 16 17  2  0  0  0
 16 21  1  0  0  0
 16 31  1  0  0  0
 17 18  1  0  0  0
 17 97  1  0  0  0
 18 19  2  0  0  0
 18 98  1  0  0  0
 19 20  1  0  0  0
 19 24  1  0  0  0
 20 21  2  0  0  0
 20 99  1  0  0  0
 21 23  1  0  0  0
 22 28  1  0  0  0
 22 32  2  0  0  0
 26 27  1  0  0  0
 28100  1  0  0  0
 28101  1  0  0  0
 29102  1  0  0  0
 29103  1  0  0  0
 33 34  1  0  0  0
 33 66  1  0  0  0
 33 70  2  0  0  0
 34 36  1  0  0  0
 34 59  1  0  0  0
 34104  1  0  0  0
 35 44  2  0  0  0
 35 45  1  0  0  0
 35 68  1  0  0  0
 36 56  1  0  0  0
 36105  1  0  0  0
 37 39  1  0  0  0
 37 47  1  0  0  0
 37 66  1  0  0  0
 37106  1  0  0  0
 38 43  2  0  0  0
 38 46  1  0  0  0
 38 47  1  0  0  0
 39 64  1  0  0  0
 39 67  2  0  0  0
 40 52  1  0  0  0
 40 53  2  0  0  0
 40 58  1  0  0  0
 41107  1  0  0  0
 41108  1  0  0  0
 41109  1  0  0  0
 41 48  1  0  0  0
 42 43  1  0  0  0
 42 66  1  0  0  0
 42110  1  0  0  0
 42111  1  0  0  0
 43 44  1  0  0  0
 44112  1  0  0  0
 45 46  2  0  0  0
 45113  1  0  0  0
 46114  1  0  0  0
 47115  1  0  0  0
 47116  1  0  0  0
 48 56  1  0  0  0
 48 65  1  0  0  0
 48117  1  0  0  0
 49 50  1  0  0  0
 49 53  1  0  0  0
 49 64  1  0  0  0
 49118  1  0  0  0
 50 51  1  0  0  0
 50119  1  0  0  0
 50120  1  0  0  0
 51 52  1  0  0  0
 51121  1  0  0  0
 51122  1  0  0  0
 52123  1  0  0  0
 52124  1  0  0  0
 53 54  1  0  0  0
 54 55  2  0  0  0
 54125  1  0  0  0
 55 57  1  0  0  0
 55126  1  0  0  0
 56 69  2  0  0  0
 57 58  2  0  0  0
 57127  1  0  0  0
 58128  1  0  0  0
 59 60  1  0  0  0
 59 61  1  0  0  0
 59 62  1  0  0  0
 60129  1  0  0  0
 60130  1  0  0  0
 60131  1  0  0  0
 61132  1  0  0  0
 61133  1  0  0  0
 61134  1  0  0  0
 62135  1  0  0  0
 62136  1  0  0  0
 62137  1  0  0  0
 63 65  1  0  0  0
 63138  1  0  0  0
 63139  1  0  0  0
 63140  1  0  0  0
 64141  1  0  0  0
 65142  1  0  0  0
 68 80  1  0  0  0
 71 72  2  0  0  0
 71 74  1  0  0  0
 71143  1  0  0  0
 72 75  1  0  0  0
 72144  1  0  0  0
 73 74  2  0  0  0
 73 76  1  0  0  0
 73145  1  0  0  0
 74 82  1  0  0  0
 75 76  2  0  0  0
 75 81  1  0  0  0
 76 83  1  0  0  0
 77 82  1  0  0  0
 77146  1  0  0  0
 77147  1  0  0  0
 77148  1  0  0  0
 78 79  1  0  0  0
 78 80  1  0  0  0
 78149  1  0  0  0
 78150  1  0  0  0
 79 82  1  0  0  0
 79151  1  0  0  0
 79152  1  0  0  0
 80153  1  0  0  0
 80154  1  0  0  0
 81155  1  0  0  0
M  ISO  4   1 100  68 101  80 101  81 100
M  END
> <chiral flag>
0

> <version>
0

> <s_m_source_file>
/data/baiqing/PycharmProjects/Reinvent-master-3.2/result/LINK_invent/BTK/process_docking_weight1_custom_product_contain_oxygen_bond_distance_aromatic_linkinvent_7_9_3/rearranged_h_0015.sdf

> <i_m_source_file_index>
47

> <r_mmod_Potential_Energy-OPLS-2005>
32.3138389587402

> <r_mmod_Stretch_Energy-OPLS-2005>
79.0290222167969

> <r_mmod_Bend_Energy-OPLS-2005>
145.368286132812

> <r_mmod_Torsional_Energy-OPLS-2005>
223.43359375

> <r_mmod_Improper_Torsional_Energy-OPLS-2005>
5.92296504974365

> <r_mmod_Van_der_Waal_Energy-OPLS-2005>
158.602645874023

> <r_mmod_Electrostatic_Energy-OPLS-2005>
-388.854034423828

> <r_mmod_Solvation_Energy-OPLS-2005>
-235.412231445312

> <b_mmod_Minimization_Converged-OPLS-2005>
0

> <r_mmod_RMS_Derivative-OPLS-2005>
3.11085104942322

$$$$
47
                    3D
 Structure written by MMmdl.
151159  0  0  1  0            999 V2000
  -30.5881  -14.7565   20.5123 C   0  0  0  0  0  0
  -30.4376  -12.4787   19.4763 C   0  0  0  0  0  0
  -29.5137  -12.5066   18.2369 C   0  0  0  0  0  0
  -28.0399  -12.3141   18.6469 C   0  0  0  0  0  0
  -27.6340  -13.2218   19.8409 C   0  0  2  0  0  0
  -28.6731  -13.1578   20.9773 C   0  0  0  0  0  0
  -25.2504  -13.8181   20.5722 C   0  0  0  0  0  0
  -24.1773  -13.0413   20.9210 C   0  0  0  0  0  0
  -24.6336  -11.6899   20.8705 C   0  0  0  0  0  0
  -23.9026  -10.4278   21.0385 C   0  0  0  0  0  0
  -24.3601   -9.4215   21.9171 C   0  0  0  0  0  0
  -23.6292   -8.2251   22.0747 C   0  0  0  0  0  0
  -22.4267   -8.0288   21.3555 C   0  0  0  0  0  0
  -21.9903   -9.0243   20.4653 C   0  0  0  0  0  0
  -22.7208  -10.2123   20.3053 C   0  0  0  0  0  0
  -21.6852   -6.0747   22.5277 C   0  0  0  0  0  0
  -21.4004   -6.5640   23.8220 C   0  0  0  0  0  0
  -21.3654   -5.6798   24.9174 C   0  0  0  0  0  0
  -21.6061   -4.3058   24.7214 C   0  0  0  0  0  0
  -21.8816   -3.8151   23.4335 C   0  0  0  0  0  0
  -21.9190   -4.6984   22.3390 C   0  0  0  0  0  0
  -22.7813  -13.5254   21.1861 C   0  0  0  0  0  0
  -22.1666   -4.2165   21.0972 F   0  0  0  0  0  0
  -21.5631   -3.4537   25.7728 F   0  0  0  0  0  0
  -29.9699  -13.5335   20.4009 N   0  0  0  0  0  0
  -26.2874  -12.9353   20.3223 N   0  0  0  0  0  0
  -25.9256  -11.6502   20.5664 N   0  0  0  0  0  0
  -22.0453  -12.8248   22.0405 N   0  0  0  0  0  0
  -25.4152  -15.1904   20.4237 N   0  0  0  0  0  0
  -31.7877  -14.8599   20.2347 O   0  0  0  0  0  0
  -21.6635   -6.8885   21.4250 O   0  0  0  0  0  0
  -22.3520  -14.5552   20.6695 O   0  0  0  0  0  0
  -24.6285  -31.8596   23.1974 C   0  0  0  0  0  0
  -25.9109  -32.4778   23.8323 C   0  0  1  0  0  0
  -27.2065  -27.2593   20.1552 C   0  0  0  0  0  0
  -25.5915  -33.8575   24.2242 N   0  0  0  0  0  0
  -23.4263  -30.4793   21.5436 C   0  0  2  0  0  0
  -24.8696  -28.9152   20.1213 C   0  0  0  0  0  0
  -22.7475  -29.4680   22.4963 C   0  0  0  0  0  0
  -18.0299  -28.1467   22.8555 C   0  0  0  0  0  0
  -24.1481  -36.7257   23.2651 C   0  0  0  0  0  0
  -25.9696  -30.7738   21.3762 C   0  0  0  0  0  0
  -26.0402  -29.3895   20.7306 C   0  0  0  0  0  0
  -27.2121  -28.5698   20.7404 C   0  0  0  0  0  0
  -26.0206  -26.8406   19.5194 C   0  0  0  0  0  0
  -24.8624  -27.6485   19.5125 C   0  0  0  0  0  0
  -23.6406  -29.8054   20.1612 C   0  0  0  0  0  0
  -25.4128  -36.3096   24.0334 C   0  0  1  0  0  0
  -20.5906  -28.3780   23.1327 C   0  0  2  0  0  0
  -20.6830  -26.9499   22.5460 C   0  0  0  0  0  0
  -19.5752  -26.6457   21.5318 C   0  0  0  0  0  0
  -18.1928  -26.8012   22.1710 C   0  0  0  0  0  0
  -19.1561  -28.8940   23.2931 C   0  0  0  0  0  0
  -18.9462  -30.1541   23.8926 C   0  0  0  0  0  0
  -17.6454  -30.6643   24.0623 C   0  0  0  0  0  0
  -25.9058  -34.9460   23.5104 C   0  0  0  0  0  0
  -16.5354  -29.9149   23.6360 C   0  0  0  0  0  0
  -16.7288  -28.6584   23.0349 C   0  0  0  0  0  0
  -26.4446  -31.6592   25.0703 C   0  0  0  0  0  0
  -25.3633  -31.3742   26.1394 C   0  0  0  0  0  0
  -27.0289  -30.3036   24.6170 C   0  0  0  0  0  0
  -27.6022  -32.4330   25.7438 C   0  0  0  0  0  0
  -27.5583  -37.1803   24.8478 C   0  0  0  0  0  0
  -21.4192  -29.3088   22.3673 N   0  0  0  0  0  0
  -26.4302  -37.3809   23.9420 N   0  0  0  0  0  0
  -24.6957  -31.0551   22.0964 N   0  0  0  0  0  0
  -23.4189  -28.8261   23.3079 O   0  0  0  0  0  0
  -28.3130  -26.3905   20.1361 O   0  0  0  0  0  0
  -26.5629  -34.8942   22.4663 O   0  0  0  0  0  0
  -23.5432  -32.1460   23.7232 O   0  0  0  0  0  0
  -31.5770  -18.9741   21.9933 C   0  0  0  0  0  0
  -31.2762  -17.6381   21.6595 C   0  0  0  0  0  0
  -30.7257  -20.0408   21.6291 C   0  0  0  0  0  0
  -30.0970  -17.3060   20.9536 C   0  0  0  0  0  0
  -29.5274  -19.8255   20.9040 C   0  0  0  0  0  0
  -29.2246  -18.4253   20.6081 C   0  0  0  0  0  0
  -28.2394  -23.6027   20.1480 C   0  0  0  0  0  0
  -28.2634  -25.0711   20.8470 C   0  0  0  0  0  0
  -28.9383  -22.3505   20.9180 C   0  0  0  0  0  0
  -29.7811  -15.8776   20.6825 N   0  0  0  0  0  0
  -28.7064  -20.9309   20.4905 O   0  0  0  0  0  0
  -28.0526  -18.1378   19.9895 F   0  0  0  0  0  0
  -31.4760  -12.6350   19.1739 H   0  0  0  0  0  0
  -30.4107  -11.5080   19.9734 H   0  0  0  0  0  0
  -29.8145  -11.7307   17.5306 H   0  0  0  0  0  0
  -29.6203  -13.4575   17.7111 H   0  0  0  0  0  0
  -27.9011  -11.2667   18.9145 H   0  0  0  0  0  0
  -27.3855  -12.4952   17.7923 H   0  0  0  0  0  0
  -27.6259  -14.2358   19.4455 H   0  0  0  0  0  0
  -28.7195  -12.1559   21.4069 H   0  0  0  0  0  0
  -28.3913  -13.8250   21.7942 H   0  0  0  0  0  0
  -25.2746   -9.5718   22.4718 H   0  0  0  0  0  0
  -24.0018   -7.4661   22.7460 H   0  0  0  0  0  0
  -21.0843   -8.8769   19.8947 H   0  0  0  0  0  0
  -22.3677  -10.9670   19.6157 H   0  0  0  0  0  0
  -21.1983   -7.6148   23.9736 H   0  0  0  0  0  0
  -21.1483   -6.0506   25.9087 H   0  0  0  0  0  0
  -22.0586   -2.7618   23.2817 H   0  0  0  0  0  0
  -22.4066  -11.9970   22.4858 H   0  0  0  0  0  0
  -21.1071  -13.1289   22.2561 H   0  0  0  0  0  0
  -24.6445  -15.8344   20.5720 H   0  0  0  0  0  0
  -26.2581  -15.6538   20.1088 H   0  0  0  0  0  0
  -26.7160  -32.5441   23.1057 H   0  0  0  0  0  0
  -25.0036  -33.9699   25.0374 H   0  0  0  0  0  0
  -22.7299  -31.3063   21.3965 H   0  0  0  0  0  0
  -23.3767  -35.9559   23.3341 H   0  0  0  0  0  0
  -24.3592  -36.8849   22.2064 H   0  0  0  0  0  0
  -23.7172  -37.6459   23.6621 H   0  0  0  0  0  0
  -26.0972  -31.5300   20.6003 H   0  0  0  0  0  0
  -26.8514  -30.8393   22.0013 H   0  0  0  0  0  0
  -28.1106  -28.9196   21.2302 H   0  0  0  0  0  0
  -25.9852  -25.8726   19.0297 H   0  0  0  0  0  0
  -23.9613  -27.2840   19.0409 H   0  0  0  0  0  0
  -23.7612  -30.5805   19.4035 H   0  0  0  0  0  0
  -22.7587  -29.2387   19.8551 H   0  0  0  0  0  0
  -25.1304  -36.2009   25.0830 H   0  0  0  0  0  0
  -21.0038  -28.3402   24.1448 H   0  0  0  0  0  0
  -20.5920  -26.2365   23.3664 H   0  0  0  0  0  0
  -21.6653  -26.7612   22.1130 H   0  0  0  0  0  0
  -19.6893  -25.6387   21.1299 H   0  0  0  0  0  0
  -19.6658  -27.3308   20.6886 H   0  0  0  0  0  0
  -17.4218  -26.6845   21.4075 H   0  0  0  0  0  0
  -18.0239  -26.0170   22.9110 H   0  0  0  0  0  0
  -19.7926  -30.7383   24.2281 H   0  0  0  0  0  0
  -17.4998  -31.6313   24.5220 H   0  0  0  0  0  0
  -15.5343  -30.3034   23.7672 H   0  0  0  0  0  0
  -15.8725  -28.0903   22.7004 H   0  0  0  0  0  0
  -24.5832  -30.7081   25.7701 H   0  0  0  0  0  0
  -24.8731  -32.2872   26.4778 H   0  0  0  0  0  0
  -25.7911  -30.8950   27.0198 H   0  0  0  0  0  0
  -26.2869  -29.6842   24.1128 H   0  0  0  0  0  0
  -27.3935  -29.7298   25.4696 H   0  0  0  0  0  0
  -27.8746  -30.4378   23.9427 H   0  0  0  0  0  0
  -27.2668  -33.3683   26.1935 H   0  0  0  0  0  0
  -28.3793  -32.6829   25.0195 H   0  0  0  0  0  0
  -28.0679  -31.8486   26.5386 H   0  0  0  0  0  0
  -28.2619  -38.0097   24.7561 H   0  0  0  0  0  0
  -28.1064  -36.2634   24.6259 H   0  0  0  0  0  0
  -27.2284  -37.1379   25.8880 H   0  0  0  0  0  0
  -20.9437  -29.8666   21.6720 H   0  0  0  0  0  0
  -26.0194  -38.2889   24.1469 H   0  0  0  0  0  0
  -32.4890  -19.1915   22.5340 H   0  0  0  0  0  0
  -31.9695  -16.8679   21.9688 H   0  0  0  0  0  0
  -31.0366  -21.0304   21.9200 H   0  0  0  0  0  0
  -28.7045  -23.6708   19.1638 H   0  0  0  0  0  0
  -27.1988  -23.3408   19.9401 H   0  0  0  0  0  0
  -29.1755  -25.0949   21.4422 H   0  0  0  0  0  0
  -27.4606  -25.1057   21.5835 H   0  0  0  0  0  0
  -28.6805  -22.4135   21.9767 H   0  0  0  0  0  0
  -30.0040  -22.5595   20.8804 H   0  0  0  0  0  0
  -28.7955  -15.6818   20.5998 H   0  0  0  0  0  0
  1 25  1  0  0  0
  1 30  2  0  0  0
  1 80  1  0  0  0
  2  3  1  0  0  0
  2 25  1  0  0  0
  2 83  1  0  0  0
  2 84  1  0  0  0
  3  4  1  0  0  0
  3 85  1  0  0  0
  3 86  1  0  0  0
  4  5  1  0  0  0
  4 87  1  0  0  0
  4 88  1  0  0  0
  5  6  1  0  0  0
  5 26  1  0  0  0
  5 89  1  0  0  0
  6 25  1  0  0  0
  6 90  1  0  0  0
  6 91  1  0  0  0
  7  8  2  0  0  0
  7 26  1  0  0  0
  7 29  1  0  0  0
  8  9  1  0  0  0
  8 22  1  0  0  0
  9 10  1  0  0  0
  9 27  2  0  0  0
 10 11  2  0  0  0
 10 15  1  0  0  0
 11 12  1  0  0  0
 11 92  1  0  0  0
 12 13  2  0  0  0
 12 93  1  0  0  0
 13 14  1  0  0  0
 13 31  1  0  0  0
 14 15  2  0  0  0
 14 94  1  0  0  0
 15 95  1  0  0  0
 16 17  2  0  0  0
 16 21  1  0  0  0
 16 31  1  0  0  0
 17 18  1  0  0  0
 17 96  1  0  0  0
 18 19  2  0  0  0
 18 97  1  0  0  0
 19 20  1  0  0  0
 19 24  1  0  0  0
 20 21  2  0  0  0
 20 98  1  0  0  0
 21 23  1  0  0  0
 22 28  1  0  0  0
 22 32  2  0  0  0
 26 27  1  0  0  0
 28 99  1  0  0  0
 28100  1  0  0  0
 29101  1  0  0  0
 29102  1  0  0  0
 33 34  1  0  0  0
 33 66  1  0  0  0
 33 70  2  0  0  0
 34 36  1  0  0  0
 34 59  1  0  0  0
 34103  1  0  0  0
 35 44  2  0  0  0
 35 45  1  0  0  0
 35 68  1  0  0  0
 36 56  1  0  0  0
 36104  1  0  0  0
 37 39  1  0  0  0
 37 47  1  0  0  0
 37 66  1  0  0  0
 37105  1  0  0  0
 38 43  2  0  0  0
 38 46  1  0  0  0
 38 47  1  0  0  0
 39 64  1  0  0  0
 39 67  2  0  0  0
 40 52  1  0  0  0
 40 53  2  0  0  0
 40 58  1  0  0  0
 41106  1  0  0  0
 41107  1  0  0  0
 41108  1  0  0  0
 41 48  1  0  0  0
 42 43  1  0  0  0
 42 66  1  0  0  0
 42109  1  0  0  0
 42110  1  0  0  0
 43 44  1  0  0  0
 44111  1  0  0  0
 45 46  2  0  0  0
 45112  1  0  0  0
 46113  1  0  0  0
 47114  1  0  0  0
 47115  1  0  0  0
 48 56  1  0  0  0
 48 65  1  0  0  0
 48116  1  0  0  0
 49 50  1  0  0  0
 49 53  1  0  0  0
 49 64  1  0  0  0
 49117  1  0  0  0
 50 51  1  0  0  0
 50118  1  0  0  0
 50119  1  0  0  0
 51 52  1  0  0  0
 51120  1  0  0  0
 51121  1  0  0  0
 52122  1  0  0  0
 52123  1  0  0  0
 53 54  1  0  0  0
 54 55  2  0  0  0
 54124  1  0  0  0
 55 57  1  0  0  0
 55125  1  0  0  0
 56 69  2  0  0  0
 57 58  2  0  0  0
 57126  1  0  0  0
 58127  1  0  0  0
 59 60  1  0  0  0
 59 61  1  0  0  0
 59 62  1  0  0  0
 60128  1  0  0  0
 60129  1  0  0  0
 60130  1  0  0  0
 61131  1  0  0  0
 61132  1  0  0  0
 61133  1  0  0  0
 62134  1  0  0  0
 62135  1  0  0  0
 62136  1  0  0  0
 63 65  1  0  0  0
 63137  1  0  0  0
 63138  1  0  0  0
 63139  1  0  0  0
 64140  1  0  0  0
 65141  1  0  0  0
 68 78  1  0  0  0
 71 72  2  0  0  0
 71 73  1  0  0  0
 71142  1  0  0  0
 72 74  1  0  0  0
 72143  1  0  0  0
 73 75  2  0  0  0
 73144  1  0  0  0
 74 76  2  0  0  0
 74 80  1  0  0  0
 75 76  1  0  0  0
 75 81  1  0  0  0
 76 82  1  0  0  0
 77 78  1  0  0  0
 77 79  1  0  0  0
 77145  1  0  0  0
 77146  1  0  0  0
 78147  1  0  0  0
 78148  1  0  0  0
 79 81  1  0  0  0
 79149  1  0  0  0
 79150  1  0  0  0
 80151  1  0  0  0
M  ISO  4   1 100  68 101  78 101  80 100
M  END
> <chiral flag>
0

> <version>
0

> <s_m_source_file>
/data/baiqing/PycharmProjects/Reinvent-master-3.2/result/LINK_invent/BTK/process_docking_weight1_custom_product_contain_oxygen_bond_distance_aromatic_linkinvent_7_9_3/rearranged_h_0015.sdf

> <i_m_source_file_index>
48

> <r_mmod_Potential_Energy-OPLS-2005>
202.559112548828

> <r_mmod_Stretch_Energy-OPLS-2005>
126.730453491211

> <r_mmod_Bend_Energy-OPLS-2005>
171.354156494141

> <r_mmod_Torsional_Energy-OPLS-2005>
244.251434326172

> <r_mmod_Improper_Torsional_Energy-OPLS-2005>
5.82046699523926

> <r_mmod_Van_der_Waal_Energy-OPLS-2005>
136.104309082031

> <r_mmod_Electrostatic_Energy-OPLS-2005>
-366.956085205078

> <r_mmod_Solvation_Energy-OPLS-2005>
-203.363327026367

> <b_mmod_Minimization_Converged-OPLS-2005>
0

> <r_mmod_RMS_Derivative-OPLS-2005>
5.79763126373291

$$$$
48
                    3D
 Structure written by MMmdl.
155163  0  0  1  0            999 V2000
  -30.6136  -14.7371   20.3586 C   0  0  0  0  0  0
  -30.4373  -12.4190   19.4596 C   0  0  0  0  0  0
  -29.4956  -12.3662   18.2330 C   0  0  0  0  0  0
  -28.0177  -12.2788   18.6564 C   0  0  0  0  0  0
  -27.6368  -13.2203   19.8311 C   0  0  2  0  0  0
  -28.6920  -13.1961   20.9550 C   0  0  0  0  0  0
  -25.2542  -13.8195   20.5717 C   0  0  0  0  0  0
  -24.1812  -13.0457   20.9226 C   0  0  0  0  0  0
  -24.6381  -11.6928   20.8788 C   0  0  0  0  0  0
  -23.9055  -10.4304   21.0433 C   0  0  0  0  0  0
  -24.3608   -9.4213   21.9200 C   0  0  0  0  0  0
  -23.6291   -8.2243   22.0757 C   0  0  0  0  0  0
  -22.4275   -8.0278   21.3544 C   0  0  0  0  0  0
  -21.9915   -9.0257   20.4649 C   0  0  0  0  0  0
  -22.7235  -10.2141   20.3071 C   0  0  0  0  0  0
  -21.6852   -6.0740   22.5281 C   0  0  0  0  0  0
  -21.4011   -6.5647   23.8214 C   0  0  0  0  0  0
  -21.3659   -5.6799   24.9177 C   0  0  0  0  0  0
  -21.6041   -4.3061   24.7226 C   0  0  0  0  0  0
  -21.8821   -3.8153   23.4348 C   0  0  0  0  0  0
  -21.9192   -4.6968   22.3404 C   0  0  0  0  0  0
  -22.7834  -13.5246   21.1874 C   0  0  0  0  0  0
  -22.1664   -4.2155   21.0981 F   0  0  0  0  0  0
  -21.5625   -3.4546   25.7738 F   0  0  0  0  0  0
  -29.9814  -13.5168   20.3357 N   0  0  0  0  0  0
  -26.2937  -12.9375   20.3288 N   0  0  0  0  0  0
  -25.9304  -11.6536   20.5826 N   0  0  0  0  0  0
  -22.0479  -12.8226   22.0421 N   0  0  0  0  0  0
  -25.4307  -15.1909   20.4143 N   0  0  0  0  0  0
  -31.8468  -14.7848   20.3163 O   0  0  0  0  0  0
  -21.6638   -6.8876   21.4238 O   0  0  0  0  0  0
  -22.3523  -14.5550   20.6715 O   0  0  0  0  0  0
  -24.6260  -31.8577   23.1992 C   0  0  0  0  0  0
  -25.9103  -32.4770   23.8330 C   0  0  1  0  0  0
  -27.2278  -27.3092   20.1414 C   0  0  0  0  0  0
  -25.5914  -33.8573   24.2261 N   0  0  0  0  0  0
  -23.4198  -30.4774   21.5421 C   0  0  2  0  0  0
  -24.8672  -28.9185   20.1200 C   0  0  0  0  0  0
  -22.7460  -29.4618   22.4946 C   0  0  0  0  0  0
  -18.0281  -28.1380   22.8482 C   0  0  0  0  0  0
  -24.1490  -36.7291   23.2643 C   0  0  0  0  0  0
  -25.9588  -30.7873   21.3674 C   0  0  0  0  0  0
  -26.0344  -29.4098   20.7190 C   0  0  0  0  0  0
  -27.2204  -28.6197   20.7101 C   0  0  0  0  0  0
  -26.0407  -26.8564   19.5337 C   0  0  0  0  0  0
  -24.8725  -27.6481   19.5169 C   0  0  0  0  0  0
  -23.6343  -29.8007   20.1617 C   0  0  0  0  0  0
  -25.4114  -36.3080   24.0327 C   0  0  1  0  0  0
  -20.5881  -28.3681   23.1287 C   0  0  2  0  0  0
  -20.6772  -26.9404   22.5412 C   0  0  0  0  0  0
  -19.5753  -26.6376   21.5213 C   0  0  0  0  0  0
  -18.1929  -26.7925   22.1619 C   0  0  0  0  0  0
  -19.1533  -28.8847   23.2881 C   0  0  0  0  0  0
  -18.9462  -30.1452   23.8890 C   0  0  0  0  0  0
  -17.6464  -30.6583   24.0563 C   0  0  0  0  0  0
  -25.9042  -34.9449   23.5093 C   0  0  0  0  0  0
  -16.5353  -29.9078   23.6339 C   0  0  0  0  0  0
  -16.7268  -28.6497   23.0351 C   0  0  0  0  0  0
  -26.4486  -31.6589   25.0708 C   0  0  0  0  0  0
  -25.3725  -31.3733   26.1440 C   0  0  0  0  0  0
  -27.0334  -30.3019   24.6158 C   0  0  0  0  0  0
  -27.6036  -32.4338   25.7480 C   0  0  0  0  0  0
  -27.5579  -37.1797   24.8465 C   0  0  0  0  0  0
  -21.4175  -29.3038   22.3682 N   0  0  0  0  0  0
  -26.4293  -37.3777   23.9408 N   0  0  0  0  0  0
  -24.6874  -31.0582   22.0938 N   0  0  0  0  0  0
  -23.4181  -28.8175   23.3044 O   0  0  0  0  0  0
  -28.3670  -26.4987   20.1113 O   0  0  0  0  0  0
  -26.5623  -34.8920   22.4667 O   0  0  0  0  0  0
  -23.5424  -32.1370   23.7320 O   0  0  0  0  0  0
  -28.5181  -19.3563   19.5703 C   0  0  0  0  0  0
  -29.8332  -19.2141   21.5635 C   0  0  0  0  0  0
  -28.7625  -17.9716   19.3370 C   0  0  0  0  0  0
  -30.1053  -17.8242   21.3127 C   0  0  0  0  0  0
  -29.0541  -20.0320   20.6894 C   0  0  0  0  0  0
  -29.5953  -17.1534   20.1655 C   0  0  0  0  0  0
  -30.0611  -15.6925   18.2551 C   0  0  0  0  0  0
  -28.1383  -23.8217   19.8849 C   0  0  0  0  0  0
  -29.0888  -22.5259   20.0115 C   0  0  0  0  0  0
  -28.3632  -25.1534   20.7401 C   0  0  0  0  0  0
  -28.7623  -21.4169   20.9677 N   0  0  0  0  0  0
  -29.9233  -15.7700   19.7262 N   0  0  0  0  0  0
  -31.4698  -12.5576   19.1337 H   0  0  0  0  0  0
  -30.4159  -11.4733   20.0030 H   0  0  0  0  0  0
  -29.7459  -11.4958   17.6248 H   0  0  0  0  0  0
  -29.6366  -13.2121   17.5690 H   0  0  0  0  0  0
  -27.8420  -11.2430   18.9490 H   0  0  0  0  0  0
  -27.3667  -12.4611   17.8006 H   0  0  0  0  0  0
  -27.6193  -14.2286   19.4175 H   0  0  0  0  0  0
  -28.7294  -12.2215   21.4431 H   0  0  0  0  0  0
  -28.4461  -13.9292   21.7259 H   0  0  0  0  0  0
  -25.2749   -9.5691   22.4780 H   0  0  0  0  0  0
  -24.0006   -7.4634   22.7472 H   0  0  0  0  0  0
  -21.0853   -8.8774   19.8948 H   0  0  0  0  0  0
  -22.3697  -10.9682   19.6186 H   0  0  0  0  0  0
  -21.2001   -7.6156   23.9722 H   0  0  0  0  0  0
  -21.1476   -6.0528   25.9081 H   0  0  0  0  0  0
  -22.0596   -2.7616   23.2845 H   0  0  0  0  0  0
  -22.4090  -11.9871   22.4778 H   0  0  0  0  0  0
  -21.1099  -13.1254   22.2630 H   0  0  0  0  0  0
  -24.6754  -15.8562   20.5354 H   0  0  0  0  0  0
  -26.2997  -15.6247   20.1280 H   0  0  0  0  0  0
  -26.7167  -32.5435   23.1074 H   0  0  0  0  0  0
  -25.0082  -33.9720   25.0420 H   0  0  0  0  0  0
  -22.7155  -31.2988   21.3938 H   0  0  0  0  0  0
  -23.3754  -35.9626   23.3308 H   0  0  0  0  0  0
  -24.3581  -36.8908   22.2058 H   0  0  0  0  0  0
  -23.7241  -37.6490   23.6665 H   0  0  0  0  0  0
  -26.0865  -31.5454   20.5935 H   0  0  0  0  0  0
  -26.8413  -30.8417   21.9934 H   0  0  0  0  0  0
  -28.1241  -29.0001   21.1644 H   0  0  0  0  0  0
  -26.0188  -25.8805   19.0698 H   0  0  0  0  0  0
  -23.9778  -27.2642   19.0464 H   0  0  0  0  0  0
  -23.7513  -30.5706   19.3989 H   0  0  0  0  0  0
  -22.7552  -29.2262   19.8637 H   0  0  0  0  0  0
  -25.1297  -36.1930   25.0820 H   0  0  0  0  0  0
  -20.9971  -28.3248   24.1411 H   0  0  0  0  0  0
  -20.5681  -26.2283   23.3607 H   0  0  0  0  0  0
  -21.6637  -26.7438   22.1201 H   0  0  0  0  0  0
  -19.6920  -25.6288   21.1236 H   0  0  0  0  0  0
  -19.6699  -27.3190   20.6749 H   0  0  0  0  0  0
  -17.4204  -26.6676   21.4017 H   0  0  0  0  0  0
  -18.0325  -26.0063   22.9007 H   0  0  0  0  0  0
  -19.7942  -30.7266   24.2247 H   0  0  0  0  0  0
  -17.5023  -31.6266   24.5158 H   0  0  0  0  0  0
  -15.5355  -30.2981   23.7671 H   0  0  0  0  0  0
  -15.8664  -28.0818   22.7073 H   0  0  0  0  0  0
  -24.5897  -30.7081   25.7776 H   0  0  0  0  0  0
  -24.8926  -32.2910   26.4857 H   0  0  0  0  0  0
  -25.8052  -30.8920   27.0220 H   0  0  0  0  0  0
  -26.2904  -29.6768   24.1193 H   0  0  0  0  0  0
  -27.4053  -29.7270   25.4648 H   0  0  0  0  0  0
  -27.8757  -30.4315   23.9361 H   0  0  0  0  0  0
  -27.2632  -33.3647   26.2032 H   0  0  0  0  0  0
  -28.3857  -32.6889   25.0315 H   0  0  0  0  0  0
  -28.0697  -31.8490   26.5423 H   0  0  0  0  0  0
  -28.2592  -38.0098   24.7504 H   0  0  0  0  0  0
  -28.1073  -36.2622   24.6294 H   0  0  0  0  0  0
  -27.2294  -37.1441   25.8869 H   0  0  0  0  0  0
  -20.9353  -29.8736   21.6870 H   0  0  0  0  0  0
  -26.0171  -38.2854   24.1403 H   0  0  0  0  0  0
  -27.8822  -19.8928   18.8806 H   0  0  0  0  0  0
  -30.2583  -19.6572   22.4528 H   0  0  0  0  0  0
  -28.2998  -17.5485   18.4577 H   0  0  0  0  0  0
  -30.7450  -17.2926   22.0019 H   0  0  0  0  0  0
  -29.1062  -15.4365   17.7959 H   0  0  0  0  0  0
  -30.8091  -14.9752   17.9125 H   0  0  0  0  0  0
  -30.3970  -16.6378   17.8272 H   0  0  0  0  0  0
  -27.0916  -23.5218   19.9449 H   0  0  0  0  0  0
  -28.2561  -24.1475   18.8510 H   0  0  0  0  0  0
  -30.1083  -22.8587   20.2165 H   0  0  0  0  0  0
  -29.1405  -22.0726   19.0200 H   0  0  0  0  0  0
  -29.3438  -25.0664   21.2087 H   0  0  0  0  0  0
  -27.6649  -25.1574   21.5784 H   0  0  0  0  0  0
  -28.9697  -21.6740   21.9309 H   0  0  0  0  0  0
  1 25  1  0  0  0
  1 30  2  0  0  0
  1 82  1  0  0  0
  2  3  1  0  0  0
  2 25  1  0  0  0
  2 83  1  0  0  0
  2 84  1  0  0  0
  3  4  1  0  0  0
  3 85  1  0  0  0
  3 86  1  0  0  0
  4  5  1  0  0  0
  4 87  1  0  0  0
  4 88  1  0  0  0
  5  6  1  0  0  0
  5 26  1  0  0  0
  5 89  1  0  0  0
  6 25  1  0  0  0
  6 90  1  0  0  0
  6 91  1  0  0  0
  7  8  2  0  0  0
  7 26  1  0  0  0
  7 29  1  0  0  0
  8  9  1  0  0  0
  8 22  1  0  0  0
  9 10  1  0  0  0
  9 27  2  0  0  0
 10 11  2  0  0  0
 10 15  1  0  0  0
 11 12  1  0  0  0
 11 92  1  0  0  0
 12 13  2  0  0  0
 12 93  1  0  0  0
 13 14  1  0  0  0
 13 31  1  0  0  0
 14 15  2  0  0  0
 14 94  1  0  0  0
 15 95  1  0  0  0
 16 17  2  0  0  0
 16 21  1  0  0  0
 16 31  1  0  0  0
 17 18  1  0  0  0
 17 96  1  0  0  0
 18 19  2  0  0  0
 18 97  1  0  0  0
 19 20  1  0  0  0
 19 24  1  0  0  0
 20 21  2  0  0  0
 20 98  1  0  0  0
 21 23  1  0  0  0
 22 28  1  0  0  0
 22 32  2  0  0  0
 26 27  1  0  0  0
 28 99  1  0  0  0
 28100  1  0  0  0
 29101  1  0  0  0
 29102  1  0  0  0
 33 34  1  0  0  0
 33 66  1  0  0  0
 33 70  2  0  0  0
 34 36  1  0  0  0
 34 59  1  0  0  0
 34103  1  0  0  0
 35 44  2  0  0  0
 35 45  1  0  0  0
 35 68  1  0  0  0
 36 56  1  0  0  0
 36104  1  0  0  0
 37 39  1  0  0  0
 37 47  1  0  0  0
 37 66  1  0  0  0
 37105  1  0  0  0
 38 43  2  0  0  0
 38 46  1  0  0  0
 38 47  1  0  0  0
 39 64  1  0  0  0
 39 67  2  0  0  0
 40 52  1  0  0  0
 40 53  2  0  0  0
 40 58  1  0  0  0
 41106  1  0  0  0
 41107  1  0  0  0
 41108  1  0  0  0
 41 48  1  0  0  0
 42 43  1  0  0  0
 42 66  1  0  0  0
 42109  1  0  0  0
 42110  1  0  0  0
 43 44  1  0  0  0
 44111  1  0  0  0
 45 46  2  0  0  0
 45112  1  0  0  0
 46113  1  0  0  0
 47114  1  0  0  0
 47115  1  0  0  0
 48 56  1  0  0  0
 48 65  1  0  0  0
 48116  1  0  0  0
 49 50  1  0  0  0
 49 53  1  0  0  0
 49 64  1  0  0  0
 49117  1  0  0  0
 50 51  1  0  0  0
 50118  1  0  0  0
 50119  1  0  0  0
 51 52  1  0  0  0
 51120  1  0  0  0
 51121  1  0  0  0
 52122  1  0  0  0
 52123  1  0  0  0
 53 54  1  0  0  0
 54 55  2  0  0  0
 54124  1  0  0  0
 55 57  1  0  0  0
 55125  1  0  0  0
 56 69  2  0  0  0
 57 58  2  0  0  0
 57126  1  0  0  0
 58127  1  0  0  0
 59 60  1  0  0  0
 59 61  1  0  0  0
 59 62  1  0  0  0
 60128  1  0  0  0
 60129  1  0  0  0
 60130  1  0  0  0
 61131  1  0  0  0
 61132  1  0  0  0
 61133  1  0  0  0
 62134  1  0  0  0
 62135  1  0  0  0
 62136  1  0  0  0
 63 65  1  0  0  0
 63137  1  0  0  0
 63138  1  0  0  0
 63139  1  0  0  0
 64140  1  0  0  0
 65141  1  0  0  0
 68 80  1  0  0  0
 71 73  2  0  0  0
 71 75  1  0  0  0
 71142  1  0  0  0
 72 74  1  0  0  0
 72 75  2  0  0  0
 72143  1  0  0  0
 73 76  1  0  0  0
 73144  1  0  0  0
 74 76  2  0  0  0
 74145  1  0  0  0
 75 81  1  0  0  0
 76 82  1  0  0  0
 77 82  1  0  0  0
 77146  1  0  0  0
 77147  1  0  0  0
 77148  1  0  0  0
 78 79  1  0  0  0
 78 80  1  0  0  0
 78149  1  0  0  0
 78150  1  0  0  0
 79 81  1  0  0  0
 79151  1  0  0  0
 79152  1  0  0  0
 80153  1  0  0  0
 80154  1  0  0  0
 81155  1  0  0  0
M  ISO  4   1 100  68 101  80 101  82 100
M  END
> <chiral flag>
0

> <version>
0

> <s_m_source_file>
/data/baiqing/PycharmProjects/Reinvent-master-3.2/result/LINK_invent/BTK/process_docking_weight1_custom_product_contain_oxygen_bond_distance_aromatic_linkinvent_7_9_3/rearranged_h_0015.sdf

> <i_m_source_file_index>
49

> <r_mmod_Potential_Energy-OPLS-2005>
365.580322265625

> <r_mmod_Stretch_Energy-OPLS-2005>
95.084098815918

> <r_mmod_Bend_Energy-OPLS-2005>
179.925765991211

> <r_mmod_Torsional_Energy-OPLS-2005>
345.948333740234

> <r_mmod_Improper_Torsional_Energy-OPLS-2005>
32.894287109375

> <r_mmod_Van_der_Waal_Energy-OPLS-2005>
143.585754394531

> <r_mmod_Electrostatic_Energy-OPLS-2005>
-311.075775146484

> <r_mmod_Solvation_Energy-OPLS-2005>
-204.440216064453

> <b_mmod_Minimization_Converged-OPLS-2005>
0

> <r_mmod_RMS_Derivative-OPLS-2005>
1.17209112644196

$$$$
49
                    3D
 Structure written by MMmdl.
165174  0  0  1  0            999 V2000
  -30.6764  -14.5324   20.5338 C   0  0  0  0  0  0
  -30.4232  -12.3324   19.4323 C   0  0  0  0  0  0
  -29.4959  -12.4931   18.2098 C   0  0  0  0  0  0
  -28.0173  -12.3498   18.6243 C   0  0  0  0  0  0
  -27.6538  -13.2098   19.8645 C   0  0  2  0  0  0
  -28.6983  -13.0351   20.9899 C   0  0  0  0  0  0
  -25.2565  -13.8166   20.5683 C   0  0  0  0  0  0
  -24.1828  -13.0437   20.9194 C   0  0  0  0  0  0
  -24.6388  -11.6906   20.8755 C   0  0  0  0  0  0
  -23.9058  -10.4293   21.0422 C   0  0  0  0  0  0
  -24.3614   -9.4202   21.9192 C   0  0  0  0  0  0
  -23.6289   -8.2239   22.0753 C   0  0  0  0  0  0
  -22.4268   -8.0285   21.3548 C   0  0  0  0  0  0
  -21.9912   -9.0258   20.4646 C   0  0  0  0  0  0
  -22.7236  -10.2137   20.3061 C   0  0  0  0  0  0
  -21.6853   -6.0738   22.5282 C   0  0  0  0  0  0
  -21.4012   -6.5643   23.8213 C   0  0  0  0  0  0
  -21.3657   -5.6794   24.9177 C   0  0  0  0  0  0
  -21.6044   -4.3057   24.7227 C   0  0  0  0  0  0
  -21.8817   -3.8146   23.4350 C   0  0  0  0  0  0
  -21.9192   -4.6967   22.3401 C   0  0  0  0  0  0
  -22.7855  -13.5238   21.1857 C   0  0  0  0  0  0
  -22.1661   -4.2152   21.0981 F   0  0  0  0  0  0
  -21.5630   -3.4539   25.7740 F   0  0  0  0  0  0
  -30.0191  -13.3440   20.4225 N   0  0  0  0  0  0
  -26.2989  -12.9336   20.3333 N   0  0  0  0  0  0
  -25.9311  -11.6496   20.5767 N   0  0  0  0  0  0
  -22.0491  -12.8233   22.0413 N   0  0  0  0  0  0
  -25.4286  -15.1883   20.4074 N   0  0  0  0  0  0
  -31.8411  -14.6736   20.1497 O   0  0  0  0  0  0
  -21.6636   -6.8881   21.4239 O   0  0  0  0  0  0
  -22.3543  -14.5542   20.6703 O   0  0  0  0  0  0
  -24.6168  -31.8650   23.2050 C   0  0  0  0  0  0
  -25.9048  -32.4809   23.8361 C   0  0  1  0  0  0
  -27.2353  -27.3973   20.1166 C   0  0  0  0  0  0
  -25.5891  -33.8610   24.2302 N   0  0  0  0  0  0
  -23.4069  -30.4851   21.5464 C   0  0  2  0  0  0
  -24.8553  -28.9369   20.1224 C   0  0  0  0  0  0
  -22.7421  -29.4638   22.4979 C   0  0  0  0  0  0
  -18.0271  -28.1373   22.8499 C   0  0  0  0  0  0
  -24.1484  -36.7307   23.2639 C   0  0  0  0  0  0
  -25.9376  -30.8197   21.3620 C   0  0  0  0  0  0
  -26.0165  -29.4463   20.7193 C   0  0  0  0  0  0
  -27.2125  -28.6855   20.7096 C   0  0  0  0  0  0
  -26.0597  -26.9056   19.5174 C   0  0  0  0  0  0
  -24.8735  -27.6673   19.5173 C   0  0  0  0  0  0
  -23.6192  -29.8103   20.1643 C   0  0  0  0  0  0
  -25.4103  -36.3108   24.0340 C   0  0  1  0  0  0
  -20.5867  -28.3652   23.1318 C   0  0  2  0  0  0
  -20.6761  -26.9384   22.5426 C   0  0  0  0  0  0
  -19.5744  -26.6378   21.5216 C   0  0  0  0  0  0
  -18.1918  -26.7924   22.1621 C   0  0  0  0  0  0
  -19.1526  -28.8828   23.2908 C   0  0  0  0  0  0
  -18.9457  -30.1444   23.8899 C   0  0  0  0  0  0
  -17.6460  -30.6581   24.0564 C   0  0  0  0  0  0
  -25.9033  -34.9475   23.5121 C   0  0  0  0  0  0
  -16.5350  -29.9083   23.6326 C   0  0  0  0  0  0
  -16.7261  -28.6501   23.0345 C   0  0  0  0  0  0
  -26.4461  -31.6587   25.0699 C   0  0  0  0  0  0
  -25.3727  -31.3706   26.1450 C   0  0  0  0  0  0
  -27.0280  -30.3031   24.6073 C   0  0  0  0  0  0
  -27.6035  -32.4290   25.7476 C   0  0  0  0  0  0
  -27.5577  -37.1805   24.8473 C   0  0  0  0  0  0
  -21.4144  -29.3022   22.3723 N   0  0  0  0  0  0
  -26.4290  -37.3794   23.9417 N   0  0  0  0  0  0
  -24.6715  -31.0737   22.0952 N   0  0  0  0  0  0
  -23.4182  -28.8181   23.3033 O   0  0  0  0  0  0
  -28.3933  -26.6482   20.0386 O   0  0  0  0  0  0
  -26.5612  -34.8932   22.4694 O   0  0  0  0  0  0
  -23.5356  -32.1408   23.7437 O   0  0  0  0  0  0
  -31.8988  -18.6125   21.9493 C   0  0  0  0  0  0
  -28.1937  -20.7551   24.8800 C   0  0  0  0  0  0
  -31.0925  -19.6711   21.4906 C   0  0  0  0  0  0
  -31.5170  -17.2755   21.7297 C   0  0  0  0  0  0
  -28.7111  -21.3381   23.7068 C   0  0  0  0  0  0
  -27.0635  -19.9194   24.8128 C   0  0  0  0  0  0
  -29.4948  -18.0539   20.6112 C   0  0  0  0  0  0
  -26.9726  -20.2483   22.3977 C   0  0  0  0  0  0
  -29.8845  -19.4126   20.8114 C   0  0  0  0  0  0
  -30.3145  -16.9705   21.0519 C   0  0  0  0  0  0
  -28.1030  -21.0961   22.4516 C   0  0  0  0  0  0
  -26.4549  -19.6640   23.5703 C   0  0  0  0  0  0
  -29.0611  -20.6095   20.2764 C   0  0  0  0  0  0
  -28.3374  -24.0965   20.4545 C   0  0  0  0  0  0
  -29.1346  -23.0305   21.2820 C   0  0  0  0  0  0
  -28.5604  -25.5599   20.9767 C   0  0  0  0  0  0
  -29.9083  -15.6002   20.8723 N   0  0  0  0  0  0
  -28.6292  -21.6326   21.2568 N   0  0  0  0  0  0
  -25.3735  -18.8507   23.5021 F   0  0  0  0  0  0
  -31.4676  -12.4344   19.1322 H   0  0  0  0  0  0
  -30.3303  -11.3321   19.8575 H   0  0  0  0  0  0
  -29.7424  -11.7508   17.4489 H   0  0  0  0  0  0
  -29.6569  -13.4693   17.7488 H   0  0  0  0  0  0
  -27.8375  -11.2961   18.8418 H   0  0  0  0  0  0
  -27.3643  -12.6011   17.7876 H   0  0  0  0  0  0
  -27.6825  -14.2491   19.5373 H   0  0  0  0  0  0
  -28.6881  -12.0117   21.3674 H   0  0  0  0  0  0
  -28.4627  -13.6698   21.8457 H   0  0  0  0  0  0
  -25.2759   -9.5685   22.4770 H   0  0  0  0  0  0
  -24.0001   -7.4631   22.7475 H   0  0  0  0  0  0
  -21.0841   -8.8777   19.8956 H   0  0  0  0  0  0
  -22.3696  -10.9680   19.6173 H   0  0  0  0  0  0
  -21.2001   -7.6152   23.9720 H   0  0  0  0  0  0
  -21.1482   -6.0525   25.9082 H   0  0  0  0  0  0
  -22.0598   -2.7611   23.2846 H   0  0  0  0  0  0
  -22.4094  -11.9883   22.4795 H   0  0  0  0  0  0
  -21.1114  -13.1272   22.2621 H   0  0  0  0  0  0
  -24.6626  -15.8429   20.5218 H   0  0  0  0  0  0
  -26.2723  -15.6268   20.0625 H   0  0  0  0  0  0
  -26.7116  -32.5517   23.1108 H   0  0  0  0  0  0
  -25.0059  -33.9768   25.0460 H   0  0  0  0  0  0
  -22.6963  -31.3012   21.4004 H   0  0  0  0  0  0
  -23.3752  -35.9638   23.3316 H   0  0  0  0  0  0
  -24.3580  -36.8911   22.2053 H   0  0  0  0  0  0
  -23.7235  -37.6513   23.6645 H   0  0  0  0  0  0
  -26.0531  -31.5782   20.5865 H   0  0  0  0  0  0
  -26.8243  -30.8812   21.9806 H   0  0  0  0  0  0
  -28.1134  -29.0819   21.1565 H   0  0  0  0  0  0
  -26.0679  -25.9348   19.0420 H   0  0  0  0  0  0
  -23.9818  -27.2709   19.0509 H   0  0  0  0  0  0
  -23.7332  -30.5814   19.4020 H   0  0  0  0  0  0
  -22.7403  -29.2342   19.8686 H   0  0  0  0  0  0
  -25.1284  -36.1959   25.0834 H   0  0  0  0  0  0
  -20.9970  -28.3219   24.1432 H   0  0  0  0  0  0
  -20.5654  -26.2257   23.3615 H   0  0  0  0  0  0
  -21.6631  -26.7411   22.1224 H   0  0  0  0  0  0
  -19.6908  -25.6294   21.1228 H   0  0  0  0  0  0
  -19.6694  -27.3207   20.6766 H   0  0  0  0  0  0
  -17.4196  -26.6681   21.4019 H   0  0  0  0  0  0
  -18.0300  -26.0063   22.9009 H   0  0  0  0  0  0
  -19.7939  -30.7265   24.2255 H   0  0  0  0  0  0
  -17.5021  -31.6259   24.5170 H   0  0  0  0  0  0
  -15.5354  -30.2986   23.7657 H   0  0  0  0  0  0
  -15.8663  -28.0833   22.7036 H   0  0  0  0  0  0
  -24.5923  -30.7008   25.7817 H   0  0  0  0  0  0
  -24.8891  -32.2863   26.4866 H   0  0  0  0  0  0
  -25.8093  -30.8923   27.0227 H   0  0  0  0  0  0
  -26.2822  -29.6819   24.1100 H   0  0  0  0  0  0
  -27.4035  -29.7234   25.4513 H   0  0  0  0  0  0
  -27.8664  -30.4356   23.9234 H   0  0  0  0  0  0
  -27.2659  -33.3594   26.2045 H   0  0  0  0  0  0
  -28.3859  -32.6833   25.0319 H   0  0  0  0  0  0
  -28.0674  -31.8408   26.5408 H   0  0  0  0  0  0
  -28.2605  -38.0093   24.7520 H   0  0  0  0  0  0
  -28.1057  -36.2623   24.6292 H   0  0  0  0  0  0
  -27.2296  -37.1460   25.8878 H   0  0  0  0  0  0
  -20.9293  -29.8761   21.6967 H   0  0  0  0  0  0
  -26.0175  -38.2877   24.1412 H   0  0  0  0  0  0
  -32.8199  -18.8281   22.4718 H   0  0  0  0  0  0
  -28.6710  -20.9406   25.8319 H   0  0  0  0  0  0
  -31.4033  -20.6932   21.6579 H   0  0  0  0  0  0
  -32.1550  -16.4858   22.1000 H   0  0  0  0  0  0
  -29.6010  -21.9458   23.7860 H   0  0  0  0  0  0
  -26.6673  -19.4664   25.7095 H   0  0  0  0  0  0
  -28.5672  -17.8456   20.0963 H   0  0  0  0  0  0
  -26.4900  -20.0357   21.4553 H   0  0  0  0  0  0
  -28.1814  -20.2254   19.7583 H   0  0  0  0  0  0
  -29.6586  -21.0989   19.5066 H   0  0  0  0  0  0
  -27.2695  -23.8777   20.4837 H   0  0  0  0  0  0
  -28.6356  -24.0260   19.4082 H   0  0  0  0  0  0
  -29.1600  -23.3976   22.3075 H   0  0  0  0  0  0
  -30.1768  -23.0336   20.9571 H   0  0  0  0  0  0
  -29.5939  -25.6386   21.3168 H   0  0  0  0  0  0
  -27.9524  -25.7275   21.8681 H   0  0  0  0  0  0
  -28.9223  -15.4080   20.9610 H   0  0  0  0  0  0
  1 25  1  0  0  0
  1 30  2  0  0  0
  1 87  1  0  0  0
  2  3  1  0  0  0
  2 25  1  0  0  0
  2 90  1  0  0  0
  2 91  1  0  0  0
  3  4  1  0  0  0
  3 92  1  0  0  0
  3 93  1  0  0  0
  4  5  1  0  0  0
  4 94  1  0  0  0
  4 95  1  0  0  0
  5  6  1  0  0  0
  5 26  1  0  0  0
  5 96  1  0  0  0
  6 25  1  0  0  0
  6 97  1  0  0  0
  6 98  1  0  0  0
  7  8  2  0  0  0
  7 26  1  0  0  0
  7 29  1  0  0  0
  8  9  1  0  0  0
  8 22  1  0  0  0
  9 10  1  0  0  0
  9 27  2  0  0  0
 10 11  2  0  0  0
 10 15  1  0  0  0
 11 12  1  0  0  0
 11 99  1  0  0  0
 12 13  2  0  0  0
 12100  1  0  0  0
 13 14  1  0  0  0
 13 31  1  0  0  0
 14 15  2  0  0  0
 14101  1  0  0  0
 15102  1  0  0  0
 16 17  2  0  0  0
 16 21  1  0  0  0
 16 31  1  0  0  0
 17 18  1  0  0  0
 17103  1  0  0  0
 18 19  2  0  0  0
 18104  1  0  0  0
 19 20  1  0  0  0
 19 24  1  0  0  0
 20 21  2  0  0  0
 20105  1  0  0  0
 21 23  1  0  0  0
 22 28  1  0  0  0
 22 32  2  0  0  0
 26 27  1  0  0  0
 28106  1  0  0  0
 28107  1  0  0  0
 29108  1  0  0  0
 29109  1  0  0  0
 33 34  1  0  0  0
 33 66  1  0  0  0
 33 70  2  0  0  0
 34 36  1  0  0  0
 34 59  1  0  0  0
 34110  1  0  0  0
 35 44  2  0  0  0
 35 45  1  0  0  0
 35 68  1  0  0  0
 36 56  1  0  0  0
 36111  1  0  0  0
 37 39  1  0  0  0
 37 47  1  0  0  0
 37 66  1  0  0  0
 37112  1  0  0  0
 38 43  2  0  0  0
 38 46  1  0  0  0
 38 47  1  0  0  0
 39 64  1  0  0  0
 39 67  2  0  0  0
 40 52  1  0  0  0
 40 53  2  0  0  0
 40 58  1  0  0  0
 41113  1  0  0  0
 41114  1  0  0  0
 41115  1  0  0  0
 41 48  1  0  0  0
 42 43  1  0  0  0
 42 66  1  0  0  0
 42116  1  0  0  0
 42117  1  0  0  0
 43 44  1  0  0  0
 44118  1  0  0  0
 45 46  2  0  0  0
 45119  1  0  0  0
 46120  1  0  0  0
 47121  1  0  0  0
 47122  1  0  0  0
 48 56  1  0  0  0
 48 65  1  0  0  0
 48123  1  0  0  0
 49 50  1  0  0  0
 49 53  1  0  0  0
 49 64  1  0  0  0
 49124  1  0  0  0
 50 51  1  0  0  0
 50125  1  0  0  0
 50126  1  0  0  0
 51 52  1  0  0  0
 51127  1  0  0  0
 51128  1  0  0  0
 52129  1  0  0  0
 52130  1  0  0  0
 53 54  1  0  0  0
 54 55  2  0  0  0
 54131  1  0  0  0
 55 57  1  0  0  0
 55132  1  0  0  0
 56 69  2  0  0  0
 57 58  2  0  0  0
 57133  1  0  0  0
 58134  1  0  0  0
 59 60  1  0  0  0
 59 61  1  0  0  0
 59 62  1  0  0  0
 60135  1  0  0  0
 60136  1  0  0  0
 60137  1  0  0  0
 61138  1  0  0  0
 61139  1  0  0  0
 61140  1  0  0  0
 62141  1  0  0  0
 62142  1  0  0  0
 62143  1  0  0  0
 63 65  1  0  0  0
 63144  1  0  0  0
 63145  1  0  0  0
 63146  1  0  0  0
 64147  1  0  0  0
 65148  1  0  0  0
 68 86  1  0  0  0
 71 73  2  0  0  0
 71 74  1  0  0  0
 71149  1  0  0  0
 72 75  2  0  0  0
 72 76  1  0  0  0
 72150  1  0  0  0
 73 79  1  0  0  0
 73151  1  0  0  0
 74 80  2  0  0  0
 74152  1  0  0  0
 75 81  1  0  0  0
 75153  1  0  0  0
 76 82  2  0  0  0
 76154  1  0  0  0
 77 79  2  0  0  0
 77 80  1  0  0  0
 77155  1  0  0  0
 78 81  2  0  0  0
 78 82  1  0  0  0
 78156  1  0  0  0
 79 83  1  0  0  0
 80 87  1  0  0  0
 81 88  1  0  0  0
 82 89  1  0  0  0
 83 88  1  0  0  0
 83157  1  0  0  0
 83158  1  0  0  0
 84 85  1  0  0  0
 84 86  1  0  0  0
 84159  1  0  0  0
 84160  1  0  0  0
 85 88  1  0  0  0
 85161  1  0  0  0
 85162  1  0  0  0
 86163  1  0  0  0
 86164  1  0  0  0
 87165  1  0  0  0
M  ISO  4   1 100  68 101  86 101  87 100
M  END
> <chiral flag>
0

> <version>
0

> <s_m_source_file>
/data/baiqing/PycharmProjects/Reinvent-master-3.2/result/LINK_invent/BTK/process_docking_weight1_custom_product_contain_oxygen_bond_distance_aromatic_linkinvent_7_9_3/rearranged_h_0015.sdf

> <i_m_source_file_index>
50

> <r_mmod_Potential_Energy-OPLS-2005>
30.9232578277588

> <r_mmod_Stretch_Energy-OPLS-2005>
51.0921020507812

> <r_mmod_Bend_Energy-OPLS-2005>
113.000244140625

> <r_mmod_Torsional_Energy-OPLS-2005>
265.166595458984

> <r_mmod_Improper_Torsional_Energy-OPLS-2005>
6.48609924316406

> <r_mmod_Van_der_Waal_Energy-OPLS-2005>
159.748306274414

> <r_mmod_Electrostatic_Energy-OPLS-2005>
-373.155090332031

> <r_mmod_Solvation_Energy-OPLS-2005>
-211.825469970703

> <b_mmod_Minimization_Converged-OPLS-2005>
0

> <r_mmod_RMS_Derivative-OPLS-2005>
1.51206934452057

$$$$
50
                    3D
 Structure written by MMmdl.
160169  0  0  1  0            999 V2000
  -30.6999  -14.5080   20.5324 C   0  0  0  0  0  0
  -30.4278  -12.3181   19.4363 C   0  0  0  0  0  0
  -29.5042  -12.4997   18.2137 C   0  0  0  0  0  0
  -28.0232  -12.3644   18.6221 C   0  0  0  0  0  0
  -27.6629  -13.2131   19.8717 C   0  0  2  0  0  0
  -28.7077  -13.0262   20.9973 C   0  0  0  0  0  0
  -25.2614  -13.8171   20.5712 C   0  0  0  0  0  0
  -24.1859  -13.0441   20.9178 C   0  0  0  0  0  0
  -24.6412  -11.6910   20.8724 C   0  0  0  0  0  0
  -23.9075  -10.4296   21.0392 C   0  0  0  0  0  0
  -24.3612   -9.4210   21.9175 C   0  0  0  0  0  0
  -23.6283   -8.2249   22.0751 C   0  0  0  0  0  0
  -22.4262   -8.0286   21.3548 C   0  0  0  0  0  0
  -21.9900   -9.0272   20.4653 C   0  0  0  0  0  0
  -22.7242  -10.2145   20.3048 C   0  0  0  0  0  0
  -21.6859   -6.0729   22.5275 C   0  0  0  0  0  0
  -21.4014   -6.5629   23.8206 C   0  0  0  0  0  0
  -21.3654   -5.6778   24.9167 C   0  0  0  0  0  0
  -21.6048   -4.3045   24.7218 C   0  0  0  0  0  0
  -21.8823   -3.8145   23.4340 C   0  0  0  0  0  0
  -21.9196   -4.6959   22.3394 C   0  0  0  0  0  0
  -22.7877  -13.5245   21.1828 C   0  0  0  0  0  0
  -22.1666   -4.2143   21.0972 F   0  0  0  0  0  0
  -21.5630   -3.4522   25.7732 F   0  0  0  0  0  0
  -30.0360  -13.3232   20.4387 N   0  0  0  0  0  0
  -26.3049  -12.9358   20.3362 N   0  0  0  0  0  0
  -25.9350  -11.6505   20.5753 N   0  0  0  0  0  0
  -22.0490  -12.8260   22.0378 N   0  0  0  0  0  0
  -25.4344  -15.1898   20.4190 N   0  0  0  0  0  0
  -31.8415  -14.6638   20.0938 O   0  0  0  0  0  0
  -21.6632   -6.8883   21.4243 O   0  0  0  0  0  0
  -22.3574  -14.5549   20.6662 O   0  0  0  0  0  0
  -24.6201  -31.8667   23.2109 C   0  0  0  0  0  0
  -25.9090  -32.4811   23.8405 C   0  0  1  0  0  0
  -27.2230  -27.3921   20.1005 C   0  0  0  0  0  0
  -25.5935  -33.8604   24.2333 N   0  0  0  0  0  0
  -23.4082  -30.4944   21.5536 C   0  0  2  0  0  0
  -24.8529  -28.9672   20.1097 C   0  0  0  0  0  0
  -22.7441  -29.4658   22.4974 C   0  0  0  0  0  0
  -18.0275  -28.1386   22.8490 C   0  0  0  0  0  0
  -24.1489  -36.7290   23.2632 C   0  0  0  0  0  0
  -25.9448  -30.8203   21.3734 C   0  0  0  0  0  0
  -26.0189  -29.4560   20.7117 C   0  0  0  0  0  0
  -27.2060  -28.6778   20.7035 C   0  0  0  0  0  0
  -26.0355  -26.9473   19.4668 C   0  0  0  0  0  0
  -24.8589  -27.7146   19.4817 C   0  0  0  0  0  0
  -23.6183  -29.8389   20.1653 C   0  0  0  0  0  0
  -25.4101  -36.3090   24.0339 C   0  0  1  0  0  0
  -20.5871  -28.3678   23.1315 C   0  0  2  0  0  0
  -20.6769  -26.9413   22.5426 C   0  0  0  0  0  0
  -19.5753  -26.6392   21.5215 C   0  0  0  0  0  0
  -18.1924  -26.7934   22.1615 C   0  0  0  0  0  0
  -19.1523  -28.8847   23.2897 C   0  0  0  0  0  0
  -18.9451  -30.1446   23.8912 C   0  0  0  0  0  0
  -17.6452  -30.6592   24.0556 C   0  0  0  0  0  0
  -25.9038  -34.9471   23.5128 C   0  0  0  0  0  0
  -16.5341  -29.9086   23.6328 C   0  0  0  0  0  0
  -16.7260  -28.6497   23.0354 C   0  0  0  0  0  0
  -26.4489  -31.6587   25.0744 C   0  0  0  0  0  0
  -25.3744  -31.3728   26.1492 C   0  0  0  0  0  0
  -27.0285  -30.3005   24.6156 C   0  0  0  0  0  0
  -27.6087  -32.4287   25.7487 C   0  0  0  0  0  0
  -27.5588  -37.1769   24.8438 C   0  0  0  0  0  0
  -21.4159  -29.3034   22.3716 N   0  0  0  0  0  0
  -26.4264  -37.3802   23.9441 N   0  0  0  0  0  0
  -24.6761  -31.0742   22.1037 N   0  0  0  0  0  0
  -23.4199  -28.8189   23.3019 O   0  0  0  0  0  0
  -28.3553  -26.5833   20.1672 O   0  0  0  0  0  0
  -26.5591  -34.8923   22.4680 O   0  0  0  0  0  0
  -23.5386  -32.1435   23.7479 O   0  0  0  0  0  0
  -30.5393  -24.5599   20.6246 C   0  0  0  0  0  0
  -31.5023  -23.6243   21.0563 C   0  0  0  0  0  0
  -28.8242  -22.8421   20.8389 C   0  0  0  0  0  0
  -29.1877  -24.1802   20.5164 C   0  0  0  0  0  0
  -29.7808  -21.8910   21.2892 C   0  0  0  0  0  0
  -31.1317  -22.3044   21.3932 C   0  0  0  0  0  0
  -29.6597  -17.5659   19.3891 C   0  0  0  0  0  0
  -29.4827  -19.0818   19.6600 C   0  0  0  0  0  0
  -29.8886  -18.0134   21.7290 C   0  0  0  0  0  0
  -30.3142  -16.9909   20.6556 C   0  0  1  0  0  0
  -29.3412  -20.4832   21.7559 C   0  0  0  0  0  0
  -28.1158  -25.1584   20.0116 C   0  0  0  0  0  0
  -29.9662  -15.5726   20.9280 N   0  0  0  0  0  0
  -29.9668  -19.3288   21.0384 N   0  3  2  0  0  0
  -32.3526  -21.2094   21.9397 Cl  0  0  0  0  0  0
  -31.4740  -12.4079   19.1353 H   0  0  0  0  0  0
  -30.3244  -11.3146   19.8519 H   0  0  0  0  0  0
  -29.7497  -11.7669   17.4433 H   0  0  0  0  0  0
  -29.6766  -13.4793   17.7659 H   0  0  0  0  0  0
  -27.8311  -11.3099   18.8229 H   0  0  0  0  0  0
  -27.3786  -12.6380   17.7856 H   0  0  0  0  0  0
  -27.6980  -14.2554   19.5550 H   0  0  0  0  0  0
  -28.6907  -12.0023   21.3736 H   0  0  0  0  0  0
  -28.4760  -13.6620   21.8537 H   0  0  0  0  0  0
  -25.2761   -9.5688   22.4743 H   0  0  0  0  0  0
  -23.9989   -7.4642   22.7473 H   0  0  0  0  0  0
  -21.0828   -8.8826   19.8968 H   0  0  0  0  0  0
  -22.3725  -10.9684   19.6149 H   0  0  0  0  0  0
  -21.2006   -7.6136   23.9711 H   0  0  0  0  0  0
  -21.1469   -6.0502   25.9070 H   0  0  0  0  0  0
  -22.0609   -2.7609   23.2840 H   0  0  0  0  0  0
  -22.4055  -11.9907   22.4788 H   0  0  0  0  0  0
  -21.1134  -13.1361   22.2580 H   0  0  0  0  0  0
  -24.6709  -15.8466   20.5403 H   0  0  0  0  0  0
  -26.2911  -15.6331   20.1154 H   0  0  0  0  0  0
  -26.7160  -32.5511   23.1156 H   0  0  0  0  0  0
  -25.0135  -33.9760   25.0515 H   0  0  0  0  0  0
  -22.6968  -31.3127   21.4222 H   0  0  0  0  0  0
  -23.3781  -35.9588   23.3231 H   0  0  0  0  0  0
  -24.3624  -36.8960   22.2062 H   0  0  0  0  0  0
  -23.7202  -37.6456   23.6689 H   0  0  0  0  0  0
  -26.0688  -31.5923   20.6128 H   0  0  0  0  0  0
  -26.8279  -30.8643   21.9992 H   0  0  0  0  0  0
  -28.0988  -29.0452   21.1890 H   0  0  0  0  0  0
  -25.9811  -25.9960   18.9604 H   0  0  0  0  0  0
  -23.9646  -27.3354   19.0065 H   0  0  0  0  0  0
  -23.7316  -30.6212   19.4139 H   0  0  0  0  0  0
  -22.7400  -29.2662   19.8628 H   0  0  0  0  0  0
  -25.1266  -36.1926   25.0827 H   0  0  0  0  0  0
  -20.9957  -28.3253   24.1437 H   0  0  0  0  0  0
  -20.5713  -26.2271   23.3607 H   0  0  0  0  0  0
  -21.6637  -26.7480   22.1206 H   0  0  0  0  0  0
  -19.6920  -25.6305   21.1247 H   0  0  0  0  0  0
  -19.6709  -27.3191   20.6737 H   0  0  0  0  0  0
  -17.4215  -26.6703   21.3992 H   0  0  0  0  0  0
  -18.0302  -26.0071   22.9003 H   0  0  0  0  0  0
  -19.7924  -30.7247   24.2310 H   0  0  0  0  0  0
  -17.5008  -31.6270   24.5158 H   0  0  0  0  0  0
  -15.5342  -30.2980   23.7658 H   0  0  0  0  0  0
  -15.8659  -28.0808   22.7081 H   0  0  0  0  0  0
  -24.5898  -30.7092   25.7826 H   0  0  0  0  0  0
  -24.8953  -32.2905   26.4922 H   0  0  0  0  0  0
  -25.8085  -30.8902   27.0261 H   0  0  0  0  0  0
  -26.2815  -29.6787   24.1211 H   0  0  0  0  0  0
  -27.4002  -29.7227   25.4626 H   0  0  0  0  0  0
  -27.8690  -30.4256   23.9326 H   0  0  0  0  0  0
  -27.2738  -33.3590   26.2080 H   0  0  0  0  0  0
  -28.3879  -32.6841   25.0294 H   0  0  0  0  0  0
  -28.0783  -31.8405   26.5378 H   0  0  0  0  0  0
  -28.2530  -38.0142   24.7614 H   0  0  0  0  0  0
  -28.1156  -36.2686   24.6079 H   0  0  0  0  0  0
  -27.2347  -37.1193   25.8844 H   0  0  0  0  0  0
  -20.9337  -29.8708   21.6885 H   0  0  0  0  0  0
  -26.0137  -38.2853   24.1536 H   0  0  0  0  0  0
  -30.8433  -25.5665   20.3751 H   0  0  0  0  0  0
  -32.5377  -23.9259   21.1386 H   0  0  0  0  0  0
  -27.7845  -22.5519   20.7618 H   0  0  0  0  0  0
  -30.2677  -17.3824   18.5027 H   0  0  0  0  0  0
  -28.6849  -17.1095   19.2115 H   0  0  0  0  0  0
  -28.4276  -19.3452   19.5721 H   0  0  0  0  0  0
  -30.0333  -19.6952   18.9460 H   0  0  0  0  0  0
  -30.5317  -17.9805   22.6090 H   0  0  0  0  0  0
  -28.8630  -17.8249   22.0527 H   0  0  0  0  0  0
  -31.3974  -17.0857   20.5458 H   0  0  0  0  0  0
  -28.2551  -20.3958   21.7105 H   0  0  0  0  0  0
  -29.5950  -20.4078   22.8145 H   0  0  0  0  0  0
  -27.2019  -24.8834   20.5426 H   0  0  0  0  0  0
  -27.9595  -24.9384   18.9544 H   0  0  0  0  0  0
  -29.0393  -15.3713   21.2718 H   0  0  0  0  0  0
  -30.9530  -19.5429   20.9762 H   0  0  0  0  0  0
  1 25  1  0  0  0
  1 30  2  0  0  0
  1 83  1  0  0  0
  2  3  1  0  0  0
  2 25  1  0  0  0
  2 86  1  0  0  0
  2 87  1  0  0  0
  3  4  1  0  0  0
  3 88  1  0  0  0
  3 89  1  0  0  0
  4  5  1  0  0  0
  4 90  1  0  0  0
  4 91  1  0  0  0
  5  6  1  0  0  0
  5 26  1  0  0  0
  5 92  1  0  0  0
  6 25  1  0  0  0
  6 93  1  0  0  0
  6 94  1  0  0  0
  7  8  2  0  0  0
  7 26  1  0  0  0
  7 29  1  0  0  0
  8  9  1  0  0  0
  8 22  1  0  0  0
  9 10  1  0  0  0
  9 27  2  0  0  0
 10 11  2  0  0  0
 10 15  1  0  0  0
 11 12  1  0  0  0
 11 95  1  0  0  0
 12 13  2  0  0  0
 12 96  1  0  0  0
 13 14  1  0  0  0
 13 31  1  0  0  0
 14 15  2  0  0  0
 14 97  1  0  0  0
 15 98  1  0  0  0
 16 17  2  0  0  0
 16 21  1  0  0  0
 16 31  1  0  0  0
 17 18  1  0  0  0
 17 99  1  0  0  0
 18 19  2  0  0  0
 18100  1  0  0  0
 19 20  1  0  0  0
 19 24  1  0  0  0
 20 21  2  0  0  0
 20101  1  0  0  0
 21 23  1  0  0  0
 22 28  1  0  0  0
 22 32  2  0  0  0
 26 27  1  0  0  0
 28102  1  0  0  0
 28103  1  0  0  0
 29104  1  0  0  0
 29105  1  0  0  0
 33 34  1  0  0  0
 33 66  1  0  0  0
 33 70  2  0  0  0
 34 36  1  0  0  0
 34 59  1  0  0  0
 34106  1  0  0  0
 35 44  2  0  0  0
 35 45  1  0  0  0
 35 68  1  0  0  0
 36 56  1  0  0  0
 36107  1  0  0  0
 37 39  1  0  0  0
 37 47  1  0  0  0
 37 66  1  0  0  0
 37108  1  0  0  0
 38 43  2  0  0  0
 38 46  1  0  0  0
 38 47  1  0  0  0
 39 64  1  0  0  0
 39 67  2  0  0  0
 40 52  1  0  0  0
 40 53  2  0  0  0
 40 58  1  0  0  0
 41109  1  0  0  0
 41110  1  0  0  0
 41111  1  0  0  0
 41 48  1  0  0  0
 42 43  1  0  0  0
 42 66  1  0  0  0
 42112  1  0  0  0
 42113  1  0  0  0
 43 44  1  0  0  0
 44114  1  0  0  0
 45 46  2  0  0  0
 45115  1  0  0  0
 46116  1  0  0  0
 47117  1  0  0  0
 47118  1  0  0  0
 48 56  1  0  0  0
 48 65  1  0  0  0
 48119  1  0  0  0
 49 50  1  0  0  0
 49 53  1  0  0  0
 49 64  1  0  0  0
 49120  1  0  0  0
 50 51  1  0  0  0
 50121  1  0  0  0
 50122  1  0  0  0
 51 52  1  0  0  0
 51123  1  0  0  0
 51124  1  0  0  0
 52125  1  0  0  0
 52126  1  0  0  0
 53 54  1  0  0  0
 54 55  2  0  0  0
 54127  1  0  0  0
 55 57  1  0  0  0
 55128  1  0  0  0
 56 69  2  0  0  0
 57 58  2  0  0  0
 57129  1  0  0  0
 58130  1  0  0  0
 59 60  1  0  0  0
 59 61  1  0  0  0
 59 62  1  0  0  0
 60131  1  0  0  0
 60132  1  0  0  0
 60133  1  0  0  0
 61134  1  0  0  0
 61135  1  0  0  0
 61136  1  0  0  0
 62137  1  0  0  0
 62138  1  0  0  0
 62139  1  0  0  0
 63 65  1  0  0  0
 63140  1  0  0  0
 63141  1  0  0  0
 63142  1  0  0  0
 64143  1  0  0  0
 65144  1  0  0  0
 68 82  1  0  0  0
 71 72  2  0  0  0
 71 74  1  0  0  0
 71145  1  0  0  0
 72 76  1  0  0  0
 72146  1  0  0  0
 73 74  2  0  0  0
 73 75  1  0  0  0
 73147  1  0  0  0
 74 82  1  0  0  0
 75 76  2  0  0  0
 75 81  1  0  0  0
 76 85  1  0  0  0
 77 78  1  0  0  0
 77 80  1  0  0  0
 77148  1  0  0  0
 77149  1  0  0  0
 78 84  1  0  0  0
 78150  1  0  0  0
 78151  1  0  0  0
 79 80  1  0  0  0
 79 84  1  0  0  0
 79152  1  0  0  0
 79153  1  0  0  0
 80 83  1  0  0  0
 80154  1  0  0  0
 81155  1  0  0  0
 81156  1  0  0  0
 81 84  1  0  0  0
 82157  1  0  0  0
 82158  1  0  0  0
 83159  1  0  0  0
 84160  1  0  0  0
M  CHG  1  84   1
M  ISO  4   1 100  68 101  82 101  83 100
M  END
> <chiral flag>
0

> <version>
0

> <s_m_source_file>
/data/baiqing/PycharmProjects/Reinvent-master-3.2/result/LINK_invent/BTK/process_docking_weight1_custom_product_contain_oxygen_bond_distance_aromatic_linkinvent_7_9_3/rearranged_h_0015.sdf

> <i_m_source_file_index>
51

> <r_mmod_Potential_Energy-OPLS-2005>
-145.315277099609

> <r_mmod_Stretch_Energy-OPLS-2005>
45.2922019958496

> <r_mmod_Bend_Energy-OPLS-2005>
124.838256835938

> <r_mmod_Torsional_Energy-OPLS-2005>
258.853363037109

> <r_mmod_Improper_Torsional_Energy-OPLS-2005>
5.52259588241577

> <r_mmod_Van_der_Waal_Energy-OPLS-2005>
149.573013305664

> <r_mmod_Electrostatic_Energy-OPLS-2005>
-293.346893310547

> <r_mmod_Solvation_Energy-OPLS-2005>
-458.621765136719

> <b_mmod_Minimization_Converged-OPLS-2005>
0

> <r_mmod_RMS_Derivative-OPLS-2005>
2.18472790718079

$$$$
51
                    3D
 Structure written by MMmdl.
159168  0  0  1  0            999 V2000
  -30.5899  -14.7503   20.3548 C   0  0  0  0  0  0
  -30.4388  -12.4238   19.4704 C   0  0  0  0  0  0
  -29.5037  -12.3826   18.2407 C   0  0  0  0  0  0
  -28.0237  -12.2775   18.6639 C   0  0  0  0  0  0
  -27.6305  -13.2030   19.8492 C   0  0  2  0  0  0
  -28.6926  -13.1821   20.9681 C   0  0  0  0  0  0
  -25.2486  -13.8065   20.5772 C   0  0  0  0  0  0
  -24.1743  -13.0349   20.9279 C   0  0  0  0  0  0
  -24.6313  -11.6836   20.8827 C   0  0  0  0  0  0
  -23.8990  -10.4230   21.0455 C   0  0  0  0  0  0
  -24.3554   -9.4158   21.9233 C   0  0  0  0  0  0
  -23.6229   -8.2197   22.0781 C   0  0  0  0  0  0
  -22.4235   -8.0231   21.3543 C   0  0  0  0  0  0
  -21.9860   -9.0214   20.4665 C   0  0  0  0  0  0
  -22.7179  -10.2089   20.3081 C   0  0  0  0  0  0
  -21.6822   -6.0696   22.5278 C   0  0  0  0  0  0
  -21.4008   -6.5624   23.8204 C   0  0  0  0  0  0
  -21.3635   -5.6794   24.9179 C   0  0  0  0  0  0
  -21.6026   -4.3058   24.7249 C   0  0  0  0  0  0
  -21.8807   -3.8126   23.4386 C   0  0  0  0  0  0
  -21.9185   -4.6929   22.3425 C   0  0  0  0  0  0
  -22.7790  -13.5193   21.1897 C   0  0  0  0  0  0
  -22.1660   -4.2106   21.1009 F   0  0  0  0  0  0
  -21.5622   -3.4550   25.7776 F   0  0  0  0  0  0
  -29.9793  -13.5174   20.3503 N   0  0  0  0  0  0
  -26.2890  -12.9215   20.3398 N   0  0  0  0  0  0
  -25.9247  -11.6396   20.5878 N   0  0  0  0  0  0
  -22.0413  -12.8176   22.0434 N   0  0  0  0  0  0
  -25.4183  -15.1754   20.4134 N   0  0  0  0  0  0
  -31.8171  -14.8218   20.2506 O   0  0  0  0  0  0
  -21.6602   -6.8835   21.4228 O   0  0  0  0  0  0
  -22.3521  -14.5531   20.6782 O   0  0  0  0  0  0
  -24.6245  -31.8587   23.1981 C   0  0  0  0  0  0
  -25.9085  -32.4783   23.8348 C   0  0  1  0  0  0
  -27.2430  -27.3385   20.1265 C   0  0  0  0  0  0
  -25.5888  -33.8576   24.2301 N   0  0  0  0  0  0
  -23.4171  -30.4699   21.5435 C   0  0  2  0  0  0
  -24.8673  -28.9179   20.1143 C   0  0  0  0  0  0
  -22.7462  -29.4564   22.5013 C   0  0  0  0  0  0
  -18.0279  -28.1349   22.8493 C   0  0  0  0  0  0
  -24.1459  -36.7288   23.2629 C   0  0  0  0  0  0
  -25.9513  -30.7968   21.3621 C   0  0  0  0  0  0
  -26.0294  -29.4223   20.7100 C   0  0  0  0  0  0
  -27.2160  -28.6399   20.7057 C   0  0  0  0  0  0
  -26.0604  -26.8679   19.5166 C   0  0  0  0  0  0
  -24.8810  -27.6471   19.5085 C   0  0  0  0  0  0
  -23.6275  -29.7840   20.1666 C   0  0  0  0  0  0
  -25.4080  -36.3083   24.0331 C   0  0  1  0  0  0
  -20.5865  -28.3614   23.1319 C   0  0  2  0  0  0
  -20.6749  -26.9352   22.5403 C   0  0  0  0  0  0
  -19.5737  -26.6341   21.5197 C   0  0  0  0  0  0
  -18.1904  -26.7902   22.1595 C   0  0  0  0  0  0
  -19.1532  -28.8814   23.2880 C   0  0  0  0  0  0
  -18.9456  -30.1423   23.8870 C   0  0  0  0  0  0
  -17.6458  -30.6558   24.0543 C   0  0  0  0  0  0
  -25.9001  -34.9459   23.5109 C   0  0  0  0  0  0
  -16.5345  -29.9039   23.6349 C   0  0  0  0  0  0
  -16.7267  -28.6453   23.0383 C   0  0  0  0  0  0
  -26.4476  -31.6624   25.0762 C   0  0  0  0  0  0
  -25.3712  -31.3752   26.1523 C   0  0  0  0  0  0
  -27.0343  -30.3061   24.6196 C   0  0  0  0  0  0
  -27.6014  -32.4407   25.7528 C   0  0  0  0  0  0
  -27.5580  -37.1765   24.8463 C   0  0  0  0  0  0
  -21.4176  -29.2976   22.3760 N   0  0  0  0  0  0
  -26.4286  -37.3771   23.9431 N   0  0  0  0  0  0
  -24.6816  -31.0602   22.0918 N   0  0  0  0  0  0
  -23.4207  -28.8096   23.3075 O   0  0  0  0  0  0
  -28.4122  -26.5774   20.2134 O   0  0  0  0  0  0
  -26.5557  -34.8926   22.4670 O   0  0  0  0  0  0
  -23.5415  -32.1401   23.7307 O   0  0  0  0  0  0
  -27.9578  -19.0249   20.6421 C   0  0  0  0  0  0
  -28.2777  -17.6428   20.5224 C   0  0  0  0  0  0
  -30.2791  -19.5791   20.4836 C   0  0  0  0  0  0
  -28.9377  -20.0559   20.5899 C   0  0  0  0  0  0
  -29.6051  -17.1665   20.3692 C   0  0  0  0  0  0
  -30.6086  -18.1820   20.3828 C   0  0  0  0  0  0
  -27.0428  -23.3555   20.6544 C   0  0  0  0  0  0
  -27.2275  -21.8879   21.0946 C   0  0  0  0  0  0
  -29.3041  -22.6611   20.2065 C   0  0  0  0  0  0
  -28.4557  -23.9449   20.5802 C   0  0  1  0  0  0
  -29.6548  -15.7825   18.3936 C   0  0  0  0  0  0
  -28.5842  -25.2320   19.6509 C   0  0  0  0  0  0
  -28.5511  -21.4548   20.6373 N   0  0  0  0  0  0
  -29.8111  -15.7965   19.8631 N   0  0  0  0  0  0
  -31.9077  -17.8341   20.2223 F   0  0  0  0  0  0
  -31.4725  -12.5647   19.1516 H   0  0  0  0  0  0
  -30.4075  -11.4726   20.0058 H   0  0  0  0  0  0
  -29.7568  -11.5150   17.6316 H   0  0  0  0  0  0
  -29.6574  -13.2407   17.5918 H   0  0  0  0  0  0
  -27.8645  -11.2377   18.9524 H   0  0  0  0  0  0
  -27.3697  -12.4491   17.8088 H   0  0  0  0  0  0
  -27.5854  -14.2128   19.4590 H   0  0  0  0  0  0
  -28.7425  -12.2028   21.4452 H   0  0  0  0  0  0
  -28.4448  -13.9052   21.7474 H   0  0  0  0  0  0
  -25.2692   -9.5630   22.4829 H   0  0  0  0  0  0
  -23.9909   -7.4582   22.7513 H   0  0  0  0  0  0
  -21.0792   -8.8740   19.8984 H   0  0  0  0  0  0
  -22.3640  -10.9642   19.6207 H   0  0  0  0  0  0
  -21.2011   -7.6138   23.9690 H   0  0  0  0  0  0
  -21.1463   -6.0552   25.9066 H   0  0  0  0  0  0
  -22.0603   -2.7588   23.2921 H   0  0  0  0  0  0
  -22.3982  -11.9787   22.4772 H   0  0  0  0  0  0
  -21.1060  -13.1255   22.2701 H   0  0  0  0  0  0
  -24.6583  -15.8360   20.5254 H   0  0  0  0  0  0
  -26.2626  -15.5924   20.0450 H   0  0  0  0  0  0
  -26.7148  -32.5510   23.1103 H   0  0  0  0  0  0
  -25.0185  -33.9694   25.0556 H   0  0  0  0  0  0
  -22.7076  -31.2856   21.3901 H   0  0  0  0  0  0
  -23.3747  -35.9605   23.3307 H   0  0  0  0  0  0
  -24.3530  -36.8903   22.2039 H   0  0  0  0  0  0
  -23.7206  -37.6474   23.6666 H   0  0  0  0  0  0
  -26.0778  -31.5525   20.5872 H   0  0  0  0  0  0
  -26.8335  -30.8531   21.9879 H   0  0  0  0  0  0
  -28.1114  -29.0221   21.1738 H   0  0  0  0  0  0
  -26.0179  -25.8837   19.0730 H   0  0  0  0  0  0
  -23.9866  -27.2462   19.0515 H   0  0  0  0  0  0
  -23.7215  -30.5442   19.3912 H   0  0  0  0  0  0
  -22.7586  -29.1824   19.8935 H   0  0  0  0  0  0
  -25.1250  -36.1909   25.0822 H   0  0  0  0  0  0
  -20.9948  -28.3151   24.1456 H   0  0  0  0  0  0
  -20.5607  -26.2211   23.3574 H   0  0  0  0  0  0
  -21.6622  -26.7366   22.1234 H   0  0  0  0  0  0
  -19.6882  -25.6242   21.1246 H   0  0  0  0  0  0
  -19.6711  -27.3146   20.6734 H   0  0  0  0  0  0
  -17.4190  -26.6695   21.3973 H   0  0  0  0  0  0
  -18.0266  -26.0029   22.8966 H   0  0  0  0  0  0
  -19.7940  -30.7231   24.2253 H   0  0  0  0  0  0
  -17.5016  -31.6265   24.5095 H   0  0  0  0  0  0
  -15.5342  -30.2911   23.7701 H   0  0  0  0  0  0
  -15.8664  -28.0728   22.7175 H   0  0  0  0  0  0
  -24.5877  -30.7079   25.7910 H   0  0  0  0  0  0
  -24.8903  -32.2903   26.4990 H   0  0  0  0  0  0
  -25.8045  -30.8951   27.0301 H   0  0  0  0  0  0
  -26.2949  -29.6785   24.1199 H   0  0  0  0  0  0
  -27.4037  -29.7337   25.4702 H   0  0  0  0  0  0
  -27.8792  -30.4400   23.9432 H   0  0  0  0  0  0
  -27.2633  -33.3746   26.2063 H   0  0  0  0  0  0
  -28.3849  -32.6932   25.0360 H   0  0  0  0  0  0
  -28.0667  -31.8576   26.5490 H   0  0  0  0  0  0
  -28.2573  -38.0079   24.7577 H   0  0  0  0  0  0
  -28.1082  -36.2619   24.6223 H   0  0  0  0  0  0
  -27.2288  -37.1353   25.8850 H   0  0  0  0  0  0
  -20.9347  -29.8740   21.6999 H   0  0  0  0  0  0
  -26.0156  -38.2832   24.1477 H   0  0  0  0  0  0
  -26.9107  -19.2770   20.7204 H   0  0  0  0  0  0
  -27.4627  -16.9425   20.4733 H   0  0  0  0  0  0
  -31.0914  -20.2895   20.4573 H   0  0  0  0  0  0
  -26.3822  -23.9211   21.3188 H   0  0  0  0  0  0
  -26.5764  -23.3727   19.6674 H   0  0  0  0  0  0
  -26.4118  -21.2983   20.6784 H   0  0  0  0  0  0
  -27.1857  -21.7995   22.1824 H   0  0  0  0  0  0
  -30.2795  -22.7051   20.6913 H   0  0  0  0  0  0
  -29.4801  -22.6291   19.1320 H   0  0  0  0  0  0
  -28.7501  -24.2252   21.5919 H   0  0  0  0  0  0
  -28.7415  -15.2803   18.0845 H   0  0  0  0  0  0
  -30.4881  -15.2953   17.8813 H   0  0  0  0  0  0
  -29.5929  -16.7893   17.9756 H   0  0  0  0  0  0
  -28.0191  -25.0989   18.7309 H   0  0  0  0  0  0
  -29.6217  -25.2553   19.3108 H   0  0  0  0  0  0
  1 25  1  0  0  0
  1 30  2  0  0  0
  1 84  1  0  0  0
  2  3  1  0  0  0
  2 25  1  0  0  0
  2 86  1  0  0  0
  2 87  1  0  0  0
  3  4  1  0  0  0
  3 88  1  0  0  0
  3 89  1  0  0  0
  4  5  1  0  0  0
  4 90  1  0  0  0
  4 91  1  0  0  0
  5  6  1  0  0  0
  5 26  1  0  0  0
  5 92  1  0  0  0
  6 25  1  0  0  0
  6 93  1  0  0  0
  6 94  1  0  0  0
  7  8  2  0  0  0
  7 26  1  0  0  0
  7 29  1  0  0  0
  8  9  1  0  0  0
  8 22  1  0  0  0
  9 10  1  0  0  0
  9 27  2  0  0  0
 10 11  2  0  0  0
 10 15  1  0  0  0
 11 12  1  0  0  0
 11 95  1  0  0  0
 12 13  2  0  0  0
 12 96  1  0  0  0
 13 14  1  0  0  0
 13 31  1  0  0  0
 14 15  2  0  0  0
 14 97  1  0  0  0
 15 98  1  0  0  0
 16 17  2  0  0  0
 16 21  1  0  0  0
 16 31  1  0  0  0
 17 18  1  0  0  0
 17 99  1  0  0  0
 18 19  2  0  0  0
 18100  1  0  0  0
 19 20  1  0  0  0
 19 24  1  0  0  0
 20 21  2  0  0  0
 20101  1  0  0  0
 21 23  1  0  0  0
 22 28  1  0  0  0
 22 32  2  0  0  0
 26 27  1  0  0  0
 28102  1  0  0  0
 28103  1  0  0  0
 29104  1  0  0  0
 29105  1  0  0  0
 33 34  1  0  0  0
 33 66  1  0  0  0
 33 70  2  0  0  0
 34 36  1  0  0  0
 34 59  1  0  0  0
 34106  1  0  0  0
 35 44  2  0  0  0
 35 45  1  0  0  0
 35 68  1  0  0  0
 36 56  1  0  0  0
 36107  1  0  0  0
 37 39  1  0  0  0
 37 47  1  0  0  0
 37 66  1  0  0  0
 37108  1  0  0  0
 38 43  2  0  0  0
 38 46  1  0  0  0
 38 47  1  0  0  0
 39 64  1  0  0  0
 39 67  2  0  0  0
 40 52  1  0  0  0
 40 53  2  0  0  0
 40 58  1  0  0  0
 41109  1  0  0  0
 41110  1  0  0  0
 41111  1  0  0  0
 41 48  1  0  0  0
 42 43  1  0  0  0
 42 66  1  0  0  0
 42112  1  0  0  0
 42113  1  0  0  0
 43 44  1  0  0  0
 44114  1  0  0  0
 45 46  2  0  0  0
 45115  1  0  0  0
 46116  1  0  0  0
 47117  1  0  0  0
 47118  1  0  0  0
 48 56  1  0  0  0
 48 65  1  0  0  0
 48119  1  0  0  0
 49 50  1  0  0  0
 49 53  1  0  0  0
 49 64  1  0  0  0
 49120  1  0  0  0
 50 51  1  0  0  0
 50121  1  0  0  0
 50122  1  0  0  0
 51 52  1  0  0  0
 51123  1  0  0  0
 51124  1  0  0  0
 52125  1  0  0  0
 52126  1  0  0  0
 53 54  1  0  0  0
 54 55  2  0  0  0
 54127  1  0  0  0
 55 57  1  0  0  0
 55128  1  0  0  0
 56 69  2  0  0  0
 57 58  2  0  0  0
 57129  1  0  0  0
 58130  1  0  0  0
 59 60  1  0  0  0
 59 61  1  0  0  0
 59 62  1  0  0  0
 60131  1  0  0  0
 60132  1  0  0  0
 60133  1  0  0  0
 61134  1  0  0  0
 61135  1  0  0  0
 61136  1  0  0  0
 62137  1  0  0  0
 62138  1  0  0  0
 62139  1  0  0  0
 63 65  1  0  0  0
 63140  1  0  0  0
 63141  1  0  0  0
 63142  1  0  0  0
 64143  1  0  0  0
 65144  1  0  0  0
 68 82  1  0  0  0
 71 72  2  0  0  0
 71 74  1  0  0  0
 71145  1  0  0  0
 72 75  1  0  0  0
 72146  1  0  0  0
 73 74  2  0  0  0
 73 76  1  0  0  0
 73147  1  0  0  0
 74 83  1  0  0  0
 75 76  2  0  0  0
 75 84  1  0  0  0
 76 85  1  0  0  0
 77 78  1  0  0  0
 77 80  1  0  0  0
 77148  1  0  0  0
 77149  1  0  0  0
 78 83  1  0  0  0
 78150  1  0  0  0
 78151  1  0  0  0
 79 80  1  0  0  0
 79 83  1  0  0  0
 79152  1  0  0  0
 79153  1  0  0  0
 80 82  1  0  0  0
 80154  1  0  0  0
 81 84  1  0  0  0
 81155  1  0  0  0
 81156  1  0  0  0
 81157  1  0  0  0
 82158  1  0  0  0
 82159  1  0  0  0
M  ISO  4   1 100  68 101  82 101  84 100
M  END
> <chiral flag>
0

> <version>
0

> <s_m_source_file>
/data/baiqing/PycharmProjects/Reinvent-master-3.2/result/LINK_invent/BTK/process_docking_weight1_custom_product_contain_oxygen_bond_distance_aromatic_linkinvent_7_9_3/rearranged_h_0015.sdf

> <i_m_source_file_index>
52

> <r_mmod_Potential_Energy-OPLS-2005>
397.358306884766

> <r_mmod_Stretch_Energy-OPLS-2005>
83.6145858764648

> <r_mmod_Bend_Energy-OPLS-2005>
210.406036376953

> <r_mmod_Torsional_Energy-OPLS-2005>
386.013031005859

> <r_mmod_Improper_Torsional_Energy-OPLS-2005>
27.2587985992432

> <r_mmod_Van_der_Waal_Energy-OPLS-2005>
136.790618896484

> <r_mmod_Electrostatic_Energy-OPLS-2005>
-309.662841796875

> <r_mmod_Solvation_Energy-OPLS-2005>
-216.934997558594

> <b_mmod_Minimization_Converged-OPLS-2005>
0

> <r_mmod_RMS_Derivative-OPLS-2005>
4.46805763244629

$$$$
52
                    3D
 Structure written by MMmdl.
169178  0  0  1  0            999 V2000
  -30.6485  -14.7536   20.4690 C   0  0  0  0  0  0
  -30.4254  -12.4555   19.4945 C   0  0  0  0  0  0
  -29.5209  -12.5181   18.2493 C   0  0  0  0  0  0
  -28.0444  -12.3518   18.6513 C   0  0  0  0  0  0
  -27.6465  -13.2487   19.8566 C   0  0  2  0  0  0
  -28.6849  -13.1984   20.9969 C   0  0  0  0  0  0
  -25.2509  -13.8244   20.5698 C   0  0  0  0  0  0
  -24.1817  -13.0466   20.9224 C   0  0  0  0  0  0
  -24.6438  -11.6955   20.8745 C   0  0  0  0  0  0
  -23.9134  -10.4313   21.0419 C   0  0  0  0  0  0
  -24.3673   -9.4203   21.9189 C   0  0  0  0  0  0
  -23.6324   -8.2249   22.0742 C   0  0  0  0  0  0
  -22.4306   -8.0306   21.3543 C   0  0  0  0  0  0
  -21.9972   -9.0291   20.4644 C   0  0  0  0  0  0
  -22.7313  -10.2157   20.3053 C   0  0  0  0  0  0
  -21.6862   -6.0766   22.5288 C   0  0  0  0  0  0
  -21.4021   -6.5656   23.8226 C   0  0  0  0  0  0
  -21.3657   -5.6792   24.9185 C   0  0  0  0  0  0
  -21.6046   -4.3061   24.7225 C   0  0  0  0  0  0
  -21.8818   -3.8164   23.4340 C   0  0  0  0  0  0
  -21.9187   -4.6988   22.3403 C   0  0  0  0  0  0
  -22.7826  -13.5224   21.1889 C   0  0  0  0  0  0
  -22.1645   -4.2179   21.0976 F   0  0  0  0  0  0
  -21.5637   -3.4530   25.7733 F   0  0  0  0  0  0
  -29.9891  -13.5388   20.4150 N   0  0  0  0  0  0
  -26.2974  -12.9494   20.3321 N   0  0  0  0  0  0
  -25.9386  -11.6627   20.5786 N   0  0  0  0  0  0
  -22.0457  -12.8186   22.0425 N   0  0  0  0  0  0
  -25.4174  -15.1964   20.4079 N   0  0  0  0  0  0
  -31.8037  -14.8020   20.0410 O   0  0  0  0  0  0
  -21.6643   -6.8916   21.4257 O   0  0  0  0  0  0
  -22.3488  -14.5513   20.6706 O   0  0  0  0  0  0
  -24.6360  -31.8500   23.1961 C   0  0  0  0  0  0
  -25.9163  -32.4729   23.8300 C   0  0  1  0  0  0
  -27.2207  -27.2211   20.1267 C   0  0  0  0  0  0
  -25.5957  -33.8539   24.2239 N   0  0  0  0  0  0
  -23.4359  -30.4730   21.5374 C   0  0  2  0  0  0
  -24.8865  -28.9159   20.1063 C   0  0  0  0  0  0
  -22.7507  -29.4592   22.4879 C   0  0  0  0  0  0
  -18.0301  -28.1365   22.8486 C   0  0  0  0  0  0
  -24.1500  -36.7287   23.2642 C   0  0  0  0  0  0
  -25.9855  -30.7475   21.3835 C   0  0  0  0  0  0
  -26.0570  -29.3655   20.7298 C   0  0  0  0  0  0
  -27.2241  -28.5257   20.7390 C   0  0  0  0  0  0
  -26.0302  -26.8620   19.4554 C   0  0  0  0  0  0
  -24.8806  -27.6742   19.4573 C   0  0  0  0  0  0
  -23.6568  -29.8044   20.1545 C   0  0  0  0  0  0
  -25.4122  -36.3066   24.0335 C   0  0  1  0  0  0
  -20.5910  -28.3703   23.1253 C   0  0  2  0  0  0
  -20.6791  -26.9414   22.5399 C   0  0  0  0  0  0
  -19.5772  -26.6367   21.5207 C   0  0  0  0  0  0
  -18.1959  -26.7910   22.1619 C   0  0  0  0  0  0
  -19.1556  -28.8850   23.2870 C   0  0  0  0  0  0
  -18.9475  -30.1452   23.8881 C   0  0  0  0  0  0
  -17.6473  -30.6569   24.0567 C   0  0  0  0  0  0
  -25.9062  -34.9435   23.5095 C   0  0  0  0  0  0
  -16.5363  -29.9067   23.6332 C   0  0  0  0  0  0
  -16.7290  -28.6487   23.0348 C   0  0  0  0  0  0
  -26.4516  -31.6542   25.0691 C   0  0  0  0  0  0
  -25.3736  -31.3657   26.1404 C   0  0  0  0  0  0
  -27.0375  -30.2973   24.6157 C   0  0  0  0  0  0
  -27.6088  -32.4247   25.7454 C   0  0  0  0  0  0
  -27.5581  -37.1798   24.8464 C   0  0  0  0  0  0
  -21.4210  -29.3064   22.3627 N   0  0  0  0  0  0
  -26.4281  -37.3780   23.9429 N   0  0  0  0  0  0
  -24.7053  -31.0412   22.0961 N   0  0  0  0  0  0
  -23.4193  -28.8126   23.2990 O   0  0  0  0  0  0
  -28.2938  -26.2821   20.1962 O   0  0  0  0  0  0
  -26.5616  -34.8911   22.4645 O   0  0  0  0  0  0
  -23.5492  -32.1340   23.7216 O   0  0  0  0  0  0
  -31.5869  -18.0108   19.2607 C   0  0  0  0  0  0
  -32.4934  -18.8639   18.6166 C   0  0  0  0  0  0
  -31.1040  -20.7447   19.2442 C   0  0  0  0  0  0
  -30.3997  -18.4517   19.8970 C   0  0  0  0  0  0
  -32.2543  -20.2403   18.6119 C   0  0  0  0  0  0
  -30.1411  -19.9223   19.8840 C   0  0  0  0  0  0
  -33.9692  -21.9829   18.5339 C   0  0  0  0  0  0
  -34.4194  -23.0639   17.5651 C   0  0  0  0  0  0
  -33.5264  -22.8299   16.3420 C   0  0  0  0  0  0
  -32.9925  -21.4011   16.5130 C   0  0  0  0  0  0
  -30.4305  -16.1875   22.3796 C   0  0  0  0  0  0
  -29.4936  -17.2196   20.3731 C   0  0  0  0  0  0
  -28.9321  -23.5210   20.3789 C   0  0  0  0  0  0
  -28.5003  -22.0193   19.8815 C   0  0  0  0  0  0
  -28.0219  -24.8094   19.9150 C   0  0  0  0  0  0
  -33.1269  -21.1252   17.9354 N   0  0  0  0  0  0
  -29.0642  -20.7039   20.4499 N   0  0  0  0  0  0
  -30.0425  -15.9023   20.9988 N   0  0  0  0  0  0
  -34.3660  -21.9257   19.7013 O   0  0  0  0  0  0
  -31.4705  -12.5467   19.1949 H   0  0  0  0  0  0
  -30.3528  -11.4808   19.9804 H   0  0  0  0  0  0
  -29.8086  -11.7431   17.5371 H   0  0  0  0  0  0
  -29.6704  -13.4731   17.7423 H   0  0  0  0  0  0
  -27.8933  -11.3020   18.9038 H   0  0  0  0  0  0
  -27.3953  -12.5513   17.7981 H   0  0  0  0  0  0
  -27.6431  -14.2740   19.4856 H   0  0  0  0  0  0
  -28.7079  -12.2136   21.4650 H   0  0  0  0  0  0
  -28.4161  -13.9049   21.7839 H   0  0  0  0  0  0
  -25.2819   -9.5665   22.4775 H   0  0  0  0  0  0
  -24.0034   -7.4636   22.7434 H   0  0  0  0  0  0
  -21.0920   -8.8835   19.8925 H   0  0  0  0  0  0
  -22.3800  -10.9719   19.6156 H   0  0  0  0  0  0
  -21.2002   -7.6161   23.9754 H   0  0  0  0  0  0
  -21.1485   -6.0513   25.9096 H   0  0  0  0  0  0
  -22.0593   -2.7629   23.2829 H   0  0  0  0  0  0
  -22.4040  -11.9855   22.4853 H   0  0  0  0  0  0
  -21.1049  -13.1176   22.2582 H   0  0  0  0  0  0
  -24.6545  -15.8551   20.5307 H   0  0  0  0  0  0
  -26.2768  -15.6395   20.1120 H   0  0  0  0  0  0
  -26.7236  -32.5357   23.1030 H   0  0  0  0  0  0
  -25.0139  -33.9674   25.0414 H   0  0  0  0  0  0
  -22.7389  -31.3006   21.3854 H   0  0  0  0  0  0
  -23.3771  -35.9612   23.3265 H   0  0  0  0  0  0
  -24.3598  -36.8921   22.2058 H   0  0  0  0  0  0
  -23.7228  -37.6471   23.6680 H   0  0  0  0  0  0
  -26.1138  -31.4970   20.6013 H   0  0  0  0  0  0
  -26.8703  -30.8074   22.0070 H   0  0  0  0  0  0
  -28.1077  -28.8520   21.2681 H   0  0  0  0  0  0
  -25.9483  -25.9202   18.9344 H   0  0  0  0  0  0
  -23.9891  -27.3299   18.9511 H   0  0  0  0  0  0
  -23.7786  -30.5793   19.3967 H   0  0  0  0  0  0
  -22.7796  -29.2314   19.8495 H   0  0  0  0  0  0
  -25.1296  -36.1911   25.0828 H   0  0  0  0  0  0
  -21.0013  -28.3288   24.1367 H   0  0  0  0  0  0
  -20.5685  -26.2324   23.3612 H   0  0  0  0  0  0
  -21.6660  -26.7423   22.1201 H   0  0  0  0  0  0
  -19.6949  -25.6281   21.1244 H   0  0  0  0  0  0
  -19.6705  -27.3171   20.6738 H   0  0  0  0  0  0
  -17.4224  -26.6660   21.4017 H   0  0  0  0  0  0
  -18.0370  -26.0041   22.9002 H   0  0  0  0  0  0
  -19.7956  -30.7291   24.2222 H   0  0  0  0  0  0
  -17.5024  -31.6250   24.5161 H   0  0  0  0  0  0
  -15.5364  -30.2959   23.7664 H   0  0  0  0  0  0
  -15.8694  -28.0805   22.7043 H   0  0  0  0  0  0
  -24.5983  -30.6924   25.7726 H   0  0  0  0  0  0
  -24.8844  -32.2788   26.4796 H   0  0  0  0  0  0
  -25.8055  -30.8871   27.0201 H   0  0  0  0  0  0
  -26.2947  -29.6692   24.1231 H   0  0  0  0  0  0
  -27.4130  -29.7248   25.4647 H   0  0  0  0  0  0
  -27.8793  -30.4259   23.9356 H   0  0  0  0  0  0
  -27.2760  -33.3597   26.1961 H   0  0  0  0  0  0
  -28.3931  -32.6677   25.0280 H   0  0  0  0  0  0
  -28.0721  -31.8379   26.5392 H   0  0  0  0  0  0
  -28.2576  -38.0126   24.7552 H   0  0  0  0  0  0
  -28.1081  -36.2639   24.6217 H   0  0  0  0  0  0
  -27.2300  -37.1365   25.8868 H   0  0  0  0  0  0
  -20.9391  -29.8793   21.6838 H   0  0  0  0  0  0
  -26.0149  -38.2852   24.1429 H   0  0  0  0  0  0
  -31.8159  -16.9643   19.2011 H   0  0  0  0  0  0
  -33.3616  -18.4519   18.1183 H   0  0  0  0  0  0
  -30.9718  -21.8141   19.2150 H   0  0  0  0  0  0
  -35.4748  -22.9368   17.3230 H   0  0  0  0  0  0
  -34.2661  -24.0540   17.9964 H   0  0  0  0  0  0
  -34.0518  -22.9707   15.3956 H   0  0  0  0  0  0
  -32.6966  -23.5379   16.3648 H   0  0  0  0  0  0
  -33.6089  -20.6918   15.9581 H   0  0  0  0  0  0
  -31.9627  -21.3012   16.1652 H   0  0  0  0  0  0
  -30.8882  -15.3337   22.8839 H   0  0  0  0  0  0
  -29.5533  -16.4672   22.9616 H   0  0  0  0  0  0
  -31.1461  -17.0120   22.4116 H   0  0  0  0  0  0
  -28.9062  -16.9157   19.5050 H   0  0  0  0  0  0
  -28.7528  -17.6318   21.0605 H   0  0  0  0  0  0
  -29.9595  -23.6985   20.0602 H   0  0  0  0  0  0
  -28.9597  -23.5179   21.4678 H   0  0  0  0  0  0
  -28.5841  -21.9847   18.7949 H   0  0  0  0  0  0
  -27.4279  -21.9400   20.0645 H   0  0  0  0  0  0
  -27.0430  -24.5968   20.3423 H   0  0  0  0  0  0
  -27.8998  -24.7297   18.8330 H   0  0  0  0  0  0
  -28.3995  -20.1712   21.0074 H   0  0  0  0  0  0
  1 25  1  0  0  0
  1 30  2  0  0  0
  1 88  1  0  0  0
  2  3  1  0  0  0
  2 25  1  0  0  0
  2 90  1  0  0  0
  2 91  1  0  0  0
  3  4  1  0  0  0
  3 92  1  0  0  0
  3 93  1  0  0  0
  4  5  1  0  0  0
  4 94  1  0  0  0
  4 95  1  0  0  0
  5  6  1  0  0  0
  5 26  1  0  0  0
  5 96  1  0  0  0
  6 25  1  0  0  0
  6 97  1  0  0  0
  6 98  1  0  0  0
  7  8  2  0  0  0
  7 26  1  0  0  0
  7 29  1  0  0  0
  8  9  1  0  0  0
  8 22  1  0  0  0
  9 10  1  0  0  0
  9 27  2  0  0  0
 10 11  2  0  0  0
 10 15  1  0  0  0
 11 12  1  0  0  0
 11 99  1  0  0  0
 12 13  2  0  0  0
 12100  1  0  0  0
 13 14  1  0  0  0
 13 31  1  0  0  0
 14 15  2  0  0  0
 14101  1  0  0  0
 15102  1  0  0  0
 16 17  2  0  0  0
 16 21  1  0  0  0
 16 31  1  0  0  0
 17 18  1  0  0  0
 17103  1  0  0  0
 18 19  2  0  0  0
 18104  1  0  0  0
 19 20  1  0  0  0
 19 24  1  0  0  0
 20 21  2  0  0  0
 20105  1  0  0  0
 21 23  1  0  0  0
 22 28  1  0  0  0
 22 32  2  0  0  0
 26 27  1  0  0  0
 28106  1  0  0  0
 28107  1  0  0  0
 29108  1  0  0  0
 29109  1  0  0  0
 33 34  1  0  0  0
 33 66  1  0  0  0
 33 70  2  0  0  0
 34 36  1  0  0  0
 34 59  1  0  0  0
 34110  1  0  0  0
 35 44  2  0  0  0
 35 45  1  0  0  0
 35 68  1  0  0  0
 36 56  1  0  0  0
 36111  1  0  0  0
 37 39  1  0  0  0
 37 47  1  0  0  0
 37 66  1  0  0  0
 37112  1  0  0  0
 38 43  2  0  0  0
 38 46  1  0  0  0
 38 47  1  0  0  0
 39 64  1  0  0  0
 39 67  2  0  0  0
 40 52  1  0  0  0
 40 53  2  0  0  0
 40 58  1  0  0  0
 41113  1  0  0  0
 41114  1  0  0  0
 41115  1  0  0  0
 41 48  1  0  0  0
 42 43  1  0  0  0
 42 66  1  0  0  0
 42116  1  0  0  0
 42117  1  0  0  0
 43 44  1  0  0  0
 44118  1  0  0  0
 45 46  2  0  0  0
 45119  1  0  0  0
 46120  1  0  0  0
 47121  1  0  0  0
 47122  1  0  0  0
 48 56  1  0  0  0
 48 65  1  0  0  0
 48123  1  0  0  0
 49 50  1  0  0  0
 49 53  1  0  0  0
 49 64  1  0  0  0
 49124  1  0  0  0
 50 51  1  0  0  0
 50125  1  0  0  0
 50126  1  0  0  0
 51 52  1  0  0  0
 51127  1  0  0  0
 51128  1  0  0  0
 52129  1  0  0  0
 52130  1  0  0  0
 53 54  1  0  0  0
 54 55  2  0  0  0
 54131  1  0  0  0
 55 57  1  0  0  0
 55132  1  0  0  0
 56 69  2  0  0  0
 57 58  2  0  0  0
 57133  1  0  0  0
 58134  1  0  0  0
 59 60  1  0  0  0
 59 61  1  0  0  0
 59 62  1  0  0  0
 60135  1  0  0  0
 60136  1  0  0  0
 60137  1  0  0  0
 61138  1  0  0  0
 61139  1  0  0  0
 61140  1  0  0  0
 62141  1  0  0  0
 62142  1  0  0  0
 62143  1  0  0  0
 63 65  1  0  0  0
 63144  1  0  0  0
 63145  1  0  0  0
 63146  1  0  0  0
 64147  1  0  0  0
 65148  1  0  0  0
 68 85  1  0  0  0
 71 72  2  0  0  0
 71 74  1  0  0  0
 71149  1  0  0  0
 72 75  1  0  0  0
 72150  1  0  0  0
 73 75  2  0  0  0
 73 76  1  0  0  0
 73151  1  0  0  0
 74 76  2  0  0  0
 74 82  1  0  0  0
 75 86  1  0  0  0
 76 87  1  0  0  0
 77 78  1  0  0  0
 77 86  1  0  0  0
 77 89  2  0  0  0
 78 79  1  0  0  0
 78152  1  0  0  0
 78153  1  0  0  0
 79 80  1  0  0  0
 79154  1  0  0  0
 79155  1  0  0  0
 80 86  1  0  0  0
 80156  1  0  0  0
 80157  1  0  0  0
 81 88  1  0  0  0
 81158  1  0  0  0
 81159  1  0  0  0
 81160  1  0  0  0
 82 88  1  0  0  0
 82161  1  0  0  0
 82162  1  0  0  0
 83 84  1  0  0  0
 83 85  1  0  0  0
 83163  1  0  0  0
 83164  1  0  0  0
 84 87  1  0  0  0
 84165  1  0  0  0
 84166  1  0  0  0
 85167  1  0  0  0
 85168  1  0  0  0
 87169  1  0  0  0
M  ISO  4   1 100  68 101  85 101  88 100
M  END
> <chiral flag>
0

> <version>
0

> <s_m_source_file>
/data/baiqing/PycharmProjects/Reinvent-master-3.2/result/LINK_invent/BTK/process_docking_weight1_custom_product_contain_oxygen_bond_distance_aromatic_linkinvent_7_9_3/rearranged_h_0015.sdf

> <i_m_source_file_index>
53

> <r_mmod_Potential_Energy-OPLS-2005>
538.334106445312

> <r_mmod_Stretch_Energy-OPLS-2005>
171.426376342773

> <r_mmod_Bend_Energy-OPLS-2005>
280.171417236328

> <r_mmod_Torsional_Energy-OPLS-2005>
359.450164794922

> <r_mmod_Improper_Torsional_Energy-OPLS-2005>
6.09029054641724

> <r_mmod_Van_der_Waal_Energy-OPLS-2005>
140.071960449219

> <r_mmod_Electrostatic_Energy-OPLS-2005>
-285.394927978516

> <r_mmod_Solvation_Energy-OPLS-2005>
-233.89225769043

> <b_mmod_Minimization_Converged-OPLS-2005>
0

> <r_mmod_RMS_Derivative-OPLS-2005>
3.72873258590698

$$$$
53
                    3D
 Structure written by MMmdl.
165173  0  0  1  0            999 V2000
  -29.3820  -17.5801   20.4668 C   0  0  0  0  0  0
  -30.0741  -14.5957   19.6020 C   0  0  0  0  0  0
  -29.5540  -13.4297   18.5686 C   0  0  0  0  0  0
  -28.3545  -12.6242   19.0597 C   0  0  0  0  0  0
  -27.5509  -13.6230   19.8898 C   0  0  2  0  0  0
  -28.3436  -14.6263   20.8949 C   0  0  0  0  0  0
  -25.1802  -13.8828   20.6072 C   0  0  0  0  0  0
  -24.1541  -13.0531   20.9363 C   0  0  0  0  0  0
  -24.6709  -11.7207   20.8695 C   0  0  0  0  0  0
  -23.9470  -10.4388   21.0254 C   0  0  0  0  0  0
  -24.3877   -9.4287   21.9105 C   0  0  0  0  0  0
  -23.6453   -8.2358   22.0740 C   0  0  0  0  0  0
  -22.4423   -8.0388   21.3543 C   0  0  0  0  0  0
  -22.0138   -9.0373   20.4616 C   0  0  0  0  0  0
  -22.7571  -10.2202   20.2967 C   0  0  0  0  0  0
  -21.6916   -6.0805   22.5275 C   0  0  0  0  0  0
  -21.4062   -6.5683   23.8216 C   0  0  0  0  0  0
  -21.3674   -5.6818   24.9165 C   0  0  0  0  0  0
  -21.6040   -4.3080   24.7204 C   0  0  0  0  0  0
  -21.8813   -3.8187   23.4320 C   0  0  0  0  0  0
  -21.9212   -4.7019   22.3386 C   0  0  0  0  0  0
  -22.7468  -13.4969   21.1931 C   0  0  0  0  0  0
  -22.1667   -4.2200   21.0963 F   0  0  0  0  0  0
  -21.5616   -3.4553   25.7709 F   0  0  0  0  0  0
  -29.1296  -15.8608   20.2327 N   0  0  0  0  0  0
  -26.2777  -13.0883   20.3876 N   0  0  0  0  0  0
  -25.9818  -11.7583   20.5701 N   0  0  0  0  0  0
  -22.0254  -12.7878   22.0506 N   0  0  0  0  0  0
  -25.2702  -15.2618   20.4395 N   0  0  0  0  0  0
  -30.6405  -17.2145   20.4316 O   0  0  0  0  0  0
  -21.6737   -6.8995   21.4256 O   0  0  0  0  0  0
  -22.3030  -14.5226   20.6776 O   0  0  0  0  0  0
  -24.8427  -31.3620   23.2850 C   0  0  0  0  0  0
  -25.9906  -32.2831   23.8318 C   0  0  1  0  0  0
  -27.6774  -26.2083   19.5838 C   0  0  0  0  0  0
  -25.5591  -33.6995   24.1201 N   0  0  0  0  0  0
  -23.5691  -29.5528   21.8309 C   0  0  2  0  0  0
  -25.4635  -27.9929   19.4001 C   0  0  0  0  0  0
  -22.6006  -29.1916   22.8331 C   0  0  0  0  0  0
  -17.9335  -28.1565   22.8311 C   0  0  0  0  0  0
  -24.1479  -36.6545   23.2681 C   0  0  0  0  0  0
  -26.7643  -29.5189   22.0316 C   0  0  0  0  0  0
  -26.9435  -28.4627   20.2645 C   0  0  0  0  0  0
  -27.9510  -27.5055   20.2381 C   0  0  0  0  0  0
  -26.6715  -26.2602   18.5730 C   0  0  0  0  0  0
  -25.4999  -27.0170   18.5338 C   0  0  0  0  0  0
  -23.6497  -28.4662   20.1203 C   0  0  0  0  0  0
  -25.4139  -36.2059   24.0184 C   0  0  1  0  0  0
  -20.4343  -28.3099   23.2321 C   0  0  2  0  0  0
  -20.4705  -26.8634   22.7136 C   0  0  0  0  0  0
  -19.5011  -26.6136   21.5715 C   0  0  0  0  0  0
  -18.0893  -26.8196   22.1167 C   0  0  0  0  0  0
  -19.0489  -28.8859   23.3050 C   0  0  0  0  0  0
  -18.8761  -30.1510   23.9011 C   0  0  0  0  0  0
  -17.5854  -30.6791   24.0570 C   0  0  0  0  0  0
  -25.9105  -34.8334   23.4728 C   0  0  0  0  0  0
  -16.4705  -29.9393   23.6255 C   0  0  0  0  0  0
  -16.6443  -28.6840   23.0157 C   0  0  0  0  0  0
  -26.5251  -31.6492   25.1649 C   0  0  0  0  0  0
  -25.4099  -31.4141   26.2152 C   0  0  0  0  0  0
  -27.2089  -30.2941   24.9247 C   0  0  0  0  0  0
  -27.6143  -32.5455   25.7883 C   0  0  0  0  0  0
  -27.5461  -37.1346   24.8455 C   0  0  0  0  0  0
  -21.3257  -29.1602   22.4851 N   0  0  0  0  0  0
  -26.4172  -37.2990   23.9344 N   0  0  0  0  0  0
  -25.0785  -30.0851   22.6761 N   0  0  0  0  0  0
  -23.0701  -28.7793   23.8836 O   0  0  0  0  0  0
  -27.7446  -24.7300   20.1946 O   0  0  0  0  0  0
  -26.6176  -34.8188   22.4637 O   0  0  0  0  0  0
  -23.7059  -31.8383   23.4958 O   0  0  0  0  0  0
  -26.5997  -22.7534   20.0148 C   0  0  0  0  0  0
  -28.6325  -23.3428   21.7266 C   0  0  0  0  0  0
  -25.6425  -24.4385   20.2927 C   0  0  0  0  0  0
  -27.9062  -25.1558   22.2438 C   0  0  0  0  0  0
  -28.0223  -21.8114   20.7605 C   0  0  0  0  0  0
  -26.2218  -25.8458   21.5045 C   0  0  0  0  0  0
  -24.2258  -25.4826   23.1037 C   0  0  0  0  0  0
  -24.6067  -22.1794   23.6693 C   0  0  0  0  0  0
  -25.2919  -29.9910   20.3968 C   0  0  0  0  0  0
  -22.5627  -24.0361   21.9700 C   0  0  0  0  0  0
  -24.1994  -26.6237   22.0218 C   0  0  0  0  0  0
  -26.3752  -23.4982   22.2106 C   0  0  0  0  0  0
  -24.8120  -23.1284   22.4643 C   0  0  2  0  0  0
  -28.6216  -19.4939   20.5602 N   0  0  0  0  0  0
  -25.3498  -27.5761   21.6765 N   0  0  0  0  0  0
  -23.8611  -24.2617   22.6263 N   0  0  0  0  0  0
  -24.7971  -25.6447   24.1854 O   0  0  0  0  0  0
  -30.8485  -15.1120   19.0333 H   0  0  0  0  0  0
  -30.6609  -14.1317   20.3985 H   0  0  0  0  0  0
  -30.3751  -12.7583   18.3127 H   0  0  0  0  0  0
  -29.2728  -13.9193   17.6355 H   0  0  0  0  0  0
  -28.6901  -11.8040   19.6947 H   0  0  0  0  0  0
  -27.7799  -12.1974   18.2369 H   0  0  0  0  0  0
  -27.2234  -14.3084   19.1057 H   0  0  0  0  0  0
  -28.9333  -14.0685   21.6264 H   0  0  0  0  0  0
  -27.6097  -15.1085   21.5377 H   0  0  0  0  0  0
  -25.2990   -9.5744   22.4737 H   0  0  0  0  0  0
  -24.0107   -7.4776   22.7519 H   0  0  0  0  0  0
  -21.1055   -8.8945   19.8934 H   0  0  0  0  0  0
  -22.4025  -10.9734   19.6073 H   0  0  0  0  0  0
  -21.2077   -7.6193   23.9738 H   0  0  0  0  0  0
  -21.1491   -6.0539   25.9070 H   0  0  0  0  0  0
  -22.0570   -2.7649   23.2807 H   0  0  0  0  0  0
  -22.4028  -11.9620   22.4915 H   0  0  0  0  0  0
  -21.0814  -13.0740   22.2685 H   0  0  0  0  0  0
  -24.4657  -15.8728   20.5283 H   0  0  0  0  0  0
  -26.1069  -15.7427   20.1367 H   0  0  0  0  0  0
  -26.7880  -32.3043   23.0892 H   0  0  0  0  0  0
  -24.9198  -33.7983   24.8941 H   0  0  0  0  0  0
  -23.0710  -30.4689   21.4991 H   0  0  0  0  0  0
  -23.3744  -35.8861   23.3132 H   0  0  0  0  0  0
  -24.3532  -36.8480   22.2144 H   0  0  0  0  0  0
  -23.7256  -37.5618   23.7005 H   0  0  0  0  0  0
  -27.4342  -30.3771   21.9787 H   0  0  0  0  0  0
  -27.2216  -28.8598   22.7694 H   0  0  0  0  0  0
  -28.6758  -27.5434   21.0374 H   0  0  0  0  0  0
  -26.5878  -25.3578   17.9847 H   0  0  0  0  0  0
  -24.6398  -26.7095   17.9551 H   0  0  0  0  0  0
  -23.1494  -29.0543   19.3472 H   0  0  0  0  0  0
  -22.9558  -27.6300   20.1137 H   0  0  0  0  0  0
  -25.1409  -36.0697   25.0669 H   0  0  0  0  0  0
  -20.7413  -28.2762   24.2806 H   0  0  0  0  0  0
  -20.1733  -26.2160   23.5400 H   0  0  0  0  0  0
  -21.4470  -26.5187   22.4698 H   0  0  0  0  0  0
  -19.6099  -25.5989   21.1886 H   0  0  0  0  0  0
  -19.7034  -27.2963   20.7459 H   0  0  0  0  0  0
  -17.3721  -26.7534   21.2973 H   0  0  0  0  0  0
  -17.8344  -26.0217   22.8161 H   0  0  0  0  0  0
  -19.7306  -30.7127   24.2540 H   0  0  0  0  0  0
  -17.4448  -31.6460   24.5206 H   0  0  0  0  0  0
  -15.4741  -30.3415   23.7540 H   0  0  0  0  0  0
  -15.7771  -28.1340   22.6735 H   0  0  0  0  0  0
  -24.6852  -30.6590   25.9063 H   0  0  0  0  0  0
  -24.8572  -32.3289   26.4302 H   0  0  0  0  0  0
  -25.8275  -31.0684   27.1615 H   0  0  0  0  0  0
  -26.5089  -29.4942   24.6929 H   0  0  0  0  0  0
  -27.6968  -29.9503   25.8379 H   0  0  0  0  0  0
  -28.0061  -30.3656   24.1871 H   0  0  0  0  0  0
  -27.2142  -33.5004   26.1298 H   0  0  0  0  0  0
  -28.4093  -32.7621   25.0740 H   0  0  0  0  0  0
  -28.0766  -32.0804   26.6600 H   0  0  0  0  0  0
  -28.2332  -37.9758   24.7434 H   0  0  0  0  0  0
  -28.1096  -36.2239   24.6377 H   0  0  0  0  0  0
  -27.2143  -37.1029   25.8846 H   0  0  0  0  0  0
  -21.0267  -29.5155   21.5879 H   0  0  0  0  0  0
  -25.9865  -38.1990   24.1240 H   0  0  0  0  0  0
  -26.0665  -22.1384   19.3048 H   0  0  0  0  0  0
  -29.5544  -23.1367   22.2472 H   0  0  0  0  0  0
  -24.7576  -24.5970   19.6961 H   0  0  0  0  0  0
  -28.4848  -25.7822   22.9064 H   0  0  0  0  0  0
  -25.2335  -21.2883   23.6013 H   0  0  0  0  0  0
  -23.5734  -21.8287   23.7117 H   0  0  0  0  0  0
  -24.8255  -22.6701   24.6173 H   0  0  0  0  0  0
  -26.2027  -30.5642   20.1244 H   0  0  0  0  0  0
  -24.8327  -30.9604   20.6466 H   0  0  0  0  0  0
  -24.9446  -30.1558   19.3572 H   0  0  0  0  0  0
  -22.5758  -23.2217   21.2460 H   0  0  0  0  0  0
  -22.1944  -24.8933   21.4128 H   0  0  0  0  0  0
  -21.8149  -23.7804   22.7194 H   0  0  0  0  0  0
  -23.2782  -27.0585   22.2104 H   0  0  0  0  0  0
  -23.9514  -26.1240   21.0894 H   0  0  0  0  0  0
  -26.6745  -22.4832   22.4730 H   0  0  0  0  0  0
  -26.4962  -23.8418   23.2504 H   0  0  0  0  0  0
  -24.5053  -22.5243   21.6114 H   0  0  0  0  0  0
  -29.5854  -19.7007   20.7922 H   0  0  0  0  0  0
  1 25  1  0  0  0
  1 30  2  0  0  0
  1 84  1  0  0  0
  2  3  1  0  0  0
  2 25  1  0  0  0
  2 88  1  0  0  0
  2 89  1  0  0  0
  3  4  1  0  0  0
  3 90  1  0  0  0
  3 91  1  0  0  0
  4  5  1  0  0  0
  4 92  1  0  0  0
  4 93  1  0  0  0
  5  6  1  0  0  0
  5 26  1  0  0  0
  5 94  1  0  0  0
  6 25  1  0  0  0
  6 95  1  0  0  0
  6 96  1  0  0  0
  7  8  2  0  0  0
  7 26  1  0  0  0
  7 29  1  0  0  0
  8  9  1  0  0  0
  8 22  1  0  0  0
  9 10  1  0  0  0
  9 27  2  0  0  0
 10 11  2  0  0  0
 10 15  1  0  0  0
 11 12  1  0  0  0
 11 97  1  0  0  0
 12 13  2  0  0  0
 12 98  1  0  0  0
 13 14  1  0  0  0
 13 31  1  0  0  0
 14 15  2  0  0  0
 14 99  1  0  0  0
 15100  1  0  0  0
 16 17  2  0  0  0
 16 21  1  0  0  0
 16 31  1  0  0  0
 17 18  1  0  0  0
 17101  1  0  0  0
 18 19  2  0  0  0
 18102  1  0  0  0
 19 20  1  0  0  0
 19 24  1  0  0  0
 20 21  2  0  0  0
 20103  1  0  0  0
 21 23  1  0  0  0
 22 28  1  0  0  0
 22 32  2  0  0  0
 26 27  1  0  0  0
 28104  1  0  0  0
 28105  1  0  0  0
 29106  1  0  0  0
 29107  1  0  0  0
 33 34  1  0  0  0
 33 66  1  0  0  0
 33 70  2  0  0  0
 34 36  1  0  0  0
 34 59  1  0  0  0
 34108  1  0  0  0
 35 44  2  0  0  0
 35 45  1  0  0  0
 35 68  1  0  0  0
 36 56  1  0  0  0
 36109  1  0  0  0
 37 39  1  0  0  0
 37 47  1  0  0  0
 37 66  1  0  0  0
 37110  1  0  0  0
 38 43  2  0  0  0
 38 46  1  0  0  0
 38 47  1  0  0  0
 39 64  1  0  0  0
 39 67  2  0  0  0
 40 52  1  0  0  0
 40 53  2  0  0  0
 40 58  1  0  0  0
 41111  1  0  0  0
 41112  1  0  0  0
 41113  1  0  0  0
 41 48  1  0  0  0
 42 43  1  0  0  0
 42 66  1  0  0  0
 42114  1  0  0  0
 42115  1  0  0  0
 43 44  1  0  0  0
 44116  1  0  0  0
 45 46  2  0  0  0
 45117  1  0  0  0
 46118  1  0  0  0
 47119  1  0  0  0
 47120  1  0  0  0
 48 56  1  0  0  0
 48 65  1  0  0  0
 48121  1  0  0  0
 49 50  1  0  0  0
 49 53  1  0  0  0
 49 64  1  0  0  0
 49122  1  0  0  0
 50 51  1  0  0  0
 50123  1  0  0  0
 50124  1  0  0  0
 51 52  1  0  0  0
 51125  1  0  0  0
 51126  1  0  0  0
 52127  1  0  0  0
 52128  1  0  0  0
 53 54  1  0  0  0
 54 55  2  0  0  0
 54129  1  0  0  0
 55 57  1  0  0  0
 55130  1  0  0  0
 56 69  2  0  0  0
 57 58  2  0  0  0
 57131  1  0  0  0
 58132  1  0  0  0
 59 60  1  0  0  0
 59 61  1  0  0  0
 59 62  1  0  0  0
 60133  1  0  0  0
 60134  1  0  0  0
 60135  1  0  0  0
 61136  1  0  0  0
 61137  1  0  0  0
 61138  1  0  0  0
 62139  1  0  0  0
 62140  1  0  0  0
 62141  1  0  0  0
 63 65  1  0  0  0
 63142  1  0  0  0
 63143  1  0  0  0
 63144  1  0  0  0
 64145  1  0  0  0
 65146  1  0  0  0
 68 82  1  0  0  0
 71 73  2  0  0  0
 71 75  1  0  0  0
 71147  1  0  0  0
 72 74  1  0  0  0
 72 75  2  0  0  0
 72148  1  0  0  0
 73 76  1  0  0  0
 73149  1  0  0  0
 74 76  2  0  0  0
 74150  1  0  0  0
 75 84  1  0  0  0
 76 85  1  0  0  0
 77 81  1  0  0  0
 77 86  1  0  0  0
 77 87  2  0  0  0
 78151  1  0  0  0
 78152  1  0  0  0
 78153  1  0  0  0
 78 83  1  0  0  0
 79 85  1  0  0  0
 79154  1  0  0  0
 79155  1  0  0  0
 79156  1  0  0  0
 80 86  1  0  0  0
 80157  1  0  0  0
 80158  1  0  0  0
 80159  1  0  0  0
 81 85  1  0  0  0
 81160  1  0  0  0
 81161  1  0  0  0
 82 83  1  0  0  0
 82162  1  0  0  0
 82163  1  0  0  0
 83 86  1  0  0  0
 83164  1  0  0  0
 84165  1  0  0  0
M  ISO  4   1 100  68 101  82 101  84 100
M  END
> <chiral flag>
0

> <version>
0

> <s_m_source_file>
/data/baiqing/PycharmProjects/Reinvent-master-3.2/result/LINK_invent/BTK/process_docking_weight1_custom_product_contain_oxygen_bond_distance_aromatic_linkinvent_7_9_3/rearranged_h_0015.sdf

> <i_m_source_file_index>
54

> <r_mmod_Potential_Energy-OPLS-2005>
26304.0078125

> <r_mmod_Stretch_Energy-OPLS-2005>
14189.974609375

> <r_mmod_Bend_Energy-OPLS-2005>
1637.76574707031

> <r_mmod_Torsional_Energy-OPLS-2005>
560.763061523438

> <r_mmod_Improper_Torsional_Energy-OPLS-2005>
52.3102798461914

> <r_mmod_Van_der_Waal_Energy-OPLS-2005>
4036.4697265625

> <r_mmod_Electrostatic_Energy-OPLS-2005>
-330.661743164062

> <r_mmod_Solvation_Energy-OPLS-2005>
-247.671951293945

> <b_mmod_Minimization_Converged-OPLS-2005>
0

> <r_mmod_RMS_Derivative-OPLS-2005>
4.4686222076416

$$$$
54
                    3D
 Structure written by MMmdl.
162170  0  0  1  0            999 V2000
  -30.6601  -14.6028   20.3938 C   0  0  0  0  0  0
  -30.4481  -12.3281   19.4535 C   0  0  0  0  0  0
  -29.5104  -12.3337   18.2254 C   0  0  0  0  0  0
  -28.0159  -12.3078   18.6305 C   0  0  0  0  0  0
  -27.6472  -13.1969   19.8557 C   0  0  2  0  0  0
  -28.7114  -13.0821   20.9664 C   0  0  0  0  0  0
  -25.2570  -13.8129   20.5726 C   0  0  0  0  0  0
  -24.1818  -13.0426   20.9223 C   0  0  0  0  0  0
  -24.6360  -11.6891   20.8778 C   0  0  0  0  0  0
  -23.9024  -10.4287   21.0423 C   0  0  0  0  0  0
  -24.3590   -9.4206   21.9193 C   0  0  0  0  0  0
  -23.6280   -8.2234   22.0743 C   0  0  0  0  0  0
  -22.4263   -8.0273   21.3531 C   0  0  0  0  0  0
  -21.9894   -9.0250   20.4634 C   0  0  0  0  0  0
  -22.7206  -10.2138   20.3055 C   0  0  0  0  0  0
  -21.6860   -6.0724   22.5277 C   0  0  0  0  0  0
  -21.4023   -6.5624   23.8211 C   0  0  0  0  0  0
  -21.3660   -5.6771   24.9169 C   0  0  0  0  0  0
  -21.6055   -4.3035   24.7224 C   0  0  0  0  0  0
  -21.8814   -3.8133   23.4341 C   0  0  0  0  0  0
  -21.9192   -4.6950   22.3400 C   0  0  0  0  0  0
  -22.7841  -13.5246   21.1846 C   0  0  0  0  0  0
  -22.1657   -4.2129   21.0975 F   0  0  0  0  0  0
  -21.5629   -3.4520   25.7738 F   0  0  0  0  0  0
  -30.0123  -13.3986   20.3637 N   0  0  0  0  0  0
  -26.2984  -12.9256   20.3402 N   0  0  0  0  0  0
  -25.9284  -11.6439   20.5838 N   0  0  0  0  0  0
  -22.0443  -12.8276   22.0398 N   0  0  0  0  0  0
  -25.4253  -15.1848   20.4119 N   0  0  0  0  0  0
  -31.8853  -14.6779   20.2825 O   0  0  0  0  0  0
  -21.6638   -6.8866   21.4235 O   0  0  0  0  0  0
  -22.3545  -14.5538   20.6652 O   0  0  0  0  0  0
  -24.6147  -31.8677   23.2101 C   0  0  0  0  0  0
  -25.9043  -32.4817   23.8405 C   0  0  1  0  0  0
  -27.2360  -27.4235   20.1000 C   0  0  0  0  0  0
  -25.5902  -33.8617   24.2338 N   0  0  0  0  0  0
  -23.4044  -30.4900   21.5499 C   0  0  2  0  0  0
  -24.8536  -28.9487   20.1206 C   0  0  0  0  0  0
  -22.7416  -29.4655   22.4990 C   0  0  0  0  0  0
  -18.0265  -28.1367   22.8486 C   0  0  0  0  0  0
  -24.1485  -36.7313   23.2643 C   0  0  0  0  0  0
  -25.9355  -30.8254   21.3697 C   0  0  0  0  0  0
  -26.0129  -29.4555   20.7237 C   0  0  0  0  0  0
  -27.2089  -28.6980   20.7181 C   0  0  0  0  0  0
  -26.0661  -26.9357   19.4877 C   0  0  0  0  0  0
  -24.8735  -27.6854   19.5028 C   0  0  0  0  0  0
  -23.6167  -29.8196   20.1657 C   0  0  0  0  0  0
  -25.4108  -36.3115   24.0346 C   0  0  1  0  0  0
  -20.5856  -28.3659   23.1303 C   0  0  2  0  0  0
  -20.6745  -26.9390   22.5414 C   0  0  0  0  0  0
  -19.5730  -26.6374   21.5203 C   0  0  0  0  0  0
  -18.1910  -26.7911   22.1616 C   0  0  0  0  0  0
  -19.1514  -28.8827   23.2892 C   0  0  0  0  0  0
  -18.9450  -30.1431   23.8908 C   0  0  0  0  0  0
  -17.6453  -30.6579   24.0558 C   0  0  0  0  0  0
  -25.9034  -34.9475   23.5144 C   0  0  0  0  0  0
  -16.5342  -29.9084   23.6321 C   0  0  0  0  0  0
  -16.7253  -28.6492   23.0355 C   0  0  0  0  0  0
  -26.4476  -31.6589   25.0730 C   0  0  0  0  0  0
  -25.3751  -31.3688   26.1488 C   0  0  0  0  0  0
  -27.0318  -30.3035   24.6106 C   0  0  0  0  0  0
  -27.6064  -32.4303   25.7480 C   0  0  0  0  0  0
  -27.5586  -37.1814   24.8470 C   0  0  0  0  0  0
  -21.4140  -29.3031   22.3721 N   0  0  0  0  0  0
  -26.4298  -37.3799   23.9410 N   0  0  0  0  0  0
  -24.6696  -31.0763   22.1014 N   0  0  0  0  0  0
  -23.4179  -28.8202   23.3043 O   0  0  0  0  0  0
  -28.3793  -26.6563   20.0238 O   0  0  0  0  0  0
  -26.5598  -34.8922   22.4706 O   0  0  0  0  0  0
  -23.5329  -32.1446   23.7467 O   0  0  0  0  0  0
  -30.4023  -19.3949   19.9758 C   0  0  0  0  0  0
  -30.6583  -18.0230   19.7586 C   0  0  0  0  0  0
  -28.9095  -18.8026   21.7819 C   0  0  0  0  0  0
  -29.4784  -19.8082   20.9622 C   0  0  0  0  0  0
  -29.9647  -17.0043   20.4677 C   0  0  0  0  0  0
  -29.1332  -17.4209   21.5398 C   0  0  0  0  0  0
  -29.7634  -15.6609   18.4476 C   0  0  0  0  0  0
  -31.1177  -22.4427   21.7081 C   0  0  0  0  0  0
  -29.0030  -21.2795   21.0772 C   0  0  0  0  0  0
  -28.6127  -24.4647   21.2553 C   0  0  0  0  0  0
  -29.4884  -23.6501   20.2527 C   0  0  0  0  0  0
  -28.8041  -26.0139   21.2330 C   0  0  0  0  0  0
  -29.9259  -15.6606   19.9198 N   0  0  0  0  0  0
  -30.0162  -22.3211   20.7245 N   0  3  1  0  0  0
  -28.2864  -16.2778   22.5118 Cl  0  0  0  0  0  0
  -31.4829  -12.4546   19.1301 H   0  0  0  0  0  0
  -30.4110  -11.3660   19.9665 H   0  0  0  0  0  0
  -29.7248  -11.4494   17.6230 H   0  0  0  0  0  0
  -29.7371  -13.1614   17.5603 H   0  0  0  0  0  0
  -27.7797  -11.2683   18.8633 H   0  0  0  0  0  0
  -27.3916  -12.5626   17.7727 H   0  0  0  0  0  0
  -27.6309  -14.2279   19.5224 H   0  0  0  0  0  0
  -28.7224  -12.0755   21.3862 H   0  0  0  0  0  0
  -28.4868  -13.7477   21.7954 H   0  0  0  0  0  0
  -25.2726   -9.5710   22.4780 H   0  0  0  0  0  0
  -23.9987   -7.4630   22.7474 H   0  0  0  0  0  0
  -21.0816   -8.8778   19.8950 H   0  0  0  0  0  0
  -22.3653  -10.9689   19.6173 H   0  0  0  0  0  0
  -21.2018   -7.6133   23.9713 H   0  0  0  0  0  0
  -21.1488   -6.0499   25.9070 H   0  0  0  0  0  0
  -22.0591   -2.7594   23.2847 H   0  0  0  0  0  0
  -22.4013  -11.9972   22.4896 H   0  0  0  0  0  0
  -21.1046  -13.1322   22.2500 H   0  0  0  0  0  0
  -24.6689  -15.8435   20.5581 H   0  0  0  0  0  0
  -26.3013  -15.6324   20.1746 H   0  0  0  0  0  0
  -26.7114  -32.5529   23.1166 H   0  0  0  0  0  0
  -25.0047  -33.9788   25.0477 H   0  0  0  0  0  0
  -22.6934  -31.3068   21.4084 H   0  0  0  0  0  0
  -23.3746  -35.9648   23.3312 H   0  0  0  0  0  0
  -24.3575  -36.8916   22.2056 H   0  0  0  0  0  0
  -23.7229  -37.6519   23.6643 H   0  0  0  0  0  0
  -26.0524  -31.5872   20.5969 H   0  0  0  0  0  0
  -26.8217  -30.8784   21.9902 H   0  0  0  0  0  0
  -28.1057  -29.0896   21.1768 H   0  0  0  0  0  0
  -26.0798  -25.9715   18.9982 H   0  0  0  0  0  0
  -23.9845  -27.2912   19.0304 H   0  0  0  0  0  0
  -23.7294  -30.5950   19.4062 H   0  0  0  0  0  0
  -22.7402  -29.2422   19.8664 H   0  0  0  0  0  0
  -25.1277  -36.1994   25.0840 H   0  0  0  0  0  0
  -20.9939  -28.3227   24.1426 H   0  0  0  0  0  0
  -20.5623  -26.2280   23.3615 H   0  0  0  0  0  0
  -21.6624  -26.7430   22.1229 H   0  0  0  0  0  0
  -19.6900  -25.6290   21.1224 H   0  0  0  0  0  0
  -19.6665  -27.3190   20.6739 H   0  0  0  0  0  0
  -17.4187  -26.6662   21.4010 H   0  0  0  0  0  0
  -18.0312  -26.0044   22.9003 H   0  0  0  0  0  0
  -19.7936  -30.7224   24.2293 H   0  0  0  0  0  0
  -17.5023  -31.6260   24.5163 H   0  0  0  0  0  0
  -15.5343  -30.2999   23.7630 H   0  0  0  0  0  0
  -15.8652  -28.0809   22.7080 H   0  0  0  0  0  0
  -24.5912  -30.7049   25.7823 H   0  0  0  0  0  0
  -24.8956  -32.2838   26.4979 H   0  0  0  0  0  0
  -25.8118  -30.8828   27.0221 H   0  0  0  0  0  0
  -26.2868  -29.6783   24.1171 H   0  0  0  0  0  0
  -27.4104  -29.7282   25.4562 H   0  0  0  0  0  0
  -27.8694  -30.4363   23.9255 H   0  0  0  0  0  0
  -27.2706  -33.3597   26.2087 H   0  0  0  0  0  0
  -28.3853  -32.6866   25.0288 H   0  0  0  0  0  0
  -28.0755  -31.8406   26.5365 H   0  0  0  0  0  0
  -28.2614  -38.0102   24.7512 H   0  0  0  0  0  0
  -28.1067  -36.2632   24.6293 H   0  0  0  0  0  0
  -27.2304  -37.1470   25.8875 H   0  0  0  0  0  0
  -20.9304  -29.8774   21.6959 H   0  0  0  0  0  0
  -26.0188  -38.2882   24.1397 H   0  0  0  0  0  0
  -30.8774  -20.1137   19.3233 H   0  0  0  0  0  0
  -31.3215  -17.7594   18.9456 H   0  0  0  0  0  0
  -28.2154  -19.0831   22.5618 H   0  0  0  0  0  0
  -29.4903  -16.6312   18.0336 H   0  0  0  0  0  0
  -28.9483  -15.0269   18.1238 H   0  0  0  0  0  0
  -30.6736  -15.3425   17.9334 H   0  0  0  0  0  0
  -31.5253  -21.4680   21.9767 H   0  0  0  0  0  0
  -30.7907  -22.9309   22.6251 H   0  0  0  0  0  0
  -31.9377  -23.0279   21.2887 H   0  0  0  0  0  0
  -28.6232  -21.4683   22.0822 H   0  0  0  0  0  0
  -28.1456  -21.3856   20.4099 H   0  0  0  0  0  0
  -28.8275  -24.1370   22.2706 H   0  0  0  0  0  0
  -27.5609  -24.2287   21.0906 H   0  0  0  0  0  0
  -30.3425  -24.2586   19.9526 H   0  0  0  0  0  0
  -28.9220  -23.4985   19.3323 H   0  0  0  0  0  0
  -29.8591  -26.2492   21.3823 H   0  0  0  0  0  0
  -28.2855  -26.4454   22.0921 H   0  0  0  0  0  0
  -30.4571  -21.9443   19.8995 H   0  0  0  0  0  0
  1 25  1  0  0  0
  1 30  2  0  0  0
  1 83  1  0  0  0
  2  3  1  0  0  0
  2 25  1  0  0  0
  2 86  1  0  0  0
  2 87  1  0  0  0
  3  4  1  0  0  0
  3 88  1  0  0  0
  3 89  1  0  0  0
  4  5  1  0  0  0
  4 90  1  0  0  0
  4 91  1  0  0  0
  5  6  1  0  0  0
  5 26  1  0  0  0
  5 92  1  0  0  0
  6 25  1  0  0  0
  6 93  1  0  0  0
  6 94  1  0  0  0
  7  8  2  0  0  0
  7 26  1  0  0  0
  7 29  1  0  0  0
  8  9  1  0  0  0
  8 22  1  0  0  0
  9 10  1  0  0  0
  9 27  2  0  0  0
 10 11  2  0  0  0
 10 15  1  0  0  0
 11 12  1  0  0  0
 11 95  1  0  0  0
 12 13  2  0  0  0
 12 96  1  0  0  0
 13 14  1  0  0  0
 13 31  1  0  0  0
 14 15  2  0  0  0
 14 97  1  0  0  0
 15 98  1  0  0  0
 16 17  2  0  0  0
 16 21  1  0  0  0
 16 31  1  0  0  0
 17 18  1  0  0  0
 17 99  1  0  0  0
 18 19  2  0  0  0
 18100  1  0  0  0
 19 20  1  0  0  0
 19 24  1  0  0  0
 20 21  2  0  0  0
 20101  1  0  0  0
 21 23  1  0  0  0
 22 28  1  0  0  0
 22 32  2  0  0  0
 26 27  1  0  0  0
 28102  1  0  0  0
 28103  1  0  0  0
 29104  1  0  0  0
 29105  1  0  0  0
 33 34  1  0  0  0
 33 66  1  0  0  0
 33 70  2  0  0  0
 34 36  1  0  0  0
 34 59  1  0  0  0
 34106  1  0  0  0
 35 44  2  0  0  0
 35 45  1  0  0  0
 35 68  1  0  0  0
 36 56  1  0  0  0
 36107  1  0  0  0
 37 39  1  0  0  0
 37 47  1  0  0  0
 37 66  1  0  0  0
 37108  1  0  0  0
 38 43  2  0  0  0
 38 46  1  0  0  0
 38 47  1  0  0  0
 39 64  1  0  0  0
 39 67  2  0  0  0
 40 52  1  0  0  0
 40 53  2  0  0  0
 40 58  1  0  0  0
 41109  1  0  0  0
 41110  1  0  0  0
 41111  1  0  0  0
 41 48  1  0  0  0
 42 43  1  0  0  0
 42 66  1  0  0  0
 42112  1  0  0  0
 42113  1  0  0  0
 43 44  1  0  0  0
 44114  1  0  0  0
 45 46  2  0  0  0
 45115  1  0  0  0
 46116  1  0  0  0
 47117  1  0  0  0
 47118  1  0  0  0
 48 56  1  0  0  0
 48 65  1  0  0  0
 48119  1  0  0  0
 49 50  1  0  0  0
 49 53  1  0  0  0
 49 64  1  0  0  0
 49120  1  0  0  0
 50 51  1  0  0  0
 50121  1  0  0  0
 50122  1  0  0  0
 51 52  1  0  0  0
 51123  1  0  0  0
 51124  1  0  0  0
 52125  1  0  0  0
 52126  1  0  0  0
 53 54  1  0  0  0
 54 55  2  0  0  0
 54127  1  0  0  0
 55 57  1  0  0  0
 55128  1  0  0  0
 56 69  2  0  0  0
 57 58  2  0  0  0
 57129  1  0  0  0
 58130  1  0  0  0
 59 60  1  0  0  0
 59 61  1  0  0  0
 59 62  1  0  0  0
 60131  1  0  0  0
 60132  1  0  0  0
 60133  1  0  0  0
 61134  1  0  0  0
 61135  1  0  0  0
 61136  1  0  0  0
 62137  1  0  0  0
 62138  1  0  0  0
 62139  1  0  0  0
 63 65  1  0  0  0
 63140  1  0  0  0
 63141  1  0  0  0
 63142  1  0  0  0
 64143  1  0  0  0
 65144  1  0  0  0
 68 82  1  0  0  0
 71 72  2  0  0  0
 71 74  1  0  0  0
 71145  1  0  0  0
 72 75  1  0  0  0
 72146  1  0  0  0
 73 74  2  0  0  0
 73 76  1  0  0  0
 73147  1  0  0  0
 74 79  1  0  0  0
 75 76  2  0  0  0
 75 83  1  0  0  0
 76 85  1  0  0  0
 77 83  1  0  0  0
 77148  1  0  0  0
 77149  1  0  0  0
 77150  1  0  0  0
 78151  1  0  0  0
 78152  1  0  0  0
 78153  1  0  0  0
 78 84  1  0  0  0
 79 84  1  0  0  0
 79154  1  0  0  0
 79155  1  0  0  0
 80 81  1  0  0  0
 80 82  1  0  0  0
 80156  1  0  0  0
 80157  1  0  0  0
 81 84  1  0  0  0
 81158  1  0  0  0
 81159  1  0  0  0
 82160  1  0  0  0
 82161  1  0  0  0
 84162  1  0  0  0
M  CHG  1  84   1
M  ISO  4   1 100  68 101  82 101  83 100
M  END
> <chiral flag>
0

> <version>
0

> <s_m_source_file>
/data/baiqing/PycharmProjects/Reinvent-master-3.2/result/LINK_invent/BTK/process_docking_weight1_custom_product_contain_oxygen_bond_distance_aromatic_linkinvent_7_9_3/rearranged_h_0015.sdf

> <i_m_source_file_index>
55

> <r_mmod_Potential_Energy-OPLS-2005>
101.626335144043

> <r_mmod_Stretch_Energy-OPLS-2005>
50.6671752929688

> <r_mmod_Bend_Energy-OPLS-2005>
123.652946472168

> <r_mmod_Torsional_Energy-OPLS-2005>
369.828857421875

> <r_mmod_Improper_Torsional_Energy-OPLS-2005>
26.798698425293

> <r_mmod_Van_der_Waal_Energy-OPLS-2005>
148.168075561523

> <r_mmod_Electrostatic_Energy-OPLS-2005>
-216.450576782227

> <r_mmod_Solvation_Energy-OPLS-2005>
-442.502563476562

> <b_mmod_Minimization_Converged-OPLS-2005>
0

> <r_mmod_RMS_Derivative-OPLS-2005>
2.22306895256042

$$$$
55
                    3D
 Structure written by MMmdl.
157166  0  0  1  0            999 V2000
  -30.6750  -14.4957   20.5735 C   0  0  0  0  0  0
  -30.4303  -12.3197   19.4314 C   0  0  0  0  0  0
  -29.5011  -12.5135   18.2149 C   0  0  0  0  0  0
  -28.0223  -12.3684   18.6246 C   0  0  0  0  0  0
  -27.6626  -13.2064   19.8803 C   0  0  2  0  0  0
  -28.7019  -12.9815   21.0029 C   0  0  0  0  0  0
  -25.2557  -13.8126   20.5636 C   0  0  0  0  0  0
  -24.1805  -13.0410   20.9094 C   0  0  0  0  0  0
  -24.6379  -11.6884   20.8690 C   0  0  0  0  0  0
  -23.9043  -10.4288   21.0389 C   0  0  0  0  0  0
  -24.3597   -9.4212   21.9179 C   0  0  0  0  0  0
  -23.6280   -8.2248   22.0757 C   0  0  0  0  0  0
  -22.4252   -8.0277   21.3553 C   0  0  0  0  0  0
  -21.9887   -9.0247   20.4659 C   0  0  0  0  0  0
  -22.7216  -10.2127   20.3055 C   0  0  0  0  0  0
  -21.6852   -6.0723   22.5280 C   0  0  0  0  0  0
  -21.4015   -6.5624   23.8207 C   0  0  0  0  0  0
  -21.3662   -5.6785   24.9172 C   0  0  0  0  0  0
  -21.6040   -4.3048   24.7226 C   0  0  0  0  0  0
  -21.8823   -3.8133   23.4353 C   0  0  0  0  0  0
  -21.9194   -4.6950   22.3409 C   0  0  0  0  0  0
  -22.7844  -13.5233   21.1787 C   0  0  0  0  0  0
  -22.1665   -4.2140   21.0984 F   0  0  0  0  0  0
  -21.5627   -3.4525   25.7741 F   0  0  0  0  0  0
  -30.0359  -13.2973   20.4600 N   0  0  0  0  0  0
  -26.3021  -12.9321   20.3380 N   0  0  0  0  0  0
  -25.9312  -11.6475   20.5741 N   0  0  0  0  0  0
  -22.0498  -12.8249   22.0381 N   0  0  0  0  0  0
  -25.4227  -15.1839   20.4116 N   0  0  0  0  0  0
  -31.7905  -14.6999   20.0869 O   0  0  0  0  0  0
  -21.6635   -6.8860   21.4238 O   0  0  0  0  0  0
  -22.3528  -14.5551   20.6664 O   0  0  0  0  0  0
  -24.6163  -31.8646   23.2064 C   0  0  0  0  0  0
  -25.9048  -32.4809   23.8369 C   0  0  1  0  0  0
  -27.2434  -27.4128   20.0886 C   0  0  0  0  0  0
  -25.5887  -33.8610   24.2300 N   0  0  0  0  0  0
  -23.4053  -30.4865   21.5473 C   0  0  2  0  0  0
  -24.8517  -28.9468   20.1144 C   0  0  0  0  0  0
  -22.7400  -29.4652   22.4982 C   0  0  0  0  0  0
  -18.0269  -28.1370   22.8488 C   0  0  0  0  0  0
  -24.1485  -36.7316   23.2630 C   0  0  0  0  0  0
  -25.9360  -30.8241   21.3606 C   0  0  0  0  0  0
  -26.0123  -29.4558   20.7081 C   0  0  0  0  0  0
  -27.2047  -28.6939   20.6942 C   0  0  0  0  0  0
  -26.0527  -26.9132   19.5108 C   0  0  0  0  0  0
  -24.8675  -27.6747   19.5180 C   0  0  0  0  0  0
  -23.6134  -29.8138   20.1639 C   0  0  0  0  0  0
  -25.4099  -36.3105   24.0332 C   0  0  1  0  0  0
  -20.5855  -28.3660   23.1310 C   0  0  2  0  0  0
  -20.6762  -26.9397   22.5410 C   0  0  0  0  0  0
  -19.5743  -26.6381   21.5202 C   0  0  0  0  0  0
  -18.1921  -26.7917   22.1618 C   0  0  0  0  0  0
  -19.1519  -28.8833   23.2900 C   0  0  0  0  0  0
  -18.9452  -30.1436   23.8908 C   0  0  0  0  0  0
  -17.6458  -30.6579   24.0563 C   0  0  0  0  0  0
  -25.9024  -34.9474   23.5117 C   0  0  0  0  0  0
  -16.5348  -29.9078   23.6329 C   0  0  0  0  0  0
  -16.7263  -28.6497   23.0351 C   0  0  0  0  0  0
  -26.4467  -31.6607   25.0714 C   0  0  0  0  0  0
  -25.3732  -31.3749   26.1471 C   0  0  0  0  0  0
  -27.0283  -30.3033   24.6121 C   0  0  0  0  0  0
  -27.6036  -32.4331   25.7483 C   0  0  0  0  0  0
  -27.5588  -37.1792   24.8450 C   0  0  0  0  0  0
  -21.4129  -29.3028   22.3717 N   0  0  0  0  0  0
  -26.4283  -37.3794   23.9423 N   0  0  0  0  0  0
  -24.6710  -31.0735   22.0962 N   0  0  0  0  0  0
  -23.4170  -28.8188   23.3025 O   0  0  0  0  0  0
  -28.4338  -26.7025   20.1275 O   0  0  0  0  0  0
  -26.5596  -34.8929   22.4682 O   0  0  0  0  0  0
  -23.5353  -32.1416   23.7445 O   0  0  0  0  0  0
  -30.6703  -18.9640   19.8584 C   0  0  0  0  0  0
  -30.9065  -17.6334   20.2865 C   0  0  0  0  0  0
  -28.3492  -18.7782   20.5413 C   0  0  0  0  0  0
  -29.3791  -19.5436   19.9457 C   0  0  0  0  0  0
  -29.8505  -16.8469   20.8088 C   0  0  0  0  0  0
  -28.5854  -17.4519   20.9697 C   0  0  0  0  0  0
  -28.0297  -23.0473   20.0957 C   0  0  0  0  0  0
  -29.9603  -23.2271   19.4529 C   0  0  0  0  0  0
  -28.9921  -24.2488   20.0702 C   0  0  1  0  0  0
  -29.0587  -20.8878   19.2555 C   0  0  0  0  0  0
  -28.6742  -25.5526   19.2907 C   0  0  0  0  0  0
  -29.9598  -15.4662   21.1796 N   0  0  0  0  0  0
  -29.1910  -22.1359   20.0697 N   0  3  2  0  0  0
  -27.5717  -16.7288   21.4993 F   0  0  0  0  0  0
  -31.4756  -12.4275   19.1342 H   0  0  0  0  0  0
  -30.3353  -11.3071   19.8256 H   0  0  0  0  0  0
  -29.7456  -11.7918   17.4345 H   0  0  0  0  0  0
  -29.6675  -13.5000   17.7789 H   0  0  0  0  0  0
  -27.8377  -11.3107   18.8212 H   0  0  0  0  0  0
  -27.3732  -12.6394   17.7919 H   0  0  0  0  0  0
  -27.7081  -14.2555   19.5848 H   0  0  0  0  0  0
  -28.6808  -11.9423   21.3352 H   0  0  0  0  0  0
  -28.4516  -13.5691   21.8876 H   0  0  0  0  0  0
  -25.2751   -9.5677   22.4746 H   0  0  0  0  0  0
  -23.9988   -7.4633   22.7473 H   0  0  0  0  0  0
  -21.0812   -8.8753   19.8977 H   0  0  0  0  0  0
  -22.3665  -10.9648   19.6147 H   0  0  0  0  0  0
  -21.2012   -7.6138   23.9701 H   0  0  0  0  0  0
  -21.1476   -6.0521   25.9071 H   0  0  0  0  0  0
  -22.0602   -2.7592   23.2857 H   0  0  0  0  0  0
  -22.4108  -11.9928   22.4790 H   0  0  0  0  0  0
  -21.1132  -13.1308   22.2607 H   0  0  0  0  0  0
  -24.6690  -15.8347   20.5959 H   0  0  0  0  0  0
  -26.3242  -15.6400   20.3367 H   0  0  0  0  0  0
  -26.7123  -32.5508   23.1132 H   0  0  0  0  0  0
  -25.0048  -33.9770   25.0458 H   0  0  0  0  0  0
  -22.6958  -31.3038   21.4048 H   0  0  0  0  0  0
  -23.3740  -35.9653   23.3295 H   0  0  0  0  0  0
  -24.3594  -36.8926   22.2046 H   0  0  0  0  0  0
  -23.7247  -37.6524   23.6647 H   0  0  0  0  0  0
  -26.0499  -31.5888   20.5906 H   0  0  0  0  0  0
  -26.8226  -30.8783   21.9812 H   0  0  0  0  0  0
  -28.1016  -29.0870   21.1526 H   0  0  0  0  0  0
  -26.0020  -25.9281   19.0750 H   0  0  0  0  0  0
  -23.9692  -27.2666   19.0759 H   0  0  0  0  0  0
  -23.7192  -30.5853   19.4006 H   0  0  0  0  0  0
  -22.7381  -29.2300   19.8731 H   0  0  0  0  0  0
  -25.1275  -36.1956   25.0821 H   0  0  0  0  0  0
  -20.9957  -28.3227   24.1424 H   0  0  0  0  0  0
  -20.5659  -26.2262   23.3591 H   0  0  0  0  0  0
  -21.6635  -26.7430   22.1211 H   0  0  0  0  0  0
  -19.6903  -25.6293   21.1229 H   0  0  0  0  0  0
  -19.6680  -27.3191   20.6732 H   0  0  0  0  0  0
  -17.4185  -26.6655   21.4027 H   0  0  0  0  0  0
  -18.0331  -26.0059   22.9014 H   0  0  0  0  0  0
  -19.7932  -30.7244   24.2282 H   0  0  0  0  0  0
  -17.5017  -31.6264   24.5150 H   0  0  0  0  0  0
  -15.5349  -30.2981   23.7650 H   0  0  0  0  0  0
  -15.8663  -28.0814   22.7065 H   0  0  0  0  0  0
  -24.5883  -30.7109   25.7840 H   0  0  0  0  0  0
  -24.8944  -32.2916   26.4920 H   0  0  0  0  0  0
  -25.8075  -30.8931   27.0237 H   0  0  0  0  0  0
  -26.2827  -29.6814   24.1147 H   0  0  0  0  0  0
  -27.3998  -29.7266   25.4605 H   0  0  0  0  0  0
  -27.8697  -30.4337   23.9307 H   0  0  0  0  0  0
  -27.2642  -33.3607   26.2112 H   0  0  0  0  0  0
  -28.3818  -32.6936   25.0297 H   0  0  0  0  0  0
  -28.0742  -31.8433   26.5361 H   0  0  0  0  0  0
  -28.2567  -38.0129   24.7557 H   0  0  0  0  0  0
  -28.1117  -36.2663   24.6183 H   0  0  0  0  0  0
  -27.2323  -37.1338   25.8855 H   0  0  0  0  0  0
  -20.9280  -29.8746   21.6941 H   0  0  0  0  0  0
  -26.0166  -38.2860   24.1457 H   0  0  0  0  0  0
  -31.4827  -19.5172   19.4060 H   0  0  0  0  0  0
  -31.8983  -17.2180   20.1788 H   0  0  0  0  0  0
  -27.3487  -19.1766   20.6250 H   0  0  0  0  0  0
  -27.4071  -22.9899   19.2008 H   0  0  0  0  0  0
  -27.4295  -22.9603   21.0014 H   0  0  0  0  0  0
  -30.9891  -23.2960   19.8071 H   0  0  0  0  0  0
  -29.9185  -23.2240   18.3613 H   0  0  0  0  0  0
  -29.3337  -24.4745   21.0826 H   0  0  0  0  0  0
  -28.0488  -20.8184   18.8511 H   0  0  0  0  0  0
  -29.7049  -20.9569   18.3807 H   0  0  0  0  0  0
  -27.9217  -25.3824   18.5243 H   0  0  0  0  0  0
  -29.5589  -25.8261   18.7145 H   0  0  0  0  0  0
  -29.1289  -15.1178   21.6337 H   0  0  0  0  0  0
  -29.5269  -21.9436   21.0001 H   0  0  0  0  0  0
  1 25  1  0  0  0
  1 30  2  0  0  0
  1 82  1  0  0  0
  2  3  1  0  0  0
  2 25  1  0  0  0
  2 85  1  0  0  0
  2 86  1  0  0  0
  3  4  1  0  0  0
  3 87  1  0  0  0
  3 88  1  0  0  0
  4  5  1  0  0  0
  4 89  1  0  0  0
  4 90  1  0  0  0
  5  6  1  0  0  0
  5 26  1  0  0  0
  5 91  1  0  0  0
  6 25  1  0  0  0
  6 92  1  0  0  0
  6 93  1  0  0  0
  7  8  2  0  0  0
  7 26  1  0  0  0
  7 29  1  0  0  0
  8  9  1  0  0  0
  8 22  1  0  0  0
  9 10  1  0  0  0
  9 27  2  0  0  0
 10 11  2  0  0  0
 10 15  1  0  0  0
 11 12  1  0  0  0
 11 94  1  0  0  0
 12 13  2  0  0  0
 12 95  1  0  0  0
 13 14  1  0  0  0
 13 31  1  0  0  0
 14 15  2  0  0  0
 14 96  1  0  0  0
 15 97  1  0  0  0
 16 17  2  0  0  0
 16 21  1  0  0  0
 16 31  1  0  0  0
 17 18  1  0  0  0
 17 98  1  0  0  0
 18 19  2  0  0  0
 18 99  1  0  0  0
 19 20  1  0  0  0
 19 24  1  0  0  0
 20 21  2  0  0  0
 20100  1  0  0  0
 21 23  1  0  0  0
 22 28  1  0  0  0
 22 32  2  0  0  0
 26 27  1  0  0  0
 28101  1  0  0  0
 28102  1  0  0  0
 29103  1  0  0  0
 29104  1  0  0  0
 33 34  1  0  0  0
 33 66  1  0  0  0
 33 70  2  0  0  0
 34 36  1  0  0  0
 34 59  1  0  0  0
 34105  1  0  0  0
 35 44  2  0  0  0
 35 45  1  0  0  0
 35 68  1  0  0  0
 36 56  1  0  0  0
 36106  1  0  0  0
 37 39  1  0  0  0
 37 47  1  0  0  0
 37 66  1  0  0  0
 37107  1  0  0  0
 38 43  2  0  0  0
 38 46  1  0  0  0
 38 47  1  0  0  0
 39 64  1  0  0  0
 39 67  2  0  0  0
 40 52  1  0  0  0
 40 53  2  0  0  0
 40 58  1  0  0  0
 41108  1  0  0  0
 41109  1  0  0  0
 41110  1  0  0  0
 41 48  1  0  0  0
 42 43  1  0  0  0
 42 66  1  0  0  0
 42111  1  0  0  0
 42112  1  0  0  0
 43 44  1  0  0  0
 44113  1  0  0  0
 45 46  2  0  0  0
 45114  1  0  0  0
 46115  1  0  0  0
 47116  1  0  0  0
 47117  1  0  0  0
 48 56  1  0  0  0
 48 65  1  0  0  0
 48118  1  0  0  0
 49 50  1  0  0  0
 49 53  1  0  0  0
 49 64  1  0  0  0
 49119  1  0  0  0
 50 51  1  0  0  0
 50120  1  0  0  0
 50121  1  0  0  0
 51 52  1  0  0  0
 51122  1  0  0  0
 51123  1  0  0  0
 52124  1  0  0  0
 52125  1  0  0  0
 53 54  1  0  0  0
 54 55  2  0  0  0
 54126  1  0  0  0
 55 57  1  0  0  0
 55127  1  0  0  0
 56 69  2  0  0  0
 57 58  2  0  0  0
 57128  1  0  0  0
 58129  1  0  0  0
 59 60  1  0  0  0
 59 61  1  0  0  0
 59 62  1  0  0  0
 60130  1  0  0  0
 60131  1  0  0  0
 60132  1  0  0  0
 61133  1  0  0  0
 61134  1  0  0  0
 61135  1  0  0  0
 62136  1  0  0  0
 62137  1  0  0  0
 62138  1  0  0  0
 63 65  1  0  0  0
 63139  1  0  0  0
 63140  1  0  0  0
 63141  1  0  0  0
 64142  1  0  0  0
 65143  1  0  0  0
 68 81  1  0  0  0
 71 72  2  0  0  0
 71 74  1  0  0  0
 71144  1  0  0  0
 72 75  1  0  0  0
 72145  1  0  0  0
 73 74  2  0  0  0
 73 76  1  0  0  0
 73146  1  0  0  0
 74 80  1  0  0  0
 75 76  2  0  0  0
 75 82  1  0  0  0
 76 84  1  0  0  0
 77 79  1  0  0  0
 77 83  1  0  0  0
 77147  1  0  0  0
 77148  1  0  0  0
 78 79  1  0  0  0
 78 83  1  0  0  0
 78149  1  0  0  0
 78150  1  0  0  0
 79 81  1  0  0  0
 79151  1  0  0  0
 80152  1  0  0  0
 80153  1  0  0  0
 80 83  1  0  0  0
 81154  1  0  0  0
 81155  1  0  0  0
 82156  1  0  0  0
 83157  1  0  0  0
M  CHG  1  83   1
M  ISO  4   1 100  68 101  81 101  82 100
M  END
> <chiral flag>
0

> <version>
0

> <s_m_source_file>
/data/baiqing/PycharmProjects/Reinvent-master-3.2/result/LINK_invent/BTK/process_docking_weight1_custom_product_contain_oxygen_bond_distance_aromatic_linkinvent_7_9_3/rearranged_h_0015.sdf

> <i_m_source_file_index>
56

> <r_mmod_Potential_Energy-OPLS-2005>
-200.902908325195

> <r_mmod_Stretch_Energy-OPLS-2005>
42.9391822814941

> <r_mmod_Bend_Energy-OPLS-2005>
128.617401123047

> <r_mmod_Torsional_Energy-OPLS-2005>
247.288101196289

> <r_mmod_Improper_Torsional_Energy-OPLS-2005>
5.96660900115967

> <r_mmod_Van_der_Waal_Energy-OPLS-2005>
151.454010009766

> <r_mmod_Electrostatic_Energy-OPLS-2005>
-320.637145996094

> <r_mmod_Solvation_Energy-OPLS-2005>
-471.947235107422

> <b_mmod_Minimization_Converged-OPLS-2005>
0

> <r_mmod_RMS_Derivative-OPLS-2005>
1.96112811565399

$$$$
56
                    3D
 Structure written by MMmdl.
192200  0  0  1  0            999 V2000
  -30.7656  -14.3699   20.6499 C   0  0  0  0  0  0
  -30.4105  -12.2773   19.3955 C   0  0  0  0  0  0
  -29.4794  -12.5061   18.1903 C   0  0  0  0  0  0
  -28.0062  -12.3538   18.6117 C   0  0  0  0  0  0
  -27.6592  -13.1880   19.8702 C   0  0  2  0  0  0
  -28.7003  -12.9573   20.9900 C   0  0  0  0  0  0
  -25.2593  -13.8110   20.5670 C   0  0  0  0  0  0
  -24.1841  -13.0417   20.9186 C   0  0  0  0  0  0
  -24.6371  -11.6872   20.8750 C   0  0  0  0  0  0
  -23.9038  -10.4276   21.0425 C   0  0  0  0  0  0
  -24.3590   -9.4183   21.9201 C   0  0  0  0  0  0
  -23.6270   -8.2224   22.0755 C   0  0  0  0  0  0
  -22.4260   -8.0266   21.3541 C   0  0  0  0  0  0
  -21.9895   -9.0247   20.4650 C   0  0  0  0  0  0
  -22.7220  -10.2121   20.3075 C   0  0  0  0  0  0
  -21.6842   -6.0726   22.5268 C   0  0  0  0  0  0
  -21.4010   -6.5636   23.8207 C   0  0  0  0  0  0
  -21.3658   -5.6793   24.9177 C   0  0  0  0  0  0
  -21.6046   -4.3055   24.7238 C   0  0  0  0  0  0
  -21.8819   -3.8143   23.4357 C   0  0  0  0  0  0
  -21.9189   -4.6952   22.3401 C   0  0  0  0  0  0
  -22.7866  -13.5230   21.1837 C   0  0  0  0  0  0
  -22.1661   -4.2138   21.0978 F   0  0  0  0  0  0
  -21.5632   -3.4536   25.7759 F   0  0  0  0  0  0
  -30.0408  -13.2388   20.4438 N   0  0  0  0  0  0
  -26.2998  -12.9243   20.3332 N   0  0  0  0  0  0
  -25.9277  -11.6421   20.5759 N   0  0  0  0  0  0
  -22.0500  -12.8244   22.0410 N   0  0  0  0  0  0
  -25.4354  -15.1837   20.4053 N   0  0  0  0  0  0
  -31.8449  -14.5903   20.0909 O   0  0  0  0  0  0
  -21.6623   -6.8862   21.4229 O   0  0  0  0  0  0
  -22.3570  -14.5543   20.6691 O   0  0  0  0  0  0
  -24.6139  -31.8693   23.2126 C   0  0  0  0  0  0
  -25.9054  -32.4830   23.8415 C   0  0  1  0  0  0
  -27.2606  -27.4779   20.0683 C   0  0  0  0  0  0
  -25.5945  -33.8630   24.2351 N   0  0  0  0  0  0
  -23.4017  -30.4894   21.5531 C   0  0  2  0  0  0
  -24.8518  -28.9467   20.1270 C   0  0  0  0  0  0
  -22.7392  -29.4678   22.5039 C   0  0  0  0  0  0
  -18.0288  -28.1354   22.8506 C   0  0  0  0  0  0
  -24.1489  -36.7335   23.2632 C   0  0  0  0  0  0
  -25.9280  -30.8412   21.3598 C   0  0  0  0  0  0
  -26.0106  -29.4728   20.7153 C   0  0  0  0  0  0
  -27.2183  -28.7432   20.6902 C   0  0  0  0  0  0
  -26.0853  -26.9428   19.5040 C   0  0  0  0  0  0
  -24.8796  -27.6729   19.5264 C   0  0  0  0  0  0
  -23.6114  -29.8103   20.1732 C   0  0  0  0  0  0
  -25.4087  -36.3109   24.0350 C   0  0  1  0  0  0
  -20.5868  -28.3640   23.1337 C   0  0  2  0  0  0
  -20.6772  -26.9380   22.5418 C   0  0  0  0  0  0
  -19.5765  -26.6377   21.5198 C   0  0  0  0  0  0
  -18.1928  -26.7930   22.1576 C   0  0  0  0  0  0
  -19.1535  -28.8813   23.2931 C   0  0  0  0  0  0
  -18.9451  -30.1443   23.8901 C   0  0  0  0  0  0
  -17.6447  -30.6564   24.0571 C   0  0  0  0  0  0
  -25.9035  -34.9485   23.5121 C   0  0  0  0  0  0
  -16.5345  -29.9039   23.6351 C   0  0  0  0  0  0
  -16.7278  -28.6488   23.0324 C   0  0  0  0  0  0
  -26.4481  -31.6601   25.0736 C   0  0  0  0  0  0
  -25.3759  -31.3717   26.1503 C   0  0  0  0  0  0
  -27.0300  -30.3045   24.6108 C   0  0  0  0  0  0
  -27.6087  -32.4308   25.7453 C   0  0  0  0  0  0
  -27.5588  -37.1787   24.8452 C   0  0  0  0  0  0
  -21.4136  -29.3012   22.3751 N   0  0  0  0  0  0
  -26.4262  -37.3805   23.9451 N   0  0  0  0  0  0
  -24.6657  -31.0808   22.0998 N   0  0  0  0  0  0
  -23.4148  -28.8230   23.3095 O   0  0  0  0  0  0
  -28.4355  -26.7750   19.9643 O   0  0  0  0  0  0
  -26.5557  -34.8933   22.4663 O   0  0  0  0  0  0
  -23.5366  -32.1446   23.7566 O   0  0  0  0  0  0
  -30.6232  -18.5884   21.2116 C   0  0  0  0  0  0
  -31.3912  -19.6332   20.6674 C   0  0  0  0  0  0
  -30.7033  -17.4257   19.0752 C   0  0  0  0  0  0
  -30.2624  -17.4883   20.4118 C   0  0  0  0  0  0
  -31.8170  -19.5958   19.3204 C   0  0  0  0  0  0
  -31.4926  -18.4568   18.5331 C   0  0  0  0  0  0
  -32.4223  -25.2527   18.8865 C   0  0  0  0  0  0
  -34.6936  -22.8957   19.5570 C   0  0  0  0  0  0
  -34.7614  -25.9875   19.6978 C   0  0  0  0  0  0
  -31.9493  -21.3606   17.6559 C   0  0  0  0  0  0
  -32.8812  -23.0884   21.2407 C   0  0  0  0  0  0
  -31.0052  -15.5854   22.7301 C   0  0  0  0  0  0
  -36.6086  -20.0952   20.9915 C   0  0  0  0  0  0
  -36.8641  -20.5064   18.5777 C   0  0  0  0  0  0
  -29.4348  -16.3568   20.9985 C   0  0  0  0  0  0
  -30.1257  -26.0158   18.3455 C   0  0  0  0  0  0
  -34.0105  -20.4919   18.7918 C   0  0  0  0  0  0
  -29.1821  -27.1417   18.8012 C   0  0  0  0  0  0
  -33.5173  -25.1058   19.9578 C   0  0  2  0  0  0
  -34.8146  -21.3628   19.8109 C   0  0  1  0  0  0
  -31.9698  -18.3173   17.2297 N   0  0  0  0  0  0
  -31.2751  -25.8512   19.2355 N   0  0  0  0  0  0
  -32.5571  -20.6788   18.8010 N   0  0  0  0  0  0
  -33.7909  -23.6679   20.2398 N   0  0  0  0  0  0
  -30.2421  -15.2498   21.5257 N   0  0  0  0  0  0
  -36.2642  -20.9826   19.8545 N   0  3  0  0  0  0
  -32.6162  -24.8271   17.7466 O   0  0  0  0  0  0
  -35.4601  -23.3735   18.7157 O   0  0  0  0  0  0
  -31.4549  -12.3671   19.0902 H   0  0  0  0  0  0
  -30.3018  -11.2578   19.7712 H   0  0  0  0  0  0
  -29.7134  -11.7978   17.3940 H   0  0  0  0  0  0
  -29.6457  -13.5012   17.7752 H   0  0  0  0  0  0
  -27.8257  -11.2963   18.8085 H   0  0  0  0  0  0
  -27.3485  -12.6272   17.7869 H   0  0  0  0  0  0
  -27.7024  -14.2306   19.5646 H   0  0  0  0  0  0
  -28.6630  -11.9234   21.3374 H   0  0  0  0  0  0
  -28.4539  -13.5624   21.8635 H   0  0  0  0  0  0
  -25.2729   -9.5660   22.4783 H   0  0  0  0  0  0
  -23.9984   -7.4609   22.7474 H   0  0  0  0  0  0
  -21.0830   -8.8763   19.8956 H   0  0  0  0  0  0
  -22.3677  -10.9671   19.6193 H   0  0  0  0  0  0
  -21.2001   -7.6145   23.9711 H   0  0  0  0  0  0
  -21.1484   -6.0529   25.9085 H   0  0  0  0  0  0
  -22.0603   -2.7602   23.2866 H   0  0  0  0  0  0
  -22.4101  -11.9897   22.4795 H   0  0  0  0  0  0
  -21.1122  -13.1273   22.2606 H   0  0  0  0  0  0
  -24.6677  -15.8388   20.5088 H   0  0  0  0  0  0
  -26.2869  -15.6185   20.0728 H   0  0  0  0  0  0
  -26.7144  -32.5581   23.1215 H   0  0  0  0  0  0
  -25.0140  -33.9811   25.0513 H   0  0  0  0  0  0
  -22.6912  -31.3043   21.4075 H   0  0  0  0  0  0
  -23.3741  -35.9674   23.3248 H   0  0  0  0  0  0
  -24.3598  -36.8998   22.2054 H   0  0  0  0  0  0
  -23.7254  -37.6531   23.6676 H   0  0  0  0  0  0
  -26.0260  -31.6005   20.5831 H   0  0  0  0  0  0
  -26.8212  -30.9095   21.9694 H   0  0  0  0  0  0
  -28.1216  -29.1548   21.1193 H   0  0  0  0  0  0
  -26.1158  -25.9709   19.0290 H   0  0  0  0  0  0
  -23.9906  -27.2559   19.0728 H   0  0  0  0  0  0
  -23.7145  -30.5804   19.4079 H   0  0  0  0  0  0
  -22.7359  -29.2243   19.8883 H   0  0  0  0  0  0
  -25.1241  -36.1948   25.0844 H   0  0  0  0  0  0
  -20.9976  -28.3212   24.1453 H   0  0  0  0  0  0
  -20.5662  -26.2244   23.3593 H   0  0  0  0  0  0
  -21.6646  -26.7430   22.1216 H   0  0  0  0  0  0
  -19.6925  -25.6277   21.1250 H   0  0  0  0  0  0
  -19.6736  -27.3171   20.6714 H   0  0  0  0  0  0
  -17.4223  -26.6768   21.3939 H   0  0  0  0  0  0
  -18.0289  -26.0006   22.8899 H   0  0  0  0  0  0
  -19.7916  -30.7313   24.2222 H   0  0  0  0  0  0
  -17.4988  -31.6256   24.5133 H   0  0  0  0  0  0
  -15.5349  -30.2908   23.7725 H   0  0  0  0  0  0
  -15.8688  -28.0862   22.6914 H   0  0  0  0  0  0
  -24.6000  -30.6946   25.7907 H   0  0  0  0  0  0
  -24.8826  -32.2849   26.4849 H   0  0  0  0  0  0
  -25.8144  -30.9029   27.0322 H   0  0  0  0  0  0
  -26.2829  -29.6770   24.1236 H   0  0  0  0  0  0
  -27.4152  -29.7320   25.4554 H   0  0  0  0  0  0
  -27.8625  -30.4342   23.9188 H   0  0  0  0  0  0
  -27.2743  -33.3610   26.2057 H   0  0  0  0  0  0
  -28.3846  -32.6868   25.0220 H   0  0  0  0  0  0
  -28.0817  -31.8415   26.5327 H   0  0  0  0  0  0
  -28.2555  -38.0128   24.7521 H   0  0  0  0  0  0
  -28.1128  -36.2663   24.6179 H   0  0  0  0  0  0
  -27.2366  -37.1338   25.8871 H   0  0  0  0  0  0
  -20.9303  -29.8668   21.6906 H   0  0  0  0  0  0
  -26.0153  -38.2881   24.1467 H   0  0  0  0  0  0
  -30.3119  -18.6334   22.2464 H   0  0  0  0  0  0
  -31.6419  -20.4595   21.3114 H   0  0  0  0  0  0
  -30.4519  -16.5674   18.4681 H   0  0  0  0  0  0
  -34.4991  -27.0456   19.7614 H   0  0  0  0  0  0
  -35.1859  -25.8374   18.7034 H   0  0  0  0  0  0
  -35.5433  -25.8061   20.4344 H   0  0  0  0  0  0
  -30.8922  -21.5687   17.8278 H   0  0  0  0  0  0
  -32.0282  -20.7767   16.7382 H   0  0  0  0  0  0
  -32.4489  -22.3090   17.4597 H   0  0  0  0  0  0
  -33.4100  -22.5570   22.0315 H   0  0  0  0  0  0
  -32.1804  -22.4206   20.7498 H   0  0  0  0  0  0
  -32.2625  -23.8302   21.7467 H   0  0  0  0  0  0
  -30.4263  -16.2190   23.4033 H   0  0  0  0  0  0
  -31.9251  -16.1141   22.4740 H   0  0  0  0  0  0
  -31.2752  -14.6829   23.2806 H   0  0  0  0  0  0
  -37.6845  -19.9149   21.0374 H   0  0  0  0  0  0
  -36.1100  -19.1287   20.9018 H   0  0  0  0  0  0
  -36.3185  -20.5397   21.9444 H   0  0  0  0  0  0
  -37.9498  -20.4535   18.6595 H   0  0  0  0  0  0
  -36.6425  -21.1768   17.7481 H   0  0  0  0  0  0
  -36.5147  -19.5079   18.3122 H   0  0  0  0  0  0
  -28.7643  -16.0015   20.2180 H   0  0  0  0  0  0
  -28.7812  -16.7401   21.7819 H   0  0  0  0  0  0
  -30.4774  -26.2443   17.3376 H   0  0  0  0  0  0
  -29.5754  -25.0752   18.2729 H   0  0  0  0  0  0
  -34.2301  -19.4408   18.9844 H   0  0  0  0  0  0
  -34.3633  -20.6863   17.7778 H   0  0  0  0  0  0
  -28.5063  -27.3577   17.9687 H   0  0  0  0  0  0
  -29.7375  -28.0614   18.9911 H   0  0  0  0  0  0
  -33.1084  -25.5411   20.8715 H   0  0  0  0  0  0
  -34.4166  -21.1366   20.7949 H   0  0  0  0  0  0
  -31.9958  -17.3934   16.8131 H   0  0  0  0  0  0
  -32.7684  -18.8938   16.9900 H   0  0  0  0  0  0
  -31.1710  -26.1869   20.1846 H   0  0  0  0  0  0
  -36.7265  -21.8625   20.0382 H   0  0  0  0  0  0
  1 25  1  0  0  0
  1 30  2  0  0  0
  1 95  1  0  0  0
  2  3  1  0  0  0
  2 25  1  0  0  0
  2 99  1  0  0  0
  2100  1  0  0  0
  3  4  1  0  0  0
  3101  1  0  0  0
  3102  1  0  0  0
  4  5  1  0  0  0
  4103  1  0  0  0
  4104  1  0  0  0
  5  6  1  0  0  0
  5 26  1  0  0  0
  5105  1  0  0  0
  6 25  1  0  0  0
  6106  1  0  0  0
  6107  1  0  0  0
  7  8  2  0  0  0
  7 26  1  0  0  0
  7 29  1  0  0  0
  8  9  1  0  0  0
  8 22  1  0  0  0
  9 10  1  0  0  0
  9 27  2  0  0  0
 10 11  2  0  0  0
 10 15  1  0  0  0
 11 12  1  0  0  0
 11108  1  0  0  0
 12 13  2  0  0  0
 12109  1  0  0  0
 13 14  1  0  0  0
 13 31  1  0  0  0
 14 15  2  0  0  0
 14110  1  0  0  0
 15111  1  0  0  0
 16 17  2  0  0  0
 16 21  1  0  0  0
 16 31  1  0  0  0
 17 18  1  0  0  0
 17112  1  0  0  0
 18 19  2  0  0  0
 18113  1  0  0  0
 19 20  1  0  0  0
 19 24  1  0  0  0
 20 21  2  0  0  0
 20114  1  0  0  0
 21 23  1  0  0  0
 22 28  1  0  0  0
 22 32  2  0  0  0
 26 27  1  0  0  0
 28115  1  0  0  0
 28116  1  0  0  0
 29117  1  0  0  0
 29118  1  0  0  0
 33 34  1  0  0  0
 33 66  1  0  0  0
 33 70  2  0  0  0
 34 36  1  0  0  0
 34 59  1  0  0  0
 34119  1  0  0  0
 35 44  2  0  0  0
 35 45  1  0  0  0
 35 68  1  0  0  0
 36 56  1  0  0  0
 36120  1  0  0  0
 37 39  1  0  0  0
 37 47  1  0  0  0
 37 66  1  0  0  0
 37121  1  0  0  0
 38 43  2  0  0  0
 38 46  1  0  0  0
 38 47  1  0  0  0
 39 64  1  0  0  0
 39 67  2  0  0  0
 40 52  1  0  0  0
 40 53  2  0  0  0
 40 58  1  0  0  0
 41122  1  0  0  0
 41123  1  0  0  0
 41124  1  0  0  0
 41 48  1  0  0  0
 42 43  1  0  0  0
 42 66  1  0  0  0
 42125  1  0  0  0
 42126  1  0  0  0
 43 44  1  0  0  0
 44127  1  0  0  0
 45 46  2  0  0  0
 45128  1  0  0  0
 46129  1  0  0  0
 47130  1  0  0  0
 47131  1  0  0  0
 48 56  1  0  0  0
 48 65  1  0  0  0
 48132  1  0  0  0
 49 50  1  0  0  0
 49 53  1  0  0  0
 49 64  1  0  0  0
 49133  1  0  0  0
 50 51  1  0  0  0
 50134  1  0  0  0
 50135  1  0  0  0
 51 52  1  0  0  0
 51136  1  0  0  0
 51137  1  0  0  0
 52138  1  0  0  0
 52139  1  0  0  0
 53 54  1  0  0  0
 54 55  2  0  0  0
 54140  1  0  0  0
 55 57  1  0  0  0
 55141  1  0  0  0
 56 69  2  0  0  0
 57 58  2  0  0  0
 57142  1  0  0  0
 58143  1  0  0  0
 59 60  1  0  0  0
 59 61  1  0  0  0
 59 62  1  0  0  0
 60144  1  0  0  0
 60145  1  0  0  0
 60146  1  0  0  0
 61147  1  0  0  0
 61148  1  0  0  0
 61149  1  0  0  0
 62150  1  0  0  0
 62151  1  0  0  0
 62152  1  0  0  0
 63 65  1  0  0  0
 63153  1  0  0  0
 63154  1  0  0  0
 63155  1  0  0  0
 64156  1  0  0  0
 65157  1  0  0  0
 68 88  1  0  0  0
 71 72  2  0  0  0
 71 74  1  0  0  0
 71158  1  0  0  0
 72 75  1  0  0  0
 72159  1  0  0  0
 73 74  2  0  0  0
 73 76  1  0  0  0
 73160  1  0  0  0
 74 85  1  0  0  0
 75 76  2  0  0  0
 75 93  1  0  0  0
 76 91  1  0  0  0
 77 89  1  0  0  0
 77 92  1  0  0  0
 77 97  2  0  0  0
 78 90  1  0  0  0
 78 94  1  0  0  0
 78 98  2  0  0  0
 79161  1  0  0  0
 79162  1  0  0  0
 79163  1  0  0  0
 79 89  1  0  0  0
 80 93  1  0  0  0
 80164  1  0  0  0
 80165  1  0  0  0
 80166  1  0  0  0
 81 94  1  0  0  0
 81167  1  0  0  0
 81168  1  0  0  0
 81169  1  0  0  0
 82 95  1  0  0  0
 82170  1  0  0  0
 82171  1  0  0  0
 82172  1  0  0  0
 83173  1  0  0  0
 83174  1  0  0  0
 83175  1  0  0  0
 83 96  1  0  0  0
 84 96  1  0  0  0
 84176  1  0  0  0
 84177  1  0  0  0
 84178  1  0  0  0
 85 95  1  0  0  0
 85179  1  0  0  0
 85180  1  0  0  0
 86 88  1  0  0  0
 86 92  1  0  0  0
 86181  1  0  0  0
 86182  1  0  0  0
 87 93  1  0  0  0
 87183  1  0  0  0
 87184  1  0  0  0
 87 90  1  0  0  0
 88185  1  0  0  0
 88186  1  0  0  0
 89 94  1  0  0  0
 89187  1  0  0  0
 90 96  1  0  0  0
 90188  1  0  0  0
 91189  1  0  0  0
 91190  1  0  0  0
 92191  1  0  0  0
 96192  1  0  0  0
M  CHG  1  96   1
M  ISO  4   1 100  68 101  88 101  95 100
M  END
> <chiral flag>
0

> <version>
0

> <s_m_source_file>
/data/baiqing/PycharmProjects/Reinvent-master-3.2/result/LINK_invent/BTK/process_docking_weight1_custom_product_contain_oxygen_bond_distance_aromatic_linkinvent_7_9_3/rearranged_h_0015.sdf

> <i_m_source_file_index>
57

> <r_mmod_Potential_Energy-OPLS-2005>
-110.530639648438

> <r_mmod_Stretch_Energy-OPLS-2005>
45.9271430969238

> <r_mmod_Bend_Energy-OPLS-2005>
119.450866699219

> <r_mmod_Torsional_Energy-OPLS-2005>
364.909759521484

> <r_mmod_Improper_Torsional_Energy-OPLS-2005>
11.2124509811401

> <r_mmod_Van_der_Waal_Energy-OPLS-2005>
171.786483764648

> <r_mmod_Electrostatic_Energy-OPLS-2005>
-384.101013183594

> <r_mmod_Solvation_Energy-OPLS-2005>
-448.300384521484

> <b_mmod_Minimization_Converged-OPLS-2005>
0

> <r_mmod_RMS_Derivative-OPLS-2005>
3.37994933128357

$$$$
57
                    3D
 Structure written by MMmdl.
154162  0  0  1  0            999 V2000
  -30.6630  -14.6461   20.5311 C   0  0  0  0  0  0
  -30.4281  -12.4109   19.4539 C   0  0  0  0  0  0
  -29.5018  -12.5169   18.2225 C   0  0  0  0  0  0
  -28.0239  -12.3556   18.6307 C   0  0  0  0  0  0
  -27.6492  -13.2193   19.8647 C   0  0  2  0  0  0
  -28.6933  -13.0504   20.9866 C   0  0  0  0  0  0
  -25.2539  -13.8173   20.5692 C   0  0  0  0  0  0
  -24.1811  -13.0433   20.9186 C   0  0  0  0  0  0
  -24.6385  -11.6905   20.8735 C   0  0  0  0  0  0
  -23.9061  -10.4287   21.0402 C   0  0  0  0  0  0
  -24.3610   -9.4205   21.9183 C   0  0  0  0  0  0
  -23.6288   -8.2238   22.0752 C   0  0  0  0  0  0
  -22.4272   -8.0275   21.3541 C   0  0  0  0  0  0
  -21.9906   -9.0249   20.4644 C   0  0  0  0  0  0
  -22.7232  -10.2130   20.3055 C   0  0  0  0  0  0
  -21.6851   -6.0734   22.5279 C   0  0  0  0  0  0
  -21.4014   -6.5640   23.8212 C   0  0  0  0  0  0
  -21.3661   -5.6795   24.9176 C   0  0  0  0  0  0
  -21.6043   -4.3057   24.7227 C   0  0  0  0  0  0
  -21.8819   -3.8148   23.4349 C   0  0  0  0  0  0
  -21.9193   -4.6963   22.3404 C   0  0  0  0  0  0
  -22.7835  -13.5221   21.1854 C   0  0  0  0  0  0
  -22.1660   -4.2147   21.0982 F   0  0  0  0  0  0
  -21.5629   -3.4543   25.7740 F   0  0  0  0  0  0
  -29.9970  -13.4423   20.4279 N   0  0  0  0  0  0
  -26.2963  -12.9361   20.3324 N   0  0  0  0  0  0
  -25.9310  -11.6509   20.5746 N   0  0  0  0  0  0
  -22.0483  -12.8214   22.0414 N   0  0  0  0  0  0
  -25.4258  -15.1893   20.4122 N   0  0  0  0  0  0
  -31.8242  -14.7207   20.1140 O   0  0  0  0  0  0
  -21.6637   -6.8873   21.4238 O   0  0  0  0  0  0
  -22.3521  -14.5530   20.6709 O   0  0  0  0  0  0
  -24.6245  -31.8598   23.2021 C   0  0  0  0  0  0
  -25.9097  -32.4780   23.8350 C   0  0  1  0  0  0
  -27.2281  -27.3380   20.1211 C   0  0  0  0  0  0
  -25.5914  -33.8580   24.2281 N   0  0  0  0  0  0
  -23.4186  -30.4812   21.5443 C   0  0  2  0  0  0
  -24.8672  -28.9337   20.1140 C   0  0  0  0  0  0
  -22.7468  -29.4619   22.4946 C   0  0  0  0  0  0
  -18.0283  -28.1379   22.8488 C   0  0  0  0  0  0
  -24.1488  -36.7299   23.2640 C   0  0  0  0  0  0
  -25.9567  -30.7976   21.3686 C   0  0  0  0  0  0
  -26.0346  -29.4245   20.7144 C   0  0  0  0  0  0
  -27.2228  -28.6387   20.7056 C   0  0  0  0  0  0
  -26.0433  -26.8870   19.5056 C   0  0  0  0  0  0
  -24.8717  -27.6693   19.5008 C   0  0  0  0  0  0
  -23.6336  -29.8118   20.1609 C   0  0  0  0  0  0
  -25.4112  -36.3086   24.0330 C   0  0  1  0  0  0
  -20.5882  -28.3681   23.1291 C   0  0  2  0  0  0
  -20.6774  -26.9408   22.5407 C   0  0  0  0  0  0
  -19.5747  -26.6385   21.5210 C   0  0  0  0  0  0
  -18.1930  -26.7922   22.1627 C   0  0  0  0  0  0
  -19.1534  -28.8848   23.2886 C   0  0  0  0  0  0
  -18.9453  -30.1449   23.8903 C   0  0  0  0  0  0
  -17.6453  -30.6583   24.0561 C   0  0  0  0  0  0
  -25.9046  -34.9454   23.5106 C   0  0  0  0  0  0
  -16.5346  -29.9080   23.6322 C   0  0  0  0  0  0
  -16.7269  -28.6495   23.0350 C   0  0  0  0  0  0
  -26.4490  -31.6587   25.0716 C   0  0  0  0  0  0
  -25.3730  -31.3715   26.1447 C   0  0  0  0  0  0
  -27.0333  -30.3017   24.6154 C   0  0  0  0  0  0
  -27.6051  -32.4318   25.7487 C   0  0  0  0  0  0
  -27.5578  -37.1806   24.8466 C   0  0  0  0  0  0
  -21.4182  -29.3040   22.3693 N   0  0  0  0  0  0
  -26.4293  -37.3779   23.9406 N   0  0  0  0  0  0
  -24.6854  -31.0623   22.0960 N   0  0  0  0  0  0
  -23.4196  -28.8158   23.3022 O   0  0  0  0  0  0
  -28.3388  -26.4935   20.1222 O   0  0  0  0  0  0
  -26.5618  -34.8919   22.4675 O   0  0  0  0  0  0
  -23.5411  -32.1386   23.7359 O   0  0  0  0  0  0
  -29.0791  -19.2929   19.3498 C   0  0  0  0  0  0
  -30.2000  -19.2659   21.4741 C   0  0  0  0  0  0
  -28.7731  -20.6800   19.5154 C   0  0  0  0  0  0
  -29.8792  -20.6436   21.6499 C   0  0  0  0  0  0
  -29.8088  -18.5450   20.3174 C   0  0  0  0  0  0
  -29.1781  -21.3993   20.6714 C   0  0  0  0  0  0
  -28.5740  -23.8852   20.1604 C   0  0  0  0  0  0
  -29.1130  -16.0138   21.9366 C   0  0  0  0  0  0
  -30.3366  -17.0890   20.0034 C   0  0  0  0  0  0
  -28.2007  -25.2392   20.8887 C   0  0  0  0  0  0
  -28.8778  -22.8050   20.9488 N   0  0  0  0  0  0
  -29.9544  -15.8237   20.7501 N   0  0  0  0  0  0
  -28.5763  -23.8300   18.9272 O   0  0  0  0  0  0
  -31.4688  -12.5241   19.1458 H   0  0  0  0  0  0
  -30.3662  -11.4154   19.8964 H   0  0  0  0  0  0
  -29.7691  -11.7620   17.4817 H   0  0  0  0  0  0
  -29.6437  -13.4850   17.7387 H   0  0  0  0  0  0
  -27.8583  -11.3015   18.8562 H   0  0  0  0  0  0
  -27.3705  -12.5918   17.7901 H   0  0  0  0  0  0
  -27.6734  -14.2598   19.5403 H   0  0  0  0  0  0
  -28.7238  -12.0103   21.3140 H   0  0  0  0  0  0
  -28.4122  -13.6004   21.8779 H   0  0  0  0  0  0
  -25.2750   -9.5685   22.4763 H   0  0  0  0  0  0
  -23.9998   -7.4633   22.7474 H   0  0  0  0  0  0
  -21.0837   -8.8769   19.8954 H   0  0  0  0  0  0
  -22.3685  -10.9672   19.6169 H   0  0  0  0  0  0
  -21.2005   -7.6149   23.9713 H   0  0  0  0  0  0
  -21.1481   -6.0527   25.9077 H   0  0  0  0  0  0
  -22.0597   -2.7610   23.2853 H   0  0  0  0  0  0
  -22.4097  -11.9871   22.4799 H   0  0  0  0  0  0
  -21.1104  -13.1247   22.2622 H   0  0  0  0  0  0
  -24.6652  -15.8488   20.5340 H   0  0  0  0  0  0
  -26.2873  -15.6288   20.1139 H   0  0  0  0  0  0
  -26.7167  -32.5463   23.1104 H   0  0  0  0  0  0
  -25.0055  -33.9723   25.0421 H   0  0  0  0  0  0
  -22.7118  -31.3008   21.3995 H   0  0  0  0  0  0
  -23.3744  -35.9639   23.3309 H   0  0  0  0  0  0
  -24.3578  -36.8914   22.2053 H   0  0  0  0  0  0
  -23.7248  -37.6506   23.6657 H   0  0  0  0  0  0
  -26.0820  -31.5604   20.5989 H   0  0  0  0  0  0
  -26.8391  -30.8506   21.9948 H   0  0  0  0  0  0
  -28.1230  -29.0126   21.1732 H   0  0  0  0  0  0
  -26.0238  -25.9135   19.0356 H   0  0  0  0  0  0
  -23.9768  -27.2871   19.0294 H   0  0  0  0  0  0
  -23.7509  -30.5860   19.4018 H   0  0  0  0  0  0
  -22.7552  -29.2379   19.8605 H   0  0  0  0  0  0
  -25.1294  -36.1941   25.0822 H   0  0  0  0  0  0
  -20.9972  -28.3244   24.1412 H   0  0  0  0  0  0
  -20.5686  -26.2284   23.3601 H   0  0  0  0  0  0
  -21.6638  -26.7453   22.1185 H   0  0  0  0  0  0
  -19.6910  -25.6297   21.1235 H   0  0  0  0  0  0
  -19.6677  -27.3200   20.6744 H   0  0  0  0  0  0
  -17.4194  -26.6659   21.4034 H   0  0  0  0  0  0
  -18.0340  -26.0064   22.9028 H   0  0  0  0  0  0
  -19.7928  -30.7266   24.2277 H   0  0  0  0  0  0
  -17.5003  -31.6263   24.5158 H   0  0  0  0  0  0
  -15.5346  -30.2979   23.7640 H   0  0  0  0  0  0
  -15.8673  -28.0809   22.7067 H   0  0  0  0  0  0
  -24.5903  -30.7067   25.7772 H   0  0  0  0  0  0
  -24.8923  -32.2879   26.4882 H   0  0  0  0  0  0
  -25.8060  -30.8885   27.0216 H   0  0  0  0  0  0
  -26.2901  -29.6766   24.1189 H   0  0  0  0  0  0
  -27.4054  -29.7271   25.4646 H   0  0  0  0  0  0
  -27.8758  -30.4312   23.9355 H   0  0  0  0  0  0
  -27.2663  -33.3612   26.2076 H   0  0  0  0  0  0
  -28.3857  -32.6889   25.0314 H   0  0  0  0  0  0
  -28.0727  -31.8438   26.5395 H   0  0  0  0  0  0
  -28.2603  -38.0096   24.7502 H   0  0  0  0  0  0
  -28.1066  -36.2627   24.6305 H   0  0  0  0  0  0
  -27.2295  -37.1474   25.8869 H   0  0  0  0  0  0
  -20.9359  -29.8763   21.6905 H   0  0  0  0  0  0
  -26.0175  -38.2856   24.1399 H   0  0  0  0  0  0
  -28.7746  -18.8091   18.4319 H   0  0  0  0  0  0
  -30.7884  -18.7685   22.2326 H   0  0  0  0  0  0
  -28.2206  -21.1865   18.7364 H   0  0  0  0  0  0
  -30.2100  -21.1298   22.5575 H   0  0  0  0  0  0
  -29.4007  -15.3388   22.7441 H   0  0  0  0  0  0
  -29.1891  -17.0113   22.3592 H   0  0  0  0  0  0
  -28.0641  -15.8477   21.6915 H   0  0  0  0  0  0
  -31.4229  -17.1836   20.0497 H   0  0  0  0  0  0
  -30.1252  -16.8917   18.9514 H   0  0  0  0  0  0
  -28.8436  -25.3351   21.7641 H   0  0  0  0  0  0
  -27.1883  -25.1305   21.2813 H   0  0  0  0  0  0
  -28.9251  -23.0479   21.9292 H   0  0  0  0  0  0
  1 25  1  0  0  0
  1 30  2  0  0  0
  1 82  1  0  0  0
  2  3  1  0  0  0
  2 25  1  0  0  0
  2 84  1  0  0  0
  2 85  1  0  0  0
  3  4  1  0  0  0
  3 86  1  0  0  0
  3 87  1  0  0  0
  4  5  1  0  0  0
  4 88  1  0  0  0
  4 89  1  0  0  0
  5  6  1  0  0  0
  5 26  1  0  0  0
  5 90  1  0  0  0
  6 25  1  0  0  0
  6 91  1  0  0  0
  6 92  1  0  0  0
  7  8  2  0  0  0
  7 26  1  0  0  0
  7 29  1  0  0  0
  8  9  1  0  0  0
  8 22  1  0  0  0
  9 10  1  0  0  0
  9 27  2  0  0  0
 10 11  2  0  0  0
 10 15  1  0  0  0
 11 12  1  0  0  0
 11 93  1  0  0  0
 12 13  2  0  0  0
 12 94  1  0  0  0
 13 14  1  0  0  0
 13 31  1  0  0  0
 14 15  2  0  0  0
 14 95  1  0  0  0
 15 96  1  0  0  0
 16 17  2  0  0  0
 16 21  1  0  0  0
 16 31  1  0  0  0
 17 18  1  0  0  0
 17 97  1  0  0  0
 18 19  2  0  0  0
 18 98  1  0  0  0
 19 20  1  0  0  0
 19 24  1  0  0  0
 20 21  2  0  0  0
 20 99  1  0  0  0
 21 23  1  0  0  0
 22 28  1  0  0  0
 22 32  2  0  0  0
 26 27  1  0  0  0
 28100  1  0  0  0
 28101  1  0  0  0
 29102  1  0  0  0
 29103  1  0  0  0
 33 34  1  0  0  0
 33 66  1  0  0  0
 33 70  2  0  0  0
 34 36  1  0  0  0
 34 59  1  0  0  0
 34104  1  0  0  0
 35 44  2  0  0  0
 35 45  1  0  0  0
 35 68  1  0  0  0
 36 56  1  0  0  0
 36105  1  0  0  0
 37 39  1  0  0  0
 37 47  1  0  0  0
 37 66  1  0  0  0
 37106  1  0  0  0
 38 43  2  0  0  0
 38 46  1  0  0  0
 38 47  1  0  0  0
 39 64  1  0  0  0
 39 67  2  0  0  0
 40 52  1  0  0  0
 40 53  2  0  0  0
 40 58  1  0  0  0
 41107  1  0  0  0
 41108  1  0  0  0
 41109  1  0  0  0
 41 48  1  0  0  0
 42 43  1  0  0  0
 42 66  1  0  0  0
 42110  1  0  0  0
 42111  1  0  0  0
 43 44  1  0  0  0
 44112  1  0  0  0
 45 46  2  0  0  0
 45113  1  0  0  0
 46114  1  0  0  0
 47115  1  0  0  0
 47116  1  0  0  0
 48 56  1  0  0  0
 48 65  1  0  0  0
 48117  1  0  0  0
 49 50  1  0  0  0
 49 53  1  0  0  0
 49 64  1  0  0  0
 49118  1  0  0  0
 50 51  1  0  0  0
 50119  1  0  0  0
 50120  1  0  0  0
 51 52  1  0  0  0
 51121  1  0  0  0
 51122  1  0  0  0
 52123  1  0  0  0
 52124  1  0  0  0
 53 54  1  0  0  0
 54 55  2  0  0  0
 54125  1  0  0  0
 55 57  1  0  0  0
 55126  1  0  0  0
 56 69  2  0  0  0
 57 58  2  0  0  0
 57127  1  0  0  0
 58128  1  0  0  0
 59 60  1  0  0  0
 59 61  1  0  0  0
 59 62  1  0  0  0
 60129  1  0  0  0
 60130  1  0  0  0
 60131  1  0  0  0
 61132  1  0  0  0
 61133  1  0  0  0
 61134  1  0  0  0
 62135  1  0  0  0
 62136  1  0  0  0
 62137  1  0  0  0
 63 65  1  0  0  0
 63138  1  0  0  0
 63139  1  0  0  0
 63140  1  0  0  0
 64141  1  0  0  0
 65142  1  0  0  0
 68 80  1  0  0  0
 71 73  2  0  0  0
 71 75  1  0  0  0
 71143  1  0  0  0
 72 74  1  0  0  0
 72 75  2  0  0  0
 72144  1  0  0  0
 73 76  1  0  0  0
 73145  1  0  0  0
 74 76  2  0  0  0
 74146  1  0  0  0
 75 79  1  0  0  0
 76 81  1  0  0  0
 77 80  1  0  0  0
 77 81  1  0  0  0
 77 83  2  0  0  0
 78 82  1  0  0  0
 78147  1  0  0  0
 78148  1  0  0  0
 78149  1  0  0  0
 79 82  1  0  0  0
 79150  1  0  0  0
 79151  1  0  0  0
 80152  1  0  0  0
 80153  1  0  0  0
 81154  1  0  0  0
M  ISO  4   1 100  68 101  80 101  82 100
M  END
> <chiral flag>
0

> <version>
0

> <s_m_source_file>
/data/baiqing/PycharmProjects/Reinvent-master-3.2/result/LINK_invent/BTK/process_docking_weight1_custom_product_contain_oxygen_bond_distance_aromatic_linkinvent_7_9_3/rearranged_h_0015.sdf

> <i_m_source_file_index>
58

> <r_mmod_Potential_Energy-OPLS-2005>
180.136749267578

> <r_mmod_Stretch_Energy-OPLS-2005>
83.0529708862305

> <r_mmod_Bend_Energy-OPLS-2005>
156.229095458984

> <r_mmod_Torsional_Energy-OPLS-2005>
290.23876953125

> <r_mmod_Improper_Torsional_Energy-OPLS-2005>
11.2954111099243

> <r_mmod_Van_der_Waal_Energy-OPLS-2005>
147.418304443359

> <r_mmod_Electrostatic_Energy-OPLS-2005>
-323.889312744141

> <r_mmod_Solvation_Energy-OPLS-2005>
-227.259490966797

> <b_mmod_Minimization_Converged-OPLS-2005>
0

> <r_mmod_RMS_Derivative-OPLS-2005>
0.505362451076508

$$$$
58
                    3D
 Structure written by MMmdl.
152160  0  0  1  0            999 V2000
  -30.5241  -14.9140   20.4248 C   0  0  0  0  0  0
  -30.4496  -12.5628   19.4915 C   0  0  0  0  0  0
  -29.5227  -12.5333   18.2527 C   0  0  0  0  0  0
  -28.0560  -12.3214   18.6719 C   0  0  0  0  0  0
  -27.6396  -13.2411   19.8490 C   0  0  2  0  0  0
  -28.6832  -13.2337   20.9874 C   0  0  0  0  0  0
  -25.2509  -13.8204   20.5718 C   0  0  0  0  0  0
  -24.1804  -13.0440   20.9192 C   0  0  0  0  0  0
  -24.6419  -11.6924   20.8756 C   0  0  0  0  0  0
  -23.9099  -10.4292   21.0419 C   0  0  0  0  0  0
  -24.3644   -9.4207   21.9195 C   0  0  0  0  0  0
  -23.6311   -8.2248   22.0767 C   0  0  0  0  0  0
  -22.4285   -8.0296   21.3551 C   0  0  0  0  0  0
  -21.9934   -9.0269   20.4650 C   0  0  0  0  0  0
  -22.7274  -10.2145   20.3063 C   0  0  0  0  0  0
  -21.6855   -6.0751   22.5276 C   0  0  0  0  0  0
  -21.4016   -6.5654   23.8211 C   0  0  0  0  0  0
  -21.3653   -5.6803   24.9166 C   0  0  0  0  0  0
  -21.6049   -4.3067   24.7215 C   0  0  0  0  0  0
  -21.8819   -3.8162   23.4332 C   0  0  0  0  0  0
  -21.9192   -4.6982   22.3394 C   0  0  0  0  0  0
  -22.7820  -13.5225   21.1845 C   0  0  0  0  0  0
  -22.1661   -4.2174   21.0967 F   0  0  0  0  0  0
  -21.5625   -3.4549   25.7723 F   0  0  0  0  0  0
  -29.9668  -13.6399   20.3991 N   0  0  0  0  0  0
  -26.2944  -12.9430   20.3294 N   0  0  0  0  0  0
  -25.9355  -11.6565   20.5763 N   0  0  0  0  0  0
  -22.0473  -12.8204   22.0406 N   0  0  0  0  0  0
  -25.4188  -15.1937   20.4193 N   0  0  0  0  0  0
  -31.7125  -15.0319   20.1071 O   0  0  0  0  0  0
  -21.6640   -6.8900   21.4244 O   0  0  0  0  0  0
  -22.3507  -14.5526   20.6698 O   0  0  0  0  0  0
  -24.6410  -31.8434   23.1899 C   0  0  0  0  0  0
  -25.9190  -32.4692   23.8273 C   0  0  1  0  0  0
  -27.2235  -27.1559   20.1377 C   0  0  0  0  0  0
  -25.5950  -33.8501   24.2198 N   0  0  0  0  0  0
  -23.4431  -30.4661   21.5326 C   0  0  2  0  0  0
  -24.8925  -28.8947   20.1080 C   0  0  0  0  0  0
  -22.7568  -29.4546   22.4842 C   0  0  0  0  0  0
  -18.0303  -28.1390   22.8441 C   0  0  0  0  0  0
  -24.1493  -36.7256   23.2649 C   0  0  0  0  0  0
  -25.9968  -30.7269   21.3834 C   0  0  0  0  0  0
  -26.0679  -29.3397   20.7232 C   0  0  0  0  0  0
  -27.2286  -28.4837   20.7265 C   0  0  0  0  0  0
  -26.0165  -26.8038   19.4929 C   0  0  0  0  0  0
  -24.8778  -27.6379   19.4845 C   0  0  0  0  0  0
  -23.6701  -29.7971   20.1507 C   0  0  0  0  0  0
  -25.4115  -36.3037   24.0337 C   0  0  1  0  0  0
  -20.5912  -28.3706   23.1228 C   0  0  2  0  0  0
  -20.6779  -26.9408   22.5404 C   0  0  0  0  0  0
  -19.5764  -26.6367   21.5200 C   0  0  0  0  0  0
  -18.1942  -26.7921   22.1598 C   0  0  0  0  0  0
  -19.1561  -28.8860   23.2822 C   0  0  0  0  0  0
  -18.9487  -30.1448   23.8855 C   0  0  0  0  0  0
  -17.6493  -30.6575   24.0548 C   0  0  0  0  0  0
  -25.9074  -34.9412   23.5078 C   0  0  0  0  0  0
  -16.5376  -29.9071   23.6335 C   0  0  0  0  0  0
  -16.7294  -28.6505   23.0324 C   0  0  0  0  0  0
  -26.4525  -31.6549   25.0703 C   0  0  0  0  0  0
  -25.3723  -31.3745   26.1416 C   0  0  0  0  0  0
  -27.0406  -30.2956   24.6267 C   0  0  0  0  0  0
  -27.6042  -32.4319   25.7482 C   0  0  0  0  0  0
  -27.5575  -37.1770   24.8464 C   0  0  0  0  0  0
  -21.4263  -29.3048   22.3617 N   0  0  0  0  0  0
  -26.4266  -37.3756   23.9437 N   0  0  0  0  0  0
  -24.7134  -31.0326   22.0915 N   0  0  0  0  0  0
  -23.4229  -28.8117   23.2993 O   0  0  0  0  0  0
  -28.3041  -26.2109   20.2404 O   0  0  0  0  0  0
  -26.5653  -34.8913   22.4653 O   0  0  0  0  0  0
  -23.5534  -32.1276   23.7151 O   0  0  0  0  0  0
  -30.6158  -19.7982   19.7829 C   0  0  0  0  0  0
  -30.7261  -18.3596   19.9412 C   0  0  0  0  0  0
  -28.4713  -19.8011   20.7349 C   0  0  0  0  0  0
  -29.4918  -20.6363   20.1646 C   0  0  0  0  0  0
  -29.6947  -17.5436   20.4909 C   0  0  0  0  0  0
  -28.5644  -18.3508   20.8766 C   0  0  0  0  0  0
  -30.7553  -22.6115   19.4647 C   0  0  0  0  0  0
  -28.5881  -23.2981   20.4998 C   0  0  0  0  0  0
  -28.3524  -24.7628   19.6801 C   0  0  0  0  0  0
  -29.6754  -16.0219   20.6532 N   0  0  0  0  0  0
  -29.4558  -22.1237   19.9374 N   0  0  0  0  0  0
  -27.5001  -17.6990   21.4040 F   0  0  0  0  0  0
  -31.4820  -12.7272   19.1778 H   0  0  0  0  0  0
  -30.4427  -11.5993   20.0035 H   0  0  0  0  0  0
  -29.8331  -11.7462   17.5643 H   0  0  0  0  0  0
  -29.6136  -13.4725   17.7048 H   0  0  0  0  0  0
  -27.9457  -11.2778   18.9673 H   0  0  0  0  0  0
  -27.3909  -12.4692   17.8207 H   0  0  0  0  0  0
  -27.6135  -14.2503   19.4376 H   0  0  0  0  0  0
  -28.7592  -12.2489   21.4506 H   0  0  0  0  0  0
  -28.3880  -13.9219   21.7811 H   0  0  0  0  0  0
  -25.2794   -9.5677   22.4765 H   0  0  0  0  0  0
  -24.0017   -7.4643   22.7494 H   0  0  0  0  0  0
  -21.0866   -8.8806   19.8952 H   0  0  0  0  0  0
  -22.3752  -10.9692   19.6175 H   0  0  0  0  0  0
  -21.2013   -7.6162   23.9723 H   0  0  0  0  0  0
  -21.1474   -6.0526   25.9070 H   0  0  0  0  0  0
  -22.0604   -2.7630   23.2818 H   0  0  0  0  0  0
  -22.4100  -11.9858   22.4759 H   0  0  0  0  0  0
  -21.1101  -13.1239   22.2635 H   0  0  0  0  0  0
  -24.6603  -15.8487   20.5679 H   0  0  0  0  0  0
  -26.2797  -15.6509   20.1507 H   0  0  0  0  0  0
  -26.7253  -32.5304   23.0996 H   0  0  0  0  0  0
  -25.0092  -33.9610   25.0344 H   0  0  0  0  0  0
  -22.7433  -31.2913   21.3798 H   0  0  0  0  0  0
  -23.3767  -35.9569   23.3270 H   0  0  0  0  0  0
  -24.3593  -36.8919   22.2074 H   0  0  0  0  0  0
  -23.7234  -37.6443   23.6695 H   0  0  0  0  0  0
  -26.1493  -31.4857   20.6145 H   0  0  0  0  0  0
  -26.8688  -30.7764   22.0242 H   0  0  0  0  0  0
  -28.1218  -28.8202   21.2351 H   0  0  0  0  0  0
  -25.8984  -25.8420   19.0229 H   0  0  0  0  0  0
  -23.9760  -27.2853   19.0034 H   0  0  0  0  0  0
  -23.8116  -30.5730   19.3972 H   0  0  0  0  0  0
  -22.7844  -29.2439   19.8351 H   0  0  0  0  0  0
  -25.1294  -36.1855   25.0826 H   0  0  0  0  0  0
  -20.9972  -28.3284   24.1360 H   0  0  0  0  0  0
  -20.5644  -26.2328   23.3626 H   0  0  0  0  0  0
  -21.6648  -26.7397   22.1223 H   0  0  0  0  0  0
  -19.6935  -25.6281   21.1228 H   0  0  0  0  0  0
  -19.6705  -27.3163   20.6722 H   0  0  0  0  0  0
  -17.4217  -26.6652   21.4003 H   0  0  0  0  0  0
  -18.0328  -26.0074   22.9004 H   0  0  0  0  0  0
  -19.7981  -30.7246   24.2205 H   0  0  0  0  0  0
  -17.5069  -31.6251   24.5158 H   0  0  0  0  0  0
  -15.5378  -30.2961   23.7693 H   0  0  0  0  0  0
  -15.8695  -28.0825   22.7034 H   0  0  0  0  0  0
  -24.5914  -30.7070   25.7761 H   0  0  0  0  0  0
  -24.8898  -32.2932   26.4760 H   0  0  0  0  0  0
  -25.8011  -30.8990   27.0245 H   0  0  0  0  0  0
  -26.3033  -29.6659   24.1277 H   0  0  0  0  0  0
  -27.4067  -29.7281   25.4835 H   0  0  0  0  0  0
  -27.8907  -30.4235   23.9560 H   0  0  0  0  0  0
  -27.2638  -33.3661   26.1966 H   0  0  0  0  0  0
  -28.3886  -32.6804   25.0319 H   0  0  0  0  0  0
  -28.0664  -31.8506   26.5477 H   0  0  0  0  0  0
  -28.2547  -38.0110   24.7542 H   0  0  0  0  0  0
  -28.1118  -36.2638   24.6221 H   0  0  0  0  0  0
  -27.2311  -37.1329   25.8872 H   0  0  0  0  0  0
  -20.9470  -29.8823   21.6854 H   0  0  0  0  0  0
  -26.0140  -38.2821   24.1454 H   0  0  0  0  0  0
  -31.4802  -20.2467   19.3186 H   0  0  0  0  0  0
  -31.6352  -17.8786   19.6103 H   0  0  0  0  0  0
  -27.5568  -20.2699   21.0671 H   0  0  0  0  0  0
  -30.9828  -22.2250   18.4702 H   0  0  0  0  0  0
  -31.5522  -22.3130   20.1473 H   0  0  0  0  0  0
  -30.8206  -23.6948   19.4033 H   0  0  0  0  0  0
  -27.6016  -22.8949   20.7344 H   0  0  0  0  0  0
  -29.0175  -23.5435   21.4710 H   0  0  0  0  0  0
  -27.5102  -24.5937   19.0169 H   0  0  0  0  0  0
  -29.1656  -24.8529   18.9647 H   0  0  0  0  0  0
  -28.7695  -15.7009   20.9602 H   0  0  0  0  0  0
  1 25  1  0  0  0
  1 30  2  0  0  0
  1 80  1  0  0  0
  2  3  1  0  0  0
  2 25  1  0  0  0
  2 83  1  0  0  0
  2 84  1  0  0  0
  3  4  1  0  0  0
  3 85  1  0  0  0
  3 86  1  0  0  0
  4  5  1  0  0  0
  4 87  1  0  0  0
  4 88  1  0  0  0
  5  6  1  0  0  0
  5 26  1  0  0  0
  5 89  1  0  0  0
  6 25  1  0  0  0
  6 90  1  0  0  0
  6 91  1  0  0  0
  7  8  2  0  0  0
  7 26  1  0  0  0
  7 29  1  0  0  0
  8  9  1  0  0  0
  8 22  1  0  0  0
  9 10  1  0  0  0
  9 27  2  0  0  0
 10 11  2  0  0  0
 10 15  1  0  0  0
 11 12  1  0  0  0
 11 92  1  0  0  0
 12 13  2  0  0  0
 12 93  1  0  0  0
 13 14  1  0  0  0
 13 31  1  0  0  0
 14 15  2  0  0  0
 14 94  1  0  0  0
 15 95  1  0  0  0
 16 17  2  0  0  0
 16 21  1  0  0  0
 16 31  1  0  0  0
 17 18  1  0  0  0
 17 96  1  0  0  0
 18 19  2  0  0  0
 18 97  1  0  0  0
 19 20  1  0  0  0
 19 24  1  0  0  0
 20 21  2  0  0  0
 20 98  1  0  0  0
 21 23  1  0  0  0
 22 28  1  0  0  0
 22 32  2  0  0  0
 26 27  1  0  0  0
 28 99  1  0  0  0
 28100  1  0  0  0
 29101  1  0  0  0
 29102  1  0  0  0
 33 34  1  0  0  0
 33 66  1  0  0  0
 33 70  2  0  0  0
 34 36  1  0  0  0
 34 59  1  0  0  0
 34103  1  0  0  0
 35 44  2  0  0  0
 35 45  1  0  0  0
 35 68  1  0  0  0
 36 56  1  0  0  0
 36104  1  0  0  0
 37 39  1  0  0  0
 37 47  1  0  0  0
 37 66  1  0  0  0
 37105  1  0  0  0
 38 43  2  0  0  0
 38 46  1  0  0  0
 38 47  1  0  0  0
 39 64  1  0  0  0
 39 67  2  0  0  0
 40 52  1  0  0  0
 40 53  2  0  0  0
 40 58  1  0  0  0
 41106  1  0  0  0
 41107  1  0  0  0
 41108  1  0  0  0
 41 48  1  0  0  0
 42 43  1  0  0  0
 42 66  1  0  0  0
 42109  1  0  0  0
 42110  1  0  0  0
 43 44  1  0  0  0
 44111  1  0  0  0
 45 46  2  0  0  0
 45112  1  0  0  0
 46113  1  0  0  0
 47114  1  0  0  0
 47115  1  0  0  0
 48 56  1  0  0  0
 48 65  1  0  0  0
 48116  1  0  0  0
 49 50  1  0  0  0
 49 53  1  0  0  0
 49 64  1  0  0  0
 49117  1  0  0  0
 50 51  1  0  0  0
 50118  1  0  0  0
 50119  1  0  0  0
 51 52  1  0  0  0
 51120  1  0  0  0
 51121  1  0  0  0
 52122  1  0  0  0
 52123  1  0  0  0
 53 54  1  0  0  0
 54 55  2  0  0  0
 54124  1  0  0  0
 55 57  1  0  0  0
 55125  1  0  0  0
 56 69  2  0  0  0
 57 58  2  0  0  0
 57126  1  0  0  0
 58127  1  0  0  0
 59 60  1  0  0  0
 59 61  1  0  0  0
 59 62  1  0  0  0
 60128  1  0  0  0
 60129  1  0  0  0
 60130  1  0  0  0
 61131  1  0  0  0
 61132  1  0  0  0
 61133  1  0  0  0
 62134  1  0  0  0
 62135  1  0  0  0
 62136  1  0  0  0
 63 65  1  0  0  0
 63137  1  0  0  0
 63138  1  0  0  0
 63139  1  0  0  0
 64140  1  0  0  0
 65141  1  0  0  0
 68 79  1  0  0  0
 71 72  2  0  0  0
 71 74  1  0  0  0
 71142  1  0  0  0
 72 75  1  0  0  0
 72143  1  0  0  0
 73 74  2  0  0  0
 73 76  1  0  0  0
 73144  1  0  0  0
 74 81  1  0  0  0
 75 76  2  0  0  0
 75 80  1  0  0  0
 76 82  1  0  0  0
 77 81  1  0  0  0
 77145  1  0  0  0
 77146  1  0  0  0
 77147  1  0  0  0
 78 79  1  0  0  0
 78 81  1  0  0  0
 78148  1  0  0  0
 78149  1  0  0  0
 79150  1  0  0  0
 79151  1  0  0  0
 80152  1  0  0  0
M  ISO  4   1 100  68 101  79 101  80 100
M  END
> <chiral flag>
0

> <version>
0

> <s_m_source_file>
/data/baiqing/PycharmProjects/Reinvent-master-3.2/result/LINK_invent/BTK/process_docking_weight1_custom_product_contain_oxygen_bond_distance_aromatic_linkinvent_7_9_3/rearranged_h_0015.sdf

> <i_m_source_file_index>
59

> <r_mmod_Potential_Energy-OPLS-2005>
422.703674316406

> <r_mmod_Stretch_Energy-OPLS-2005>
226.532485961914

> <r_mmod_Bend_Energy-OPLS-2005>
287.821533203125

> <r_mmod_Torsional_Energy-OPLS-2005>
202.968505859375

> <r_mmod_Improper_Torsional_Energy-OPLS-2005>
4.99595546722412

> <r_mmod_Van_der_Waal_Energy-OPLS-2005>
146.032180786133

> <r_mmod_Electrostatic_Energy-OPLS-2005>
-393.502685546875

> <r_mmod_Solvation_Energy-OPLS-2005>
-222.135986328125

> <b_mmod_Minimization_Converged-OPLS-2005>
0

> <r_mmod_RMS_Derivative-OPLS-2005>
2.36566257476807

$$$$
59
                    3D
 Structure written by MMmdl.
162170  0  0  1  0            999 V2000
  -30.7609  -14.4777   20.6265 C   0  0  0  0  0  0
  -30.4167  -12.3324   19.4328 C   0  0  0  0  0  0
  -29.4916  -12.5059   18.2126 C   0  0  0  0  0  0
  -28.0202  -12.3428   18.6321 C   0  0  0  0  0  0
  -27.6585  -13.2121   19.8643 C   0  0  2  0  0  0
  -28.6962  -13.0377   20.9941 C   0  0  0  0  0  0
  -25.2583  -13.8173   20.5665 C   0  0  0  0  0  0
  -24.1837  -13.0447   20.9159 C   0  0  0  0  0  0
  -24.6398  -11.6911   20.8725 C   0  0  0  0  0  0
  -23.9069  -10.4296   21.0404 C   0  0  0  0  0  0
  -24.3614   -9.4214   21.9185 C   0  0  0  0  0  0
  -23.6287   -8.2249   22.0763 C   0  0  0  0  0  0
  -22.4274   -8.0287   21.3546 C   0  0  0  0  0  0
  -21.9909   -9.0259   20.4645 C   0  0  0  0  0  0
  -22.7243  -10.2132   20.3053 C   0  0  0  0  0  0
  -21.6851   -6.0745   22.5280 C   0  0  0  0  0  0
  -21.4008   -6.5649   23.8213 C   0  0  0  0  0  0
  -21.3654   -5.6796   24.9174 C   0  0  0  0  0  0
  -21.6039   -4.3062   24.7220 C   0  0  0  0  0  0
  -21.8814   -3.8154   23.4346 C   0  0  0  0  0  0
  -21.9191   -4.6970   22.3402 C   0  0  0  0  0  0
  -22.7860  -13.5238   21.1830 C   0  0  0  0  0  0
  -22.1663   -4.2161   21.0977 F   0  0  0  0  0  0
  -21.5622   -3.4541   25.7733 F   0  0  0  0  0  0
  -30.0360  -13.3306   20.4501 N   0  0  0  0  0  0
  -26.3017  -12.9348   20.3317 N   0  0  0  0  0  0
  -25.9325  -11.6508   20.5747 N   0  0  0  0  0  0
  -22.0501  -12.8226   22.0386 N   0  0  0  0  0  0
  -25.4318  -15.1891   20.4111 N   0  0  0  0  0  0
  -31.8219  -14.6755   20.0256 O   0  0  0  0  0  0
  -21.6641   -6.8882   21.4247 O   0  0  0  0  0  0
  -22.3546  -14.5558   20.6703 O   0  0  0  0  0  0
  -24.6174  -31.8659   23.2077 C   0  0  0  0  0  0
  -25.9061  -32.4814   23.8376 C   0  0  1  0  0  0
  -27.2341  -27.4140   20.1033 C   0  0  0  0  0  0
  -25.5922  -33.8612   24.2322 N   0  0  0  0  0  0
  -23.4062  -30.4866   21.5491 C   0  0  2  0  0  0
  -24.8556  -28.9509   20.1124 C   0  0  0  0  0  0
  -22.7420  -29.4639   22.4998 C   0  0  0  0  0  0
  -18.0266  -28.1364   22.8481 C   0  0  0  0  0  0
  -24.1484  -36.7289   23.2631 C   0  0  0  0  0  0
  -25.9354  -30.8262   21.3616 C   0  0  0  0  0  0
  -26.0173  -29.4580   20.7108 C   0  0  0  0  0  0
  -27.2138  -28.6975   20.7020 C   0  0  0  0  0  0
  -26.0594  -26.9297   19.4920 C   0  0  0  0  0  0
  -24.8735  -27.6873   19.4969 C   0  0  0  0  0  0
  -23.6145  -29.8145   20.1653 C   0  0  0  0  0  0
  -25.4097  -36.3097   24.0343 C   0  0  1  0  0  0
  -20.5857  -28.3647   23.1315 C   0  0  2  0  0  0
  -20.6755  -26.9382   22.5402 C   0  0  0  0  0  0
  -19.5737  -26.6365   21.5198 C   0  0  0  0  0  0
  -18.1914  -26.7907   22.1603 C   0  0  0  0  0  0
  -19.1516  -28.8822   23.2892 C   0  0  0  0  0  0
  -18.9451  -30.1431   23.8900 C   0  0  0  0  0  0
  -17.6458  -30.6580   24.0554 C   0  0  0  0  0  0
  -25.9029  -34.9473   23.5122 C   0  0  0  0  0  0
  -16.5345  -29.9070   23.6339 C   0  0  0  0  0  0
  -16.7254  -28.6486   23.0358 C   0  0  0  0  0  0
  -26.4479  -31.6599   25.0710 C   0  0  0  0  0  0
  -25.3746  -31.3683   26.1463 C   0  0  0  0  0  0
  -27.0329  -30.3055   24.6060 C   0  0  0  0  0  0
  -27.6055  -32.4316   25.7484 C   0  0  0  0  0  0
  -27.5582  -37.1780   24.8456 C   0  0  0  0  0  0
  -21.4141  -29.3041   22.3753 N   0  0  0  0  0  0
  -26.4271  -37.3800   23.9438 N   0  0  0  0  0  0
  -24.6714  -31.0731   22.0990 N   0  0  0  0  0  0
  -23.4184  -28.8167   23.3033 O   0  0  0  0  0  0
  -28.3582  -26.6111   20.1111 O   0  0  0  0  0  0
  -26.5576  -34.8943   22.4669 O   0  0  0  0  0  0
  -23.5354  -32.1415   23.7454 O   0  0  0  0  0  0
  -29.9922  -19.2248   21.7500 C   0  0  0  0  0  0
  -29.8684  -18.6166   19.4156 C   0  0  0  0  0  0
  -30.1154  -17.8549   22.0952 C   0  0  0  0  0  0
  -29.9785  -17.2450   19.7612 C   0  0  0  0  0  0
  -29.8759  -19.6308   20.4025 C   0  0  0  0  0  0
  -30.1262  -16.8255   21.1119 C   0  0  0  0  0  0
  -30.4269  -15.0900   22.9117 C   0  0  0  0  0  0
  -27.5007  -21.0264   19.1872 C   0  0  0  0  0  0
  -29.8298  -21.1335   20.0163 C   0  0  0  0  0  0
  -29.0743  -24.2130   20.7198 C   0  0  0  0  0  0
  -28.4456  -23.2415   19.6775 C   0  0  0  0  0  0
  -28.2671  -25.5112   21.0438 C   0  0  0  0  0  0
  -30.2806  -15.4218   21.4851 N   0  0  0  0  0  0
  -28.4748  -21.7732   20.0242 N   0  3  1  0  0  0
  -31.4627  -12.4154   19.1310 H   0  0  0  0  0  0
  -30.3138  -11.3289   19.8486 H   0  0  0  0  0  0
  -29.7438  -11.7726   17.4448 H   0  0  0  0  0  0
  -29.6440  -13.4886   17.7626 H   0  0  0  0  0  0
  -27.8615  -11.2888   18.8666 H   0  0  0  0  0  0
  -27.3574  -12.5709   17.7971 H   0  0  0  0  0  0
  -27.6938  -14.2516   19.5374 H   0  0  0  0  0  0
  -28.6728  -12.0176   21.3806 H   0  0  0  0  0  0
  -28.4261  -13.6772   21.8338 H   0  0  0  0  0  0
  -25.2757   -9.5687   22.4763 H   0  0  0  0  0  0
  -23.9991   -7.4644   22.7489 H   0  0  0  0  0  0
  -21.0840   -8.8776   19.8948 H   0  0  0  0  0  0
  -22.3713  -10.9668   19.6152 H   0  0  0  0  0  0
  -21.2005   -7.6155   23.9717 H   0  0  0  0  0  0
  -21.1471   -6.0530   25.9071 H   0  0  0  0  0  0
  -22.0597   -2.7620   23.2843 H   0  0  0  0  0  0
  -22.4119  -11.9870   22.4739 H   0  0  0  0  0  0
  -21.1114  -13.1235   22.2585 H   0  0  0  0  0  0
  -24.6710  -15.8482   20.5325 H   0  0  0  0  0  0
  -26.2960  -15.6305   20.1225 H   0  0  0  0  0  0
  -26.7131  -32.5524   23.1142 H   0  0  0  0  0  0
  -25.0199  -33.9770   25.0553 H   0  0  0  0  0  0
  -22.6958  -31.3033   21.4049 H   0  0  0  0  0  0
  -23.3783  -35.9585   23.3252 H   0  0  0  0  0  0
  -24.3598  -36.8933   22.2056 H   0  0  0  0  0  0
  -23.7185  -37.6461   23.6664 H   0  0  0  0  0  0
  -26.0405  -31.5888   20.5886 H   0  0  0  0  0  0
  -26.8262  -30.8865   21.9760 H   0  0  0  0  0  0
  -28.1095  -29.0788   21.1718 H   0  0  0  0  0  0
  -26.0598  -25.9556   19.0237 H   0  0  0  0  0  0
  -23.9826  -27.2928   19.0280 H   0  0  0  0  0  0
  -23.7119  -30.5873   19.4016 H   0  0  0  0  0  0
  -22.7408  -29.2275   19.8760 H   0  0  0  0  0  0
  -25.1263  -36.1949   25.0830 H   0  0  0  0  0  0
  -20.9921  -28.3186   24.1444 H   0  0  0  0  0  0
  -20.5643  -26.2249   23.3578 H   0  0  0  0  0  0
  -21.6620  -26.7415   22.1191 H   0  0  0  0  0  0
  -19.6906  -25.6275   21.1217 H   0  0  0  0  0  0
  -19.6690  -27.3189   20.6740 H   0  0  0  0  0  0
  -17.4175  -26.6675   21.4000 H   0  0  0  0  0  0
  -18.0317  -26.0032   22.8978 H   0  0  0  0  0  0
  -19.7943  -30.7242   24.2260 H   0  0  0  0  0  0
  -17.5025  -31.6273   24.5133 H   0  0  0  0  0  0
  -15.5349  -30.2979   23.7677 H   0  0  0  0  0  0
  -15.8645  -28.0808   22.7081 H   0  0  0  0  0  0
  -24.5945  -30.6990   25.7807 H   0  0  0  0  0  0
  -24.8908  -32.2829   26.4911 H   0  0  0  0  0  0
  -25.8112  -30.8865   27.0224 H   0  0  0  0  0  0
  -26.2872  -29.6798   24.1138 H   0  0  0  0  0  0
  -27.4177  -29.7291   25.4485 H   0  0  0  0  0  0
  -27.8665  -30.4411   23.9163 H   0  0  0  0  0  0
  -27.2688  -33.3640   26.2032 H   0  0  0  0  0  0
  -28.3899  -32.6824   25.0329 H   0  0  0  0  0  0
  -28.0688  -31.8448   26.5430 H   0  0  0  0  0  0
  -28.2531  -38.0151   24.7617 H   0  0  0  0  0  0
  -28.1153  -36.2687   24.6133 H   0  0  0  0  0  0
  -27.2322  -37.1235   25.8862 H   0  0  0  0  0  0
  -20.9306  -29.8792   21.6998 H   0  0  0  0  0  0
  -26.0154  -38.2859   24.1528 H   0  0  0  0  0  0
  -30.0122  -19.9679   22.5356 H   0  0  0  0  0  0
  -29.7925  -18.8864   18.3713 H   0  0  0  0  0  0
  -30.2213  -17.6251   23.1455 H   0  0  0  0  0  0
  -29.9718  -16.5210   18.9585 H   0  0  0  0  0  0
  -31.3483  -15.5210   23.3071 H   0  0  0  0  0  0
  -30.4791  -14.0152   23.0988 H   0  0  0  0  0  0
  -29.5857  -15.4645   23.4949 H   0  0  0  0  0  0
  -27.3729  -19.9992   19.5282 H   0  0  0  0  0  0
  -27.8252  -21.0006   18.1459 H   0  0  0  0  0  0
  -26.5112  -21.4846   19.2159 H   0  0  0  0  0  0
  -30.2695  -21.2492   19.0242 H   0  0  0  0  0  0
  -30.4892  -21.6797   20.6925 H   0  0  0  0  0  0
  -30.0931  -24.4676   20.4262 H   0  0  0  0  0  0
  -29.1769  -23.6732   21.6622 H   0  0  0  0  0  0
  -28.9028  -23.4008   18.6999 H   0  0  0  0  0  0
  -27.4009  -23.5321   19.5568 H   0  0  0  0  0  0
  -28.6376  -25.8982   21.9942 H   0  0  0  0  0  0
  -27.2292  -25.2347   21.2448 H   0  0  0  0  0  0
  -28.1297  -21.6933   20.9684 H   0  0  0  0  0  0
  1 25  1  0  0  0
  1 30  2  0  0  0
  1 83  1  0  0  0
  2  3  1  0  0  0
  2 25  1  0  0  0
  2 85  1  0  0  0
  2 86  1  0  0  0
  3  4  1  0  0  0
  3 87  1  0  0  0
  3 88  1  0  0  0
  4  5  1  0  0  0
  4 89  1  0  0  0
  4 90  1  0  0  0
  5  6  1  0  0  0
  5 26  1  0  0  0
  5 91  1  0  0  0
  6 25  1  0  0  0
  6 92  1  0  0  0
  6 93  1  0  0  0
  7  8  2  0  0  0
  7 26  1  0  0  0
  7 29  1  0  0  0
  8  9  1  0  0  0
  8 22  1  0  0  0
  9 10  1  0  0  0
  9 27  2  0  0  0
 10 11  2  0  0  0
 10 15  1  0  0  0
 11 12  1  0  0  0
 11 94  1  0  0  0
 12 13  2  0  0  0
 12 95  1  0  0  0
 13 14  1  0  0  0
 13 31  1  0  0  0
 14 15  2  0  0  0
 14 96  1  0  0  0
 15 97  1  0  0  0
 16 17  2  0  0  0
 16 21  1  0  0  0
 16 31  1  0  0  0
 17 18  1  0  0  0
 17 98  1  0  0  0
 18 19  2  0  0  0
 18 99  1  0  0  0
 19 20  1  0  0  0
 19 24  1  0  0  0
 20 21  2  0  0  0
 20100  1  0  0  0
 21 23  1  0  0  0
 22 28  1  0  0  0
 22 32  2  0  0  0
 26 27  1  0  0  0
 28101  1  0  0  0
 28102  1  0  0  0
 29103  1  0  0  0
 29104  1  0  0  0
 33 34  1  0  0  0
 33 66  1  0  0  0
 33 70  2  0  0  0
 34 36  1  0  0  0
 34 59  1  0  0  0
 34105  1  0  0  0
 35 44  2  0  0  0
 35 45  1  0  0  0
 35 68  1  0  0  0
 36 56  1  0  0  0
 36106  1  0  0  0
 37 39  1  0  0  0
 37 47  1  0  0  0
 37 66  1  0  0  0
 37107  1  0  0  0
 38 43  2  0  0  0
 38 46  1  0  0  0
 38 47  1  0  0  0
 39 64  1  0  0  0
 39 67  2  0  0  0
 40 52  1  0  0  0
 40 53  2  0  0  0
 40 58  1  0  0  0
 41108  1  0  0  0
 41109  1  0  0  0
 41110  1  0  0  0
 41 48  1  0  0  0
 42 43  1  0  0  0
 42 66  1  0  0  0
 42111  1  0  0  0
 42112  1  0  0  0
 43 44  1  0  0  0
 44113  1  0  0  0
 45 46  2  0  0  0
 45114  1  0  0  0
 46115  1  0  0  0
 47116  1  0  0  0
 47117  1  0  0  0
 48 56  1  0  0  0
 48 65  1  0  0  0
 48118  1  0  0  0
 49 50  1  0  0  0
 49 53  1  0  0  0
 49 64  1  0  0  0
 49119  1  0  0  0
 50 51  1  0  0  0
 50120  1  0  0  0
 50121  1  0  0  0
 51 52  1  0  0  0
 51122  1  0  0  0
 51123  1  0  0  0
 52124  1  0  0  0
 52125  1  0  0  0
 53 54  1  0  0  0
 54 55  2  0  0  0
 54126  1  0  0  0
 55 57  1  0  0  0
 55127  1  0  0  0
 56 69  2  0  0  0
 57 58  2  0  0  0
 57128  1  0  0  0
 58129  1  0  0  0
 59 60  1  0  0  0
 59 61  1  0  0  0
 59 62  1  0  0  0
 60130  1  0  0  0
 60131  1  0  0  0
 60132  1  0  0  0
 61133  1  0  0  0
 61134  1  0  0  0
 61135  1  0  0  0
 62136  1  0  0  0
 62137  1  0  0  0
 62138  1  0  0  0
 63 65  1  0  0  0
 63139  1  0  0  0
 63140  1  0  0  0
 63141  1  0  0  0
 64142  1  0  0  0
 65143  1  0  0  0
 68 82  1  0  0  0
 71 73  2  0  0  0
 71 75  1  0  0  0
 71144  1  0  0  0
 72 74  1  0  0  0
 72 75  2  0  0  0
 72145  1  0  0  0
 73 76  1  0  0  0
 73146  1  0  0  0
 74 76  2  0  0  0
 74147  1  0  0  0
 75 79  1  0  0  0
 76 83  1  0  0  0
 77 83  1  0  0  0
 77148  1  0  0  0
 77149  1  0  0  0
 77150  1  0  0  0
 78151  1  0  0  0
 78152  1  0  0  0
 78153  1  0  0  0
 78 84  1  0  0  0
 79 84  1  0  0  0
 79154  1  0  0  0
 79155  1  0  0  0
 80 81  1  0  0  0
 80 82  1  0  0  0
 80156  1  0  0  0
 80157  1  0  0  0
 81 84  1  0  0  0
 81158  1  0  0  0
 81159  1  0  0  0
 82160  1  0  0  0
 82161  1  0  0  0
 84162  1  0  0  0
M  CHG  1  84   1
M  ISO  4   1 100  68 101  82 101  83 100
M  END
> <chiral flag>
0

> <version>
0

> <s_m_source_file>
/data/baiqing/PycharmProjects/Reinvent-master-3.2/result/LINK_invent/BTK/process_docking_weight1_custom_product_contain_oxygen_bond_distance_aromatic_linkinvent_7_9_3/rearranged_h_0015.sdf

> <i_m_source_file_index>
60

> <r_mmod_Potential_Energy-OPLS-2005>
15.3480434417725

> <r_mmod_Stretch_Energy-OPLS-2005>
52.8608551025391

> <r_mmod_Bend_Energy-OPLS-2005>
111.99144744873

> <r_mmod_Torsional_Energy-OPLS-2005>
302.245422363281

> <r_mmod_Improper_Torsional_Energy-OPLS-2005>
2.93491387367249

> <r_mmod_Van_der_Waal_Energy-OPLS-2005>
154.772994995117

> <r_mmod_Electrostatic_Energy-OPLS-2005>
-191.54020690918

> <r_mmod_Solvation_Energy-OPLS-2005>
-433.879608154297

> <b_mmod_Minimization_Converged-OPLS-2005>
0

> <r_mmod_RMS_Derivative-OPLS-2005>
1.88787949085236

$$$$
60
                    3D
 Structure written by MMmdl.
163172  0  0  1  0            999 V2000
  -30.6905  -14.4823   20.6096 C   0  0  0  0  0  0
  -30.4384  -12.3289   19.4132 C   0  0  0  0  0  0
  -29.5041  -12.5241   18.2016 C   0  0  0  0  0  0
  -28.0259  -12.3745   18.6120 C   0  0  0  0  0  0
  -27.6676  -13.2036   19.8741 C   0  0  2  0  0  0
  -28.7087  -12.9645   20.9914 C   0  0  0  0  0  0
  -25.2626  -13.8157   20.5695 C   0  0  0  0  0  0
  -24.1855  -13.0434   20.9153 C   0  0  0  0  0  0
  -24.6401  -11.6903   20.8686 C   0  0  0  0  0  0
  -23.9051  -10.4294   21.0364 C   0  0  0  0  0  0
  -24.3604   -9.4214   21.9146 C   0  0  0  0  0  0
  -23.6276   -8.2247   22.0752 C   0  0  0  0  0  0
  -22.4236   -8.0292   21.3563 C   0  0  0  0  0  0
  -21.9877   -9.0257   20.4663 C   0  0  0  0  0  0
  -22.7226  -10.2126   20.3030 C   0  0  0  0  0  0
  -21.6857   -6.0705   22.5267 C   0  0  0  0  0  0
  -21.4025   -6.5604   23.8196 C   0  0  0  0  0  0
  -21.3663   -5.6767   24.9166 C   0  0  0  0  0  0
  -21.6042   -4.3031   24.7226 C   0  0  0  0  0  0
  -21.8828   -3.8123   23.4352 C   0  0  0  0  0  0
  -21.9202   -4.6936   22.3394 C   0  0  0  0  0  0
  -22.7882  -13.5251   21.1823 C   0  0  0  0  0  0
  -22.1676   -4.2117   21.0972 F   0  0  0  0  0  0
  -21.5619   -3.4516   25.7747 F   0  0  0  0  0  0
  -30.0446  -13.2924   20.4543 N   0  0  0  0  0  0
  -26.3054  -12.9320   20.3333 N   0  0  0  0  0  0
  -25.9319  -11.6484   20.5686 N   0  0  0  0  0  0
  -22.0506  -12.8276   22.0386 N   0  0  0  0  0  0
  -25.4351  -15.1890   20.4178 N   0  0  0  0  0  0
  -31.7801  -14.7255   20.0774 O   0  0  0  0  0  0
  -21.6644   -6.8860   21.4238 O   0  0  0  0  0  0
  -22.3582  -14.5562   20.6666 O   0  0  0  0  0  0
  -24.6185  -31.8665   23.2089 C   0  0  0  0  0  0
  -25.9083  -32.4816   23.8370 C   0  0  1  0  0  0
  -27.2295  -27.4012   20.0581 C   0  0  0  0  0  0
  -25.5912  -33.8606   24.2303 N   0  0  0  0  0  0
  -23.4062  -30.4951   21.5528 C   0  0  2  0  0  0
  -24.8471  -28.9616   20.1189 C   0  0  0  0  0  0
  -22.7432  -29.4642   22.4967 C   0  0  0  0  0  0
  -18.0269  -28.1403   22.8465 C   0  0  0  0  0  0
  -24.1490  -36.7304   23.2614 C   0  0  0  0  0  0
  -25.9435  -30.8204   21.3663 C   0  0  0  0  0  0
  -26.0180  -29.4532   20.7083 C   0  0  0  0  0  0
  -27.2087  -28.6789   20.6803 C   0  0  0  0  0  0
  -26.0142  -26.9268   19.5039 C   0  0  0  0  0  0
  -24.8400  -27.6947   19.5250 C   0  0  0  0  0  0
  -23.6158  -29.8363   20.1662 C   0  0  0  0  0  0
  -25.4091  -36.3088   24.0335 C   0  0  1  0  0  0
  -20.5860  -28.3680   23.1295 C   0  0  2  0  0  0
  -20.6769  -26.9409   22.5420 C   0  0  0  0  0  0
  -19.5755  -26.6392   21.5201 C   0  0  0  0  0  0
  -18.1920  -26.7942   22.1602 C   0  0  0  0  0  0
  -19.1520  -28.8860   23.2882 C   0  0  0  0  0  0
  -18.9454  -30.1460   23.8910 C   0  0  0  0  0  0
  -17.6456  -30.6603   24.0565 C   0  0  0  0  0  0
  -25.9043  -34.9466   23.5115 C   0  0  0  0  0  0
  -16.5345  -29.9102   23.6328 C   0  0  0  0  0  0
  -16.7256  -28.6522   23.0335 C   0  0  0  0  0  0
  -26.4494  -31.6596   25.0708 C   0  0  0  0  0  0
  -25.3768  -31.3746   26.1483 C   0  0  0  0  0  0
  -27.0261  -30.3004   24.6098 C   0  0  0  0  0  0
  -27.6081  -32.4295   25.7469 C   0  0  0  0  0  0
  -27.5610  -37.1734   24.8400 C   0  0  0  0  0  0
  -21.4156  -29.3052   22.3719 N   0  0  0  0  0  0
  -26.4247  -37.3810   23.9470 N   0  0  0  0  0  0
  -24.6754  -31.0746   22.1007 N   0  0  0  0  0  0
  -23.4191  -28.8142   23.2979 O   0  0  0  0  0  0
  -28.3981  -26.6409   20.0440 O   0  0  0  0  0  0
  -26.5601  -34.8929   22.4680 O   0  0  0  0  0  0
  -23.5377  -32.1416   23.7485 O   0  0  0  0  0  0
  -28.5848  -18.8430   21.3320 C   0  0  0  0  0  0
  -30.9750  -19.0587   21.0077 C   0  0  0  0  0  0
  -28.7195  -17.4385   21.3872 C   0  0  0  0  0  0
  -31.1066  -17.6451   21.0233 C   0  0  0  0  0  0
  -29.7085  -19.6822   21.1606 C   0  0  0  0  0  0
  -29.9749  -16.8155   21.2238 C   0  0  0  0  0  0
  -31.8181  -23.5386   19.2317 C   0  0  0  0  0  0
  -30.9991  -24.8167   19.4580 C   0  0  0  0  0  0
  -31.3684  -22.3787   20.1482 C   0  0  0  0  0  0
  -29.0674  -23.3900   20.2095 C   0  0  0  0  0  0
  -29.5333  -24.4665   19.1901 C   0  0  1  0  0  0
  -29.5179  -21.2129   21.3244 C   0  0  0  0  0  0
  -28.5907  -25.6895   18.9652 C   0  0  0  0  0  0
  -30.0218  -15.3909   21.3509 N   0  0  0  0  0  0
  -29.8932  -22.1274   20.1916 N   0  3  2  0  0  0
  -31.4813  -12.4435   19.1099 H   0  0  0  0  0  0
  -30.3524  -11.3134   19.7967 H   0  0  0  0  0  0
  -29.7486  -11.8026   17.4208 H   0  0  0  0  0  0
  -29.6727  -13.5102   17.7647 H   0  0  0  0  0  0
  -27.8395  -11.3161   18.8026 H   0  0  0  0  0  0
  -27.3782  -12.6541   17.7805 H   0  0  0  0  0  0
  -27.7207  -14.2538   19.5869 H   0  0  0  0  0  0
  -28.6959  -11.9198   21.3045 H   0  0  0  0  0  0
  -28.4510  -13.5303   21.8862 H   0  0  0  0  0  0
  -25.2743   -9.5684   22.4722 H   0  0  0  0  0  0
  -23.9984   -7.4639   22.7457 H   0  0  0  0  0  0
  -21.0798   -8.8786   19.8970 H   0  0  0  0  0  0
  -22.3682  -10.9653   19.6123 H   0  0  0  0  0  0
  -21.2030   -7.6113   23.9688 H   0  0  0  0  0  0
  -21.1465   -6.0498   25.9066 H   0  0  0  0  0  0
  -22.0611   -2.7579   23.2870 H   0  0  0  0  0  0
  -22.4070  -11.9931   22.4814 H   0  0  0  0  0  0
  -21.1136  -13.1363   22.2559 H   0  0  0  0  0  0
  -24.6703  -15.8459   20.5366 H   0  0  0  0  0  0
  -26.2931  -15.6322   20.1199 H   0  0  0  0  0  0
  -26.7144  -32.5511   23.1107 H   0  0  0  0  0  0
  -25.0065  -33.9761   25.0455 H   0  0  0  0  0  0
  -22.6961  -31.3130   21.4178 H   0  0  0  0  0  0
  -23.3796  -35.9584   23.3157 H   0  0  0  0  0  0
  -24.3640  -36.9050   22.2055 H   0  0  0  0  0  0
  -23.7188  -37.6444   23.6728 H   0  0  0  0  0  0
  -26.0618  -31.5888   20.6000 H   0  0  0  0  0  0
  -26.8299  -30.8700   21.9861 H   0  0  0  0  0  0
  -28.1156  -29.0611   21.1283 H   0  0  0  0  0  0
  -25.8997  -25.9485   19.0707 H   0  0  0  0  0  0
  -23.9299  -27.2957   19.0986 H   0  0  0  0  0  0
  -23.7357  -30.6151   19.4114 H   0  0  0  0  0  0
  -22.7352  -29.2673   19.8619 H   0  0  0  0  0  0
  -25.1245  -36.1900   25.0815 H   0  0  0  0  0  0
  -20.9953  -28.3268   24.1411 H   0  0  0  0  0  0
  -20.5662  -26.2273   23.3602 H   0  0  0  0  0  0
  -21.6654  -26.7453   22.1219 H   0  0  0  0  0  0
  -19.6917  -25.6310   21.1217 H   0  0  0  0  0  0
  -19.6700  -27.3205   20.6732 H   0  0  0  0  0  0
  -17.4191  -26.6675   21.3997 H   0  0  0  0  0  0
  -18.0316  -26.0097   22.9002 H   0  0  0  0  0  0
  -19.7944  -30.7249   24.2281 H   0  0  0  0  0  0
  -17.5034  -31.6284   24.5175 H   0  0  0  0  0  0
  -15.5351  -30.3007   23.7673 H   0  0  0  0  0  0
  -15.8644  -28.0846   22.7044 H   0  0  0  0  0  0
  -24.5933  -30.7080   25.7876 H   0  0  0  0  0  0
  -24.8980  -32.2922   26.4911 H   0  0  0  0  0  0
  -25.8144  -30.8960   27.0252 H   0  0  0  0  0  0
  -26.2754  -29.6811   24.1176 H   0  0  0  0  0  0
  -27.4008  -29.7213   25.4549 H   0  0  0  0  0  0
  -27.8633  -30.4266   23.9224 H   0  0  0  0  0  0
  -27.2717  -33.3587   26.2081 H   0  0  0  0  0  0
  -28.3883  -32.6859   25.0290 H   0  0  0  0  0  0
  -28.0767  -31.8399   26.5361 H   0  0  0  0  0  0
  -28.2429  -38.0216   24.7772 H   0  0  0  0  0  0
  -28.1294  -36.2797   24.5793 H   0  0  0  0  0  0
  -27.2413  -37.0884   25.8796 H   0  0  0  0  0  0
  -20.9295  -29.8783   21.6964 H   0  0  0  0  0  0
  -26.0106  -38.2821   24.1715 H   0  0  0  0  0  0
  -27.6032  -19.2685   21.4869 H   0  0  0  0  0  0
  -31.8762  -19.6458   20.9221 H   0  0  0  0  0  0
  -27.8379  -16.8421   21.5775 H   0  0  0  0  0  0
  -32.0930  -17.2110   20.9315 H   0  0  0  0  0  0
  -32.8787  -23.7430   19.3937 H   0  0  0  0  0  0
  -31.7421  -23.2322   18.1864 H   0  0  0  0  0  0
  -31.3461  -25.6039   18.7884 H   0  0  0  0  0  0
  -31.1248  -25.1860   20.4775 H   0  0  0  0  0  0
  -31.7365  -22.5747   21.1548 H   0  0  0  0  0  0
  -31.8695  -21.4760   19.8015 H   0  0  0  0  0  0
  -28.0279  -23.1257   19.9994 H   0  0  0  0  0  0
  -29.0766  -23.8264   21.2091 H   0  0  0  0  0  0
  -29.5168  -23.9718   18.2160 H   0  0  0  0  0  0
  -30.0188  -21.5232   22.2419 H   0  0  0  0  0  0
  -28.4589  -21.3701   21.5327 H   0  0  0  0  0  0
  -27.6748  -25.2377   18.6026 H   0  0  0  0  0  0
  -28.9656  -26.2637   18.1148 H   0  0  0  0  0  0
  -29.2122  -14.9874   21.7983 H   0  0  0  0  0  0
  -29.6431  -21.6428   19.3416 H   0  0  0  0  0  0
  1 25  1  0  0  0
  1 30  2  0  0  0
  1 84  1  0  0  0
  2  3  1  0  0  0
  2 25  1  0  0  0
  2 86  1  0  0  0
  2 87  1  0  0  0
  3  4  1  0  0  0
  3 88  1  0  0  0
  3 89  1  0  0  0
  4  5  1  0  0  0
  4 90  1  0  0  0
  4 91  1  0  0  0
  5  6  1  0  0  0
  5 26  1  0  0  0
  5 92  1  0  0  0
  6 25  1  0  0  0
  6 93  1  0  0  0
  6 94  1  0  0  0
  7  8  2  0  0  0
  7 26  1  0  0  0
  7 29  1  0  0  0
  8  9  1  0  0  0
  8 22  1  0  0  0
  9 10  1  0  0  0
  9 27  2  0  0  0
 10 11  2  0  0  0
 10 15  1  0  0  0
 11 12  1  0  0  0
 11 95  1  0  0  0
 12 13  2  0  0  0
 12 96  1  0  0  0
 13 14  1  0  0  0
 13 31  1  0  0  0
 14 15  2  0  0  0
 14 97  1  0  0  0
 15 98  1  0  0  0
 16 17  2  0  0  0
 16 21  1  0  0  0
 16 31  1  0  0  0
 17 18  1  0  0  0
 17 99  1  0  0  0
 18 19  2  0  0  0
 18100  1  0  0  0
 19 20  1  0  0  0
 19 24  1  0  0  0
 20 21  2  0  0  0
 20101  1  0  0  0
 21 23  1  0  0  0
 22 28  1  0  0  0
 22 32  2  0  0  0
 26 27  1  0  0  0
 28102  1  0  0  0
 28103  1  0  0  0
 29104  1  0  0  0
 29105  1  0  0  0
 33 34  1  0  0  0
 33 66  1  0  0  0
 33 70  2  0  0  0
 34 36  1  0  0  0
 34 59  1  0  0  0
 34106  1  0  0  0
 35 44  2  0  0  0
 35 45  1  0  0  0
 35 68  1  0  0  0
 36 56  1  0  0  0
 36107  1  0  0  0
 37 39  1  0  0  0
 37 47  1  0  0  0
 37 66  1  0  0  0
 37108  1  0  0  0
 38 43  2  0  0  0
 38 46  1  0  0  0
 38 47  1  0  0  0
 39 64  1  0  0  0
 39 67  2  0  0  0
 40 52  1  0  0  0
 40 53  2  0  0  0
 40 58  1  0  0  0
 41109  1  0  0  0
 41110  1  0  0  0
 41111  1  0  0  0
 41 48  1  0  0  0
 42 43  1  0  0  0
 42 66  1  0  0  0
 42112  1  0  0  0
 42113  1  0  0  0
 43 44  1  0  0  0
 44114  1  0  0  0
 45 46  2  0  0  0
 45115  1  0  0  0
 46116  1  0  0  0
 47117  1  0  0  0
 47118  1  0  0  0
 48 56  1  0  0  0
 48 65  1  0  0  0
 48119  1  0  0  0
 49 50  1  0  0  0
 49 53  1  0  0  0
 49 64  1  0  0  0
 49120  1  0  0  0
 50 51  1  0  0  0
 50121  1  0  0  0
 50122  1  0  0  0
 51 52  1  0  0  0
 51123  1  0  0  0
 51124  1  0  0  0
 52125  1  0  0  0
 52126  1  0  0  0
 53 54  1  0  0  0
 54 55  2  0  0  0
 54127  1  0  0  0
 55 57  1  0  0  0
 55128  1  0  0  0
 56 69  2  0  0  0
 57 58  2  0  0  0
 57129  1  0  0  0
 58130  1  0  0  0
 59 60  1  0  0  0
 59 61  1  0  0  0
 59 62  1  0  0  0
 60131  1  0  0  0
 60132  1  0  0  0
 60133  1  0  0  0
 61134  1  0  0  0
 61135  1  0  0  0
 61136  1  0  0  0
 62137  1  0  0  0
 62138  1  0  0  0
 62139  1  0  0  0
 63 65  1  0  0  0
 63140  1  0  0  0
 63141  1  0  0  0
 63142  1  0  0  0
 64143  1  0  0  0
 65144  1  0  0  0
 68 83  1  0  0  0
 71 73  2  0  0  0
 71 75  1  0  0  0
 71145  1  0  0  0
 72 74  1  0  0  0
 72 75  2  0  0  0
 72146  1  0  0  0
 73 76  1  0  0  0
 73147  1  0  0  0
 74 76  2  0  0  0
 74148  1  0  0  0
 75 82  1  0  0  0
 76 84  1  0  0  0
 77 78  1  0  0  0
 77 79  1  0  0  0
 77149  1  0  0  0
 77150  1  0  0  0
 78 81  1  0  0  0
 78151  1  0  0  0
 78152  1  0  0  0
 79 85  1  0  0  0
 79153  1  0  0  0
 79154  1  0  0  0
 80 81  1  0  0  0
 80 85  1  0  0  0
 80155  1  0  0  0
 80156  1  0  0  0
 81 83  1  0  0  0
 81157  1  0  0  0
 82158  1  0  0  0
 82159  1  0  0  0
 82 85  1  0  0  0
 83160  1  0  0  0
 83161  1  0  0  0
 84162  1  0  0  0
 85163  1  0  0  0
M  CHG  1  85   1
M  ISO  4   1 100  68 101  83 101  84 100
M  END
> <chiral flag>
0

> <version>
0

> <s_m_source_file>
/data/baiqing/PycharmProjects/Reinvent-master-3.2/result/LINK_invent/BTK/process_docking_weight1_custom_product_contain_oxygen_bond_distance_aromatic_linkinvent_7_9_3/rearranged_h_0015.sdf

> <i_m_source_file_index>
61

> <r_mmod_Potential_Energy-OPLS-2005>
-85.880973815918

> <r_mmod_Stretch_Energy-OPLS-2005>
49.4666481018066

> <r_mmod_Bend_Energy-OPLS-2005>
134.45686340332

> <r_mmod_Torsional_Energy-OPLS-2005>
252.898361206055

> <r_mmod_Improper_Torsional_Energy-OPLS-2005>
4.4723424911499

> <r_mmod_Van_der_Waal_Energy-OPLS-2005>
160.209091186523

> <r_mmod_Electrostatic_Energy-OPLS-2005>
-262.397613525391

> <r_mmod_Solvation_Energy-OPLS-2005>
-440.631896972656

> <b_mmod_Minimization_Converged-OPLS-2005>
0

> <r_mmod_RMS_Derivative-OPLS-2005>
3.87874341011047

$$$$
61
                    3D
 Structure written by MMmdl.
168177  0  0  1  0            999 V2000
  -30.8015  -14.3353   20.6929 C   0  0  0  0  0  0
  -30.4023  -12.2828   19.3809 C   0  0  0  0  0  0
  -29.4662  -12.5175   18.1834 C   0  0  0  0  0  0
  -27.9950  -12.3703   18.6144 C   0  0  0  0  0  0
  -27.6629  -13.2045   19.8825 C   0  0  2  0  0  0
  -28.7072  -12.9519   20.9919 C   0  0  0  0  0  0
  -25.2584  -13.8156   20.5700 C   0  0  0  0  0  0
  -24.1837  -13.0445   20.9180 C   0  0  0  0  0  0
  -24.6388  -11.6911   20.8730 C   0  0  0  0  0  0
  -23.9062  -10.4299   21.0403 C   0  0  0  0  0  0
  -24.3606   -9.4201   21.9172 C   0  0  0  0  0  0
  -23.6283   -8.2226   22.0747 C   0  0  0  0  0  0
  -22.4269   -8.0245   21.3534 C   0  0  0  0  0  0
  -21.9898   -9.0232   20.4660 C   0  0  0  0  0  0
  -22.7220  -10.2127   20.3075 C   0  0  0  0  0  0
  -21.6844   -6.0712   22.5265 C   0  0  0  0  0  0
  -21.4004   -6.5625   23.8199 C   0  0  0  0  0  0
  -21.3672   -5.6773   24.9162 C   0  0  0  0  0  0
  -21.6075   -4.3045   24.7218 C   0  0  0  0  0  0
  -21.8822   -3.8134   23.4343 C   0  0  0  0  0  0
  -21.9200   -4.6942   22.3399 C   0  0  0  0  0  0
  -22.7854  -13.5224   21.1866 C   0  0  0  0  0  0
  -22.1650   -4.2108   21.0976 F   0  0  0  0  0  0
  -21.5683   -3.4556   25.7758 F   0  0  0  0  0  0
  -30.0443  -13.2377   20.4400 N   0  0  0  0  0  0
  -26.3044  -12.9340   20.3470 N   0  0  0  0  0  0
  -25.9311  -11.6488   20.5800 N   0  0  0  0  0  0
  -22.0533  -12.8194   22.0422 N   0  0  0  0  0  0
  -25.4326  -15.1869   20.4068 N   0  0  0  0  0  0
  -31.8219  -14.6157   20.0522 O   0  0  0  0  0  0
  -21.6657   -6.8835   21.4204 O   0  0  0  0  0  0
  -22.3532  -14.5520   20.6710 O   0  0  0  0  0  0
  -24.6126  -31.8657   23.2065 C   0  0  0  0  0  0
  -25.9014  -32.4834   23.8390 C   0  0  1  0  0  0
  -27.2528  -27.4612   20.0889 C   0  0  0  0  0  0
  -25.5823  -33.8636   24.2330 N   0  0  0  0  0  0
  -23.4000  -30.4870   21.5491 C   0  0  2  0  0  0
  -24.8508  -28.9563   20.1121 C   0  0  0  0  0  0
  -22.7404  -29.4604   22.4992 C   0  0  0  0  0  0
  -18.0238  -28.1381   22.8472 C   0  0  0  0  0  0
  -24.1469  -36.7359   23.2639 C   0  0  0  0  0  0
  -25.9176  -30.8455   21.3438 C   0  0  0  0  0  0
  -26.0019  -29.4721   20.7176 C   0  0  0  0  0  0
  -27.2002  -28.7243   20.7164 C   0  0  0  0  0  0
  -26.0782  -26.9536   19.4875 C   0  0  0  0  0  0
  -24.8826  -27.6936   19.4976 C   0  0  0  0  0  0
  -23.6109  -29.8197   20.1637 C   0  0  0  0  0  0
  -25.4073  -36.3131   24.0341 C   0  0  1  0  0  0
  -20.5829  -28.3657   23.1324 C   0  0  2  0  0  0
  -20.6759  -26.9411   22.5417 C   0  0  0  0  0  0
  -19.5749  -26.6372   21.5228 C   0  0  0  0  0  0
  -18.1898  -26.7935   22.1595 C   0  0  0  0  0  0
  -19.1500  -28.8829   23.2904 C   0  0  0  0  0  0
  -18.9460  -30.1418   23.8946 C   0  0  0  0  0  0
  -17.6468  -30.6595   24.0596 C   0  0  0  0  0  0
  -25.8987  -34.9495   23.5141 C   0  0  0  0  0  0
  -16.5344  -29.9105   23.6334 C   0  0  0  0  0  0
  -16.7246  -28.6528   23.0351 C   0  0  0  0  0  0
  -26.4472  -31.6598   25.0692 C   0  0  0  0  0  0
  -25.3787  -31.3643   26.1484 C   0  0  0  0  0  0
  -27.0278  -30.3080   24.5908 C   0  0  0  0  0  0
  -27.6074  -32.4283   25.7441 C   0  0  0  0  0  0
  -27.5556  -37.1818   24.8446 C   0  0  0  0  0  0
  -21.4121  -29.3025   22.3746 N   0  0  0  0  0  0
  -26.4273  -37.3782   23.9398 N   0  0  0  0  0  0
  -24.6629  -31.0790   22.0950 N   0  0  0  0  0  0
  -23.4151  -28.8124   23.3021 O   0  0  0  0  0  0
  -28.4566  -26.7899   20.0895 O   0  0  0  0  0  0
  -26.5585  -34.8927   22.4739 O   0  0  0  0  0  0
  -23.5323  -32.1400   23.7470 O   0  0  0  0  0  0
  -28.6527  -23.8347   20.5916 C   0  0  0  0  0  0
  -29.0756  -18.3624   20.6918 C   0  0  0  0  0  0
  -28.2784  -22.5179   20.9212 C   0  0  0  0  0  0
  -29.8458  -17.1838   20.7009 C   0  0  0  0  0  0
  -27.1160  -22.3422   18.8056 C   0  0  0  0  0  0
  -28.6175  -16.4005   22.6576 C   0  0  0  0  0  0
  -28.2587  -24.4233   19.3720 C   0  0  0  0  0  0
  -28.0583  -18.5602   21.6546 C   0  0  0  0  0  0
  -27.5046  -23.6501   18.4530 C   0  0  0  0  0  0
  -27.4681  -21.7532   20.0434 C   0  0  0  0  0  0
  -29.6295  -16.1989   21.6954 C   0  0  0  0  0  0
  -27.8390  -17.5747   22.6399 C   0  0  0  0  0  0
  -27.0810  -24.1639   17.0856 C   0  0  0  0  0  0
  -31.3302  -14.9328   22.9577 C   0  0  0  0  0  0
  -26.0712  -19.7807   19.4586 C   0  0  0  0  0  0
  -27.2122  -19.8247   21.6680 C   0  0  0  0  0  0
  -28.7247  -25.8435   19.0561 C   0  0  0  0  0  0
  -30.4555  -15.0413   21.7859 N   0  0  0  0  0  0
  -27.0212  -20.4438   20.3526 N   0  0  0  0  0  0
  -26.8840  -17.7578   23.5846 F   0  0  0  0  0  0
  -31.4445  -12.3640   19.0709 H   0  0  0  0  0  0
  -30.2915  -11.2658   19.7555 H   0  0  0  0  0  0
  -29.6916  -11.8119   17.3807 H   0  0  0  0  0  0
  -29.6337  -13.5173   17.7780 H   0  0  0  0  0  0
  -27.8055  -11.3106   18.8049 H   0  0  0  0  0  0
  -27.3324  -12.6536   17.7949 H   0  0  0  0  0  0
  -27.7184  -14.2589   19.6008 H   0  0  0  0  0  0
  -28.6718  -11.9139   21.3276 H   0  0  0  0  0  0
  -28.4659  -13.5423   21.8745 H   0  0  0  0  0  0
  -25.2746   -9.5691   22.4749 H   0  0  0  0  0  0
  -24.0028   -7.4616   22.7462 H   0  0  0  0  0  0
  -21.0845   -8.8741   19.8949 H   0  0  0  0  0  0
  -22.3652  -10.9663   19.6206 H   0  0  0  0  0  0
  -21.1936   -7.6126   23.9676 H   0  0  0  0  0  0
  -21.1512   -6.0526   25.9070 H   0  0  0  0  0  0
  -22.0590   -2.7587   23.2873 H   0  0  0  0  0  0
  -22.4170  -11.9809   22.4743 H   0  0  0  0  0  0
  -21.1155  -13.1168   22.2701 H   0  0  0  0  0  0
  -24.6622  -15.8383   20.4986 H   0  0  0  0  0  0
  -26.2872  -15.6199   20.0802 H   0  0  0  0  0  0
  -26.7139  -32.5527   23.1212 H   0  0  0  0  0  0
  -24.9959  -33.9820   25.0459 H   0  0  0  0  0  0
  -22.6886  -31.3032   21.4096 H   0  0  0  0  0  0
  -23.3659  -35.9762   23.3286 H   0  0  0  0  0  0
  -24.3617  -36.8962   22.2058 H   0  0  0  0  0  0
  -23.7257  -37.6574   23.6675 H   0  0  0  0  0  0
  -25.9797  -31.5898   20.5481 H   0  0  0  0  0  0
  -26.8187  -30.9456   21.9341 H   0  0  0  0  0  0
  -28.0932  -29.1246   21.1746 H   0  0  0  0  0  0
  -26.0637  -25.9893   19.0054 H   0  0  0  0  0  0
  -24.0028  -27.2867   19.0189 H   0  0  0  0  0  0
  -22.7319  -29.2422   19.8715 H   0  0  0  0  0  0
  -23.7149  -30.5931   19.4037 H   0  0  0  0  0  0
  -25.1239  -36.2062   25.0826 H   0  0  0  0  0  0
  -20.9882  -28.3236   24.1458 H   0  0  0  0  0  0
  -20.5659  -26.2269   23.3591 H   0  0  0  0  0  0
  -21.6627  -26.7495   22.1183 H   0  0  0  0  0  0
  -19.6949  -25.6244   21.1353 H   0  0  0  0  0  0
  -19.6723  -27.3133   20.6732 H   0  0  0  0  0  0
  -17.4163  -26.6632   21.3987 H   0  0  0  0  0  0
  -18.0317  -26.0113   22.9031 H   0  0  0  0  0  0
  -19.7971  -30.7178   24.2343 H   0  0  0  0  0  0
  -17.5046  -31.6275   24.5213 H   0  0  0  0  0  0
  -15.5334  -30.3016   23.7649 H   0  0  0  0  0  0
  -15.8641  -28.0885   22.7016 H   0  0  0  0  0  0
  -24.6013  -30.6914   25.7816 H   0  0  0  0  0  0
  -24.8925  -32.2757   26.4964 H   0  0  0  0  0  0
  -25.8233  -30.8838   27.0204 H   0  0  0  0  0  0
  -26.2769  -29.6848   24.1012 H   0  0  0  0  0  0
  -27.4189  -29.7297   25.4269 H   0  0  0  0  0  0
  -27.8525  -30.4438   23.8913 H   0  0  0  0  0  0
  -27.2764  -33.3579   26.2085 H   0  0  0  0  0  0
  -28.3878  -32.6800   25.0254 H   0  0  0  0  0  0
  -28.0760  -31.8327   26.5287 H   0  0  0  0  0  0
  -28.2556  -38.0115   24.7456 H   0  0  0  0  0  0
  -28.1058  -36.2636   24.6314 H   0  0  0  0  0  0
  -27.2313  -37.1518   25.8858 H   0  0  0  0  0  0
  -20.9294  -29.8862   21.7055 H   0  0  0  0  0  0
  -26.0171  -38.2860   24.1381 H   0  0  0  0  0  0
  -29.2540  -24.3970   21.2913 H   0  0  0  0  0  0
  -29.2817  -19.1145   19.9427 H   0  0  0  0  0  0
  -28.6410  -22.1333   21.8643 H   0  0  0  0  0  0
  -30.6206  -17.0621   19.9592 H   0  0  0  0  0  0
  -26.5379  -21.7939   18.0805 H   0  0  0  0  0  0
  -28.4284  -15.6554   23.4159 H   0  0  0  0  0  0
  -26.1620  -24.7448   17.1616 H   0  0  0  0  0  0
  -26.8881  -23.3325   16.4045 H   0  0  0  0  0  0
  -27.8490  -24.7718   16.6034 H   0  0  0  0  0  0
  -30.8446  -15.2822   23.8698 H   0  0  0  0  0  0
  -32.2303  -15.5314   22.8118 H   0  0  0  0  0  0
  -31.6464  -13.9000   23.1265 H   0  0  0  0  0  0
  -26.5302  -19.5423   18.4999 H   0  0  0  0  0  0
  -25.1967  -20.4067   19.2795 H   0  0  0  0  0  0
  -25.7093  -18.8425   19.8779 H   0  0  0  0  0  0
  -27.6117  -20.4986   22.4213 H   0  0  0  0  0  0
  -26.2257  -19.5599   22.0509 H   0  0  0  0  0  0
  -28.3500  -26.2164   18.1066 H   0  0  0  0  0  0
  -29.8079  -25.7988   18.9329 H   0  0  0  0  0  0
  1 25  1  0  0  0
  1 30  2  0  0  0
  1 88  1  0  0  0
  2  3  1  0  0  0
  2 25  1  0  0  0
  2 91  1  0  0  0
  2 92  1  0  0  0
  3  4  1  0  0  0
  3 93  1  0  0  0
  3 94  1  0  0  0
  4  5  1  0  0  0
  4 95  1  0  0  0
  4 96  1  0  0  0
  5  6  1  0  0  0
  5 26  1  0  0  0
  5 97  1  0  0  0
  6 25  1  0  0  0
  6 98  1  0  0  0
  6 99  1  0  0  0
  7  8  2  0  0  0
  7 26  1  0  0  0
  7 29  1  0  0  0
  8  9  1  0  0  0
  8 22  1  0  0  0
  9 10  1  0  0  0
  9 27  2  0  0  0
 10 11  2  0  0  0
 10 15  1  0  0  0
 11 12  1  0  0  0
 11100  1  0  0  0
 12 13  2  0  0  0
 12101  1  0  0  0
 13 14  1  0  0  0
 13 31  1  0  0  0
 14 15  2  0  0  0
 14102  1  0  0  0
 15103  1  0  0  0
 16 17  2  0  0  0
 16 21  1  0  0  0
 16 31  1  0  0  0
 17 18  1  0  0  0
 17104  1  0  0  0
 18 19  2  0  0  0
 18105  1  0  0  0
 19 20  1  0  0  0
 19 24  1  0  0  0
 20 21  2  0  0  0
 20106  1  0  0  0
 21 23  1  0  0  0
 22 28  1  0  0  0
 22 32  2  0  0  0
 26 27  1  0  0  0
 28107  1  0  0  0
 28108  1  0  0  0
 29109  1  0  0  0
 29110  1  0  0  0
 33 34  1  0  0  0
 33 66  1  0  0  0
 33 70  2  0  0  0
 34 36  1  0  0  0
 34 59  1  0  0  0
 34111  1  0  0  0
 35 44  2  0  0  0
 35 45  1  0  0  0
 35 68  1  0  0  0
 36 56  1  0  0  0
 36112  1  0  0  0
 37 39  1  0  0  0
 37 47  1  0  0  0
 37 66  1  0  0  0
 37113  1  0  0  0
 38 43  2  0  0  0
 38 46  1  0  0  0
 38 47  1  0  0  0
 39 64  1  0  0  0
 39 67  2  0  0  0
 40 52  1  0  0  0
 40 53  2  0  0  0
 40 58  1  0  0  0
 41114  1  0  0  0
 41115  1  0  0  0
 41116  1  0  0  0
 41 48  1  0  0  0
 42 43  1  0  0  0
 42 66  1  0  0  0
 42117  1  0  0  0
 42118  1  0  0  0
 43 44  1  0  0  0
 44119  1  0  0  0
 45 46  2  0  0  0
 45120  1  0  0  0
 46121  1  0  0  0
 47122  1  0  0  0
 47123  1  0  0  0
 48 56  1  0  0  0
 48 65  1  0  0  0
 48124  1  0  0  0
 49 50  1  0  0  0
 49 53  1  0  0  0
 49 64  1  0  0  0
 49125  1  0  0  0
 50 51  1  0  0  0
 50126  1  0  0  0
 50127  1  0  0  0
 51 52  1  0  0  0
 51128  1  0  0  0
 51129  1  0  0  0
 52130  1  0  0  0
 52131  1  0  0  0
 53 54  1  0  0  0
 54 55  2  0  0  0
 54132  1  0  0  0
 55 57  1  0  0  0
 55133  1  0  0  0
 56 69  2  0  0  0
 57 58  2  0  0  0
 57134  1  0  0  0
 58135  1  0  0  0
 59 60  1  0  0  0
 59 61  1  0  0  0
 59 62  1  0  0  0
 60136  1  0  0  0
 60137  1  0  0  0
 60138  1  0  0  0
 61139  1  0  0  0
 61140  1  0  0  0
 61141  1  0  0  0
 62142  1  0  0  0
 62143  1  0  0  0
 62144  1  0  0  0
 63 65  1  0  0  0
 63145  1  0  0  0
 63146  1  0  0  0
 63147  1  0  0  0
 64148  1  0  0  0
 65149  1  0  0  0
 68 87  1  0  0  0
 71 73  2  0  0  0
 71 77  1  0  0  0
 71150  1  0  0  0
 72 74  2  0  0  0
 72 78  1  0  0  0
 72151  1  0  0  0
 73 80  1  0  0  0
 73152  1  0  0  0
 74 81  1  0  0  0
 74153  1  0  0  0
 75 79  1  0  0  0
 75 80  2  0  0  0
 75154  1  0  0  0
 76 81  2  0  0  0
 76 82  1  0  0  0
 76155  1  0  0  0
 77 79  2  0  0  0
 77 87  1  0  0  0
 78 82  2  0  0  0
 78 86  1  0  0  0
 79 83  1  0  0  0
 80 89  1  0  0  0
 81 88  1  0  0  0
 82 90  1  0  0  0
 83156  1  0  0  0
 83157  1  0  0  0
 83158  1  0  0  0
 84 88  1  0  0  0
 84159  1  0  0  0
 84160  1  0  0  0
 84161  1  0  0  0
 85 89  1  0  0  0
 85162  1  0  0  0
 85163  1  0  0  0
 85164  1  0  0  0
 86 89  1  0  0  0
 86165  1  0  0  0
 86166  1  0  0  0
 87167  1  0  0  0
 87168  1  0  0  0
M  ISO  4   1 100  68 101  87 101  88 100
M  END
> <chiral flag>
0

> <version>
0

> <s_m_source_file>
/data/baiqing/PycharmProjects/Reinvent-master-3.2/result/LINK_invent/BTK/process_docking_weight1_custom_product_contain_oxygen_bond_distance_aromatic_linkinvent_7_9_3/rearranged_h_0015.sdf

> <i_m_source_file_index>
62

> <r_mmod_Potential_Energy-OPLS-2005>
163.694259643555

> <r_mmod_Stretch_Energy-OPLS-2005>
37.4068412780762

> <r_mmod_Bend_Energy-OPLS-2005>
117.049842834473

> <r_mmod_Torsional_Energy-OPLS-2005>
286.217376708984

> <r_mmod_Improper_Torsional_Energy-OPLS-2005>
4.73225975036621

> <r_mmod_Van_der_Waal_Energy-OPLS-2005>
182.924301147461

> <r_mmod_Electrostatic_Energy-OPLS-2005>
-283.373748779297

> <r_mmod_Solvation_Energy-OPLS-2005>
-189.521987915039

> <b_mmod_Minimization_Converged-OPLS-2005>
0

> <r_mmod_RMS_Derivative-OPLS-2005>
5.6973614692688

$$$$
62
                    3D
 Structure written by MMmdl.
164173  0  0  1  0            999 V2000
  -30.6923  -14.5644   20.3478 C   0  0  0  0  0  0
  -30.4179  -12.3078   19.4409 C   0  0  0  0  0  0
  -29.4907  -12.3954   18.2118 C   0  0  0  0  0  0
  -28.0110  -12.3040   18.6304 C   0  0  0  0  0  0
  -27.6457  -13.2096   19.8380 C   0  0  2  0  0  0
  -28.7030  -13.1331   20.9606 C   0  0  0  0  0  0
  -25.2564  -13.8148   20.5733 C   0  0  0  0  0  0
  -24.1826  -13.0421   20.9194 C   0  0  0  0  0  0
  -24.6394  -11.6898   20.8750 C   0  0  0  0  0  0
  -23.9054  -10.4291   21.0414 C   0  0  0  0  0  0
  -24.3609   -9.4210   21.9190 C   0  0  0  0  0  0
  -23.6296   -8.2239   22.0738 C   0  0  0  0  0  0
  -22.4276   -8.0278   21.3530 C   0  0  0  0  0  0
  -21.9912   -9.0254   20.4634 C   0  0  0  0  0  0
  -22.7228  -10.2143   20.3053 C   0  0  0  0  0  0
  -21.6850   -6.0748   22.5285 C   0  0  0  0  0  0
  -21.4014   -6.5652   23.8221 C   0  0  0  0  0  0
  -21.3657   -5.6799   24.9183 C   0  0  0  0  0  0
  -21.6045   -4.3063   24.7228 C   0  0  0  0  0  0
  -21.8821   -3.8155   23.4348 C   0  0  0  0  0  0
  -21.9197   -4.6978   22.3407 C   0  0  0  0  0  0
  -22.7856  -13.5222   21.1863 C   0  0  0  0  0  0
  -22.1658   -4.2166   21.0983 F   0  0  0  0  0  0
  -21.5629   -3.4542   25.7738 F   0  0  0  0  0  0
  -30.0145  -13.3841   20.3539 N   0  0  0  0  0  0
  -26.2980  -12.9330   20.3298 N   0  0  0  0  0  0
  -25.9324  -11.6495   20.5797 N   0  0  0  0  0  0
  -22.0486  -12.8219   22.0422 N   0  0  0  0  0  0
  -25.4260  -15.1868   20.4280 N   0  0  0  0  0  0
  -31.9241  -14.5914   20.3607 O   0  0  0  0  0  0
  -21.6627   -6.8887   21.4242 O   0  0  0  0  0  0
  -22.3552  -14.5537   20.6726 O   0  0  0  0  0  0
  -24.6181  -31.8653   23.2077 C   0  0  0  0  0  0
  -25.9064  -32.4809   23.8378 C   0  0  1  0  0  0
  -27.2278  -27.3998   20.0888 C   0  0  0  0  0  0
  -25.5917  -33.8614   24.2314 N   0  0  0  0  0  0
  -23.4068  -30.4910   21.5490 C   0  0  2  0  0  0
  -24.8475  -28.9506   20.1165 C   0  0  0  0  0  0
  -22.7420  -29.4666   22.4974 C   0  0  0  0  0  0
  -18.0281  -28.1390   22.8489 C   0  0  0  0  0  0
  -24.1486  -36.7305   23.2638 C   0  0  0  0  0  0
  -25.9397  -30.8193   21.3641 C   0  0  0  0  0  0
  -26.0116  -29.4509   20.7110 C   0  0  0  0  0  0
  -27.2014  -28.6838   20.6917 C   0  0  0  0  0  0
  -26.0321  -26.9133   19.5085 C   0  0  0  0  0  0
  -24.8535  -27.6824   19.5149 C   0  0  0  0  0  0
  -23.6147  -29.8258   20.1634 C   0  0  0  0  0  0
  -25.4106  -36.3101   24.0337 C   0  0  1  0  0  0
  -20.5874  -28.3681   23.1313 C   0  0  2  0  0  0
  -20.6774  -26.9423   22.5409 C   0  0  0  0  0  0
  -19.5750  -26.6399   21.5213 C   0  0  0  0  0  0
  -18.1929  -26.7940   22.1623 C   0  0  0  0  0  0
  -19.1529  -28.8851   23.2903 C   0  0  0  0  0  0
  -18.9456  -30.1456   23.8919 C   0  0  0  0  0  0
  -17.6457  -30.6593   24.0573 C   0  0  0  0  0  0
  -25.9035  -34.9473   23.5115 C   0  0  0  0  0  0
  -16.5350  -29.9096   23.6332 C   0  0  0  0  0  0
  -16.7271  -28.6514   23.0351 C   0  0  0  0  0  0
  -26.4478  -31.6601   25.0723 C   0  0  0  0  0  0
  -25.3740  -31.3727   26.1472 C   0  0  0  0  0  0
  -27.0303  -30.3040   24.6114 C   0  0  0  0  0  0
  -27.6055  -32.4315   25.7486 C   0  0  0  0  0  0
  -27.5581  -37.1808   24.8471 C   0  0  0  0  0  0
  -21.4147  -29.3046   22.3712 N   0  0  0  0  0  0
  -26.4292  -37.3787   23.9415 N   0  0  0  0  0  0
  -24.6741  -31.0735   22.0984 N   0  0  0  0  0  0
  -23.4182  -28.8201   23.3023 O   0  0  0  0  0  0
  -28.4142  -26.6808   20.0913 O   0  0  0  0  0  0
  -26.5593  -34.8927   22.4677 O   0  0  0  0  0  0
  -23.5365  -32.1429   23.7447 O   0  0  0  0  0  0
  -27.5673  -18.3035   20.0772 C   0  0  0  0  0  0
  -28.1389  -17.0575   19.7462 C   0  0  0  0  0  0
  -29.5633  -18.8903   21.3169 C   0  0  0  0  0  0
  -28.2761  -19.2505   20.8483 C   0  0  0  0  0  0
  -29.4358  -16.7027   20.1835 C   0  0  0  0  0  0
  -30.1387  -17.6348   20.9905 C   0  0  0  0  0  0
  -29.0438  -22.4792   21.9361 C   0  0  0  0  0  0
  -29.2464  -23.9505   21.5893 C   0  0  0  0  0  0
  -27.9276  -22.8004   19.9450 C   0  0  0  0  0  0
  -28.1527  -24.2141   20.5452 C   0  0  2  0  0  0
  -29.6834  -16.1402   17.1723 C   0  0  0  0  0  0
  -27.5848  -20.5787   21.2149 C   0  0  0  0  0  0
  -28.4823  -25.3496   19.5308 C   0  0  0  0  0  0
  -30.6857  -15.8098   18.2932 C   0  0  0  0  0  0
  -28.3050  -21.8547   21.0064 N   0  0  0  0  0  0
  -30.0660  -15.5394   19.6162 N   0  0  0  0  0  0
  -29.4645  -21.9808   22.9829 O   0  0  0  0  0  0
  -31.3943  -17.3578   21.4152 F   0  0  0  0  0  0
  -31.4619  -12.3912   19.1318 H   0  0  0  0  0  0
  -30.3193  -11.3394   19.9331 H   0  0  0  0  0  0
  -29.7212  -11.5847   17.5188 H   0  0  0  0  0  0
  -29.6673  -13.3143   17.6588 H   0  0  0  0  0  0
  -27.8180  -11.2609   18.8842 H   0  0  0  0  0  0
  -27.3664  -12.5305   17.7801 H   0  0  0  0  0  0
  -27.6438  -14.2256   19.4524 H   0  0  0  0  0  0
  -28.6925  -12.1548   21.4424 H   0  0  0  0  0  0
  -28.4905  -13.8710   21.7362 H   0  0  0  0  0  0
  -25.2748   -9.5705   22.4774 H   0  0  0  0  0  0
  -24.0021   -7.4629   22.7448 H   0  0  0  0  0  0
  -21.0843   -8.8776   19.8934 H   0  0  0  0  0  0
  -22.3680  -10.9692   19.6175 H   0  0  0  0  0  0
  -21.1990   -7.6157   23.9741 H   0  0  0  0  0  0
  -21.1467   -6.0515   25.9092 H   0  0  0  0  0  0
  -22.0593   -2.7618   23.2834 H   0  0  0  0  0  0
  -22.4081  -11.9871   22.4800 H   0  0  0  0  0  0
  -21.1117  -13.1279   22.2634 H   0  0  0  0  0  0
  -24.6674  -15.8419   20.5791 H   0  0  0  0  0  0
  -26.3090  -15.6400   20.2374 H   0  0  0  0  0  0
  -26.7135  -32.5490   23.1133 H   0  0  0  0  0  0
  -25.0111  -33.9791   25.0491 H   0  0  0  0  0  0
  -22.6980  -31.3097   21.4090 H   0  0  0  0  0  0
  -23.3747  -35.9640   23.3312 H   0  0  0  0  0  0
  -24.3586  -36.8902   22.2050 H   0  0  0  0  0  0
  -23.7237  -37.6515   23.6641 H   0  0  0  0  0  0
  -26.0597  -31.5829   20.5942 H   0  0  0  0  0  0
  -26.8265  -30.8703   21.9844 H   0  0  0  0  0  0
  -28.1025  -29.0732   21.1449 H   0  0  0  0  0  0
  -25.9715  -25.9398   19.0479 H   0  0  0  0  0  0
  -23.9553  -27.2868   19.0605 H   0  0  0  0  0  0
  -23.7322  -30.6026   19.4062 H   0  0  0  0  0  0
  -22.7360  -29.2530   19.8610 H   0  0  0  0  0  0
  -25.1280  -36.1965   25.0830 H   0  0  0  0  0  0
  -20.9977  -28.3237   24.1430 H   0  0  0  0  0  0
  -20.5693  -26.2292   23.3594 H   0  0  0  0  0  0
  -21.6641  -26.7465   22.1195 H   0  0  0  0  0  0
  -19.6917  -25.6311   21.1244 H   0  0  0  0  0  0
  -19.6689  -27.3210   20.6745 H   0  0  0  0  0  0
  -17.4199  -26.6699   21.4025 H   0  0  0  0  0  0
  -18.0328  -26.0083   22.9017 H   0  0  0  0  0  0
  -19.7935  -30.7268   24.2305 H   0  0  0  0  0  0
  -17.5015  -31.6283   24.5160 H   0  0  0  0  0  0
  -15.5357  -30.3005   23.7649 H   0  0  0  0  0  0
  -15.8674  -28.0841   22.7057 H   0  0  0  0  0  0
  -24.5919  -30.7053   25.7831 H   0  0  0  0  0  0
  -24.8917  -32.2889   26.4891 H   0  0  0  0  0  0
  -25.8091  -30.8932   27.0248 H   0  0  0  0  0  0
  -26.2846  -29.6820   24.1142 H   0  0  0  0  0  0
  -27.4048  -29.7260   25.4573 H   0  0  0  0  0  0
  -27.8701  -30.4366   23.9287 H   0  0  0  0  0  0
  -27.2681  -33.3616   26.2076 H   0  0  0  0  0  0
  -28.3863  -32.6870   25.0309 H   0  0  0  0  0  0
  -28.0729  -31.8425   26.5390 H   0  0  0  0  0  0
  -28.2600  -38.0103   24.7508 H   0  0  0  0  0  0
  -28.1070  -36.2633   24.6292 H   0  0  0  0  0  0
  -27.2310  -37.1457   25.8877 H   0  0  0  0  0  0
  -20.9303  -29.8777   21.6945 H   0  0  0  0  0  0
  -26.0179  -38.2868   24.1400 H   0  0  0  0  0  0
  -26.5765  -18.5367   19.7101 H   0  0  0  0  0  0
  -27.5939  -16.4026   19.0842 H   0  0  0  0  0  0
  -30.1265  -19.5802   21.9282 H   0  0  0  0  0  0
  -30.2450  -24.0719   21.1699 H   0  0  0  0  0  0
  -29.1527  -24.5970   22.4611 H   0  0  0  0  0  0
  -28.5773  -22.6361   19.0843 H   0  0  0  0  0  0
  -26.8976  -22.6681   19.6100 H   0  0  0  0  0  0
  -27.2404  -24.4907   21.0773 H   0  0  0  0  0  0
  -28.8749  -15.4111   17.1211 H   0  0  0  0  0  0
  -30.1842  -16.1417   16.2036 H   0  0  0  0  0  0
  -29.2433  -17.1292   17.2963 H   0  0  0  0  0  0
  -27.2964  -20.5091   22.2655 H   0  0  0  0  0  0
  -26.6390  -20.6379   20.6758 H   0  0  0  0  0  0
  -27.8913  -25.2554   18.6210 H   0  0  0  0  0  0
  -29.5056  -25.2110   19.1818 H   0  0  0  0  0  0
  -31.3969  -16.6318   18.3960 H   0  0  0  0  0  0
  -31.2803  -14.9596   17.9489 H   0  0  0  0  0  0
  1 25  1  0  0  0
  1 30  2  0  0  0
  1 86  1  0  0  0
  2  3  1  0  0  0
  2 25  1  0  0  0
  2 89  1  0  0  0
  2 90  1  0  0  0
  3  4  1  0  0  0
  3 91  1  0  0  0
  3 92  1  0  0  0
  4  5  1  0  0  0
  4 93  1  0  0  0
  4 94  1  0  0  0
  5  6  1  0  0  0
  5 26  1  0  0  0
  5 95  1  0  0  0
  6 25  1  0  0  0
  6 96  1  0  0  0
  6 97  1  0  0  0
  7  8  2  0  0  0
  7 26  1  0  0  0
  7 29  1  0  0  0
  8  9  1  0  0  0
  8 22  1  0  0  0
  9 10  1  0  0  0
  9 27  2  0  0  0
 10 11  2  0  0  0
 10 15  1  0  0  0
 11 12  1  0  0  0
 11 98  1  0  0  0
 12 13  2  0  0  0
 12 99  1  0  0  0
 13 14  1  0  0  0
 13 31  1  0  0  0
 14 15  2  0  0  0
 14100  1  0  0  0
 15101  1  0  0  0
 16 17  2  0  0  0
 16 21  1  0  0  0
 16 31  1  0  0  0
 17 18  1  0  0  0
 17102  1  0  0  0
 18 19  2  0  0  0
 18103  1  0  0  0
 19 20  1  0  0  0
 19 24  1  0  0  0
 20 21  2  0  0  0
 20104  1  0  0  0
 21 23  1  0  0  0
 22 28  1  0  0  0
 22 32  2  0  0  0
 26 27  1  0  0  0
 28105  1  0  0  0
 28106  1  0  0  0
 29107  1  0  0  0
 29108  1  0  0  0
 33 34  1  0  0  0
 33 66  1  0  0  0
 33 70  2  0  0  0
 34 36  1  0  0  0
 34 59  1  0  0  0
 34109  1  0  0  0
 35 44  2  0  0  0
 35 45  1  0  0  0
 35 68  1  0  0  0
 36 56  1  0  0  0
 36110  1  0  0  0
 37 39  1  0  0  0
 37 47  1  0  0  0
 37 66  1  0  0  0
 37111  1  0  0  0
 38 43  2  0  0  0
 38 46  1  0  0  0
 38 47  1  0  0  0
 39 64  1  0  0  0
 39 67  2  0  0  0
 40 52  1  0  0  0
 40 53  2  0  0  0
 40 58  1  0  0  0
 41112  1  0  0  0
 41113  1  0  0  0
 41114  1  0  0  0
 41 48  1  0  0  0
 42 43  1  0  0  0
 42 66  1  0  0  0
 42115  1  0  0  0
 42116  1  0  0  0
 43 44  1  0  0  0
 44117  1  0  0  0
 45 46  2  0  0  0
 45118  1  0  0  0
 46119  1  0  0  0
 47120  1  0  0  0
 47121  1  0  0  0
 48 56  1  0  0  0
 48 65  1  0  0  0
 48122  1  0  0  0
 49 50  1  0  0  0
 49 53  1  0  0  0
 49 64  1  0  0  0
 49123  1  0  0  0
 50 51  1  0  0  0
 50124  1  0  0  0
 50125  1  0  0  0
 51 52  1  0  0  0
 51126  1  0  0  0
 51127  1  0  0  0
 52128  1  0  0  0
 52129  1  0  0  0
 53 54  1  0  0  0
 54 55  2  0  0  0
 54130  1  0  0  0
 55 57  1  0  0  0
 55131  1  0  0  0
 56 69  2  0  0  0
 57 58  2  0  0  0
 57132  1  0  0  0
 58133  1  0  0  0
 59 60  1  0  0  0
 59 61  1  0  0  0
 59 62  1  0  0  0
 60134  1  0  0  0
 60135  1  0  0  0
 60136  1  0  0  0
 61137  1  0  0  0
 61138  1  0  0  0
 61139  1  0  0  0
 62140  1  0  0  0
 62141  1  0  0  0
 62142  1  0  0  0
 63 65  1  0  0  0
 63143  1  0  0  0
 63144  1  0  0  0
 63145  1  0  0  0
 64146  1  0  0  0
 65147  1  0  0  0
 68 83  1  0  0  0
 71 72  2  0  0  0
 71 74  1  0  0  0
 71148  1  0  0  0
 72 75  1  0  0  0
 72149  1  0  0  0
 73 74  2  0  0  0
 73 76  1  0  0  0
 73150  1  0  0  0
 74 82  1  0  0  0
 75 76  2  0  0  0
 75 86  1  0  0  0
 76 88  1  0  0  0
 77 78  1  0  0  0
 77 85  1  0  0  0
 77 87  2  0  0  0
 78 80  1  0  0  0
 78151  1  0  0  0
 78152  1  0  0  0
 79 80  1  0  0  0
 79 85  1  0  0  0
 79153  1  0  0  0
 79154  1  0  0  0
 80 83  1  0  0  0
 80155  1  0  0  0
 81 84  1  0  0  0
 81156  1  0  0  0
 81157  1  0  0  0
 81158  1  0  0  0
 82 85  1  0  0  0
 82159  1  0  0  0
 82160  1  0  0  0
 83161  1  0  0  0
 83162  1  0  0  0
 84 86  1  0  0  0
 84163  1  0  0  0
 84164  1  0  0  0
M  ISO  4   1 100  68 101  83 101  86 100
M  END
> <chiral flag>
0

> <version>
0

> <s_m_source_file>
/data/baiqing/PycharmProjects/Reinvent-master-3.2/result/LINK_invent/BTK/process_docking_weight1_custom_product_contain_oxygen_bond_distance_aromatic_linkinvent_7_9_3/rearranged_h_0015.sdf

> <i_m_source_file_index>
63

> <r_mmod_Potential_Energy-OPLS-2005>
225.690933227539

> <r_mmod_Stretch_Energy-OPLS-2005>
46.5248947143555

> <r_mmod_Bend_Energy-OPLS-2005>
151.209518432617

> <r_mmod_Torsional_Energy-OPLS-2005>
346.453643798828

> <r_mmod_Improper_Torsional_Energy-OPLS-2005>
32.9262619018555

> <r_mmod_Van_der_Waal_Energy-OPLS-2005>
139.18180847168

> <r_mmod_Electrostatic_Energy-OPLS-2005>
-321.994079589844

> <r_mmod_Solvation_Energy-OPLS-2005>
-217.065780639648

> <b_mmod_Minimization_Converged-OPLS-2005>
0

> <r_mmod_RMS_Derivative-OPLS-2005>
1.50159418582916

$$$$
63
                    3D
 Structure written by MMmdl.
161169  0  0  1  0            999 V2000
  -30.7262  -14.5098   20.5673 C   0  0  0  0  0  0
  -30.4099  -12.3379   19.4289 C   0  0  0  0  0  0
  -29.4811  -12.4908   18.2094 C   0  0  0  0  0  0
  -28.0067  -12.3372   18.6264 C   0  0  0  0  0  0
  -27.6434  -13.1992   19.8612 C   0  0  2  0  0  0
  -28.6909  -13.0536   20.9889 C   0  0  0  0  0  0
  -25.2529  -13.8141   20.5685 C   0  0  0  0  0  0
  -24.1789  -13.0435   20.9215 C   0  0  0  0  0  0
  -24.6347  -11.6899   20.8785 C   0  0  0  0  0  0
  -23.9028  -10.4288   21.0447 C   0  0  0  0  0  0
  -24.3591   -9.4202   21.9213 C   0  0  0  0  0  0
  -23.6287   -8.2226   22.0757 C   0  0  0  0  0  0
  -22.4271   -8.0278   21.3541 C   0  0  0  0  0  0
  -21.9906   -9.0247   20.4642 C   0  0  0  0  0  0
  -22.7224  -10.2129   20.3074 C   0  0  0  0  0  0
  -21.6850   -6.0738   22.5272 C   0  0  0  0  0  0
  -21.4021   -6.5639   23.8213 C   0  0  0  0  0  0
  -21.3658   -5.6787   24.9174 C   0  0  0  0  0  0
  -21.6041   -4.3051   24.7218 C   0  0  0  0  0  0
  -21.8823   -3.8149   23.4342 C   0  0  0  0  0  0
  -21.9191   -4.6966   22.3397 C   0  0  0  0  0  0
  -22.7822  -13.5238   21.1884 C   0  0  0  0  0  0
  -22.1659   -4.2155   21.0973 F   0  0  0  0  0  0
  -21.5617   -3.4537   25.7733 F   0  0  0  0  0  0
  -30.0161  -13.3528   20.4228 N   0  0  0  0  0  0
  -26.2929  -12.9279   20.3346 N   0  0  0  0  0  0
  -25.9263  -11.6458   20.5823 N   0  0  0  0  0  0
  -22.0456  -12.8205   22.0425 N   0  0  0  0  0  0
  -25.4267  -15.1860   20.4031 N   0  0  0  0  0  0
  -31.8680  -14.6307   20.1151 O   0  0  0  0  0  0
  -21.6637   -6.8881   21.4236 O   0  0  0  0  0  0
  -22.3512  -14.5556   20.6753 O   0  0  0  0  0  0
  -24.6145  -31.8674   23.2083 C   0  0  0  0  0  0
  -25.9036  -32.4832   23.8389 C   0  0  1  0  0  0
  -27.2463  -27.4367   20.0913 C   0  0  0  0  0  0
  -25.5879  -33.8629   24.2318 N   0  0  0  0  0  0
  -23.4020  -30.4905   21.5484 C   0  0  2  0  0  0
  -24.8489  -28.9531   20.1170 C   0  0  0  0  0  0
  -22.7404  -29.4669   22.4985 C   0  0  0  0  0  0
  -18.0268  -28.1398   22.8478 C   0  0  0  0  0  0
  -24.1490  -36.7323   23.2648 C   0  0  0  0  0  0
  -25.9294  -30.8348   21.3592 C   0  0  0  0  0  0
  -26.0070  -29.4667   20.7110 C   0  0  0  0  0  0
  -27.2037  -28.7154   20.6946 C   0  0  0  0  0  0
  -26.0627  -26.9311   19.5031 C   0  0  0  0  0  0
  -24.8715  -27.6840   19.5122 C   0  0  0  0  0  0
  -23.6102  -29.8188   20.1639 C   0  0  0  0  0  0
  -25.4108  -36.3111   24.0342 C   0  0  1  0  0  0
  -20.5854  -28.3682   23.1303 C   0  0  2  0  0  0
  -20.6766  -26.9421   22.5401 C   0  0  0  0  0  0
  -19.5748  -26.6393   21.5197 C   0  0  0  0  0  0
  -18.1920  -26.7938   22.1608 C   0  0  0  0  0  0
  -19.1517  -28.8850   23.2891 C   0  0  0  0  0  0
  -18.9456  -30.1453   23.8910 C   0  0  0  0  0  0
  -17.6465  -30.6603   24.0566 C   0  0  0  0  0  0
  -25.9030  -34.9480   23.5125 C   0  0  0  0  0  0
  -16.5355  -29.9111   23.6326 C   0  0  0  0  0  0
  -16.7262  -28.6532   23.0331 C   0  0  0  0  0  0
  -26.4461  -31.6623   25.0725 C   0  0  0  0  0  0
  -25.3725  -31.3693   26.1465 C   0  0  0  0  0  0
  -27.0338  -30.3097   24.6087 C   0  0  0  0  0  0
  -27.6017  -32.4371   25.7491 C   0  0  0  0  0  0
  -27.5577  -37.1805   24.8470 C   0  0  0  0  0  0
  -21.4130  -29.3058   22.3720 N   0  0  0  0  0  0
  -26.4293  -37.3796   23.9412 N   0  0  0  0  0  0
  -24.6672  -31.0788   22.0974 N   0  0  0  0  0  0
  -23.4173  -28.8206   23.3024 O   0  0  0  0  0  0
  -28.4494  -26.7529   20.1026 O   0  0  0  0  0  0
  -26.5601  -34.8930   22.4689 O   0  0  0  0  0  0
  -23.5331  -32.1413   23.7478 O   0  0  0  0  0  0
  -28.5766  -18.7252   21.4937 C   0  0  0  0  0  0
  -28.6558  -20.1298   21.3552 C   0  0  0  0  0  0
  -30.0337  -19.8508   19.3838 C   0  0  0  0  0  0
  -29.2185  -17.8602   20.5767 C   0  0  0  0  0  0
  -29.3908  -20.7194   20.3026 C   0  0  0  0  0  0
  -29.9475  -18.4445   19.5112 C   0  0  0  0  0  0
  -30.7270  -22.6557   19.6370 C   0  0  0  0  0  0
  -30.9946  -16.2535   22.2315 C   0  0  0  0  0  0
  -29.0419  -16.3317   20.7048 C   0  0  0  0  0  0
  -28.1781  -24.3087   20.5230 C   0  0  0  0  0  0
  -28.2343  -22.8656   19.9432 C   0  0  0  0  0  0
  -28.5701  -25.4392   19.5352 C   0  0  0  0  0  0
  -29.4856  -22.1323   20.2047 N   0  0  0  0  0  0
  -30.1591  -15.5320   21.2671 N   0  0  0  0  0  0
  -30.7236  -17.4559   18.3255 Cl  0  0  0  0  0  0
  -31.4510  -12.4324   19.1159 H   0  0  0  0  0  0
  -30.3218  -11.3394   19.8601 H   0  0  0  0  0  0
  -29.7301  -11.7483   17.4506 H   0  0  0  0  0  0
  -29.6324  -13.4673   17.7467 H   0  0  0  0  0  0
  -27.8277  -11.2840   18.8463 H   0  0  0  0  0  0
  -27.3522  -12.5883   17.7907 H   0  0  0  0  0  0
  -27.6486  -14.2242   19.5075 H   0  0  0  0  0  0
  -28.6817  -12.0401   21.3921 H   0  0  0  0  0  0
  -28.4442  -13.7061   21.8271 H   0  0  0  0  0  0
  -25.2719   -9.5684   22.4809 H   0  0  0  0  0  0
  -23.9999   -7.4612   22.7475 H   0  0  0  0  0  0
  -21.0841   -8.8772   19.8938 H   0  0  0  0  0  0
  -22.3691  -10.9683   19.6199 H   0  0  0  0  0  0
  -21.2033   -7.6145   23.9730 H   0  0  0  0  0  0
  -21.1467   -6.0507   25.9076 H   0  0  0  0  0  0
  -22.0607   -2.7612   23.2838 H   0  0  0  0  0  0
  -22.4067  -11.9836   22.4759 H   0  0  0  0  0  0
  -21.1094  -13.1249   22.2686 H   0  0  0  0  0  0
  -24.6591  -15.8429   20.4974 H   0  0  0  0  0  0
  -26.2675  -15.6152   20.0416 H   0  0  0  0  0  0
  -26.7116  -32.5550   23.1162 H   0  0  0  0  0  0
  -25.0044  -33.9796   25.0474 H   0  0  0  0  0  0
  -22.6915  -31.3073   21.4043 H   0  0  0  0  0  0
  -23.3758  -35.9647   23.3303 H   0  0  0  0  0  0
  -24.3596  -36.8962   22.2065 H   0  0  0  0  0  0
  -23.7243  -37.6517   23.6691 H   0  0  0  0  0  0
  -26.0374  -31.5958   20.5845 H   0  0  0  0  0  0
  -26.8184  -30.8950   21.9745 H   0  0  0  0  0  0
  -28.1008  -29.1166   21.1462 H   0  0  0  0  0  0
  -26.0339  -25.9593   19.0346 H   0  0  0  0  0  0
  -23.9792  -27.2807   19.0548 H   0  0  0  0  0  0
  -23.7171  -30.5926   19.4021 H   0  0  0  0  0  0
  -22.7348  -29.2381   19.8678 H   0  0  0  0  0  0
  -25.1286  -36.1984   25.0840 H   0  0  0  0  0  0
  -20.9934  -28.3247   24.1426 H   0  0  0  0  0  0
  -20.5690  -26.2284   23.3579 H   0  0  0  0  0  0
  -21.6636  -26.7472   22.1178 H   0  0  0  0  0  0
  -19.6918  -25.6296   21.1255 H   0  0  0  0  0  0
  -19.6705  -27.3185   20.6718 H   0  0  0  0  0  0
  -17.4180  -26.6670   21.4022 H   0  0  0  0  0  0
  -18.0341  -26.0076   22.9004 H   0  0  0  0  0  0
  -19.7936  -30.7260   24.2291 H   0  0  0  0  0  0
  -17.5033  -31.6291   24.5157 H   0  0  0  0  0  0
  -15.5365  -30.3036   23.7650 H   0  0  0  0  0  0
  -15.8649  -28.0895   22.7014 H   0  0  0  0  0  0
  -24.5897  -30.7056   25.7783 H   0  0  0  0  0  0
  -24.8905  -32.2828   26.4957 H   0  0  0  0  0  0
  -25.8061  -30.8821   27.0207 H   0  0  0  0  0  0
  -26.2887  -29.6813   24.1199 H   0  0  0  0  0  0
  -27.4226  -29.7378   25.4526 H   0  0  0  0  0  0
  -27.8649  -30.4484   23.9168 H   0  0  0  0  0  0
  -27.2639  -33.3689   26.2042 H   0  0  0  0  0  0
  -28.3823  -32.6922   25.0312 H   0  0  0  0  0  0
  -28.0690  -31.8528   26.5425 H   0  0  0  0  0  0
  -28.2572  -38.0120   24.7549 H   0  0  0  0  0  0
  -28.1101  -36.2658   24.6275 H   0  0  0  0  0  0
  -27.2303  -37.1426   25.8872 H   0  0  0  0  0  0
  -20.9299  -29.8785   21.6940 H   0  0  0  0  0  0
  -26.0191  -38.2881   24.1398 H   0  0  0  0  0  0
  -28.0030  -18.3133   22.3123 H   0  0  0  0  0  0
  -28.1601  -20.7595   22.0813 H   0  0  0  0  0  0
  -30.5938  -20.2513   18.5516 H   0  0  0  0  0  0
  -31.5800  -22.0183   19.8776 H   0  0  0  0  0  0
  -30.9489  -23.6410   20.0470 H   0  0  0  0  0  0
  -30.6584  -22.7443   18.5515 H   0  0  0  0  0  0
  -30.3841  -16.7939   22.9544 H   0  0  0  0  0  0
  -31.6401  -16.9702   21.7213 H   0  0  0  0  0  0
  -31.6335  -15.5697   22.7924 H   0  0  0  0  0  0
  -28.8041  -15.9820   19.7015 H   0  0  0  0  0  0
  -28.1550  -16.1316   21.3072 H   0  0  0  0  0  0
  -28.7737  -24.3790   21.4342 H   0  0  0  0  0  0
  -27.1504  -24.4965   20.8359 H   0  0  0  0  0  0
  -28.0489  -22.8964   18.8680 H   0  0  0  0  0  0
  -27.4007  -22.3017   20.3635 H   0  0  0  0  0  0
  -28.0383  -25.3545   18.5876 H   0  0  0  0  0  0
  -29.6209  -25.3221   19.2725 H   0  0  0  0  0  0
  1 25  1  0  0  0
  1 30  2  0  0  0
  1 84  1  0  0  0
  2  3  1  0  0  0
  2 25  1  0  0  0
  2 86  1  0  0  0
  2 87  1  0  0  0
  3  4  1  0  0  0
  3 88  1  0  0  0
  3 89  1  0  0  0
  4  5  1  0  0  0
  4 90  1  0  0  0
  4 91  1  0  0  0
  5  6  1  0  0  0
  5 26  1  0  0  0
  5 92  1  0  0  0
  6 25  1  0  0  0
  6 93  1  0  0  0
  6 94  1  0  0  0
  7  8  2  0  0  0
  7 26  1  0  0  0
  7 29  1  0  0  0
  8  9  1  0  0  0
  8 22  1  0  0  0
  9 10  1  0  0  0
  9 27  2  0  0  0
 10 11  2  0  0  0
 10 15  1  0  0  0
 11 12  1  0  0  0
 11 95  1  0  0  0
 12 13  2  0  0  0
 12 96  1  0  0  0
 13 14  1  0  0  0
 13 31  1  0  0  0
 14 15  2  0  0  0
 14 97  1  0  0  0
 15 98  1  0  0  0
 16 17  2  0  0  0
 16 21  1  0  0  0
 16 31  1  0  0  0
 17 18  1  0  0  0
 17 99  1  0  0  0
 18 19  2  0  0  0
 18100  1  0  0  0
 19 20  1  0  0  0
 19 24  1  0  0  0
 20 21  2  0  0  0
 20101  1  0  0  0
 21 23  1  0  0  0
 22 28  1  0  0  0
 22 32  2  0  0  0
 26 27  1  0  0  0
 28102  1  0  0  0
 28103  1  0  0  0
 29104  1  0  0  0
 29105  1  0  0  0
 33 34  1  0  0  0
 33 66  1  0  0  0
 33 70  2  0  0  0
 34 36  1  0  0  0
 34 59  1  0  0  0
 34106  1  0  0  0
 35 44  2  0  0  0
 35 45  1  0  0  0
 35 68  1  0  0  0
 36 56  1  0  0  0
 36107  1  0  0  0
 37 39  1  0  0  0
 37 47  1  0  0  0
 37 66  1  0  0  0
 37108  1  0  0  0
 38 43  2  0  0  0
 38 46  1  0  0  0
 38 47  1  0  0  0
 39 64  1  0  0  0
 39 67  2  0  0  0
 40 52  1  0  0  0
 40 53  2  0  0  0
 40 58  1  0  0  0
 41109  1  0  0  0
 41110  1  0  0  0
 41111  1  0  0  0
 41 48  1  0  0  0
 42 43  1  0  0  0
 42 66  1  0  0  0
 42112  1  0  0  0
 42113  1  0  0  0
 43 44  1  0  0  0
 44114  1  0  0  0
 45 46  2  0  0  0
 45115  1  0  0  0
 46116  1  0  0  0
 47117  1  0  0  0
 47118  1  0  0  0
 48 56  1  0  0  0
 48 65  1  0  0  0
 48119  1  0  0  0
 49 50  1  0  0  0
 49 53  1  0  0  0
 49 64  1  0  0  0
 49120  1  0  0  0
 50 51  1  0  0  0
 50121  1  0  0  0
 50122  1  0  0  0
 51 52  1  0  0  0
 51123  1  0  0  0
 51124  1  0  0  0
 52125  1  0  0  0
 52126  1  0  0  0
 53 54  1  0  0  0
 54 55  2  0  0  0
 54127  1  0  0  0
 55 57  1  0  0  0
 55128  1  0  0  0
 56 69  2  0  0  0
 57 58  2  0  0  0
 57129  1  0  0  0
 58130  1  0  0  0
 59 60  1  0  0  0
 59 61  1  0  0  0
 59 62  1  0  0  0
 60131  1  0  0  0
 60132  1  0  0  0
 60133  1  0  0  0
 61134  1  0  0  0
 61135  1  0  0  0
 61136  1  0  0  0
 62137  1  0  0  0
 62138  1  0  0  0
 62139  1  0  0  0
 63 65  1  0  0  0
 63140  1  0  0  0
 63141  1  0  0  0
 63142  1  0  0  0
 64143  1  0  0  0
 65144  1  0  0  0
 68 82  1  0  0  0
 71 72  2  0  0  0
 71 74  1  0  0  0
 71145  1  0  0  0
 72 75  1  0  0  0
 72146  1  0  0  0
 73 75  2  0  0  0
 73 76  1  0  0  0
 73147  1  0  0  0
 74 76  2  0  0  0
 74 79  1  0  0  0
 75 83  1  0  0  0
 76 85  1  0  0  0
 77 83  1  0  0  0
 77148  1  0  0  0
 77149  1  0  0  0
 77150  1  0  0  0
 78 84  1  0  0  0
 78151  1  0  0  0
 78152  1  0  0  0
 78153  1  0  0  0
 79 84  1  0  0  0
 79154  1  0  0  0
 79155  1  0  0  0
 80 81  1  0  0  0
 80 82  1  0  0  0
 80156  1  0  0  0
 80157  1  0  0  0
 81 83  1  0  0  0
 81158  1  0  0  0
 81159  1  0  0  0
 82160  1  0  0  0
 82161  1  0  0  0
M  ISO  4   1 100  68 101  82 101  84 100
M  END
> <chiral flag>
0

> <version>
0

> <s_m_source_file>
/data/baiqing/PycharmProjects/Reinvent-master-3.2/result/LINK_invent/BTK/process_docking_weight1_custom_product_contain_oxygen_bond_distance_aromatic_linkinvent_7_9_3/rearranged_h_0015.sdf

> <i_m_source_file_index>
64

> <r_mmod_Potential_Energy-OPLS-2005>
107.136627197266

> <r_mmod_Stretch_Energy-OPLS-2005>
43.2660903930664

> <r_mmod_Bend_Energy-OPLS-2005>
115.853378295898

> <r_mmod_Torsional_Energy-OPLS-2005>
276.871032714844

> <r_mmod_Improper_Torsional_Energy-OPLS-2005>
6.44950103759766

> <r_mmod_Van_der_Waal_Energy-OPLS-2005>
152.133361816406

> <r_mmod_Electrostatic_Energy-OPLS-2005>
-292.133270263672

> <r_mmod_Solvation_Energy-OPLS-2005>
-212.917846679688

> <b_mmod_Minimization_Converged-OPLS-2005>
0

> <r_mmod_RMS_Derivative-OPLS-2005>
2.00334787368774

$$$$
64
                    3D
 Structure written by MMmdl.
177186  0  0  1  0            999 V2000
  -30.7572  -14.3665   20.6776 C   0  0  0  0  0  0
  -30.4162  -12.2874   19.3914 C   0  0  0  0  0  0
  -29.4833  -12.5322   18.1901 C   0  0  0  0  0  0
  -28.0067  -12.3836   18.6053 C   0  0  0  0  0  0
  -27.6675  -13.1987   19.8827 C   0  0  2  0  0  0
  -28.7098  -12.9295   20.9926 C   0  0  0  0  0  0
  -25.2605  -13.8126   20.5657 C   0  0  0  0  0  0
  -24.1842  -13.0421   20.9165 C   0  0  0  0  0  0
  -24.6388  -11.6885   20.8732 C   0  0  0  0  0  0
  -23.9041  -10.4285   21.0402 C   0  0  0  0  0  0
  -24.3616   -9.4209   21.9182 C   0  0  0  0  0  0
  -23.6301   -8.2247   22.0742 C   0  0  0  0  0  0
  -22.4288   -8.0286   21.3538 C   0  0  0  0  0  0
  -21.9914   -9.0250   20.4642 C   0  0  0  0  0  0
  -22.7220  -10.2128   20.3053 C   0  0  0  0  0  0
  -21.6843   -6.0755   22.5294 C   0  0  0  0  0  0
  -21.4019   -6.5656   23.8218 C   0  0  0  0  0  0
  -21.3660   -5.6795   24.9181 C   0  0  0  0  0  0
  -21.6048   -4.3062   24.7225 C   0  0  0  0  0  0
  -21.8815   -3.8166   23.4336 C   0  0  0  0  0  0
  -21.9197   -4.6997   22.3404 C   0  0  0  0  0  0
  -22.7883  -13.5251   21.1841 C   0  0  0  0  0  0
  -22.1648   -4.2180   21.0985 F   0  0  0  0  0  0
  -21.5644   -3.4536   25.7736 F   0  0  0  0  0  0
  -30.0481  -13.2304   20.4552 N   0  0  0  0  0  0
  -26.3059  -12.9292   20.3395 N   0  0  0  0  0  0
  -25.9325  -11.6463   20.5823 N   0  0  0  0  0  0
  -22.0530  -12.8242   22.0401 N   0  0  0  0  0  0
  -25.4327  -15.1823   20.4053 N   0  0  0  0  0  0
  -31.8037  -14.6392   20.0777 O   0  0  0  0  0  0
  -21.6649   -6.8886   21.4246 O   0  0  0  0  0  0
  -22.3573  -14.5581   20.6701 O   0  0  0  0  0  0
  -24.6111  -31.8683   23.2123 C   0  0  0  0  0  0
  -25.9013  -32.4831   23.8433 C   0  0  1  0  0  0
  -27.2395  -27.4851   20.0734 C   0  0  0  0  0  0
  -25.5869  -33.8631   24.2380 N   0  0  0  0  0  0
  -23.3981  -30.4897   21.5541 C   0  0  2  0  0  0
  -24.8465  -28.9649   20.1188 C   0  0  0  0  0  0
  -22.7399  -29.4652   22.5027 C   0  0  0  0  0  0
  -18.0267  -28.1386   22.8536 C   0  0  0  0  0  0
  -24.1489  -36.7312   23.2646 C   0  0  0  0  0  0
  -25.9212  -30.8531   21.3580 C   0  0  0  0  0  0
  -26.0022  -29.4918   20.7037 C   0  0  0  0  0  0
  -27.2074  -28.7607   20.6734 C   0  0  0  0  0  0
  -26.0680  -26.9581   19.4912 C   0  0  0  0  0  0
  -24.8711  -27.6982   19.5083 C   0  0  0  0  0  0
  -23.6028  -29.8190   20.1699 C   0  0  0  0  0  0
  -25.4102  -36.3123   24.0353 C   0  0  1  0  0  0
  -20.5867  -28.3627   23.1371 C   0  0  2  0  0  0
  -20.6766  -26.9362   22.5461 C   0  0  0  0  0  0
  -19.5747  -26.6401   21.5261 C   0  0  0  0  0  0
  -18.1921  -26.7959   22.1630 C   0  0  0  0  0  0
  -19.1524  -28.8823   23.2967 C   0  0  0  0  0  0
  -18.9439  -30.1449   23.8955 C   0  0  0  0  0  0
  -17.6435  -30.6593   24.0581 C   0  0  0  0  0  0
  -25.9016  -34.9484   23.5159 C   0  0  0  0  0  0
  -16.5332  -29.9094   23.6337 C   0  0  0  0  0  0
  -16.7257  -28.6514   23.0360 C   0  0  0  0  0  0
  -26.4467  -31.6565   25.0719 C   0  0  0  0  0  0
  -25.3731  -31.3661   26.1457 C   0  0  0  0  0  0
  -27.0328  -30.3033   24.6053 C   0  0  0  0  0  0
  -27.6054  -32.4286   25.7448 C   0  0  0  0  0  0
  -27.5585  -37.1780   24.8457 C   0  0  0  0  0  0
  -21.4135  -29.3002   22.3765 N   0  0  0  0  0  0
  -26.4300  -37.3778   23.9409 N   0  0  0  0  0  0
  -24.6625  -31.0830   22.1018 N   0  0  0  0  0  0
  -23.4192  -28.8196   23.3059 O   0  0  0  0  0  0
  -28.4008  -26.7572   20.0723 O   0  0  0  0  0  0
  -26.5575  -34.8906   22.4716 O   0  0  0  0  0  0
  -23.5304  -32.1385   23.7518 O   0  0  0  0  0  0
  -29.2782  -21.8628   24.8080 C   0  0  0  0  0  0
  -30.9890  -23.5606   24.4817 C   0  0  0  0  0  0
  -30.0179  -20.9666   24.0165 C   0  0  0  0  0  0
  -31.7196  -22.6661   23.6758 C   0  0  0  0  0  0
  -32.2520  -18.1097   22.7586 C   0  0  0  0  0  0
  -31.8443  -16.7807   22.5347 C   0  0  0  0  0  0
  -30.3158  -18.9072   21.5011 C   0  0  0  0  0  0
  -29.7421  -23.1775   25.0135 C   0  0  0  0  0  0
  -31.2217  -21.3704   23.3931 C   0  0  0  0  0  0
  -31.4857  -19.1754   22.2476 C   0  0  0  0  0  0
  -30.6676  -16.5136   21.8017 C   0  0  0  0  0  0
  -29.8943  -17.5804   21.2918 C   0  0  0  0  0  0
  -27.4618  -26.2128   25.4384 C   0  0  0  0  0  0
  -28.8369  -24.1992   25.6934 C   0  0  0  0  0  0
  -28.5151  -26.0530   22.4027 C   0  0  0  0  0  0
  -32.6044  -21.0933   21.3701 C   0  0  0  0  0  0
  -28.0806  -24.9637   23.4008 C   0  0  0  0  0  0
  -28.3579  -25.6222   20.9340 C   0  0  0  0  0  0
  -34.1314  -20.9897   21.5212 C   0  0  0  0  0  0
  -30.2476  -15.1812   21.6045 N   0  0  0  0  0  0
  -31.8831  -20.4964   22.5025 N   0  0  0  0  0  0
  -28.4650  -25.3294   24.7975 N   0  3  1  0  0  0
  -28.4367  -17.2768   20.4091 Cl  0  0  0  0  0  0
  -34.9338  -21.6571   20.0761 Cl  0  0  0  0  0  0
  -31.4589  -12.3884   19.0871 H   0  0  0  0  0  0
  -30.3157  -11.2629   19.7552 H   0  0  0  0  0  0
  -29.7186  -11.8355   17.3867 H   0  0  0  0  0  0
  -29.6515  -13.5343   17.7914 H   0  0  0  0  0  0
  -27.8194  -11.3252   18.7857 H   0  0  0  0  0  0
  -27.3493  -12.6711   17.7832 H   0  0  0  0  0  0
  -27.7254  -14.2550   19.6199 H   0  0  0  0  0  0
  -28.6812  -11.8803   21.2887 H   0  0  0  0  0  0
  -28.4637  -13.4834   21.8985 H   0  0  0  0  0  0
  -25.2763   -9.5731   22.4753 H   0  0  0  0  0  0
  -24.0039   -7.4652   22.7453 H   0  0  0  0  0  0
  -21.0854   -8.8749   19.8951 H   0  0  0  0  0  0
  -22.3651  -10.9676   19.6183 H   0  0  0  0  0  0
  -21.1986   -7.6159   23.9744 H   0  0  0  0  0  0
  -21.1488   -6.0521   25.9082 H   0  0  0  0  0  0
  -22.0593   -2.7642   23.2833 H   0  0  0  0  0  0
  -22.4136  -11.9873   22.4770 H   0  0  0  0  0  0
  -21.1154  -13.1282   22.2605 H   0  0  0  0  0  0
  -24.6725  -15.8387   20.5452 H   0  0  0  0  0  0
  -26.3042  -15.6329   20.1516 H   0  0  0  0  0  0
  -26.7058  -32.5577   23.1180 H   0  0  0  0  0  0
  -24.9992  -33.9817   25.0510 H   0  0  0  0  0  0
  -22.6881  -31.3051   21.4134 H   0  0  0  0  0  0
  -23.3779  -35.9615   23.3317 H   0  0  0  0  0  0
  -24.3596  -36.8926   22.2063 H   0  0  0  0  0  0
  -23.7209  -37.6507   23.6644 H   0  0  0  0  0  0
  -26.0173  -31.6212   20.5909 H   0  0  0  0  0  0
  -26.8170  -30.9128   21.9664 H   0  0  0  0  0  0
  -28.1067  -29.1685   21.1124 H   0  0  0  0  0  0
  -26.0835  -25.9837   19.0247 H   0  0  0  0  0  0
  -23.9769  -27.2947   19.0530 H   0  0  0  0  0  0
  -23.6936  -30.5929   19.4076 H   0  0  0  0  0  0
  -22.7353  -29.2236   19.8815 H   0  0  0  0  0  0
  -25.1279  -36.1994   25.0844 H   0  0  0  0  0  0
  -20.9933  -28.3169   24.1503 H   0  0  0  0  0  0
  -20.5728  -26.2206   23.3637 H   0  0  0  0  0  0
  -21.6616  -26.7440   22.1207 H   0  0  0  0  0  0
  -19.6889  -25.6344   21.1243 H   0  0  0  0  0  0
  -19.6718  -27.3248   20.6848 H   0  0  0  0  0  0
  -17.4211  -26.6787   21.4010 H   0  0  0  0  0  0
  -18.0248  -26.0098   22.8998 H   0  0  0  0  0  0
  -19.7900  -30.7271   24.2355 H   0  0  0  0  0  0
  -17.4966  -31.6276   24.5150 H   0  0  0  0  0  0
  -15.5334  -30.2971   23.7664 H   0  0  0  0  0  0
  -15.8678  -28.0834   22.7040 H   0  0  0  0  0  0
  -24.5899  -30.7037   25.7740 H   0  0  0  0  0  0
  -24.8940  -32.2843   26.4871 H   0  0  0  0  0  0
  -25.8045  -30.8800   27.0221 H   0  0  0  0  0  0
  -26.2861  -29.6753   24.1193 H   0  0  0  0  0  0
  -27.4242  -29.7303   25.4468 H   0  0  0  0  0  0
  -27.8623  -30.4422   23.9121 H   0  0  0  0  0  0
  -27.2721  -33.3567   26.2111 H   0  0  0  0  0  0
  -28.3787  -32.6882   25.0204 H   0  0  0  0  0  0
  -28.0816  -31.8369   26.5279 H   0  0  0  0  0  0
  -28.2568  -38.0107   24.7524 H   0  0  0  0  0  0
  -28.1124  -36.2639   24.6255 H   0  0  0  0  0  0
  -27.2322  -37.1369   25.8864 H   0  0  0  0  0  0
  -20.9268  -29.8688   21.6965 H   0  0  0  0  0  0
  -26.0221  -38.2856   24.1427 H   0  0  0  0  0  0
  -28.3294  -21.5436   25.2161 H   0  0  0  0  0  0
  -31.3710  -24.5623   24.6328 H   0  0  0  0  0  0
  -29.6072  -19.9787   23.8633 H   0  0  0  0  0  0
  -32.6512  -23.0081   23.2529 H   0  0  0  0  0  0
  -33.1438  -18.3051   23.3384 H   0  0  0  0  0  0
  -32.4335  -15.9688   22.9356 H   0  0  0  0  0  0
  -29.7181  -19.7199   21.1129 H   0  0  0  0  0  0
  -27.8241  -26.5974   26.3926 H   0  0  0  0  0  0
  -26.5317  -25.6716   25.6201 H   0  0  0  0  0  0
  -27.2359  -27.0704   24.8070 H   0  0  0  0  0  0
  -29.3308  -24.5928   26.5844 H   0  0  0  0  0  0
  -27.9322  -23.6966   26.0383 H   0  0  0  0  0  0
  -29.5624  -26.3129   22.5606 H   0  0  0  0  0  0
  -27.9436  -26.9605   22.5971 H   0  0  0  0  0  0
  -32.3096  -20.5970   20.4416 H   0  0  0  0  0  0
  -32.3159  -22.1341   21.2251 H   0  0  0  0  0  0
  -28.5312  -24.0333   23.0596 H   0  0  0  0  0  0
  -27.0052  -24.7861   23.3400 H   0  0  0  0  0  0
  -27.4431  -25.0461   20.7970 H   0  0  0  0  0  0
  -29.1760  -24.9553   20.6642 H   0  0  0  0  0  0
  -34.4547  -19.9553   21.6315 H   0  0  0  0  0  0
  -34.5010  -21.5404   22.3861 H   0  0  0  0  0  0
  -29.3481  -14.9180   21.9823 H   0  0  0  0  0  0
  -29.3112  -25.8729   24.7107 H   0  0  0  0  0  0
  1 25  1  0  0  0
  1 30  2  0  0  0
  1 90  1  0  0  0
  2  3  1  0  0  0
  2 25  1  0  0  0
  2 95  1  0  0  0
  2 96  1  0  0  0
  3  4  1  0  0  0
  3 97  1  0  0  0
  3 98  1  0  0  0
  4  5  1  0  0  0
  4 99  1  0  0  0
  4100  1  0  0  0
  5  6  1  0  0  0
  5 26  1  0  0  0
  5101  1  0  0  0
  6 25  1  0  0  0
  6102  1  0  0  0
  6103  1  0  0  0
  7  8  2  0  0  0
  7 26  1  0  0  0
  7 29  1  0  0  0
  8  9  1  0  0  0
  8 22  1  0  0  0
  9 10  1  0  0  0
  9 27  2  0  0  0
 10 11  2  0  0  0
 10 15  1  0  0  0
 11 12  1  0  0  0
 11104  1  0  0  0
 12 13  2  0  0  0
 12105  1  0  0  0
 13 14  1  0  0  0
 13 31  1  0  0  0
 14 15  2  0  0  0
 14106  1  0  0  0
 15107  1  0  0  0
 16 17  2  0  0  0
 16 21  1  0  0  0
 16 31  1  0  0  0
 17 18  1  0  0  0
 17108  1  0  0  0
 18 19  2  0  0  0
 18109  1  0  0  0
 19 20  1  0  0  0
 19 24  1  0  0  0
 20 21  2  0  0  0
 20110  1  0  0  0
 21 23  1  0  0  0
 22 28  1  0  0  0
 22 32  2  0  0  0
 26 27  1  0  0  0
 28111  1  0  0  0
 28112  1  0  0  0
 29113  1  0  0  0
 29114  1  0  0  0
 33 34  1  0  0  0
 33 66  1  0  0  0
 33 70  2  0  0  0
 34 36  1  0  0  0
 34 59  1  0  0  0
 34115  1  0  0  0
 35 44  2  0  0  0
 35 45  1  0  0  0
 35 68  1  0  0  0
 36 56  1  0  0  0
 36116  1  0  0  0
 37 39  1  0  0  0
 37 47  1  0  0  0
 37 66  1  0  0  0
 37117  1  0  0  0
 38 43  2  0  0  0
 38 46  1  0  0  0
 38 47  1  0  0  0
 39 64  1  0  0  0
 39 67  2  0  0  0
 40 52  1  0  0  0
 40 53  2  0  0  0
 40 58  1  0  0  0
 41118  1  0  0  0
 41119  1  0  0  0
 41120  1  0  0  0
 41 48  1  0  0  0
 42 43  1  0  0  0
 42 66  1  0  0  0
 42121  1  0  0  0
 42122  1  0  0  0
 43 44  1  0  0  0
 44123  1  0  0  0
 45 46  2  0  0  0
 45124  1  0  0  0
 46125  1  0  0  0
 47126  1  0  0  0
 47127  1  0  0  0
 48 56  1  0  0  0
 48 65  1  0  0  0
 48128  1  0  0  0
 49 50  1  0  0  0
 49 53  1  0  0  0
 49 64  1  0  0  0
 49129  1  0  0  0
 50 51  1  0  0  0
 50130  1  0  0  0
 50131  1  0  0  0
 51 52  1  0  0  0
 51132  1  0  0  0
 51133  1  0  0  0
 52134  1  0  0  0
 52135  1  0  0  0
 53 54  1  0  0  0
 54 55  2  0  0  0
 54136  1  0  0  0
 55 57  1  0  0  0
 55137  1  0  0  0
 56 69  2  0  0  0
 57 58  2  0  0  0
 57138  1  0  0  0
 58139  1  0  0  0
 59 60  1  0  0  0
 59 61  1  0  0  0
 59 62  1  0  0  0
 60140  1  0  0  0
 60141  1  0  0  0
 60142  1  0  0  0
 61143  1  0  0  0
 61144  1  0  0  0
 61145  1  0  0  0
 62146  1  0  0  0
 62147  1  0  0  0
 62148  1  0  0  0
 63 65  1  0  0  0
 63149  1  0  0  0
 63150  1  0  0  0
 63151  1  0  0  0
 64152  1  0  0  0
 65153  1  0  0  0
 68 88  1  0  0  0
 71 73  2  0  0  0
 71 78  1  0  0  0
 71154  1  0  0  0
 72 74  1  0  0  0
 72 78  2  0  0  0
 72155  1  0  0  0
 73 79  1  0  0  0
 73156  1  0  0  0
 74 79  2  0  0  0
 74157  1  0  0  0
 75 76  2  0  0  0
 75 80  1  0  0  0
 75158  1  0  0  0
 76 81  1  0  0  0
 76159  1  0  0  0
 77 80  2  0  0  0
 77 82  1  0  0  0
 77160  1  0  0  0
 78 84  1  0  0  0
 79 91  1  0  0  0
 80 91  1  0  0  0
 81 82  2  0  0  0
 81 90  1  0  0  0
 82 93  1  0  0  0
 83161  1  0  0  0
 83162  1  0  0  0
 83163  1  0  0  0
 83 92  1  0  0  0
 84 92  1  0  0  0
 84164  1  0  0  0
 84165  1  0  0  0
 85 87  1  0  0  0
 85 88  1  0  0  0
 85166  1  0  0  0
 85167  1  0  0  0
 86 89  1  0  0  0
 86 91  1  0  0  0
 86168  1  0  0  0
 86169  1  0  0  0
 87 92  1  0  0  0
 87170  1  0  0  0
 87171  1  0  0  0
 88172  1  0  0  0
 88173  1  0  0  0
 89 94  1  0  0  0
 89174  1  0  0  0
 89175  1  0  0  0
 90176  1  0  0  0
 92177  1  0  0  0
M  CHG  1  92   1
M  ISO  4   1 100  68 101  88 101  90 100
M  END
> <chiral flag>
0

> <version>
0

> <s_m_source_file>
/data/baiqing/PycharmProjects/Reinvent-master-3.2/result/LINK_invent/BTK/process_docking_weight1_custom_product_contain_oxygen_bond_distance_aromatic_linkinvent_7_9_3/rearranged_h_0015.sdf

> <i_m_source_file_index>
65

> <r_mmod_Potential_Energy-OPLS-2005>
-210.637573242188

> <r_mmod_Stretch_Energy-OPLS-2005>
34.8483352661133

> <r_mmod_Bend_Energy-OPLS-2005>
92.1732711791992

> <r_mmod_Torsional_Energy-OPLS-2005>
277.673675537109

> <r_mmod_Improper_Torsional_Energy-OPLS-2005>
4.79176044464111

> <r_mmod_Van_der_Waal_Energy-OPLS-2005>
174.476470947266

> <r_mmod_Electrostatic_Energy-OPLS-2005>
-353.617584228516

> <r_mmod_Solvation_Energy-OPLS-2005>
-447.838287353516

> <b_mmod_Minimization_Converged-OPLS-2005>
0

> <r_mmod_RMS_Derivative-OPLS-2005>
4.79150629043579

$$$$
65
                    3D
 Structure written by MMmdl.
152160  0  0  1  0            999 V2000
  -30.5005  -15.0408   20.4009 C   0  0  0  0  0  0
  -30.4441  -12.6448   19.5263 C   0  0  0  0  0  0
  -29.5291  -12.5289   18.2822 C   0  0  0  0  0  0
  -28.0709  -12.2966   18.7075 C   0  0  0  0  0  0
  -27.6314  -13.2518   19.8463 C   0  0  2  0  0  0
  -28.6665  -13.3173   20.9907 C   0  0  0  0  0  0
  -25.2492  -13.8225   20.5765 C   0  0  0  0  0  0
  -24.1797  -13.0452   20.9246 C   0  0  0  0  0  0
  -24.6406  -11.6934   20.8780 C   0  0  0  0  0  0
  -23.9091  -10.4309   21.0414 C   0  0  0  0  0  0
  -24.3634   -9.4225   21.9187 C   0  0  0  0  0  0
  -23.6307   -8.2265   22.0752 C   0  0  0  0  0  0
  -22.4290   -8.0307   21.3535 C   0  0  0  0  0  0
  -21.9929   -9.0289   20.4644 C   0  0  0  0  0  0
  -22.7266  -10.2158   20.3065 C   0  0  0  0  0  0
  -21.6859   -6.0753   22.5274 C   0  0  0  0  0  0
  -21.4004   -6.5644   23.8211 C   0  0  0  0  0  0
  -21.3651   -5.6791   24.9169 C   0  0  0  0  0  0
  -21.6051   -4.3056   24.7217 C   0  0  0  0  0  0
  -21.8820   -3.8156   23.4333 C   0  0  0  0  0  0
  -21.9193   -4.6979   22.3391 C   0  0  0  0  0  0
  -22.7821  -13.5228   21.1884 C   0  0  0  0  0  0
  -22.1671   -4.2165   21.0970 F   0  0  0  0  0  0
  -21.5624   -3.4534   25.7728 F   0  0  0  0  0  0
  -29.9376  -13.7545   20.3991 N   0  0  0  0  0  0
  -26.2907  -12.9459   20.3296 N   0  0  0  0  0  0
  -25.9337  -11.6583   20.5759 N   0  0  0  0  0  0
  -22.0467  -12.8220   22.0436 N   0  0  0  0  0  0
  -25.4192  -15.1962   20.4231 N   0  0  0  0  0  0
  -31.6837  -15.1045   20.0455 O   0  0  0  0  0  0
  -21.6645   -6.8906   21.4239 O   0  0  0  0  0  0
  -22.3521  -14.5550   20.6748 O   0  0  0  0  0  0
  -24.6445  -31.8344   23.1773 C   0  0  0  0  0  0
  -25.9192  -32.4639   23.8202 C   0  0  1  0  0  0
  -27.2259  -27.0656   20.1737 C   0  0  0  0  0  0
  -25.5894  -33.8444   24.2101 N   0  0  0  0  0  0
  -23.4545  -30.4449   21.5225 C   0  0  2  0  0  0
  -24.9117  -28.8535   20.1034 C   0  0  0  0  0  0
  -22.7594  -29.4470   22.4828 C   0  0  0  0  0  0
  -18.0291  -28.1385   22.8481 C   0  0  0  0  0  0
  -24.1486  -36.7247   23.2646 C   0  0  0  0  0  0
  -26.0112  -30.6867   21.3881 C   0  0  0  0  0  0
  -26.0841  -29.2886   20.7318 C   0  0  0  0  0  0
  -27.2342  -28.4078   20.7513 C   0  0  0  0  0  0
  -26.0338  -26.7451   19.4898 C   0  0  0  0  0  0
  -24.9037  -27.6010   19.4630 C   0  0  0  0  0  0
  -23.6871  -29.7591   20.1472 C   0  0  0  0  0  0
  -25.4115  -36.2994   24.0302 C   0  0  1  0  0  0
  -20.5909  -28.3704   23.1238 C   0  0  2  0  0  0
  -20.6781  -26.9397   22.5416 C   0  0  0  0  0  0
  -19.5753  -26.6369   21.5219 C   0  0  0  0  0  0
  -18.1929  -26.7929   22.1619 C   0  0  0  0  0  0
  -19.1555  -28.8862   23.2843 C   0  0  0  0  0  0
  -18.9483  -30.1462   23.8868 C   0  0  0  0  0  0
  -17.6482  -30.6601   24.0548 C   0  0  0  0  0  0
  -25.9073  -34.9370   23.5039 C   0  0  0  0  0  0
  -16.5369  -29.9089   23.6344 C   0  0  0  0  0  0
  -16.7273  -28.6496   23.0368 C   0  0  0  0  0  0
  -26.4490  -31.6551   25.0687 C   0  0  0  0  0  0
  -25.3652  -31.3777   26.1380 C   0  0  0  0  0  0
  -27.0376  -30.2917   24.6354 C   0  0  0  0  0  0
  -27.5980  -32.4374   25.7481 C   0  0  0  0  0  0
  -27.5577  -37.1750   24.8444 C   0  0  0  0  0  0
  -21.4277  -29.3016   22.3608 N   0  0  0  0  0  0
  -26.4270  -37.3720   23.9415 N   0  0  0  0  0  0
  -24.7231  -31.0124   22.0843 N   0  0  0  0  0  0
  -23.4224  -28.8047   23.3014 O   0  0  0  0  0  0
  -28.2789  -26.0763   20.3470 O   0  0  0  0  0  0
  -26.5709  -34.8886   22.4655 O   0  0  0  0  0  0
  -23.5556  -32.1245   23.6948 O   0  0  0  0  0  0
  -29.5675  -19.0356   18.0683 C   0  0  0  0  0  0
  -29.7832  -17.8088   18.7438 C   0  0  0  0  0  0
  -29.2619  -20.2539   18.7262 C   0  0  0  0  0  0
  -29.3768  -19.0143   20.8024 C   0  0  0  0  0  0
  -29.6824  -17.6887   20.1453 C   0  0  0  0  0  0
  -29.1716  -20.3542   20.1287 C   0  0  0  0  0  0
  -29.5212  -21.8419   22.0465 C   0  0  0  0  0  0
  -28.0644  -22.9827   20.2825 C   0  0  0  0  0  0
  -28.4702  -24.5955   19.8039 C   0  0  0  0  0  0
  -29.7506  -16.2337   20.7134 N   0  0  0  0  0  0
  -28.9950  -21.7500   20.6882 N   0  0  0  0  0  0
  -31.4743  -12.8139   19.2080 H   0  0  0  0  0  0
  -30.4633  -11.7032   20.0779 H   0  0  0  0  0  0
  -29.8641  -11.7091   17.6455 H   0  0  0  0  0  0
  -29.6020  -13.4366   17.6810 H   0  0  0  0  0  0
  -27.9970  -11.2642   19.0526 H   0  0  0  0  0  0
  -27.3995  -12.3762   17.8511 H   0  0  0  0  0  0
  -27.5873  -14.2438   19.3960 H   0  0  0  0  0  0
  -28.7722  -12.3503   21.4855 H   0  0  0  0  0  0
  -28.3431  -14.0199   21.7612 H   0  0  0  0  0  0
  -25.2761   -9.5698   22.4783 H   0  0  0  0  0  0
  -24.0003   -7.4649   22.7473 H   0  0  0  0  0  0
  -21.0857   -8.8837   19.8951 H   0  0  0  0  0  0
  -22.3732  -10.9720   19.6198 H   0  0  0  0  0  0
  -21.1995   -7.6154   23.9719 H   0  0  0  0  0  0
  -21.1463   -6.0517   25.9072 H   0  0  0  0  0  0
  -22.0604   -2.7622   23.2828 H   0  0  0  0  0  0
  -22.4070  -11.9866   22.4803 H   0  0  0  0  0  0
  -21.1091  -13.1253   22.2640 H   0  0  0  0  0  0
  -24.6539  -15.8503   20.5512 H   0  0  0  0  0  0
  -26.2684  -15.6390   20.0954 H   0  0  0  0  0  0
  -26.7269  -32.5212   23.0934 H   0  0  0  0  0  0
  -24.9879  -33.9540   25.0130 H   0  0  0  0  0  0
  -22.7581  -31.2696   21.3584 H   0  0  0  0  0  0
  -23.3749  -35.9576   23.3247 H   0  0  0  0  0  0
  -24.3566  -36.8972   22.2079 H   0  0  0  0  0  0
  -23.7247  -37.6406   23.6757 H   0  0  0  0  0  0
  -26.1705  -31.4392   20.6151 H   0  0  0  0  0  0
  -26.8796  -30.7414   22.0340 H   0  0  0  0  0  0
  -28.1224  -28.7291   21.2795 H   0  0  0  0  0  0
  -25.9425  -25.7767   19.0195 H   0  0  0  0  0  0
  -24.0062  -27.2653   18.9620 H   0  0  0  0  0  0
  -23.8150  -30.5268   19.3835 H   0  0  0  0  0  0
  -22.8040  -29.1962   19.8431 H   0  0  0  0  0  0
  -25.1303  -36.1799   25.0792 H   0  0  0  0  0  0
  -20.9970  -28.3321   24.1368 H   0  0  0  0  0  0
  -20.5680  -26.2316   23.3640 H   0  0  0  0  0  0
  -21.6656  -26.7426   22.1207 H   0  0  0  0  0  0
  -19.6920  -25.6272   21.1264 H   0  0  0  0  0  0
  -19.6700  -27.3185   20.6751 H   0  0  0  0  0  0
  -17.4201  -26.6670   21.4016 H   0  0  0  0  0  0
  -18.0301  -26.0080   22.9023 H   0  0  0  0  0  0
  -19.7972  -30.7254   24.2253 H   0  0  0  0  0  0
  -17.5048  -31.6283   24.5137 H   0  0  0  0  0  0
  -15.5363  -30.2968   23.7704 H   0  0  0  0  0  0
  -15.8676  -28.0808   22.7110 H   0  0  0  0  0  0
  -24.5789  -30.7197   25.7674 H   0  0  0  0  0  0
  -24.8897  -32.2986   26.4772 H   0  0  0  0  0  0
  -25.7902  -30.8932   27.0190 H   0  0  0  0  0  0
  -26.3030  -29.6592   24.1364 H   0  0  0  0  0  0
  -27.3918  -29.7272   25.4988 H   0  0  0  0  0  0
  -27.8964  -30.4071   23.9740 H   0  0  0  0  0  0
  -27.2526  -33.3705   26.1947 H   0  0  0  0  0  0
  -28.3838  -32.6909   25.0359 H   0  0  0  0  0  0
  -28.0597  -31.8594   26.5496 H   0  0  0  0  0  0
  -28.2509  -38.0119   24.7541 H   0  0  0  0  0  0
  -28.1152  -36.2641   24.6203 H   0  0  0  0  0  0
  -27.2295  -37.1314   25.8841 H   0  0  0  0  0  0
  -20.9505  -29.8718   21.6770 H   0  0  0  0  0  0
  -26.0119  -38.2768   24.1480 H   0  0  0  0  0  0
  -29.6409  -19.0409   16.9904 H   0  0  0  0  0  0
  -29.9872  -16.9305   18.1451 H   0  0  0  0  0  0
  -29.1436  -21.1442   18.1256 H   0  0  0  0  0  0
  -29.2965  -19.0016   21.8794 H   0  0  0  0  0  0
  -30.4305  -21.2506   22.1746 H   0  0  0  0  0  0
  -28.7849  -21.4907   22.7732 H   0  0  0  0  0  0
  -29.7715  -22.8735   22.2998 H   0  0  0  0  0  0
  -27.4816  -22.5853   19.4503 H   0  0  0  0  0  0
  -27.3209  -23.0778   21.0760 H   0  0  0  0  0  0
  -28.0621  -24.6694   18.7959 H   0  0  0  0  0  0
  -29.5439  -24.5527   19.6276 H   0  0  0  0  0  0
  -28.9494  -16.0101   21.2850 H   0  0  0  0  0  0
  1 25  1  0  0  0
  1 30  2  0  0  0
  1 80  1  0  0  0
  2  3  1  0  0  0
  2 25  1  0  0  0
  2 82  1  0  0  0
  2 83  1  0  0  0
  3  4  1  0  0  0
  3 84  1  0  0  0
  3 85  1  0  0  0
  4  5  1  0  0  0
  4 86  1  0  0  0
  4 87  1  0  0  0
  5  6  1  0  0  0
  5 26  1  0  0  0
  5 88  1  0  0  0
  6 25  1  0  0  0
  6 89  1  0  0  0
  6 90  1  0  0  0
  7  8  2  0  0  0
  7 26  1  0  0  0
  7 29  1  0  0  0
  8  9  1  0  0  0
  8 22  1  0  0  0
  9 10  1  0  0  0
  9 27  2  0  0  0
 10 11  2  0  0  0
 10 15  1  0  0  0
 11 12  1  0  0  0
 11 91  1  0  0  0
 12 13  2  0  0  0
 12 92  1  0  0  0
 13 14  1  0  0  0
 13 31  1  0  0  0
 14 15  2  0  0  0
 14 93  1  0  0  0
 15 94  1  0  0  0
 16 17  2  0  0  0
 16 21  1  0  0  0
 16 31  1  0  0  0
 17 18  1  0  0  0
 17 95  1  0  0  0
 18 19  2  0  0  0
 18 96  1  0  0  0
 19 20  1  0  0  0
 19 24  1  0  0  0
 20 21  2  0  0  0
 20 97  1  0  0  0
 21 23  1  0  0  0
 22 28  1  0  0  0
 22 32  2  0  0  0
 26 27  1  0  0  0
 28 98  1  0  0  0
 28 99  1  0  0  0
 29100  1  0  0  0
 29101  1  0  0  0
 33 34  1  0  0  0
 33 66  1  0  0  0
 33 70  2  0  0  0
 34 36  1  0  0  0
 34 59  1  0  0  0
 34102  1  0  0  0
 35 44  2  0  0  0
 35 45  1  0  0  0
 35 68  1  0  0  0
 36 56  1  0  0  0
 36103  1  0  0  0
 37 39  1  0  0  0
 37 47  1  0  0  0
 37 66  1  0  0  0
 37104  1  0  0  0
 38 43  2  0  0  0
 38 46  1  0  0  0
 38 47  1  0  0  0
 39 64  1  0  0  0
 39 67  2  0  0  0
 40 52  1  0  0  0
 40 53  2  0  0  0
 40 58  1  0  0  0
 41105  1  0  0  0
 41106  1  0  0  0
 41107  1  0  0  0
 41 48  1  0  0  0
 42 43  1  0  0  0
 42 66  1  0  0  0
 42108  1  0  0  0
 42109  1  0  0  0
 43 44  1  0  0  0
 44110  1  0  0  0
 45 46  2  0  0  0
 45111  1  0  0  0
 46112  1  0  0  0
 47113  1  0  0  0
 47114  1  0  0  0
 48 56  1  0  0  0
 48 65  1  0  0  0
 48115  1  0  0  0
 49 50  1  0  0  0
 49 53  1  0  0  0
 49 64  1  0  0  0
 49116  1  0  0  0
 50 51  1  0  0  0
 50117  1  0  0  0
 50118  1  0  0  0
 51 52  1  0  0  0
 51119  1  0  0  0
 51120  1  0  0  0
 52121  1  0  0  0
 52122  1  0  0  0
 53 54  1  0  0  0
 54 55  2  0  0  0
 54123  1  0  0  0
 55 57  1  0  0  0
 55124  1  0  0  0
 56 69  2  0  0  0
 57 58  2  0  0  0
 57125  1  0  0  0
 58126  1  0  0  0
 59 60  1  0  0  0
 59 61  1  0  0  0
 59 62  1  0  0  0
 60127  1  0  0  0
 60128  1  0  0  0
 60129  1  0  0  0
 61130  1  0  0  0
 61131  1  0  0  0
 61132  1  0  0  0
 62133  1  0  0  0
 62134  1  0  0  0
 62135  1  0  0  0
 63 65  1  0  0  0
 63136  1  0  0  0
 63137  1  0  0  0
 63138  1  0  0  0
 64139  1  0  0  0
 65140  1  0  0  0
 68 79  1  0  0  0
 71 72  2  0  0  0
 71 73  1  0  0  0
 71141  1  0  0  0
 72 75  1  0  0  0
 72142  1  0  0  0
 73 76  2  0  0  0
 73143  1  0  0  0
 74 75  2  0  0  0
 74 76  1  0  0  0
 74144  1  0  0  0
 75 80  1  0  0  0
 76 81  1  0  0  0
 77 81  1  0  0  0
 77145  1  0  0  0
 77146  1  0  0  0
 77147  1  0  0  0
 78 79  1  0  0  0
 78 81  1  0  0  0
 78148  1  0  0  0
 78149  1  0  0  0
 79150  1  0  0  0
 79151  1  0  0  0
 80152  1  0  0  0
M  ISO  4   1 100  68 101  79 101  80 100
M  END
> <chiral flag>
0

> <version>
0

> <s_m_source_file>
/data/baiqing/PycharmProjects/Reinvent-master-3.2/result/LINK_invent/BTK/process_docking_weight1_custom_product_contain_oxygen_bond_distance_aromatic_linkinvent_7_9_3/rearranged_h_0015.sdf

> <i_m_source_file_index>
66

> <r_mmod_Potential_Energy-OPLS-2005>
789.398132324219

> <r_mmod_Stretch_Energy-OPLS-2005>
340.565948486328

> <r_mmod_Bend_Energy-OPLS-2005>
369.432922363281

> <r_mmod_Torsional_Energy-OPLS-2005>
245.295288085938

> <r_mmod_Improper_Torsional_Energy-OPLS-2005>
4.84483671188354

> <r_mmod_Van_der_Waal_Energy-OPLS-2005>
124.150985717773

> <r_mmod_Electrostatic_Energy-OPLS-2005>
-326.690216064453

> <r_mmod_Solvation_Energy-OPLS-2005>
-232.560958862305

> <b_mmod_Minimization_Converged-OPLS-2005>
0

> <r_mmod_RMS_Derivative-OPLS-2005>
2.9001944065094

$$$$
66
                    3D
 Structure written by MMmdl.
176185  0  0  1  0            999 V2000
  -30.6992  -14.4970   20.5379 C   0  0  0  0  0  0
  -30.4119  -12.3259   19.4058 C   0  0  0  0  0  0
  -29.4818  -12.5110   18.1900 C   0  0  0  0  0  0
  -27.9991  -12.3800   18.5965 C   0  0  0  0  0  0
  -27.6484  -13.2019   19.8674 C   0  0  2  0  0  0
  -28.6973  -12.9554   20.9700 C   0  0  0  0  0  0
  -25.2515  -13.8154   20.5680 C   0  0  0  0  0  0
  -24.1777  -13.0415   20.9204 C   0  0  0  0  0  0
  -24.6332  -11.6886   20.8729 C   0  0  0  0  0  0
  -23.8997  -10.4279   21.0391 C   0  0  0  0  0  0
  -24.3571   -9.4207   21.9164 C   0  0  0  0  0  0
  -23.6292   -8.2216   22.0732 C   0  0  0  0  0  0
  -22.4289   -8.0263   21.3513 C   0  0  0  0  0  0
  -21.9878   -9.0216   20.4630 C   0  0  0  0  0  0
  -22.7164  -10.2116   20.3042 C   0  0  0  0  0  0
  -21.6847   -6.0750   22.5294 C   0  0  0  0  0  0
  -21.3995   -6.5636   23.8235 C   0  0  0  0  0  0
  -21.3639   -5.6786   24.9196 C   0  0  0  0  0  0
  -21.6051   -4.3047   24.7243 C   0  0  0  0  0  0
  -21.8806   -3.8156   23.4351 C   0  0  0  0  0  0
  -21.9177   -4.6976   22.3422 C   0  0  0  0  0  0
  -22.7807  -13.5219   21.1869 C   0  0  0  0  0  0
  -22.1641   -4.2171   21.0991 F   0  0  0  0  0  0
  -21.5648   -3.4512   25.7737 F   0  0  0  0  0  0
  -30.0040  -13.3268   20.4092 N   0  0  0  0  0  0
  -26.2931  -12.9296   20.3335 N   0  0  0  0  0  0
  -25.9247  -11.6450   20.5724 N   0  0  0  0  0  0
  -22.0435  -12.8231   22.0437 N   0  0  0  0  0  0
  -25.4170  -15.1863   20.4076 N   0  0  0  0  0  0
  -31.8862  -14.5427   20.1969 O   0  0  0  0  0  0
  -21.6657   -6.8858   21.4235 O   0  0  0  0  0  0
  -22.3481  -14.5510   20.6719 O   0  0  0  0  0  0
  -24.6037  -31.8732   23.2132 C   0  0  0  0  0  0
  -25.8965  -32.4865   23.8414 C   0  0  1  0  0  0
  -27.2626  -27.5078   20.0967 C   0  0  0  0  0  0
  -25.5849  -33.8659   24.2342 N   0  0  0  0  0  0
  -23.3891  -30.4903   21.5528 C   0  0  2  0  0  0
  -24.8414  -28.9616   20.1210 C   0  0  0  0  0  0
  -22.7361  -29.4655   22.5051 C   0  0  0  0  0  0
  -18.0248  -28.1362   22.8498 C   0  0  0  0  0  0
  -24.1487  -36.7337   23.2637 C   0  0  0  0  0  0
  -25.9038  -30.8666   21.3494 C   0  0  0  0  0  0
  -25.9902  -29.5007   20.7096 C   0  0  0  0  0  0
  -27.1983  -28.7827   20.7025 C   0  0  0  0  0  0
  -26.0911  -26.9591   19.5341 C   0  0  0  0  0  0
  -24.8818  -27.6834   19.5339 C   0  0  0  0  0  0
  -23.5943  -29.8125   20.1693 C   0  0  0  0  0  0
  -25.4109  -36.3133   24.0337 C   0  0  1  0  0  0
  -20.5831  -28.3625   23.1363 C   0  0  2  0  0  0
  -20.6736  -26.9372   22.5435 C   0  0  0  0  0  0
  -19.5724  -26.6376   21.5218 C   0  0  0  0  0  0
  -18.1897  -26.7913   22.1622 C   0  0  0  0  0  0
  -19.1498  -28.8812   23.2923 C   0  0  0  0  0  0
  -18.9432  -30.1424   23.8925 C   0  0  0  0  0  0
  -17.6439  -30.6577   24.0560 C   0  0  0  0  0  0
  -25.9018  -34.9501   23.5138 C   0  0  0  0  0  0
  -16.5328  -29.9085   23.6315 C   0  0  0  0  0  0
  -16.7240  -28.6496   23.0345 C   0  0  0  0  0  0
  -26.4425  -31.6615   25.0706 C   0  0  0  0  0  0
  -25.3716  -31.3710   26.1470 C   0  0  0  0  0  0
  -27.0230  -30.3072   24.6007 C   0  0  0  0  0  0
  -27.6021  -32.4323   25.7461 C   0  0  0  0  0  0
  -27.5583  -37.1815   24.8459 C   0  0  0  0  0  0
  -21.4101  -29.3001   22.3793 N   0  0  0  0  0  0
  -26.4300  -37.3813   23.9403 N   0  0  0  0  0  0
  -24.6505  -31.0891   22.0997 N   0  0  0  0  0  0
  -23.4165  -28.8216   23.3081 O   0  0  0  0  0  0
  -28.4201  -26.7669   20.0239 O   0  0  0  0  0  0
  -26.5591  -34.8940   22.4707 O   0  0  0  0  0  0
  -23.5254  -32.1443   23.7582 O   0  0  0  0  0  0
  -30.6631  -18.8059   18.5205 C   0  0  0  0  0  0
  -30.1120  -19.6660   17.5532 C   0  0  0  0  0  0
  -29.8844  -17.8074   19.1497 C   0  0  0  0  0  0
  -28.7508  -19.5686   17.2046 C   0  0  0  0  0  0
  -28.5191  -17.6950   18.7846 C   0  0  0  0  0  0
  -27.9611  -18.5766   17.8265 C   0  0  0  0  0  0
  -29.0890  -24.8397   16.8897 C   0  0  0  0  0  0
  -27.3237  -23.6720   15.5026 C   0  0  0  0  0  0
  -26.5786  -22.3491   15.6603 C   0  0  0  0  0  0
  -28.0317  -22.5758   17.5427 C   0  0  0  0  0  0
  -27.8196  -23.9770   16.9173 C   0  0  1  0  0  0
  -29.0330  -15.8990   21.7709 C   0  0  0  0  0  0
  -30.6017  -16.9480   20.2049 C   0  0  0  0  0  0
  -28.1586  -20.4983   16.1423 C   0  0  0  0  0  0
  -29.7999  -28.1088   18.4807 C   0  0  0  0  0  0
  -30.0486  -27.0809   17.3620 C   0  0  0  0  0  0
  -29.6574  -27.4742   19.8824 C   0  0  0  0  0  0
  -28.9562  -26.1178   17.2581 N   0  0  0  0  0  0
  -29.9996  -15.6698   20.6832 N   0  0  0  0  0  0
  -27.3107  -21.5872   16.6976 N   0  3  2  0  0  0
  -30.1669  -24.3602   16.5325 O   0  0  0  0  0  0
  -27.7222  -16.7555   19.3421 F   0  0  0  0  0  0
  -26.6498  -18.4723   17.5026 F   0  0  0  0  0  0
  -31.4545  -12.4244   19.0973 H   0  0  0  0  0  0
  -30.3242  -11.3173   19.8113 H   0  0  0  0  0  0
  -29.7189  -11.7819   17.4134 H   0  0  0  0  0  0
  -29.6509  -13.4965   17.7500 H   0  0  0  0  0  0
  -27.7985  -11.3231   18.7766 H   0  0  0  0  0  0
  -27.3545  -12.6798   17.7676 H   0  0  0  0  0  0
  -27.6863  -14.2508   19.5840 H   0  0  0  0  0  0
  -28.6994  -11.8975   21.2333 H   0  0  0  0  0  0
  -28.4573  -13.4489   21.9063 H   0  0  0  0  0  0
  -25.2681   -9.5718   22.4768 H   0  0  0  0  0  0
  -24.0019   -7.4607   22.7452 H   0  0  0  0  0  0
  -21.0789   -8.8684   19.8968 H   0  0  0  0  0  0
  -22.3549  -10.9650   19.6183 H   0  0  0  0  0  0
  -21.1979   -7.6142   23.9731 H   0  0  0  0  0  0
  -21.1478   -6.0527   25.9098 H   0  0  0  0  0  0
  -22.0608   -2.7620   23.2855 H   0  0  0  0  0  0
  -22.4011  -11.9878   22.4840 H   0  0  0  0  0  0
  -21.1061  -13.1311   22.2594 H   0  0  0  0  0  0
  -24.6423  -15.8312   20.5238 H   0  0  0  0  0  0
  -26.2657  -15.6373   20.0825 H   0  0  0  0  0  0
  -26.7051  -32.5618   23.1210 H   0  0  0  0  0  0
  -24.9975  -33.9840   25.0464 H   0  0  0  0  0  0
  -22.6727  -31.3018   21.4119 H   0  0  0  0  0  0
  -23.3741  -35.9674   23.3318 H   0  0  0  0  0  0
  -24.3573  -36.8934   22.2041 H   0  0  0  0  0  0
  -23.7241  -37.6557   23.6636 H   0  0  0  0  0  0
  -25.9880  -31.6307   20.5746 H   0  0  0  0  0  0
  -26.8010  -30.9413   21.9523 H   0  0  0  0  0  0
  -28.0604  -29.2306   21.1713 H   0  0  0  0  0  0
  -26.1190  -25.9761   19.0881 H   0  0  0  0  0  0
  -23.9958  -27.2549   19.0854 H   0  0  0  0  0  0
  -23.6878  -30.5793   19.4002 H   0  0  0  0  0  0
  -22.7264  -29.2153   19.8857 H   0  0  0  0  0  0
  -25.1283  -36.2017   25.0831 H   0  0  0  0  0  0
  -20.9902  -28.3167   24.1492 H   0  0  0  0  0  0
  -20.5629  -26.2226   23.3605 H   0  0  0  0  0  0
  -21.6612  -26.7418   22.1235 H   0  0  0  0  0  0
  -19.6884  -25.6293   21.1230 H   0  0  0  0  0  0
  -19.6675  -27.3204   20.6765 H   0  0  0  0  0  0
  -17.4172  -26.6663   21.4018 H   0  0  0  0  0  0
  -18.0290  -26.0044   22.9006 H   0  0  0  0  0  0
  -19.7909  -30.7223   24.2315 H   0  0  0  0  0  0
  -17.4996  -31.6264   24.5151 H   0  0  0  0  0  0
  -15.5330  -30.2998   23.7625 H   0  0  0  0  0  0
  -15.8635  -28.0826   22.7054 H   0  0  0  0  0  0
  -24.5895  -30.7046   25.7816 H   0  0  0  0  0  0
  -24.8889  -32.2860   26.4913 H   0  0  0  0  0  0
  -25.8076  -30.8891   27.0225 H   0  0  0  0  0  0
  -26.2737  -29.6880   24.1061 H   0  0  0  0  0  0
  -27.4026  -29.7261   25.4417 H   0  0  0  0  0  0
  -27.8557  -30.4414   23.9100 H   0  0  0  0  0  0
  -27.2651  -33.3618   26.2065 H   0  0  0  0  0  0
  -28.3810  -32.6896   25.0272 H   0  0  0  0  0  0
  -28.0706  -31.8431   26.5351 H   0  0  0  0  0  0
  -28.2617  -38.0099   24.7508 H   0  0  0  0  0  0
  -28.1064  -36.2633   24.6287 H   0  0  0  0  0  0
  -27.2298  -37.1473   25.8862 H   0  0  0  0  0  0
  -20.9257  -29.8712   21.7013 H   0  0  0  0  0  0
  -26.0200  -38.2899   24.1413 H   0  0  0  0  0  0
  -31.7061  -18.9248   18.7788 H   0  0  0  0  0  0
  -30.7489  -20.4040   17.0845 H   0  0  0  0  0  0
  -26.6901  -24.4621   15.0979 H   0  0  0  0  0  0
  -28.1606  -23.5431   14.8145 H   0  0  0  0  0  0
  -26.4690  -21.8150   14.7155 H   0  0  0  0  0  0
  -25.5715  -22.5505   16.0316 H   0  0  0  0  0  0
  -27.6229  -22.5525   18.5530 H   0  0  0  0  0  0
  -29.0880  -22.3220   17.6341 H   0  0  0  0  0  0
  -27.0263  -24.4838   17.4691 H   0  0  0  0  0  0
  -29.3247  -15.3743   22.6805 H   0  0  0  0  0  0
  -28.0330  -15.5724   21.4902 H   0  0  0  0  0  0
  -28.9321  -16.9517   22.0341 H   0  0  0  0  0  0
  -30.8021  -17.5858   21.0682 H   0  0  0  0  0  0
  -31.5936  -16.7939   19.7792 H   0  0  0  0  0  0
  -27.5654  -19.8917   15.4565 H   0  0  0  0  0  0
  -28.9535  -20.9400   15.5386 H   0  0  0  0  0  0
  -28.9339  -28.7271   18.2423 H   0  0  0  0  0  0
  -30.6466  -28.7970   18.4971 H   0  0  0  0  0  0
  -30.9955  -26.5751   17.5583 H   0  0  0  0  0  0
  -30.1582  -27.5878   16.4029 H   0  0  0  0  0  0
  -29.8043  -28.2200   20.6633 H   0  0  0  0  0  0
  -30.4649  -26.7581   20.0342 H   0  0  0  0  0  0
  -28.0384  -26.4385   17.5385 H   0  0  0  0  0  0
  -26.6140  -21.1346   17.2697 H   0  0  0  0  0  0
  1 25  1  0  0  0
  1 30  2  0  0  0
  1 89  1  0  0  0
  2  3  1  0  0  0
  2 25  1  0  0  0
  2 94  1  0  0  0
  2 95  1  0  0  0
  3  4  1  0  0  0
  3 96  1  0  0  0
  3 97  1  0  0  0
  4  5  1  0  0  0
  4 98  1  0  0  0
  4 99  1  0  0  0
  5  6  1  0  0  0
  5 26  1  0  0  0
  5100  1  0  0  0
  6 25  1  0  0  0
  6101  1  0  0  0
  6102  1  0  0  0
  7  8  2  0  0  0
  7 26  1  0  0  0
  7 29  1  0  0  0
  8  9  1  0  0  0
  8 22  1  0  0  0
  9 10  1  0  0  0
  9 27  2  0  0  0
 10 11  2  0  0  0
 10 15  1  0  0  0
 11 12  1  0  0  0
 11103  1  0  0  0
 12 13  2  0  0  0
 12104  1  0  0  0
 13 14  1  0  0  0
 13 31  1  0  0  0
 14 15  2  0  0  0
 14105  1  0  0  0
 15106  1  0  0  0
 16 17  2  0  0  0
 16 21  1  0  0  0
 16 31  1  0  0  0
 17 18  1  0  0  0
 17107  1  0  0  0
 18 19  2  0  0  0
 18108  1  0  0  0
 19 20  1  0  0  0
 19 24  1  0  0  0
 20 21  2  0  0  0
 20109  1  0  0  0
 21 23  1  0  0  0
 22 28  1  0  0  0
 22 32  2  0  0  0
 26 27  1  0  0  0
 28110  1  0  0  0
 28111  1  0  0  0
 29112  1  0  0  0
 29113  1  0  0  0
 33 34  1  0  0  0
 33 66  1  0  0  0
 33 70  2  0  0  0
 34 36  1  0  0  0
 34 59  1  0  0  0
 34114  1  0  0  0
 35 44  2  0  0  0
 35 45  1  0  0  0
 35 68  1  0  0  0
 36 56  1  0  0  0
 36115  1  0  0  0
 37 39  1  0  0  0
 37 47  1  0  0  0
 37 66  1  0  0  0
 37116  1  0  0  0
 38 43  2  0  0  0
 38 46  1  0  0  0
 38 47  1  0  0  0
 39 64  1  0  0  0
 39 67  2  0  0  0
 40 52  1  0  0  0
 40 53  2  0  0  0
 40 58  1  0  0  0
 41117  1  0  0  0
 41118  1  0  0  0
 41119  1  0  0  0
 41 48  1  0  0  0
 42 43  1  0  0  0
 42 66  1  0  0  0
 42120  1  0  0  0
 42121  1  0  0  0
 43 44  1  0  0  0
 44122  1  0  0  0
 45 46  2  0  0  0
 45123  1  0  0  0
 46124  1  0  0  0
 47125  1  0  0  0
 47126  1  0  0  0
 48 56  1  0  0  0
 48 65  1  0  0  0
 48127  1  0  0  0
 49 50  1  0  0  0
 49 53  1  0  0  0
 49 64  1  0  0  0
 49128  1  0  0  0
 50 51  1  0  0  0
 50129  1  0  0  0
 50130  1  0  0  0
 51 52  1  0  0  0
 51131  1  0  0  0
 51132  1  0  0  0
 52133  1  0  0  0
 52134  1  0  0  0
 53 54  1  0  0  0
 54 55  2  0  0  0
 54135  1  0  0  0
 55 57  1  0  0  0
 55136  1  0  0  0
 56 69  2  0  0  0
 57 58  2  0  0  0
 57137  1  0  0  0
 58138  1  0  0  0
 59 60  1  0  0  0
 59 61  1  0  0  0
 59 62  1  0  0  0
 60139  1  0  0  0
 60140  1  0  0  0
 60141  1  0  0  0
 61142  1  0  0  0
 61143  1  0  0  0
 61144  1  0  0  0
 62145  1  0  0  0
 62146  1  0  0  0
 62147  1  0  0  0
 63 65  1  0  0  0
 63148  1  0  0  0
 63149  1  0  0  0
 63150  1  0  0  0
 64151  1  0  0  0
 65152  1  0  0  0
 68 87  1  0  0  0
 71 72  2  0  0  0
 71 73  1  0  0  0
 71153  1  0  0  0
 72 74  1  0  0  0
 72154  1  0  0  0
 73 75  2  0  0  0
 73 83  1  0  0  0
 74 76  2  0  0  0
 74 84  1  0  0  0
 75 76  1  0  0  0
 75 92  1  0  0  0
 76 93  1  0  0  0
 77 88  1  0  0  0
 77 91  2  0  0  0
 77 81  1  0  0  0
 78 79  1  0  0  0
 78 81  1  0  0  0
 78155  1  0  0  0
 78156  1  0  0  0
 79 90  1  0  0  0
 79157  1  0  0  0
 79158  1  0  0  0
 80 81  1  0  0  0
 80 90  1  0  0  0
 80159  1  0  0  0
 80160  1  0  0  0
 81161  1  0  0  0
 82 89  1  0  0  0
 82162  1  0  0  0
 82163  1  0  0  0
 82164  1  0  0  0
 83 89  1  0  0  0
 83165  1  0  0  0
 83166  1  0  0  0
 84167  1  0  0  0
 84168  1  0  0  0
 84 90  1  0  0  0
 85 86  1  0  0  0
 85 87  1  0  0  0
 85169  1  0  0  0
 85170  1  0  0  0
 86 88  1  0  0  0
 86171  1  0  0  0
 86172  1  0  0  0
 87173  1  0  0  0
 87174  1  0  0  0
 88175  1  0  0  0
 90176  1  0  0  0
M  CHG  1  90   1
M  ISO  4   1 100  68 101  87 101  89 100
M  END
> <chiral flag>
0

> <version>
0

> <s_m_source_file>
/data/baiqing/PycharmProjects/Reinvent-master-3.2/result/LINK_invent/BTK/process_docking_weight1_custom_product_contain_oxygen_bond_distance_aromatic_linkinvent_7_9_3/rearranged_h_0015.sdf

> <i_m_source_file_index>
67

> <r_mmod_Potential_Energy-OPLS-2005>
-49.9219055175781

> <r_mmod_Stretch_Energy-OPLS-2005>
42.2443199157715

> <r_mmod_Bend_Energy-OPLS-2005>
144.638946533203

> <r_mmod_Torsional_Energy-OPLS-2005>
305.961212158203

> <r_mmod_Improper_Torsional_Energy-OPLS-2005>
11.9351062774658

> <r_mmod_Van_der_Waal_Energy-OPLS-2005>
165.822143554688

> <r_mmod_Electrostatic_Energy-OPLS-2005>
-310.130462646484

> <r_mmod_Solvation_Energy-OPLS-2005>
-427.178070068359

> <b_mmod_Minimization_Converged-OPLS-2005>
0

> <r_mmod_RMS_Derivative-OPLS-2005>
3.13171219825745

$$$$
67
                    3D
 Structure written by MMmdl.
158166  0  0  1  0            999 V2000
  -30.7518  -14.4619   20.6233 C   0  0  0  0  0  0
  -30.4152  -12.3256   19.4181 C   0  0  0  0  0  0
  -29.4857  -12.5109   18.2036 C   0  0  0  0  0  0
  -28.0136  -12.3498   18.6235 C   0  0  0  0  0  0
  -27.6567  -13.2022   19.8682 C   0  0  2  0  0  0
  -28.7006  -13.0112   20.9930 C   0  0  0  0  0  0
  -25.2586  -13.8151   20.5681 C   0  0  0  0  0  0
  -24.1839  -13.0433   20.9188 C   0  0  0  0  0  0
  -24.6390  -11.6900   20.8749 C   0  0  0  0  0  0
  -23.9055  -10.4289   21.0414 C   0  0  0  0  0  0
  -24.3609   -9.4206   21.9191 C   0  0  0  0  0  0
  -23.6285   -8.2242   22.0759 C   0  0  0  0  0  0
  -22.4271   -8.0280   21.3544 C   0  0  0  0  0  0
  -21.9907   -9.0254   20.4646 C   0  0  0  0  0  0
  -22.7232  -10.2134   20.3059 C   0  0  0  0  0  0
  -21.6848   -6.0738   22.5282 C   0  0  0  0  0  0
  -21.4011   -6.5641   23.8215 C   0  0  0  0  0  0
  -21.3657   -5.6795   24.9179 C   0  0  0  0  0  0
  -21.6042   -4.3057   24.7230 C   0  0  0  0  0  0
  -21.8818   -3.8148   23.4351 C   0  0  0  0  0  0
  -21.9190   -4.6965   22.3407 C   0  0  0  0  0  0
  -22.7864  -13.5237   21.1846 C   0  0  0  0  0  0
  -22.1660   -4.2151   21.0985 F   0  0  0  0  0  0
  -21.5627   -3.4541   25.7743 F   0  0  0  0  0  0
  -30.0332  -13.3143   20.4433 N   0  0  0  0  0  0
  -26.3005  -12.9306   20.3346 N   0  0  0  0  0  0
  -25.9311  -11.6474   20.5771 N   0  0  0  0  0  0
  -22.0494  -12.8233   22.0396 N   0  0  0  0  0  0
  -25.4308  -15.1870   20.4080 N   0  0  0  0  0  0
  -31.8358  -14.6487   20.0603 O   0  0  0  0  0  0
  -21.6632   -6.8879   21.4243 O   0  0  0  0  0  0
  -22.3556  -14.5542   20.6690 O   0  0  0  0  0  0
  -24.6160  -31.8681   23.2103 C   0  0  0  0  0  0
  -25.9051  -32.4825   23.8395 C   0  0  1  0  0  0
  -27.2277  -27.4154   20.0928 C   0  0  0  0  0  0
  -25.5904  -33.8623   24.2320 N   0  0  0  0  0  0
  -23.4042  -30.4934   21.5522 C   0  0  2  0  0  0
  -24.8482  -28.9635   20.1107 C   0  0  0  0  0  0
  -22.7417  -29.4660   22.4981 C   0  0  0  0  0  0
  -18.0273  -28.1379   22.8493 C   0  0  0  0  0  0
  -24.1484  -36.7313   23.2636 C   0  0  0  0  0  0
  -25.9358  -30.8267   21.3686 C   0  0  0  0  0  0
  -26.0109  -29.4617   20.7112 C   0  0  0  0  0  0
  -27.2016  -28.6951   20.7006 C   0  0  0  0  0  0
  -26.0459  -26.9507   19.4653 C   0  0  0  0  0  0
  -24.8618  -27.7078   19.4839 C   0  0  0  0  0  0
  -23.6115  -29.8310   20.1648 C   0  0  0  0  0  0
  -25.4109  -36.3111   24.0330 C   0  0  1  0  0  0
  -20.5863  -28.3673   23.1306 C   0  0  2  0  0  0
  -20.6764  -26.9412   22.5406 C   0  0  0  0  0  0
  -19.5742  -26.6392   21.5203 C   0  0  0  0  0  0
  -18.1923  -26.7928   22.1618 C   0  0  0  0  0  0
  -19.1523  -28.8841   23.2899 C   0  0  0  0  0  0
  -18.9454  -30.1443   23.8914 C   0  0  0  0  0  0
  -17.6459  -30.6589   24.0564 C   0  0  0  0  0  0
  -25.9042  -34.9478   23.5122 C   0  0  0  0  0  0
  -16.5350  -29.9091   23.6325 C   0  0  0  0  0  0
  -16.7263  -28.6502   23.0358 C   0  0  0  0  0  0
  -26.4475  -31.6610   25.0730 C   0  0  0  0  0  0
  -25.3734  -31.3707   26.1467 C   0  0  0  0  0  0
  -27.0328  -30.3055   24.6129 C   0  0  0  0  0  0
  -27.6037  -32.4340   25.7502 C   0  0  0  0  0  0
  -27.5583  -37.1815   24.8463 C   0  0  0  0  0  0
  -21.4144  -29.3044   22.3716 N   0  0  0  0  0  0
  -26.4295  -37.3800   23.9407 N   0  0  0  0  0  0
  -24.6705  -31.0766   22.1019 N   0  0  0  0  0  0
  -23.4182  -28.8192   23.3022 O   0  0  0  0  0  0
  -28.3857  -26.6525   20.1370 O   0  0  0  0  0  0
  -26.5604  -34.8930   22.4686 O   0  0  0  0  0  0
  -23.5348  -32.1445   23.7484 O   0  0  0  0  0  0
  -29.6750  -18.4699   20.0643 C   0  0  0  0  0  0
  -29.8355  -19.8767   20.0436 C   0  0  0  0  0  0
  -29.4460  -17.7794   21.2777 C   0  0  0  0  0  0
  -29.7964  -20.6252   21.2426 C   0  0  0  0  0  0
  -29.3922  -18.5324   22.4749 C   0  0  0  0  0  0
  -29.5841  -19.9336   22.4578 C   0  0  0  0  0  0
  -31.2646  -15.8113   22.5654 C   0  0  0  0  0  0
  -29.1757  -16.2615   21.2785 C   0  0  0  0  0  0
  -29.3399  -24.3753   20.6126 C   0  0  0  0  0  0
  -29.1379  -22.8476   20.3964 C   0  0  0  0  0  0
  -28.2494  -25.2301   19.9223 C   0  0  0  0  0  0
  -29.9816  -22.0249   21.2696 N   0  0  0  0  0  0
  -30.3102  -15.3457   21.5540 N   0  0  0  0  0  0
  -29.1371  -17.9137   23.6535 F   0  0  0  0  0  0
  -29.5455  -20.6276   23.6222 F   0  0  0  0  0  0
  -31.4581  -12.4170   19.1095 H   0  0  0  0  0  0
  -30.3184  -11.3167   19.8222 H   0  0  0  0  0  0
  -29.7327  -11.7873   17.4256 H   0  0  0  0  0  0
  -29.6390  -13.4977   17.7642 H   0  0  0  0  0  0
  -27.8437  -11.2935   18.8375 H   0  0  0  0  0  0
  -27.3537  -12.5998   17.7919 H   0  0  0  0  0  0
  -27.6866  -14.2395   19.5422 H   0  0  0  0  0  0
  -28.6838  -11.9823   21.3548 H   0  0  0  0  0  0
  -28.4501  -13.6242   21.8588 H   0  0  0  0  0  0
  -25.2756   -9.5683   22.4765 H   0  0  0  0  0  0
  -23.9994   -7.4635   22.7481 H   0  0  0  0  0  0
  -21.0840   -8.8773   19.8950 H   0  0  0  0  0  0
  -22.3695  -10.9675   19.6166 H   0  0  0  0  0  0
  -21.2002   -7.6149   23.9720 H   0  0  0  0  0  0
  -21.1479   -6.0526   25.9082 H   0  0  0  0  0  0
  -22.0599   -2.7611   23.2853 H   0  0  0  0  0  0
  -22.4093  -11.9887   22.4782 H   0  0  0  0  0  0
  -21.1117  -13.1274   22.2598 H   0  0  0  0  0  0
  -24.6614  -15.8398   20.5113 H   0  0  0  0  0  0
  -26.2766  -15.6248   20.0674 H   0  0  0  0  0  0
  -26.7126  -32.5528   23.1159 H   0  0  0  0  0  0
  -25.0067  -33.9783   25.0475 H   0  0  0  0  0  0
  -22.6934  -31.3110   21.4159 H   0  0  0  0  0  0
  -23.3752  -35.9639   23.3295 H   0  0  0  0  0  0
  -24.3583  -36.8935   22.2053 H   0  0  0  0  0  0
  -23.7222  -37.6508   23.6659 H   0  0  0  0  0  0
  -26.0552  -31.5948   20.6034 H   0  0  0  0  0  0
  -26.8207  -30.8749   21.9911 H   0  0  0  0  0  0
  -28.0953  -29.0727   21.1776 H   0  0  0  0  0  0
  -26.0125  -26.0012   18.9518 H   0  0  0  0  0  0
  -23.9710  -27.3226   19.0069 H   0  0  0  0  0  0
  -23.7194  -30.6078   19.4072 H   0  0  0  0  0  0
  -22.7346  -29.2518   19.8698 H   0  0  0  0  0  0
  -25.1286  -36.1980   25.0821 H   0  0  0  0  0  0
  -20.9966  -28.3246   24.1421 H   0  0  0  0  0  0
  -20.5675  -26.2283   23.3595 H   0  0  0  0  0  0
  -21.6636  -26.7464   22.1199 H   0  0  0  0  0  0
  -19.6904  -25.6306   21.1226 H   0  0  0  0  0  0
  -19.6665  -27.3203   20.6730 H   0  0  0  0  0  0
  -17.4190  -26.6676   21.4021 H   0  0  0  0  0  0
  -18.0325  -26.0065   22.9008 H   0  0  0  0  0  0
  -19.7932  -30.7248   24.2302 H   0  0  0  0  0  0
  -17.5020  -31.6272   24.5164 H   0  0  0  0  0  0
  -15.5352  -30.3003   23.7637 H   0  0  0  0  0  0
  -15.8662  -28.0819   22.7078 H   0  0  0  0  0  0
  -24.5898  -30.7074   25.7784 H   0  0  0  0  0  0
  -24.8942  -32.2864   26.4942 H   0  0  0  0  0  0
  -25.8079  -30.8844   27.0208 H   0  0  0  0  0  0
  -26.2893  -29.6801   24.1175 H   0  0  0  0  0  0
  -27.4086  -29.7303   25.4600 H   0  0  0  0  0  0
  -27.8727  -30.4374   23.9301 H   0  0  0  0  0  0
  -27.2643  -33.3627   26.2103 H   0  0  0  0  0  0
  -28.3839  -32.6926   25.0331 H   0  0  0  0  0  0
  -28.0716  -31.8458   26.5405 H   0  0  0  0  0  0
  -28.2595  -38.0121   24.7550 H   0  0  0  0  0  0
  -28.1086  -36.2660   24.6251 H   0  0  0  0  0  0
  -27.2305  -37.1422   25.8864 H   0  0  0  0  0  0
  -20.9303  -29.8779   21.6951 H   0  0  0  0  0  0
  -26.0181  -38.2872   24.1423 H   0  0  0  0  0  0
  -29.7083  -17.9248   19.1313 H   0  0  0  0  0  0
  -30.0055  -20.3710   19.0976 H   0  0  0  0  0  0
  -30.7519  -16.0642   23.4926 H   0  0  0  0  0  0
  -31.8126  -16.6874   22.2161 H   0  0  0  0  0  0
  -31.9978  -15.0408   22.8121 H   0  0  0  0  0  0
  -28.7330  -16.0225   20.3122 H   0  0  0  0  0  0
  -28.3945  -16.0540   22.0107 H   0  0  0  0  0  0
  -30.3245  -24.6749   20.2515 H   0  0  0  0  0  0
  -29.3203  -24.6006   21.6793 H   0  0  0  0  0  0
  -29.3286  -22.6025   19.3506 H   0  0  0  0  0  0
  -28.0948  -22.5904   20.5900 H   0  0  0  0  0  0
  -27.2992  -24.8725   20.3220 H   0  0  0  0  0  0
  -28.2459  -25.0316   18.8498 H   0  0  0  0  0  0
  -30.0380  -22.3768   22.2230 H   0  0  0  0  0  0
  1 25  1  0  0  0
  1 30  2  0  0  0
  1 83  1  0  0  0
  2  3  1  0  0  0
  2 25  1  0  0  0
  2 86  1  0  0  0
  2 87  1  0  0  0
  3  4  1  0  0  0
  3 88  1  0  0  0
  3 89  1  0  0  0
  4  5  1  0  0  0
  4 90  1  0  0  0
  4 91  1  0  0  0
  5  6  1  0  0  0
  5 26  1  0  0  0
  5 92  1  0  0  0
  6 25  1  0  0  0
  6 93  1  0  0  0
  6 94  1  0  0  0
  7  8  2  0  0  0
  7 26  1  0  0  0
  7 29  1  0  0  0
  8  9  1  0  0  0
  8 22  1  0  0  0
  9 10  1  0  0  0
  9 27  2  0  0  0
 10 11  2  0  0  0
 10 15  1  0  0  0
 11 12  1  0  0  0
 11 95  1  0  0  0
 12 13  2  0  0  0
 12 96  1  0  0  0
 13 14  1  0  0  0
 13 31  1  0  0  0
 14 15  2  0  0  0
 14 97  1  0  0  0
 15 98  1  0  0  0
 16 17  2  0  0  0
 16 21  1  0  0  0
 16 31  1  0  0  0
 17 18  1  0  0  0
 17 99  1  0  0  0
 18 19  2  0  0  0
 18100  1  0  0  0
 19 20  1  0  0  0
 19 24  1  0  0  0
 20 21  2  0  0  0
 20101  1  0  0  0
 21 23  1  0  0  0
 22 28  1  0  0  0
 22 32  2  0  0  0
 26 27  1  0  0  0
 28102  1  0  0  0
 28103  1  0  0  0
 29104  1  0  0  0
 29105  1  0  0  0
 33 34  1  0  0  0
 33 66  1  0  0  0
 33 70  2  0  0  0
 34 36  1  0  0  0
 34 59  1  0  0  0
 34106  1  0  0  0
 35 44  2  0  0  0
 35 45  1  0  0  0
 35 68  1  0  0  0
 36 56  1  0  0  0
 36107  1  0  0  0
 37 39  1  0  0  0
 37 47  1  0  0  0
 37 66  1  0  0  0
 37108  1  0  0  0
 38 43  2  0  0  0
 38 46  1  0  0  0
 38 47  1  0  0  0
 39 64  1  0  0  0
 39 67  2  0  0  0
 40 52  1  0  0  0
 40 53  2  0  0  0
 40 58  1  0  0  0
 41109  1  0  0  0
 41110  1  0  0  0
 41111  1  0  0  0
 41 48  1  0  0  0
 42 43  1  0  0  0
 42 66  1  0  0  0
 42112  1  0  0  0
 42113  1  0  0  0
 43 44  1  0  0  0
 44114  1  0  0  0
 45 46  2  0  0  0
 45115  1  0  0  0
 46116  1  0  0  0
 47117  1  0  0  0
 47118  1  0  0  0
 48 56  1  0  0  0
 48 65  1  0  0  0
 48119  1  0  0  0
 49 50  1  0  0  0
 49 53  1  0  0  0
 49 64  1  0  0  0
 49120  1  0  0  0
 50 51  1  0  0  0
 50121  1  0  0  0
 50122  1  0  0  0
 51 52  1  0  0  0
 51123  1  0  0  0
 51124  1  0  0  0
 52125  1  0  0  0
 52126  1  0  0  0
 53 54  1  0  0  0
 54 55  2  0  0  0
 54127  1  0  0  0
 55 57  1  0  0  0
 55128  1  0  0  0
 56 69  2  0  0  0
 57 58  2  0  0  0
 57129  1  0  0  0
 58130  1  0  0  0
 59 60  1  0  0  0
 59 61  1  0  0  0
 59 62  1  0  0  0
 60131  1  0  0  0
 60132  1  0  0  0
 60133  1  0  0  0
 61134  1  0  0  0
 61135  1  0  0  0
 61136  1  0  0  0
 62137  1  0  0  0
 62138  1  0  0  0
 62139  1  0  0  0
 63 65  1  0  0  0
 63140  1  0  0  0
 63141  1  0  0  0
 63142  1  0  0  0
 64143  1  0  0  0
 65144  1  0  0  0
 68 81  1  0  0  0
 71 72  2  0  0  0
 71 73  1  0  0  0
 71145  1  0  0  0
 72 74  1  0  0  0
 72146  1  0  0  0
 73 75  2  0  0  0
 73 78  1  0  0  0
 74 76  2  0  0  0
 74 82  1  0  0  0
 75 76  1  0  0  0
 75 84  1  0  0  0
 76 85  1  0  0  0
 77 83  1  0  0  0
 77147  1  0  0  0
 77148  1  0  0  0
 77149  1  0  0  0
 78 83  1  0  0  0
 78150  1  0  0  0
 78151  1  0  0  0
 79 80  1  0  0  0
 79 81  1  0  0  0
 79152  1  0  0  0
 79153  1  0  0  0
 80 82  1  0  0  0
 80154  1  0  0  0
 80155  1  0  0  0
 81156  1  0  0  0
 81157  1  0  0  0
 82158  1  0  0  0
M  ISO  4   1 100  68 101  81 101  83 100
M  END
> <chiral flag>
0

> <version>
0

> <s_m_source_file>
/data/baiqing/PycharmProjects/Reinvent-master-3.2/result/LINK_invent/BTK/process_docking_weight1_custom_product_contain_oxygen_bond_distance_aromatic_linkinvent_7_9_3/rearranged_h_0015.sdf

> <i_m_source_file_index>
68

> <r_mmod_Potential_Energy-OPLS-2005>
139.605865478516

> <r_mmod_Stretch_Energy-OPLS-2005>
42.4950714111328

> <r_mmod_Bend_Energy-OPLS-2005>
100.955207824707

> <r_mmod_Torsional_Energy-OPLS-2005>
267.844055175781

> <r_mmod_Improper_Torsional_Energy-OPLS-2005>
9.04059791564941

> <r_mmod_Van_der_Waal_Energy-OPLS-2005>
155.632583618164

> <r_mmod_Electrostatic_Energy-OPLS-2005>
-251.636764526367

> <r_mmod_Solvation_Energy-OPLS-2005>
-199.301208496094

> <b_mmod_Minimization_Converged-OPLS-2005>
0

> <r_mmod_RMS_Derivative-OPLS-2005>
0.750069260597229

$$$$
68
                    3D
 Structure written by MMmdl.
163172  0  0  1  0            999 V2000
  -30.5909  -14.6474   20.5362 C   0  0  0  0  0  0
  -30.4381  -12.4095   19.4517 C   0  0  0  0  0  0
  -29.5071  -12.5364   18.2249 C   0  0  0  0  0  0
  -28.0282  -12.3662   18.6304 C   0  0  0  0  0  0
  -27.6532  -13.2162   19.8755 C   0  0  2  0  0  0
  -28.6952  -13.0351   21.0021 C   0  0  0  0  0  0
  -25.2524  -13.8171   20.5625 C   0  0  0  0  0  0
  -24.1791  -13.0435   20.9136 C   0  0  0  0  0  0
  -24.6364  -11.6911   20.8695 C   0  0  0  0  0  0
  -23.9021  -10.4306   21.0361 C   0  0  0  0  0  0
  -24.3588   -9.4240   21.9142 C   0  0  0  0  0  0
  -23.6284   -8.2270   22.0735 C   0  0  0  0  0  0
  -22.4270   -8.0275   21.3542 C   0  0  0  0  0  0
  -21.9873   -9.0231   20.4636 C   0  0  0  0  0  0
  -22.7180  -10.2130   20.3028 C   0  0  0  0  0  0
  -21.6877   -6.0712   22.5270 C   0  0  0  0  0  0
  -21.4025   -6.5613   23.8195 C   0  0  0  0  0  0
  -21.3668   -5.6773   24.9162 C   0  0  0  0  0  0
  -21.6048   -4.3033   24.7223 C   0  0  0  0  0  0
  -21.8835   -3.8121   23.4349 C   0  0  0  0  0  0
  -21.9195   -4.6936   22.3405 C   0  0  0  0  0  0
  -22.7814  -13.5218   21.1813 C   0  0  0  0  0  0
  -22.1656   -4.2115   21.0989 F   0  0  0  0  0  0
  -21.5630   -3.4526   25.7745 F   0  0  0  0  0  0
  -30.0099  -13.4060   20.4550 N   0  0  0  0  0  0
  -26.2955  -12.9345   20.3334 N   0  0  0  0  0  0
  -25.9292  -11.6498   20.5745 N   0  0  0  0  0  0
  -22.0473  -12.8244   22.0417 N   0  0  0  0  0  0
  -25.4247  -15.1882   20.4013 N   0  0  0  0  0  0
  -31.7109  -14.8617   20.0612 O   0  0  0  0  0  0
  -21.6678   -6.8848   21.4229 O   0  0  0  0  0  0
  -22.3507  -14.5525   20.6663 O   0  0  0  0  0  0
  -24.6236  -31.8576   23.2072 C   0  0  0  0  0  0
  -25.9106  -32.4766   23.8361 C   0  0  1  0  0  0
  -27.2132  -27.3280   20.1472 C   0  0  0  0  0  0
  -25.5919  -33.8578   24.2267 N   0  0  0  0  0  0
  -23.4161  -30.4860   21.5441 C   0  0  2  0  0  0
  -24.8614  -28.9354   20.1142 C   0  0  0  0  0  0
  -22.7451  -29.4637   22.4915 C   0  0  0  0  0  0
  -18.0290  -28.1404   22.8492 C   0  0  0  0  0  0
  -24.1480  -36.7291   23.2645 C   0  0  0  0  0  0
  -25.9552  -30.7937   21.3777 C   0  0  0  0  0  0
  -26.0278  -29.4232   20.7202 C   0  0  0  0  0  0
  -27.2097  -28.6329   20.7210 C   0  0  0  0  0  0
  -26.0316  -26.8754   19.5270 C   0  0  0  0  0  0
  -24.8640  -27.6662   19.5089 C   0  0  0  0  0  0
  -23.6320  -29.8201   20.1581 C   0  0  0  0  0  0
  -25.4109  -36.3072   24.0324 C   0  0  1  0  0  0
  -20.5881  -28.3701   23.1269 C   0  0  2  0  0  0
  -20.6773  -26.9420   22.5406 C   0  0  0  0  0  0
  -19.5743  -26.6388   21.5221 C   0  0  0  0  0  0
  -18.1926  -26.7947   22.1623 C   0  0  0  0  0  0
  -19.1537  -28.8875   23.2875 C   0  0  0  0  0  0
  -18.9463  -30.1484   23.8885 C   0  0  0  0  0  0
  -17.6463  -30.6598   24.0589 C   0  0  0  0  0  0
  -25.9052  -34.9450   23.5093 C   0  0  0  0  0  0
  -16.5358  -29.9101   23.6356 C   0  0  0  0  0  0
  -16.7272  -28.6527   23.0350 C   0  0  0  0  0  0
  -26.4518  -31.6614   25.0749 C   0  0  0  0  0  0
  -25.3786  -31.3747   26.1500 C   0  0  0  0  0  0
  -27.0415  -30.3034   24.6274 C   0  0  0  0  0  0
  -27.6032  -32.4415   25.7517 C   0  0  0  0  0  0
  -27.5571  -37.1803   24.8460 C   0  0  0  0  0  0
  -21.4168  -29.3049   22.3652 N   0  0  0  0  0  0
  -26.4277  -37.3773   23.9411 N   0  0  0  0  0  0
  -24.6837  -31.0609   22.1007 N   0  0  0  0  0  0
  -23.4187  -28.8167   23.2977 O   0  0  0  0  0  0
  -28.3353  -26.5023   20.1681 O   0  0  0  0  0  0
  -26.5615  -34.8917   22.4662 O   0  0  0  0  0  0
  -23.5409  -32.1375   23.7410 O   0  0  0  0  0  0
  -29.6551  -17.9834   21.9612 C   0  0  0  0  0  0
  -29.0538  -18.9657   19.4320 C   0  0  0  0  0  0
  -29.2787  -19.3561   21.7987 C   0  0  0  0  0  0
  -28.9398  -19.8858   20.5168 C   0  0  0  0  0  0
  -29.7153  -17.0609   20.8816 C   0  0  0  0  0  0
  -29.4184  -17.5926   19.6014 C   0  0  0  0  0  0
  -30.8124  -23.7970   19.2389 C   0  0  0  0  0  0
  -29.4783  -24.2496   18.6678 C   0  0  0  0  0  0
  -30.4567  -22.4811   19.9298 C   0  0  0  0  0  0
  -28.4688  -23.8762   19.7665 C   0  0  2  0  0  0
  -29.1898  -20.2232   23.0449 C   0  0  0  0  0  0
  -28.2763  -21.3137   20.2814 C   0  0  0  0  0  0
  -28.2066  -25.1331   20.7197 C   0  0  0  0  0  0
  -29.8427  -15.6240   21.1357 N   0  0  0  0  0  0
  -29.0612  -22.6124   20.4181 N   0  3  1  0  0  0
  -29.3915  -16.7653   18.5288 F   0  0  0  0  0  0
  -31.4761  -12.5546   19.1513 H   0  0  0  0  0  0
  -30.3861  -11.4052   19.8701 H   0  0  0  0  0  0
  -29.7801  -11.8014   17.4668 H   0  0  0  0  0  0
  -29.6432  -13.5136   17.7590 H   0  0  0  0  0  0
  -27.8587  -11.3076   18.8313 H   0  0  0  0  0  0
  -27.3763  -12.6219   17.7945 H   0  0  0  0  0  0
  -27.6811  -14.2614   19.5660 H   0  0  0  0  0  0
  -28.7121  -11.9975   21.3403 H   0  0  0  0  0  0
  -28.4322  -13.6255   21.8800 H   0  0  0  0  0  0
  -25.2733   -9.5754   22.4693 H   0  0  0  0  0  0
  -24.0011   -7.4687   22.7467 H   0  0  0  0  0  0
  -21.0787   -8.8717   19.8967 H   0  0  0  0  0  0
  -22.3573  -10.9648   19.6142 H   0  0  0  0  0  0
  -21.2031   -7.6124   23.9681 H   0  0  0  0  0  0
  -21.1464   -6.0511   25.9061 H   0  0  0  0  0  0
  -22.0607   -2.7578   23.2871 H   0  0  0  0  0  0
  -22.4101  -11.9920   22.4836 H   0  0  0  0  0  0
  -21.1078  -13.1255   22.2596 H   0  0  0  0  0  0
  -24.6611  -15.8468   20.5121 H   0  0  0  0  0  0
  -26.2781  -15.6288   20.0828 H   0  0  0  0  0  0
  -26.7167  -32.5413   23.1097 H   0  0  0  0  0  0
  -25.0114  -33.9744   25.0434 H   0  0  0  0  0  0
  -22.7100  -31.3070   21.4019 H   0  0  0  0  0  0
  -23.3740  -35.9624   23.3309 H   0  0  0  0  0  0
  -24.3561  -36.8929   22.2058 H   0  0  0  0  0  0
  -23.7240  -37.6490   23.6689 H   0  0  0  0  0  0
  -26.0943  -31.5587   20.6127 H   0  0  0  0  0  0
  -26.8328  -30.8320   22.0141 H   0  0  0  0  0  0
  -28.1063  -29.0026   21.1996 H   0  0  0  0  0  0
  -26.0042  -25.9007   19.0622 H   0  0  0  0  0  0
  -23.9706  -27.2836   19.0352 H   0  0  0  0  0  0
  -23.7610  -30.5986   19.4043 H   0  0  0  0  0  0
  -22.7504  -29.2552   19.8481 H   0  0  0  0  0  0
  -25.1295  -36.1910   25.0816 H   0  0  0  0  0  0
  -21.0002  -28.3296   24.1377 H   0  0  0  0  0  0
  -20.5691  -26.2318   23.3613 H   0  0  0  0  0  0
  -21.6638  -26.7458   22.1186 H   0  0  0  0  0  0
  -19.6894  -25.6296   21.1259 H   0  0  0  0  0  0
  -19.6680  -27.3192   20.6750 H   0  0  0  0  0  0
  -17.4197  -26.6719   21.4024 H   0  0  0  0  0  0
  -18.0310  -26.0086   22.9011 H   0  0  0  0  0  0
  -19.7945  -30.7317   24.2212 H   0  0  0  0  0  0
  -17.5026  -31.6280   24.5185 H   0  0  0  0  0  0
  -15.5359  -30.3001   23.7698 H   0  0  0  0  0  0
  -15.8675  -28.0871   22.7032 H   0  0  0  0  0  0
  -24.5877  -30.7200   25.7825 H   0  0  0  0  0  0
  -24.9101  -32.2933   26.5041 H   0  0  0  0  0  0
  -25.8128  -30.8807   27.0200 H   0  0  0  0  0  0
  -26.3025  -29.6713   24.1341 H   0  0  0  0  0  0
  -27.4123  -29.7368   25.4824 H   0  0  0  0  0  0
  -27.8881  -30.4297   23.9527 H   0  0  0  0  0  0
  -27.2558  -33.3653   26.2154 H   0  0  0  0  0  0
  -28.3799  -32.7115   25.0353 H   0  0  0  0  0  0
  -28.0788  -31.8566   26.5396 H   0  0  0  0  0  0
  -28.2582  -38.0107   24.7501 H   0  0  0  0  0  0
  -28.1069  -36.2634   24.6279 H   0  0  0  0  0  0
  -27.2298  -37.1453   25.8866 H   0  0  0  0  0  0
  -20.9333  -29.8752   21.6853 H   0  0  0  0  0  0
  -26.0145  -38.2836   24.1436 H   0  0  0  0  0  0
  -29.8573  -17.6200   22.9587 H   0  0  0  0  0  0
  -28.7769  -19.2824   18.4366 H   0  0  0  0  0  0
  -31.1790  -24.5221   19.9670 H   0  0  0  0  0  0
  -31.5802  -23.6781   18.4748 H   0  0  0  0  0  0
  -29.2562  -23.6895   17.7576 H   0  0  0  0  0  0
  -29.4793  -25.3039   18.3953 H   0  0  0  0  0  0
  -31.1480  -22.2400   20.7394 H   0  0  0  0  0  0
  -30.5261  -21.6765   19.1953 H   0  0  0  0  0  0
  -27.5151  -23.6413   19.2895 H   0  0  0  0  0  0
  -29.2303  -19.6181   23.9522 H   0  0  0  0  0  0
  -28.2573  -20.7868   23.0787 H   0  0  0  0  0  0
  -30.0254  -20.9219   23.0795 H   0  0  0  0  0  0
  -27.3946  -21.3911   20.9180 H   0  0  0  0  0  0
  -27.8783  -21.2994   19.2669 H   0  0  0  0  0  0
  -28.9272  -25.0932   21.5361 H   0  0  0  0  0  0
  -27.2348  -25.0107   21.2037 H   0  0  0  0  0  0
  -29.0847  -15.2441   21.6807 H   0  0  0  0  0  0
  -29.1298  -22.7957   21.4085 H   0  0  0  0  0  0
  1 25  1  0  0  0
  1 30  2  0  0  0
  1 84  1  0  0  0
  2  3  1  0  0  0
  2 25  1  0  0  0
  2 87  1  0  0  0
  2 88  1  0  0  0
  3  4  1  0  0  0
  3 89  1  0  0  0
  3 90  1  0  0  0
  4  5  1  0  0  0
  4 91  1  0  0  0
  4 92  1  0  0  0
  5  6  1  0  0  0
  5 26  1  0  0  0
  5 93  1  0  0  0
  6 25  1  0  0  0
  6 94  1  0  0  0
  6 95  1  0  0  0
  7  8  2  0  0  0
  7 26  1  0  0  0
  7 29  1  0  0  0
  8  9  1  0  0  0
  8 22  1  0  0  0
  9 10  1  0  0  0
  9 27  2  0  0  0
 10 11  2  0  0  0
 10 15  1  0  0  0
 11 12  1  0  0  0
 11 96  1  0  0  0
 12 13  2  0  0  0
 12 97  1  0  0  0
 13 14  1  0  0  0
 13 31  1  0  0  0
 14 15  2  0  0  0
 14 98  1  0  0  0
 15 99  1  0  0  0
 16 17  2  0  0  0
 16 21  1  0  0  0
 16 31  1  0  0  0
 17 18  1  0  0  0
 17100  1  0  0  0
 18 19  2  0  0  0
 18101  1  0  0  0
 19 20  1  0  0  0
 19 24  1  0  0  0
 20 21  2  0  0  0
 20102  1  0  0  0
 21 23  1  0  0  0
 22 28  1  0  0  0
 22 32  2  0  0  0
 26 27  1  0  0  0
 28103  1  0  0  0
 28104  1  0  0  0
 29105  1  0  0  0
 29106  1  0  0  0
 33 34  1  0  0  0
 33 66  1  0  0  0
 33 70  2  0  0  0
 34 36  1  0  0  0
 34 59  1  0  0  0
 34107  1  0  0  0
 35 44  2  0  0  0
 35 45  1  0  0  0
 35 68  1  0  0  0
 36 56  1  0  0  0
 36108  1  0  0  0
 37 39  1  0  0  0
 37 47  1  0  0  0
 37 66  1  0  0  0
 37109  1  0  0  0
 38 43  2  0  0  0
 38 46  1  0  0  0
 38 47  1  0  0  0
 39 64  1  0  0  0
 39 67  2  0  0  0
 40 52  1  0  0  0
 40 53  2  0  0  0
 40 58  1  0  0  0
 41110  1  0  0  0
 41111  1  0  0  0
 41112  1  0  0  0
 41 48  1  0  0  0
 42 43  1  0  0  0
 42 66  1  0  0  0
 42113  1  0  0  0
 42114  1  0  0  0
 43 44  1  0  0  0
 44115  1  0  0  0
 45 46  2  0  0  0
 45116  1  0  0  0
 46117  1  0  0  0
 47118  1  0  0  0
 47119  1  0  0  0
 48 56  1  0  0  0
 48 65  1  0  0  0
 48120  1  0  0  0
 49 50  1  0  0  0
 49 53  1  0  0  0
 49 64  1  0  0  0
 49121  1  0  0  0
 50 51  1  0  0  0
 50122  1  0  0  0
 50123  1  0  0  0
 51 52  1  0  0  0
 51124  1  0  0  0
 51125  1  0  0  0
 52126  1  0  0  0
 52127  1  0  0  0
 53 54  1  0  0  0
 54 55  2  0  0  0
 54128  1  0  0  0
 55 57  1  0  0  0
 55129  1  0  0  0
 56 69  2  0  0  0
 57 58  2  0  0  0
 57130  1  0  0  0
 58131  1  0  0  0
 59 60  1  0  0  0
 59 61  1  0  0  0
 59 62  1  0  0  0
 60132  1  0  0  0
 60133  1  0  0  0
 60134  1  0  0  0
 61135  1  0  0  0
 61136  1  0  0  0
 61137  1  0  0  0
 62138  1  0  0  0
 62139  1  0  0  0
 62140  1  0  0  0
 63 65  1  0  0  0
 63141  1  0  0  0
 63142  1  0  0  0
 63143  1  0  0  0
 64144  1  0  0  0
 65145  1  0  0  0
 68 83  1  0  0  0
 71 73  2  0  0  0
 71 75  1  0  0  0
 71146  1  0  0  0
 72 74  2  0  0  0
 72 76  1  0  0  0
 72147  1  0  0  0
 73 74  1  0  0  0
 73 81  1  0  0  0
 74 82  1  0  0  0
 75 76  2  0  0  0
 75 84  1  0  0  0
 76 86  1  0  0  0
 77 78  1  0  0  0
 77 79  1  0  0  0
 77148  1  0  0  0
 77149  1  0  0  0
 78 80  1  0  0  0
 78150  1  0  0  0
 78151  1  0  0  0
 79 85  1  0  0  0
 79152  1  0  0  0
 79153  1  0  0  0
 80 83  1  0  0  0
 80 85  1  0  0  0
 80154  1  0  0  0
 81155  1  0  0  0
 81156  1  0  0  0
 81157  1  0  0  0
 82158  1  0  0  0
 82159  1  0  0  0
 82 85  1  0  0  0
 83160  1  0  0  0
 83161  1  0  0  0
 84162  1  0  0  0
 85163  1  0  0  0
M  CHG  1  85   1
M  ISO  4   1 100  68 101  83 101  84 100
M  END
> <chiral flag>
0

> <version>
0

> <s_m_source_file>
/data/baiqing/PycharmProjects/Reinvent-master-3.2/result/LINK_invent/BTK/process_docking_weight1_custom_product_contain_oxygen_bond_distance_aromatic_linkinvent_7_9_3/rearranged_h_0015.sdf

> <i_m_source_file_index>
69

> <r_mmod_Potential_Energy-OPLS-2005>
64.9485168457031

> <r_mmod_Stretch_Energy-OPLS-2005>
84.9391555786133

> <r_mmod_Bend_Energy-OPLS-2005>
163.644271850586

> <r_mmod_Torsional_Energy-OPLS-2005>
322.204498291016

> <r_mmod_Improper_Torsional_Energy-OPLS-2005>
5.49944877624512

> <r_mmod_Van_der_Waal_Energy-OPLS-2005>
132.277679443359

> <r_mmod_Electrostatic_Energy-OPLS-2005>
-252.720260620117

> <r_mmod_Solvation_Energy-OPLS-2005>
-439.130920410156

> <b_mmod_Minimization_Converged-OPLS-2005>
0

> <r_mmod_RMS_Derivative-OPLS-2005>
3.2315239906311

$$$$
69
                    3D
 Structure written by MMmdl.
177186  0  0  1  0            999 V2000
  -30.7157  -14.4444   20.6606 C   0  0  0  0  0  0
  -30.4245  -12.3214   19.3994 C   0  0  0  0  0  0
  -29.4774  -12.4764   18.1906 C   0  0  0  0  0  0
  -28.0156  -12.2673   18.6292 C   0  0  0  0  0  0
  -27.6590  -13.1379   19.8525 C   0  0  2  0  0  0
  -28.7031  -12.9054   20.9758 C   0  0  0  0  0  0
  -25.2679  -13.7993   20.5604 C   0  0  0  0  0  0
  -24.1897  -13.0357   20.9291 C   0  0  0  0  0  0
  -24.6342  -11.6807   20.8804 C   0  0  0  0  0  0
  -23.8962  -10.4228   21.0442 C   0  0  0  0  0  0
  -24.3546   -9.4139   21.9187 C   0  0  0  0  0  0
  -23.6243   -8.2159   22.0718 C   0  0  0  0  0  0
  -22.4223   -8.0223   21.3517 C   0  0  0  0  0  0
  -21.9861   -9.0197   20.4620 C   0  0  0  0  0  0
  -22.7161  -10.2093   20.3058 C   0  0  0  0  0  0
  -21.6793   -6.0709   22.5254 C   0  0  0  0  0  0
  -21.3988   -6.5605   23.8193 C   0  0  0  0  0  0
  -21.3671   -5.6764   24.9169 C   0  0  0  0  0  0
  -21.6069   -4.3035   24.7226 C   0  0  0  0  0  0
  -21.8819   -3.8110   23.4335 C   0  0  0  0  0  0
  -21.9202   -4.6929   22.3385 C   0  0  0  0  0  0
  -22.7944  -13.5248   21.1902 C   0  0  0  0  0  0
  -22.1661   -4.2120   21.0951 F   0  0  0  0  0  0
  -21.5667   -3.4521   25.7742 F   0  0  0  0  0  0
  -30.0199  -13.2839   20.4483 N   0  0  0  0  0  0
  -26.2999  -12.8997   20.3254 N   0  0  0  0  0  0
  -25.9216  -11.6236   20.5788 N   0  0  0  0  0  0
  -22.0569  -12.8227   22.0453 N   0  0  0  0  0  0
  -25.4477  -15.1643   20.3758 N   0  0  0  0  0  0
  -31.8088  -14.6184   20.1085 O   0  0  0  0  0  0
  -21.6571   -6.8835   21.4204 O   0  0  0  0  0  0
  -22.3679  -14.5590   20.6805 O   0  0  0  0  0  0
  -24.6218  -31.8648   23.2087 C   0  0  0  0  0  0
  -25.9098  -32.4811   23.8386 C   0  0  1  0  0  0
  -27.2394  -27.4172   20.0495 C   0  0  0  0  0  0
  -25.5928  -33.8600   24.2313 N   0  0  0  0  0  0
  -23.4092  -30.4915   21.5506 C   0  0  2  0  0  0
  -24.8504  -28.9492   20.1234 C   0  0  0  0  0  0
  -22.7441  -29.4674   22.4978 C   0  0  0  0  0  0
  -18.0284  -28.1389   22.8482 C   0  0  0  0  0  0
  -24.1488  -36.7319   23.2633 C   0  0  0  0  0  0
  -25.9451  -30.8211   21.3637 C   0  0  0  0  0  0
  -26.0176  -29.4529   20.7092 C   0  0  0  0  0  0
  -27.2145  -28.6923   20.6689 C   0  0  0  0  0  0
  -26.0293  -26.9156   19.5114 C   0  0  0  0  0  0
  -24.8491  -27.6757   19.5329 C   0  0  0  0  0  0
  -23.6200  -29.8260   20.1658 C   0  0  0  0  0  0
  -25.4106  -36.3100   24.0335 C   0  0  1  0  0  0
  -20.5869  -28.3690   23.1301 C   0  0  2  0  0  0
  -20.6775  -26.9421   22.5417 C   0  0  0  0  0  0
  -19.5754  -26.6400   21.5214 C   0  0  0  0  0  0
  -18.1929  -26.7944   22.1613 C   0  0  0  0  0  0
  -19.1528  -28.8856   23.2892 C   0  0  0  0  0  0
  -18.9463  -30.1453   23.8917 C   0  0  0  0  0  0
  -17.6469  -30.6591   24.0578 C   0  0  0  0  0  0
  -25.9038  -34.9464   23.5119 C   0  0  0  0  0  0
  -16.5356  -29.9102   23.6317 C   0  0  0  0  0  0
  -16.7276  -28.6516   23.0335 C   0  0  0  0  0  0
  -26.4495  -31.6600   25.0728 C   0  0  0  0  0  0
  -25.3760  -31.3750   26.1489 C   0  0  0  0  0  0
  -27.0315  -30.3026   24.6139 C   0  0  0  0  0  0
  -27.6068  -32.4319   25.7491 C   0  0  0  0  0  0
  -27.5586  -37.1799   24.8450 C   0  0  0  0  0  0
  -21.4166  -29.3055   22.3701 N   0  0  0  0  0  0
  -26.4281  -37.3797   23.9425 N   0  0  0  0  0  0
  -24.6780  -31.0739   22.0991 N   0  0  0  0  0  0
  -23.4188  -28.8191   23.3019 O   0  0  0  0  0  0
  -28.4338  -26.7109   19.9814 O   0  0  0  0  0  0
  -26.5593  -34.8924   22.4675 O   0  0  0  0  0  0
  -23.5393  -32.1410   23.7448 O   0  0  0  0  0  0
  -31.5805  -18.9511   21.7424 C   0  0  0  0  0  0
  -30.7471  -17.7293   19.8268 C   0  0  0  0  0  0
  -31.6953  -20.1123   20.9454 C   0  0  0  0  0  0
  -30.8353  -18.8936   19.0421 C   0  0  0  0  0  0
  -31.1484  -17.7316   21.1832 C   0  0  0  0  0  0
  -31.3715  -20.0882   19.5673 C   0  0  0  0  0  0
  -29.9708  -24.2716   17.4335 C   0  0  0  0  0  0
  -30.9336  -24.7559   19.7628 C   0  0  0  0  0  0
  -30.0706  -22.7705   17.7555 C   0  0  0  0  0  0
  -30.9755  -23.2253   20.0249 C   0  0  0  0  0  0
  -29.9268  -25.2102   18.6709 C   0  0  2  0  0  0
  -31.2729  -22.5202   18.6880 C   0  0  1  0  0  0
  -34.1881  -21.0419   18.2531 C   0  0  0  0  0  0
  -32.5900  -21.3346   16.2838 C   0  0  0  0  0  0
  -28.8321  -15.8189   21.7072 C   0  0  0  0  0  0
  -31.1171  -16.4519   22.0432 C   0  0  0  0  0  0
  -28.4916  -25.5091   19.1766 C   0  0  0  0  0  0
  -32.7876  -20.7345   17.6959 C   0  0  0  0  0  0
  -31.7373  -21.1192   18.6659 N   0  0  0  0  0  0
  -30.2311  -15.3885   21.5297 N   0  0  0  0  0  0
  -31.4612  -12.4309   19.0711 H   0  0  0  0  0  0
  -30.3587  -11.3040   19.7883 H   0  0  0  0  0  0
  -29.7337  -11.7442   17.4221 H   0  0  0  0  0  0
  -29.5956  -13.4573   17.7311 H   0  0  0  0  0  0
  -27.9098  -11.2177   18.9017 H   0  0  0  0  0  0
  -27.3211  -12.4330   17.8044 H   0  0  0  0  0  0
  -27.7017  -14.1514   19.4633 H   0  0  0  0  0  0
  -28.7301  -11.8491   21.2476 H   0  0  0  0  0  0
  -28.4452  -13.3903   21.9110 H   0  0  0  0  0  0
  -25.2692   -9.5624   22.4785 H   0  0  0  0  0  0
  -23.9971   -7.4531   22.7389 H   0  0  0  0  0  0
  -21.0830   -8.8699   19.8904 H   0  0  0  0  0  0
  -22.3617  -10.9642   19.6194 H   0  0  0  0  0  0
  -21.1910   -7.6095   23.9716 H   0  0  0  0  0  0
  -21.1529   -6.0463   25.9091 H   0  0  0  0  0  0
  -22.0608   -2.7559   23.2811 H   0  0  0  0  0  0
  -22.4173  -11.9864   22.4823 H   0  0  0  0  0  0
  -21.1226  -13.1302   22.2709 H   0  0  0  0  0  0
  -24.6856  -15.8288   20.4551 H   0  0  0  0  0  0
  -26.2735  -15.5532   19.9364 H   0  0  0  0  0  0
  -26.7173  -32.5499   23.1141 H   0  0  0  0  0  0
  -25.0117  -33.9760   25.0479 H   0  0  0  0  0  0
  -22.7014  -31.3121   21.4083 H   0  0  0  0  0  0
  -23.3740  -35.9658   23.3280 H   0  0  0  0  0  0
  -24.3588  -36.8950   22.2052 H   0  0  0  0  0  0
  -23.7244  -37.6519   23.6657 H   0  0  0  0  0  0
  -26.0612  -31.5839   20.5930 H   0  0  0  0  0  0
  -26.8316  -30.8717   21.9838 H   0  0  0  0  0  0
  -28.1226  -29.0879   21.1001 H   0  0  0  0  0  0
  -25.9614  -25.9345   19.0677 H   0  0  0  0  0  0
  -23.9428  -27.2743   19.1009 H   0  0  0  0  0  0
  -23.7457  -30.6021   19.4089 H   0  0  0  0  0  0
  -22.7407  -29.2578   19.8600 H   0  0  0  0  0  0
  -25.1272  -36.1951   25.0824 H   0  0  0  0  0  0
  -20.9972  -28.3265   24.1414 H   0  0  0  0  0  0
  -20.5673  -26.2311   23.3601 H   0  0  0  0  0  0
  -21.6648  -26.7454   22.1211 H   0  0  0  0  0  0
  -19.6915  -25.6312   21.1238 H   0  0  0  0  0  0
  -19.6694  -27.3214   20.6739 H   0  0  0  0  0  0
  -17.4201  -26.6691   21.4013 H   0  0  0  0  0  0
  -18.0323  -26.0085   22.9002 H   0  0  0  0  0  0
  -19.7937  -30.7261   24.2300 H   0  0  0  0  0  0
  -17.5022  -31.6268   24.5193 H   0  0  0  0  0  0
  -15.5356  -30.3019   23.7634 H   0  0  0  0  0  0
  -15.8672  -28.0861   22.7025 H   0  0  0  0  0  0
  -24.5932  -30.7077   25.7863 H   0  0  0  0  0  0
  -24.8955  -32.2930   26.4898 H   0  0  0  0  0  0
  -25.8127  -30.8972   27.0272 H   0  0  0  0  0  0
  -26.2860  -29.6793   24.1193 H   0  0  0  0  0  0
  -27.4055  -29.7270   25.4617 H   0  0  0  0  0  0
  -27.8714  -30.4316   23.9310 H   0  0  0  0  0  0
  -27.2683  -33.3607   26.2106 H   0  0  0  0  0  0
  -28.3870  -32.6910   25.0315 H   0  0  0  0  0  0
  -28.0762  -31.8429   26.5388 H   0  0  0  0  0  0
  -28.2573  -38.0125   24.7535 H   0  0  0  0  0  0
  -28.1111  -36.2659   24.6206 H   0  0  0  0  0  0
  -27.2326  -37.1374   25.8856 H   0  0  0  0  0  0
  -20.9324  -29.8817   21.6947 H   0  0  0  0  0  0
  -26.0162  -38.2862   24.1461 H   0  0  0  0  0  0
  -31.8683  -18.9931   22.7830 H   0  0  0  0  0  0
  -30.3908  -16.8297   19.3496 H   0  0  0  0  0  0
  -32.1029  -20.9961   21.4091 H   0  0  0  0  0  0
  -30.5421  -18.8343   18.0037 H   0  0  0  0  0  0
  -29.1244  -24.4438   16.7662 H   0  0  0  0  0  0
  -30.8544  -24.5295   16.8483 H   0  0  0  0  0  0
  -31.9289  -25.0497   19.4203 H   0  0  0  0  0  0
  -30.7713  -25.3114   20.6878 H   0  0  0  0  0  0
  -30.1695  -22.2479   16.8068 H   0  0  0  0  0  0
  -29.1508  -22.3864   18.1966 H   0  0  0  0  0  0
  -30.0335  -22.8793   20.4542 H   0  0  0  0  0  0
  -31.7573  -23.0308   20.7571 H   0  0  0  0  0  0
  -30.2758  -26.1746   18.2978 H   0  0  0  0  0  0
  -32.1273  -23.0655   18.2861 H   0  0  0  0  0  0
  -34.9738  -20.7528   17.5543 H   0  0  0  0  0  0
  -34.3651  -20.4857   19.1750 H   0  0  0  0  0  0
  -34.3260  -22.1006   18.4753 H   0  0  0  0  0  0
  -33.3597  -21.0019   15.5896 H   0  0  0  0  0  0
  -32.6260  -22.4251   16.2753 H   0  0  0  0  0  0
  -31.6408  -21.0192   15.8556 H   0  0  0  0  0  0
  -28.4396  -15.5427   22.6867 H   0  0  0  0  0  0
  -28.1525  -15.4564   20.9536 H   0  0  0  0  0  0
  -28.7340  -16.8975   21.6179 H   0  0  0  0  0  0
  -30.7828  -16.7061   23.0522 H   0  0  0  0  0  0
  -32.1316  -16.0767   22.1842 H   0  0  0  0  0  0
  -28.0756  -24.6557   19.7195 H   0  0  0  0  0  0
  -27.8904  -25.6367   18.2758 H   0  0  0  0  0  0
  -32.7473  -19.6546   17.5517 H   0  0  0  0  0  0
  1 25  1  0  0  0
  1 30  2  0  0  0
  1 90  1  0  0  0
  2  3  1  0  0  0
  2 25  1  0  0  0
  2 91  1  0  0  0
  2 92  1  0  0  0
  3  4  1  0  0  0
  3 93  1  0  0  0
  3 94  1  0  0  0
  4  5  1  0  0  0
  4 95  1  0  0  0
  4 96  1  0  0  0
  5  6  1  0  0  0
  5 26  1  0  0  0
  5 97  1  0  0  0
  6 25  1  0  0  0
  6 98  1  0  0  0
  6 99  1  0  0  0
  7  8  2  0  0  0
  7 26  1  0  0  0
  7 29  1  0  0  0
  8  9  1  0  0  0
  8 22  1  0  0  0
  9 10  1  0  0  0
  9 27  2  0  0  0
 10 11  2  0  0  0
 10 15  1  0  0  0
 11 12  1  0  0  0
 11100  1  0  0  0
 12 13  2  0  0  0
 12101  1  0  0  0
 13 14  1  0  0  0
 13 31  1  0  0  0
 14 15  2  0  0  0
 14102  1  0  0  0
 15103  1  0  0  0
 16 17  2  0  0  0
 16 21  1  0  0  0
 16 31  1  0  0  0
 17 18  1  0  0  0
 17104  1  0  0  0
 18 19  2  0  0  0
 18105  1  0  0  0
 19 20  1  0  0  0
 19 24  1  0  0  0
 20 21  2  0  0  0
 20106  1  0  0  0
 21 23  1  0  0  0
 22 28  1  0  0  0
 22 32  2  0  0  0
 26 27  1  0  0  0
 28107  1  0  0  0
 28108  1  0  0  0
 29109  1  0  0  0
 29110  1  0  0  0
 33 34  1  0  0  0
 33 66  1  0  0  0
 33 70  2  0  0  0
 34 36  1  0  0  0
 34 59  1  0  0  0
 34111  1  0  0  0
 35 44  2  0  0  0
 35 45  1  0  0  0
 35 68  1  0  0  0
 36 56  1  0  0  0
 36112  1  0  0  0
 37 39  1  0  0  0
 37 47  1  0  0  0
 37 66  1  0  0  0
 37113  1  0  0  0
 38 43  2  0  0  0
 38 46  1  0  0  0
 38 47  1  0  0  0
 39 64  1  0  0  0
 39 67  2  0  0  0
 40 52  1  0  0  0
 40 53  2  0  0  0
 40 58  1  0  0  0
 41114  1  0  0  0
 41115  1  0  0  0
 41116  1  0  0  0
 41 48  1  0  0  0
 42 43  1  0  0  0
 42 66  1  0  0  0
 42117  1  0  0  0
 42118  1  0  0  0
 43 44  1  0  0  0
 44119  1  0  0  0
 45 46  2  0  0  0
 45120  1  0  0  0
 46121  1  0  0  0
 47122  1  0  0  0
 47123  1  0  0  0
 48 56  1  0  0  0
 48 65  1  0  0  0
 48124  1  0  0  0
 49 50  1  0  0  0
 49 53  1  0  0  0
 49 64  1  0  0  0
 49125  1  0  0  0
 50 51  1  0  0  0
 50126  1  0  0  0
 50127  1  0  0  0
 51 52  1  0  0  0
 51128  1  0  0  0
 51129  1  0  0  0
 52130  1  0  0  0
 52131  1  0  0  0
 53 54  1  0  0  0
 54 55  2  0  0  0
 54132  1  0  0  0
 55 57  1  0  0  0
 55133  1  0  0  0
 56 69  2  0  0  0
 57 58  2  0  0  0
 57134  1  0  0  0
 58135  1  0  0  0
 59 60  1  0  0  0
 59 61  1  0  0  0
 59 62  1  0  0  0
 60136  1  0  0  0
 60137  1  0  0  0
 60138  1  0  0  0
 61139  1  0  0  0
 61140  1  0  0  0
 61141  1  0  0  0
 62142  1  0  0  0
 62143  1  0  0  0
 62144  1  0  0  0
 63 65  1  0  0  0
 63145  1  0  0  0
 63146  1  0  0  0
 63147  1  0  0  0
 64148  1  0  0  0
 65149  1  0  0  0
 68 87  1  0  0  0
 71 73  2  0  0  0
 71 75  1  0  0  0
 71150  1  0  0  0
 72 74  1  0  0  0
 72 75  2  0  0  0
 72151  1  0  0  0
 73 76  1  0  0  0
 73152  1  0  0  0
 74 76  2  0  0  0
 74153  1  0  0  0
 75 86  1  0  0  0
 76 89  1  0  0  0
 77 79  1  0  0  0
 77 81  1  0  0  0
 77154  1  0  0  0
 77155  1  0  0  0
 78 80  1  0  0  0
 78 81  1  0  0  0
 78156  1  0  0  0
 78157  1  0  0  0
 79 82  1  0  0  0
 79158  1  0  0  0
 79159  1  0  0  0
 80 82  1  0  0  0
 80160  1  0  0  0
 80161  1  0  0  0
 81 87  1  0  0  0
 81162  1  0  0  0
 82 89  1  0  0  0
 82163  1  0  0  0
 83164  1  0  0  0
 83165  1  0  0  0
 83166  1  0  0  0
 83 88  1  0  0  0
 84 88  1  0  0  0
 84167  1  0  0  0
 84168  1  0  0  0
 84169  1  0  0  0
 85 90  1  0  0  0
 85170  1  0  0  0
 85171  1  0  0  0
 85172  1  0  0  0
 86 90  1  0  0  0
 86173  1  0  0  0
 86174  1  0  0  0
 87175  1  0  0  0
 87176  1  0  0  0
 88 89  1  0  0  0
 88177  1  0  0  0
M  ISO  4   1 100  68 101  87 101  90 100
M  END
> <chiral flag>
0

> <version>
0

> <s_m_source_file>
/data/baiqing/PycharmProjects/Reinvent-master-3.2/result/LINK_invent/BTK/process_docking_weight1_custom_product_contain_oxygen_bond_distance_aromatic_linkinvent_7_9_3/rearranged_h_0015.sdf

> <i_m_source_file_index>
70

> <r_mmod_Potential_Energy-OPLS-2005>
182.983520507812

> <r_mmod_Stretch_Energy-OPLS-2005>
50.2309913635254

> <r_mmod_Bend_Energy-OPLS-2005>
168.455627441406

> <r_mmod_Torsional_Energy-OPLS-2005>
310.250854492188

> <r_mmod_Improper_Torsional_Energy-OPLS-2005>
4.99617719650269

> <r_mmod_Van_der_Waal_Energy-OPLS-2005>
188.832733154297

> <r_mmod_Electrostatic_Energy-OPLS-2005>
-362.60302734375

> <r_mmod_Solvation_Energy-OPLS-2005>
-193.608993530273

> <b_mmod_Minimization_Converged-OPLS-2005>
0

> <r_mmod_RMS_Derivative-OPLS-2005>
7.04952573776245

$$$$
70
                    3D
 Structure written by MMmdl.
155163  0  0  1  0            999 V2000
  -30.6141  -14.6533   20.5046 C   0  0  0  0  0  0
  -30.4243  -12.4051   19.4551 C   0  0  0  0  0  0
  -29.5033  -12.5522   18.2240 C   0  0  0  0  0  0
  -28.0273  -12.3582   18.6232 C   0  0  0  0  0  0
  -27.6425  -13.2197   19.8567 C   0  0  2  0  0  0
  -28.6824  -13.0911   20.9928 C   0  0  0  0  0  0
  -25.2538  -13.8162   20.5708 C   0  0  0  0  0  0
  -24.1797  -13.0451   20.9194 C   0  0  0  0  0  0
  -24.6364  -11.6900   20.8723 C   0  0  0  0  0  0
  -23.9030  -10.4296   21.0381 C   0  0  0  0  0  0
  -24.3595   -9.4220   21.9168 C   0  0  0  0  0  0
  -23.6309   -8.2247   22.0720 C   0  0  0  0  0  0
  -22.4295   -8.0269   21.3521 C   0  0  0  0  0  0
  -21.9927   -9.0220   20.4614 C   0  0  0  0  0  0
  -22.7208  -10.2116   20.3029 C   0  0  0  0  0  0
  -21.6873   -6.0728   22.5266 C   0  0  0  0  0  0
  -21.4036   -6.5639   23.8205 C   0  0  0  0  0  0
  -21.3678   -5.6803   24.9181 C   0  0  0  0  0  0
  -21.6048   -4.3065   24.7247 C   0  0  0  0  0  0
  -21.8822   -3.8137   23.4375 C   0  0  0  0  0  0
  -21.9229   -4.6951   22.3415 C   0  0  0  0  0  0
  -22.7824  -13.5207   21.1899 C   0  0  0  0  0  0
  -22.1676   -4.2130   21.0994 F   0  0  0  0  0  0
  -21.5640   -3.4551   25.7760 F   0  0  0  0  0  0
  -30.0051  -13.4257   20.4351 N   0  0  0  0  0  0
  -26.2915  -12.9339   20.3282 N   0  0  0  0  0  0
  -25.9287  -11.6479   20.5689 N   0  0  0  0  0  0
  -22.0505  -12.8153   22.0429 N   0  0  0  0  0  0
  -25.4373  -15.1883   20.4108 N   0  0  0  0  0  0
  -31.7812  -14.8119   20.1361 O   0  0  0  0  0  0
  -21.6665   -6.8848   21.4218 O   0  0  0  0  0  0
  -22.3503  -14.5537   20.6795 O   0  0  0  0  0  0
  -24.6199  -31.8645   23.2017 C   0  0  0  0  0  0
  -25.9023  -32.4841   23.8379 C   0  0  1  0  0  0
  -27.2432  -27.3444   20.1332 C   0  0  0  0  0  0
  -25.5819  -33.8635   24.2296 N   0  0  0  0  0  0
  -23.4152  -30.4798   21.5527 C   0  0  2  0  0  0
  -24.8701  -28.9392   20.1153 C   0  0  0  0  0  0
  -22.7448  -29.4625   22.5046 C   0  0  0  0  0  0
  -18.0273  -28.1369   22.8523 C   0  0  0  0  0  0
  -24.1482  -36.7300   23.2650 C   0  0  0  0  0  0
  -25.9513  -30.8084   21.3698 C   0  0  0  0  0  0
  -26.0343  -29.4351   20.7133 C   0  0  0  0  0  0
  -27.2255  -28.6500   20.7111 C   0  0  0  0  0  0
  -26.0538  -26.8979   19.5112 C   0  0  0  0  0  0
  -24.8810  -27.6759   19.5067 C   0  0  0  0  0  0
  -23.6245  -29.8014   20.1713 C   0  0  0  0  0  0
  -25.4123  -36.3136   24.0346 C   0  0  1  0  0  0
  -20.5879  -28.3646   23.1348 C   0  0  2  0  0  0
  -20.6765  -26.9376   22.5457 C   0  0  0  0  0  0
  -19.5724  -26.6386   21.5258 C   0  0  0  0  0  0
  -18.1908  -26.7924   22.1657 C   0  0  0  0  0  0
  -19.1526  -28.8836   23.2921 C   0  0  0  0  0  0
  -18.9447  -30.1465   23.8891 C   0  0  0  0  0  0
  -17.6446  -30.6585   24.0563 C   0  0  0  0  0  0
  -25.9043  -34.9489   23.5149 C   0  0  0  0  0  0
  -16.5337  -29.9072   23.6347 C   0  0  0  0  0  0
  -16.7268  -28.6495   23.0357 C   0  0  0  0  0  0
  -26.4383  -31.6619   25.0725 C   0  0  0  0  0  0
  -25.3598  -31.3712   26.1428 C   0  0  0  0  0  0
  -27.0218  -30.3073   24.6134 C   0  0  0  0  0  0
  -27.5989  -32.4322   25.7473 C   0  0  0  0  0  0
  -27.5604  -37.1803   24.8467 C   0  0  0  0  0  0
  -21.4179  -29.2992   22.3748 N   0  0  0  0  0  0
  -26.4300  -37.3829   23.9418 N   0  0  0  0  0  0
  -24.6809  -31.0650   22.0983 N   0  0  0  0  0  0
  -23.4169  -28.8220   23.3153 O   0  0  0  0  0  0
  -28.3735  -26.5136   20.2020 O   0  0  0  0  0  0
  -26.5672  -34.8955   22.4756 O   0  0  0  0  0  0
  -23.5373  -32.1425   23.7360 O   0  0  0  0  0  0
  -28.7069  -17.9452   20.6341 C   0  0  0  0  0  0
  -28.7279  -19.3656   20.4939 C   0  0  0  0  0  0
  -31.1115  -17.8837   20.6166 C   0  0  0  0  0  0
  -29.8948  -17.1565   20.6812 C   0  0  0  0  0  0
  -29.9433  -20.0904   20.3880 C   0  0  0  0  0  0
  -31.1358  -19.3028   20.4687 C   0  0  0  0  0  0
  -30.6273  -21.7775   18.8312 C   0  0  0  0  0  0
  -29.3214  -24.0359   20.4808 C   0  0  0  0  0  0
  -28.9219  -22.4856   20.4889 C   0  0  0  0  0  0
  -28.1462  -25.0540   20.1731 C   0  0  0  0  0  0
  -29.7887  -15.6998   20.8330 N   0  0  0  0  0  0
  -29.9984  -21.5119   20.1287 N   0  0  0  0  0  0
  -32.3458  -19.9117   20.3923 F   0  0  0  0  0  0
  -31.4661  -12.5197   19.1585 H   0  0  0  0  0  0
  -30.3329  -11.4099   19.8881 H   0  0  0  0  0  0
  -29.7796  -11.8474   17.4351 H   0  0  0  0  0  0
  -29.6315  -13.5476   17.7941 H   0  0  0  0  0  0
  -27.8739  -11.2993   18.8373 H   0  0  0  0  0  0
  -27.3769  -12.5970   17.7804 H   0  0  0  0  0  0
  -27.6524  -14.2535   19.5159 H   0  0  0  0  0  0
  -28.6891  -12.0771   21.3952 H   0  0  0  0  0  0
  -28.4054  -13.7426   21.8254 H   0  0  0  0  0  0
  -25.2722   -9.5751   22.4731 H   0  0  0  0  0  0
  -24.0057   -7.4653   22.7421 H   0  0  0  0  0  0
  -21.0872   -8.8682   19.8904 H   0  0  0  0  0  0
  -22.3617  -10.9650   19.6129 H   0  0  0  0  0  0
  -21.1989   -7.6153   23.9681 H   0  0  0  0  0  0
  -21.1514   -6.0552   25.9070 H   0  0  0  0  0  0
  -22.0593   -2.7599   23.2884 H   0  0  0  0  0  0
  -22.4195  -11.9796   22.4748 H   0  0  0  0  0  0
  -21.1105  -13.1052   22.2635 H   0  0  0  0  0  0
  -24.6808  -15.8586   20.4721 H   0  0  0  0  0  0
  -26.2977  -15.5995   20.0724 H   0  0  0  0  0  0
  -26.7110  -32.5540   23.1167 H   0  0  0  0  0  0
  -24.9771  -33.9780   25.0306 H   0  0  0  0  0  0
  -22.7096  -31.3004   21.4085 H   0  0  0  0  0  0
  -23.3782  -35.9584   23.3293 H   0  0  0  0  0  0
  -24.3561  -36.8935   22.2059 H   0  0  0  0  0  0
  -23.7164  -37.6476   23.6677 H   0  0  0  0  0  0
  -26.0725  -31.5744   20.6029 H   0  0  0  0  0  0
  -26.8306  -30.8647   21.9969 H   0  0  0  0  0  0
  -28.1173  -29.0280   21.1920 H   0  0  0  0  0  0
  -25.9969  -25.9289   19.0387 H   0  0  0  0  0  0
  -23.9836  -27.2867   19.0452 H   0  0  0  0  0  0
  -23.7053  -30.5668   19.3990 H   0  0  0  0  0  0
  -22.7554  -29.2015   19.8976 H   0  0  0  0  0  0
  -25.1314  -36.2017   25.0842 H   0  0  0  0  0  0
  -20.9951  -28.3191   24.1470 H   0  0  0  0  0  0
  -20.5694  -26.2235   23.3628 H   0  0  0  0  0  0
  -21.6621  -26.7435   22.1222 H   0  0  0  0  0  0
  -19.6869  -25.6306   21.1243 H   0  0  0  0  0  0
  -19.6663  -27.3244   20.6813 H   0  0  0  0  0  0
  -17.4195  -26.6715   21.4037 H   0  0  0  0  0  0
  -18.0267  -26.0058   22.9033 H   0  0  0  0  0  0
  -19.7919  -30.7315   24.2215 H   0  0  0  0  0  0
  -17.4981  -31.6259   24.5151 H   0  0  0  0  0  0
  -15.5331  -30.2947   23.7676 H   0  0  0  0  0  0
  -15.8675  -28.0812   22.7042 H   0  0  0  0  0  0
  -24.5794  -30.7069   25.7686 H   0  0  0  0  0  0
  -24.8725  -32.2835   26.4883 H   0  0  0  0  0  0
  -25.7859  -30.8835   27.0193 H   0  0  0  0  0  0
  -26.2773  -29.6878   24.1115 H   0  0  0  0  0  0
  -27.3879  -29.7301   25.4626 H   0  0  0  0  0  0
  -27.8658  -30.4409   23.9368 H   0  0  0  0  0  0
  -27.2650  -33.3625   26.2086 H   0  0  0  0  0  0
  -28.3735  -32.6861   25.0223 H   0  0  0  0  0  0
  -28.0699  -31.8392   26.5323 H   0  0  0  0  0  0
  -28.2631  -38.0104   24.7601 H   0  0  0  0  0  0
  -28.1095  -36.2649   24.6211 H   0  0  0  0  0  0
  -27.2314  -37.1355   25.8864 H   0  0  0  0  0  0
  -20.9362  -29.8600   21.6851 H   0  0  0  0  0  0
  -26.0210  -38.2916   24.1414 H   0  0  0  0  0  0
  -27.7365  -17.4653   20.6830 H   0  0  0  0  0  0
  -27.7836  -19.8880   20.4303 H   0  0  0  0  0  0
  -32.0567  -17.3663   20.6755 H   0  0  0  0  0  0
  -31.5669  -22.3207   18.9593 H   0  0  0  0  0  0
  -29.9708  -22.3899   18.2088 H   0  0  0  0  0  0
  -30.8348  -20.8726   18.2571 H   0  0  0  0  0  0
  -30.1073  -24.2196   19.7482 H   0  0  0  0  0  0
  -29.7856  -24.2779   21.4409 H   0  0  0  0  0  0
  -28.1002  -22.3461   19.7854 H   0  0  0  0  0  0
  -28.5117  -22.2241   21.4688 H   0  0  0  0  0  0
  -27.3195  -24.8268   20.8513 H   0  0  0  0  0  0
  -27.8007  -24.7981   19.1718 H   0  0  0  0  0  0
  -28.8666  -15.3751   21.0809 H   0  0  0  0  0  0
  1 25  1  0  0  0
  1 30  2  0  0  0
  1 81  1  0  0  0
  2  3  1  0  0  0
  2 25  1  0  0  0
  2 84  1  0  0  0
  2 85  1  0  0  0
  3  4  1  0  0  0
  3 86  1  0  0  0
  3 87  1  0  0  0
  4  5  1  0  0  0
  4 88  1  0  0  0
  4 89  1  0  0  0
  5  6  1  0  0  0
  5 26  1  0  0  0
  5 90  1  0  0  0
  6 25  1  0  0  0
  6 91  1  0  0  0
  6 92  1  0  0  0
  7  8  2  0  0  0
  7 26  1  0  0  0
  7 29  1  0  0  0
  8  9  1  0  0  0
  8 22  1  0  0  0
  9 10  1  0  0  0
  9 27  2  0  0  0
 10 11  2  0  0  0
 10 15  1  0  0  0
 11 12  1  0  0  0
 11 93  1  0  0  0
 12 13  2  0  0  0
 12 94  1  0  0  0
 13 14  1  0  0  0
 13 31  1  0  0  0
 14 15  2  0  0  0
 14 95  1  0  0  0
 15 96  1  0  0  0
 16 17  2  0  0  0
 16 21  1  0  0  0
 16 31  1  0  0  0
 17 18  1  0  0  0
 17 97  1  0  0  0
 18 19  2  0  0  0
 18 98  1  0  0  0
 19 20  1  0  0  0
 19 24  1  0  0  0
 20 21  2  0  0  0
 20 99  1  0  0  0
 21 23  1  0  0  0
 22 28  1  0  0  0
 22 32  2  0  0  0
 26 27  1  0  0  0
 28100  1  0  0  0
 28101  1  0  0  0
 29102  1  0  0  0
 29103  1  0  0  0
 33 34  1  0  0  0
 33 66  1  0  0  0
 33 70  2  0  0  0
 34 36  1  0  0  0
 34 59  1  0  0  0
 34104  1  0  0  0
 35 44  2  0  0  0
 35 45  1  0  0  0
 35 68  1  0  0  0
 36 56  1  0  0  0
 36105  1  0  0  0
 37 39  1  0  0  0
 37 47  1  0  0  0
 37 66  1  0  0  0
 37106  1  0  0  0
 38 43  2  0  0  0
 38 46  1  0  0  0
 38 47  1  0  0  0
 39 64  1  0  0  0
 39 67  2  0  0  0
 40 52  1  0  0  0
 40 53  2  0  0  0
 40 58  1  0  0  0
 41107  1  0  0  0
 41108  1  0  0  0
 41109  1  0  0  0
 41 48  1  0  0  0
 42 43  1  0  0  0
 42 66  1  0  0  0
 42110  1  0  0  0
 42111  1  0  0  0
 43 44  1  0  0  0
 44112  1  0  0  0
 45 46  2  0  0  0
 45113  1  0  0  0
 46114  1  0  0  0
 47115  1  0  0  0
 47116  1  0  0  0
 48 56  1  0  0  0
 48 65  1  0  0  0
 48117  1  0  0  0
 49 50  1  0  0  0
 49 53  1  0  0  0
 49 64  1  0  0  0
 49118  1  0  0  0
 50 51  1  0  0  0
 50119  1  0  0  0
 50120  1  0  0  0
 51 52  1  0  0  0
 51121  1  0  0  0
 51122  1  0  0  0
 52123  1  0  0  0
 52124  1  0  0  0
 53 54  1  0  0  0
 54 55  2  0  0  0
 54125  1  0  0  0
 55 57  1  0  0  0
 55126  1  0  0  0
 56 69  2  0  0  0
 57 58  2  0  0  0
 57127  1  0  0  0
 58128  1  0  0  0
 59 60  1  0  0  0
 59 61  1  0  0  0
 59 62  1  0  0  0
 60129  1  0  0  0
 60130  1  0  0  0
 60131  1  0  0  0
 61132  1  0  0  0
 61133  1  0  0  0
 61134  1  0  0  0
 62135  1  0  0  0
 62136  1  0  0  0
 62137  1  0  0  0
 63 65  1  0  0  0
 63138  1  0  0  0
 63139  1  0  0  0
 63140  1  0  0  0
 64141  1  0  0  0
 65142  1  0  0  0
 68 80  1  0  0  0
 71 72  2  0  0  0
 71 74  1  0  0  0
 71143  1  0  0  0
 72 75  1  0  0  0
 72144  1  0  0  0
 73 74  2  0  0  0
 73 76  1  0  0  0
 73145  1  0  0  0
 74 81  1  0  0  0
 75 76  2  0  0  0
 75 82  1  0  0  0
 76 83  1  0  0  0
 77 82  1  0  0  0
 77146  1  0  0  0
 77147  1  0  0  0
 77148  1  0  0  0
 78 79  1  0  0  0
 78 80  1  0  0  0
 78149  1  0  0  0
 78150  1  0  0  0
 79 82  1  0  0  0
 79151  1  0  0  0
 79152  1  0  0  0
 80153  1  0  0  0
 80154  1  0  0  0
 81155  1  0  0  0
M  ISO  4   1 100  68 101  80 101  81 100
M  END
> <chiral flag>
0

> <version>
0

> <s_m_source_file>
/data/baiqing/PycharmProjects/Reinvent-master-3.2/result/LINK_invent/BTK/process_docking_weight1_custom_product_contain_oxygen_bond_distance_aromatic_linkinvent_7_9_3/rearranged_h_0015.sdf

> <i_m_source_file_index>
71

> <r_mmod_Potential_Energy-OPLS-2005>
110.158790588379

> <r_mmod_Stretch_Energy-OPLS-2005>
79.1269607543945

> <r_mmod_Bend_Energy-OPLS-2005>
138.864608764648

> <r_mmod_Torsional_Energy-OPLS-2005>
226.121536254883

> <r_mmod_Improper_Torsional_Energy-OPLS-2005>
8.08203792572021

> <r_mmod_Van_der_Waal_Energy-OPLS-2005>
151.491958618164

> <r_mmod_Electrostatic_Energy-OPLS-2005>
-315.649169921875

> <r_mmod_Solvation_Energy-OPLS-2005>
-225.186111450195

> <b_mmod_Minimization_Converged-OPLS-2005>
0

> <r_mmod_RMS_Derivative-OPLS-2005>
6.46886205673218

$$$$
71
                    3D
 Structure written by MMmdl.
144152  0  0  1  0            999 V2000
  -30.3016  -15.5936   20.3330 C   0  0  0  0  0  0
  -30.4322  -13.0478   19.5381 C   0  0  0  0  0  0
  -29.5516  -12.6463   18.3199 C   0  0  0  0  0  0
  -28.1208  -12.2989   18.7605 C   0  0  0  0  0  0
  -27.5993  -13.3022   19.8143 C   0  0  2  0  0  0
  -28.6188  -13.6099   20.9357 C   0  0  0  0  0  0
  -25.2336  -13.8274   20.5781 C   0  0  0  0  0  0
  -24.1721  -13.0430   20.9286 C   0  0  0  0  0  0
  -24.6416  -11.6940   20.8765 C   0  0  0  0  0  0
  -23.9116  -10.4290   21.0399 C   0  0  0  0  0  0
  -24.3651   -9.4203   21.9181 C   0  0  0  0  0  0
  -23.6312   -8.2245   22.0754 C   0  0  0  0  0  0
  -22.4293   -8.0286   21.3544 C   0  0  0  0  0  0
  -21.9939   -9.0262   20.4644 C   0  0  0  0  0  0
  -22.7282  -10.2133   20.3051 C   0  0  0  0  0  0
  -21.6858   -6.0741   22.5279 C   0  0  0  0  0  0
  -21.4018   -6.5643   23.8213 C   0  0  0  0  0  0
  -21.3660   -5.6794   24.9174 C   0  0  0  0  0  0
  -21.6044   -4.3057   24.7224 C   0  0  0  0  0  0
  -21.8818   -3.8150   23.4345 C   0  0  0  0  0  0
  -21.9194   -4.6967   22.3401 C   0  0  0  0  0  0
  -22.7733  -13.5164   21.1921 C   0  0  0  0  0  0
  -22.1662   -4.2153   21.0979 F   0  0  0  0  0  0
  -21.5627   -3.4540   25.7736 F   0  0  0  0  0  0
  -29.8004  -14.2228   20.2866 N   0  0  0  0  0  0
  -26.2783  -12.9596   20.3225 N   0  0  0  0  0  0
  -25.9361  -11.6673   20.5701 N   0  0  0  0  0  0
  -22.0398  -12.8141   22.0473 N   0  0  0  0  0  0
  -25.3917  -15.2015   20.4210 N   0  0  0  0  0  0
  -31.5362  -15.5649   20.1660 O   0  0  0  0  0  0
  -21.6648   -6.8888   21.4243 O   0  0  0  0  0  0
  -22.3408  -14.5463   20.6757 O   0  0  0  0  0  0
  -24.6832  -31.8009   23.1526 C   0  0  0  0  0  0
  -25.9416  -32.4473   23.8069 C   0  0  1  0  0  0
  -27.2273  -26.7145   20.2123 C   0  0  0  0  0  0
  -25.5997  -33.8297   24.1956 N   0  0  0  0  0  0
  -23.5090  -30.4034   21.5063 C   0  0  2  0  0  0
  -24.9669  -28.7474   20.1184 C   0  0  0  0  0  0
  -22.7765  -29.4320   22.4714 C   0  0  0  0  0  0
  -18.0339  -28.1421   22.8455 C   0  0  0  0  0  0
  -24.1495  -36.7156   23.2652 C   0  0  0  0  0  0
  -26.0896  -30.5379   21.4156 C   0  0  0  0  0  0
  -26.1563  -29.1041   20.7652 C   0  0  0  0  0  0
  -27.2729  -28.1157   20.7794 C   0  0  0  0  0  0
  -26.0047  -26.5656   19.5093 C   0  0  0  0  0  0
  -24.9295  -27.5032   19.4668 C   0  0  0  0  0  0
  -23.7627  -29.7013   20.1415 C   0  0  0  0  0  0
  -25.4145  -36.2898   24.0282 C   0  0  1  0  0  0
  -20.5975  -28.3780   23.1142 C   0  0  2  0  0  0
  -20.6805  -26.9440   22.5402 C   0  0  0  0  0  0
  -19.5781  -26.6371   21.5216 C   0  0  0  0  0  0
  -18.1964  -26.7949   22.1619 C   0  0  0  0  0  0
  -19.1605  -28.8925   23.2780 C   0  0  0  0  0  0
  -18.9510  -30.1509   23.8825 C   0  0  0  0  0  0
  -17.6500  -30.6603   24.0550 C   0  0  0  0  0  0
  -25.9124  -34.9288   23.4955 C   0  0  0  0  0  0
  -16.5390  -29.9085   23.6350 C   0  0  0  0  0  0
  -16.7319  -28.6507   23.0367 C   0  0  0  0  0  0
  -26.4596  -31.6504   25.0688 C   0  0  0  0  0  0
  -25.3663  -31.3819   26.1303 C   0  0  0  0  0  0
  -27.0528  -30.2843   24.6583 C   0  0  0  0  0  0
  -27.6043  -32.4365   25.7507 C   0  0  0  0  0  0
  -27.5564  -37.1735   24.8466 C   0  0  0  0  0  0
  -21.4413  -29.3029   22.3463 N   0  0  0  0  0  0
  -26.4271  -37.3658   23.9408 N   0  0  0  0  0  0
  -24.7840  -30.9466   22.0774 N   0  0  0  0  0  0
  -23.4212  -28.7920   23.3055 O   0  0  0  0  0  0
  -28.1830  -25.4928   20.2817 O   0  0  0  0  0  0
  -26.5764  -34.8864   22.4571 O   0  0  0  0  0  0
  -23.5853  -32.1078   23.6485 O   0  0  0  0  0  0
  -29.1864  -21.2038   21.2961 C   0  0  0  0  0  0
  -29.5251  -19.7038   21.3322 C   0  0  0  0  0  0
  -28.8232  -19.5007   19.2400 C   0  0  0  0  0  0
  -28.6201  -22.0687   20.2158 C   0  0  0  0  0  0
  -29.3947  -18.6266   20.3023 C   0  0  0  0  0  0
  -28.4875  -20.9923   19.1905 C   0  0  0  0  0  0
  -27.8600  -23.7779   20.1605 C   0  0  0  0  0  0
  -29.4723  -16.9061   20.3788 N   0  0  0  0  0  0
  -27.9202  -21.3953   18.0282 F   0  0  0  0  0  0
  -31.4267  -13.3114   19.1763 H   0  0  0  0  0  0
  -30.5873  -12.1958   20.2021 H   0  0  0  0  0  0
  -29.9968  -11.8060   17.7856 H   0  0  0  0  0  0
  -29.5201  -13.4772   17.6136 H   0  0  0  0  0  0
  -28.1388  -11.2969   19.1910 H   0  0  0  0  0  0
  -27.4515  -12.2539   17.9005 H   0  0  0  0  0  0
  -27.4695  -14.2305   19.2563 H   0  0  0  0  0  0
  -28.8684  -12.7182   21.5127 H   0  0  0  0  0  0
  -28.1944  -14.3244   21.6427 H   0  0  0  0  0  0
  -25.2790   -9.5677   22.4766 H   0  0  0  0  0  0
  -24.0012   -7.4637   22.7479 H   0  0  0  0  0  0
  -21.0868   -8.8790   19.8951 H   0  0  0  0  0  0
  -22.3741  -10.9675   19.6163 H   0  0  0  0  0  0
  -21.2013   -7.6151   23.9718 H   0  0  0  0  0  0
  -21.1482   -6.0524   25.9077 H   0  0  0  0  0  0
  -22.0596   -2.7612   23.2844 H   0  0  0  0  0  0
  -22.4039  -11.9816   22.4867 H   0  0  0  0  0  0
  -21.1004  -13.1136   22.2673 H   0  0  0  0  0  0
  -24.6150  -15.8449   20.5294 H   0  0  0  0  0  0
  -26.2212  -15.6436   20.0494 H   0  0  0  0  0  0
  -26.7498  -32.4949   23.0783 H   0  0  0  0  0  0
  -25.0057  -33.9338   25.0050 H   0  0  0  0  0  0
  -22.8338  -31.2406   21.3171 H   0  0  0  0  0  0
  -23.3775  -35.9466   23.3264 H   0  0  0  0  0  0
  -24.3563  -36.8867   22.2077 H   0  0  0  0  0  0
  -23.7237  -37.6314   23.6761 H   0  0  0  0  0  0
  -26.2919  -31.2640   20.6272 H   0  0  0  0  0  0
  -26.9406  -30.6049   22.0810 H   0  0  0  0  0  0
  -28.1677  -28.3947   21.3177 H   0  0  0  0  0  0
  -25.8373  -25.6241   19.0064 H   0  0  0  0  0  0
  -24.0320  -27.2211   18.9336 H   0  0  0  0  0  0
  -23.9373  -30.4617   19.3795 H   0  0  0  0  0  0
  -22.8679  -29.1672   19.8173 H   0  0  0  0  0  0
  -25.1354  -36.1662   25.0772 H   0  0  0  0  0  0
  -21.0057  -28.3405   24.1268 H   0  0  0  0  0  0
  -20.5668  -26.2405   23.3664 H   0  0  0  0  0  0
  -21.6666  -26.7382   22.1221 H   0  0  0  0  0  0
  -19.6937  -25.6262   21.1293 H   0  0  0  0  0  0
  -19.6724  -27.3141   20.6714 H   0  0  0  0  0  0
  -17.4233  -26.6691   21.4023 H   0  0  0  0  0  0
  -18.0353  -26.0108   22.9032 H   0  0  0  0  0  0
  -19.7985  -30.7344   24.2163 H   0  0  0  0  0  0
  -17.5050  -31.6276   24.5167 H   0  0  0  0  0  0
  -15.5387  -30.2963   23.7715 H   0  0  0  0  0  0
  -15.8720  -28.0801   22.7123 H   0  0  0  0  0  0
  -24.5873  -30.7141   25.7603 H   0  0  0  0  0  0
  -24.8823  -32.3039   26.4532 H   0  0  0  0  0  0
  -25.7841  -30.9111   27.0211 H   0  0  0  0  0  0
  -26.3245  -29.6457   24.1575 H   0  0  0  0  0  0
  -27.3957  -29.7289   25.5323 H   0  0  0  0  0  0
  -27.9224  -30.3970   24.0107 H   0  0  0  0  0  0
  -27.2582  -33.3736   26.1880 H   0  0  0  0  0  0
  -28.3959  -32.6815   25.0413 H   0  0  0  0  0  0
  -28.0596  -31.8632   26.5593 H   0  0  0  0  0  0
  -28.2549  -38.0060   24.7515 H   0  0  0  0  0  0
  -28.1092  -36.2582   24.6293 H   0  0  0  0  0  0
  -27.2278  -37.1370   25.8868 H   0  0  0  0  0  0
  -20.9716  -29.8687   21.6532 H   0  0  0  0  0  0
  -26.0099  -38.2706   24.1421 H   0  0  0  0  0  0
  -29.3322  -21.7147   22.2371 H   0  0  0  0  0  0
  -29.8713  -19.3546   22.2951 H   0  0  0  0  0  0
  -28.5530  -18.9719   18.3380 H   0  0  0  0  0  0
  -27.0570  -23.6664   20.8890 H   0  0  0  0  0  0
  -27.3400  -23.7344   19.2039 H   0  0  0  0  0  0
  -28.5227  -16.5674   20.4289 H   0  0  0  0  0  0
  1 25  1  0  0  0
  1 30  2  0  0  0
  1 78  1  0  0  0
  2  3  1  0  0  0
  2 25  1  0  0  0
  2 80  1  0  0  0
  2 81  1  0  0  0
  3  4  1  0  0  0
  3 82  1  0  0  0
  3 83  1  0  0  0
  4  5  1  0  0  0
  4 84  1  0  0  0
  4 85  1  0  0  0
  5  6  1  0  0  0
  5 26  1  0  0  0
  5 86  1  0  0  0
  6 25  1  0  0  0
  6 87  1  0  0  0
  6 88  1  0  0  0
  7  8  2  0  0  0
  7 26  1  0  0  0
  7 29  1  0  0  0
  8  9  1  0  0  0
  8 22  1  0  0  0
  9 10  1  0  0  0
  9 27  2  0  0  0
 10 11  2  0  0  0
 10 15  1  0  0  0
 11 12  1  0  0  0
 11 89  1  0  0  0
 12 13  2  0  0  0
 12 90  1  0  0  0
 13 14  1  0  0  0
 13 31  1  0  0  0
 14 15  2  0  0  0
 14 91  1  0  0  0
 15 92  1  0  0  0
 16 17  2  0  0  0
 16 21  1  0  0  0
 16 31  1  0  0  0
 17 18  1  0  0  0
 17 93  1  0  0  0
 18 19  2  0  0  0
 18 94  1  0  0  0
 19 20  1  0  0  0
 19 24  1  0  0  0
 20 21  2  0  0  0
 20 95  1  0  0  0
 21 23  1  0  0  0
 22 28  1  0  0  0
 22 32  2  0  0  0
 26 27  1  0  0  0
 28 96  1  0  0  0
 28 97  1  0  0  0
 29 98  1  0  0  0
 29 99  1  0  0  0
 33 34  1  0  0  0
 33 66  1  0  0  0
 33 70  2  0  0  0
 34 36  1  0  0  0
 34 59  1  0  0  0
 34100  1  0  0  0
 35 44  2  0  0  0
 35 45  1  0  0  0
 35 68  1  0  0  0
 36 56  1  0  0  0
 36101  1  0  0  0
 37 39  1  0  0  0
 37 47  1  0  0  0
 37 66  1  0  0  0
 37102  1  0  0  0
 38 43  2  0  0  0
 38 46  1  0  0  0
 38 47  1  0  0  0
 39 64  1  0  0  0
 39 67  2  0  0  0
 40 52  1  0  0  0
 40 53  2  0  0  0
 40 58  1  0  0  0
 41103  1  0  0  0
 41104  1  0  0  0
 41105  1  0  0  0
 41 48  1  0  0  0
 42 43  1  0  0  0
 42 66  1  0  0  0
 42106  1  0  0  0
 42107  1  0  0  0
 43 44  1  0  0  0
 44108  1  0  0  0
 45 46  2  0  0  0
 45109  1  0  0  0
 46110  1  0  0  0
 47111  1  0  0  0
 47112  1  0  0  0
 48 56  1  0  0  0
 48 65  1  0  0  0
 48113  1  0  0  0
 49 50  1  0  0  0
 49 53  1  0  0  0
 49 64  1  0  0  0
 49114  1  0  0  0
 50 51  1  0  0  0
 50115  1  0  0  0
 50116  1  0  0  0
 51 52  1  0  0  0
 51117  1  0  0  0
 51118  1  0  0  0
 52119  1  0  0  0
 52120  1  0  0  0
 53 54  1  0  0  0
 54 55  2  0  0  0
 54121  1  0  0  0
 55 57  1  0  0  0
 55122  1  0  0  0
 56 69  2  0  0  0
 57 58  2  0  0  0
 57123  1  0  0  0
 58124  1  0  0  0
 59 60  1  0  0  0
 59 61  1  0  0  0
 59 62  1  0  0  0
 60125  1  0  0  0
 60126  1  0  0  0
 60127  1  0  0  0
 61128  1  0  0  0
 61129  1  0  0  0
 61130  1  0  0  0
 62131  1  0  0  0
 62132  1  0  0  0
 62133  1  0  0  0
 63 65  1  0  0  0
 63134  1  0  0  0
 63135  1  0  0  0
 63136  1  0  0  0
 64137  1  0  0  0
 65138  1  0  0  0
 68 77  1  0  0  0
 71 72  2  0  0  0
 71 74  1  0  0  0
 71139  1  0  0  0
 72 75  1  0  0  0
 72140  1  0  0  0
 73 75  2  0  0  0
 73 76  1  0  0  0
 73141  1  0  0  0
 74 76  2  0  0  0
 74 77  1  0  0  0
 75 78  1  0  0  0
 76 79  1  0  0  0
 77142  1  0  0  0
 77143  1  0  0  0
 78144  1  0  0  0
M  ISO  4   1 100  68 101  77 101  78 100
M  END
> <chiral flag>
0

> <version>
0

> <s_m_source_file>
/data/baiqing/PycharmProjects/Reinvent-master-3.2/result/LINK_invent/BTK/process_docking_weight1_custom_product_contain_oxygen_bond_distance_aromatic_linkinvent_7_9_3/rearranged_h_0015.sdf

> <i_m_source_file_index>
72

> <r_mmod_Potential_Energy-OPLS-2005>
2286.2490234375

> <r_mmod_Stretch_Energy-OPLS-2005>
913.313842773438

> <r_mmod_Bend_Energy-OPLS-2005>
656.142639160156

> <r_mmod_Torsional_Energy-OPLS-2005>
260.506713867188

> <r_mmod_Improper_Torsional_Energy-OPLS-2005>
10.7463884353638

> <r_mmod_Van_der_Waal_Energy-OPLS-2005>
131.789093017578

> <r_mmod_Electrostatic_Energy-OPLS-2005>
-333.589508056641

> <r_mmod_Solvation_Energy-OPLS-2005>
-213.130996704102

> <b_mmod_Minimization_Converged-OPLS-2005>
1

> <r_mmod_RMS_Derivative-OPLS-2005>
0.0413532331585884

$$$$
72
                    3D
 Structure written by MMmdl.
163172  0  0  1  0            999 V2000
  -30.7343  -14.4038   20.6289 C   0  0  0  0  0  0
  -30.4207  -12.2904   19.3947 C   0  0  0  0  0  0
  -29.4861  -12.5122   18.1900 C   0  0  0  0  0  0
  -28.0079  -12.3756   18.6067 C   0  0  0  0  0  0
  -27.6632  -13.1967   19.8772 C   0  0  2  0  0  0
  -28.7051  -12.9456   20.9900 C   0  0  0  0  0  0
  -25.2606  -13.8143   20.5670 C   0  0  0  0  0  0
  -24.1852  -13.0427   20.9182 C   0  0  0  0  0  0
  -24.6380  -11.6889   20.8731 C   0  0  0  0  0  0
  -23.9040  -10.4292   21.0408 C   0  0  0  0  0  0
  -24.3600   -9.4206   21.9185 C   0  0  0  0  0  0
  -23.6280   -8.2240   22.0749 C   0  0  0  0  0  0
  -22.4266   -8.0279   21.3541 C   0  0  0  0  0  0
  -21.9903   -9.0250   20.4640 C   0  0  0  0  0  0
  -22.7214  -10.2136   20.3054 C   0  0  0  0  0  0
  -21.6846   -6.0737   22.5273 C   0  0  0  0  0  0
  -21.4009   -6.5636   23.8208 C   0  0  0  0  0  0
  -21.3663   -5.6793   24.9171 C   0  0  0  0  0  0
  -21.6041   -4.3049   24.7220 C   0  0  0  0  0  0
  -21.8824   -3.8149   23.4339 C   0  0  0  0  0  0
  -21.9190   -4.6963   22.3397 C   0  0  0  0  0  0
  -22.7883  -13.5247   21.1846 C   0  0  0  0  0  0
  -22.1661   -4.2144   21.0974 F   0  0  0  0  0  0
  -21.5635   -3.4538   25.7736 F   0  0  0  0  0  0
  -30.0403  -13.2491   20.4413 N   0  0  0  0  0  0
  -26.3030  -12.9283   20.3372 N   0  0  0  0  0  0
  -25.9296  -11.6458   20.5758 N   0  0  0  0  0  0
  -22.0514  -12.8233   22.0397 N   0  0  0  0  0  0
  -25.4328  -15.1856   20.4050 N   0  0  0  0  0  0
  -31.8315  -14.6287   20.1080 O   0  0  0  0  0  0
  -21.6631   -6.8880   21.4238 O   0  0  0  0  0  0
  -22.3570  -14.5546   20.6696 O   0  0  0  0  0  0
  -24.6151  -31.8688   23.2123 C   0  0  0  0  0  0
  -25.9034  -32.4838   23.8423 C   0  0  1  0  0  0
  -27.2310  -27.4334   20.0807 C   0  0  0  0  0  0
  -25.5866  -33.8639   24.2322 N   0  0  0  0  0  0
  -23.4041  -30.4991   21.5534 C   0  0  2  0  0  0
  -24.8474  -28.9710   20.1201 C   0  0  0  0  0  0
  -22.7414  -29.4698   22.4969 C   0  0  0  0  0  0
  -18.0268  -28.1415   22.8530 C   0  0  0  0  0  0
  -24.1478  -36.7349   23.2636 C   0  0  0  0  0  0
  -25.9379  -30.8352   21.3680 C   0  0  0  0  0  0
  -26.0145  -29.4743   20.7058 C   0  0  0  0  0  0
  -27.2118  -28.7188   20.6739 C   0  0  0  0  0  0
  -26.0298  -26.9451   19.5081 C   0  0  0  0  0  0
  -24.8499  -27.7047   19.5205 C   0  0  0  0  0  0
  -23.6120  -29.8375   20.1692 C   0  0  0  0  0  0
  -25.4113  -36.3137   24.0335 C   0  0  1  0  0  0
  -20.5866  -28.3718   23.1331 C   0  0  2  0  0  0
  -20.6752  -26.9447   22.5455 C   0  0  0  0  0  0
  -19.5727  -26.6421   21.5253 C   0  0  0  0  0  0
  -18.1902  -26.7972   22.1647 C   0  0  0  0  0  0
  -19.1523  -28.8879   23.2919 C   0  0  0  0  0  0
  -18.9448  -30.1480   23.8934 C   0  0  0  0  0  0
  -17.6448  -30.6613   24.0614 C   0  0  0  0  0  0
  -25.9034  -34.9499   23.5121 C   0  0  0  0  0  0
  -16.5339  -29.9139   23.6326 C   0  0  0  0  0  0
  -16.7256  -28.6553   23.0352 C   0  0  0  0  0  0
  -26.4457  -31.6632   25.0769 C   0  0  0  0  0  0
  -25.3700  -31.3736   26.1504 C   0  0  0  0  0  0
  -27.0313  -30.3054   24.6206 C   0  0  0  0  0  0
  -27.6020  -32.4401   25.7511 C   0  0  0  0  0  0
  -27.5594  -37.1813   24.8457 C   0  0  0  0  0  0
  -21.4127  -29.3079   22.3711 N   0  0  0  0  0  0
  -26.4312  -37.3816   23.9398 N   0  0  0  0  0  0
  -24.6715  -31.0803   22.1032 N   0  0  0  0  0  0
  -23.4179  -28.8212   23.3003 O   0  0  0  0  0  0
  -28.4043  -26.6943   20.0757 O   0  0  0  0  0  0
  -26.5611  -34.8962   22.4689 O   0  0  0  0  0  0
  -23.5332  -32.1461   23.7481 O   0  0  0  0  0  0
  -29.2737  -19.9243   22.2102 C   0  0  0  0  0  0
  -28.9441  -18.5927   21.8910 C   0  0  0  0  0  0
  -31.2460  -19.7755   20.7893 C   0  0  0  0  0  0
  -30.4284  -20.5279   21.6637 C   0  0  0  0  0  0
  -29.7574  -17.8458   21.0145 C   0  0  0  0  0  0
  -30.9099  -18.4454   20.4602 C   0  0  0  0  0  0
  -30.4322  -24.3371   21.2517 C   0  0  0  0  0  0
  -29.3779  -22.9296   20.1883 C   0  0  0  0  0  0
  -29.5346  -24.4448   20.0146 C   0  0  1  0  0  0
  -30.5381  -15.6093   22.7272 C   0  0  0  0  0  0
  -29.3628  -16.4136   20.6631 C   0  0  0  0  0  0
  -30.7853  -21.9707   22.0336 C   0  0  0  0  0  0
  -28.2469  -25.2706   19.9700 C   0  0  0  0  0  0
  -30.0993  -15.3430   21.3569 N   0  0  0  0  0  0
  -30.6497  -22.9256   20.9047 N   0  3  2  0  0  0
  -31.6950  -17.7504   19.6041 F   0  0  0  0  0  0
  -31.4621  -12.3978   19.0865 H   0  0  0  0  0  0
  -30.3245  -11.2718   19.7724 H   0  0  0  0  0  0
  -29.7155  -11.7979   17.3976 H   0  0  0  0  0  0
  -29.6562  -13.5047   17.7671 H   0  0  0  0  0  0
  -27.8087  -11.3183   18.7840 H   0  0  0  0  0  0
  -27.3559  -12.6714   17.7835 H   0  0  0  0  0  0
  -27.7157  -14.2487   19.5970 H   0  0  0  0  0  0
  -28.6762  -11.9032   21.3100 H   0  0  0  0  0  0
  -28.4652  -13.5284   21.8799 H   0  0  0  0  0  0
  -25.2752   -9.5689   22.4750 H   0  0  0  0  0  0
  -23.9991   -7.4641   22.7465 H   0  0  0  0  0  0
  -21.0837   -8.8767   19.8944 H   0  0  0  0  0  0
  -22.3669  -10.9680   19.6166 H   0  0  0  0  0  0
  -21.1999   -7.6147   23.9708 H   0  0  0  0  0  0
  -21.1480   -6.0521   25.9073 H   0  0  0  0  0  0
  -22.0600   -2.7604   23.2836 H   0  0  0  0  0  0
  -22.4137  -11.9894   22.4773 H   0  0  0  0  0  0
  -21.1130  -13.1256   22.2593 H   0  0  0  0  0  0
  -24.6645  -15.8405   20.5057 H   0  0  0  0  0  0
  -26.2810  -15.6213   20.0679 H   0  0  0  0  0  0
  -26.7100  -32.5561   23.1191 H   0  0  0  0  0  0
  -24.9918  -33.9829   25.0388 H   0  0  0  0  0  0
  -22.6945  -31.3165   21.4141 H   0  0  0  0  0  0
  -23.3760  -35.9657   23.3310 H   0  0  0  0  0  0
  -24.3540  -36.8982   22.2053 H   0  0  0  0  0  0
  -23.7234  -37.6537   23.6695 H   0  0  0  0  0  0
  -26.0547  -31.6072   20.6048 H   0  0  0  0  0  0
  -26.8245  -30.8833   21.9892 H   0  0  0  0  0  0
  -28.1184  -29.1109   21.1142 H   0  0  0  0  0  0
  -25.9552  -25.9772   19.0382 H   0  0  0  0  0  0
  -23.9490  -27.3061   19.0738 H   0  0  0  0  0  0
  -23.7191  -30.6162   19.4134 H   0  0  0  0  0  0
  -22.7363  -29.2588   19.8725 H   0  0  0  0  0  0
  -25.1269  -36.2005   25.0818 H   0  0  0  0  0  0
  -20.9944  -28.3330   24.1461 H   0  0  0  0  0  0
  -20.5699  -26.2329   23.3644 H   0  0  0  0  0  0
  -21.6618  -26.7532   22.1229 H   0  0  0  0  0  0
  -19.6894  -25.6342   21.1267 H   0  0  0  0  0  0
  -19.6657  -27.3239   20.6798 H   0  0  0  0  0  0
  -17.4170  -26.6776   21.4032 H   0  0  0  0  0  0
  -18.0256  -26.0121   22.9033 H   0  0  0  0  0  0
  -19.7915  -30.7297   24.2320 H   0  0  0  0  0  0
  -17.5007  -31.6284   24.5242 H   0  0  0  0  0  0
  -15.5339  -30.3049   23.7645 H   0  0  0  0  0  0
  -15.8658  -28.0887   22.7034 H   0  0  0  0  0  0
  -24.5902  -30.7046   25.7850 H   0  0  0  0  0  0
  -24.8841  -32.2878   26.4914 H   0  0  0  0  0  0
  -25.8042  -30.8950   27.0295 H   0  0  0  0  0  0
  -26.2892  -29.6775   24.1265 H   0  0  0  0  0  0
  -27.4036  -29.7330   25.4710 H   0  0  0  0  0  0
  -27.8740  -30.4326   23.9411 H   0  0  0  0  0  0
  -27.2613  -33.3697   26.2085 H   0  0  0  0  0  0
  -28.3805  -32.6989   25.0325 H   0  0  0  0  0  0
  -28.0741  -31.8568   26.5420 H   0  0  0  0  0  0
  -28.2607  -38.0120   24.7520 H   0  0  0  0  0  0
  -28.1115  -36.2645   24.6280 H   0  0  0  0  0  0
  -27.2313  -37.1456   25.8863 H   0  0  0  0  0  0
  -20.9260  -29.8776   21.6921 H   0  0  0  0  0  0
  -26.0205  -38.2895   24.1426 H   0  0  0  0  0  0
  -28.6313  -20.4756   22.8841 H   0  0  0  0  0  0
  -28.0593  -18.1454   22.3243 H   0  0  0  0  0  0
  -32.1361  -20.2103   20.3581 H   0  0  0  0  0  0
  -29.8965  -24.4834   22.1907 H   0  0  0  0  0  0
  -31.3415  -24.9380   21.2083 H   0  0  0  0  0  0
  -29.3869  -22.3549   19.2620 H   0  0  0  0  0  0
  -28.5313  -22.6535   20.8230 H   0  0  0  0  0  0
  -30.1551  -24.6494   19.1401 H   0  0  0  0  0  0
  -29.7335  -16.0627   23.3066 H   0  0  0  0  0  0
  -31.3961  -16.2826   22.7345 H   0  0  0  0  0  0
  -30.8257  -14.6860   23.2339 H   0  0  0  0  0  0
  -29.4458  -16.2994   19.5798 H   0  0  0  0  0  0
  -28.3048  -16.2751   20.8856 H   0  0  0  0  0  0
  -31.8058  -22.0086   22.4143 H   0  0  0  0  0  0
  -30.1475  -22.2891   22.8587 H   0  0  0  0  0  0
  -27.5631  -24.9341   20.7523 H   0  0  0  0  0  0
  -27.7793  -25.0280   19.0167 H   0  0  0  0  0  0
  -31.4114  -22.8274   20.2503 H   0  0  0  0  0  0
  1 25  1  0  0  0
  1 30  2  0  0  0
  1 84  1  0  0  0
  2  3  1  0  0  0
  2 25  1  0  0  0
  2 87  1  0  0  0
  2 88  1  0  0  0
  3  4  1  0  0  0
  3 89  1  0  0  0
  3 90  1  0  0  0
  4  5  1  0  0  0
  4 91  1  0  0  0
  4 92  1  0  0  0
  5  6  1  0  0  0
  5 26  1  0  0  0
  5 93  1  0  0  0
  6 25  1  0  0  0
  6 94  1  0  0  0
  6 95  1  0  0  0
  7  8  2  0  0  0
  7 26  1  0  0  0
  7 29  1  0  0  0
  8  9  1  0  0  0
  8 22  1  0  0  0
  9 10  1  0  0  0
  9 27  2  0  0  0
 10 11  2  0  0  0
 10 15  1  0  0  0
 11 12  1  0  0  0
 11 96  1  0  0  0
 12 13  2  0  0  0
 12 97  1  0  0  0
 13 14  1  0  0  0
 13 31  1  0  0  0
 14 15  2  0  0  0
 14 98  1  0  0  0
 15 99  1  0  0  0
 16 17  2  0  0  0
 16 21  1  0  0  0
 16 31  1  0  0  0
 17 18  1  0  0  0
 17100  1  0  0  0
 18 19  2  0  0  0
 18101  1  0  0  0
 19 20  1  0  0  0
 19 24  1  0  0  0
 20 21  2  0  0  0
 20102  1  0  0  0
 21 23  1  0  0  0
 22 28  1  0  0  0
 22 32  2  0  0  0
 26 27  1  0  0  0
 28103  1  0  0  0
 28104  1  0  0  0
 29105  1  0  0  0
 29106  1  0  0  0
 33 34  1  0  0  0
 33 66  1  0  0  0
 33 70  2  0  0  0
 34 36  1  0  0  0
 34 59  1  0  0  0
 34107  1  0  0  0
 35 44  2  0  0  0
 35 45  1  0  0  0
 35 68  1  0  0  0
 36 56  1  0  0  0
 36108  1  0  0  0
 37 39  1  0  0  0
 37 47  1  0  0  0
 37 66  1  0  0  0
 37109  1  0  0  0
 38 43  2  0  0  0
 38 46  1  0  0  0
 38 47  1  0  0  0
 39 64  1  0  0  0
 39 67  2  0  0  0
 40 52  1  0  0  0
 40 53  2  0  0  0
 40 58  1  0  0  0
 41110  1  0  0  0
 41111  1  0  0  0
 41112  1  0  0  0
 41 48  1  0  0  0
 42 43  1  0  0  0
 42 66  1  0  0  0
 42113  1  0  0  0
 42114  1  0  0  0
 43 44  1  0  0  0
 44115  1  0  0  0
 45 46  2  0  0  0
 45116  1  0  0  0
 46117  1  0  0  0
 47118  1  0  0  0
 47119  1  0  0  0
 48 56  1  0  0  0
 48 65  1  0  0  0
 48120  1  0  0  0
 49 50  1  0  0  0
 49 53  1  0  0  0
 49 64  1  0  0  0
 49121  1  0  0  0
 50 51  1  0  0  0
 50122  1  0  0  0
 50123  1  0  0  0
 51 52  1  0  0  0
 51124  1  0  0  0
 51125  1  0  0  0
 52126  1  0  0  0
 52127  1  0  0  0
 53 54  1  0  0  0
 54 55  2  0  0  0
 54128  1  0  0  0
 55 57  1  0  0  0
 55129  1  0  0  0
 56 69  2  0  0  0
 57 58  2  0  0  0
 57130  1  0  0  0
 58131  1  0  0  0
 59 60  1  0  0  0
 59 61  1  0  0  0
 59 62  1  0  0  0
 60132  1  0  0  0
 60133  1  0  0  0
 60134  1  0  0  0
 61135  1  0  0  0
 61136  1  0  0  0
 61137  1  0  0  0
 62138  1  0  0  0
 62139  1  0  0  0
 62140  1  0  0  0
 63 65  1  0  0  0
 63141  1  0  0  0
 63142  1  0  0  0
 63143  1  0  0  0
 64144  1  0  0  0
 65145  1  0  0  0
 68 83  1  0  0  0
 71 72  2  0  0  0
 71 74  1  0  0  0
 71146  1  0  0  0
 72 75  1  0  0  0
 72147  1  0  0  0
 73 74  2  0  0  0
 73 76  1  0  0  0
 73148  1  0  0  0
 74 82  1  0  0  0
 75 76  2  0  0  0
 75 81  1  0  0  0
 76 86  1  0  0  0
 77 79  1  0  0  0
 77 85  1  0  0  0
 77149  1  0  0  0
 77150  1  0  0  0
 78 79  1  0  0  0
 78 85  1  0  0  0
 78151  1  0  0  0
 78152  1  0  0  0
 79 83  1  0  0  0
 79153  1  0  0  0
 80 84  1  0  0  0
 80154  1  0  0  0
 80155  1  0  0  0
 80156  1  0  0  0
 81 84  1  0  0  0
 81157  1  0  0  0
 81158  1  0  0  0
 82159  1  0  0  0
 82160  1  0  0  0
 82 85  1  0  0  0
 83161  1  0  0  0
 83162  1  0  0  0
 85163  1  0  0  0
M  CHG  1  85   1
M  ISO  4   1 100  68 101  83 101  84 100
M  END
> <chiral flag>
0

> <version>
0

> <s_m_source_file>
/data/baiqing/PycharmProjects/Reinvent-master-3.2/result/LINK_invent/BTK/process_docking_weight1_custom_product_contain_oxygen_bond_distance_aromatic_linkinvent_7_9_3/rearranged_h_0015.sdf

> <i_m_source_file_index>
73

> <r_mmod_Potential_Energy-OPLS-2005>
-69.4372863769531

> <r_mmod_Stretch_Energy-OPLS-2005>
36.4960746765137

> <r_mmod_Bend_Energy-OPLS-2005>
107.331367492676

> <r_mmod_Torsional_Energy-OPLS-2005>
297.303131103516

> <r_mmod_Improper_Torsional_Energy-OPLS-2005>
3.64060163497925

> <r_mmod_Van_der_Waal_Energy-OPLS-2005>
154.060409545898

> <r_mmod_Electrostatic_Energy-OPLS-2005>
-221.041564941406

> <r_mmod_Solvation_Energy-OPLS-2005>
-457.254089355469

> <b_mmod_Minimization_Converged-OPLS-2005>
0

> <r_mmod_RMS_Derivative-OPLS-2005>
2.4060206413269

$$$$
73
                    3D
 Structure written by MMmdl.
194204  0  0  1  0            999 V2000
  -30.8824  -14.2380   20.8006 C   0  0  0  0  0  0
  -30.3904  -12.2767   19.3915 C   0  0  0  0  0  0
  -29.4739  -12.5419   18.1871 C   0  0  0  0  0  0
  -28.0022  -12.3885   18.5935 C   0  0  0  0  0  0
  -27.6642  -13.2120   19.8546 C   0  0  2  0  0  0
  -28.6860  -12.9907   20.9858 C   0  0  0  0  0  0
  -25.2616  -13.8193   20.5623 C   0  0  0  0  0  0
  -24.1875  -13.0460   20.9113 C   0  0  0  0  0  0
  -24.6433  -11.6926   20.8661 C   0  0  0  0  0  0
  -23.9087  -10.4297   21.0398 C   0  0  0  0  0  0
  -24.3634   -9.4239   21.9185 C   0  0  0  0  0  0
  -23.6306   -8.2273   22.0774 C   0  0  0  0  0  0
  -22.4300   -8.0286   21.3535 C   0  0  0  0  0  0
  -21.9910   -9.0274   20.4684 C   0  0  0  0  0  0
  -22.7246  -10.2159   20.3070 C   0  0  0  0  0  0
  -21.6893   -6.0726   22.5262 C   0  0  0  0  0  0
  -21.4054   -6.5644   23.8185 C   0  0  0  0  0  0
  -21.3646   -5.6790   24.9148 C   0  0  0  0  0  0
  -21.6044   -4.3050   24.7214 C   0  0  0  0  0  0
  -21.8825   -3.8147   23.4335 C   0  0  0  0  0  0
  -21.9218   -4.6967   22.3390 C   0  0  0  0  0  0
  -22.7908  -13.5239   21.1840 C   0  0  0  0  0  0
  -22.1662   -4.2139   21.0964 F   0  0  0  0  0  0
  -21.5624   -3.4529   25.7716 F   0  0  0  0  0  0
  -30.0665  -13.1872   20.5066 N   0  0  0  0  0  0
  -26.3047  -12.9384   20.3233 N   0  0  0  0  0  0
  -25.9358  -11.6529   20.5678 N   0  0  0  0  0  0
  -22.0568  -12.8257   22.0419 N   0  0  0  0  0  0
  -25.4329  -15.1924   20.4076 N   0  0  0  0  0  0
  -31.6384  -14.7126   19.9404 O   0  0  0  0  0  0
  -21.6687   -6.8863   21.4215 O   0  0  0  0  0  0
  -22.3564  -14.5544   20.6708 O   0  0  0  0  0  0
  -24.6136  -31.8725   23.2122 C   0  0  0  0  0  0
  -25.9041  -32.4846   23.8408 C   0  0  1  0  0  0
  -27.2181  -27.4512   20.0703 C   0  0  0  0  0  0
  -25.5904  -33.8642   24.2347 N   0  0  0  0  0  0
  -23.3958  -30.5005   21.5562 C   0  0  2  0  0  0
  -24.8278  -28.9645   20.1273 C   0  0  0  0  0  0
  -22.7385  -29.4701   22.5020 C   0  0  0  0  0  0
  -18.0270  -28.1373   22.8496 C   0  0  0  0  0  0
  -24.1485  -36.7329   23.2639 C   0  0  0  0  0  0
  -25.9229  -30.8455   21.3552 C   0  0  0  0  0  0
  -25.9934  -29.4804   20.7039 C   0  0  0  0  0  0
  -27.1887  -28.7346   20.6620 C   0  0  0  0  0  0
  -26.0091  -26.9203   19.5683 C   0  0  0  0  0  0
  -24.8276  -27.6806   19.5650 C   0  0  0  0  0  0
  -23.5986  -29.8381   20.1699 C   0  0  0  0  0  0
  -25.4105  -36.3133   24.0346 C   0  0  1  0  0  0
  -20.5861  -28.3665   23.1323 C   0  0  2  0  0  0
  -20.6771  -26.9411   22.5409 C   0  0  0  0  0  0
  -19.5744  -26.6395   21.5211 C   0  0  0  0  0  0
  -18.1926  -26.7915   22.1634 C   0  0  0  0  0  0
  -19.1521  -28.8830   23.2911 C   0  0  0  0  0  0
  -18.9453  -30.1436   23.8922 C   0  0  0  0  0  0
  -17.6460  -30.6584   24.0570 C   0  0  0  0  0  0
  -25.9036  -34.9496   23.5145 C   0  0  0  0  0  0
  -16.5347  -29.9094   23.6321 C   0  0  0  0  0  0
  -16.7263  -28.6510   23.0339 C   0  0  0  0  0  0
  -26.4472  -31.6599   25.0716 C   0  0  0  0  0  0
  -25.3761  -31.3686   26.1482 C   0  0  0  0  0  0
  -27.0281  -30.3048   24.6044 C   0  0  0  0  0  0
  -27.6066  -32.4295   25.7468 C   0  0  0  0  0  0
  -27.5583  -37.1823   24.8472 C   0  0  0  0  0  0
  -21.4122  -29.3046   22.3741 N   0  0  0  0  0  0
  -26.4298  -37.3810   23.9414 N   0  0  0  0  0  0
  -24.6637  -31.0867   22.0997 N   0  0  0  0  0  0
  -23.4167  -28.8234   23.3058 O   0  0  0  0  0  0
  -28.4570  -26.8540   19.9854 O   0  0  0  0  0  0
  -26.5598  -34.8943   22.4706 O   0  0  0  0  0  0
  -23.5344  -32.1463   23.7541 O   0  0  0  0  0  0
  -28.7652  -21.6855   22.8708 C   0  0  0  0  0  0
  -26.7264  -20.5257   22.2151 C   0  0  0  0  0  0
  -28.8841  -22.2135   21.5708 C   0  0  0  0  0  0
  -26.8450  -21.0518   20.9128 C   0  0  0  0  0  0
  -28.1702  -15.3352   24.0363 C   0  0  0  0  0  0
  -30.0075  -16.8218   23.4958 C   0  0  0  0  0  0
  -27.3812  -16.4439   24.3979 C   0  0  0  0  0  0
  -29.2115  -17.9304   23.8468 C   0  0  0  0  0  0
  -27.6971  -20.8247   23.1963 C   0  0  0  0  0  0
  -29.4961  -15.5106   23.5938 C   0  0  0  0  0  0
  -27.9323  -21.8889   20.5809 C   0  0  0  0  0  0
  -27.8860  -17.7669   24.3188 C   0  0  0  0  0  0
  -30.2738  -25.5089   19.2345 C   0  0  0  0  0  0
  -30.9179  -27.9484   16.5369 C   0  0  0  0  0  0
  -32.3168  -27.7440   17.0988 C   0  0  0  0  0  0
  -29.9997  -27.4576   17.6537 C   0  0  0  0  0  0
  -32.1811  -26.5177   18.0062 C   0  0  0  0  0  0
  -25.7626  -18.6614   25.2598 C   0  0  0  0  0  0
  -32.6071  -14.8260   22.4221 C   0  0  0  0  0  0
  -26.0745  -23.2397   18.0370 C   0  0  0  0  0  0
  -27.6060  -20.2561   24.6067 C   0  0  0  0  0  0
  -30.3689  -14.2901   23.3067 C   0  0  0  0  0  0
  -28.0988  -22.4021   19.1577 C   0  0  0  0  0  0
  -27.9965  -24.7831   18.4097 C   0  0  0  0  0  0
  -28.7622  -25.5097   19.5674 C   0  0  2  0  0  0
  -30.7702  -26.4503   18.3921 N   0  0  0  0  0  0
  -27.1009  -18.8813   24.7127 N   0  0  0  0  0  0
  -31.2315  -14.3902   22.1115 N   0  0  0  0  0  0
  -27.2369  -23.5863   18.8920 N   0  3  1  0  0  0
  -30.9972  -24.6390   19.7322 O   0  0  0  0  0  0
  -31.4351  -12.3554   19.0849 H   0  0  0  0  0  0
  -30.2587  -11.2479   19.7266 H   0  0  0  0  0  0
  -29.7008  -11.8459   17.3764 H   0  0  0  0  0  0
  -29.6529  -13.5453   17.7965 H   0  0  0  0  0  0
  -27.8140  -11.3289   18.7693 H   0  0  0  0  0  0
  -27.3472  -12.6809   17.7692 H   0  0  0  0  0  0
  -27.7213  -14.2642   19.5716 H   0  0  0  0  0  0
  -28.5959  -11.9909   21.4108 H   0  0  0  0  0  0
  -28.4080  -13.6972   21.7606 H   0  0  0  0  0  0
  -25.2771   -9.5753   22.4752 H   0  0  0  0  0  0
  -24.0016   -7.4701   22.7518 H   0  0  0  0  0  0
  -21.0833   -8.8843   19.8985 H   0  0  0  0  0  0
  -22.3700  -10.9726   19.6202 H   0  0  0  0  0  0
  -21.2059   -7.6149   23.9684 H   0  0  0  0  0  0
  -21.1446   -6.0524   25.9040 H   0  0  0  0  0  0
  -22.0615   -2.7616   23.2860 H   0  0  0  0  0  0
  -22.4171  -11.9859   22.4711 H   0  0  0  0  0  0
  -21.1214  -13.1323   22.2664 H   0  0  0  0  0  0
  -24.6691  -15.8438   20.5466 H   0  0  0  0  0  0
  -26.2995  -15.6454   20.1442 H   0  0  0  0  0  0
  -26.7105  -32.5554   23.1170 H   0  0  0  0  0  0
  -25.0049  -33.9809   25.0489 H   0  0  0  0  0  0
  -22.6841  -31.3174   21.4216 H   0  0  0  0  0  0
  -23.3741  -35.9670   23.3327 H   0  0  0  0  0  0
  -24.3577  -36.8914   22.2049 H   0  0  0  0  0  0
  -23.7247  -37.6551   23.6623 H   0  0  0  0  0  0
  -26.0319  -31.6104   20.5849 H   0  0  0  0  0  0
  -26.8146  -30.8968   21.9683 H   0  0  0  0  0  0
  -28.0992  -29.1521   21.0693 H   0  0  0  0  0  0
  -25.9160  -25.9305   19.1749 H   0  0  0  0  0  0
  -23.9205  -27.2609   19.1505 H   0  0  0  0  0  0
  -23.7187  -30.6144   19.4130 H   0  0  0  0  0  0
  -22.7190  -29.2665   19.8697 H   0  0  0  0  0  0
  -25.1277  -36.2012   25.0839 H   0  0  0  0  0  0
  -20.9953  -28.3235   24.1443 H   0  0  0  0  0  0
  -20.5693  -26.2284   23.3600 H   0  0  0  0  0  0
  -21.6645  -26.7478   22.1195 H   0  0  0  0  0  0
  -19.6915  -25.6316   21.1223 H   0  0  0  0  0  0
  -19.6666  -27.3226   20.6756 H   0  0  0  0  0  0
  -17.4194  -26.6650   21.4041 H   0  0  0  0  0  0
  -18.0338  -26.0055   22.9033 H   0  0  0  0  0  0
  -19.7935  -30.7234   24.2310 H   0  0  0  0  0  0
  -17.5025  -31.6266   24.5166 H   0  0  0  0  0  0
  -15.5354  -30.3011   23.7621 H   0  0  0  0  0  0
  -15.8663  -28.0841   22.7030 H   0  0  0  0  0  0
  -24.5915  -30.7049   25.7827 H   0  0  0  0  0  0
  -24.8973  -32.2832   26.4987 H   0  0  0  0  0  0
  -25.8141  -30.8818   27.0205 H   0  0  0  0  0  0
  -26.2796  -29.6820   24.1126 H   0  0  0  0  0  0
  -27.4100  -29.7270   25.4472 H   0  0  0  0  0  0
  -27.8612  -30.4386   23.9139 H   0  0  0  0  0  0
  -27.2694  -33.3566   26.2120 H   0  0  0  0  0  0
  -28.3829  -32.6902   25.0260 H   0  0  0  0  0  0
  -28.0779  -31.8367   26.5321 H   0  0  0  0  0  0
  -28.2627  -38.0096   24.7507 H   0  0  0  0  0  0
  -28.1052  -36.2634   24.6306 H   0  0  0  0  0  0
  -27.2307  -37.1496   25.8878 H   0  0  0  0  0  0
  -20.9264  -29.8786   21.6987 H   0  0  0  0  0  0
  -26.0197  -38.2897   24.1393 H   0  0  0  0  0  0
  -29.5062  -21.9353   23.6180 H   0  0  0  0  0  0
  -25.8922  -19.8810   22.4553 H   0  0  0  0  0  0
  -29.7250  -22.8509   21.3351 H   0  0  0  0  0  0
  -26.1029  -20.7941   20.1708 H   0  0  0  0  0  0
  -27.7460  -14.3452   24.1246 H   0  0  0  0  0  0
  -31.0228  -16.9964   23.1724 H   0  0  0  0  0  0
  -26.3815  -16.2358   24.7484 H   0  0  0  0  0  0
  -29.6587  -18.9085   23.7611 H   0  0  0  0  0  0
  -30.7803  -27.3237   15.6530 H   0  0  0  0  0  0
  -30.7179  -28.9810   16.2476 H   0  0  0  0  0  0
  -32.6026  -28.6134   17.6932 H   0  0  0  0  0  0
  -33.0686  -27.6146   16.3189 H   0  0  0  0  0  0
  -29.0699  -27.0673   17.2391 H   0  0  0  0  0  0
  -29.7489  -28.2847   18.3208 H   0  0  0  0  0  0
  -32.8392  -26.5896   18.8739 H   0  0  0  0  0  0
  -32.4450  -25.6101   17.4610 H   0  0  0  0  0  0
  -25.0846  -18.2882   24.4903 H   0  0  0  0  0  0
  -25.3267  -19.5816   25.6488 H   0  0  0  0  0  0
  -25.7870  -17.9441   26.0829 H   0  0  0  0  0  0
  -33.3242  -14.0925   22.0497 H   0  0  0  0  0  0
  -32.8087  -14.9427   23.4868 H   0  0  0  0  0  0
  -32.8310  -15.7858   21.9518 H   0  0  0  0  0  0
  -25.4444  -22.4988   18.5291 H   0  0  0  0  0  0
  -26.3954  -22.8281   17.0799 H   0  0  0  0  0  0
  -25.4422  -24.1022   17.8320 H   0  0  0  0  0  0
  -26.9776  -20.9269   25.1920 H   0  0  0  0  0  0
  -28.5836  -20.3126   25.0861 H   0  0  0  0  0  0
  -29.7882  -13.3727   23.3065 H   0  0  0  0  0  0
  -30.9823  -14.1510   24.1960 H   0  0  0  0  0  0
  -27.8841  -21.5923   18.4596 H   0  0  0  0  0  0
  -29.1518  -22.6358   18.9920 H   0  0  0  0  0  0
  -28.6815  -24.4294   17.6362 H   0  0  0  0  0  0
  -27.3786  -25.4791   17.8498 H   0  0  0  0  0  0
  -28.6518  -24.9203   20.4768 H   0  0  0  0  0  0
  -26.8375  -23.8268   19.7877 H   0  0  0  0  0  0
  1 25  1  0  0  0
  1 30  2  0  0  0
  1 98  1  0  0  0
  2  3  1  0  0  0
  2 25  1  0  0  0
  2101  1  0  0  0
  2102  1  0  0  0
  3  4  1  0  0  0
  3103  1  0  0  0
  3104  1  0  0  0
  4  5  1  0  0  0
  4105  1  0  0  0
  4106  1  0  0  0
  5  6  1  0  0  0
  5 26  1  0  0  0
  5107  1  0  0  0
  6 25  1  0  0  0
  6108  1  0  0  0
  6109  1  0  0  0
  7  8  2  0  0  0
  7 26  1  0  0  0
  7 29  1  0  0  0
  8  9  1  0  0  0
  8 22  1  0  0  0
  9 10  1  0  0  0
  9 27  2  0  0  0
 10 11  2  0  0  0
 10 15  1  0  0  0
 11 12  1  0  0  0
 11110  1  0  0  0
 12 13  2  0  0  0
 12111  1  0  0  0
 13 14  1  0  0  0
 13 31  1  0  0  0
 14 15  2  0  0  0
 14112  1  0  0  0
 15113  1  0  0  0
 16 17  2  0  0  0
 16 21  1  0  0  0
 16 31  1  0  0  0
 17 18  1  0  0  0
 17114  1  0  0  0
 18 19  2  0  0  0
 18115  1  0  0  0
 19 20  1  0  0  0
 19 24  1  0  0  0
 20 21  2  0  0  0
 20116  1  0  0  0
 21 23  1  0  0  0
 22 28  1  0  0  0
 22 32  2  0  0  0
 26 27  1  0  0  0
 28117  1  0  0  0
 28118  1  0  0  0
 29119  1  0  0  0
 29120  1  0  0  0
 33 34  1  0  0  0
 33 66  1  0  0  0
 33 70  2  0  0  0
 34 36  1  0  0  0
 34 59  1  0  0  0
 34121  1  0  0  0
 35 44  2  0  0  0
 35 45  1  0  0  0
 35 68  1  0  0  0
 36 56  1  0  0  0
 36122  1  0  0  0
 37 39  1  0  0  0
 37 47  1  0  0  0
 37 66  1  0  0  0
 37123  1  0  0  0
 38 43  2  0  0  0
 38 46  1  0  0  0
 38 47  1  0  0  0
 39 64  1  0  0  0
 39 67  2  0  0  0
 40 52  1  0  0  0
 40 53  2  0  0  0
 40 58  1  0  0  0
 41124  1  0  0  0
 41125  1  0  0  0
 41126  1  0  0  0
 41 48  1  0  0  0
 42 43  1  0  0  0
 42 66  1  0  0  0
 42127  1  0  0  0
 42128  1  0  0  0
 43 44  1  0  0  0
 44129  1  0  0  0
 45 46  2  0  0  0
 45130  1  0  0  0
 46131  1  0  0  0
 47132  1  0  0  0
 47133  1  0  0  0
 48 56  1  0  0  0
 48 65  1  0  0  0
 48134  1  0  0  0
 49 50  1  0  0  0
 49 53  1  0  0  0
 49 64  1  0  0  0
 49135  1  0  0  0
 50 51  1  0  0  0
 50136  1  0  0  0
 50137  1  0  0  0
 51 52  1  0  0  0
 51138  1  0  0  0
 51139  1  0  0  0
 52140  1  0  0  0
 52141  1  0  0  0
 53 54  1  0  0  0
 54 55  2  0  0  0
 54142  1  0  0  0
 55 57  1  0  0  0
 55143  1  0  0  0
 56 69  2  0  0  0
 57 58  2  0  0  0
 57144  1  0  0  0
 58145  1  0  0  0
 59 60  1  0  0  0
 59 61  1  0  0  0
 59 62  1  0  0  0
 60146  1  0  0  0
 60147  1  0  0  0
 60148  1  0  0  0
 61149  1  0  0  0
 61150  1  0  0  0
 61151  1  0  0  0
 62152  1  0  0  0
 62153  1  0  0  0
 62154  1  0  0  0
 63 65  1  0  0  0
 63155  1  0  0  0
 63156  1  0  0  0
 63157  1  0  0  0
 64158  1  0  0  0
 65159  1  0  0  0
 68 95  1  0  0  0
 71 73  2  0  0  0
 71 79  1  0  0  0
 71160  1  0  0  0
 72 74  1  0  0  0
 72 79  2  0  0  0
 72161  1  0  0  0
 73 81  1  0  0  0
 73162  1  0  0  0
 74 81  2  0  0  0
 74163  1  0  0  0
 75 77  2  0  0  0
 75 80  1  0  0  0
 75164  1  0  0  0
 76 78  1  0  0  0
 76 80  2  0  0  0
 76165  1  0  0  0
 77 82  1  0  0  0
 77166  1  0  0  0
 78 82  2  0  0  0
 78167  1  0  0  0
 79 91  1  0  0  0
 80 92  1  0  0  0
 81 93  1  0  0  0
 82 97  1  0  0  0
 83 95  1  0  0  0
 83 96  1  0  0  0
 83100  2  0  0  0
 84 85  1  0  0  0
 84 86  1  0  0  0
 84168  1  0  0  0
 84169  1  0  0  0
 85 87  1  0  0  0
 85170  1  0  0  0
 85171  1  0  0  0
 86 96  1  0  0  0
 86172  1  0  0  0
 86173  1  0  0  0
 87 96  1  0  0  0
 87174  1  0  0  0
 87175  1  0  0  0
 88 97  1  0  0  0
 88176  1  0  0  0
 88177  1  0  0  0
 88178  1  0  0  0
 89 98  1  0  0  0
 89179  1  0  0  0
 89180  1  0  0  0
 89181  1  0  0  0
 90182  1  0  0  0
 90183  1  0  0  0
 90184  1  0  0  0
 90 99  1  0  0  0
 91 97  1  0  0  0
 91185  1  0  0  0
 91186  1  0  0  0
 92 98  1  0  0  0
 92187  1  0  0  0
 92188  1  0  0  0
 93 99  1  0  0  0
 93189  1  0  0  0
 93190  1  0  0  0
 94 99  1  0  0  0
 94191  1  0  0  0
 94192  1  0  0  0
 94 95  1  0  0  0
 95193  1  0  0  0
 99194  1  0  0  0
M  CHG  1  99   1
M  ISO  4   1 100  68 101  95 101  98 100
M  END
> <chiral flag>
0

> <version>
0

> <s_m_source_file>
/data/baiqing/PycharmProjects/Reinvent-master-3.2/result/LINK_invent/BTK/process_docking_weight1_custom_product_contain_oxygen_bond_distance_aromatic_linkinvent_7_9_3/rearranged_h_0015.sdf

> <i_m_source_file_index>
74

> <r_mmod_Potential_Energy-OPLS-2005>
178.799240112305

> <r_mmod_Stretch_Energy-OPLS-2005>
47.3591499328613

> <r_mmod_Bend_Energy-OPLS-2005>
189.235961914062

> <r_mmod_Torsional_Energy-OPLS-2005>
321.157684326172

> <r_mmod_Improper_Torsional_Energy-OPLS-2005>
17.2351627349854

> <r_mmod_Van_der_Waal_Energy-OPLS-2005>
183.224365234375

> <r_mmod_Electrostatic_Energy-OPLS-2005>
-166.03727722168

> <r_mmod_Solvation_Energy-OPLS-2005>
-433.029022216797

> <b_mmod_Minimization_Converged-OPLS-2005>
0

> <r_mmod_RMS_Derivative-OPLS-2005>
3.40382480621338

$$$$
74
                    3D
 Structure written by MMmdl.
180188  0  0  1  0            999 V2000
  -30.7764  -14.3712   20.6740 C   0  0  0  0  0  0
  -30.4106  -12.2955   19.3947 C   0  0  0  0  0  0
  -29.4794  -12.5233   18.1903 C   0  0  0  0  0  0
  -28.0048  -12.3769   18.6089 C   0  0  0  0  0  0
  -27.6610  -13.2035   19.8746 C   0  0  2  0  0  0
  -28.7003  -12.9647   20.9917 C   0  0  0  0  0  0
  -25.2585  -13.8163   20.5669 C   0  0  0  0  0  0
  -24.1846  -13.0451   20.9190 C   0  0  0  0  0  0
  -24.6387  -11.6910   20.8744 C   0  0  0  0  0  0
  -23.9057  -10.4299   21.0409 C   0  0  0  0  0  0
  -24.3613   -9.4213   21.9184 C   0  0  0  0  0  0
  -23.6291   -8.2244   22.0755 C   0  0  0  0  0  0
  -22.4271   -8.0281   21.3545 C   0  0  0  0  0  0
  -21.9909   -9.0258   20.4647 C   0  0  0  0  0  0
  -22.7230  -10.2137   20.3056 C   0  0  0  0  0  0
  -21.6853   -6.0739   22.5281 C   0  0  0  0  0  0
  -21.4013   -6.5640   23.8213 C   0  0  0  0  0  0
  -21.3656   -5.6790   24.9176 C   0  0  0  0  0  0
  -21.6043   -4.3055   24.7222 C   0  0  0  0  0  0
  -21.8819   -3.8149   23.4343 C   0  0  0  0  0  0
  -21.9192   -4.6970   22.3402 C   0  0  0  0  0  0
  -22.7863  -13.5245   21.1846 C   0  0  0  0  0  0
  -22.1659   -4.2150   21.0983 F   0  0  0  0  0  0
  -21.5633   -3.4540   25.7736 F   0  0  0  0  0  0
  -30.0400  -13.2516   20.4489 N   0  0  0  0  0  0
  -26.3020  -12.9324   20.3362 N   0  0  0  0  0  0
  -25.9307  -11.6487   20.5759 N   0  0  0  0  0  0
  -22.0494  -12.8236   22.0398 N   0  0  0  0  0  0
  -25.4311  -15.1874   20.4018 N   0  0  0  0  0  0
  -31.8326  -14.6072   20.0827 O   0  0  0  0  0  0
  -21.6635   -6.8879   21.4241 O   0  0  0  0  0  0
  -22.3555  -14.5550   20.6694 O   0  0  0  0  0  0
  -24.6049  -31.8725   23.2126 C   0  0  0  0  0  0
  -25.8955  -32.4844   23.8420 C   0  0  1  0  0  0
  -27.2460  -27.4960   20.0823 C   0  0  0  0  0  0
  -25.5846  -33.8645   24.2352 N   0  0  0  0  0  0
  -23.3938  -30.4908   21.5525 C   0  0  2  0  0  0
  -24.8462  -28.9669   20.1115 C   0  0  0  0  0  0
  -22.7405  -29.4623   22.5012 C   0  0  0  0  0  0
  -18.0259  -28.1367   22.8488 C   0  0  0  0  0  0
  -24.1486  -36.7332   23.2643 C   0  0  0  0  0  0
  -25.9146  -30.8553   21.3590 C   0  0  0  0  0  0
  -25.9973  -29.4924   20.7121 C   0  0  0  0  0  0
  -27.1998  -28.7601   20.7049 C   0  0  0  0  0  0
  -26.0943  -26.9866   19.4491 C   0  0  0  0  0  0
  -24.8862  -27.7099   19.4799 C   0  0  0  0  0  0
  -23.5990  -29.8173   20.1688 C   0  0  0  0  0  0
  -25.4105  -36.3124   24.0337 C   0  0  1  0  0  0
  -20.5847  -28.3642   23.1344 C   0  0  2  0  0  0
  -20.6750  -26.9385   22.5436 C   0  0  0  0  0  0
  -19.5741  -26.6384   21.5208 C   0  0  0  0  0  0
  -18.1905  -26.7913   22.1605 C   0  0  0  0  0  0
  -19.1507  -28.8824   23.2896 C   0  0  0  0  0  0
  -18.9434  -30.1422   23.8912 C   0  0  0  0  0  0
  -17.6445  -30.6584   24.0547 C   0  0  0  0  0  0
  -25.9021  -34.9485   23.5151 C   0  0  0  0  0  0
  -16.5335  -29.9090   23.6320 C   0  0  0  0  0  0
  -16.7251  -28.6495   23.0365 C   0  0  0  0  0  0
  -26.4432  -31.6618   25.0728 C   0  0  0  0  0  0
  -25.3710  -31.3695   26.1480 C   0  0  0  0  0  0
  -27.0269  -30.3074   24.6061 C   0  0  0  0  0  0
  -27.6017  -32.4353   25.7479 C   0  0  0  0  0  0
  -27.5577  -37.1799   24.8454 C   0  0  0  0  0  0
  -21.4130  -29.3011   22.3769 N   0  0  0  0  0  0
  -26.4301  -37.3791   23.9389 N   0  0  0  0  0  0
  -24.6555  -31.0856   22.1005 N   0  0  0  0  0  0
  -23.4230  -28.8097   23.2955 O   0  0  0  0  0  0
  -28.3807  -26.7307   20.1027 O   0  0  0  0  0  0
  -26.5588  -34.8925   22.4716 O   0  0  0  0  0  0
  -23.5244  -32.1449   23.7546 O   0  0  0  0  0  0
  -26.6045  -22.4377   20.0885 C   0  0  0  0  0  0
  -25.7017  -21.3325   22.0644 C   0  0  0  0  0  0
  -27.3337  -21.2769   19.7715 C   0  0  0  0  0  0
  -26.4164  -20.1639   21.7381 C   0  0  0  0  0  0
  -25.8177  -22.4864   21.2591 C   0  0  0  0  0  0
  -27.2576  -20.1406   20.6060 C   0  0  0  0  0  0
  -30.6386  -17.5072   19.5053 C   0  0  0  0  0  0
  -31.2052  -15.2407   22.8879 C   0  0  0  0  0  0
  -24.7091  -24.6967   23.9073 C   0  0  0  0  0  0
  -30.1017  -20.0628   21.2804 C   0  0  0  0  0  0
  -25.1065  -23.7706   21.6630 C   0  0  0  0  0  0
  -28.1088  -18.9135   20.3051 C   0  0  0  0  0  0
  -27.9614  -25.1481   21.9352 C   0  0  0  0  0  0
  -29.4627  -16.3079   21.4982 C   0  0  0  0  0  0
  -26.6194  -25.5311   22.6082 C   0  0  0  0  0  0
  -28.8012  -26.3318   21.4112 C   0  0  0  0  0  0
  -30.1564  -17.6028   20.9718 C   0  0  2  0  0  0
  -30.3659  -15.1576   21.6902 N   0  0  0  0  0  0
  -25.7247  -24.3710   22.8791 N   0  3  1  0  0  0
  -29.3025  -18.8099   21.1937 N   0  3  1  0  0  0
  -31.4536  -12.3911   19.0867 H   0  0  0  0  0  0
  -30.3098  -11.2754   19.7686 H   0  0  0  0  0  0
  -29.7143  -11.8163   17.3934 H   0  0  0  0  0  0
  -29.6481  -13.5184   17.7754 H   0  0  0  0  0  0
  -27.8132  -11.3190   18.7923 H   0  0  0  0  0  0
  -27.3509  -12.6655   17.7853 H   0  0  0  0  0  0
  -27.7111  -14.2530   19.5874 H   0  0  0  0  0  0
  -28.6644  -11.9271   21.3275 H   0  0  0  0  0  0
  -28.4522  -13.5600   21.8710 H   0  0  0  0  0  0
  -25.2760   -9.5685   22.4759 H   0  0  0  0  0  0
  -24.0003   -7.4633   22.7471 H   0  0  0  0  0  0
  -21.0844   -8.8775   19.8946 H   0  0  0  0  0  0
  -22.3696  -10.9677   19.6167 H   0  0  0  0  0  0
  -21.2003   -7.6146   23.9718 H   0  0  0  0  0  0
  -21.1479   -6.0521   25.9078 H   0  0  0  0  0  0
  -22.0600   -2.7612   23.2845 H   0  0  0  0  0  0
  -22.4101  -11.9893   22.4783 H   0  0  0  0  0  0
  -21.1106  -13.1261   22.2591 H   0  0  0  0  0  0
  -24.6540  -15.8343   20.4780 H   0  0  0  0  0  0
  -26.2609  -15.6063   20.0071 H   0  0  0  0  0  0
  -26.7042  -32.5613   23.1211 H   0  0  0  0  0  0
  -24.9976  -33.9838   25.0479 H   0  0  0  0  0  0
  -22.6739  -31.3005   21.4140 H   0  0  0  0  0  0
  -23.3745  -35.9672   23.3318 H   0  0  0  0  0  0
  -24.3566  -36.8943   22.2056 H   0  0  0  0  0  0
  -23.7268  -37.6547   23.6669 H   0  0  0  0  0  0
  -26.0104  -31.6192   20.5864 H   0  0  0  0  0  0
  -26.8064  -30.9169   21.9708 H   0  0  0  0  0  0
  -28.0878  -29.1665   21.1706 H   0  0  0  0  0  0
  -26.1327  -26.0269   18.9541 H   0  0  0  0  0  0
  -24.0011  -27.3067   19.0064 H   0  0  0  0  0  0
  -23.6838  -30.5895   19.4030 H   0  0  0  0  0  0
  -22.7301  -29.2189   19.8874 H   0  0  0  0  0  0
  -25.1279  -36.1999   25.0828 H   0  0  0  0  0  0
  -20.9896  -28.3208   24.1480 H   0  0  0  0  0  0
  -20.5641  -26.2240   23.3611 H   0  0  0  0  0  0
  -21.6611  -26.7441   22.1219 H   0  0  0  0  0  0
  -19.6918  -25.6302   21.1218 H   0  0  0  0  0  0
  -19.6698  -27.3210   20.6751 H   0  0  0  0  0  0
  -17.4188  -26.6676   21.3994 H   0  0  0  0  0  0
  -18.0278  -26.0057   22.9000 H   0  0  0  0  0  0
  -19.7915  -30.7196   24.2330 H   0  0  0  0  0  0
  -17.5017  -31.6272   24.5132 H   0  0  0  0  0  0
  -15.5337  -30.2999   23.7638 H   0  0  0  0  0  0
  -15.8643  -28.0809   22.7117 H   0  0  0  0  0  0
  -24.5892  -30.7040   25.7796 H   0  0  0  0  0  0
  -24.8880  -32.2837   26.4938 H   0  0  0  0  0  0
  -25.8058  -30.8857   27.0235 H   0  0  0  0  0  0
  -26.2806  -29.6826   24.1142 H   0  0  0  0  0  0
  -27.4090  -29.7303   25.4489 H   0  0  0  0  0  0
  -27.8614  -30.4413   23.9179 H   0  0  0  0  0  0
  -27.2647  -33.3653   26.2081 H   0  0  0  0  0  0
  -28.3804  -32.6927   25.0287 H   0  0  0  0  0  0
  -28.0731  -31.8481   26.5368 H   0  0  0  0  0  0
  -28.2578  -38.0104   24.7476 H   0  0  0  0  0  0
  -28.1083  -36.2619   24.6317 H   0  0  0  0  0  0
  -27.2271  -37.1486   25.8851 H   0  0  0  0  0  0
  -20.9279  -29.8802   21.7059 H   0  0  0  0  0  0
  -26.0197  -38.2876   24.1390 H   0  0  0  0  0  0
  -26.6856  -23.3030   19.4437 H   0  0  0  0  0  0
  -25.0777  -21.3401   22.9472 H   0  0  0  0  0  0
  -27.9699  -21.2739   18.8957 H   0  0  0  0  0  0
  -26.3345  -19.2962   22.3782 H   0  0  0  0  0  0
  -31.5576  -16.9341   19.4230 H   0  0  0  0  0  0
  -30.8777  -18.4831   19.0852 H   0  0  0  0  0  0
  -29.8943  -17.0442   18.8571 H   0  0  0  0  0  0
  -30.7067  -15.7647   23.7041 H   0  0  0  0  0  0
  -32.1382  -15.7636   22.6713 H   0  0  0  0  0  0
  -31.4576  -14.2429   23.2511 H   0  0  0  0  0  0
  -24.1244  -23.8141   24.1699 H   0  0  0  0  0  0
  -24.0234  -25.4673   23.5513 H   0  0  0  0  0  0
  -25.1784  -25.0564   24.8232 H   0  0  0  0  0  0
  -29.5208  -20.8825   21.7029 H   0  0  0  0  0  0
  -30.4605  -20.3803   20.3019 H   0  0  0  0  0  0
  -30.9667  -19.9418   21.9317 H   0  0  0  0  0  0
  -24.0584  -23.5191   21.8368 H   0  0  0  0  0  0
  -25.0960  -24.4830   20.8363 H   0  0  0  0  0  0
  -28.4128  -18.9494   19.2583 H   0  0  0  0  0  0
  -27.4822  -18.0277   20.4106 H   0  0  0  0  0  0
  -27.8135  -24.4746   21.0986 H   0  0  0  0  0  0
  -28.5554  -24.5902   22.6598 H   0  0  0  0  0  0
  -28.6578  -16.0177   20.8229 H   0  0  0  0  0  0
  -28.9681  -16.5094   22.4494 H   0  0  0  0  0  0
  -26.0595  -26.2665   22.0352 H   0  0  0  0  0  0
  -26.8608  -26.0294   23.5486 H   0  0  0  0  0  0
  -29.8380  -26.0082   21.3172 H   0  0  0  0  0  0
  -28.8165  -27.1549   22.1273 H   0  0  0  0  0  0
  -31.0447  -17.7421   21.5895 H   0  0  0  0  0  0
  -26.2918  -23.6452   23.2907 H   0  0  0  0  0  0
  -28.9281  -18.7006   22.1247 H   0  0  0  0  0  0
  1 25  1  0  0  0
  1 30  2  0  0  0
  1 88  1  0  0  0
  2  3  1  0  0  0
  2 25  1  0  0  0
  2 91  1  0  0  0
  2 92  1  0  0  0
  3  4  1  0  0  0
  3 93  1  0  0  0
  3 94  1  0  0  0
  4  5  1  0  0  0
  4 95  1  0  0  0
  4 96  1  0  0  0
  5  6  1  0  0  0
  5 26  1  0  0  0
  5 97  1  0  0  0
  6 25  1  0  0  0
  6 98  1  0  0  0
  6 99  1  0  0  0
  7  8  2  0  0  0
  7 26  1  0  0  0
  7 29  1  0  0  0
  8  9  1  0  0  0
  8 22  1  0  0  0
  9 10  1  0  0  0
  9 27  2  0  0  0
 10 11  2  0  0  0
 10 15  1  0  0  0
 11 12  1  0  0  0
 11100  1  0  0  0
 12 13  2  0  0  0
 12101  1  0  0  0
 13 14  1  0  0  0
 13 31  1  0  0  0
 14 15  2  0  0  0
 14102  1  0  0  0
 15103  1  0  0  0
 16 17  2  0  0  0
 16 21  1  0  0  0
 16 31  1  0  0  0
 17 18  1  0  0  0
 17104  1  0  0  0
 18 19  2  0  0  0
 18105  1  0  0  0
 19 20  1  0  0  0
 19 24  1  0  0  0
 20 21  2  0  0  0
 20106  1  0  0  0
 21 23  1  0  0  0
 22 28  1  0  0  0
 22 32  2  0  0  0
 26 27  1  0  0  0
 28107  1  0  0  0
 28108  1  0  0  0
 29109  1  0  0  0
 29110  1  0  0  0
 33 34  1  0  0  0
 33 66  1  0  0  0
 33 70  2  0  0  0
 34 36  1  0  0  0
 34 59  1  0  0  0
 34111  1  0  0  0
 35 44  2  0  0  0
 35 45  1  0  0  0
 35 68  1  0  0  0
 36 56  1  0  0  0
 36112  1  0  0  0
 37 39  1  0  0  0
 37 47  1  0  0  0
 37 66  1  0  0  0
 37113  1  0  0  0
 38 43  2  0  0  0
 38 46  1  0  0  0
 38 47  1  0  0  0
 39 64  1  0  0  0
 39 67  2  0  0  0
 40 52  1  0  0  0
 40 53  2  0  0  0
 40 58  1  0  0  0
 41114  1  0  0  0
 41115  1  0  0  0
 41116  1  0  0  0
 41 48  1  0  0  0
 42 43  1  0  0  0
 42 66  1  0  0  0
 42117  1  0  0  0
 42118  1  0  0  0
 43 44  1  0  0  0
 44119  1  0  0  0
 45 46  2  0  0  0
 45120  1  0  0  0
 46121  1  0  0  0
 47122  1  0  0  0
 47123  1  0  0  0
 48 56  1  0  0  0
 48 65  1  0  0  0
 48124  1  0  0  0
 49 50  1  0  0  0
 49 53  1  0  0  0
 49 64  1  0  0  0
 49125  1  0  0  0
 50 51  1  0  0  0
 50126  1  0  0  0
 50127  1  0  0  0
 51 52  1  0  0  0
 51128  1  0  0  0
 51129  1  0  0  0
 52130  1  0  0  0
 52131  1  0  0  0
 53 54  1  0  0  0
 54 55  2  0  0  0
 54132  1  0  0  0
 55 57  1  0  0  0
 55133  1  0  0  0
 56 69  2  0  0  0
 57 58  2  0  0  0
 57134  1  0  0  0
 58135  1  0  0  0
 59 60  1  0  0  0
 59 61  1  0  0  0
 59 62  1  0  0  0
 60136  1  0  0  0
 60137  1  0  0  0
 60138  1  0  0  0
 61139  1  0  0  0
 61140  1  0  0  0
 61141  1  0  0  0
 62142  1  0  0  0
 62143  1  0  0  0
 62144  1  0  0  0
 63 65  1  0  0  0
 63145  1  0  0  0
 63146  1  0  0  0
 63147  1  0  0  0
 64148  1  0  0  0
 65149  1  0  0  0
 68 86  1  0  0  0
 71 73  2  0  0  0
 71 75  1  0  0  0
 71150  1  0  0  0
 72 74  1  0  0  0
 72 75  2  0  0  0
 72151  1  0  0  0
 73 76  1  0  0  0
 73152  1  0  0  0
 74 76  2  0  0  0
 74153  1  0  0  0
 75 81  1  0  0  0
 76 82  1  0  0  0
 77154  1  0  0  0
 77155  1  0  0  0
 77156  1  0  0  0
 77 87  1  0  0  0
 78 88  1  0  0  0
 78157  1  0  0  0
 78158  1  0  0  0
 78159  1  0  0  0
 79160  1  0  0  0
 79161  1  0  0  0
 79162  1  0  0  0
 79 89  1  0  0  0
 80163  1  0  0  0
 80164  1  0  0  0
 80165  1  0  0  0
 80 90  1  0  0  0
 81 89  1  0  0  0
 81166  1  0  0  0
 81167  1  0  0  0
 82 90  1  0  0  0
 82168  1  0  0  0
 82169  1  0  0  0
 83 85  1  0  0  0
 83 86  1  0  0  0
 83170  1  0  0  0
 83171  1  0  0  0
 84 87  1  0  0  0
 84 88  1  0  0  0
 84172  1  0  0  0
 84173  1  0  0  0
 85 89  1  0  0  0
 85174  1  0  0  0
 85175  1  0  0  0
 86176  1  0  0  0
 86177  1  0  0  0
 87 90  1  0  0  0
 87178  1  0  0  0
 89179  1  0  0  0
 90180  1  0  0  0
M  CHG  2  89   1  90   1
M  ISO  4   1 100  68 101  86 101  88 100
M  END
> <chiral flag>
0

> <version>
0

> <s_m_source_file>
/data/baiqing/PycharmProjects/Reinvent-master-3.2/result/LINK_invent/BTK/process_docking_weight1_custom_product_contain_oxygen_bond_distance_aromatic_linkinvent_7_9_3/rearranged_h_0015.sdf

> <i_m_source_file_index>
75

> <r_mmod_Potential_Energy-OPLS-2005>
-169.696533203125

> <r_mmod_Stretch_Energy-OPLS-2005>
37.2053375244141

> <r_mmod_Bend_Energy-OPLS-2005>
98.8395843505859

> <r_mmod_Torsional_Energy-OPLS-2005>
323.321044921875

> <r_mmod_Improper_Torsional_Energy-OPLS-2005>
4.77647066116333

> <r_mmod_Van_der_Waal_Energy-OPLS-2005>
143.795547485352

> <r_mmod_Electrostatic_Energy-OPLS-2005>
35.9088439941406

> <r_mmod_Solvation_Energy-OPLS-2005>
-821.442993164062

> <b_mmod_Minimization_Converged-OPLS-2005>
0

> <r_mmod_RMS_Derivative-OPLS-2005>
1.91406416893005

$$$$
75
                    3D
 Structure written by MMmdl.
161170  0  0  1  0            999 V2000
  -30.7241  -14.4489   20.6187 C   0  0  0  0  0  0
  -30.4407  -12.2955   19.4224 C   0  0  0  0  0  0
  -29.5124  -12.5061   18.2071 C   0  0  0  0  0  0
  -28.0314  -12.3641   18.6177 C   0  0  0  0  0  0
  -27.6751  -13.1991   19.8781 C   0  0  2  0  0  0
  -28.7171  -12.9392   20.9893 C   0  0  0  0  0  0
  -25.2653  -13.8123   20.5613 C   0  0  0  0  0  0
  -24.1909  -13.0427   20.9145 C   0  0  0  0  0  0
  -24.6460  -11.6875   20.8717 C   0  0  0  0  0  0
  -23.9136  -10.4275   21.0379 C   0  0  0  0  0  0
  -24.3658   -9.4180   21.9146 C   0  0  0  0  0  0
  -23.6318   -8.2226   22.0744 C   0  0  0  0  0  0
  -22.4289   -8.0274   21.3546 C   0  0  0  0  0  0
  -21.9954   -9.0256   20.4649 C   0  0  0  0  0  0
  -22.7322  -10.2116   20.3037 C   0  0  0  0  0  0
  -21.6857   -6.0743   22.5282 C   0  0  0  0  0  0
  -21.4027   -6.5655   23.8215 C   0  0  0  0  0  0
  -21.3644   -5.6798   24.9168 C   0  0  0  0  0  0
  -21.6043   -4.3063   24.7219 C   0  0  0  0  0  0
  -21.8837   -3.8154   23.4350 C   0  0  0  0  0  0
  -21.9210   -4.6970   22.3408 C   0  0  0  0  0  0
  -22.7921  -13.5210   21.1825 C   0  0  0  0  0  0
  -22.1676   -4.2168   21.0979 F   0  0  0  0  0  0
  -21.5607   -3.4538   25.7728 F   0  0  0  0  0  0
  -30.0529  -13.2705   20.4584 N   0  0  0  0  0  0
  -26.3126  -12.9309   20.3372 N   0  0  0  0  0  0
  -25.9397  -11.6478   20.5765 N   0  0  0  0  0  0
  -22.0567  -12.8190   22.0388 N   0  0  0  0  0  0
  -25.4307  -15.1865   20.3958 N   0  0  0  0  0  0
  -31.8146  -14.6600   20.0785 O   0  0  0  0  0  0
  -21.6649   -6.8879   21.4237 O   0  0  0  0  0  0
  -22.3597  -14.5523   20.6704 O   0  0  0  0  0  0
  -24.6108  -31.8671   23.2125 C   0  0  0  0  0  0
  -25.9016  -32.4809   23.8428 C   0  0  1  0  0  0
  -27.2324  -27.4442   20.0948 C   0  0  0  0  0  0
  -25.5870  -33.8620   24.2337 N   0  0  0  0  0  0
  -23.4011  -30.4909   21.5499 C   0  0  2  0  0  0
  -24.8456  -28.9600   20.1104 C   0  0  0  0  0  0
  -22.7394  -29.4636   22.4969 C   0  0  0  0  0  0
  -18.0261  -28.1327   22.8471 C   0  0  0  0  0  0
  -24.1492  -36.7335   23.2647 C   0  0  0  0  0  0
  -25.9315  -30.8271   21.3783 C   0  0  0  0  0  0
  -26.0031  -29.4680   20.7137 C   0  0  0  0  0  0
  -27.1975  -28.7170   20.7035 C   0  0  0  0  0  0
  -26.0601  -26.9526   19.4763 C   0  0  0  0  0  0
  -24.8681  -27.6991   19.4928 C   0  0  0  0  0  0
  -23.6068  -29.8234   20.1623 C   0  0  0  0  0  0
  -25.4116  -36.3128   24.0338 C   0  0  1  0  0  0
  -20.5855  -28.3628   23.1300 C   0  0  2  0  0  0
  -20.6748  -26.9359   22.5412 C   0  0  0  0  0  0
  -19.5740  -26.6333   21.5194 C   0  0  0  0  0  0
  -18.1916  -26.7862   22.1601 C   0  0  0  0  0  0
  -19.1516  -28.8796   23.2870 C   0  0  0  0  0  0
  -18.9446  -30.1401   23.8881 C   0  0  0  0  0  0
  -17.6456  -30.6555   24.0555 C   0  0  0  0  0  0
  -25.9025  -34.9466   23.5139 C   0  0  0  0  0  0
  -16.5345  -29.9057   23.6312 C   0  0  0  0  0  0
  -16.7248  -28.6454   23.0350 C   0  0  0  0  0  0
  -26.4450  -31.6640   25.0805 C   0  0  0  0  0  0
  -25.3732  -31.3775   26.1590 C   0  0  0  0  0  0
  -27.0353  -30.3073   24.6300 C   0  0  0  0  0  0
  -27.5989  -32.4441   25.7549 C   0  0  0  0  0  0
  -27.5586  -37.1849   24.8448 C   0  0  0  0  0  0
  -21.4114  -29.3007   22.3725 N   0  0  0  0  0  0
  -26.4307  -37.3803   23.9379 N   0  0  0  0  0  0
  -24.6634  -31.0812   22.1001 N   0  0  0  0  0  0
  -23.4157  -28.8158   23.3003 O   0  0  0  0  0  0
  -28.4093  -26.7255   20.1240 O   0  0  0  0  0  0
  -26.5613  -34.8916   22.4710 O   0  0  0  0  0  0
  -23.5291  -32.1434   23.7526 O   0  0  0  0  0  0
  -31.7420  -19.6288   21.5968 C   0  0  0  0  0  0
  -30.1710  -20.3942   19.9072 C   0  0  0  0  0  0
  -31.2973  -18.2984   21.4082 C   0  0  0  0  0  0
  -29.6885  -19.0812   19.7634 C   0  0  0  0  0  0
  -31.1876  -20.6837   20.8378 C   0  0  0  0  0  0
  -30.2386  -18.0163   20.5092 C   0  0  0  0  0  0
  -30.7203  -24.4614   20.6150 C   0  0  0  0  0  0
  -29.3088  -23.2148   21.4939 C   0  0  0  0  0  0
  -29.3086  -24.7135   21.1686 C   0  0  2  0  0  0
  -29.7697  -15.6330   22.5775 C   0  0  0  0  0  0
  -31.7241  -22.1058   20.9791 C   0  0  0  0  0  0
  -29.6330  -16.6249   20.2780 C   0  0  0  0  0  0
  -28.3170  -25.2920   20.1549 C   0  0  0  0  0  0
  -30.6944  -23.1442   21.0038 N   0  0  0  0  0  0
  -30.0134  -15.4839   21.1360 N   0  0  0  0  0  0
  -31.5981  -25.1085   20.0790 O   0  0  0  0  0  0
  -31.4848  -12.3842   19.1147 H   0  0  0  0  0  0
  -30.3345  -11.2757   19.8088 H   0  0  0  0  0  0
  -29.7569  -11.7837   17.4282 H   0  0  0  0  0  0
  -29.6910  -13.4893   17.7668 H   0  0  0  0  0  0
  -27.8466  -11.3072   18.8184 H   0  0  0  0  0  0
  -27.3820  -12.6314   17.7827 H   0  0  0  0  0  0
  -27.7325  -14.2508   19.5984 H   0  0  0  0  0  0
  -28.6952  -11.8880   21.2839 H   0  0  0  0  0  0
  -28.4637  -13.4794   21.8946 H   0  0  0  0  0  0
  -25.2785   -9.5666   22.4733 H   0  0  0  0  0  0
  -24.0025   -7.4641   22.7491 H   0  0  0  0  0  0
  -21.0865   -8.8836   19.8966 H   0  0  0  0  0  0
  -22.3787  -10.9669   19.6168 H   0  0  0  0  0  0
  -21.2027   -7.6153   23.9745 H   0  0  0  0  0  0
  -21.1435   -6.0496   25.9075 H   0  0  0  0  0  0
  -22.0630   -2.7624   23.2852 H   0  0  0  0  0  0
  -22.4193  -11.9824   22.4718 H   0  0  0  0  0  0
  -21.1200  -13.1222   22.2621 H   0  0  0  0  0  0
  -24.6605  -15.8367   20.5095 H   0  0  0  0  0  0
  -26.2852  -15.6322   20.0897 H   0  0  0  0  0  0
  -26.7082  -32.5492   23.1185 H   0  0  0  0  0  0
  -24.9986  -33.9768   25.0468 H   0  0  0  0  0  0
  -22.6893  -31.3089   21.4155 H   0  0  0  0  0  0
  -23.3729  -35.9688   23.3315 H   0  0  0  0  0  0
  -24.3583  -36.8948   22.2057 H   0  0  0  0  0  0
  -23.7252  -37.6545   23.6655 H   0  0  0  0  0  0
  -26.0938  -31.6046   20.6309 H   0  0  0  0  0  0
  -26.8011  -30.8418   22.0237 H   0  0  0  0  0  0
  -28.0850  -29.1074   21.1842 H   0  0  0  0  0  0
  -26.0544  -25.9955   18.9755 H   0  0  0  0  0  0
  -23.9799  -27.3002   19.0237 H   0  0  0  0  0  0
  -23.7064  -30.6026   19.4047 H   0  0  0  0  0  0
  -22.7343  -29.2358   19.8681 H   0  0  0  0  0  0
  -25.1299  -36.2014   25.0832 H   0  0  0  0  0  0
  -20.9942  -28.3178   24.1427 H   0  0  0  0  0  0
  -20.5614  -26.2230   23.3600 H   0  0  0  0  0  0
  -21.6620  -26.7354   22.1252 H   0  0  0  0  0  0
  -19.6912  -25.6238   21.1225 H   0  0  0  0  0  0
  -19.6701  -27.3122   20.6715 H   0  0  0  0  0  0
  -17.4192  -26.6572   21.4010 H   0  0  0  0  0  0
  -18.0356  -26.0018   22.9012 H   0  0  0  0  0  0
  -19.7943  -30.7209   24.2234 H   0  0  0  0  0  0
  -17.5024  -31.6241   24.5137 H   0  0  0  0  0  0
  -15.5342  -30.2961   23.7655 H   0  0  0  0  0  0
  -15.8635  -28.0777   22.7093 H   0  0  0  0  0  0
  -24.5812  -30.7230   25.7954 H   0  0  0  0  0  0
  -24.9073  -32.2961   26.5174 H   0  0  0  0  0  0
  -25.8103  -30.8836   27.0278 H   0  0  0  0  0  0
  -26.2936  -29.6746   24.1423 H   0  0  0  0  0  0
  -27.4128  -29.7422   25.4832 H   0  0  0  0  0  0
  -27.8744  -30.4377   23.9461 H   0  0  0  0  0  0
  -27.2503  -33.3656   26.2222 H   0  0  0  0  0  0
  -28.3684  -32.7193   25.0326 H   0  0  0  0  0  0
  -28.0787  -31.8594   26.5404 H   0  0  0  0  0  0
  -28.2624  -38.0135   24.7483 H   0  0  0  0  0  0
  -28.1067  -36.2662   24.6281 H   0  0  0  0  0  0
  -27.2308  -37.1526   25.8859 H   0  0  0  0  0  0
  -20.9253  -29.8750   21.6991 H   0  0  0  0  0  0
  -26.0193  -38.2895   24.1317 H   0  0  0  0  0  0
  -32.5266  -19.8346   22.3139 H   0  0  0  0  0  0
  -29.7554  -21.1877   19.3020 H   0  0  0  0  0  0
  -31.7778  -17.5102   21.9698 H   0  0  0  0  0  0
  -28.8945  -18.8947   19.0511 H   0  0  0  0  0  0
  -28.5952  -22.6420   20.8985 H   0  0  0  0  0  0
  -29.1938  -22.9918   22.5567 H   0  0  0  0  0  0
  -29.3124  -25.2843   22.0965 H   0  0  0  0  0  0
  -29.9427  -16.6479   22.9274 H   0  0  0  0  0  0
  -30.4139  -14.9817   23.1716 H   0  0  0  0  0  0
  -28.7267  -15.4221   22.8072 H   0  0  0  0  0  0
  -32.3983  -22.3022   20.1410 H   0  0  0  0  0  0
  -32.3355  -22.1927   21.8768 H   0  0  0  0  0  0
  -29.7913  -16.3736   19.2249 H   0  0  0  0  0  0
  -28.5538  -16.7337   20.3806 H   0  0  0  0  0  0
  -27.3222  -24.9493   20.4446 H   0  0  0  0  0  0
  -28.4979  -24.9013   19.1538 H   0  0  0  0  0  0
  1 25  1  0  0  0
  1 30  2  0  0  0
  1 85  1  0  0  0
  2  3  1  0  0  0
  2 25  1  0  0  0
  2 87  1  0  0  0
  2 88  1  0  0  0
  3  4  1  0  0  0
  3 89  1  0  0  0
  3 90  1  0  0  0
  4  5  1  0  0  0
  4 91  1  0  0  0
  4 92  1  0  0  0
  5  6  1  0  0  0
  5 26  1  0  0  0
  5 93  1  0  0  0
  6 25  1  0  0  0
  6 94  1  0  0  0
  6 95  1  0  0  0
  7  8  2  0  0  0
  7 26  1  0  0  0
  7 29  1  0  0  0
  8  9  1  0  0  0
  8 22  1  0  0  0
  9 10  1  0  0  0
  9 27  2  0  0  0
 10 11  2  0  0  0
 10 15  1  0  0  0
 11 12  1  0  0  0
 11 96  1  0  0  0
 12 13  2  0  0  0
 12 97  1  0  0  0
 13 14  1  0  0  0
 13 31  1  0  0  0
 14 15  2  0  0  0
 14 98  1  0  0  0
 15 99  1  0  0  0
 16 17  2  0  0  0
 16 21  1  0  0  0
 16 31  1  0  0  0
 17 18  1  0  0  0
 17100  1  0  0  0
 18 19  2  0  0  0
 18101  1  0  0  0
 19 20  1  0  0  0
 19 24  1  0  0  0
 20 21  2  0  0  0
 20102  1  0  0  0
 21 23  1  0  0  0
 22 28  1  0  0  0
 22 32  2  0  0  0
 26 27  1  0  0  0
 28103  1  0  0  0
 28104  1  0  0  0
 29105  1  0  0  0
 29106  1  0  0  0
 33 34  1  0  0  0
 33 66  1  0  0  0
 33 70  2  0  0  0
 34 36  1  0  0  0
 34 59  1  0  0  0
 34107  1  0  0  0
 35 44  2  0  0  0
 35 45  1  0  0  0
 35 68  1  0  0  0
 36 56  1  0  0  0
 36108  1  0  0  0
 37 39  1  0  0  0
 37 47  1  0  0  0
 37 66  1  0  0  0
 37109  1  0  0  0
 38 43  2  0  0  0
 38 46  1  0  0  0
 38 47  1  0  0  0
 39 64  1  0  0  0
 39 67  2  0  0  0
 40 52  1  0  0  0
 40 53  2  0  0  0
 40 58  1  0  0  0
 41110  1  0  0  0
 41111  1  0  0  0
 41112  1  0  0  0
 41 48  1  0  0  0
 42 43  1  0  0  0
 42 66  1  0  0  0
 42113  1  0  0  0
 42114  1  0  0  0
 43 44  1  0  0  0
 44115  1  0  0  0
 45 46  2  0  0  0
 45116  1  0  0  0
 46117  1  0  0  0
 47118  1  0  0  0
 47119  1  0  0  0
 48 56  1  0  0  0
 48 65  1  0  0  0
 48120  1  0  0  0
 49 50  1  0  0  0
 49 53  1  0  0  0
 49 64  1  0  0  0
 49121  1  0  0  0
 50 51  1  0  0  0
 50122  1  0  0  0
 50123  1  0  0  0
 51 52  1  0  0  0
 51124  1  0  0  0
 51125  1  0  0  0
 52126  1  0  0  0
 52127  1  0  0  0
 53 54  1  0  0  0
 54 55  2  0  0  0
 54128  1  0  0  0
 55 57  1  0  0  0
 55129  1  0  0  0
 56 69  2  0  0  0
 57 58  2  0  0  0
 57130  1  0  0  0
 58131  1  0  0  0
 59 60  1  0  0  0
 59 61  1  0  0  0
 59 62  1  0  0  0
 60132  1  0  0  0
 60133  1  0  0  0
 60134  1  0  0  0
 61135  1  0  0  0
 61136  1  0  0  0
 61137  1  0  0  0
 62138  1  0  0  0
 62139  1  0  0  0
 62140  1  0  0  0
 63 65  1  0  0  0
 63141  1  0  0  0
 63142  1  0  0  0
 63143  1  0  0  0
 64144  1  0  0  0
 65145  1  0  0  0
 68 83  1  0  0  0
 71 73  2  0  0  0
 71 75  1  0  0  0
 71146  1  0  0  0
 72 74  1  0  0  0
 72 75  2  0  0  0
 72147  1  0  0  0
 73 76  1  0  0  0
 73148  1  0  0  0
 74 76  2  0  0  0
 74149  1  0  0  0
 75 81  1  0  0  0
 76 82  1  0  0  0
 77 79  1  0  0  0
 77 84  1  0  0  0
 77 86  2  0  0  0
 78 79  1  0  0  0
 78 84  1  0  0  0
 78150  1  0  0  0
 78151  1  0  0  0
 79 83  1  0  0  0
 79152  1  0  0  0
 80 85  1  0  0  0
 80153  1  0  0  0
 80154  1  0  0  0
 80155  1  0  0  0
 81 84  1  0  0  0
 81156  1  0  0  0
 81157  1  0  0  0
 82 85  1  0  0  0
 82158  1  0  0  0
 82159  1  0  0  0
 83160  1  0  0  0
 83161  1  0  0  0
M  ISO  4   1 100  68 101  83 101  85 100
M  END
> <chiral flag>
0

> <version>
0

> <s_m_source_file>
/data/baiqing/PycharmProjects/Reinvent-master-3.2/result/LINK_invent/BTK/process_docking_weight1_custom_product_contain_oxygen_bond_distance_aromatic_linkinvent_7_9_3/rearranged_h_0015.sdf

> <i_m_source_file_index>
76

> <r_mmod_Potential_Energy-OPLS-2005>
40.6519470214844

> <r_mmod_Stretch_Energy-OPLS-2005>
38.6747665405273

> <r_mmod_Bend_Energy-OPLS-2005>
106.124534606934

> <r_mmod_Torsional_Energy-OPLS-2005>
282.645141601562

> <r_mmod_Improper_Torsional_Energy-OPLS-2005>
7.71238136291504

> <r_mmod_Van_der_Waal_Energy-OPLS-2005>
148.840972900391

> <r_mmod_Electrostatic_Energy-OPLS-2005>
-328.334350585938

> <r_mmod_Solvation_Energy-OPLS-2005>
-226.208023071289

> <b_mmod_Minimization_Converged-OPLS-2005>
0

> <r_mmod_RMS_Derivative-OPLS-2005>
5.21297073364258

$$$$
76
                    3D
 Structure written by MMmdl.
164172  0  0  1  0            999 V2000
  -30.6372  -14.7368   20.5259 C   0  0  0  0  0  0
  -30.4321  -12.4696   19.4678 C   0  0  0  0  0  0
  -29.5087  -12.5238   18.2307 C   0  0  0  0  0  0
  -28.0329  -12.3451   18.6367 C   0  0  0  0  0  0
  -27.6421  -13.2279   19.8501 C   0  0  2  0  0  0
  -28.6825  -13.1141   20.9782 C   0  0  0  0  0  0
  -25.2520  -13.8191   20.5688 C   0  0  0  0  0  0
  -24.1801  -13.0440   20.9178 C   0  0  0  0  0  0
  -24.6386  -11.6915   20.8716 C   0  0  0  0  0  0
  -23.9066  -10.4293   21.0393 C   0  0  0  0  0  0
  -24.3623   -9.4212   21.9173 C   0  0  0  0  0  0
  -23.6298   -8.2246   22.0752 C   0  0  0  0  0  0
  -22.4278   -8.0281   21.3545 C   0  0  0  0  0  0
  -21.9910   -9.0251   20.4645 C   0  0  0  0  0  0
  -22.7235  -10.2130   20.3049 C   0  0  0  0  0  0
  -21.6852   -6.0736   22.5278 C   0  0  0  0  0  0
  -21.4015   -6.5641   23.8211 C   0  0  0  0  0  0
  -21.3664   -5.6794   24.9173 C   0  0  0  0  0  0
  -21.6046   -4.3057   24.7224 C   0  0  0  0  0  0
  -21.8821   -3.8148   23.4345 C   0  0  0  0  0  0
  -21.9194   -4.6964   22.3402 C   0  0  0  0  0  0
  -22.7826  -13.5222   21.1853 C   0  0  0  0  0  0
  -22.1661   -4.2151   21.0978 F   0  0  0  0  0  0
  -21.5629   -3.4542   25.7738 F   0  0  0  0  0  0
  -29.9821  -13.5201   20.4179 N   0  0  0  0  0  0
  -26.2932  -12.9385   20.3256 N   0  0  0  0  0  0
  -25.9311  -11.6529   20.5708 N   0  0  0  0  0  0
  -22.0490  -12.8206   22.0419 N   0  0  0  0  0  0
  -25.4251  -15.1916   20.4160 N   0  0  0  0  0  0
  -31.8067  -14.7986   20.1323 O   0  0  0  0  0  0
  -21.6641   -6.8879   21.4240 O   0  0  0  0  0  0
  -22.3501  -14.5525   20.6705 O   0  0  0  0  0  0
  -24.6302  -31.8555   23.1979 C   0  0  0  0  0  0
  -25.9127  -32.4758   23.8332 C   0  0  1  0  0  0
  -27.2218  -27.2766   20.1353 C   0  0  0  0  0  0
  -25.5926  -33.8560   24.2259 N   0  0  0  0  0  0
  -23.4264  -30.4767   21.5415 C   0  0  2  0  0  0
  -24.8726  -28.9173   20.1179 C   0  0  0  0  0  0
  -22.7496  -29.4605   22.4927 C   0  0  0  0  0  0
  -18.0292  -28.1385   22.8488 C   0  0  0  0  0  0
  -24.1487  -36.7285   23.2642 C   0  0  0  0  0  0
  -25.9697  -30.7744   21.3726 C   0  0  0  0  0  0
  -26.0439  -29.3954   20.7198 C   0  0  0  0  0  0
  -27.2253  -28.5896   20.7104 C   0  0  0  0  0  0
  -26.0277  -26.8514   19.5207 C   0  0  0  0  0  0
  -24.8676  -27.6521   19.5080 C   0  0  0  0  0  0
  -23.6438  -29.8052   20.1600 C   0  0  0  0  0  0
  -25.4114  -36.3072   24.0329 C   0  0  1  0  0  0
  -20.5893  -28.3694   23.1274 C   0  0  2  0  0  0
  -20.6776  -26.9412   22.5410 C   0  0  0  0  0  0
  -19.5750  -26.6382   21.5213 C   0  0  0  0  0  0
  -18.1932  -26.7928   22.1627 C   0  0  0  0  0  0
  -19.1545  -28.8857   23.2876 C   0  0  0  0  0  0
  -18.9466  -30.1457   23.8893 C   0  0  0  0  0  0
  -17.6465  -30.6585   24.0563 C   0  0  0  0  0  0
  -25.9054  -34.9442   23.5097 C   0  0  0  0  0  0
  -16.5356  -29.9082   23.6331 C   0  0  0  0  0  0
  -16.7279  -28.6500   23.0354 C   0  0  0  0  0  0
  -26.4499  -31.6583   25.0720 C   0  0  0  0  0  0
  -25.3728  -31.3724   26.1446 C   0  0  0  0  0  0
  -27.0348  -30.3006   24.6192 C   0  0  0  0  0  0
  -27.6054  -32.4324   25.7494 C   0  0  0  0  0  0
  -27.5577  -37.1799   24.8467 C   0  0  0  0  0  0
  -21.4207  -29.3041   22.3667 N   0  0  0  0  0  0
  -26.4289  -37.3771   23.9410 N   0  0  0  0  0  0
  -24.6946  -31.0536   22.0941 N   0  0  0  0  0  0
  -23.4200  -28.8150   23.3027 O   0  0  0  0  0  0
  -28.3347  -26.4157   20.1166 O   0  0  0  0  0  0
  -26.5631  -34.8916   22.4669 O   0  0  0  0  0  0
  -23.5455  -32.1368   23.7285 O   0  0  0  0  0  0
  -31.1920  -18.8834   18.8466 C   0  0  0  0  0  0
  -30.9972  -17.5764   19.3382 C   0  0  0  0  0  0
  -30.4209  -19.9716   19.2973 C   0  0  0  0  0  0
  -30.0410  -17.2837   20.3440 C   0  0  0  0  0  0
  -29.3820  -19.7971   20.2310 C   0  0  0  0  0  0
  -29.2162  -18.4292   20.7457 C   0  0  0  0  0  0
  -29.7622  -24.0084   18.9510 C   0  0  0  0  0  0
  -27.3689  -23.3265   18.9838 C   0  0  0  0  0  0
  -29.5084  -15.8706   22.3414 C   0  0  0  0  0  0
  -27.2163  -20.6684   21.0286 C   0  0  0  0  0  0
  -29.0388  -22.3870   20.7738 C   0  0  0  0  0  0
  -28.2291  -25.0371   20.6969 C   0  0  0  0  0  0
  -28.5763  -23.6760   19.8747 C   0  0  0  0  0  0
  -29.9598  -15.8976   20.9423 N   0  0  0  0  0  0
  -28.5514  -20.9663   20.5178 N   0  0  0  0  0  0
  -28.2313  -18.2063   21.6504 F   0  0  0  0  0  0
  -31.4708  -12.5969   19.1593 H   0  0  0  0  0  0
  -30.3895  -11.4857   19.9378 H   0  0  0  0  0  0
  -29.7951  -11.7548   17.5121 H   0  0  0  0  0  0
  -29.6355  -13.4805   17.7216 H   0  0  0  0  0  0
  -27.8818  -11.2933   18.8818 H   0  0  0  0  0  0
  -27.3797  -12.5561   17.7897 H   0  0  0  0  0  0
  -27.6498  -14.2599   19.4981 H   0  0  0  0  0  0
  -28.7325  -12.0893   21.3489 H   0  0  0  0  0  0
  -28.3695  -13.7028   21.8332 H   0  0  0  0  0  0
  -25.2775   -9.5693   22.4739 H   0  0  0  0  0  0
  -24.0017   -7.4639   22.7470 H   0  0  0  0  0  0
  -21.0843   -8.8762   19.8949 H   0  0  0  0  0  0
  -22.3693  -10.9664   19.6153 H   0  0  0  0  0  0
  -21.2007   -7.6150   23.9716 H   0  0  0  0  0  0
  -21.1484   -6.0523   25.9076 H   0  0  0  0  0  0
  -22.0598   -2.7611   23.2841 H   0  0  0  0  0  0
  -22.4126  -11.9876   22.4806 H   0  0  0  0  0  0
  -21.1105  -13.1213   22.2631 H   0  0  0  0  0  0
  -24.6685  -15.8531   20.5510 H   0  0  0  0  0  0
  -26.2941  -15.6338   20.1445 H   0  0  0  0  0  0
  -26.7197  -32.5412   23.1080 H   0  0  0  0  0  0
  -25.0071  -33.9701   25.0403 H   0  0  0  0  0  0
  -22.7227  -31.2983   21.3936 H   0  0  0  0  0  0
  -23.3750  -35.9615   23.3302 H   0  0  0  0  0  0
  -24.3577  -36.8910   22.2056 H   0  0  0  0  0  0
  -23.7238  -37.6484   23.6669 H   0  0  0  0  0  0
  -26.1042  -31.5324   20.5997 H   0  0  0  0  0  0
  -26.8492  -30.8269   22.0031 H   0  0  0  0  0  0
  -28.1295  -28.9563   21.1756 H   0  0  0  0  0  0
  -25.9854  -25.8809   19.0503 H   0  0  0  0  0  0
  -23.9694  -27.2792   19.0354 H   0  0  0  0  0  0
  -23.7699  -30.5779   19.4009 H   0  0  0  0  0  0
  -22.7620  -29.2381   19.8562 H   0  0  0  0  0  0
  -25.1295  -36.1924   25.0821 H   0  0  0  0  0  0
  -20.9991  -28.3269   24.1391 H   0  0  0  0  0  0
  -20.5671  -26.2306   23.3615 H   0  0  0  0  0  0
  -21.6644  -26.7429   22.1205 H   0  0  0  0  0  0
  -19.6908  -25.6291   21.1243 H   0  0  0  0  0  0
  -19.6682  -27.3191   20.6741 H   0  0  0  0  0  0
  -17.4201  -26.6679   21.4030 H   0  0  0  0  0  0
  -18.0330  -26.0069   22.9022 H   0  0  0  0  0  0
  -19.7941  -30.7277   24.2258 H   0  0  0  0  0  0
  -17.5017  -31.6265   24.5165 H   0  0  0  0  0  0
  -15.5356  -30.2983   23.7652 H   0  0  0  0  0  0
  -15.8682  -28.0816   22.7069 H   0  0  0  0  0  0
  -24.5902  -30.7076   25.7774 H   0  0  0  0  0  0
  -24.8920  -32.2887   26.4880 H   0  0  0  0  0  0
  -25.8050  -30.8896   27.0221 H   0  0  0  0  0  0
  -26.2925  -29.6755   24.1214 H   0  0  0  0  0  0
  -27.4039  -29.7271   25.4705 H   0  0  0  0  0  0
  -27.8798  -30.4294   23.9425 H   0  0  0  0  0  0
  -27.2663  -33.3629   26.2064 H   0  0  0  0  0  0
  -28.3867  -32.6880   25.0323 H   0  0  0  0  0  0
  -28.0719  -31.8456   26.5418 H   0  0  0  0  0  0
  -28.2595  -38.0095   24.7512 H   0  0  0  0  0  0
  -28.1074  -36.2627   24.6295 H   0  0  0  0  0  0
  -27.2298  -37.1451   25.8871 H   0  0  0  0  0  0
  -20.9396  -29.8767   21.6872 H   0  0  0  0  0  0
  -26.0168  -38.2846   24.1412 H   0  0  0  0  0  0
  -31.9539  -19.0546   18.0988 H   0  0  0  0  0  0
  -31.6433  -16.8166   18.9295 H   0  0  0  0  0  0
  -30.6052  -20.9461   18.8698 H   0  0  0  0  0  0
  -30.0360  -23.1565   18.3285 H   0  0  0  0  0  0
  -30.6424  -24.2964   19.5269 H   0  0  0  0  0  0
  -29.5281  -24.8376   18.2824 H   0  0  0  0  0  0
  -27.5379  -22.4074   18.4222 H   0  0  0  0  0  0
  -27.1748  -24.1123   18.2545 H   0  0  0  0  0  0
  -26.4587  -23.2006   19.5688 H   0  0  0  0  0  0
  -28.4197  -15.8746   22.3977 H   0  0  0  0  0  0
  -29.8742  -16.7444   22.8822 H   0  0  0  0  0  0
  -29.8741  -15.0070   22.9019 H   0  0  0  0  0  0
  -26.7264  -19.8932   20.4374 H   0  0  0  0  0  0
  -26.5739  -21.5474   21.0098 H   0  0  0  0  0  0
  -27.2651  -20.3376   22.0669 H   0  0  0  0  0  0
  -28.7330  -22.6084   21.7979 H   0  0  0  0  0  0
  -30.1279  -22.3675   20.8397 H   0  0  0  0  0  0
  -28.9137  -25.0628   21.5451 H   0  0  0  0  0  0
  -27.2485  -24.9193   21.1611 H   0  0  0  0  0  0
  1 25  1  0  0  0
  1 30  2  0  0  0
  1 84  1  0  0  0
  2  3  1  0  0  0
  2 25  1  0  0  0
  2 87  1  0  0  0
  2 88  1  0  0  0
  3  4  1  0  0  0
  3 89  1  0  0  0
  3 90  1  0  0  0
  4  5  1  0  0  0
  4 91  1  0  0  0
  4 92  1  0  0  0
  5  6  1  0  0  0
  5 26  1  0  0  0
  5 93  1  0  0  0
  6 25  1  0  0  0
  6 94  1  0  0  0
  6 95  1  0  0  0
  7  8  2  0  0  0
  7 26  1  0  0  0
  7 29  1  0  0  0
  8  9  1  0  0  0
  8 22  1  0  0  0
  9 10  1  0  0  0
  9 27  2  0  0  0
 10 11  2  0  0  0
 10 15  1  0  0  0
 11 12  1  0  0  0
 11 96  1  0  0  0
 12 13  2  0  0  0
 12 97  1  0  0  0
 13 14  1  0  0  0
 13 31  1  0  0  0
 14 15  2  0  0  0
 14 98  1  0  0  0
 15 99  1  0  0  0
 16 17  2  0  0  0
 16 21  1  0  0  0
 16 31  1  0  0  0
 17 18  1  0  0  0
 17100  1  0  0  0
 18 19  2  0  0  0
 18101  1  0  0  0
 19 20  1  0  0  0
 19 24  1  0  0  0
 20 21  2  0  0  0
 20102  1  0  0  0
 21 23  1  0  0  0
 22 28  1  0  0  0
 22 32  2  0  0  0
 26 27  1  0  0  0
 28103  1  0  0  0
 28104  1  0  0  0
 29105  1  0  0  0
 29106  1  0  0  0
 33 34  1  0  0  0
 33 66  1  0  0  0
 33 70  2  0  0  0
 34 36  1  0  0  0
 34 59  1  0  0  0
 34107  1  0  0  0
 35 44  2  0  0  0
 35 45  1  0  0  0
 35 68  1  0  0  0
 36 56  1  0  0  0
 36108  1  0  0  0
 37 39  1  0  0  0
 37 47  1  0  0  0
 37 66  1  0  0  0
 37109  1  0  0  0
 38 43  2  0  0  0
 38 46  1  0  0  0
 38 47  1  0  0  0
 39 64  1  0  0  0
 39 67  2  0  0  0
 40 52  1  0  0  0
 40 53  2  0  0  0
 40 58  1  0  0  0
 41110  1  0  0  0
 41111  1  0  0  0
 41112  1  0  0  0
 41 48  1  0  0  0
 42 43  1  0  0  0
 42 66  1  0  0  0
 42113  1  0  0  0
 42114  1  0  0  0
 43 44  1  0  0  0
 44115  1  0  0  0
 45 46  2  0  0  0
 45116  1  0  0  0
 46117  1  0  0  0
 47118  1  0  0  0
 47119  1  0  0  0
 48 56  1  0  0  0
 48 65  1  0  0  0
 48120  1  0  0  0
 49 50  1  0  0  0
 49 53  1  0  0  0
 49 64  1  0  0  0
 49121  1  0  0  0
 50 51  1  0  0  0
 50122  1  0  0  0
 50123  1  0  0  0
 51 52  1  0  0  0
 51124  1  0  0  0
 51125  1  0  0  0
 52126  1  0  0  0
 52127  1  0  0  0
 53 54  1  0  0  0
 54 55  2  0  0  0
 54128  1  0  0  0
 55 57  1  0  0  0
 55129  1  0  0  0
 56 69  2  0  0  0
 57 58  2  0  0  0
 57130  1  0  0  0
 58131  1  0  0  0
 59 60  1  0  0  0
 59 61  1  0  0  0
 59 62  1  0  0  0
 60132  1  0  0  0
 60133  1  0  0  0
 60134  1  0  0  0
 61135  1  0  0  0
 61136  1  0  0  0
 61137  1  0  0  0
 62138  1  0  0  0
 62139  1  0  0  0
 62140  1  0  0  0
 63 65  1  0  0  0
 63141  1  0  0  0
 63142  1  0  0  0
 63143  1  0  0  0
 64144  1  0  0  0
 65145  1  0  0  0
 68 82  1  0  0  0
 71 72  2  0  0  0
 71 73  1  0  0  0
 71146  1  0  0  0
 72 74  1  0  0  0
 72147  1  0  0  0
 73 75  2  0  0  0
 73148  1  0  0  0
 74 76  2  0  0  0
 74 84  1  0  0  0
 75 76  1  0  0  0
 75 85  1  0  0  0
 76 86  1  0  0  0
 77149  1  0  0  0
 77150  1  0  0  0
 77151  1  0  0  0
 77 83  1  0  0  0
 78 83  1  0  0  0
 78152  1  0  0  0
 78153  1  0  0  0
 78154  1  0  0  0
 79 84  1  0  0  0
 79155  1  0  0  0
 79156  1  0  0  0
 79157  1  0  0  0
 80 85  1  0  0  0
 80158  1  0  0  0
 80159  1  0  0  0
 80160  1  0  0  0
 81 83  1  0  0  0
 81 85  1  0  0  0
 81161  1  0  0  0
 81162  1  0  0  0
 82 83  1  0  0  0
 82163  1  0  0  0
 82164  1  0  0  0
M  ISO  4   1 100  68 101  82 101  84 100
M  END
> <chiral flag>
0

> <version>
0

> <s_m_source_file>
/data/baiqing/PycharmProjects/Reinvent-master-3.2/result/LINK_invent/BTK/process_docking_weight1_custom_product_contain_oxygen_bond_distance_aromatic_linkinvent_7_9_3/rearranged_h_0015.sdf

> <i_m_source_file_index>
77

> <r_mmod_Potential_Energy-OPLS-2005>
454.697845458984

> <r_mmod_Stretch_Energy-OPLS-2005>
145.83984375

> <r_mmod_Bend_Energy-OPLS-2005>
199.692520141602

> <r_mmod_Torsional_Energy-OPLS-2005>
329.361907958984

> <r_mmod_Improper_Torsional_Energy-OPLS-2005>
5.08718395233154

> <r_mmod_Van_der_Waal_Energy-OPLS-2005>
156.785400390625

> <r_mmod_Electrostatic_Energy-OPLS-2005>
-267.811645507812

> <r_mmod_Solvation_Energy-OPLS-2005>
-185.867980957031

> <b_mmod_Minimization_Converged-OPLS-2005>
0

> <r_mmod_RMS_Derivative-OPLS-2005>
0.691380560398102

$$$$
77
                    3D
 Structure written by MMmdl.
144152  0  0  1  0            999 V2000
  -30.3016  -15.5936   20.3330 C   0  0  0  0  0  0
  -30.4322  -13.0478   19.5381 C   0  0  0  0  0  0
  -29.5516  -12.6463   18.3199 C   0  0  0  0  0  0
  -28.1208  -12.2989   18.7605 C   0  0  0  0  0  0
  -27.5993  -13.3022   19.8143 C   0  0  2  0  0  0
  -28.6188  -13.6099   20.9357 C   0  0  0  0  0  0
  -25.2336  -13.8274   20.5781 C   0  0  0  0  0  0
  -24.1721  -13.0430   20.9286 C   0  0  0  0  0  0
  -24.6416  -11.6940   20.8765 C   0  0  0  0  0  0
  -23.9116  -10.4290   21.0399 C   0  0  0  0  0  0
  -24.3651   -9.4203   21.9181 C   0  0  0  0  0  0
  -23.6312   -8.2245   22.0754 C   0  0  0  0  0  0
  -22.4293   -8.0286   21.3544 C   0  0  0  0  0  0
  -21.9939   -9.0262   20.4644 C   0  0  0  0  0  0
  -22.7282  -10.2133   20.3051 C   0  0  0  0  0  0
  -21.6858   -6.0741   22.5279 C   0  0  0  0  0  0
  -21.4018   -6.5643   23.8213 C   0  0  0  0  0  0
  -21.3660   -5.6794   24.9174 C   0  0  0  0  0  0
  -21.6044   -4.3057   24.7224 C   0  0  0  0  0  0
  -21.8818   -3.8150   23.4345 C   0  0  0  0  0  0
  -21.9194   -4.6967   22.3401 C   0  0  0  0  0  0
  -22.7733  -13.5164   21.1921 C   0  0  0  0  0  0
  -22.1662   -4.2153   21.0979 F   0  0  0  0  0  0
  -21.5627   -3.4540   25.7736 F   0  0  0  0  0  0
  -29.8004  -14.2228   20.2866 N   0  0  0  0  0  0
  -26.2783  -12.9596   20.3225 N   0  0  0  0  0  0
  -25.9361  -11.6673   20.5701 N   0  0  0  0  0  0
  -22.0398  -12.8141   22.0473 N   0  0  0  0  0  0
  -25.3917  -15.2015   20.4210 N   0  0  0  0  0  0
  -31.5362  -15.5649   20.1660 O   0  0  0  0  0  0
  -21.6648   -6.8888   21.4243 O   0  0  0  0  0  0
  -22.3408  -14.5463   20.6757 O   0  0  0  0  0  0
  -24.6832  -31.8009   23.1526 C   0  0  0  0  0  0
  -25.9416  -32.4473   23.8069 C   0  0  1  0  0  0
  -27.2273  -26.7145   20.2123 C   0  0  0  0  0  0
  -25.5997  -33.8297   24.1956 N   0  0  0  0  0  0
  -23.5090  -30.4034   21.5063 C   0  0  2  0  0  0
  -24.9669  -28.7474   20.1184 C   0  0  0  0  0  0
  -22.7765  -29.4320   22.4714 C   0  0  0  0  0  0
  -18.0339  -28.1421   22.8455 C   0  0  0  0  0  0
  -24.1495  -36.7156   23.2652 C   0  0  0  0  0  0
  -26.0896  -30.5379   21.4156 C   0  0  0  0  0  0
  -26.1563  -29.1041   20.7652 C   0  0  0  0  0  0
  -27.2729  -28.1157   20.7794 C   0  0  0  0  0  0
  -26.0047  -26.5656   19.5093 C   0  0  0  0  0  0
  -24.9295  -27.5032   19.4668 C   0  0  0  0  0  0
  -23.7627  -29.7013   20.1415 C   0  0  0  0  0  0
  -25.4145  -36.2898   24.0282 C   0  0  1  0  0  0
  -20.5975  -28.3780   23.1142 C   0  0  2  0  0  0
  -20.6805  -26.9440   22.5402 C   0  0  0  0  0  0
  -19.5781  -26.6371   21.5216 C   0  0  0  0  0  0
  -18.1964  -26.7949   22.1619 C   0  0  0  0  0  0
  -19.1605  -28.8925   23.2780 C   0  0  0  0  0  0
  -18.9510  -30.1509   23.8825 C   0  0  0  0  0  0
  -17.6500  -30.6603   24.0550 C   0  0  0  0  0  0
  -25.9124  -34.9288   23.4955 C   0  0  0  0  0  0
  -16.5390  -29.9085   23.6350 C   0  0  0  0  0  0
  -16.7319  -28.6507   23.0367 C   0  0  0  0  0  0
  -26.4596  -31.6504   25.0688 C   0  0  0  0  0  0
  -25.3663  -31.3819   26.1303 C   0  0  0  0  0  0
  -27.0528  -30.2843   24.6583 C   0  0  0  0  0  0
  -27.6043  -32.4365   25.7507 C   0  0  0  0  0  0
  -27.5564  -37.1735   24.8466 C   0  0  0  0  0  0
  -21.4413  -29.3029   22.3463 N   0  0  0  0  0  0
  -26.4271  -37.3658   23.9408 N   0  0  0  0  0  0
  -24.7840  -30.9466   22.0774 N   0  0  0  0  0  0
  -23.4212  -28.7920   23.3055 O   0  0  0  0  0  0
  -28.1830  -25.4928   20.2817 O   0  0  0  0  0  0
  -26.5764  -34.8864   22.4571 O   0  0  0  0  0  0
  -23.5853  -32.1078   23.6485 O   0  0  0  0  0  0
  -29.1864  -21.2038   21.2961 C   0  0  0  0  0  0
  -29.5251  -19.7038   21.3322 C   0  0  0  0  0  0
  -28.8232  -19.5007   19.2400 C   0  0  0  0  0  0
  -28.6201  -22.0687   20.2158 C   0  0  0  0  0  0
  -29.3947  -18.6266   20.3023 C   0  0  0  0  0  0
  -28.4875  -20.9923   19.1905 C   0  0  0  0  0  0
  -27.8600  -23.7779   20.1605 C   0  0  0  0  0  0
  -29.4723  -16.9061   20.3788 N   0  0  0  0  0  0
  -27.9202  -21.3953   18.0282 F   0  0  0  0  0  0
  -31.4267  -13.3114   19.1763 H   0  0  0  0  0  0
  -30.5873  -12.1958   20.2021 H   0  0  0  0  0  0
  -29.9968  -11.8060   17.7856 H   0  0  0  0  0  0
  -29.5201  -13.4772   17.6136 H   0  0  0  0  0  0
  -28.1388  -11.2969   19.1910 H   0  0  0  0  0  0
  -27.4515  -12.2539   17.9005 H   0  0  0  0  0  0
  -27.4695  -14.2305   19.2563 H   0  0  0  0  0  0
  -28.8684  -12.7182   21.5127 H   0  0  0  0  0  0
  -28.1944  -14.3244   21.6427 H   0  0  0  0  0  0
  -25.2790   -9.5677   22.4766 H   0  0  0  0  0  0
  -24.0012   -7.4637   22.7479 H   0  0  0  0  0  0
  -21.0868   -8.8790   19.8951 H   0  0  0  0  0  0
  -22.3741  -10.9675   19.6163 H   0  0  0  0  0  0
  -21.2013   -7.6151   23.9718 H   0  0  0  0  0  0
  -21.1482   -6.0524   25.9077 H   0  0  0  0  0  0
  -22.0596   -2.7612   23.2844 H   0  0  0  0  0  0
  -22.4039  -11.9816   22.4867 H   0  0  0  0  0  0
  -21.1004  -13.1136   22.2673 H   0  0  0  0  0  0
  -24.6150  -15.8449   20.5294 H   0  0  0  0  0  0
  -26.2212  -15.6436   20.0494 H   0  0  0  0  0  0
  -26.7498  -32.4949   23.0783 H   0  0  0  0  0  0
  -25.0057  -33.9338   25.0050 H   0  0  0  0  0  0
  -22.8338  -31.2406   21.3171 H   0  0  0  0  0  0
  -23.3775  -35.9466   23.3264 H   0  0  0  0  0  0
  -24.3563  -36.8867   22.2077 H   0  0  0  0  0  0
  -23.7237  -37.6314   23.6761 H   0  0  0  0  0  0
  -26.2919  -31.2640   20.6272 H   0  0  0  0  0  0
  -26.9406  -30.6049   22.0810 H   0  0  0  0  0  0
  -28.1677  -28.3947   21.3177 H   0  0  0  0  0  0
  -25.8373  -25.6241   19.0064 H   0  0  0  0  0  0
  -24.0320  -27.2211   18.9336 H   0  0  0  0  0  0
  -23.9373  -30.4617   19.3795 H   0  0  0  0  0  0
  -22.8679  -29.1672   19.8173 H   0  0  0  0  0  0
  -25.1354  -36.1662   25.0772 H   0  0  0  0  0  0
  -21.0057  -28.3405   24.1268 H   0  0  0  0  0  0
  -20.5668  -26.2405   23.3664 H   0  0  0  0  0  0
  -21.6666  -26.7382   22.1221 H   0  0  0  0  0  0
  -19.6937  -25.6262   21.1293 H   0  0  0  0  0  0
  -19.6724  -27.3141   20.6714 H   0  0  0  0  0  0
  -17.4233  -26.6691   21.4023 H   0  0  0  0  0  0
  -18.0353  -26.0108   22.9032 H   0  0  0  0  0  0
  -19.7985  -30.7344   24.2163 H   0  0  0  0  0  0
  -17.5050  -31.6276   24.5167 H   0  0  0  0  0  0
  -15.5387  -30.2963   23.7715 H   0  0  0  0  0  0
  -15.8720  -28.0801   22.7123 H   0  0  0  0  0  0
  -24.5873  -30.7141   25.7603 H   0  0  0  0  0  0
  -24.8823  -32.3039   26.4532 H   0  0  0  0  0  0
  -25.7841  -30.9111   27.0211 H   0  0  0  0  0  0
  -26.3245  -29.6457   24.1575 H   0  0  0  0  0  0
  -27.3957  -29.7289   25.5323 H   0  0  0  0  0  0
  -27.9224  -30.3970   24.0107 H   0  0  0  0  0  0
  -27.2582  -33.3736   26.1880 H   0  0  0  0  0  0
  -28.3959  -32.6815   25.0413 H   0  0  0  0  0  0
  -28.0596  -31.8632   26.5593 H   0  0  0  0  0  0
  -28.2549  -38.0060   24.7515 H   0  0  0  0  0  0
  -28.1092  -36.2582   24.6293 H   0  0  0  0  0  0
  -27.2278  -37.1370   25.8868 H   0  0  0  0  0  0
  -20.9716  -29.8687   21.6532 H   0  0  0  0  0  0
  -26.0099  -38.2706   24.1421 H   0  0  0  0  0  0
  -29.3322  -21.7147   22.2371 H   0  0  0  0  0  0
  -29.8713  -19.3546   22.2951 H   0  0  0  0  0  0
  -28.5530  -18.9719   18.3380 H   0  0  0  0  0  0
  -27.0570  -23.6664   20.8890 H   0  0  0  0  0  0
  -27.3400  -23.7344   19.2039 H   0  0  0  0  0  0
  -28.5227  -16.5674   20.4289 H   0  0  0  0  0  0
  1 25  1  0  0  0
  1 30  2  0  0  0
  1 78  1  0  0  0
  2  3  1  0  0  0
  2 25  1  0  0  0
  2 80  1  0  0  0
  2 81  1  0  0  0
  3  4  1  0  0  0
  3 82  1  0  0  0
  3 83  1  0  0  0
  4  5  1  0  0  0
  4 84  1  0  0  0
  4 85  1  0  0  0
  5  6  1  0  0  0
  5 26  1  0  0  0
  5 86  1  0  0  0
  6 25  1  0  0  0
  6 87  1  0  0  0
  6 88  1  0  0  0
  7  8  2  0  0  0
  7 26  1  0  0  0
  7 29  1  0  0  0
  8  9  1  0  0  0
  8 22  1  0  0  0
  9 10  1  0  0  0
  9 27  2  0  0  0
 10 11  2  0  0  0
 10 15  1  0  0  0
 11 12  1  0  0  0
 11 89  1  0  0  0
 12 13  2  0  0  0
 12 90  1  0  0  0
 13 14  1  0  0  0
 13 31  1  0  0  0
 14 15  2  0  0  0
 14 91  1  0  0  0
 15 92  1  0  0  0
 16 17  2  0  0  0
 16 21  1  0  0  0
 16 31  1  0  0  0
 17 18  1  0  0  0
 17 93  1  0  0  0
 18 19  2  0  0  0
 18 94  1  0  0  0
 19 20  1  0  0  0
 19 24  1  0  0  0
 20 21  2  0  0  0
 20 95  1  0  0  0
 21 23  1  0  0  0
 22 28  1  0  0  0
 22 32  2  0  0  0
 26 27  1  0  0  0
 28 96  1  0  0  0
 28 97  1  0  0  0
 29 98  1  0  0  0
 29 99  1  0  0  0
 33 34  1  0  0  0
 33 66  1  0  0  0
 33 70  2  0  0  0
 34 36  1  0  0  0
 34 59  1  0  0  0
 34100  1  0  0  0
 35 44  2  0  0  0
 35 45  1  0  0  0
 35 68  1  0  0  0
 36 56  1  0  0  0
 36101  1  0  0  0
 37 39  1  0  0  0
 37 47  1  0  0  0
 37 66  1  0  0  0
 37102  1  0  0  0
 38 43  2  0  0  0
 38 46  1  0  0  0
 38 47  1  0  0  0
 39 64  1  0  0  0
 39 67  2  0  0  0
 40 52  1  0  0  0
 40 53  2  0  0  0
 40 58  1  0  0  0
 41103  1  0  0  0
 41104  1  0  0  0
 41105  1  0  0  0
 41 48  1  0  0  0
 42 43  1  0  0  0
 42 66  1  0  0  0
 42106  1  0  0  0
 42107  1  0  0  0
 43 44  1  0  0  0
 44108  1  0  0  0
 45 46  2  0  0  0
 45109  1  0  0  0
 46110  1  0  0  0
 47111  1  0  0  0
 47112  1  0  0  0
 48 56  1  0  0  0
 48 65  1  0  0  0
 48113  1  0  0  0
 49 50  1  0  0  0
 49 53  1  0  0  0
 49 64  1  0  0  0
 49114  1  0  0  0
 50 51  1  0  0  0
 50115  1  0  0  0
 50116  1  0  0  0
 51 52  1  0  0  0
 51117  1  0  0  0
 51118  1  0  0  0
 52119  1  0  0  0
 52120  1  0  0  0
 53 54  1  0  0  0
 54 55  2  0  0  0
 54121  1  0  0  0
 55 57  1  0  0  0
 55122  1  0  0  0
 56 69  2  0  0  0
 57 58  2  0  0  0
 57123  1  0  0  0
 58124  1  0  0  0
 59 60  1  0  0  0
 59 61  1  0  0  0
 59 62  1  0  0  0
 60125  1  0  0  0
 60126  1  0  0  0
 60127  1  0  0  0
 61128  1  0  0  0
 61129  1  0  0  0
 61130  1  0  0  0
 62131  1  0  0  0
 62132  1  0  0  0
 62133  1  0  0  0
 63 65  1  0  0  0
 63134  1  0  0  0
 63135  1  0  0  0
 63136  1  0  0  0
 64137  1  0  0  0
 65138  1  0  0  0
 68 77  1  0  0  0
 71 72  2  0  0  0
 71 74  1  0  0  0
 71139  1  0  0  0
 72 75  1  0  0  0
 72140  1  0  0  0
 73 75  2  0  0  0
 73 76  1  0  0  0
 73141  1  0  0  0
 74 76  2  0  0  0
 74 77  1  0  0  0
 75 78  1  0  0  0
 76 79  1  0  0  0
 77142  1  0  0  0
 77143  1  0  0  0
 78144  1  0  0  0
M  ISO  4   1 100  68 101  77 101  78 100
M  END
> <chiral flag>
0

> <version>
0

> <s_m_source_file>
/data/baiqing/PycharmProjects/Reinvent-master-3.2/result/LINK_invent/BTK/process_docking_weight1_custom_product_contain_oxygen_bond_distance_aromatic_linkinvent_7_9_3/rearranged_h_0015.sdf

> <i_m_source_file_index>
78

> <r_mmod_Potential_Energy-OPLS-2005>
2286.2490234375

> <r_mmod_Stretch_Energy-OPLS-2005>
913.313842773438

> <r_mmod_Bend_Energy-OPLS-2005>
656.142639160156

> <r_mmod_Torsional_Energy-OPLS-2005>
260.506713867188

> <r_mmod_Improper_Torsional_Energy-OPLS-2005>
10.7463884353638

> <r_mmod_Van_der_Waal_Energy-OPLS-2005>
131.789093017578

> <r_mmod_Electrostatic_Energy-OPLS-2005>
-333.589508056641

> <r_mmod_Solvation_Energy-OPLS-2005>
-213.130996704102

> <b_mmod_Minimization_Converged-OPLS-2005>
1

> <r_mmod_RMS_Derivative-OPLS-2005>
0.0413532331585884

$$$$
78
                    3D
 Structure written by MMmdl.
155163  0  0  1  0            999 V2000
  -30.5586  -14.9266   20.3690 C   0  0  0  0  0  0
  -30.4467  -12.5570   19.4817 C   0  0  0  0  0  0
  -29.5194  -12.4510   18.2481 C   0  0  0  0  0  0
  -28.0410  -12.3106   18.6630 C   0  0  0  0  0  0
  -27.6314  -13.2416   19.8373 C   0  0  2  0  0  0
  -28.6873  -13.2745   20.9589 C   0  0  0  0  0  0
  -25.2511  -13.8221   20.5752 C   0  0  0  0  0  0
  -24.1795  -13.0448   20.9219 C   0  0  0  0  0  0
  -24.6390  -11.6936   20.8742 C   0  0  0  0  0  0
  -23.9064  -10.4306   21.0387 C   0  0  0  0  0  0
  -24.3622   -9.4233   21.9179 C   0  0  0  0  0  0
  -23.6314   -8.2256   22.0758 C   0  0  0  0  0  0
  -22.4304   -8.0272   21.3542 C   0  0  0  0  0  0
  -21.9916   -9.0239   20.4657 C   0  0  0  0  0  0
  -22.7219  -10.2131   20.3064 C   0  0  0  0  0  0
  -21.6870   -6.0732   22.5250 C   0  0  0  0  0  0
  -21.4014   -6.5641   23.8170 C   0  0  0  0  0  0
  -21.3670   -5.6803   24.9135 C   0  0  0  0  0  0
  -21.6048   -4.3061   24.7197 C   0  0  0  0  0  0
  -21.8830   -3.8152   23.4320 C   0  0  0  0  0  0
  -21.9209   -4.6966   22.3379 C   0  0  0  0  0  0
  -22.7812  -13.5215   21.1873 C   0  0  0  0  0  0
  -22.1681   -4.2148   21.0957 F   0  0  0  0  0  0
  -21.5635   -3.4554   25.7716 F   0  0  0  0  0  0
  -29.9520  -13.6737   20.3287 N   0  0  0  0  0  0
  -26.2924  -12.9435   20.3322 N   0  0  0  0  0  0
  -25.9327  -11.6568   20.5787 N   0  0  0  0  0  0
  -22.0481  -12.8174   22.0418 N   0  0  0  0  0  0
  -25.4230  -15.1947   20.4202 N   0  0  0  0  0  0
  -31.7925  -14.9564   20.2953 O   0  0  0  0  0  0
  -21.6676   -6.8865   21.4213 O   0  0  0  0  0  0
  -22.3483  -14.5513   20.6722 O   0  0  0  0  0  0
  -24.6409  -31.8460   23.1908 C   0  0  0  0  0  0
  -25.9207  -32.4684   23.8278 C   0  0  1  0  0  0
  -27.2139  -27.1611   20.1487 C   0  0  0  0  0  0
  -25.5955  -33.8489   24.2191 N   0  0  0  0  0  0
  -23.4415  -30.4698   21.5357 C   0  0  2  0  0  0
  -24.8906  -28.9046   20.1058 C   0  0  0  0  0  0
  -22.7536  -29.4579   22.4863 C   0  0  0  0  0  0
  -18.0292  -28.1394   22.8479 C   0  0  0  0  0  0
  -24.1505  -36.7262   23.2650 C   0  0  0  0  0  0
  -25.9966  -30.7316   21.3849 C   0  0  0  0  0  0
  -26.0684  -29.3470   20.7227 C   0  0  0  0  0  0
  -27.2308  -28.4924   20.7257 C   0  0  0  0  0  0
  -26.0118  -26.8187   19.4889 C   0  0  0  0  0  0
  -24.8765  -27.6540   19.4725 C   0  0  0  0  0  0
  -23.6650  -29.8025   20.1531 C   0  0  0  0  0  0
  -25.4133  -36.3024   24.0317 C   0  0  1  0  0  0
  -20.5898  -28.3732   23.1224 C   0  0  2  0  0  0
  -20.6779  -26.9430   22.5412 C   0  0  0  0  0  0
  -19.5763  -26.6385   21.5208 C   0  0  0  0  0  0
  -18.1941  -26.7938   22.1609 C   0  0  0  0  0  0
  -19.1547  -28.8876   23.2847 C   0  0  0  0  0  0
  -18.9473  -30.1465   23.8888 C   0  0  0  0  0  0
  -17.6471  -30.6592   24.0557 C   0  0  0  0  0  0
  -25.9078  -34.9395   23.5063 C   0  0  0  0  0  0
  -16.5363  -29.9093   23.6328 C   0  0  0  0  0  0
  -16.7274  -28.6498   23.0368 C   0  0  0  0  0  0
  -26.4539  -31.6538   25.0717 C   0  0  0  0  0  0
  -25.3720  -31.3699   26.1404 C   0  0  0  0  0  0
  -27.0413  -30.2933   24.6305 C   0  0  0  0  0  0
  -27.6078  -32.4306   25.7487 C   0  0  0  0  0  0
  -27.5577  -37.1786   24.8460 C   0  0  0  0  0  0
  -21.4231  -29.3066   22.3595 N   0  0  0  0  0  0
  -26.4288  -37.3741   23.9402 N   0  0  0  0  0  0
  -24.7131  -31.0361   22.0926 N   0  0  0  0  0  0
  -23.4190  -28.8136   23.3016 O   0  0  0  0  0  0
  -28.2663  -26.1826   20.2304 O   0  0  0  0  0  0
  -26.5655  -34.8888   22.4637 O   0  0  0  0  0  0
  -23.5544  -32.1325   23.7154 O   0  0  0  0  0  0
  -28.2886  -18.0600   19.8674 C   0  0  0  0  0  0
  -30.4304  -18.5169   20.7323 C   0  0  0  0  0  0
  -27.9540  -19.4582   19.9386 C   0  0  0  0  0  0
  -30.0832  -19.9422   20.8103 C   0  0  0  0  0  0
  -29.5421  -17.4880   20.2459 C   0  0  0  0  0  0
  -28.8148  -20.5032   20.4102 C   0  0  0  0  0  0
  -29.7443  -15.9310   18.3749 C   0  0  0  0  0  0
  -26.9733  -21.9058   21.1459 C   0  0  0  0  0  0
  -28.9153  -23.3304   20.4737 C   0  0  0  0  0  0
  -27.9537  -24.6691   20.1105 C   0  0  0  0  0  0
  -29.8316  -16.0377   19.8451 N   0  0  0  0  0  0
  -28.2987  -21.9006   20.5167 N   0  0  0  0  0  0
  -31.4757  -12.7194   19.1579 H   0  0  0  0  0  0
  -30.4543  -11.6236   20.0459 H   0  0  0  0  0  0
  -29.8067  -11.5888   17.6454 H   0  0  0  0  0  0
  -29.6468  -13.3136   17.5973 H   0  0  0  0  0  0
  -27.8915  -11.2703   18.9510 H   0  0  0  0  0  0
  -27.3907  -12.4827   17.8050 H   0  0  0  0  0  0
  -27.5833  -14.2447   19.4195 H   0  0  0  0  0  0
  -28.7758  -12.3027   21.4464 H   0  0  0  0  0  0
  -28.4082  -13.9938   21.7302 H   0  0  0  0  0  0
  -25.2748   -9.5741   22.4774 H   0  0  0  0  0  0
  -24.0036   -7.4664   22.7487 H   0  0  0  0  0  0
  -21.0848   -8.8731   19.8963 H   0  0  0  0  0  0
  -22.3633  -10.9677   19.6202 H   0  0  0  0  0  0
  -21.1984   -7.6151   23.9655 H   0  0  0  0  0  0
  -21.1496   -6.0543   25.9032 H   0  0  0  0  0  0
  -22.0607   -2.7622   23.2809 H   0  0  0  0  0  0
  -22.4123  -11.9825   22.4786 H   0  0  0  0  0  0
  -21.1105  -13.1178   22.2648 H   0  0  0  0  0  0
  -24.6690  -15.8606   20.5469 H   0  0  0  0  0  0
  -26.2927  -15.6302   20.1434 H   0  0  0  0  0  0
  -26.7274  -32.5307   23.1008 H   0  0  0  0  0  0
  -25.0053  -33.9593   25.0308 H   0  0  0  0  0  0
  -22.7434  -31.2959   21.3840 H   0  0  0  0  0  0
  -23.3752  -35.9607   23.3293 H   0  0  0  0  0  0
  -24.3596  -36.8924   22.2071 H   0  0  0  0  0  0
  -23.7281  -37.6461   23.6702 H   0  0  0  0  0  0
  -26.1469  -31.4941   20.6188 H   0  0  0  0  0  0
  -26.8669  -30.7774   22.0273 H   0  0  0  0  0  0
  -28.1259  -28.8270   21.2293 H   0  0  0  0  0  0
  -25.9107  -25.8634   18.9968 H   0  0  0  0  0  0
  -23.9794  -27.3115   18.9757 H   0  0  0  0  0  0
  -23.7928  -30.5802   19.3988 H   0  0  0  0  0  0
  -22.7802  -29.2433   19.8451 H   0  0  0  0  0  0
  -25.1329  -36.1843   25.0809 H   0  0  0  0  0  0
  -20.9976  -28.3340   24.1345 H   0  0  0  0  0  0
  -20.5668  -26.2353   23.3648 H   0  0  0  0  0  0
  -21.6653  -26.7451   22.1214 H   0  0  0  0  0  0
  -19.6943  -25.6289   21.1264 H   0  0  0  0  0  0
  -19.6698  -27.3177   20.6722 H   0  0  0  0  0  0
  -17.4212  -26.6670   21.4012 H   0  0  0  0  0  0
  -18.0334  -26.0085   22.9007 H   0  0  0  0  0  0
  -19.7950  -30.7276   24.2271 H   0  0  0  0  0  0
  -17.5031  -31.6273   24.5158 H   0  0  0  0  0  0
  -15.5368  -30.3001   23.7668 H   0  0  0  0  0  0
  -15.8663  -28.0816   22.7120 H   0  0  0  0  0  0
  -24.5948  -30.6992   25.7715 H   0  0  0  0  0  0
  -24.8846  -32.2860   26.4754 H   0  0  0  0  0  0
  -25.8018  -30.8933   27.0225 H   0  0  0  0  0  0
  -26.3040  -29.6622   24.1335 H   0  0  0  0  0  0
  -27.4039  -29.7271   25.4896 H   0  0  0  0  0  0
  -27.8935  -30.4158   23.9613 H   0  0  0  0  0  0
  -27.2690  -33.3643   26.1981 H   0  0  0  0  0  0
  -28.3919  -32.6799   25.0322 H   0  0  0  0  0  0
  -28.0703  -31.8475   26.5463 H   0  0  0  0  0  0
  -28.2570  -38.0103   24.7503 H   0  0  0  0  0  0
  -28.1089  -36.2625   24.6280 H   0  0  0  0  0  0
  -27.2283  -37.1428   25.8860 H   0  0  0  0  0  0
  -20.9437  -29.8747   21.6749 H   0  0  0  0  0  0
  -26.0144  -38.2811   24.1390 H   0  0  0  0  0  0
  -27.5410  -17.4034   19.4471 H   0  0  0  0  0  0
  -31.4326  -18.2273   21.0157 H   0  0  0  0  0  0
  -26.9660  -19.7250   19.5934 H   0  0  0  0  0  0
  -30.8259  -20.6168   21.2109 H   0  0  0  0  0  0
  -28.8063  -15.4755   18.0650 H   0  0  0  0  0  0
  -30.5616  -15.3570   17.9322 H   0  0  0  0  0  0
  -29.7980  -16.9062   17.8891 H   0  0  0  0  0  0
  -26.6700  -20.9394   21.5543 H   0  0  0  0  0  0
  -26.2147  -22.2142   20.4253 H   0  0  0  0  0  0
  -26.9416  -22.6039   21.9843 H   0  0  0  0  0  0
  -29.3637  -23.5007   21.4540 H   0  0  0  0  0  0
  -29.7548  -23.3118   19.7790 H   0  0  0  0  0  0
  -27.0419  -24.5488   20.6948 H   0  0  0  0  0  0
  -27.6514  -24.5190   19.0737 H   0  0  0  0  0  0
  1 25  1  0  0  0
  1 30  2  0  0  0
  1 81  1  0  0  0
  2  3  1  0  0  0
  2 25  1  0  0  0
  2 83  1  0  0  0
  2 84  1  0  0  0
  3  4  1  0  0  0
  3 85  1  0  0  0
  3 86  1  0  0  0
  4  5  1  0  0  0
  4 87  1  0  0  0
  4 88  1  0  0  0
  5  6  1  0  0  0
  5 26  1  0  0  0
  5 89  1  0  0  0
  6 25  1  0  0  0
  6 90  1  0  0  0
  6 91  1  0  0  0
  7  8  2  0  0  0
  7 26  1  0  0  0
  7 29  1  0  0  0
  8  9  1  0  0  0
  8 22  1  0  0  0
  9 10  1  0  0  0
  9 27  2  0  0  0
 10 11  2  0  0  0
 10 15  1  0  0  0
 11 12  1  0  0  0
 11 92  1  0  0  0
 12 13  2  0  0  0
 12 93  1  0  0  0
 13 14  1  0  0  0
 13 31  1  0  0  0
 14 15  2  0  0  0
 14 94  1  0  0  0
 15 95  1  0  0  0
 16 17  2  0  0  0
 16 21  1  0  0  0
 16 31  1  0  0  0
 17 18  1  0  0  0
 17 96  1  0  0  0
 18 19  2  0  0  0
 18 97  1  0  0  0
 19 20  1  0  0  0
 19 24  1  0  0  0
 20 21  2  0  0  0
 20 98  1  0  0  0
 21 23  1  0  0  0
 22 28  1  0  0  0
 22 32  2  0  0  0
 26 27  1  0  0  0
 28 99  1  0  0  0
 28100  1  0  0  0
 29101  1  0  0  0
 29102  1  0  0  0
 33 34  1  0  0  0
 33 66  1  0  0  0
 33 70  2  0  0  0
 34 36  1  0  0  0
 34 59  1  0  0  0
 34103  1  0  0  0
 35 44  2  0  0  0
 35 45  1  0  0  0
 35 68  1  0  0  0
 36 56  1  0  0  0
 36104  1  0  0  0
 37 39  1  0  0  0
 37 47  1  0  0  0
 37 66  1  0  0  0
 37105  1  0  0  0
 38 43  2  0  0  0
 38 46  1  0  0  0
 38 47  1  0  0  0
 39 64  1  0  0  0
 39 67  2  0  0  0
 40 52  1  0  0  0
 40 53  2  0  0  0
 40 58  1  0  0  0
 41106  1  0  0  0
 41107  1  0  0  0
 41108  1  0  0  0
 41 48  1  0  0  0
 42 43  1  0  0  0
 42 66  1  0  0  0
 42109  1  0  0  0
 42110  1  0  0  0
 43 44  1  0  0  0
 44111  1  0  0  0
 45 46  2  0  0  0
 45112  1  0  0  0
 46113  1  0  0  0
 47114  1  0  0  0
 47115  1  0  0  0
 48 56  1  0  0  0
 48 65  1  0  0  0
 48116  1  0  0  0
 49 50  1  0  0  0
 49 53  1  0  0  0
 49 64  1  0  0  0
 49117  1  0  0  0
 50 51  1  0  0  0
 50118  1  0  0  0
 50119  1  0  0  0
 51 52  1  0  0  0
 51120  1  0  0  0
 51121  1  0  0  0
 52122  1  0  0  0
 52123  1  0  0  0
 53 54  1  0  0  0
 54 55  2  0  0  0
 54124  1  0  0  0
 55 57  1  0  0  0
 55125  1  0  0  0
 56 69  2  0  0  0
 57 58  2  0  0  0
 57126  1  0  0  0
 58127  1  0  0  0
 59 60  1  0  0  0
 59 61  1  0  0  0
 59 62  1  0  0  0
 60128  1  0  0  0
 60129  1  0  0  0
 60130  1  0  0  0
 61131  1  0  0  0
 61132  1  0  0  0
 61133  1  0  0  0
 62134  1  0  0  0
 62135  1  0  0  0
 62136  1  0  0  0
 63 65  1  0  0  0
 63137  1  0  0  0
 63138  1  0  0  0
 63139  1  0  0  0
 64140  1  0  0  0
 65141  1  0  0  0
 68 80  1  0  0  0
 71 73  2  0  0  0
 71 75  1  0  0  0
 71142  1  0  0  0
 72 74  1  0  0  0
 72 75  2  0  0  0
 72143  1  0  0  0
 73 76  1  0  0  0
 73144  1  0  0  0
 74 76  2  0  0  0
 74145  1  0  0  0
 75 81  1  0  0  0
 76 82  1  0  0  0
 77 81  1  0  0  0
 77146  1  0  0  0
 77147  1  0  0  0
 77148  1  0  0  0
 78 82  1  0  0  0
 78149  1  0  0  0
 78150  1  0  0  0
 78151  1  0  0  0
 79 80  1  0  0  0
 79 82  1  0  0  0
 79152  1  0  0  0
 79153  1  0  0  0
 80154  1  0  0  0
 80155  1  0  0  0
M  ISO  4   1 100  68 101  80 101  81 100
M  END
> <chiral flag>
0

> <version>
0

> <s_m_source_file>
/data/baiqing/PycharmProjects/Reinvent-master-3.2/result/LINK_invent/BTK/process_docking_weight1_custom_product_contain_oxygen_bond_distance_aromatic_linkinvent_7_9_3/rearranged_h_0015.sdf

> <i_m_source_file_index>
79

> <r_mmod_Potential_Energy-OPLS-2005>
683.878845214844

> <r_mmod_Stretch_Energy-OPLS-2005>
219.790084838867

> <r_mmod_Bend_Energy-OPLS-2005>
288.205352783203

> <r_mmod_Torsional_Energy-OPLS-2005>
327.888244628906

> <r_mmod_Improper_Torsional_Energy-OPLS-2005>
28.8177642822266

> <r_mmod_Van_der_Waal_Energy-OPLS-2005>
147.120971679688

> <r_mmod_Electrostatic_Energy-OPLS-2005>
-296.586944580078

> <r_mmod_Solvation_Energy-OPLS-2005>
-213.265380859375

> <b_mmod_Minimization_Converged-OPLS-2005>
0

> <r_mmod_RMS_Derivative-OPLS-2005>
2.22342562675476

$$$$
79
                    3D
 Structure written by MMmdl.
162171  0  0  1  0            999 V2000
  -30.7187  -14.5092   20.5653 C   0  0  0  0  0  0
  -30.4172  -12.3303   19.4348 C   0  0  0  0  0  0
  -29.4930  -12.4928   18.2119 C   0  0  0  0  0  0
  -28.0185  -12.3337   18.6287 C   0  0  0  0  0  0
  -27.6519  -13.2011   19.8607 C   0  0  2  0  0  0
  -28.6958  -13.0491   20.9910 C   0  0  0  0  0  0
  -25.2568  -13.8137   20.5675 C   0  0  0  0  0  0
  -24.1826  -13.0418   20.9189 C   0  0  0  0  0  0
  -24.6379  -11.6888   20.8750 C   0  0  0  0  0  0
  -23.9045  -10.4281   21.0419 C   0  0  0  0  0  0
  -24.3606   -9.4195   21.9188 C   0  0  0  0  0  0
  -23.6284   -8.2230   22.0750 C   0  0  0  0  0  0
  -22.4265   -8.0272   21.3541 C   0  0  0  0  0  0
  -21.9897   -9.0247   20.4644 C   0  0  0  0  0  0
  -22.7222  -10.2128   20.3062 C   0  0  0  0  0  0
  -21.6848   -6.0726   22.5278 C   0  0  0  0  0  0
  -21.4013   -6.5635   23.8211 C   0  0  0  0  0  0
  -21.3662   -5.6791   24.9176 C   0  0  0  0  0  0
  -21.6049   -4.3054   24.7228 C   0  0  0  0  0  0
  -21.8823   -3.8142   23.4351 C   0  0  0  0  0  0
  -21.9194   -4.6955   22.3406 C   0  0  0  0  0  0
  -22.7856  -13.5228   21.1856 C   0  0  0  0  0  0
  -22.1661   -4.2140   21.0985 F   0  0  0  0  0  0
  -21.5631   -3.4542   25.7745 F   0  0  0  0  0  0
  -30.0218  -13.3438   20.4284 N   0  0  0  0  0  0
  -26.2975  -12.9289   20.3318 N   0  0  0  0  0  0
  -25.9300  -11.6460   20.5772 N   0  0  0  0  0  0
  -22.0499  -12.8222   22.0418 N   0  0  0  0  0  0
  -25.4291  -15.1849   20.4073 N   0  0  0  0  0  0
  -31.8639  -14.6419   20.1207 O   0  0  0  0  0  0
  -21.6635   -6.8866   21.4238 O   0  0  0  0  0  0
  -22.3545  -14.5537   20.6706 O   0  0  0  0  0  0
  -24.6152  -31.8665   23.2091 C   0  0  0  0  0  0
  -25.9045  -32.4814   23.8388 C   0  0  1  0  0  0
  -27.2314  -27.4167   20.1112 C   0  0  0  0  0  0
  -25.5900  -33.8614   24.2318 N   0  0  0  0  0  0
  -23.4051  -30.4888   21.5482 C   0  0  2  0  0  0
  -24.8547  -28.9503   20.1169 C   0  0  0  0  0  0
  -22.7416  -29.4648   22.4975 C   0  0  0  0  0  0
  -18.0275  -28.1377   22.8485 C   0  0  0  0  0  0
  -24.1488  -36.7314   23.2639 C   0  0  0  0  0  0
  -25.9351  -30.8265   21.3669 C   0  0  0  0  0  0
  -26.0138  -29.4570   20.7200 C   0  0  0  0  0  0
  -27.2077  -28.6955   20.7182 C   0  0  0  0  0  0
  -26.0631  -26.9318   19.4926 C   0  0  0  0  0  0
  -24.8741  -27.6862   19.5005 C   0  0  0  0  0  0
  -23.6170  -29.8194   20.1636 C   0  0  0  0  0  0
  -25.4107  -36.3106   24.0337 C   0  0  1  0  0  0
  -20.5863  -28.3665   23.1313 C   0  0  2  0  0  0
  -20.6758  -26.9395   22.5426 C   0  0  0  0  0  0
  -19.5749  -26.6381   21.5210 C   0  0  0  0  0  0
  -18.1921  -26.7927   22.1607 C   0  0  0  0  0  0
  -19.1524  -28.8837   23.2896 C   0  0  0  0  0  0
  -18.9451  -30.1439   23.8911 C   0  0  0  0  0  0
  -17.6455  -30.6580   24.0565 C   0  0  0  0  0  0
  -25.9038  -34.9473   23.5125 C   0  0  0  0  0  0
  -16.5345  -29.9084   23.6321 C   0  0  0  0  0  0
  -16.7265  -28.6501   23.0341 C   0  0  0  0  0  0
  -26.4474  -31.6595   25.0718 C   0  0  0  0  0  0
  -25.3744  -31.3709   26.1473 C   0  0  0  0  0  0
  -27.0300  -30.3031   24.6104 C   0  0  0  0  0  0
  -27.6046  -32.4322   25.7478 C   0  0  0  0  0  0
  -27.5587  -37.1801   24.8454 C   0  0  0  0  0  0
  -21.4142  -29.3030   22.3716 N   0  0  0  0  0  0
  -26.4289  -37.3794   23.9415 N   0  0  0  0  0  0
  -24.6697  -31.0757   22.0998 N   0  0  0  0  0  0
  -23.4179  -28.8190   23.3028 O   0  0  0  0  0  0
  -28.3733  -26.6448   20.0702 O   0  0  0  0  0  0
  -26.5600  -34.8925   22.4687 O   0  0  0  0  0  0
  -23.5344  -32.1422   23.7476 O   0  0  0  0  0  0
  -29.0286  -18.9177   19.4737 C   0  0  0  0  0  0
  -28.9872  -20.3049   19.7511 C   0  0  0  0  0  0
  -29.5782  -19.8476   22.0529 C   0  0  0  0  0  0
  -29.3488  -17.9826   20.4819 C   0  0  0  0  0  0
  -29.6272  -18.4581   21.7730 C   0  0  0  0  0  0
  -29.2580  -20.8059   21.0497 C   0  0  0  0  0  0
  -29.9636  -17.4381   22.8420 C   0  0  0  0  0  0
  -29.3335  -16.4732   20.1937 C   0  0  0  0  0  0
  -30.7325  -16.2287   22.2661 C   0  0  0  0  0  0
  -30.1491  -22.6568   22.3914 C   0  0  0  0  0  0
  -27.8946  -24.3762   21.1370 C   0  0  0  0  0  0
  -28.6613  -23.2128   20.4308 C   0  0  0  0  0  0
  -28.5817  -25.7764   21.1997 C   0  0  0  0  0  0
  -30.0737  -15.5728   21.1183 N   0  0  0  0  0  0
  -29.2263  -22.2006   21.3527 N   0  0  0  0  0  0
  -31.4618  -12.4202   19.1324 H   0  0  0  0  0  0
  -30.3180  -11.3314   19.8624 H   0  0  0  0  0  0
  -29.7446  -11.7560   17.4477 H   0  0  0  0  0  0
  -29.6472  -13.4727   17.7570 H   0  0  0  0  0  0
  -27.8515  -11.2799   18.8559 H   0  0  0  0  0  0
  -27.3620  -12.5710   17.7908 H   0  0  0  0  0  0
  -27.6696  -14.2287   19.5087 H   0  0  0  0  0  0
  -28.6835  -12.0343   21.3910 H   0  0  0  0  0  0
  -28.4520  -13.7036   21.8292 H   0  0  0  0  0  0
  -25.2755   -9.5674   22.4754 H   0  0  0  0  0  0
  -23.9998   -7.4623   22.7465 H   0  0  0  0  0  0
  -21.0829   -8.8770   19.8950 H   0  0  0  0  0  0
  -22.3683  -10.9672   19.6175 H   0  0  0  0  0  0
  -21.2001   -7.6142   23.9710 H   0  0  0  0  0  0
  -21.1481   -6.0523   25.9078 H   0  0  0  0  0  0
  -22.0597   -2.7601   23.2861 H   0  0  0  0  0  0
  -22.4115  -11.9888   22.4814 H   0  0  0  0  0  0
  -21.1119  -13.1251   22.2630 H   0  0  0  0  0  0
  -24.6654  -15.8424   20.5207 H   0  0  0  0  0  0
  -26.2835  -15.6242   20.0916 H   0  0  0  0  0  0
  -26.7117  -32.5530   23.1154 H   0  0  0  0  0  0
  -25.0056  -33.9773   25.0467 H   0  0  0  0  0  0
  -22.6946  -31.3054   21.4069 H   0  0  0  0  0  0
  -23.3751  -35.9644   23.3288 H   0  0  0  0  0  0
  -24.3589  -36.8945   22.2056 H   0  0  0  0  0  0
  -23.7235  -37.6512   23.6664 H   0  0  0  0  0  0
  -26.0500  -31.5902   20.5963 H   0  0  0  0  0  0
  -26.8220  -30.8817   21.9862 H   0  0  0  0  0  0
  -28.1045  -29.0827   21.1811 H   0  0  0  0  0  0
  -26.0727  -25.9665   19.0067 H   0  0  0  0  0  0
  -23.9854  -27.2922   19.0273 H   0  0  0  0  0  0
  -23.7280  -30.5937   19.4036 H   0  0  0  0  0  0
  -22.7411  -29.2401   19.8659 H   0  0  0  0  0  0
  -25.1283  -36.1966   25.0828 H   0  0  0  0  0  0
  -20.9954  -28.3237   24.1436 H   0  0  0  0  0  0
  -20.5641  -26.2275   23.3615 H   0  0  0  0  0  0
  -21.6634  -26.7423   22.1239 H   0  0  0  0  0  0
  -19.6909  -25.6294   21.1235 H   0  0  0  0  0  0
  -19.6701  -27.3194   20.6741 H   0  0  0  0  0  0
  -17.4198  -26.6690   21.3997 H   0  0  0  0  0  0
  -18.0305  -26.0060   22.8990 H   0  0  0  0  0  0
  -19.7928  -30.7246   24.2293 H   0  0  0  0  0  0
  -17.5010  -31.6261   24.5169 H   0  0  0  0  0  0
  -15.5345  -30.2991   23.7636 H   0  0  0  0  0  0
  -15.8664  -28.0826   22.7044 H   0  0  0  0  0  0
  -24.5920  -30.7047   25.7821 H   0  0  0  0  0  0
  -24.8935  -32.2867   26.4918 H   0  0  0  0  0  0
  -25.8109  -30.8890   27.0229 H   0  0  0  0  0  0
  -26.2840  -29.6799   24.1158 H   0  0  0  0  0  0
  -27.4056  -29.7267   25.4566 H   0  0  0  0  0  0
  -27.8684  -30.4339   23.9259 H   0  0  0  0  0  0
  -27.2645  -33.3587   26.2117 H   0  0  0  0  0  0
  -28.3817  -32.6945   25.0288 H   0  0  0  0  0  0
  -28.0761  -31.8418   26.5344 H   0  0  0  0  0  0
  -28.2589  -38.0115   24.7527 H   0  0  0  0  0  0
  -28.1098  -36.2649   24.6235 H   0  0  0  0  0  0
  -27.2317  -37.1405   25.8859 H   0  0  0  0  0  0
  -20.9302  -29.8760   21.6946 H   0  0  0  0  0  0
  -26.0177  -38.2865   24.1441 H   0  0  0  0  0  0
  -28.8069  -18.5737   18.4729 H   0  0  0  0  0  0
  -28.7520  -20.9693   18.9327 H   0  0  0  0  0  0
  -29.7814  -20.1685   23.0645 H   0  0  0  0  0  0
  -29.0342  -17.1024   23.3045 H   0  0  0  0  0  0
  -30.5520  -17.9100   23.6303 H   0  0  0  0  0  0
  -29.6592  -16.3206   19.1618 H   0  0  0  0  0  0
  -28.2860  -16.1816   20.2286 H   0  0  0  0  0  0
  -30.8951  -15.4948   23.0572 H   0  0  0  0  0  0
  -31.7231  -16.5674   21.9544 H   0  0  0  0  0  0
  -31.0777  -22.0834   22.3874 H   0  0  0  0  0  0
  -29.6919  -22.5628   23.3774 H   0  0  0  0  0  0
  -30.4240  -23.7021   22.2528 H   0  0  0  0  0  0
  -27.6587  -24.0664   22.1559 H   0  0  0  0  0  0
  -26.9182  -24.4904   20.6676 H   0  0  0  0  0  0
  -29.4455  -23.6100   19.7842 H   0  0  0  0  0  0
  -27.9410  -22.7307   19.7697 H   0  0  0  0  0  0
  -29.6560  -25.6498   21.3305 H   0  0  0  0  0  0
  -28.2455  -26.2910   22.1020 H   0  0  0  0  0  0
  1 25  1  0  0  0
  1 30  2  0  0  0
  1 84  1  0  0  0
  2  3  1  0  0  0
  2 25  1  0  0  0
  2 86  1  0  0  0
  2 87  1  0  0  0
  3  4  1  0  0  0
  3 88  1  0  0  0
  3 89  1  0  0  0
  4  5  1  0  0  0
  4 90  1  0  0  0
  4 91  1  0  0  0
  5  6  1  0  0  0
  5 26  1  0  0  0
  5 92  1  0  0  0
  6 25  1  0  0  0
  6 93  1  0  0  0
  6 94  1  0  0  0
  7  8  2  0  0  0
  7 26  1  0  0  0
  7 29  1  0  0  0
  8  9  1  0  0  0
  8 22  1  0  0  0
  9 10  1  0  0  0
  9 27  2  0  0  0
 10 11  2  0  0  0
 10 15  1  0  0  0
 11 12  1  0  0  0
 11 95  1  0  0  0
 12 13  2  0  0  0
 12 96  1  0  0  0
 13 14  1  0  0  0
 13 31  1  0  0  0
 14 15  2  0  0  0
 14 97  1  0  0  0
 15 98  1  0  0  0
 16 17  2  0  0  0
 16 21  1  0  0  0
 16 31  1  0  0  0
 17 18  1  0  0  0
 17 99  1  0  0  0
 18 19  2  0  0  0
 18100  1  0  0  0
 19 20  1  0  0  0
 19 24  1  0  0  0
 20 21  2  0  0  0
 20101  1  0  0  0
 21 23  1  0  0  0
 22 28  1  0  0  0
 22 32  2  0  0  0
 26 27  1  0  0  0
 28102  1  0  0  0
 28103  1  0  0  0
 29104  1  0  0  0
 29105  1  0  0  0
 33 34  1  0  0  0
 33 66  1  0  0  0
 33 70  2  0  0  0
 34 36  1  0  0  0
 34 59  1  0  0  0
 34106  1  0  0  0
 35 44  2  0  0  0
 35 45  1  0  0  0
 35 68  1  0  0  0
 36 56  1  0  0  0
 36107  1  0  0  0
 37 39  1  0  0  0
 37 47  1  0  0  0
 37 66  1  0  0  0
 37108  1  0  0  0
 38 43  2  0  0  0
 38 46  1  0  0  0
 38 47  1  0  0  0
 39 64  1  0  0  0
 39 67  2  0  0  0
 40 52  1  0  0  0
 40 53  2  0  0  0
 40 58  1  0  0  0
 41109  1  0  0  0
 41110  1  0  0  0
 41111  1  0  0  0
 41 48  1  0  0  0
 42 43  1  0  0  0
 42 66  1  0  0  0
 42112  1  0  0  0
 42113  1  0  0  0
 43 44  1  0  0  0
 44114  1  0  0  0
 45 46  2  0  0  0
 45115  1  0  0  0
 46116  1  0  0  0
 47117  1  0  0  0
 47118  1  0  0  0
 48 56  1  0  0  0
 48 65  1  0  0  0
 48119  1  0  0  0
 49 50  1  0  0  0
 49 53  1  0  0  0
 49 64  1  0  0  0
 49120  1  0  0  0
 50 51  1  0  0  0
 50121  1  0  0  0
 50122  1  0  0  0
 51 52  1  0  0  0
 51123  1  0  0  0
 51124  1  0  0  0
 52125  1  0  0  0
 52126  1  0  0  0
 53 54  1  0  0  0
 54 55  2  0  0  0
 54127  1  0  0  0
 55 57  1  0  0  0
 55128  1  0  0  0
 56 69  2  0  0  0
 57 58  2  0  0  0
 57129  1  0  0  0
 58130  1  0  0  0
 59 60  1  0  0  0
 59 61  1  0  0  0
 59 62  1  0  0  0
 60131  1  0  0  0
 60132  1  0  0  0
 60133  1  0  0  0
 61134  1  0  0  0
 61135  1  0  0  0
 61136  1  0  0  0
 62137  1  0  0  0
 62138  1  0  0  0
 62139  1  0  0  0
 63 65  1  0  0  0
 63140  1  0  0  0
 63141  1  0  0  0
 63142  1  0  0  0
 64143  1  0  0  0
 65144  1  0  0  0
 68 83  1  0  0  0
 71 72  2  0  0  0
 71 74  1  0  0  0
 71145  1  0  0  0
 72 76  1  0  0  0
 72146  1  0  0  0
 73 75  1  0  0  0
 73 76  2  0  0  0
 73147  1  0  0  0
 74 75  2  0  0  0
 74 78  1  0  0  0
 75 77  1  0  0  0
 76 85  1  0  0  0
 77 79  1  0  0  0
 77148  1  0  0  0
 77149  1  0  0  0
 78 84  1  0  0  0
 78150  1  0  0  0
 78151  1  0  0  0
 79 84  1  0  0  0
 79152  1  0  0  0
 79153  1  0  0  0
 80 85  1  0  0  0
 80154  1  0  0  0
 80155  1  0  0  0
 80156  1  0  0  0
 81 82  1  0  0  0
 81 83  1  0  0  0
 81157  1  0  0  0
 81158  1  0  0  0
 82 85  1  0  0  0
 82159  1  0  0  0
 82160  1  0  0  0
 83161  1  0  0  0
 83162  1  0  0  0
M  ISO  4   1 100  68 101  83 101  84 100
M  END
> <chiral flag>
0

> <version>
0

> <s_m_source_file>
/data/baiqing/PycharmProjects/Reinvent-master-3.2/result/LINK_invent/BTK/process_docking_weight1_custom_product_contain_oxygen_bond_distance_aromatic_linkinvent_7_9_3/rearranged_h_0015.sdf

> <i_m_source_file_index>
80

> <r_mmod_Potential_Energy-OPLS-2005>
149.849700927734

> <r_mmod_Stretch_Energy-OPLS-2005>
47.1300239562988

> <r_mmod_Bend_Energy-OPLS-2005>
119.608116149902

> <r_mmod_Torsional_Energy-OPLS-2005>
329.163055419922

> <r_mmod_Improper_Torsional_Energy-OPLS-2005>
6.25573778152466

> <r_mmod_Van_der_Waal_Energy-OPLS-2005>
157.365997314453

> <r_mmod_Electrostatic_Energy-OPLS-2005>
-312.847259521484

> <r_mmod_Solvation_Energy-OPLS-2005>
-214.831985473633

> <b_mmod_Minimization_Converged-OPLS-2005>
0

> <r_mmod_RMS_Derivative-OPLS-2005>
0.897150278091431

$$$$
80
                    3D
 Structure written by MMmdl.
185194  0  0  1  0            999 V2000
  -30.7687  -14.3896   20.6393 C   0  0  0  0  0  0
  -30.4131  -12.2850   19.4027 C   0  0  0  0  0  0
  -29.4835  -12.5052   18.1947 C   0  0  0  0  0  0
  -28.0065  -12.3627   18.6120 C   0  0  0  0  0  0
  -27.6573  -13.1941   19.8739 C   0  0  2  0  0  0
  -28.7014  -12.9714   20.9899 C   0  0  0  0  0  0
  -25.2582  -13.8124   20.5685 C   0  0  0  0  0  0
  -24.1824  -13.0425   20.9173 C   0  0  0  0  0  0
  -24.6365  -11.6881   20.8742 C   0  0  0  0  0  0
  -23.9044  -10.4277   21.0410 C   0  0  0  0  0  0
  -24.3606   -9.4197   21.9188 C   0  0  0  0  0  0
  -23.6284   -8.2233   22.0756 C   0  0  0  0  0  0
  -22.4264   -8.0272   21.3550 C   0  0  0  0  0  0
  -21.9898   -9.0243   20.4650 C   0  0  0  0  0  0
  -22.7221  -10.2122   20.3057 C   0  0  0  0  0  0
  -21.6849   -6.0737   22.5285 C   0  0  0  0  0  0
  -21.4007   -6.5643   23.8217 C   0  0  0  0  0  0
  -21.3653   -5.6797   24.9181 C   0  0  0  0  0  0
  -21.6045   -4.3060   24.7230 C   0  0  0  0  0  0
  -21.8817   -3.8150   23.4349 C   0  0  0  0  0  0
  -21.9186   -4.6966   22.3404 C   0  0  0  0  0  0
  -22.7855  -13.5236   21.1838 C   0  0  0  0  0  0
  -22.1659   -4.2155   21.0982 F   0  0  0  0  0  0
  -21.5627   -3.4537   25.7741 F   0  0  0  0  0  0
  -30.0404  -13.2570   20.4412 N   0  0  0  0  0  0
  -26.3000  -12.9262   20.3376 N   0  0  0  0  0  0
  -25.9286  -11.6445   20.5783 N   0  0  0  0  0  0
  -22.0485  -12.8235   22.0388 N   0  0  0  0  0  0
  -25.4344  -15.1848   20.4107 N   0  0  0  0  0  0
  -31.8517  -14.6008   20.0844 O   0  0  0  0  0  0
  -21.6629   -6.8870   21.4244 O   0  0  0  0  0  0
  -22.3557  -14.5559   20.6694 O   0  0  0  0  0  0
  -24.6099  -31.8685   23.2123 C   0  0  0  0  0  0
  -25.9014  -32.4829   23.8392 C   0  0  1  0  0  0
  -27.2341  -27.4681   20.0863 C   0  0  0  0  0  0
  -25.5874  -33.8627   24.2325 N   0  0  0  0  0  0
  -23.3956  -30.4950   21.5509 C   0  0  2  0  0  0
  -24.8453  -28.9711   20.1079 C   0  0  0  0  0  0
  -22.7364  -29.4681   22.4993 C   0  0  0  0  0  0
  -18.0254  -28.1382   22.8497 C   0  0  0  0  0  0
  -24.1479  -36.7334   23.2634 C   0  0  0  0  0  0
  -25.9235  -30.8475   21.3607 C   0  0  0  0  0  0
  -26.0027  -29.4868   20.7051 C   0  0  0  0  0  0
  -27.1993  -28.7402   20.6952 C   0  0  0  0  0  0
  -26.0644  -26.9718   19.4663 C   0  0  0  0  0  0
  -24.8687  -27.7114   19.4880 C   0  0  0  0  0  0
  -23.6024  -29.8277   20.1648 C   0  0  0  0  0  0
  -25.4107  -36.3126   24.0322 C   0  0  1  0  0  0
  -20.5844  -28.3651   23.1338 C   0  0  2  0  0  0
  -20.6770  -26.9388   22.5416 C   0  0  0  0  0  0
  -19.5739  -26.6375   21.5223 C   0  0  0  0  0  0
  -18.1914  -26.7936   22.1624 C   0  0  0  0  0  0
  -19.1506  -28.8822   23.2929 C   0  0  0  0  0  0
  -18.9444  -30.1430   23.8930 C   0  0  0  0  0  0
  -17.6454  -30.6594   24.0584 C   0  0  0  0  0  0
  -25.9027  -34.9484   23.5128 C   0  0  0  0  0  0
  -16.5342  -29.9103   23.6330 C   0  0  0  0  0  0
  -16.7249  -28.6521   23.0347 C   0  0  0  0  0  0
  -26.4448  -31.6599   25.0712 C   0  0  0  0  0  0
  -25.3742  -31.3717   26.1482 C   0  0  0  0  0  0
  -27.0244  -30.3033   24.6077 C   0  0  0  0  0  0
  -27.6016  -32.4318   25.7473 C   0  0  0  0  0  0
  -27.5576  -37.1824   24.8454 C   0  0  0  0  0  0
  -21.4095  -29.3042   22.3753 N   0  0  0  0  0  0
  -26.4292  -37.3814   23.9393 N   0  0  0  0  0  0
  -24.6618  -31.0828   22.1004 N   0  0  0  0  0  0
  -23.4148  -28.8239   23.3047 O   0  0  0  0  0  0
  -28.4028  -26.7430   20.1227 O   0  0  0  0  0  0
  -26.5588  -34.8926   22.4694 O   0  0  0  0  0  0
  -23.5305  -32.1407   23.7554 O   0  0  0  0  0  0
  -28.9498  -18.8932   20.8418 C   0  0  0  0  0  0
  -29.5281  -17.7598   21.4470 C   0  0  0  0  0  0
  -29.1504  -16.4968   19.4121 C   0  0  0  0  0  0
  -28.4096  -18.8215   19.5398 C   0  0  0  0  0  0
  -29.6286  -16.5307   20.7489 C   0  0  0  0  0  0
  -28.5328  -17.6141   18.8216 C   0  0  0  0  0  0
  -25.7278  -23.9095   21.9833 C   0  0  0  0  0  0
  -24.7554  -22.0824   19.6274 C   0  0  0  0  0  0
  -25.4256  -21.0591   18.6890 C   0  0  0  0  0  0
  -26.3797  -20.8456   20.8657 C   0  0  0  0  0  0
  -25.0359  -21.5605   21.0526 C   0  0  1  0  0  0
  -31.7781  -15.8557   23.2657 C   0  0  0  0  0  0
  -23.7442  -23.1023   24.3397 C   0  0  0  0  0  0
  -22.6133  -23.3928   22.1734 C   0  0  0  0  0  0
  -27.7038  -20.0240   18.9136 C   0  0  0  0  0  0
  -30.4007  -15.3143   22.8400 C   0  0  0  0  0  0
  -27.8444  -25.2072   21.9701 C   0  0  0  0  0  0
  -28.2743  -25.3667   20.4903 C   0  0  0  0  0  0
  -25.0213  -22.5567   22.2641 C   0  0  2  0  0  0
  -27.0506  -23.9980   22.1960 N   0  0  0  0  0  0
  -30.1861  -15.3587   21.3805 N   0  0  0  0  0  0
  -26.3607  -20.2530   19.5105 N   0  3  2  0  0  0
  -23.6738  -22.6675   22.9210 N   0  3  0  0  0  0
  -25.0855  -24.8596   21.5416 O   0  0  0  0  0  0
  -28.0465  -17.5127   17.5622 F   0  0  0  0  0  0
  -31.4568  -12.3726   19.0956 H   0  0  0  0  0  0
  -30.3047  -11.2700   19.7871 H   0  0  0  0  0  0
  -29.7172  -11.7902   17.4044 H   0  0  0  0  0  0
  -29.6574  -13.4946   17.7696 H   0  0  0  0  0  0
  -27.8168  -11.3062   18.8043 H   0  0  0  0  0  0
  -27.3527  -12.6405   17.7850 H   0  0  0  0  0  0
  -27.6893  -14.2383   19.5812 H   0  0  0  0  0  0
  -28.6663  -11.9390   21.3391 H   0  0  0  0  0  0
  -28.4515  -13.5795   21.8588 H   0  0  0  0  0  0
  -25.2750   -9.5674   22.4763 H   0  0  0  0  0  0
  -23.9997   -7.4616   22.7468 H   0  0  0  0  0  0
  -21.0830   -8.8752   19.8950 H   0  0  0  0  0  0
  -22.3676  -10.9662   19.6164 H   0  0  0  0  0  0
  -21.2005   -7.6149   23.9730 H   0  0  0  0  0  0
  -21.1478   -6.0522   25.9087 H   0  0  0  0  0  0
  -22.0601   -2.7611   23.2847 H   0  0  0  0  0  0
  -22.4087  -11.9884   22.4764 H   0  0  0  0  0  0
  -21.1106  -13.1274   22.2600 H   0  0  0  0  0  0
  -24.6708  -15.8408   20.5261 H   0  0  0  0  0  0
  -26.3022  -15.6189   20.1277 H   0  0  0  0  0  0
  -26.7107  -32.5555   23.1173 H   0  0  0  0  0  0
  -25.0013  -33.9770   25.0459 H   0  0  0  0  0  0
  -22.6816  -31.3111   21.4128 H   0  0  0  0  0  0
  -23.3729  -35.9679   23.3309 H   0  0  0  0  0  0
  -24.3590  -36.8941   22.2049 H   0  0  0  0  0  0
  -23.7222  -37.6540   23.6645 H   0  0  0  0  0  0
  -26.0314  -31.6151   20.5929 H   0  0  0  0  0  0
  -26.8118  -30.9001   21.9783 H   0  0  0  0  0  0
  -28.0883  -29.1288   21.1732 H   0  0  0  0  0  0
  -26.0516  -26.0154   18.9659 H   0  0  0  0  0  0
  -23.9784  -27.3099   19.0239 H   0  0  0  0  0  0
  -23.7012  -30.5983   19.3994 H   0  0  0  0  0  0
  -22.7295  -29.2394   19.8770 H   0  0  0  0  0  0
  -25.1284  -36.1996   25.0811 H   0  0  0  0  0  0
  -20.9927  -28.3197   24.1463 H   0  0  0  0  0  0
  -20.5738  -26.2228   23.3590 H   0  0  0  0  0  0
  -21.6647  -26.7508   22.1167 H   0  0  0  0  0  0
  -19.6890  -25.6298   21.1232 H   0  0  0  0  0  0
  -19.6678  -27.3207   20.6781 H   0  0  0  0  0  0
  -17.4213  -26.6692   21.3997 H   0  0  0  0  0  0
  -18.0276  -26.0078   22.9006 H   0  0  0  0  0  0
  -19.7934  -30.7220   24.2312 H   0  0  0  0  0  0
  -17.5042  -31.6284   24.5204 H   0  0  0  0  0  0
  -15.5357  -30.3035   23.7663 H   0  0  0  0  0  0
  -15.8650  -28.0858   22.7017 H   0  0  0  0  0  0
  -24.5884  -30.7079   25.7860 H   0  0  0  0  0  0
  -24.8968  -32.2887   26.4943 H   0  0  0  0  0  0
  -25.8125  -30.8884   27.0221 H   0  0  0  0  0  0
  -26.2772  -29.6835   24.1110 H   0  0  0  0  0  0
  -27.3974  -29.7226   25.4518 H   0  0  0  0  0  0
  -27.8625  -30.4325   23.9234 H   0  0  0  0  0  0
  -27.2603  -33.3587   26.2085 H   0  0  0  0  0  0
  -28.3808  -32.6928   25.0307 H   0  0  0  0  0  0
  -28.0703  -31.8431   26.5365 H   0  0  0  0  0  0
  -28.2615  -38.0104   24.7526 H   0  0  0  0  0  0
  -28.1060  -36.2650   24.6270 H   0  0  0  0  0  0
  -27.2305  -37.1456   25.8859 H   0  0  0  0  0  0
  -20.9225  -29.8717   21.6958 H   0  0  0  0  0  0
  -26.0185  -38.2886   24.1423 H   0  0  0  0  0  0
  -28.9087  -19.8156   21.4029 H   0  0  0  0  0  0
  -29.8982  -17.8643   22.4557 H   0  0  0  0  0  0
  -29.2244  -15.6053   18.8094 H   0  0  0  0  0  0
  -23.6928  -22.1842   19.4084 H   0  0  0  0  0  0
  -25.2110  -23.0566   19.4481 H   0  0  0  0  0  0
  -25.9253  -21.5608   17.8595 H   0  0  0  0  0  0
  -24.6816  -20.3906   18.2543 H   0  0  0  0  0  0
  -26.5409  -20.0883   21.6333 H   0  0  0  0  0  0
  -27.2020  -21.5589   20.9295 H   0  0  0  0  0  0
  -24.3054  -20.7748   21.2529 H   0  0  0  0  0  0
  -31.8629  -15.8758   24.3529 H   0  0  0  0  0  0
  -31.9540  -16.8690   22.9039 H   0  0  0  0  0  0
  -32.5866  -15.2277   22.8890 H   0  0  0  0  0  0
  -22.7621  -23.0619   24.8116 H   0  0  0  0  0  0
  -24.1073  -24.1262   24.4298 H   0  0  0  0  0  0
  -24.4041  -22.4553   24.9201 H   0  0  0  0  0  0
  -21.6366  -23.1892   22.6121 H   0  0  0  0  0  0
  -22.5628  -23.0883   21.1298 H   0  0  0  0  0  0
  -22.7509  -24.4737   22.2135 H   0  0  0  0  0  0
  -27.5933  -19.8533   17.8424 H   0  0  0  0  0  0
  -28.3270  -20.9153   19.0063 H   0  0  0  0  0  0
  -29.6046  -15.8543   23.3526 H   0  0  0  0  0  0
  -30.3035  -14.2885   23.2019 H   0  0  0  0  0  0
  -27.2731  -26.0739   22.3078 H   0  0  0  0  0  0
  -28.7257  -25.1776   22.6107 H   0  0  0  0  0  0
  -27.6044  -24.8350   19.8151 H   0  0  0  0  0  0
  -29.2453  -24.8903   20.3503 H   0  0  0  0  0  0
  -25.6367  -22.0696   23.0222 H   0  0  0  0  0  0
  -27.5409  -23.2029   22.5830 H   0  0  0  0  0  0
  -25.9278  -19.3443   19.5842 H   0  0  0  0  0  0
  -23.3371  -21.7173   22.9756 H   0  0  0  0  0  0
  1 25  1  0  0  0
  1 30  2  0  0  0
  1 91  1  0  0  0
  2  3  1  0  0  0
  2 25  1  0  0  0
  2 96  1  0  0  0
  2 97  1  0  0  0
  3  4  1  0  0  0
  3 98  1  0  0  0
  3 99  1  0  0  0
  4  5  1  0  0  0
  4100  1  0  0  0
  4101  1  0  0  0
  5  6  1  0  0  0
  5 26  1  0  0  0
  5102  1  0  0  0
  6 25  1  0  0  0
  6103  1  0  0  0
  6104  1  0  0  0
  7  8  2  0  0  0
  7 26  1  0  0  0
  7 29  1  0  0  0
  8  9  1  0  0  0
  8 22  1  0  0  0
  9 10  1  0  0  0
  9 27  2  0  0  0
 10 11  2  0  0  0
 10 15  1  0  0  0
 11 12  1  0  0  0
 11105  1  0  0  0
 12 13  2  0  0  0
 12106  1  0  0  0
 13 14  1  0  0  0
 13 31  1  0  0  0
 14 15  2  0  0  0
 14107  1  0  0  0
 15108  1  0  0  0
 16 17  2  0  0  0
 16 21  1  0  0  0
 16 31  1  0  0  0
 17 18  1  0  0  0
 17109  1  0  0  0
 18 19  2  0  0  0
 18110  1  0  0  0
 19 20  1  0  0  0
 19 24  1  0  0  0
 20 21  2  0  0  0
 20111  1  0  0  0
 21 23  1  0  0  0
 22 28  1  0  0  0
 22 32  2  0  0  0
 26 27  1  0  0  0
 28112  1  0  0  0
 28113  1  0  0  0
 29114  1  0  0  0
 29115  1  0  0  0
 33 34  1  0  0  0
 33 66  1  0  0  0
 33 70  2  0  0  0
 34 36  1  0  0  0
 34 59  1  0  0  0
 34116  1  0  0  0
 35 44  2  0  0  0
 35 45  1  0  0  0
 35 68  1  0  0  0
 36 56  1  0  0  0
 36117  1  0  0  0
 37 39  1  0  0  0
 37 47  1  0  0  0
 37 66  1  0  0  0
 37118  1  0  0  0
 38 43  2  0  0  0
 38 46  1  0  0  0
 38 47  1  0  0  0
 39 64  1  0  0  0
 39 67  2  0  0  0
 40 52  1  0  0  0
 40 53  2  0  0  0
 40 58  1  0  0  0
 41119  1  0  0  0
 41120  1  0  0  0
 41121  1  0  0  0
 41 48  1  0  0  0
 42 43  1  0  0  0
 42 66  1  0  0  0
 42122  1  0  0  0
 42123  1  0  0  0
 43 44  1  0  0  0
 44124  1  0  0  0
 45 46  2  0  0  0
 45125  1  0  0  0
 46126  1  0  0  0
 47127  1  0  0  0
 47128  1  0  0  0
 48 56  1  0  0  0
 48 65  1  0  0  0
 48129  1  0  0  0
 49 50  1  0  0  0
 49 53  1  0  0  0
 49 64  1  0  0  0
 49130  1  0  0  0
 50 51  1  0  0  0
 50131  1  0  0  0
 50132  1  0  0  0
 51 52  1  0  0  0
 51133  1  0  0  0
 51134  1  0  0  0
 52135  1  0  0  0
 52136  1  0  0  0
 53 54  1  0  0  0
 54 55  2  0  0  0
 54137  1  0  0  0
 55 57  1  0  0  0
 55138  1  0  0  0
 56 69  2  0  0  0
 57 58  2  0  0  0
 57139  1  0  0  0
 58140  1  0  0  0
 59 60  1  0  0  0
 59 61  1  0  0  0
 59 62  1  0  0  0
 60141  1  0  0  0
 60142  1  0  0  0
 60143  1  0  0  0
 61144  1  0  0  0
 61145  1  0  0  0
 61146  1  0  0  0
 62147  1  0  0  0
 62148  1  0  0  0
 62149  1  0  0  0
 63 65  1  0  0  0
 63150  1  0  0  0
 63151  1  0  0  0
 63152  1  0  0  0
 64153  1  0  0  0
 65154  1  0  0  0
 68 88  1  0  0  0
 71 72  2  0  0  0
 71 74  1  0  0  0
 71155  1  0  0  0
 72 75  1  0  0  0
 72156  1  0  0  0
 73 75  2  0  0  0
 73 76  1  0  0  0
 73157  1  0  0  0
 74 76  2  0  0  0
 74 85  1  0  0  0
 75 91  1  0  0  0
 76 95  1  0  0  0
 77 90  1  0  0  0
 77 94  2  0  0  0
 77 89  1  0  0  0
 78 79  1  0  0  0
 78158  1  0  0  0
 78159  1  0  0  0
 78 81  1  0  0  0
 79 92  1  0  0  0
 79160  1  0  0  0
 79161  1  0  0  0
 80 81  1  0  0  0
 80 92  1  0  0  0
 80162  1  0  0  0
 80163  1  0  0  0
 81 89  1  0  0  0
 81164  1  0  0  0
 82 86  1  0  0  0
 82165  1  0  0  0
 82166  1  0  0  0
 82167  1  0  0  0
 83168  1  0  0  0
 83169  1  0  0  0
 83170  1  0  0  0
 83 93  1  0  0  0
 84 93  1  0  0  0
 84171  1  0  0  0
 84172  1  0  0  0
 84173  1  0  0  0
 85174  1  0  0  0
 85175  1  0  0  0
 85 92  1  0  0  0
 86 91  1  0  0  0
 86176  1  0  0  0
 86177  1  0  0  0
 87 88  1  0  0  0
 87 90  1  0  0  0
 87178  1  0  0  0
 87179  1  0  0  0
 88180  1  0  0  0
 88181  1  0  0  0
 89 93  1  0  0  0
 89182  1  0  0  0
 90183  1  0  0  0
 92184  1  0  0  0
 93185  1  0  0  0
M  CHG  2  92   1  93   1
M  ISO  4   1 100  68 101  88 101  91 100
M  END
> <chiral flag>
0

> <version>
0

> <s_m_source_file>
/data/baiqing/PycharmProjects/Reinvent-master-3.2/result/LINK_invent/BTK/process_docking_weight1_custom_product_contain_oxygen_bond_distance_aromatic_linkinvent_7_9_3/rearranged_h_0015.sdf

> <i_m_source_file_index>
81

> <r_mmod_Potential_Energy-OPLS-2005>
-145.540283203125

> <r_mmod_Stretch_Energy-OPLS-2005>
43.2110443115234

> <r_mmod_Bend_Energy-OPLS-2005>
133.299499511719

> <r_mmod_Torsional_Energy-OPLS-2005>
349.974151611328

> <r_mmod_Improper_Torsional_Energy-OPLS-2005>
3.17167687416077

> <r_mmod_Van_der_Waal_Energy-OPLS-2005>
150.661117553711

> <r_mmod_Electrostatic_Energy-OPLS-2005>
128.947021484375

> <r_mmod_Solvation_Energy-OPLS-2005>
-964.247314453125

> <b_mmod_Minimization_Converged-OPLS-2005>
0

> <r_mmod_RMS_Derivative-OPLS-2005>
2.42807936668396

$$$$
81
                    3D
 Structure written by MMmdl.
172181  0  0  1  0            999 V2000
  -30.8653  -14.2326   20.8309 C   0  0  0  0  0  0
  -30.4129  -12.3107   19.3508 C   0  0  0  0  0  0
  -29.4657  -12.5596   18.1682 C   0  0  0  0  0  0
  -27.9996  -12.3847   18.5980 C   0  0  0  0  0  0
  -27.6667  -13.1968   19.8728 C   0  0  2  0  0  0
  -28.7047  -12.9217   20.9799 C   0  0  0  0  0  0
  -25.2613  -13.8139   20.5653 C   0  0  0  0  0  0
  -24.1860  -13.0430   20.9167 C   0  0  0  0  0  0
  -24.6400  -11.6894   20.8723 C   0  0  0  0  0  0
  -23.9061  -10.4285   21.0397 C   0  0  0  0  0  0
  -24.3615   -9.4203   21.9179 C   0  0  0  0  0  0
  -23.6287   -8.2241   22.0756 C   0  0  0  0  0  0
  -22.4269   -8.0279   21.3544 C   0  0  0  0  0  0
  -21.9903   -9.0250   20.4646 C   0  0  0  0  0  0
  -22.7233  -10.2127   20.3051 C   0  0  0  0  0  0
  -21.6854   -6.0734   22.5278 C   0  0  0  0  0  0
  -21.4019   -6.5639   23.8211 C   0  0  0  0  0  0
  -21.3656   -5.6791   24.9172 C   0  0  0  0  0  0
  -21.6041   -4.3054   24.7225 C   0  0  0  0  0  0
  -21.8820   -3.8147   23.4347 C   0  0  0  0  0  0
  -21.9192   -4.6962   22.3402 C   0  0  0  0  0  0
  -22.7882  -13.5234   21.1841 C   0  0  0  0  0  0
  -22.1662   -4.2150   21.0978 F   0  0  0  0  0  0
  -21.5623   -3.4537   25.7737 F   0  0  0  0  0  0
  -30.0545  -13.2065   20.4595 N   0  0  0  0  0  0
  -26.3048  -12.9298   20.3343 N   0  0  0  0  0  0
  -25.9322  -11.6466   20.5742 N   0  0  0  0  0  0
  -22.0524  -12.8229   22.0395 N   0  0  0  0  0  0
  -25.4340  -15.1856   20.4044 N   0  0  0  0  0  0
  -31.7045  -14.6992   20.0513 O   0  0  0  0  0  0
  -21.6638   -6.8875   21.4239 O   0  0  0  0  0  0
  -22.3569  -14.5546   20.6693 O   0  0  0  0  0  0
  -24.6109  -31.8711   23.2138 C   0  0  0  0  0  0
  -25.9021  -32.4834   23.8416 C   0  0  1  0  0  0
  -27.2389  -27.4696   20.0640 C   0  0  0  0  0  0
  -25.5897  -33.8635   24.2345 N   0  0  0  0  0  0
  -23.3956  -30.4959   21.5551 C   0  0  2  0  0  0
  -24.8386  -28.9637   20.1196 C   0  0  0  0  0  0
  -22.7374  -29.4680   22.5026 C   0  0  0  0  0  0
  -18.0256  -28.1368   22.8487 C   0  0  0  0  0  0
  -24.1486  -36.7327   23.2636 C   0  0  0  0  0  0
  -25.9224  -30.8410   21.3648 C   0  0  0  0  0  0
  -25.9970  -29.4766   20.7140 C   0  0  0  0  0  0
  -27.1945  -28.7323   20.6925 C   0  0  0  0  0  0
  -26.0526  -26.9564   19.4850 C   0  0  0  0  0  0
  -24.8579  -27.6978   19.5116 C   0  0  0  0  0  0
  -23.6011  -29.8290   20.1695 C   0  0  0  0  0  0
  -25.4106  -36.3121   24.0336 C   0  0  1  0  0  0
  -20.5846  -28.3651   23.1332 C   0  0  2  0  0  0
  -20.6750  -26.9393   22.5423 C   0  0  0  0  0  0
  -19.5739  -26.6383   21.5205 C   0  0  0  0  0  0
  -18.1911  -26.7918   22.1607 C   0  0  0  0  0  0
  -19.1506  -28.8823   23.2906 C   0  0  0  0  0  0
  -18.9438  -30.1432   23.8914 C   0  0  0  0  0  0
  -17.6446  -30.6580   24.0565 C   0  0  0  0  0  0
  -25.9032  -34.9483   23.5135 C   0  0  0  0  0  0
  -16.5336  -29.9086   23.6326 C   0  0  0  0  0  0
  -16.7247  -28.6503   23.0341 C   0  0  0  0  0  0
  -26.4465  -31.6601   25.0731 C   0  0  0  0  0  0
  -25.3735  -31.3685   26.1478 C   0  0  0  0  0  0
  -27.0302  -30.3049   24.6092 C   0  0  0  0  0  0
  -27.6053  -32.4315   25.7485 C   0  0  0  0  0  0
  -27.5584  -37.1812   24.8461 C   0  0  0  0  0  0
  -21.4111  -29.3029   22.3751 N   0  0  0  0  0  0
  -26.4295  -37.3801   23.9406 N   0  0  0  0  0  0
  -24.6610  -31.0831   22.1031 N   0  0  0  0  0  0
  -23.4164  -28.8224   23.3054 O   0  0  0  0  0  0
  -28.4516  -26.8134   20.0339 O   0  0  0  0  0  0
  -26.5596  -34.8926   22.4698 O   0  0  0  0  0  0
  -23.5312  -32.1473   23.7544 O   0  0  0  0  0  0
  -30.1996  -20.1084   20.2193 C   0  0  0  0  0  0
  -29.7840  -21.4169   20.5524 C   0  0  0  0  0  0
  -28.9305  -20.6419   22.7091 C   0  0  0  0  0  0
  -29.9665  -19.0859   21.1507 C   0  0  0  0  0  0
  -29.3649  -19.3521   22.3657 C   0  0  0  0  0  0
  -29.1335  -21.7032   21.7887 C   0  0  0  0  0  0
  -30.3305  -17.6285   21.0545 C   0  0  0  0  0  0
  -29.3052  -18.1072   23.2026 C   0  0  0  0  0  0
  -32.3401  -15.2546   22.6502 C   0  0  0  0  0  0
  -30.8024  -13.4591   23.2779 C   0  0  0  0  0  0
  -27.6144  -23.1733   23.0781 C   0  0  0  0  0  0
  -28.1489  -24.3961   20.1154 C   0  0  0  0  0  0
  -29.0973  -24.1564   21.3013 C   0  0  0  0  0  0
  -29.8170  -15.7378   22.6641 C   0  0  0  0  0  0
  -28.5844  -25.6093   19.2811 C   0  0  0  0  0  0
  -30.9254  -14.6872   22.3284 C   0  0  0  0  0  0
  -28.7035  -23.0091   22.1166 N   0  0  0  0  0  0
  -30.1903  -17.1608   22.4652 N   0  3  1  0  0  0
  -31.4497  -12.4352   19.0322 H   0  0  0  0  0  0
  -30.3332  -11.2757   19.6867 H   0  0  0  0  0  0
  -29.6994  -11.8783   17.3493 H   0  0  0  0  0  0
  -29.6188  -13.5686   17.7829 H   0  0  0  0  0  0
  -27.8231  -11.3231   18.7767 H   0  0  0  0  0  0
  -27.3319  -12.6716   17.7851 H   0  0  0  0  0  0
  -27.7309  -14.2534   19.6113 H   0  0  0  0  0  0
  -28.6584  -11.8784   21.2964 H   0  0  0  0  0  0
  -28.4271  -13.5064   21.8493 H   0  0  0  0  0  0
  -25.2765   -9.5679   22.4748 H   0  0  0  0  0  0
  -23.9996   -7.4636   22.7481 H   0  0  0  0  0  0
  -21.0834   -8.8770   19.8954 H   0  0  0  0  0  0
  -22.3696  -10.9664   19.6158 H   0  0  0  0  0  0
  -21.2021   -7.6148   23.9715 H   0  0  0  0  0  0
  -21.1475   -6.0521   25.9074 H   0  0  0  0  0  0
  -22.0603   -2.7612   23.2848 H   0  0  0  0  0  0
  -22.4131  -11.9875   22.4767 H   0  0  0  0  0  0
  -21.1149  -13.1266   22.2619 H   0  0  0  0  0  0
  -24.6583  -15.8341   20.4874 H   0  0  0  0  0  0
  -26.2740  -15.6192   20.0425 H   0  0  0  0  0  0
  -26.7091  -32.5552   23.1180 H   0  0  0  0  0  0
  -25.0031  -33.9810   25.0478 H   0  0  0  0  0  0
  -22.6826  -31.3113   21.4182 H   0  0  0  0  0  0
  -23.3740  -35.9668   23.3310 H   0  0  0  0  0  0
  -24.3569  -36.8940   22.2047 H   0  0  0  0  0  0
  -23.7256  -37.6538   23.6650 H   0  0  0  0  0  0
  -26.0316  -31.6061   20.5948 H   0  0  0  0  0  0
  -26.8118  -30.8946   21.9809 H   0  0  0  0  0  0
  -28.0931  -29.1328   21.1421 H   0  0  0  0  0  0
  -26.0231  -25.9920   19.0011 H   0  0  0  0  0  0
  -23.9645  -27.2936   19.0567 H   0  0  0  0  0  0
  -23.7079  -30.6042   19.4100 H   0  0  0  0  0  0
  -22.7248  -29.2479   19.8757 H   0  0  0  0  0  0
  -25.1281  -36.1988   25.0828 H   0  0  0  0  0  0
  -20.9920  -28.3209   24.1459 H   0  0  0  0  0  0
  -20.5638  -26.2258   23.3599 H   0  0  0  0  0  0
  -21.6626  -26.7437   22.1229 H   0  0  0  0  0  0
  -19.6905  -25.6296   21.1227 H   0  0  0  0  0  0
  -19.6690  -27.3197   20.6739 H   0  0  0  0  0  0
  -17.4186  -26.6667   21.4002 H   0  0  0  0  0  0
  -18.0309  -26.0047   22.8990 H   0  0  0  0  0  0
  -19.7919  -30.7235   24.2299 H   0  0  0  0  0  0
  -17.5008  -31.6261   24.5160 H   0  0  0  0  0  0
  -15.5339  -30.2995   23.7649 H   0  0  0  0  0  0
  -15.8644  -28.0838   22.7045 H   0  0  0  0  0  0
  -24.5942  -30.6989   25.7821 H   0  0  0  0  0  0
  -24.8870  -32.2816   26.4913 H   0  0  0  0  0  0
  -25.8097  -30.8883   27.0245 H   0  0  0  0  0  0
  -26.2844  -29.6793   24.1171 H   0  0  0  0  0  0
  -27.4115  -29.7300   25.4544 H   0  0  0  0  0  0
  -27.8658  -30.4384   23.9215 H   0  0  0  0  0  0
  -27.2694  -33.3614   26.2087 H   0  0  0  0  0  0
  -28.3842  -32.6875   25.0289 H   0  0  0  0  0  0
  -28.0739  -31.8416   26.5372 H   0  0  0  0  0  0
  -28.2605  -38.0106   24.7510 H   0  0  0  0  0  0
  -28.1080  -36.2639   24.6285 H   0  0  0  0  0  0
  -27.2299  -37.1466   25.8863 H   0  0  0  0  0  0
  -20.9261  -29.8769   21.6997 H   0  0  0  0  0  0
  -26.0188  -38.2883   24.1396 H   0  0  0  0  0  0
  -30.6891  -19.9074   19.2766 H   0  0  0  0  0  0
  -29.9747  -22.1896   19.8237 H   0  0  0  0  0  0
  -28.4693  -20.7996   23.6735 H   0  0  0  0  0  0
  -31.3410  -17.4906   20.6697 H   0  0  0  0  0  0
  -29.6265  -17.1267   20.3890 H   0  0  0  0  0  0
  -28.2742  -17.7509   23.2419 H   0  0  0  0  0  0
  -29.6605  -18.2801   24.2195 H   0  0  0  0  0  0
  -32.4141  -15.5975   23.6833 H   0  0  0  0  0  0
  -32.6363  -16.0846   22.0097 H   0  0  0  0  0  0
  -33.1036  -14.4855   22.5225 H   0  0  0  0  0  0
  -31.1803  -13.6865   24.2755 H   0  0  0  0  0  0
  -31.3818  -12.6083   22.9148 H   0  0  0  0  0  0
  -29.7816  -13.1176   23.4325 H   0  0  0  0  0  0
  -26.8085  -22.4637   22.8848 H   0  0  0  0  0  0
  -27.1846  -24.1746   23.0261 H   0  0  0  0  0  0
  -27.9705  -23.0224   24.0981 H   0  0  0  0  0  0
  -27.1281  -24.5289   20.4729 H   0  0  0  0  0  0
  -28.1275  -23.5196   19.4676 H   0  0  0  0  0  0
  -29.1000  -25.0440   21.9366 H   0  0  0  0  0  0
  -30.1277  -24.0491   20.9591 H   0  0  0  0  0  0
  -29.5501  -15.6222   23.7161 H   0  0  0  0  0  0
  -28.8948  -15.5594   22.1130 H   0  0  0  0  0  0
  -28.0553  -25.6589   18.3296 H   0  0  0  0  0  0
  -29.6353  -25.4995   19.0116 H   0  0  0  0  0  0
  -31.0993  -17.2912   22.8824 H   0  0  0  0  0  0
  1 25  1  0  0  0
  1 30  2  0  0  0
  1 86  1  0  0  0
  2  3  1  0  0  0
  2 25  1  0  0  0
  2 89  1  0  0  0
  2 90  1  0  0  0
  3  4  1  0  0  0
  3 91  1  0  0  0
  3 92  1  0  0  0
  4  5  1  0  0  0
  4 93  1  0  0  0
  4 94  1  0  0  0
  5  6  1  0  0  0
  5 26  1  0  0  0
  5 95  1  0  0  0
  6 25  1  0  0  0
  6 96  1  0  0  0
  6 97  1  0  0  0
  7  8  2  0  0  0
  7 26  1  0  0  0
  7 29  1  0  0  0
  8  9  1  0  0  0
  8 22  1  0  0  0
  9 10  1  0  0  0
  9 27  2  0  0  0
 10 11  2  0  0  0
 10 15  1  0  0  0
 11 12  1  0  0  0
 11 98  1  0  0  0
 12 13  2  0  0  0
 12 99  1  0  0  0
 13 14  1  0  0  0
 13 31  1  0  0  0
 14 15  2  0  0  0
 14100  1  0  0  0
 15101  1  0  0  0
 16 17  2  0  0  0
 16 21  1  0  0  0
 16 31  1  0  0  0
 17 18  1  0  0  0
 17102  1  0  0  0
 18 19  2  0  0  0
 18103  1  0  0  0
 19 20  1  0  0  0
 19 24  1  0  0  0
 20 21  2  0  0  0
 20104  1  0  0  0
 21 23  1  0  0  0
 22 28  1  0  0  0
 22 32  2  0  0  0
 26 27  1  0  0  0
 28105  1  0  0  0
 28106  1  0  0  0
 29107  1  0  0  0
 29108  1  0  0  0
 33 34  1  0  0  0
 33 66  1  0  0  0
 33 70  2  0  0  0
 34 36  1  0  0  0
 34 59  1  0  0  0
 34109  1  0  0  0
 35 44  2  0  0  0
 35 45  1  0  0  0
 35 68  1  0  0  0
 36 56  1  0  0  0
 36110  1  0  0  0
 37 39  1  0  0  0
 37 47  1  0  0  0
 37 66  1  0  0  0
 37111  1  0  0  0
 38 43  2  0  0  0
 38 46  1  0  0  0
 38 47  1  0  0  0
 39 64  1  0  0  0
 39 67  2  0  0  0
 40 52  1  0  0  0
 40 53  2  0  0  0
 40 58  1  0  0  0
 41112  1  0  0  0
 41113  1  0  0  0
 41114  1  0  0  0
 41 48  1  0  0  0
 42 43  1  0  0  0
 42 66  1  0  0  0
 42115  1  0  0  0
 42116  1  0  0  0
 43 44  1  0  0  0
 44117  1  0  0  0
 45 46  2  0  0  0
 45118  1  0  0  0
 46119  1  0  0  0
 47120  1  0  0  0
 47121  1  0  0  0
 48 56  1  0  0  0
 48 65  1  0  0  0
 48122  1  0  0  0
 49 50  1  0  0  0
 49 53  1  0  0  0
 49 64  1  0  0  0
 49123  1  0  0  0
 50 51  1  0  0  0
 50124  1  0  0  0
 50125  1  0  0  0
 51 52  1  0  0  0
 51126  1  0  0  0
 51127  1  0  0  0
 52128  1  0  0  0
 52129  1  0  0  0
 53 54  1  0  0  0
 54 55  2  0  0  0
 54130  1  0  0  0
 55 57  1  0  0  0
 55131  1  0  0  0
 56 69  2  0  0  0
 57 58  2  0  0  0
 57132  1  0  0  0
 58133  1  0  0  0
 59 60  1  0  0  0
 59 61  1  0  0  0
 59 62  1  0  0  0
 60134  1  0  0  0
 60135  1  0  0  0
 60136  1  0  0  0
 61137  1  0  0  0
 61138  1  0  0  0
 61139  1  0  0  0
 62140  1  0  0  0
 62141  1  0  0  0
 62142  1  0  0  0
 63 65  1  0  0  0
 63143  1  0  0  0
 63144  1  0  0  0
 63145  1  0  0  0
 64146  1  0  0  0
 65147  1  0  0  0
 68 85  1  0  0  0
 71 72  2  0  0  0
 71 74  1  0  0  0
 71148  1  0  0  0
 72 76  1  0  0  0
 72149  1  0  0  0
 73 75  1  0  0  0
 73 76  2  0  0  0
 73150  1  0  0  0
 74 75  2  0  0  0
 74 77  1  0  0  0
 75 78  1  0  0  0
 76 87  1  0  0  0
 77 88  1  0  0  0
 77151  1  0  0  0
 77152  1  0  0  0
 78 88  1  0  0  0
 78153  1  0  0  0
 78154  1  0  0  0
 79155  1  0  0  0
 79156  1  0  0  0
 79157  1  0  0  0
 79 86  1  0  0  0
 80 86  1  0  0  0
 80158  1  0  0  0
 80159  1  0  0  0
 80160  1  0  0  0
 81 87  1  0  0  0
 81161  1  0  0  0
 81162  1  0  0  0
 81163  1  0  0  0
 82 83  1  0  0  0
 82 85  1  0  0  0
 82164  1  0  0  0
 82165  1  0  0  0
 83 87  1  0  0  0
 83166  1  0  0  0
 83167  1  0  0  0
 84 86  1  0  0  0
 84168  1  0  0  0
 84169  1  0  0  0
 84 88  1  0  0  0
 85170  1  0  0  0
 85171  1  0  0  0
 88172  1  0  0  0
M  CHG  1  88   1
M  ISO  4   1 100  68 101  85 101  86 100
M  END
> <chiral flag>
0

> <version>
0

> <s_m_source_file>
/data/baiqing/PycharmProjects/Reinvent-master-3.2/result/LINK_invent/BTK/process_docking_weight1_custom_product_contain_oxygen_bond_distance_aromatic_linkinvent_7_9_3/rearranged_h_0015.sdf

> <i_m_source_file_index>
82

> <r_mmod_Potential_Energy-OPLS-2005>
-103.639831542969

> <r_mmod_Stretch_Energy-OPLS-2005>
41.1352119445801

> <r_mmod_Bend_Energy-OPLS-2005>
163.168930053711

> <r_mmod_Torsional_Energy-OPLS-2005>
202.918090820312

> <r_mmod_Improper_Torsional_Energy-OPLS-2005>
4.82052516937256

> <r_mmod_Van_der_Waal_Energy-OPLS-2005>
166.219009399414

> <r_mmod_Electrostatic_Energy-OPLS-2005>
-264.605010986328

> <r_mmod_Solvation_Energy-OPLS-2005>
-431.684936523438

> <b_mmod_Minimization_Converged-OPLS-2005>
0

> <r_mmod_RMS_Derivative-OPLS-2005>
0.9570392370224

$$$$
82
                    3D
 Structure written by MMmdl.
157166  0  0  1  0            999 V2000
  -30.6492  -14.5024   20.6190 C   0  0  0  0  0  0
  -30.4271  -12.3244   19.4435 C   0  0  0  0  0  0
  -29.4993  -12.5217   18.2240 C   0  0  0  0  0  0
  -28.0212  -12.3578   18.6286 C   0  0  0  0  0  0
  -27.6602  -13.1974   19.8817 C   0  0  2  0  0  0
  -28.6940  -12.9572   21.0047 C   0  0  0  0  0  0
  -25.2556  -13.8119   20.5640 C   0  0  0  0  0  0
  -24.1792  -13.0404   20.9139 C   0  0  0  0  0  0
  -24.6356  -11.6876   20.8729 C   0  0  0  0  0  0
  -23.9021  -10.4250   21.0408 C   0  0  0  0  0  0
  -24.3575   -9.4160   21.9180 C   0  0  0  0  0  0
  -23.6256   -8.2196   22.0742 C   0  0  0  0  0  0
  -22.4243   -8.0246   21.3537 C   0  0  0  0  0  0
  -21.9877   -9.0212   20.4630 C   0  0  0  0  0  0
  -22.7201  -10.2093   20.3042 C   0  0  0  0  0  0
  -21.6831   -6.0708   22.5274 C   0  0  0  0  0  0
  -21.4017   -6.5627   23.8204 C   0  0  0  0  0  0
  -21.3661   -5.6793   24.9178 C   0  0  0  0  0  0
  -21.6044   -4.3051   24.7242 C   0  0  0  0  0  0
  -21.8808   -3.8129   23.4364 C   0  0  0  0  0  0
  -21.9187   -4.6938   22.3413 C   0  0  0  0  0  0
  -22.7814  -13.5201   21.1855 C   0  0  0  0  0  0
  -22.1650   -4.2130   21.0987 F   0  0  0  0  0  0
  -21.5631   -3.4532   25.7749 F   0  0  0  0  0  0
  -30.0303  -13.2943   20.4781 N   0  0  0  0  0  0
  -26.2981  -12.9262   20.3352 N   0  0  0  0  0  0
  -25.9278  -11.6435   20.5746 N   0  0  0  0  0  0
  -22.0480  -12.8192   22.0427 N   0  0  0  0  0  0
  -25.4299  -15.1828   20.4023 N   0  0  0  0  0  0
  -31.7334  -14.7697   20.0864 O   0  0  0  0  0  0
  -21.6621   -6.8846   21.4233 O   0  0  0  0  0  0
  -22.3480  -14.5511   20.6724 O   0  0  0  0  0  0
  -24.6204  -31.8607   23.2076 C   0  0  0  0  0  0
  -25.9082  -32.4783   23.8366 C   0  0  1  0  0  0
  -27.2184  -27.3721   20.1067 C   0  0  0  0  0  0
  -25.5928  -33.8592   24.2294 N   0  0  0  0  0  0
  -23.4084  -30.4870   21.5452 C   0  0  2  0  0  0
  -24.8506  -28.9472   20.1084 C   0  0  0  0  0  0
  -22.7395  -29.4635   22.4918 C   0  0  0  0  0  0
  -18.0267  -28.1421   22.8410 C   0  0  0  0  0  0
  -24.1491  -36.7308   23.2631 C   0  0  0  0  0  0
  -25.9440  -30.8095   21.3700 C   0  0  0  0  0  0
  -26.0117  -29.4417   20.7092 C   0  0  0  0  0  0
  -27.1964  -28.6594   20.7029 C   0  0  0  0  0  0
  -26.0286  -26.9042   19.4970 C   0  0  0  0  0  0
  -24.8557  -27.6801   19.4993 C   0  0  0  0  0  0
  -23.6185  -29.8239   20.1578 C   0  0  0  0  0  0
  -25.4115  -36.3101   24.0323 C   0  0  1  0  0  0
  -20.5840  -28.3650   23.1261 C   0  0  2  0  0  0
  -20.6661  -26.9344   22.5418 C   0  0  0  0  0  0
  -19.5706  -26.6375   21.5147 C   0  0  0  0  0  0
  -18.1846  -26.7966   22.1470 C   0  0  0  0  0  0
  -19.1515  -28.8842   23.2838 C   0  0  0  0  0  0
  -18.9508  -30.1449   23.8863 C   0  0  0  0  0  0
  -17.6543  -30.6621   24.0557 C   0  0  0  0  0  0
  -25.9054  -34.9461   23.5110 C   0  0  0  0  0  0
  -16.5411  -29.9141   23.6357 C   0  0  0  0  0  0
  -16.7296  -28.6584   23.0309 C   0  0  0  0  0  0
  -26.4514  -31.6599   25.0718 C   0  0  0  0  0  0
  -25.3779  -31.3722   26.1467 C   0  0  0  0  0  0
  -27.0345  -30.3030   24.6140 C   0  0  0  0  0  0
  -27.6060  -32.4340   25.7495 C   0  0  0  0  0  0
  -27.5582  -37.1813   24.8457 C   0  0  0  0  0  0
  -21.4140  -29.2936   22.3594 N   0  0  0  0  0  0
  -26.4295  -37.3783   23.9399 N   0  0  0  0  0  0
  -24.6754  -31.0660   22.0985 N   0  0  0  0  0  0
  -23.4148  -28.8241   23.3057 O   0  0  0  0  0  0
  -28.3807  -26.6160   20.1525 O   0  0  0  0  0  0
  -26.5603  -34.8923   22.4667 O   0  0  0  0  0  0
  -23.5398  -32.1396   23.7451 O   0  0  0  0  0  0
  -29.1477  -18.9607   22.2114 C   0  0  0  0  0  0
  -29.6910  -17.6503   22.2840 C   0  0  0  0  0  0
  -28.6963  -18.6280   19.8575 C   0  0  0  0  0  0
  -28.5880  -19.4443   21.0084 C   0  0  0  0  0  0
  -29.7081  -16.7937   21.1579 C   0  0  0  0  0  0
  -29.2305  -17.3126   19.9233 C   0  0  0  0  0  0
  -27.5677  -22.8093   19.6301 C   0  0  0  0  0  0
  -28.5616  -23.2037   21.3966 C   0  0  0  0  0  0
  -27.7951  -24.1206   20.4303 C   0  0  2  0  0  0
  -27.6309  -20.6588   21.0205 C   0  0  0  0  0  0
  -28.4328  -25.2700   19.5980 C   0  0  0  0  0  0
  -28.0621  -22.0222   20.6497 N   0  0  0  0  0  0
  -29.1743  -16.5213   18.7770 N   0  0  0  0  0  0
  -29.9681  -15.3940   21.3740 N   0  0  0  0  0  0
  -27.0340  -22.4972   18.5856 O   0  0  0  0  0  0
  -31.4741  -12.4376   19.1612 H   0  0  0  0  0  0
  -30.3258  -11.3050   19.8295 H   0  0  0  0  0  0
  -29.7477  -11.8126   17.4354 H   0  0  0  0  0  0
  -29.6593  -13.5157   17.8085 H   0  0  0  0  0  0
  -27.8522  -11.3005   18.8390 H   0  0  0  0  0  0
  -27.3660  -12.6084   17.7953 H   0  0  0  0  0  0
  -27.7066  -14.2453   19.5871 H   0  0  0  0  0  0
  -28.6731  -11.9106   21.3127 H   0  0  0  0  0  0
  -28.4248  -13.5164   21.8985 H   0  0  0  0  0  0
  -25.2709   -9.5649   22.4766 H   0  0  0  0  0  0
  -23.9966   -7.4583   22.7457 H   0  0  0  0  0  0
  -21.0799   -8.8704   19.8937 H   0  0  0  0  0  0
  -22.3626  -10.9626   19.6148 H   0  0  0  0  0  0
  -21.2012   -7.6135   23.9705 H   0  0  0  0  0  0
  -21.1504   -6.0529   25.9082 H   0  0  0  0  0  0
  -22.0594   -2.7591   23.2865 H   0  0  0  0  0  0
  -22.4105  -11.9856   22.4814 H   0  0  0  0  0  0
  -21.1102  -13.1207   22.2679 H   0  0  0  0  0  0
  -24.6575  -15.8370   20.4653 H   0  0  0  0  0  0
  -26.2978  -15.6148   20.1104 H   0  0  0  0  0  0
  -26.7125  -32.5478   23.1109 H   0  0  0  0  0  0
  -25.0123  -33.9731   25.0474 H   0  0  0  0  0  0
  -22.7031  -31.3076   21.4053 H   0  0  0  0  0  0
  -23.3755  -35.9636   23.3312 H   0  0  0  0  0  0
  -24.3568  -36.8916   22.2034 H   0  0  0  0  0  0
  -23.7247  -37.6521   23.6655 H   0  0  0  0  0  0
  -26.0757  -31.5764   20.6081 H   0  0  0  0  0  0
  -26.8260  -30.8496   21.9985 H   0  0  0  0  0  0
  -28.0916  -29.0373   21.1772 H   0  0  0  0  0  0
  -25.9754  -25.9319   19.0306 H   0  0  0  0  0  0
  -23.9560  -27.2978   19.0367 H   0  0  0  0  0  0
  -23.7445  -30.6052   19.4052 H   0  0  0  0  0  0
  -22.7367  -29.2574   19.8505 H   0  0  0  0  0  0
  -25.1312  -36.1952   25.0810 H   0  0  0  0  0  0
  -20.9923  -28.3215   24.1371 H   0  0  0  0  0  0
  -20.5333  -26.2294   23.3652 H   0  0  0  0  0  0
  -21.6553  -26.7240   22.1351 H   0  0  0  0  0  0
  -19.6889  -25.6312   21.1153 H   0  0  0  0  0  0
  -19.6760  -27.3250   20.6727 H   0  0  0  0  0  0
  -17.4176  -26.6884   21.3757 H   0  0  0  0  0  0
  -17.9995  -26.0046   22.8715 H   0  0  0  0  0  0
  -19.8002  -30.7213   24.2284 H   0  0  0  0  0  0
  -17.5108  -31.6292   24.5197 H   0  0  0  0  0  0
  -15.5420  -30.3026   23.7733 H   0  0  0  0  0  0
  -15.8651  -28.0966   22.7019 H   0  0  0  0  0  0
  -24.5948  -30.7064   25.7852 H   0  0  0  0  0  0
  -24.8982  -32.2877   26.4930 H   0  0  0  0  0  0
  -25.8142  -30.8918   27.0221 H   0  0  0  0  0  0
  -26.2906  -29.6791   24.1174 H   0  0  0  0  0  0
  -27.4087  -29.7284   25.4621 H   0  0  0  0  0  0
  -27.8772  -30.4358   23.9339 H   0  0  0  0  0  0
  -27.2659  -33.3619   26.2102 H   0  0  0  0  0  0
  -28.3872  -32.6914   25.0336 H   0  0  0  0  0  0
  -28.0730  -31.8440   26.5394 H   0  0  0  0  0  0
  -28.2617  -38.0096   24.7502 H   0  0  0  0  0  0
  -28.1066  -36.2630   24.6313 H   0  0  0  0  0  0
  -27.2285  -37.1497   25.8854 H   0  0  0  0  0  0
  -20.9442  -29.8268   21.6408 H   0  0  0  0  0  0
  -26.0193  -38.2863   24.1404 H   0  0  0  0  0  0
  -29.0704  -19.5409   23.1202 H   0  0  0  0  0  0
  -30.0180  -17.2829   23.2472 H   0  0  0  0  0  0
  -28.2501  -18.9775   18.9365 H   0  0  0  0  0  0
  -28.2018  -23.2745   22.4250 H   0  0  0  0  0  0
  -29.6404  -23.3421   21.3540 H   0  0  0  0  0  0
  -26.8672  -24.4472   20.8975 H   0  0  0  0  0  0
  -27.1831  -20.7209   22.0110 H   0  0  0  0  0  0
  -26.7919  -20.3978   20.3692 H   0  0  0  0  0  0
  -28.0320  -25.2676   18.5835 H   0  0  0  0  0  0
  -29.4914  -25.0445   19.4726 H   0  0  0  0  0  0
  -28.5725  -16.7602   17.9946 H   0  0  0  0  0  0
  -29.5589  -15.5894   18.7566 H   0  0  0  0  0  0
  -29.2742  -14.9475   21.9577 H   0  0  0  0  0  0
  1 25  1  0  0  0
  1 30  2  0  0  0
  1 84  1  0  0  0
  2  3  1  0  0  0
  2 25  1  0  0  0
  2 86  1  0  0  0
  2 87  1  0  0  0
  3  4  1  0  0  0
  3 88  1  0  0  0
  3 89  1  0  0  0
  4  5  1  0  0  0
  4 90  1  0  0  0
  4 91  1  0  0  0
  5  6  1  0  0  0
  5 26  1  0  0  0
  5 92  1  0  0  0
  6 25  1  0  0  0
  6 93  1  0  0  0
  6 94  1  0  0  0
  7  8  2  0  0  0
  7 26  1  0  0  0
  7 29  1  0  0  0
  8  9  1  0  0  0
  8 22  1  0  0  0
  9 10  1  0  0  0
  9 27  2  0  0  0
 10 11  2  0  0  0
 10 15  1  0  0  0
 11 12  1  0  0  0
 11 95  1  0  0  0
 12 13  2  0  0  0
 12 96  1  0  0  0
 13 14  1  0  0  0
 13 31  1  0  0  0
 14 15  2  0  0  0
 14 97  1  0  0  0
 15 98  1  0  0  0
 16 17  2  0  0  0
 16 21  1  0  0  0
 16 31  1  0  0  0
 17 18  1  0  0  0
 17 99  1  0  0  0
 18 19  2  0  0  0
 18100  1  0  0  0
 19 20  1  0  0  0
 19 24  1  0  0  0
 20 21  2  0  0  0
 20101  1  0  0  0
 21 23  1  0  0  0
 22 28  1  0  0  0
 22 32  2  0  0  0
 26 27  1  0  0  0
 28102  1  0  0  0
 28103  1  0  0  0
 29104  1  0  0  0
 29105  1  0  0  0
 33 34  1  0  0  0
 33 66  1  0  0  0
 33 70  2  0  0  0
 34 36  1  0  0  0
 34 59  1  0  0  0
 34106  1  0  0  0
 35 44  2  0  0  0
 35 45  1  0  0  0
 35 68  1  0  0  0
 36 56  1  0  0  0
 36107  1  0  0  0
 37 39  1  0  0  0
 37 47  1  0  0  0
 37 66  1  0  0  0
 37108  1  0  0  0
 38 43  2  0  0  0
 38 46  1  0  0  0
 38 47  1  0  0  0
 39 64  1  0  0  0
 39 67  2  0  0  0
 40 52  1  0  0  0
 40 53  2  0  0  0
 40 58  1  0  0  0
 41109  1  0  0  0
 41110  1  0  0  0
 41111  1  0  0  0
 41 48  1  0  0  0
 42 43  1  0  0  0
 42 66  1  0  0  0
 42112  1  0  0  0
 42113  1  0  0  0
 43 44  1  0  0  0
 44114  1  0  0  0
 45 46  2  0  0  0
 45115  1  0  0  0
 46116  1  0  0  0
 47117  1  0  0  0
 47118  1  0  0  0
 48 56  1  0  0  0
 48 65  1  0  0  0
 48119  1  0  0  0
 49 50  1  0  0  0
 49 53  1  0  0  0
 49 64  1  0  0  0
 49120  1  0  0  0
 50 51  1  0  0  0
 50121  1  0  0  0
 50122  1  0  0  0
 51 52  1  0  0  0
 51123  1  0  0  0
 51124  1  0  0  0
 52125  1  0  0  0
 52126  1  0  0  0
 53 54  1  0  0  0
 54 55  2  0  0  0
 54127  1  0  0  0
 55 57  1  0  0  0
 55128  1  0  0  0
 56 69  2  0  0  0
 57 58  2  0  0  0
 57129  1  0  0  0
 58130  1  0  0  0
 59 60  1  0  0  0
 59 61  1  0  0  0
 59 62  1  0  0  0
 60131  1  0  0  0
 60132  1  0  0  0
 60133  1  0  0  0
 61134  1  0  0  0
 61135  1  0  0  0
 61136  1  0  0  0
 62137  1  0  0  0
 62138  1  0  0  0
 62139  1  0  0  0
 63 65  1  0  0  0
 63140  1  0  0  0
 63141  1  0  0  0
 63142  1  0  0  0
 64143  1  0  0  0
 65144  1  0  0  0
 68 81  1  0  0  0
 71 72  2  0  0  0
 71 74  1  0  0  0
 71145  1  0  0  0
 72 75  1  0  0  0
 72146  1  0  0  0
 73 74  2  0  0  0
 73 76  1  0  0  0
 73147  1  0  0  0
 74 80  1  0  0  0
 75 76  2  0  0  0
 75 84  1  0  0  0
 76 83  1  0  0  0
 77 79  1  0  0  0
 77 82  1  0  0  0
 77 85  2  0  0  0
 78 79  1  0  0  0
 78 82  1  0  0  0
 78148  1  0  0  0
 78149  1  0  0  0
 79 81  1  0  0  0
 79150  1  0  0  0
 80 82  1  0  0  0
 80151  1  0  0  0
 80152  1  0  0  0
 81153  1  0  0  0
 81154  1  0  0  0
 83155  1  0  0  0
 83156  1  0  0  0
 84157  1  0  0  0
M  ISO  4   1 100  68 101  81 101  84 100
M  END
> <chiral flag>
0

> <version>
0

> <s_m_source_file>
/data/baiqing/PycharmProjects/Reinvent-master-3.2/result/LINK_invent/BTK/process_docking_weight1_custom_product_contain_oxygen_bond_distance_aromatic_linkinvent_7_9_3/rearranged_h_0015.sdf

> <i_m_source_file_index>
83

> <r_mmod_Potential_Energy-OPLS-2005>
-117.123626708984

> <r_mmod_Stretch_Energy-OPLS-2005>
47.6322593688965

> <r_mmod_Bend_Energy-OPLS-2005>
136.716598510742

> <r_mmod_Torsional_Energy-OPLS-2005>
276.467132568359

> <r_mmod_Improper_Torsional_Energy-OPLS-2005>
10.5807361602783

> <r_mmod_Van_der_Waal_Energy-OPLS-2005>
142.025192260742

> <r_mmod_Electrostatic_Energy-OPLS-2005>
-512.73876953125

> <r_mmod_Solvation_Energy-OPLS-2005>
-239.5009765625

> <b_mmod_Minimization_Converged-OPLS-2005>
0

> <r_mmod_RMS_Derivative-OPLS-2005>
6.94141912460327

$$$$
83
                    3D
 Structure written by MMmdl.
160169  0  0  1  0            999 V2000
  -30.6149  -14.6374   20.5045 C   0  0  0  0  0  0
  -30.4394  -12.3896   19.4543 C   0  0  0  0  0  0
  -29.5083  -12.5106   18.2259 C   0  0  0  0  0  0
  -28.0311  -12.3481   18.6378 C   0  0  0  0  0  0
  -27.6543  -13.2162   19.8682 C   0  0  2  0  0  0
  -28.6980  -13.0608   20.9981 C   0  0  0  0  0  0
  -25.2543  -13.8160   20.5690 C   0  0  0  0  0  0
  -24.1805  -13.0420   20.9164 C   0  0  0  0  0  0
  -24.6386  -11.6899   20.8734 C   0  0  0  0  0  0
  -23.9064  -10.4282   21.0403 C   0  0  0  0  0  0
  -24.3611   -9.4201   21.9187 C   0  0  0  0  0  0
  -23.6282   -8.2242   22.0765 C   0  0  0  0  0  0
  -22.4263   -8.0279   21.3552 C   0  0  0  0  0  0
  -21.9897   -9.0256   20.4655 C   0  0  0  0  0  0
  -22.7235  -10.2126   20.3057 C   0  0  0  0  0  0
  -21.6849   -6.0729   22.5281 C   0  0  0  0  0  0
  -21.4021   -6.5637   23.8213 C   0  0  0  0  0  0
  -21.3661   -5.6790   24.9178 C   0  0  0  0  0  0
  -21.6040   -4.3053   24.7225 C   0  0  0  0  0  0
  -21.8818   -3.8143   23.4349 C   0  0  0  0  0  0
  -21.9193   -4.6960   22.3404 C   0  0  0  0  0  0
  -22.7827  -13.5221   21.1831 C   0  0  0  0  0  0
  -22.1657   -4.2148   21.0981 F   0  0  0  0  0  0
  -21.5626   -3.4538   25.7740 F   0  0  0  0  0  0
  -30.0170  -13.4051   20.4399 N   0  0  0  0  0  0
  -26.2987  -12.9354   20.3342 N   0  0  0  0  0  0
  -25.9317  -11.6507   20.5756 N   0  0  0  0  0  0
  -22.0470  -12.8226   22.0400 N   0  0  0  0  0  0
  -25.4230  -15.1880   20.4155 N   0  0  0  0  0  0
  -31.7664  -14.8163   20.0971 O   0  0  0  0  0  0
  -21.6632   -6.8873   21.4243 O   0  0  0  0  0  0
  -22.3518  -14.5539   20.6700 O   0  0  0  0  0  0
  -24.6251  -31.8607   23.2028 C   0  0  0  0  0  0
  -25.9103  -32.4784   23.8356 C   0  0  1  0  0  0
  -27.2266  -27.3292   20.1197 C   0  0  0  0  0  0
  -25.5922  -33.8584   24.2286 N   0  0  0  0  0  0
  -23.4182  -30.4836   21.5458 C   0  0  2  0  0  0
  -24.8649  -28.9363   20.1151 C   0  0  0  0  0  0
  -22.7467  -29.4626   22.4949 C   0  0  0  0  0  0
  -18.0285  -28.1381   22.8489 C   0  0  0  0  0  0
  -24.1488  -36.7299   23.2639 C   0  0  0  0  0  0
  -25.9577  -30.7943   21.3713 C   0  0  0  0  0  0
  -26.0332  -29.4206   20.7174 C   0  0  0  0  0  0
  -27.2188  -28.6304   20.7076 C   0  0  0  0  0  0
  -26.0394  -26.8958   19.4885 C   0  0  0  0  0  0
  -24.8692  -27.6784   19.4923 C   0  0  0  0  0  0
  -23.6329  -29.8165   20.1619 C   0  0  0  0  0  0
  -25.4111  -36.3088   24.0332 C   0  0  1  0  0  0
  -20.5882  -28.3683   23.1290 C   0  0  2  0  0  0
  -20.6774  -26.9410   22.5410 C   0  0  0  0  0  0
  -19.5752  -26.6385   21.5210 C   0  0  0  0  0  0
  -18.1932  -26.7924   22.1623 C   0  0  0  0  0  0
  -19.1536  -28.8850   23.2887 C   0  0  0  0  0  0
  -18.9459  -30.1451   23.8907 C   0  0  0  0  0  0
  -17.6460  -30.6586   24.0561 C   0  0  0  0  0  0
  -25.9051  -34.9456   23.5111 C   0  0  0  0  0  0
  -16.5352  -29.9086   23.6324 C   0  0  0  0  0  0
  -16.7272  -28.6499   23.0353 C   0  0  0  0  0  0
  -26.4490  -31.6590   25.0724 C   0  0  0  0  0  0
  -25.3725  -31.3723   26.1455 C   0  0  0  0  0  0
  -27.0322  -30.3015   24.6160 C   0  0  0  0  0  0
  -27.6055  -32.4320   25.7492 C   0  0  0  0  0  0
  -27.5579  -37.1805   24.8466 C   0  0  0  0  0  0
  -21.4182  -29.3041   22.3690 N   0  0  0  0  0  0
  -26.4290  -37.3780   23.9411 N   0  0  0  0  0  0
  -24.6858  -31.0629   22.0969 N   0  0  0  0  0  0
  -23.4198  -28.8163   23.3023 O   0  0  0  0  0  0
  -28.3543  -26.5003   20.1241 O   0  0  0  0  0  0
  -26.5619  -34.8920   22.4677 O   0  0  0  0  0  0
  -23.5421  -32.1400   23.7369 O   0  0  0  0  0  0
  -30.6648  -19.2836   19.8620 C   0  0  0  0  0  0
  -30.8324  -17.8838   20.1054 C   0  0  0  0  0  0
  -28.4468  -19.2016   20.7873 C   0  0  0  0  0  0
  -29.4621  -19.9815   20.1758 C   0  0  0  0  0  0
  -29.7923  -17.1030   20.6774 C   0  0  0  0  0  0
  -28.6102  -17.8063   21.0274 C   0  0  0  0  0  0
  -31.5182  -23.4435   20.8479 C   0  0  0  0  0  0
  -30.6983  -24.6114   20.3097 C   0  0  0  0  0  0
  -30.4674  -22.5800   21.5396 C   0  0  0  0  0  0
  -29.2868  -24.0439   20.0372 C   0  0  2  0  0  0
  -29.2113  -21.4686   19.7011 C   0  0  0  0  0  0
  -28.1852  -25.0845   20.5308 C   0  0  0  0  0  0
  -29.8080  -15.6610   20.9191 N   0  0  0  0  0  0
  -29.2717  -22.6414   20.6687 N   0  3  1  0  0  0
  -27.5862  -17.1101   21.5770 F   0  0  0  0  0  0
  -31.4807  -12.5181   19.1542 H   0  0  0  0  0  0
  -30.3758  -11.3905   19.8891 H   0  0  0  0  0  0
  -29.7717  -11.7626   17.4762 H   0  0  0  0  0  0
  -29.6502  -13.4811   17.7477 H   0  0  0  0  0  0
  -27.8712  -11.2950   18.8712 H   0  0  0  0  0  0
  -27.3749  -12.5777   17.7973 H   0  0  0  0  0  0
  -27.6745  -14.2527   19.5309 H   0  0  0  0  0  0
  -28.7050  -12.0363   21.3732 H   0  0  0  0  0  0
  -28.4403  -13.6851   21.8551 H   0  0  0  0  0  0
  -25.2755   -9.5677   22.4764 H   0  0  0  0  0  0
  -23.9995   -7.4630   22.7479 H   0  0  0  0  0  0
  -21.0832   -8.8774   19.8955 H   0  0  0  0  0  0
  -22.3702  -10.9667   19.6165 H   0  0  0  0  0  0
  -21.2023   -7.6145   23.9721 H   0  0  0  0  0  0
  -21.1481   -6.0518   25.9081 H   0  0  0  0  0  0
  -22.0597   -2.7608   23.2845 H   0  0  0  0  0  0
  -22.4081  -11.9886   22.4788 H   0  0  0  0  0  0
  -21.1102  -13.1283   22.2628 H   0  0  0  0  0  0
  -24.6667  -15.8429   20.5771 H   0  0  0  0  0  0
  -26.3019  -15.6475   20.2152 H   0  0  0  0  0  0
  -26.7171  -32.5456   23.1107 H   0  0  0  0  0  0
  -25.0059  -33.9722   25.0425 H   0  0  0  0  0  0
  -22.7120  -31.3039   21.4023 H   0  0  0  0  0  0
  -23.3749  -35.9633   23.3299 H   0  0  0  0  0  0
  -24.3584  -36.8920   22.2054 H   0  0  0  0  0  0
  -23.7244  -37.6501   23.6662 H   0  0  0  0  0  0
  -26.0874  -31.5561   20.6011 H   0  0  0  0  0  0
  -26.8391  -30.8453   21.9988 H   0  0  0  0  0  0
  -28.1185  -29.0039   21.1771 H   0  0  0  0  0  0
  -26.0032  -25.9450   18.9770 H   0  0  0  0  0  0
  -23.9764  -27.3051   19.0100 H   0  0  0  0  0  0
  -23.7536  -30.5919   19.4046 H   0  0  0  0  0  0
  -22.7529  -29.2464   19.8594 H   0  0  0  0  0  0
  -25.1289  -36.1939   25.0824 H   0  0  0  0  0  0
  -20.9973  -28.3255   24.1413 H   0  0  0  0  0  0
  -20.5676  -26.2295   23.3606 H   0  0  0  0  0  0
  -21.6645  -26.7446   22.1206 H   0  0  0  0  0  0
  -19.6915  -25.6298   21.1241 H   0  0  0  0  0  0
  -19.6686  -27.3194   20.6738 H   0  0  0  0  0  0
  -17.4200  -26.6672   21.4024 H   0  0  0  0  0  0
  -18.0332  -26.0064   22.9017 H   0  0  0  0  0  0
  -19.7934  -30.7258   24.2291 H   0  0  0  0  0  0
  -17.5015  -31.6267   24.5157 H   0  0  0  0  0  0
  -15.5353  -30.2991   23.7640 H   0  0  0  0  0  0
  -15.8670  -28.0815   22.7074 H   0  0  0  0  0  0
  -24.5902  -30.7068   25.7787 H   0  0  0  0  0  0
  -24.8913  -32.2886   26.4885 H   0  0  0  0  0  0
  -25.8053  -30.8901   27.0227 H   0  0  0  0  0  0
  -26.2880  -29.6777   24.1192 H   0  0  0  0  0  0
  -27.4035  -29.7262   25.4652 H   0  0  0  0  0  0
  -27.8750  -30.4312   23.9364 H   0  0  0  0  0  0
  -27.2669  -33.3622   26.2068 H   0  0  0  0  0  0
  -28.3862  -32.6875   25.0315 H   0  0  0  0  0  0
  -28.0722  -31.8444   26.5407 H   0  0  0  0  0  0
  -28.2600  -38.0099   24.7510 H   0  0  0  0  0  0
  -28.1072  -36.2634   24.6290 H   0  0  0  0  0  0
  -27.2303  -37.1452   25.8870 H   0  0  0  0  0  0
  -20.9362  -29.8769   21.6902 H   0  0  0  0  0  0
  -26.0174  -38.2858   24.1401 H   0  0  0  0  0  0
  -31.4707  -19.8170   19.3761 H   0  0  0  0  0  0
  -31.7624  -17.4132   19.8192 H   0  0  0  0  0  0
  -27.4999  -19.6578   21.0372 H   0  0  0  0  0  0
  -32.3141  -23.7598   21.5233 H   0  0  0  0  0  0
  -31.9777  -22.8928   20.0260 H   0  0  0  0  0  0
  -31.1456  -25.0598   19.4213 H   0  0  0  0  0  0
  -30.6561  -25.3920   21.0712 H   0  0  0  0  0  0
  -30.2117  -23.0252   22.5022 H   0  0  0  0  0  0
  -30.8254  -21.5719   21.7484 H   0  0  0  0  0  0
  -29.1661  -23.9344   18.9581 H   0  0  0  0  0  0
  -28.2355  -21.4969   19.2149 H   0  0  0  0  0  0
  -29.9272  -21.6659   18.9023 H   0  0  0  0  0  0
  -28.1772  -25.0856   21.6219 H   0  0  0  0  0  0
  -27.2120  -24.6915   20.2422 H   0  0  0  0  0  0
  -28.9379  -15.3299   21.3073 H   0  0  0  0  0  0
  -28.4596  -22.5486   21.2622 H   0  0  0  0  0  0
  1 25  1  0  0  0
  1 30  2  0  0  0
  1 83  1  0  0  0
  2  3  1  0  0  0
  2 25  1  0  0  0
  2 86  1  0  0  0
  2 87  1  0  0  0
  3  4  1  0  0  0
  3 88  1  0  0  0
  3 89  1  0  0  0
  4  5  1  0  0  0
  4 90  1  0  0  0
  4 91  1  0  0  0
  5  6  1  0  0  0
  5 26  1  0  0  0
  5 92  1  0  0  0
  6 25  1  0  0  0
  6 93  1  0  0  0
  6 94  1  0  0  0
  7  8  2  0  0  0
  7 26  1  0  0  0
  7 29  1  0  0  0
  8  9  1  0  0  0
  8 22  1  0  0  0
  9 10  1  0  0  0
  9 27  2  0  0  0
 10 11  2  0  0  0
 10 15  1  0  0  0
 11 12  1  0  0  0
 11 95  1  0  0  0
 12 13  2  0  0  0
 12 96  1  0  0  0
 13 14  1  0  0  0
 13 31  1  0  0  0
 14 15  2  0  0  0
 14 97  1  0  0  0
 15 98  1  0  0  0
 16 17  2  0  0  0
 16 21  1  0  0  0
 16 31  1  0  0  0
 17 18  1  0  0  0
 17 99  1  0  0  0
 18 19  2  0  0  0
 18100  1  0  0  0
 19 20  1  0  0  0
 19 24  1  0  0  0
 20 21  2  0  0  0
 20101  1  0  0  0
 21 23  1  0  0  0
 22 28  1  0  0  0
 22 32  2  0  0  0
 26 27  1  0  0  0
 28102  1  0  0  0
 28103  1  0  0  0
 29104  1  0  0  0
 29105  1  0  0  0
 33 34  1  0  0  0
 33 66  1  0  0  0
 33 70  2  0  0  0
 34 36  1  0  0  0
 34 59  1  0  0  0
 34106  1  0  0  0
 35 44  2  0  0  0
 35 45  1  0  0  0
 35 68  1  0  0  0
 36 56  1  0  0  0
 36107  1  0  0  0
 37 39  1  0  0  0
 37 47  1  0  0  0
 37 66  1  0  0  0
 37108  1  0  0  0
 38 43  2  0  0  0
 38 46  1  0  0  0
 38 47  1  0  0  0
 39 64  1  0  0  0
 39 67  2  0  0  0
 40 52  1  0  0  0
 40 53  2  0  0  0
 40 58  1  0  0  0
 41109  1  0  0  0
 41110  1  0  0  0
 41111  1  0  0  0
 41 48  1  0  0  0
 42 43  1  0  0  0
 42 66  1  0  0  0
 42112  1  0  0  0
 42113  1  0  0  0
 43 44  1  0  0  0
 44114  1  0  0  0
 45 46  2  0  0  0
 45115  1  0  0  0
 46116  1  0  0  0
 47117  1  0  0  0
 47118  1  0  0  0
 48 56  1  0  0  0
 48 65  1  0  0  0
 48119  1  0  0  0
 49 50  1  0  0  0
 49 53  1  0  0  0
 49 64  1  0  0  0
 49120  1  0  0  0
 50 51  1  0  0  0
 50121  1  0  0  0
 50122  1  0  0  0
 51 52  1  0  0  0
 51123  1  0  0  0
 51124  1  0  0  0
 52125  1  0  0  0
 52126  1  0  0  0
 53 54  1  0  0  0
 54 55  2  0  0  0
 54127  1  0  0  0
 55 57  1  0  0  0
 55128  1  0  0  0
 56 69  2  0  0  0
 57 58  2  0  0  0
 57129  1  0  0  0
 58130  1  0  0  0
 59 60  1  0  0  0
 59 61  1  0  0  0
 59 62  1  0  0  0
 60131  1  0  0  0
 60132  1  0  0  0
 60133  1  0  0  0
 61134  1  0  0  0
 61135  1  0  0  0
 61136  1  0  0  0
 62137  1  0  0  0
 62138  1  0  0  0
 62139  1  0  0  0
 63 65  1  0  0  0
 63140  1  0  0  0
 63141  1  0  0  0
 63142  1  0  0  0
 64143  1  0  0  0
 65144  1  0  0  0
 68 82  1  0  0  0
 71 72  2  0  0  0
 71 74  1  0  0  0
 71145  1  0  0  0
 72 75  1  0  0  0
 72146  1  0  0  0
 73 74  2  0  0  0
 73 76  1  0  0  0
 73147  1  0  0  0
 74 81  1  0  0  0
 75 76  2  0  0  0
 75 83  1  0  0  0
 76 85  1  0  0  0
 77 78  1  0  0  0
 77 79  1  0  0  0
 77148  1  0  0  0
 77149  1  0  0  0
 78 80  1  0  0  0
 78150  1  0  0  0
 78151  1  0  0  0
 79 84  1  0  0  0
 79152  1  0  0  0
 79153  1  0  0  0
 80 82  1  0  0  0
 80 84  1  0  0  0
 80154  1  0  0  0
 81155  1  0  0  0
 81156  1  0  0  0
 81 84  1  0  0  0
 82157  1  0  0  0
 82158  1  0  0  0
 83159  1  0  0  0
 84160  1  0  0  0
M  CHG  1  84   1
M  ISO  4   1 100  68 101  82 101  83 100
M  END
> <chiral flag>
0

> <version>
0

> <s_m_source_file>
/data/baiqing/PycharmProjects/Reinvent-master-3.2/result/LINK_invent/BTK/process_docking_weight1_custom_product_contain_oxygen_bond_distance_aromatic_linkinvent_7_9_3/rearranged_h_0015.sdf

> <i_m_source_file_index>
84

> <r_mmod_Potential_Energy-OPLS-2005>
22.1129570007324

> <r_mmod_Stretch_Energy-OPLS-2005>
80.3119430541992

> <r_mmod_Bend_Energy-OPLS-2005>
163.003128051758

> <r_mmod_Torsional_Energy-OPLS-2005>
288.649932861328

> <r_mmod_Improper_Torsional_Energy-OPLS-2005>
4.53385353088379

> <r_mmod_Van_der_Waal_Energy-OPLS-2005>
137.763717651367

> <r_mmod_Electrostatic_Energy-OPLS-2005>
-263.133239746094

> <r_mmod_Solvation_Energy-OPLS-2005>
-433.199249267578

> <b_mmod_Minimization_Converged-OPLS-2005>
0

> <r_mmod_RMS_Derivative-OPLS-2005>
1.13686311244965

$$$$
84
                    3D
 Structure written by MMmdl.
185194  0  0  1  0            999 V2000
  -30.7528  -14.3893   20.6396 C   0  0  0  0  0  0
  -30.4086  -12.2860   19.4000 C   0  0  0  0  0  0
  -29.4832  -12.5205   18.1914 C   0  0  0  0  0  0
  -28.0057  -12.3768   18.6052 C   0  0  0  0  0  0
  -27.6593  -13.2033   19.8720 C   0  0  2  0  0  0
  -28.6970  -12.9636   20.9902 C   0  0  0  0  0  0
  -25.2579  -13.8148   20.5654 C   0  0  0  0  0  0
  -24.1839  -13.0433   20.9156 C   0  0  0  0  0  0
  -24.6386  -11.6897   20.8716 C   0  0  0  0  0  0
  -23.9060  -10.4294   21.0404 C   0  0  0  0  0  0
  -24.3618   -9.4207   21.9181 C   0  0  0  0  0  0
  -23.6296   -8.2239   22.0752 C   0  0  0  0  0  0
  -22.4272   -8.0278   21.3545 C   0  0  0  0  0  0
  -21.9909   -9.0252   20.4641 C   0  0  0  0  0  0
  -22.7235  -10.2133   20.3051 C   0  0  0  0  0  0
  -21.6854   -6.0736   22.5279 C   0  0  0  0  0  0
  -21.4015   -6.5642   23.8214 C   0  0  0  0  0  0
  -21.3660   -5.6793   24.9170 C   0  0  0  0  0  0
  -21.6045   -4.3059   24.7226 C   0  0  0  0  0  0
  -21.8821   -3.8148   23.4348 C   0  0  0  0  0  0
  -21.9195   -4.6961   22.3394 C   0  0  0  0  0  0
  -22.7867  -13.5234   21.1846 C   0  0  0  0  0  0
  -22.1667   -4.2149   21.0977 F   0  0  0  0  0  0
  -21.5625   -3.4539   25.7740 F   0  0  0  0  0  0
  -30.0352  -13.2510   20.4444 N   0  0  0  0  0  0
  -26.3005  -12.9318   20.3335 N   0  0  0  0  0  0
  -25.9308  -11.6476   20.5734 N   0  0  0  0  0  0
  -22.0512  -12.8218   22.0388 N   0  0  0  0  0  0
  -25.4306  -15.1870   20.4084 N   0  0  0  0  0  0
  -31.8498  -14.5869   20.1071 O   0  0  0  0  0  0
  -21.6641   -6.8872   21.4240 O   0  0  0  0  0  0
  -22.3541  -14.5539   20.6694 O   0  0  0  0  0  0
  -24.6069  -31.8687   23.2110 C   0  0  0  0  0  0
  -25.8983  -32.4834   23.8400 C   0  0  1  0  0  0
  -27.2541  -27.4848   20.1132 C   0  0  0  0  0  0
  -25.5856  -33.8624   24.2336 N   0  0  0  0  0  0
  -23.3939  -30.4884   21.5505 C   0  0  2  0  0  0
  -24.8470  -28.9501   20.1303 C   0  0  0  0  0  0
  -22.7377  -29.4641   22.5023 C   0  0  0  0  0  0
  -18.0242  -28.1342   22.8467 C   0  0  0  0  0  0
  -24.1493  -36.7293   23.2643 C   0  0  0  0  0  0
  -25.9149  -30.8557   21.3541 C   0  0  0  0  0  0
  -26.0000  -29.4893   20.7137 C   0  0  0  0  0  0
  -27.2070  -28.7650   20.6989 C   0  0  0  0  0  0
  -26.0898  -26.9415   19.5291 C   0  0  0  0  0  0
  -24.8828  -27.6714   19.5408 C   0  0  0  0  0  0
  -23.6024  -29.8081   20.1707 C   0  0  0  0  0  0
  -25.4098  -36.3094   24.0360 C   0  0  1  0  0  0
  -20.5837  -28.3618   23.1324 C   0  0  2  0  0  0
  -20.6739  -26.9364   22.5412 C   0  0  0  0  0  0
  -19.5743  -26.6360   21.5173 C   0  0  0  0  0  0
  -18.1910  -26.7890   22.1577 C   0  0  0  0  0  0
  -19.1496  -28.8795   23.2895 C   0  0  0  0  0  0
  -18.9434  -30.1393   23.8923 C   0  0  0  0  0  0
  -17.6450  -30.6569   24.0543 C   0  0  0  0  0  0
  -25.9021  -34.9473   23.5152 C   0  0  0  0  0  0
  -16.5335  -29.9078   23.6307 C   0  0  0  0  0  0
  -16.7236  -28.6482   23.0341 C   0  0  0  0  0  0
  -26.4442  -31.6603   25.0713 C   0  0  0  0  0  0
  -25.3736  -31.3716   26.1492 C   0  0  0  0  0  0
  -27.0250  -30.3061   24.5998 C   0  0  0  0  0  0
  -27.6010  -32.4324   25.7476 C   0  0  0  0  0  0
  -27.5574  -37.1797   24.8464 C   0  0  0  0  0  0
  -21.4102  -29.3008   22.3768 N   0  0  0  0  0  0
  -26.4281  -37.3763   23.9430 N   0  0  0  0  0  0
  -24.6558  -31.0859   22.0973 N   0  0  0  0  0  0
  -23.4180  -28.8180   23.3023 O   0  0  0  0  0  0
  -28.4516  -26.8278   20.0192 O   0  0  0  0  0  0
  -26.5568  -34.8930   22.4704 O   0  0  0  0  0  0
  -23.5275  -32.1387   23.7552 O   0  0  0  0  0  0
  -30.4290  -17.0906   18.4832 C   0  0  0  0  0  0
  -31.5277  -18.1249   20.3962 C   0  0  0  0  0  0
  -33.9179  -22.0612   18.5821 C   0  0  0  0  0  0
  -31.3567  -17.7043   17.6170 C   0  0  0  0  0  0
  -32.4521  -18.7380   19.5295 C   0  0  0  0  0  0
  -33.7828  -22.9896   19.6331 C   0  0  0  0  0  0
  -31.3714  -22.8787   19.4180 C   0  0  0  0  0  0
  -30.5171  -17.2889   19.8788 C   0  0  0  0  0  0
  -32.7782  -21.5317   17.9479 C   0  0  0  0  0  0
  -32.3790  -18.5327   18.1356 C   0  0  0  0  0  0
  -32.5069  -23.4068   20.0863 C   0  0  0  0  0  0
  -31.5011  -21.9588   18.3632 C   0  0  0  0  0  0
  -34.2720  -24.1152   22.7769 C   0  0  0  0  0  0
  -28.6710  -26.5852   22.5131 C   0  0  0  0  0  0
  -33.9478  -18.2939   16.3005 C   0  0  0  0  0  0
  -30.7267  -15.5244   22.7677 C   0  0  0  0  0  0
  -29.5876  -16.5367   20.8269 C   0  0  0  0  0  0
  -32.9273  -20.4967   16.8461 C   0  0  0  0  0  0
  -30.3662  -25.7561   20.8046 C   0  0  0  0  0  0
  -33.5373  -24.9899   21.7483 C   0  0  0  0  0  0
  -31.0375  -24.6715   21.6700 C   0  0  0  0  0  0
  -28.8727  -25.9951   21.1020 C   0  0  2  0  0  0
  -33.3223  -19.1595   17.2983 N   0  0  0  0  0  0
  -32.3699  -24.3161   21.1725 N   0  0  0  0  0  0
  -30.1773  -15.3248   21.4246 N   0  0  0  0  0  0
  -30.3864  -21.4728   17.7633 F   0  0  0  0  0  0
  -31.4537  -12.3725   19.0972 H   0  0  0  0  0  0
  -30.2948  -11.2684   19.7753 H   0  0  0  0  0  0
  -29.7189  -11.8162   17.3921 H   0  0  0  0  0  0
  -29.6553  -13.5175   17.7818 H   0  0  0  0  0  0
  -27.8118  -11.3185   18.7853 H   0  0  0  0  0  0
  -27.3559  -12.6677   17.7783 H   0  0  0  0  0  0
  -27.7093  -14.2530   19.5858 H   0  0  0  0  0  0
  -28.6597  -11.9264   21.3257 H   0  0  0  0  0  0
  -28.4550  -13.5617   21.8696 H   0  0  0  0  0  0
  -25.2760   -9.5683   22.4750 H   0  0  0  0  0  0
  -24.0012   -7.4625   22.7472 H   0  0  0  0  0  0
  -21.0835   -8.8757   19.8950 H   0  0  0  0  0  0
  -22.3689  -10.9663   19.6155 H   0  0  0  0  0  0
  -21.2015   -7.6151   23.9712 H   0  0  0  0  0  0
  -21.1480   -6.0527   25.9072 H   0  0  0  0  0  0
  -22.0603   -2.7614   23.2844 H   0  0  0  0  0  0
  -22.4146  -11.9884   22.4768 H   0  0  0  0  0  0
  -21.1121  -13.1227   22.2605 H   0  0  0  0  0  0
  -24.6637  -15.8423   20.5137 H   0  0  0  0  0  0
  -26.2887  -15.6282   20.1040 H   0  0  0  0  0  0
  -26.7104  -32.5581   23.1203 H   0  0  0  0  0  0
  -25.0058  -33.9798   25.0511 H   0  0  0  0  0  0
  -22.6759  -31.2996   21.4042 H   0  0  0  0  0  0
  -23.3758  -35.9626   23.3295 H   0  0  0  0  0  0
  -24.3637  -36.8897   22.2075 H   0  0  0  0  0  0
  -23.7256  -37.6493   23.6658 H   0  0  0  0  0  0
  -26.0170  -31.6216   20.5862 H   0  0  0  0  0  0
  -26.8059  -30.9146   21.9691 H   0  0  0  0  0  0
  -28.1065  -29.1900   21.1216 H   0  0  0  0  0  0
  -26.1259  -25.9680   19.0589 H   0  0  0  0  0  0
  -23.9949  -27.2487   19.0923 H   0  0  0  0  0  0
  -23.7082  -30.5733   19.3991 H   0  0  0  0  0  0
  -22.7321  -29.2176   19.8828 H   0  0  0  0  0  0
  -25.1278  -36.1930   25.0854 H   0  0  0  0  0  0
  -20.9880  -28.3160   24.1461 H   0  0  0  0  0  0
  -20.5597  -26.2222   23.3589 H   0  0  0  0  0  0
  -21.6622  -26.7407   22.1241 H   0  0  0  0  0  0
  -19.6953  -25.6277   21.1209 H   0  0  0  0  0  0
  -19.6724  -27.3161   20.6696 H   0  0  0  0  0  0
  -17.4184  -26.6589   21.3989 H   0  0  0  0  0  0
  -18.0351  -26.0024   22.8969 H   0  0  0  0  0  0
  -19.7930  -30.7144   24.2356 H   0  0  0  0  0  0
  -17.5035  -31.6270   24.5116 H   0  0  0  0  0  0
  -15.5352  -30.3005   23.7624 H   0  0  0  0  0  0
  -15.8607  -28.0816   22.7062 H   0  0  0  0  0  0
  -24.5890  -30.7060   25.7861 H   0  0  0  0  0  0
  -24.8961  -32.2891   26.4949 H   0  0  0  0  0  0
  -25.8112  -30.8898   27.0236 H   0  0  0  0  0  0
  -26.2768  -29.6893   24.1008 H   0  0  0  0  0  0
  -27.4013  -29.7202   25.4382 H   0  0  0  0  0  0
  -27.8588  -30.4427   23.9111 H   0  0  0  0  0  0
  -27.2613  -33.3604   26.2082 H   0  0  0  0  0  0
  -28.3792  -32.6940   25.0300 H   0  0  0  0  0  0
  -28.0698  -31.8451   26.5381 H   0  0  0  0  0  0
  -28.2548  -38.0117   24.7501 H   0  0  0  0  0  0
  -28.1098  -36.2657   24.6259 H   0  0  0  0  0  0
  -27.2318  -37.1368   25.8864 H   0  0  0  0  0  0
  -20.9249  -29.8762   21.7034 H   0  0  0  0  0  0
  -26.0158  -38.2821   24.1442 H   0  0  0  0  0  0
  -29.6669  -16.4434   18.0712 H   0  0  0  0  0  0
  -31.6152  -18.2802   21.4620 H   0  0  0  0  0  0
  -34.9046  -21.7472   18.2729 H   0  0  0  0  0  0
  -31.2820  -17.5194   16.5539 H   0  0  0  0  0  0
  -33.2329  -19.3613   19.9420 H   0  0  0  0  0  0
  -34.6908  -23.3562   20.0830 H   0  0  0  0  0  0
  -30.3663  -23.1590   19.6884 H   0  0  0  0  0  0
  -35.0471  -24.6832   23.2969 H   0  0  0  0  0  0
  -34.7700  -23.2609   22.3167 H   0  0  0  0  0  0
  -33.5835  -23.7309   23.5275 H   0  0  0  0  0  0
  -29.0492  -25.9045   23.2759 H   0  0  0  0  0  0
  -27.6161  -26.7393   22.7416 H   0  0  0  0  0  0
  -29.1895  -27.5359   22.6341 H   0  0  0  0  0  0
  -33.7734  -17.2342   16.4951 H   0  0  0  0  0  0
  -35.0269  -18.4486   16.3002 H   0  0  0  0  0  0
  -33.5784  -18.5173   15.2984 H   0  0  0  0  0  0
  -30.0240  -16.0535   23.4111 H   0  0  0  0  0  0
  -31.6511  -16.1003   22.7219 H   0  0  0  0  0  0
  -30.9520  -14.5715   23.2491 H   0  0  0  0  0  0
  -28.6728  -16.2641   20.3012 H   0  0  0  0  0  0
  -29.2646  -17.2274   21.6072 H   0  0  0  0  0  0
  -33.6646  -20.8733   16.1355 H   0  0  0  0  0  0
  -31.9907  -20.4242   16.2885 H   0  0  0  0  0  0
  -30.4542  -25.4843   19.7539 H   0  0  0  0  0  0
  -30.9092  -26.6970   20.9068 H   0  0  0  0  0  0
  -34.2098  -25.3316   20.9611 H   0  0  0  0  0  0
  -33.2116  -25.9024   22.2538 H   0  0  0  0  0  0
  -30.4095  -23.7819   21.7414 H   0  0  0  0  0  0
  -31.1234  -25.0361   22.6952 H   0  0  0  0  0  0
  -28.3242  -25.0553   21.0276 H   0  0  0  0  0  0
  1 25  1  0  0  0
  1 30  2  0  0  0
  1 95  1  0  0  0
  2  3  1  0  0  0
  2 25  1  0  0  0
  2 97  1  0  0  0
  2 98  1  0  0  0
  3  4  1  0  0  0
  3 99  1  0  0  0
  3100  1  0  0  0
  4  5  1  0  0  0
  4101  1  0  0  0
  4102  1  0  0  0
  5  6  1  0  0  0
  5 26  1  0  0  0
  5103  1  0  0  0
  6 25  1  0  0  0
  6104  1  0  0  0
  6105  1  0  0  0
  7  8  2  0  0  0
  7 26  1  0  0  0
  7 29  1  0  0  0
  8  9  1  0  0  0
  8 22  1  0  0  0
  9 10  1  0  0  0
  9 27  2  0  0  0
 10 11  2  0  0  0
 10 15  1  0  0  0
 11 12  1  0  0  0
 11106  1  0  0  0
 12 13  2  0  0  0
 12107  1  0  0  0
 13 14  1  0  0  0
 13 31  1  0  0  0
 14 15  2  0  0  0
 14108  1  0  0  0
 15109  1  0  0  0
 16 17  2  0  0  0
 16 21  1  0  0  0
 16 31  1  0  0  0
 17 18  1  0  0  0
 17110  1  0  0  0
 18 19  2  0  0  0
 18111  1  0  0  0
 19 20  1  0  0  0
 19 24  1  0  0  0
 20 21  2  0  0  0
 20112  1  0  0  0
 21 23  1  0  0  0
 22 28  1  0  0  0
 22 32  2  0  0  0
 26 27  1  0  0  0
 28113  1  0  0  0
 28114  1  0  0  0
 29115  1  0  0  0
 29116  1  0  0  0
 33 34  1  0  0  0
 33 66  1  0  0  0
 33 70  2  0  0  0
 34 36  1  0  0  0
 34 59  1  0  0  0
 34117  1  0  0  0
 35 44  2  0  0  0
 35 45  1  0  0  0
 35 68  1  0  0  0
 36 56  1  0  0  0
 36118  1  0  0  0
 37 39  1  0  0  0
 37 47  1  0  0  0
 37 66  1  0  0  0
 37119  1  0  0  0
 38 43  2  0  0  0
 38 46  1  0  0  0
 38 47  1  0  0  0
 39 64  1  0  0  0
 39 67  2  0  0  0
 40 52  1  0  0  0
 40 53  2  0  0  0
 40 58  1  0  0  0
 41120  1  0  0  0
 41121  1  0  0  0
 41122  1  0  0  0
 41 48  1  0  0  0
 42 43  1  0  0  0
 42 66  1  0  0  0
 42123  1  0  0  0
 42124  1  0  0  0
 43 44  1  0  0  0
 44125  1  0  0  0
 45 46  2  0  0  0
 45126  1  0  0  0
 46127  1  0  0  0
 47128  1  0  0  0
 47129  1  0  0  0
 48 56  1  0  0  0
 48 65  1  0  0  0
 48130  1  0  0  0
 49 50  1  0  0  0
 49 53  1  0  0  0
 49 64  1  0  0  0
 49131  1  0  0  0
 50 51  1  0  0  0
 50132  1  0  0  0
 50133  1  0  0  0
 51 52  1  0  0  0
 51134  1  0  0  0
 51135  1  0  0  0
 52136  1  0  0  0
 52137  1  0  0  0
 53 54  1  0  0  0
 54 55  2  0  0  0
 54138  1  0  0  0
 55 57  1  0  0  0
 55139  1  0  0  0
 56 69  2  0  0  0
 57 58  2  0  0  0
 57140  1  0  0  0
 58141  1  0  0  0
 59 60  1  0  0  0
 59 61  1  0  0  0
 59 62  1  0  0  0
 60142  1  0  0  0
 60143  1  0  0  0
 60144  1  0  0  0
 61145  1  0  0  0
 61146  1  0  0  0
 61147  1  0  0  0
 62148  1  0  0  0
 62149  1  0  0  0
 62150  1  0  0  0
 63 65  1  0  0  0
 63151  1  0  0  0
 63152  1  0  0  0
 63153  1  0  0  0
 64154  1  0  0  0
 65155  1  0  0  0
 68 92  1  0  0  0
 71 74  2  0  0  0
 71 78  1  0  0  0
 71156  1  0  0  0
 72 75  1  0  0  0
 72 78  2  0  0  0
 72157  1  0  0  0
 73 76  2  0  0  0
 73 79  1  0  0  0
 73158  1  0  0  0
 74 80  1  0  0  0
 74159  1  0  0  0
 75 80  2  0  0  0
 75160  1  0  0  0
 76 81  1  0  0  0
 76161  1  0  0  0
 77 81  2  0  0  0
 77 82  1  0  0  0
 77162  1  0  0  0
 78 87  1  0  0  0
 79 82  2  0  0  0
 79 88  1  0  0  0
 80 93  1  0  0  0
 81 94  1  0  0  0
 82 96  1  0  0  0
 83 90  1  0  0  0
 83163  1  0  0  0
 83164  1  0  0  0
 83165  1  0  0  0
 84166  1  0  0  0
 84167  1  0  0  0
 84168  1  0  0  0
 84 92  1  0  0  0
 85 93  1  0  0  0
 85169  1  0  0  0
 85170  1  0  0  0
 85171  1  0  0  0
 86 95  1  0  0  0
 86172  1  0  0  0
 86173  1  0  0  0
 86174  1  0  0  0
 87 95  1  0  0  0
 87175  1  0  0  0
 87176  1  0  0  0
 88 93  1  0  0  0
 88177  1  0  0  0
 88178  1  0  0  0
 89 91  1  0  0  0
 89 92  1  0  0  0
 89179  1  0  0  0
 89180  1  0  0  0
 90 94  1  0  0  0
 90181  1  0  0  0
 90182  1  0  0  0
 91 94  1  0  0  0
 91183  1  0  0  0
 91184  1  0  0  0
 92185  1  0  0  0
M  ISO  4   1 100  68 101  92 101  95 100
M  END
> <chiral flag>
0

> <version>
0

> <s_m_source_file>
/data/baiqing/PycharmProjects/Reinvent-master-3.2/result/LINK_invent/BTK/process_docking_weight1_custom_product_contain_oxygen_bond_distance_aromatic_linkinvent_7_9_3/rearranged_h_0015.sdf

> <i_m_source_file_index>
85

> <r_mmod_Potential_Energy-OPLS-2005>
134.164703369141

> <r_mmod_Stretch_Energy-OPLS-2005>
38.7849082946777

> <r_mmod_Bend_Energy-OPLS-2005>
117.907707214355

> <r_mmod_Torsional_Energy-OPLS-2005>
315.451995849609

> <r_mmod_Improper_Torsional_Energy-OPLS-2005>
8.27547454833984

> <r_mmod_Van_der_Waal_Energy-OPLS-2005>
173.398361206055

> <r_mmod_Electrostatic_Energy-OPLS-2005>
-308.247497558594

> <r_mmod_Solvation_Energy-OPLS-2005>
-219.861450195312

> <b_mmod_Minimization_Converged-OPLS-2005>
0

> <r_mmod_RMS_Derivative-OPLS-2005>
3.66420006752014

$$$$
85
                    3D
 Structure written by MMmdl.
162170  0  0  1  0            999 V2000
  -30.7848  -14.3970   20.6747 C   0  0  0  0  0  0
  -30.4146  -12.3152   19.3903 C   0  0  0  0  0  0
  -29.4738  -12.5297   18.1902 C   0  0  0  0  0  0
  -28.0035  -12.3709   18.6132 C   0  0  0  0  0  0
  -27.6594  -13.1961   19.8777 C   0  0  2  0  0  0
  -28.7047  -12.9747   20.9905 C   0  0  0  0  0  0
  -25.2607  -13.8148   20.5692 C   0  0  0  0  0  0
  -24.1840  -13.0442   20.9170 C   0  0  0  0  0  0
  -24.6383  -11.6897   20.8744 C   0  0  0  0  0  0
  -23.9057  -10.4291   21.0404 C   0  0  0  0  0  0
  -24.3616   -9.4205   21.9184 C   0  0  0  0  0  0
  -23.6294   -8.2243   22.0753 C   0  0  0  0  0  0
  -22.4278   -8.0286   21.3535 C   0  0  0  0  0  0
  -21.9903   -9.0271   20.4645 C   0  0  0  0  0  0
  -22.7233  -10.2146   20.3054 C   0  0  0  0  0  0
  -21.6862   -6.0749   22.5278 C   0  0  0  0  0  0
  -21.4013   -6.5646   23.8210 C   0  0  0  0  0  0
  -21.3640   -5.6789   24.9164 C   0  0  0  0  0  0
  -21.6054   -4.3056   24.7215 C   0  0  0  0  0  0
  -21.8815   -3.8151   23.4332 C   0  0  0  0  0  0
  -21.9192   -4.6976   22.3396 C   0  0  0  0  0  0
  -22.7876  -13.5246   21.1838 C   0  0  0  0  0  0
  -22.1665   -4.2165   21.0974 F   0  0  0  0  0  0
  -21.5619   -3.4536   25.7727 F   0  0  0  0  0  0
  -30.0467  -13.2712   20.4492 N   0  0  0  0  0  0
  -26.3021  -12.9279   20.3411 N   0  0  0  0  0  0
  -25.9305  -11.6452   20.5817 N   0  0  0  0  0  0
  -22.0515  -12.8255   22.0399 N   0  0  0  0  0  0
  -25.4347  -15.1871   20.4092 N   0  0  0  0  0  0
  -31.8221  -14.6467   20.0509 O   0  0  0  0  0  0
  -21.6629   -6.8893   21.4241 O   0  0  0  0  0  0
  -22.3563  -14.5553   20.6682 O   0  0  0  0  0  0
  -24.6115  -31.8717   23.2109 C   0  0  0  0  0  0
  -25.9024  -32.4840   23.8409 C   0  0  1  0  0  0
  -27.2408  -27.4583   20.0911 C   0  0  0  0  0  0
  -25.5889  -33.8633   24.2338 N   0  0  0  0  0  0
  -23.3998  -30.4923   21.5523 C   0  0  2  0  0  0
  -24.8492  -28.9588   20.1194 C   0  0  0  0  0  0
  -22.7403  -29.4676   22.5023 C   0  0  0  0  0  0
  -18.0281  -28.1353   22.8513 C   0  0  0  0  0  0
  -24.1483  -36.7312   23.2633 C   0  0  0  0  0  0
  -25.9270  -30.8409   21.3652 C   0  0  0  0  0  0
  -26.0066  -29.4738   20.7188 C   0  0  0  0  0  0
  -27.2062  -28.7282   20.7111 C   0  0  0  0  0  0
  -26.0749  -26.9596   19.4802 C   0  0  0  0  0  0
  -24.8769  -27.6969   19.5004 C   0  0  0  0  0  0
  -23.6079  -29.8203   20.1686 C   0  0  0  0  0  0
  -25.4095  -36.3111   24.0351 C   0  0  1  0  0  0
  -20.5867  -28.3646   23.1327 C   0  0  2  0  0  0
  -20.6770  -26.9385   22.5420 C   0  0  0  0  0  0
  -19.5749  -26.6366   21.5218 C   0  0  0  0  0  0
  -18.1927  -26.7911   22.1622 C   0  0  0  0  0  0
  -19.1527  -28.8818   23.2921 C   0  0  0  0  0  0
  -18.9451  -30.1428   23.8916 C   0  0  0  0  0  0
  -17.6452  -30.6564   24.0548 C   0  0  0  0  0  0
  -25.9037  -34.9485   23.5144 C   0  0  0  0  0  0
  -16.5347  -29.9058   23.6308 C   0  0  0  0  0  0
  -16.7273  -28.6467   23.0357 C   0  0  0  0  0  0
  -26.4450  -31.6611   25.0730 C   0  0  0  0  0  0
  -25.3724  -31.3711   26.1488 C   0  0  0  0  0  0
  -27.0294  -30.3063   24.6094 C   0  0  0  0  0  0
  -27.6029  -32.4326   25.7483 C   0  0  0  0  0  0
  -27.5605  -37.1767   24.8440 C   0  0  0  0  0  0
  -21.4141  -29.3019   22.3741 N   0  0  0  0  0  0
  -26.4264  -37.3813   23.9462 N   0  0  0  0  0  0
  -24.6643  -31.0824   22.1012 N   0  0  0  0  0  0
  -23.4184  -28.8240   23.3078 O   0  0  0  0  0  0
  -28.3755  -26.6845   20.0212 O   0  0  0  0  0  0
  -26.5592  -34.8932   22.4700 O   0  0  0  0  0  0
  -23.5304  -32.1478   23.7496 O   0  0  0  0  0  0
  -30.7087  -18.9796   22.1827 C   0  0  0  0  0  0
  -30.7379  -17.5822   22.3683 C   0  0  0  0  0  0
  -29.7202  -18.6542   19.9971 C   0  0  0  0  0  0
  -30.1989  -19.5282   20.9911 C   0  0  0  0  0  0
  -30.2719  -16.6811   21.3711 C   0  0  0  0  0  0
  -29.7529  -17.2542   20.1669 C   0  0  0  0  0  0
  -30.4841  -14.7931   23.0145 C   0  0  0  0  0  0
  -30.1619  -21.0379   20.7703 C   0  0  0  0  0  0
  -28.7563  -23.9327   22.2441 C   0  0  0  0  0  0
  -28.1606  -25.3494   22.0850 C   0  0  0  0  0  0
  -28.6728  -23.0495   20.9818 C   0  0  0  0  0  0
  -29.0031  -26.3506   21.2582 C   0  0  0  0  0  0
  -30.3369  -15.2549   21.6223 N   0  0  0  0  0  0
  -28.9074  -21.6179   21.2902 N   0  3  0  0  0  0
  -29.1041  -16.3295   18.8578 Cl  0  0  0  0  0  0
  -31.4528  -12.4201   19.0690 H   0  0  0  0  0  0
  -30.3268  -11.2954   19.7668 H   0  0  0  0  0  0
  -29.7070  -11.8205   17.3954 H   0  0  0  0  0  0
  -29.6297  -13.5233   17.7663 H   0  0  0  0  0  0
  -27.8204  -11.3127   18.8031 H   0  0  0  0  0  0
  -27.3423  -12.6520   17.7927 H   0  0  0  0  0  0
  -27.6921  -14.2438   19.5967 H   0  0  0  0  0  0
  -28.6783  -11.9423   21.3406 H   0  0  0  0  0  0
  -28.4379  -13.5838   21.8532 H   0  0  0  0  0  0
  -25.2767   -9.5688   22.4745 H   0  0  0  0  0  0
  -24.0009   -7.4634   22.7463 H   0  0  0  0  0  0
  -21.0830   -8.8793   19.8959 H   0  0  0  0  0  0
  -22.3698  -10.9685   19.6163 H   0  0  0  0  0  0
  -21.2007   -7.6150   23.9725 H   0  0  0  0  0  0
  -21.1463   -6.0512   25.9071 H   0  0  0  0  0  0
  -22.0613   -2.7618   23.2824 H   0  0  0  0  0  0
  -22.4142  -11.9915   22.4781 H   0  0  0  0  0  0
  -21.1144  -13.1286   22.2631 H   0  0  0  0  0  0
  -24.6713  -15.8474   20.5147 H   0  0  0  0  0  0
  -26.2985  -15.6210   20.1069 H   0  0  0  0  0  0
  -26.7114  -32.5557   23.1192 H   0  0  0  0  0  0
  -25.0054  -33.9815   25.0494 H   0  0  0  0  0  0
  -22.6883  -31.3085   21.4118 H   0  0  0  0  0  0
  -23.3769  -35.9613   23.3217 H   0  0  0  0  0  0
  -24.3623  -36.8994   22.2066 H   0  0  0  0  0  0
  -23.7183  -37.6476   23.6687 H   0  0  0  0  0  0
  -26.0402  -31.6043   20.5944 H   0  0  0  0  0  0
  -26.8136  -30.8947   21.9849 H   0  0  0  0  0  0
  -28.1008  -29.1350   21.1615 H   0  0  0  0  0  0
  -26.0933  -25.9946   18.9930 H   0  0  0  0  0  0
  -23.9914  -27.2949   19.0286 H   0  0  0  0  0  0
  -23.7117  -30.5934   19.4073 H   0  0  0  0  0  0
  -22.7319  -29.2378   19.8739 H   0  0  0  0  0  0
  -25.1246  -36.1970   25.0838 H   0  0  0  0  0  0
  -20.9974  -28.3209   24.1443 H   0  0  0  0  0  0
  -20.5682  -26.2251   23.3609 H   0  0  0  0  0  0
  -21.6639  -26.7452   22.1193 H   0  0  0  0  0  0
  -19.6909  -25.6289   21.1217 H   0  0  0  0  0  0
  -19.6667  -27.3194   20.6762 H   0  0  0  0  0  0
  -17.4207  -26.6701   21.4008 H   0  0  0  0  0  0
  -18.0312  -26.0033   22.8989 H   0  0  0  0  0  0
  -19.7932  -30.7240   24.2284 H   0  0  0  0  0  0
  -17.5007  -31.6256   24.5125 H   0  0  0  0  0  0
  -15.5344  -30.2949   23.7611 H   0  0  0  0  0  0
  -15.8691  -28.0762   22.7064 H   0  0  0  0  0  0
  -24.5887  -30.7067   25.7825 H   0  0  0  0  0  0
  -24.8927  -32.2863   26.4964 H   0  0  0  0  0  0
  -25.8076  -30.8861   27.0235 H   0  0  0  0  0  0
  -26.2849  -29.6820   24.1137 H   0  0  0  0  0  0
  -27.4081  -29.7288   25.4537 H   0  0  0  0  0  0
  -27.8667  -30.4402   23.9243 H   0  0  0  0  0  0
  -27.2662  -33.3612   26.2096 H   0  0  0  0  0  0
  -28.3806  -32.6910   25.0289 H   0  0  0  0  0  0
  -28.0744  -31.8447   26.5368 H   0  0  0  0  0  0
  -28.2488  -38.0194   24.7678 H   0  0  0  0  0  0
  -28.1229  -36.2745   24.5986 H   0  0  0  0  0  0
  -27.2381  -37.1065   25.8843 H   0  0  0  0  0  0
  -20.9311  -29.8727   21.6948 H   0  0  0  0  0  0
  -26.0147  -38.2864   24.1565 H   0  0  0  0  0  0
  -31.0908  -19.6250   22.9621 H   0  0  0  0  0  0
  -31.1475  -17.2266   23.3023 H   0  0  0  0  0  0
  -29.3187  -19.0550   19.0775 H   0  0  0  0  0  0
  -29.7331  -15.2593   23.6543 H   0  0  0  0  0  0
  -31.4744  -15.0370   23.4023 H   0  0  0  0  0  0
  -30.3686  -13.7125   23.1248 H   0  0  0  0  0  0
  -30.2469  -21.2430   19.7020 H   0  0  0  0  0  0
  -31.0210  -21.5075   21.2504 H   0  0  0  0  0  0
  -28.2057  -23.4420   23.0481 H   0  0  0  0  0  0
  -29.7880  -23.9968   22.5904 H   0  0  0  0  0  0
  -27.1457  -25.2733   21.6933 H   0  0  0  0  0  0
  -28.0443  -25.7728   23.0834 H   0  0  0  0  0  0
  -29.3520  -23.4109   20.2080 H   0  0  0  0  0  0
  -27.6728  -23.1221   20.5534 H   0  0  0  0  0  0
  -29.2183  -27.2475   21.8403 H   0  0  0  0  0  0
  -29.9765  -25.9179   21.0247 H   0  0  0  0  0  0
  -28.8753  -21.4770   22.2854 H   0  0  0  0  0  0
  -28.1458  -21.0904   20.8958 H   0  0  0  0  0  0
  1 25  1  0  0  0
  1 30  2  0  0  0
  1 83  1  0  0  0
  2  3  1  0  0  0
  2 25  1  0  0  0
  2 86  1  0  0  0
  2 87  1  0  0  0
  3  4  1  0  0  0
  3 88  1  0  0  0
  3 89  1  0  0  0
  4  5  1  0  0  0
  4 90  1  0  0  0
  4 91  1  0  0  0
  5  6  1  0  0  0
  5 26  1  0  0  0
  5 92  1  0  0  0
  6 25  1  0  0  0
  6 93  1  0  0  0
  6 94  1  0  0  0
  7  8  2  0  0  0
  7 26  1  0  0  0
  7 29  1  0  0  0
  8  9  1  0  0  0
  8 22  1  0  0  0
  9 10  1  0  0  0
  9 27  2  0  0  0
 10 11  2  0  0  0
 10 15  1  0  0  0
 11 12  1  0  0  0
 11 95  1  0  0  0
 12 13  2  0  0  0
 12 96  1  0  0  0
 13 14  1  0  0  0
 13 31  1  0  0  0
 14 15  2  0  0  0
 14 97  1  0  0  0
 15 98  1  0  0  0
 16 17  2  0  0  0
 16 21  1  0  0  0
 16 31  1  0  0  0
 17 18  1  0  0  0
 17 99  1  0  0  0
 18 19  2  0  0  0
 18100  1  0  0  0
 19 20  1  0  0  0
 19 24  1  0  0  0
 20 21  2  0  0  0
 20101  1  0  0  0
 21 23  1  0  0  0
 22 28  1  0  0  0
 22 32  2  0  0  0
 26 27  1  0  0  0
 28102  1  0  0  0
 28103  1  0  0  0
 29104  1  0  0  0
 29105  1  0  0  0
 33 34  1  0  0  0
 33 66  1  0  0  0
 33 70  2  0  0  0
 34 36  1  0  0  0
 34 59  1  0  0  0
 34106  1  0  0  0
 35 44  2  0  0  0
 35 45  1  0  0  0
 35 68  1  0  0  0
 36 56  1  0  0  0
 36107  1  0  0  0
 37 39  1  0  0  0
 37 47  1  0  0  0
 37 66  1  0  0  0
 37108  1  0  0  0
 38 43  2  0  0  0
 38 46  1  0  0  0
 38 47  1  0  0  0
 39 64  1  0  0  0
 39 67  2  0  0  0
 40 52  1  0  0  0
 40 53  2  0  0  0
 40 58  1  0  0  0
 41109  1  0  0  0
 41110  1  0  0  0
 41111  1  0  0  0
 41 48  1  0  0  0
 42 43  1  0  0  0
 42 66  1  0  0  0
 42112  1  0  0  0
 42113  1  0  0  0
 43 44  1  0  0  0
 44114  1  0  0  0
 45 46  2  0  0  0
 45115  1  0  0  0
 46116  1  0  0  0
 47117  1  0  0  0
 47118  1  0  0  0
 48 56  1  0  0  0
 48 65  1  0  0  0
 48119  1  0  0  0
 49 50  1  0  0  0
 49 53  1  0  0  0
 49 64  1  0  0  0
 49120  1  0  0  0
 50 51  1  0  0  0
 50121  1  0  0  0
 50122  1  0  0  0
 51 52  1  0  0  0
 51123  1  0  0  0
 51124  1  0  0  0
 52125  1  0  0  0
 52126  1  0  0  0
 53 54  1  0  0  0
 54 55  2  0  0  0
 54127  1  0  0  0
 55 57  1  0  0  0
 55128  1  0  0  0
 56 69  2  0  0  0
 57 58  2  0  0  0
 57129  1  0  0  0
 58130  1  0  0  0
 59 60  1  0  0  0
 59 61  1  0  0  0
 59 62  1  0  0  0
 60131  1  0  0  0
 60132  1  0  0  0
 60133  1  0  0  0
 61134  1  0  0  0
 61135  1  0  0  0
 61136  1  0  0  0
 62137  1  0  0  0
 62138  1  0  0  0
 62139  1  0  0  0
 63 65  1  0  0  0
 63140  1  0  0  0
 63141  1  0  0  0
 63142  1  0  0  0
 64143  1  0  0  0
 65144  1  0  0  0
 68 82  1  0  0  0
 71 72  2  0  0  0
 71 74  1  0  0  0
 71145  1  0  0  0
 72 75  1  0  0  0
 72146  1  0  0  0
 73 74  2  0  0  0
 73 76  1  0  0  0
 73147  1  0  0  0
 74 78  1  0  0  0
 75 76  2  0  0  0
 75 83  1  0  0  0
 76 85  1  0  0  0
 77 83  1  0  0  0
 77148  1  0  0  0
 77149  1  0  0  0
 77150  1  0  0  0
 78 84  1  0  0  0
 78151  1  0  0  0
 78152  1  0  0  0
 79 80  1  0  0  0
 79 81  1  0  0  0
 79153  1  0  0  0
 79154  1  0  0  0
 80 82  1  0  0  0
 80155  1  0  0  0
 80156  1  0  0  0
 81 84  1  0  0  0
 81157  1  0  0  0
 81158  1  0  0  0
 82159  1  0  0  0
 82160  1  0  0  0
 84161  1  0  0  0
 84162  1  0  0  0
M  CHG  1  84   1
M  ISO  4   1 100  68 101  82 101  83 100
M  END
> <chiral flag>
0

> <version>
0

> <s_m_source_file>
/data/baiqing/PycharmProjects/Reinvent-master-3.2/result/LINK_invent/BTK/process_docking_weight1_custom_product_contain_oxygen_bond_distance_aromatic_linkinvent_7_9_3/rearranged_h_0015.sdf

> <i_m_source_file_index>
86

> <r_mmod_Potential_Energy-OPLS-2005>
-94.452995300293

> <r_mmod_Stretch_Energy-OPLS-2005>
39.5228462219238

> <r_mmod_Bend_Energy-OPLS-2005>
102.235557556152

> <r_mmod_Torsional_Energy-OPLS-2005>
304.45556640625

> <r_mmod_Improper_Torsional_Energy-OPLS-2005>
3.13490557670593

> <r_mmod_Van_der_Waal_Energy-OPLS-2005>
157.097946166992

> <r_mmod_Electrostatic_Energy-OPLS-2005>
-250.199371337891

> <r_mmod_Solvation_Energy-OPLS-2005>
-458.606353759766

> <b_mmod_Minimization_Converged-OPLS-2005>
0

> <r_mmod_RMS_Derivative-OPLS-2005>
2.30440020561218

$$$$
86
                    3D
 Structure written by MMmdl.
162170  0  0  1  0            999 V2000
  -30.7508  -14.4313   20.6768 C   0  0  0  0  0  0
  -30.4185  -12.3183   19.4233 C   0  0  0  0  0  0
  -29.4921  -12.5176   18.2074 C   0  0  0  0  0  0
  -28.0163  -12.3576   18.6176 C   0  0  0  0  0  0
  -27.6584  -13.2047   19.8652 C   0  0  2  0  0  0
  -28.6899  -12.9882   20.9912 C   0  0  0  0  0  0
  -25.2586  -13.8154   20.5653 C   0  0  0  0  0  0
  -24.1834  -13.0446   20.9157 C   0  0  0  0  0  0
  -24.6373  -11.6911   20.8705 C   0  0  0  0  0  0
  -23.9033  -10.4306   21.0404 C   0  0  0  0  0  0
  -24.3594   -9.4224   21.9185 C   0  0  0  0  0  0
  -23.6274   -8.2254   22.0756 C   0  0  0  0  0  0
  -22.4256   -8.0281   21.3547 C   0  0  0  0  0  0
  -21.9879   -9.0253   20.4652 C   0  0  0  0  0  0
  -22.7201  -10.2137   20.3060 C   0  0  0  0  0  0
  -21.6848   -6.0725   22.5280 C   0  0  0  0  0  0
  -21.4013   -6.5635   23.8212 C   0  0  0  0  0  0
  -21.3664   -5.6788   24.9180 C   0  0  0  0  0  0
  -21.6044   -4.3049   24.7228 C   0  0  0  0  0  0
  -21.8820   -3.8138   23.4350 C   0  0  0  0  0  0
  -21.9193   -4.6953   22.3404 C   0  0  0  0  0  0
  -22.7868  -13.5267   21.1834 C   0  0  0  0  0  0
  -22.1669   -4.2140   21.0979 F   0  0  0  0  0  0
  -21.5624   -3.4533   25.7745 F   0  0  0  0  0  0
  -30.0349  -13.2873   20.4646 N   0  0  0  0  0  0
  -26.2996  -12.9314   20.3271 N   0  0  0  0  0  0
  -25.9285  -11.6479   20.5691 N   0  0  0  0  0  0
  -22.0504  -12.8277   22.0401 N   0  0  0  0  0  0
  -25.4331  -15.1870   20.4081 N   0  0  0  0  0  0
  -31.7800  -14.6886   20.0424 O   0  0  0  0  0  0
  -21.6630   -6.8870   21.4244 O   0  0  0  0  0  0
  -22.3570  -14.5589   20.6699 O   0  0  0  0  0  0
  -24.6174  -31.8680   23.2096 C   0  0  0  0  0  0
  -25.9066  -32.4820   23.8391 C   0  0  1  0  0  0
  -27.2314  -27.4183   20.0857 C   0  0  0  0  0  0
  -25.5914  -33.8616   24.2325 N   0  0  0  0  0  0
  -23.4048  -30.4937   21.5509 C   0  0  2  0  0  0
  -24.8483  -28.9592   20.1157 C   0  0  0  0  0  0
  -22.7424  -29.4673   22.4984 C   0  0  0  0  0  0
  -18.0276  -28.1381   22.8493 C   0  0  0  0  0  0
  -24.1488  -36.7306   23.2641 C   0  0  0  0  0  0
  -25.9372  -30.8276   21.3660 C   0  0  0  0  0  0
  -26.0119  -29.4623   20.7097 C   0  0  0  0  0  0
  -27.2056  -28.7003   20.6897 C   0  0  0  0  0  0
  -26.0390  -26.9331   19.4958 C   0  0  0  0  0  0
  -24.8575  -27.6944   19.5081 C   0  0  0  0  0  0
  -23.6131  -29.8297   20.1647 C   0  0  0  0  0  0
  -25.4112  -36.3108   24.0339 C   0  0  1  0  0  0
  -20.5870  -28.3675   23.1310 C   0  0  2  0  0  0
  -20.6769  -26.9410   22.5415 C   0  0  0  0  0  0
  -19.5745  -26.6392   21.5213 C   0  0  0  0  0  0
  -18.1924  -26.7927   22.1626 C   0  0  0  0  0  0
  -19.1530  -28.8844   23.2898 C   0  0  0  0  0  0
  -18.9455  -30.1446   23.8913 C   0  0  0  0  0  0
  -17.6459  -30.6589   24.0567 C   0  0  0  0  0  0
  -25.9036  -34.9475   23.5131 C   0  0  0  0  0  0
  -16.5348  -29.9091   23.6322 C   0  0  0  0  0  0
  -16.7269  -28.6507   23.0349 C   0  0  0  0  0  0
  -26.4481  -31.6600   25.0725 C   0  0  0  0  0  0
  -25.3743  -31.3716   26.1473 C   0  0  0  0  0  0
  -27.0313  -30.3040   24.6113 C   0  0  0  0  0  0
  -27.6059  -32.4322   25.7481 C   0  0  0  0  0  0
  -27.5578  -37.1816   24.8474 C   0  0  0  0  0  0
  -21.4153  -29.3045   22.3721 N   0  0  0  0  0  0
  -26.4299  -37.3790   23.9403 N   0  0  0  0  0  0
  -24.6714  -31.0774   22.1002 N   0  0  0  0  0  0
  -23.4195  -28.8212   23.3026 O   0  0  0  0  0  0
  -28.4075  -26.6838   20.0890 O   0  0  0  0  0  0
  -26.5597  -34.8929   22.4690 O   0  0  0  0  0  0
  -23.5362  -32.1439   23.7484 O   0  0  0  0  0  0
  -28.7898  -18.7302   21.4420 C   0  0  0  0  0  0
  -28.9039  -17.3193   21.4503 C   0  0  0  0  0  0
  -31.3227  -17.5163   21.3350 C   0  0  0  0  0  0
  -29.9430  -19.5508   21.4160 C   0  0  0  0  0  0
  -30.1736  -16.6963   21.4162 C   0  0  0  0  0  0
  -31.2092  -18.9246   21.3386 C   0  0  0  0  0  0
  -30.3486  -14.8720   23.0343 C   0  0  0  0  0  0
  -30.7433  -21.6531   19.4068 C   0  0  0  0  0  0
  -29.8396  -21.0727   21.6480 C   0  0  0  0  0  0
  -29.7077  -24.5688   19.8680 C   0  0  0  0  0  0
  -29.8374  -23.4244   20.9280 C   0  0  0  0  0  0
  -28.3344  -25.2807   19.7619 C   0  0  0  0  0  0
  -30.2838  -15.2836   21.6280 N   0  0  0  0  0  0
  -29.7577  -21.9930   20.4655 N   0  3  1  0  0  0
  -32.3342  -19.6785   21.3167 F   0  0  0  0  0  0
  -31.4646  -12.4127   19.1247 H   0  0  0  0  0  0
  -30.3197  -11.3059   19.8168 H   0  0  0  0  0  0
  -29.7383  -11.7994   17.4243 H   0  0  0  0  0  0
  -29.6511  -13.5071   17.7772 H   0  0  0  0  0  0
  -27.8435  -11.3003   18.8278 H   0  0  0  0  0  0
  -27.3602  -12.6153   17.7855 H   0  0  0  0  0  0
  -27.7060  -14.2510   19.5640 H   0  0  0  0  0  0
  -28.6603  -11.9570   21.3470 H   0  0  0  0  0  0
  -28.4074  -13.5974   21.8472 H   0  0  0  0  0  0
  -25.2744   -9.5700   22.4745 H   0  0  0  0  0  0
  -23.9990   -7.4648   22.7471 H   0  0  0  0  0  0
  -21.0803   -8.8763   19.8966 H   0  0  0  0  0  0
  -22.3651  -10.9669   19.6163 H   0  0  0  0  0  0
  -21.2011   -7.6144   23.9715 H   0  0  0  0  0  0
  -21.1481   -6.0518   25.9080 H   0  0  0  0  0  0
  -22.0590   -2.7597   23.2849 H   0  0  0  0  0  0
  -22.4102  -11.9929   22.4789 H   0  0  0  0  0  0
  -21.1141  -13.1337   22.2635 H   0  0  0  0  0  0
  -24.6657  -15.8415   20.5082 H   0  0  0  0  0  0
  -26.2811  -15.6186   20.0629 H   0  0  0  0  0  0
  -26.7140  -32.5523   23.1150 H   0  0  0  0  0  0
  -25.0080  -33.9773   25.0484 H   0  0  0  0  0  0
  -22.6940  -31.3114   21.4128 H   0  0  0  0  0  0
  -23.3741  -35.9652   23.3339 H   0  0  0  0  0  0
  -24.3576  -36.8881   22.2048 H   0  0  0  0  0  0
  -23.7257  -37.6531   23.6625 H   0  0  0  0  0  0
  -26.0564  -31.5967   20.6013 H   0  0  0  0  0  0
  -26.8223  -30.8756   21.9884 H   0  0  0  0  0  0
  -28.1048  -29.0886   21.1474 H   0  0  0  0  0  0
  -25.9910  -25.9681   19.0143 H   0  0  0  0  0  0
  -23.9616  -27.3004   19.0484 H   0  0  0  0  0  0
  -23.7269  -30.6057   19.4064 H   0  0  0  0  0  0
  -22.7347  -29.2538   19.8660 H   0  0  0  0  0  0
  -25.1292  -36.1976   25.0832 H   0  0  0  0  0  0
  -20.9957  -28.3244   24.1433 H   0  0  0  0  0  0
  -20.5678  -26.2287   23.3607 H   0  0  0  0  0  0
  -21.6640  -26.7460   22.1205 H   0  0  0  0  0  0
  -19.6905  -25.6307   21.1236 H   0  0  0  0  0  0
  -19.6672  -27.3211   20.6750 H   0  0  0  0  0  0
  -17.4192  -26.6682   21.4026 H   0  0  0  0  0  0
  -18.0317  -26.0068   22.9021 H   0  0  0  0  0  0
  -19.7932  -30.7255   24.2294 H   0  0  0  0  0  0
  -17.5016  -31.6269   24.5167 H   0  0  0  0  0  0
  -15.5351  -30.3000   23.7634 H   0  0  0  0  0  0
  -15.8668  -28.0830   22.7054 H   0  0  0  0  0  0
  -24.5909  -30.7069   25.7808 H   0  0  0  0  0  0
  -24.8943  -32.2878   26.4921 H   0  0  0  0  0  0
  -25.8096  -30.8881   27.0228 H   0  0  0  0  0  0
  -26.2863  -29.6798   24.1165 H   0  0  0  0  0  0
  -27.4077  -29.7277   25.4574 H   0  0  0  0  0  0
  -27.8698  -30.4350   23.9271 H   0  0  0  0  0  0
  -27.2677  -33.3608   26.2088 H   0  0  0  0  0  0
  -28.3844  -32.6907   25.0292 H   0  0  0  0  0  0
  -28.0753  -31.8433   26.5369 H   0  0  0  0  0  0
  -28.2633  -38.0076   24.7478 H   0  0  0  0  0  0
  -28.1036  -36.2610   24.6353 H   0  0  0  0  0  0
  -27.2291  -37.1536   25.8878 H   0  0  0  0  0  0
  -20.9319  -29.8767   21.6940 H   0  0  0  0  0  0
  -26.0192  -38.2878   24.1368 H   0  0  0  0  0  0
  -27.8089  -19.1764   21.5257 H   0  0  0  0  0  0
  -28.0122  -16.7145   21.5412 H   0  0  0  0  0  0
  -32.3064  -17.0707   21.3292 H   0  0  0  0  0  0
  -29.4658  -15.2229   23.5693 H   0  0  0  0  0  0
  -31.2268  -15.3027   23.5175 H   0  0  0  0  0  0
  -30.4011  -13.7891   23.1636 H   0  0  0  0  0  0
  -30.6524  -20.6133   19.0950 H   0  0  0  0  0  0
  -31.7646  -21.8154   19.7525 H   0  0  0  0  0  0
  -30.5941  -22.2372   18.5018 H   0  0  0  0  0  0
  -30.7044  -21.3579   22.2493 H   0  0  0  0  0  0
  -28.9763  -21.2564   22.2889 H   0  0  0  0  0  0
  -30.0267  -24.2546   18.8772 H   0  0  0  0  0  0
  -30.4376  -25.3333   20.1384 H   0  0  0  0  0  0
  -29.1082  -23.5913   21.7220 H   0  0  0  0  0  0
  -30.8088  -23.5460   21.4107 H   0  0  0  0  0  0
  -27.5977  -24.7883   20.3998 H   0  0  0  0  0  0
  -27.9903  -25.1713   18.7323 H   0  0  0  0  0  0
  -28.8424  -21.8507   20.0641 H   0  0  0  0  0  0
  1 25  1  0  0  0
  1 30  2  0  0  0
  1 83  1  0  0  0
  2  3  1  0  0  0
  2 25  1  0  0  0
  2 86  1  0  0  0
  2 87  1  0  0  0
  3  4  1  0  0  0
  3 88  1  0  0  0
  3 89  1  0  0  0
  4  5  1  0  0  0
  4 90  1  0  0  0
  4 91  1  0  0  0
  5  6  1  0  0  0
  5 26  1  0  0  0
  5 92  1  0  0  0
  6 25  1  0  0  0
  6 93  1  0  0  0
  6 94  1  0  0  0
  7  8  2  0  0  0
  7 26  1  0  0  0
  7 29  1  0  0  0
  8  9  1  0  0  0
  8 22  1  0  0  0
  9 10  1  0  0  0
  9 27  2  0  0  0
 10 11  2  0  0  0
 10 15  1  0  0  0
 11 12  1  0  0  0
 11 95  1  0  0  0
 12 13  2  0  0  0
 12 96  1  0  0  0
 13 14  1  0  0  0
 13 31  1  0  0  0
 14 15  2  0  0  0
 14 97  1  0  0  0
 15 98  1  0  0  0
 16 17  2  0  0  0
 16 21  1  0  0  0
 16 31  1  0  0  0
 17 18  1  0  0  0
 17 99  1  0  0  0
 18 19  2  0  0  0
 18100  1  0  0  0
 19 20  1  0  0  0
 19 24  1  0  0  0
 20 21  2  0  0  0
 20101  1  0  0  0
 21 23  1  0  0  0
 22 28  1  0  0  0
 22 32  2  0  0  0
 26 27  1  0  0  0
 28102  1  0  0  0
 28103  1  0  0  0
 29104  1  0  0  0
 29105  1  0  0  0
 33 34  1  0  0  0
 33 66  1  0  0  0
 33 70  2  0  0  0
 34 36  1  0  0  0
 34 59  1  0  0  0
 34106  1  0  0  0
 35 44  2  0  0  0
 35 45  1  0  0  0
 35 68  1  0  0  0
 36 56  1  0  0  0
 36107  1  0  0  0
 37 39  1  0  0  0
 37 47  1  0  0  0
 37 66  1  0  0  0
 37108  1  0  0  0
 38 43  2  0  0  0
 38 46  1  0  0  0
 38 47  1  0  0  0
 39 64  1  0  0  0
 39 67  2  0  0  0
 40 52  1  0  0  0
 40 53  2  0  0  0
 40 58  1  0  0  0
 41109  1  0  0  0
 41110  1  0  0  0
 41111  1  0  0  0
 41 48  1  0  0  0
 42 43  1  0  0  0
 42 66  1  0  0  0
 42112  1  0  0  0
 42113  1  0  0  0
 43 44  1  0  0  0
 44114  1  0  0  0
 45 46  2  0  0  0
 45115  1  0  0  0
 46116  1  0  0  0
 47117  1  0  0  0
 47118  1  0  0  0
 48 56  1  0  0  0
 48 65  1  0  0  0
 48119  1  0  0  0
 49 50  1  0  0  0
 49 53  1  0  0  0
 49 64  1  0  0  0
 49120  1  0  0  0
 50 51  1  0  0  0
 50121  1  0  0  0
 50122  1  0  0  0
 51 52  1  0  0  0
 51123  1  0  0  0
 51124  1  0  0  0
 52125  1  0  0  0
 52126  1  0  0  0
 53 54  1  0  0  0
 54 55  2  0  0  0
 54127  1  0  0  0
 55 57  1  0  0  0
 55128  1  0  0  0
 56 69  2  0  0  0
 57 58  2  0  0  0
 57129  1  0  0  0
 58130  1  0  0  0
 59 60  1  0  0  0
 59 61  1  0  0  0
 59 62  1  0  0  0
 60131  1  0  0  0
 60132  1  0  0  0
 60133  1  0  0  0
 61134  1  0  0  0
 61135  1  0  0  0
 61136  1  0  0  0
 62137  1  0  0  0
 62138  1  0  0  0
 62139  1  0  0  0
 63 65  1  0  0  0
 63140  1  0  0  0
 63141  1  0  0  0
 63142  1  0  0  0
 64143  1  0  0  0
 65144  1  0  0  0
 68 82  1  0  0  0
 71 72  2  0  0  0
 71 74  1  0  0  0
 71145  1  0  0  0
 72 75  1  0  0  0
 72146  1  0  0  0
 73 75  2  0  0  0
 73 76  1  0  0  0
 73147  1  0  0  0
 74 76  2  0  0  0
 74 79  1  0  0  0
 75 83  1  0  0  0
 76 85  1  0  0  0
 77 83  1  0  0  0
 77148  1  0  0  0
 77149  1  0  0  0
 77150  1  0  0  0
 78151  1  0  0  0
 78152  1  0  0  0
 78153  1  0  0  0
 78 84  1  0  0  0
 79 84  1  0  0  0
 79154  1  0  0  0
 79155  1  0  0  0
 80 81  1  0  0  0
 80 82  1  0  0  0
 80156  1  0  0  0
 80157  1  0  0  0
 81 84  1  0  0  0
 81158  1  0  0  0
 81159  1  0  0  0
 82160  1  0  0  0
 82161  1  0  0  0
 84162  1  0  0  0
M  CHG  1  84   1
M  ISO  4   1 100  68 101  82 101  83 100
M  END
> <chiral flag>
0

> <version>
0

> <s_m_source_file>
/data/baiqing/PycharmProjects/Reinvent-master-3.2/result/LINK_invent/BTK/process_docking_weight1_custom_product_contain_oxygen_bond_distance_aromatic_linkinvent_7_9_3/rearranged_h_0015.sdf

> <i_m_source_file_index>
87

> <r_mmod_Potential_Energy-OPLS-2005>
16.9234485626221

> <r_mmod_Stretch_Energy-OPLS-2005>
45.3173217773438

> <r_mmod_Bend_Energy-OPLS-2005>
113.375282287598

> <r_mmod_Torsional_Energy-OPLS-2005>
323.834411621094

> <r_mmod_Improper_Torsional_Energy-OPLS-2005>
4.42397308349609

> <r_mmod_Van_der_Waal_Energy-OPLS-2005>
159.398162841797

> <r_mmod_Electrostatic_Energy-OPLS-2005>
-212.675888061523

> <r_mmod_Solvation_Energy-OPLS-2005>
-428.038116455078

> <b_mmod_Minimization_Converged-OPLS-2005>
0

> <r_mmod_RMS_Derivative-OPLS-2005>
1.67622554302216

$$$$
87
                    3D
 Structure written by MMmdl.
178186  0  0  1  0            999 V2000
  -30.7293  -14.4184   20.5872 C   0  0  0  0  0  0
  -30.4212  -12.2795   19.4026 C   0  0  0  0  0  0
  -29.4819  -12.4549   18.1917 C   0  0  0  0  0  0
  -28.0029  -12.3500   18.6134 C   0  0  0  0  0  0
  -27.6596  -13.1975   19.8680 C   0  0  2  0  0  0
  -28.7040  -12.9738   20.9820 C   0  0  0  0  0  0
  -25.2612  -13.8161   20.5689 C   0  0  0  0  0  0
  -24.1845  -13.0449   20.9174 C   0  0  0  0  0  0
  -24.6380  -11.6910   20.8742 C   0  0  0  0  0  0
  -23.9045  -10.4299   21.0411 C   0  0  0  0  0  0
  -24.3602   -9.4215   21.9186 C   0  0  0  0  0  0
  -23.6286   -8.2247   22.0752 C   0  0  0  0  0  0
  -22.4270   -8.0283   21.3542 C   0  0  0  0  0  0
  -21.9901   -9.0255   20.4647 C   0  0  0  0  0  0
  -22.7219  -10.2141   20.3059 C   0  0  0  0  0  0
  -21.6852   -6.0736   22.5278 C   0  0  0  0  0  0
  -21.4013   -6.5640   23.8211 C   0  0  0  0  0  0
  -21.3660   -5.6793   24.9174 C   0  0  0  0  0  0
  -21.6044   -4.3054   24.7225 C   0  0  0  0  0  0
  -21.8820   -3.8147   23.4345 C   0  0  0  0  0  0
  -21.9192   -4.6964   22.3402 C   0  0  0  0  0  0
  -22.7872  -13.5262   21.1838 C   0  0  0  0  0  0
  -22.1662   -4.2149   21.0979 F   0  0  0  0  0  0
  -21.5630   -3.4538   25.7738 F   0  0  0  0  0  0
  -30.0314  -13.2659   20.4171 N   0  0  0  0  0  0
  -26.3022  -12.9304   20.3366 N   0  0  0  0  0  0
  -25.9301  -11.6474   20.5781 N   0  0  0  0  0  0
  -22.0505  -12.8252   22.0391 N   0  0  0  0  0  0
  -25.4391  -15.1872   20.4120 N   0  0  0  0  0  0
  -31.8849  -14.5797   20.1822 O   0  0  0  0  0  0
  -21.6638   -6.8878   21.4240 O   0  0  0  0  0  0
  -22.3562  -14.5568   20.6692 O   0  0  0  0  0  0
  -24.6109  -31.8712   23.2132 C   0  0  0  0  0  0
  -25.9022  -32.4835   23.8411 C   0  0  1  0  0  0
  -27.2360  -27.4668   20.0884 C   0  0  0  0  0  0
  -25.5888  -33.8631   24.2354 N   0  0  0  0  0  0
  -23.3955  -30.4944   21.5548 C   0  0  2  0  0  0
  -24.8389  -28.9609   20.1207 C   0  0  0  0  0  0
  -22.7394  -29.4659   22.5029 C   0  0  0  0  0  0
  -18.0263  -28.1362   22.8495 C   0  0  0  0  0  0
  -24.1481  -36.7327   23.2641 C   0  0  0  0  0  0
  -25.9201  -30.8467   21.3592 C   0  0  0  0  0  0
  -25.9964  -29.4817   20.7103 C   0  0  0  0  0  0
  -27.1953  -28.7417   20.6896 C   0  0  0  0  0  0
  -26.0570  -26.9473   19.5035 C   0  0  0  0  0  0
  -24.8615  -27.6906   19.5192 C   0  0  0  0  0  0
  -23.6001  -29.8252   20.1693 C   0  0  0  0  0  0
  -25.4097  -36.3126   24.0349 C   0  0  1  0  0  0
  -20.5851  -28.3637   23.1343 C   0  0  2  0  0  0
  -20.6751  -26.9382   22.5430 C   0  0  0  0  0  0
  -19.5738  -26.6378   21.5214 C   0  0  0  0  0  0
  -18.1911  -26.7915   22.1617 C   0  0  0  0  0  0
  -19.1512  -28.8819   23.2912 C   0  0  0  0  0  0
  -18.9443  -30.1427   23.8923 C   0  0  0  0  0  0
  -17.6447  -30.6576   24.0565 C   0  0  0  0  0  0
  -25.9024  -34.9485   23.5152 C   0  0  0  0  0  0
  -16.5338  -29.9078   23.6321 C   0  0  0  0  0  0
  -16.7257  -28.6491   23.0351 C   0  0  0  0  0  0
  -26.4465  -31.6601   25.0725 C   0  0  0  0  0  0
  -25.3752  -31.3681   26.1493 C   0  0  0  0  0  0
  -27.0296  -30.3055   24.6063 C   0  0  0  0  0  0
  -27.6054  -32.4311   25.7477 C   0  0  0  0  0  0
  -27.5581  -37.1815   24.8467 C   0  0  0  0  0  0
  -21.4130  -29.3017   22.3770 N   0  0  0  0  0  0
  -26.4293  -37.3802   23.9413 N   0  0  0  0  0  0
  -24.6607  -31.0837   22.1019 N   0  0  0  0  0  0
  -23.4197  -28.8178   23.3026 O   0  0  0  0  0  0
  -28.4478  -26.8158   20.0651 O   0  0  0  0  0  0
  -26.5584  -34.8933   22.4708 O   0  0  0  0  0  0
  -23.5312  -32.1458   23.7553 O   0  0  0  0  0  0
  -29.7209  -16.2572   18.5964 C   0  0  0  0  0  0
  -29.2696  -17.1965   17.6557 C   0  0  0  0  0  0
  -28.7980  -17.6000   20.4004 C   0  0  0  0  0  0
  -28.3664  -18.5598   19.4571 C   0  0  0  0  0  0
  -29.5006  -16.4374   19.9893 C   0  0  0  0  0  0
  -28.6037  -18.3525   18.0831 C   0  0  0  0  0  0
  -25.3200  -19.2327   20.2380 C   0  0  0  0  0  0
  -25.2421  -18.7554   18.7873 C   0  0  0  0  0  0
  -29.9903  -15.8337   22.3876 C   0  0  0  0  0  0
  -26.6362  -24.7041   24.5929 C   0  0  0  0  0  0
  -27.7145  -19.8549   19.9155 C   0  0  0  0  0  0
  -26.7190  -21.8570   21.9800 C   0  0  0  0  0  0
  -28.4697  -24.8440   21.5031 C   0  0  0  0  0  0
  -26.5738  -20.3228   22.0696 C   0  0  0  0  0  0
  -26.4451  -22.6184   23.2972 C   0  0  0  0  0  0
  -27.0734  -24.7947   22.1604 C   0  0  0  0  0  0
  -28.4954  -25.3934   20.0675 C   0  0  0  0  0  0
  -29.9938  -15.4898   20.9606 N   0  0  0  0  0  0
  -26.4892  -19.7242   20.7241 N   0  0  0  0  0  0
  -27.0952  -23.9603   23.3961 N   0  3  1  0  0  0
  -24.2914  -19.1655   20.9171 O   0  0  0  0  0  0
  -28.2000  -19.2638   17.1665 F   0  0  0  0  0  0
  -31.4615  -12.3861   19.0895 H   0  0  0  0  0  0
  -30.3349  -11.2718   19.8117 H   0  0  0  0  0  0
  -29.7027  -11.6963   17.4395 H   0  0  0  0  0  0
  -29.6586  -13.4111   17.7039 H   0  0  0  0  0  0
  -27.7965  -11.2979   18.8129 H   0  0  0  0  0  0
  -27.3546  -12.6308   17.7827 H   0  0  0  0  0  0
  -27.7041  -14.2433   19.5671 H   0  0  0  0  0  0
  -28.6742  -11.9408   21.3316 H   0  0  0  0  0  0
  -28.4755  -13.5864   21.8543 H   0  0  0  0  0  0
  -25.2748   -9.5695   22.4755 H   0  0  0  0  0  0
  -24.0001   -7.4639   22.7466 H   0  0  0  0  0  0
  -21.0834   -8.8770   19.8950 H   0  0  0  0  0  0
  -22.3675  -10.9680   19.6170 H   0  0  0  0  0  0
  -21.2005   -7.6147   23.9713 H   0  0  0  0  0  0
  -21.1481   -6.0523   25.9076 H   0  0  0  0  0  0
  -22.0599   -2.7609   23.2844 H   0  0  0  0  0  0
  -22.4110  -11.9910   22.4779 H   0  0  0  0  0  0
  -21.1124  -13.1283   22.2588 H   0  0  0  0  0  0
  -24.6813  -15.8485   20.5375 H   0  0  0  0  0  0
  -26.3106  -15.6200   20.1360 H   0  0  0  0  0  0
  -26.7094  -32.5564   23.1183 H   0  0  0  0  0  0
  -25.0048  -33.9789   25.0505 H   0  0  0  0  0  0
  -22.6826  -31.3101   21.4179 H   0  0  0  0  0  0
  -23.3736  -35.9666   23.3320 H   0  0  0  0  0  0
  -24.3577  -36.8921   22.2052 H   0  0  0  0  0  0
  -23.7238  -37.6541   23.6642 H   0  0  0  0  0  0
  -26.0241  -31.6131   20.5895 H   0  0  0  0  0  0
  -26.8116  -30.9032   21.9719 H   0  0  0  0  0  0
  -28.0935  -29.1467   21.1346 H   0  0  0  0  0  0
  -26.0363  -25.9893   19.0083 H   0  0  0  0  0  0
  -23.9702  -27.2842   19.0617 H   0  0  0  0  0  0
  -23.7036  -30.6000   19.4081 H   0  0  0  0  0  0
  -22.7247  -29.2419   19.8775 H   0  0  0  0  0  0
  -25.1266  -36.2009   25.0842 H   0  0  0  0  0  0
  -20.9935  -28.3187   24.1465 H   0  0  0  0  0  0
  -20.5657  -26.2238   23.3606 H   0  0  0  0  0  0
  -21.6620  -26.7437   22.1218 H   0  0  0  0  0  0
  -19.6911  -25.6298   21.1219 H   0  0  0  0  0  0
  -19.6676  -27.3207   20.6760 H   0  0  0  0  0  0
  -17.4186  -26.6674   21.4012 H   0  0  0  0  0  0
  -18.0299  -26.0054   22.9010 H   0  0  0  0  0  0
  -19.7926  -30.7220   24.2319 H   0  0  0  0  0  0
  -17.5009  -31.6264   24.5142 H   0  0  0  0  0  0
  -15.5341  -30.2980   23.7633 H   0  0  0  0  0  0
  -15.8657  -28.0808   22.7062 H   0  0  0  0  0  0
  -24.5924  -30.7027   25.7840 H   0  0  0  0  0  0
  -24.8939  -32.2818   26.4988 H   0  0  0  0  0  0
  -25.8127  -30.8833   27.0229 H   0  0  0  0  0  0
  -26.2824  -29.6802   24.1163 H   0  0  0  0  0  0
  -27.4144  -29.7307   25.4496 H   0  0  0  0  0  0
  -27.8621  -30.4398   23.9151 H   0  0  0  0  0  0
  -27.2690  -33.3599   26.2095 H   0  0  0  0  0  0
  -28.3834  -32.6884   25.0279 H   0  0  0  0  0  0
  -28.0754  -31.8411   26.5357 H   0  0  0  0  0  0
  -28.2609  -38.0107   24.7508 H   0  0  0  0  0  0
  -28.1069  -36.2635   24.6293 H   0  0  0  0  0  0
  -27.2306  -37.1469   25.8876 H   0  0  0  0  0  0
  -20.9291  -29.8760   21.7007 H   0  0  0  0  0  0
  -26.0198  -38.2890   24.1399 H   0  0  0  0  0  0
  -30.2700  -15.4150   18.2083 H   0  0  0  0  0  0
  -29.4575  -17.0427   16.6028 H   0  0  0  0  0  0
  -28.6090  -17.7953   21.4459 H   0  0  0  0  0  0
  -25.6162  -19.5132   18.0994 H   0  0  0  0  0  0
  -24.2100  -18.5438   18.5086 H   0  0  0  0  0  0
  -25.8124  -17.8375   18.6502 H   0  0  0  0  0  0
  -30.5084  -16.7784   22.5556 H   0  0  0  0  0  0
  -30.4861  -15.0809   23.0046 H   0  0  0  0  0  0
  -28.9688  -15.9261   22.7578 H   0  0  0  0  0  0
  -26.7428  -24.0981   25.4934 H   0  0  0  0  0  0
  -25.5881  -24.9924   24.5022 H   0  0  0  0  0  0
  -27.2251  -25.6103   24.7408 H   0  0  0  0  0  0
  -27.5039  -20.5079   19.0681 H   0  0  0  0  0  0
  -28.4916  -20.3746   20.4750 H   0  0  0  0  0  0
  -26.0533  -22.2365   21.2038 H   0  0  0  0  0  0
  -27.7315  -22.0645   21.6488 H   0  0  0  0  0  0
  -28.9036  -23.8473   21.4664 H   0  0  0  0  0  0
  -29.1494  -25.4273   22.1258 H   0  0  0  0  0  0
  -25.7035  -20.0739   22.6789 H   0  0  0  0  0  0
  -27.4259  -19.8953   22.6007 H   0  0  0  0  0  0
  -26.7973  -22.0212   24.1398 H   0  0  0  0  0  0
  -25.3662  -22.7201   23.4261 H   0  0  0  0  0  0
  -26.3179  -24.4415   21.4593 H   0  0  0  0  0  0
  -26.7697  -25.8159   22.3959 H   0  0  0  0  0  0
  -27.7590  -24.9035   19.4336 H   0  0  0  0  0  0
  -29.4577  -25.1323   19.6262 H   0  0  0  0  0  0
  -28.0715  -23.7759   23.5743 H   0  0  0  0  0  0
  1 25  1  0  0  0
  1 30  2  0  0  0
  1 88  1  0  0  0
  2  3  1  0  0  0
  2 25  1  0  0  0
  2 93  1  0  0  0
  2 94  1  0  0  0
  3  4  1  0  0  0
  3 95  1  0  0  0
  3 96  1  0  0  0
  4  5  1  0  0  0
  4 97  1  0  0  0
  4 98  1  0  0  0
  5  6  1  0  0  0
  5 26  1  0  0  0
  5 99  1  0  0  0
  6 25  1  0  0  0
  6100  1  0  0  0
  6101  1  0  0  0
  7  8  2  0  0  0
  7 26  1  0  0  0
  7 29  1  0  0  0
  8  9  1  0  0  0
  8 22  1  0  0  0
  9 10  1  0  0  0
  9 27  2  0  0  0
 10 11  2  0  0  0
 10 15  1  0  0  0
 11 12  1  0  0  0
 11102  1  0  0  0
 12 13  2  0  0  0
 12103  1  0  0  0
 13 14  1  0  0  0
 13 31  1  0  0  0
 14 15  2  0  0  0
 14104  1  0  0  0
 15105  1  0  0  0
 16 17  2  0  0  0
 16 21  1  0  0  0
 16 31  1  0  0  0
 17 18  1  0  0  0
 17106  1  0  0  0
 18 19  2  0  0  0
 18107  1  0  0  0
 19 20  1  0  0  0
 19 24  1  0  0  0
 20 21  2  0  0  0
 20108  1  0  0  0
 21 23  1  0  0  0
 22 28  1  0  0  0
 22 32  2  0  0  0
 26 27  1  0  0  0
 28109  1  0  0  0
 28110  1  0  0  0
 29111  1  0  0  0
 29112  1  0  0  0
 33 34  1  0  0  0
 33 66  1  0  0  0
 33 70  2  0  0  0
 34 36  1  0  0  0
 34 59  1  0  0  0
 34113  1  0  0  0
 35 44  2  0  0  0
 35 45  1  0  0  0
 35 68  1  0  0  0
 36 56  1  0  0  0
 36114  1  0  0  0
 37 39  1  0  0  0
 37 47  1  0  0  0
 37 66  1  0  0  0
 37115  1  0  0  0
 38 43  2  0  0  0
 38 46  1  0  0  0
 38 47  1  0  0  0
 39 64  1  0  0  0
 39 67  2  0  0  0
 40 52  1  0  0  0
 40 53  2  0  0  0
 40 58  1  0  0  0
 41116  1  0  0  0
 41117  1  0  0  0
 41118  1  0  0  0
 41 48  1  0  0  0
 42 43  1  0  0  0
 42 66  1  0  0  0
 42119  1  0  0  0
 42120  1  0  0  0
 43 44  1  0  0  0
 44121  1  0  0  0
 45 46  2  0  0  0
 45122  1  0  0  0
 46123  1  0  0  0
 47124  1  0  0  0
 47125  1  0  0  0
 48 56  1  0  0  0
 48 65  1  0  0  0
 48126  1  0  0  0
 49 50  1  0  0  0
 49 53  1  0  0  0
 49 64  1  0  0  0
 49127  1  0  0  0
 50 51  1  0  0  0
 50128  1  0  0  0
 50129  1  0  0  0
 51 52  1  0  0  0
 51130  1  0  0  0
 51131  1  0  0  0
 52132  1  0  0  0
 52133  1  0  0  0
 53 54  1  0  0  0
 54 55  2  0  0  0
 54134  1  0  0  0
 55 57  1  0  0  0
 55135  1  0  0  0
 56 69  2  0  0  0
 57 58  2  0  0  0
 57136  1  0  0  0
 58137  1  0  0  0
 59 60  1  0  0  0
 59 61  1  0  0  0
 59 62  1  0  0  0
 60138  1  0  0  0
 60139  1  0  0  0
 60140  1  0  0  0
 61141  1  0  0  0
 61142  1  0  0  0
 61143  1  0  0  0
 62144  1  0  0  0
 62145  1  0  0  0
 62146  1  0  0  0
 63 65  1  0  0  0
 63147  1  0  0  0
 63148  1  0  0  0
 63149  1  0  0  0
 64150  1  0  0  0
 65151  1  0  0  0
 68 87  1  0  0  0
 71 72  2  0  0  0
 71 75  1  0  0  0
 71152  1  0  0  0
 72 76  1  0  0  0
 72153  1  0  0  0
 73 74  1  0  0  0
 73 75  2  0  0  0
 73154  1  0  0  0
 74 76  2  0  0  0
 74 81  1  0  0  0
 75 88  1  0  0  0
 76 92  1  0  0  0
 77 78  1  0  0  0
 77 89  1  0  0  0
 77 91  2  0  0  0
 78155  1  0  0  0
 78156  1  0  0  0
 78157  1  0  0  0
 79 88  1  0  0  0
 79158  1  0  0  0
 79159  1  0  0  0
 79160  1  0  0  0
 80161  1  0  0  0
 80162  1  0  0  0
 80163  1  0  0  0
 80 90  1  0  0  0
 81 89  1  0  0  0
 81164  1  0  0  0
 81165  1  0  0  0
 82 84  1  0  0  0
 82 85  1  0  0  0
 82166  1  0  0  0
 82167  1  0  0  0
 83 86  1  0  0  0
 83 87  1  0  0  0
 83168  1  0  0  0
 83169  1  0  0  0
 84 89  1  0  0  0
 84170  1  0  0  0
 84171  1  0  0  0
 85 90  1  0  0  0
 85172  1  0  0  0
 85173  1  0  0  0
 86 90  1  0  0  0
 86174  1  0  0  0
 86175  1  0  0  0
 87176  1  0  0  0
 87177  1  0  0  0
 90178  1  0  0  0
M  CHG  1  90   1
M  ISO  4   1 100  68 101  87 101  88 100
M  END
> <chiral flag>
0

> <version>
0

> <s_m_source_file>
/data/baiqing/PycharmProjects/Reinvent-master-3.2/result/LINK_invent/BTK/process_docking_weight1_custom_product_contain_oxygen_bond_distance_aromatic_linkinvent_7_9_3/rearranged_h_0015.sdf

> <i_m_source_file_index>
88

> <r_mmod_Potential_Energy-OPLS-2005>
3.14699149131775

> <r_mmod_Stretch_Energy-OPLS-2005>
39.9743804931641

> <r_mmod_Bend_Energy-OPLS-2005>
111.854858398438

> <r_mmod_Torsional_Energy-OPLS-2005>
323.443450927734

> <r_mmod_Improper_Torsional_Energy-OPLS-2005>
7.35870313644409

> <r_mmod_Van_der_Waal_Energy-OPLS-2005>
162.073455810547

> <r_mmod_Electrostatic_Energy-OPLS-2005>
-217.37467956543

> <r_mmod_Solvation_Energy-OPLS-2005>
-437.452270507812

> <b_mmod_Minimization_Converged-OPLS-2005>
0

> <r_mmod_RMS_Derivative-OPLS-2005>
0.917857050895691

$$$$
88
                    3D
 Structure written by MMmdl.
156164  0  0  1  0            999 V2000
  -30.6976  -14.4687   20.5762 C   0  0  0  0  0  0
  -30.4254  -12.3046   19.4219 C   0  0  0  0  0  0
  -29.4951  -12.5048   18.2066 C   0  0  0  0  0  0
  -28.0161  -12.3661   18.6184 C   0  0  0  0  0  0
  -27.6648  -13.2040   19.8769 C   0  0  2  0  0  0
  -28.7053  -12.9747   20.9973 C   0  0  0  0  0  0
  -25.2610  -13.8158   20.5674 C   0  0  0  0  0  0
  -24.1849  -13.0444   20.9161 C   0  0  0  0  0  0
  -24.6396  -11.6905   20.8729 C   0  0  0  0  0  0
  -23.9061  -10.4294   21.0406 C   0  0  0  0  0  0
  -24.3615   -9.4211   21.9187 C   0  0  0  0  0  0
  -23.6291   -8.2247   22.0760 C   0  0  0  0  0  0
  -22.4276   -8.0284   21.3547 C   0  0  0  0  0  0
  -21.9906   -9.0256   20.4651 C   0  0  0  0  0  0
  -22.7232  -10.2136   20.3057 C   0  0  0  0  0  0
  -21.6851   -6.0741   22.5281 C   0  0  0  0  0  0
  -21.4011   -6.5642   23.8214 C   0  0  0  0  0  0
  -21.3657   -5.6795   24.9175 C   0  0  0  0  0  0
  -21.6044   -4.3059   24.7223 C   0  0  0  0  0  0
  -21.8819   -3.8152   23.4343 C   0  0  0  0  0  0
  -21.9191   -4.6971   22.3402 C   0  0  0  0  0  0
  -22.7873  -13.5248   21.1831 C   0  0  0  0  0  0
  -22.1661   -4.2157   21.0982 F   0  0  0  0  0  0
  -21.5628   -3.4543   25.7735 F   0  0  0  0  0  0
  -30.0405  -13.2819   20.4528 N   0  0  0  0  0  0
  -26.3043  -12.9317   20.3373 N   0  0  0  0  0  0
  -25.9323  -11.6479   20.5766 N   0  0  0  0  0  0
  -22.0512  -12.8241   22.0390 N   0  0  0  0  0  0
  -25.4355  -15.1871   20.4080 N   0  0  0  0  0  0
  -31.8078  -14.6681   20.0745 O   0  0  0  0  0  0
  -21.6637   -6.8883   21.4243 O   0  0  0  0  0  0
  -22.3559  -14.5558   20.6692 O   0  0  0  0  0  0
  -24.6151  -31.8664   23.2092 C   0  0  0  0  0  0
  -25.9046  -32.4816   23.8385 C   0  0  1  0  0  0
  -27.2400  -27.4261   20.0826 C   0  0  0  0  0  0
  -25.5906  -33.8614   24.2319 N   0  0  0  0  0  0
  -23.4033  -30.4908   21.5499 C   0  0  2  0  0  0
  -24.8493  -28.9536   20.1146 C   0  0  0  0  0  0
  -22.7415  -29.4650   22.4986 C   0  0  0  0  0  0
  -18.0269  -28.1376   22.8480 C   0  0  0  0  0  0
  -24.1487  -36.7311   23.2640 C   0  0  0  0  0  0
  -25.9330  -30.8270   21.3644 C   0  0  0  0  0  0
  -26.0082  -29.4592   20.7142 C   0  0  0  0  0  0
  -27.2008  -28.6980   20.7038 C   0  0  0  0  0  0
  -26.0539  -26.9311   19.4911 C   0  0  0  0  0  0
  -24.8665  -27.6872   19.5050 C   0  0  0  0  0  0
  -23.6124  -29.8235   20.1631 C   0  0  0  0  0  0
  -25.4107  -36.3107   24.0341 C   0  0  1  0  0  0
  -20.5862  -28.3659   23.1325 C   0  0  2  0  0  0
  -20.6757  -26.9398   22.5420 C   0  0  0  0  0  0
  -19.5743  -26.6384   21.5209 C   0  0  0  0  0  0
  -18.1918  -26.7920   22.1617 C   0  0  0  0  0  0
  -19.1519  -28.8832   23.2892 C   0  0  0  0  0  0
  -18.9454  -30.1435   23.8907 C   0  0  0  0  0  0
  -17.6460  -30.6581   24.0565 C   0  0  0  0  0  0
  -25.9045  -34.9474   23.5132 C   0  0  0  0  0  0
  -16.5347  -29.9087   23.6332 C   0  0  0  0  0  0
  -16.7258  -28.6507   23.0340 C   0  0  0  0  0  0
  -26.4477  -31.6592   25.0713 C   0  0  0  0  0  0
  -25.3748  -31.3699   26.1466 C   0  0  0  0  0  0
  -27.0299  -30.3041   24.6068 C   0  0  0  0  0  0
  -27.6048  -32.4312   25.7475 C   0  0  0  0  0  0
  -27.5581  -37.1805   24.8471 C   0  0  0  0  0  0
  -21.4142  -29.3027   22.3731 N   0  0  0  0  0  0
  -26.4293  -37.3793   23.9419 N   0  0  0  0  0  0
  -24.6688  -31.0761   22.0995 N   0  0  0  0  0  0
  -23.4183  -28.8191   23.3031 O   0  0  0  0  0  0
  -28.4274  -26.7134   20.0893 O   0  0  0  0  0  0
  -26.5600  -34.8925   22.4688 O   0  0  0  0  0  0
  -23.5346  -32.1417   23.7486 O   0  0  0  0  0  0
  -30.8657  -18.9547   20.0684 C   0  0  0  0  0  0
  -30.8335  -17.5411   20.1028 C   0  0  0  0  0  0
  -29.4843  -19.0396   22.0620 C   0  0  0  0  0  0
  -30.2004  -19.7219   21.0523 C   0  0  0  0  0  0
  -30.1320  -16.8586   21.1288 C   0  0  0  0  0  0
  -29.4467  -17.6272   22.0948 C   0  0  0  0  0  0
  -30.3280  -21.2539   21.0742 C   0  0  0  0  0  0
  -28.2912  -24.2262   19.5931 C   0  0  0  0  0  0
  -29.4553  -23.4566   20.2789 C   0  0  0  0  0  0
  -28.6366  -25.6692   19.1229 C   0  0  0  0  0  0
  -30.0178  -15.4337   21.2231 N   0  0  0  0  0  0
  -29.2389  -21.9820   20.3752 N   0  3  0  0  0  0
  -28.7500  -16.9977   23.0727 F   0  0  0  0  0  0
  -31.4696  -12.4036   19.1203 H   0  0  0  0  0  0
  -30.3271  -11.2920   19.8154 H   0  0  0  0  0  0
  -29.7328  -11.7783   17.4281 H   0  0  0  0  0  0
  -29.6643  -13.4894   17.7670 H   0  0  0  0  0  0
  -27.8242  -11.3096   18.8115 H   0  0  0  0  0  0
  -27.3661  -12.6436   17.7879 H   0  0  0  0  0  0
  -27.7132  -14.2538   19.5855 H   0  0  0  0  0  0
  -28.6805  -11.9350   21.3266 H   0  0  0  0  0  0
  -28.4596  -13.5619   21.8834 H   0  0  0  0  0  0
  -25.2764   -9.5684   22.4757 H   0  0  0  0  0  0
  -24.0002   -7.4635   22.7478 H   0  0  0  0  0  0
  -21.0837   -8.8770   19.8954 H   0  0  0  0  0  0
  -22.3694  -10.9674   19.6162 H   0  0  0  0  0  0
  -21.2004   -7.6150   23.9716 H   0  0  0  0  0  0
  -21.1479   -6.0529   25.9078 H   0  0  0  0  0  0
  -22.0600   -2.7613   23.2842 H   0  0  0  0  0  0
  -22.4117  -11.9890   22.4762 H   0  0  0  0  0  0
  -21.1137  -13.1276   22.2612 H   0  0  0  0  0  0
  -24.6741  -15.8480   20.5183 H   0  0  0  0  0  0
  -26.2991  -15.6233   20.1109 H   0  0  0  0  0  0
  -26.7112  -32.5531   23.1142 H   0  0  0  0  0  0
  -25.0065  -33.9768   25.0466 H   0  0  0  0  0  0
  -22.6928  -31.3078   21.4098 H   0  0  0  0  0  0
  -23.3747  -35.9647   23.3314 H   0  0  0  0  0  0
  -24.3582  -36.8918   22.2053 H   0  0  0  0  0  0
  -23.7243  -37.6521   23.6644 H   0  0  0  0  0  0
  -26.0446  -31.5912   20.5936 H   0  0  0  0  0  0
  -26.8216  -30.8833   21.9809 H   0  0  0  0  0  0
  -28.0975  -29.0872   21.1657 H   0  0  0  0  0  0
  -26.0240  -25.9590   19.0210 H   0  0  0  0  0  0
  -23.9735  -27.2882   19.0436 H   0  0  0  0  0  0
  -23.7235  -30.5999   19.4056 H   0  0  0  0  0  0
  -22.7353  -29.2471   19.8643 H   0  0  0  0  0  0
  -25.1279  -36.1974   25.0833 H   0  0  0  0  0  0
  -20.9932  -28.3217   24.1455 H   0  0  0  0  0  0
  -20.5673  -26.2259   23.3598 H   0  0  0  0  0  0
  -21.6626  -26.7448   22.1206 H   0  0  0  0  0  0
  -19.6915  -25.6300   21.1226 H   0  0  0  0  0  0
  -19.6693  -27.3202   20.6745 H   0  0  0  0  0  0
  -17.4186  -26.6667   21.4019 H   0  0  0  0  0  0
  -18.0318  -26.0061   22.9015 H   0  0  0  0  0  0
  -19.7934  -30.7237   24.2286 H   0  0  0  0  0  0
  -17.5023  -31.6269   24.5150 H   0  0  0  0  0  0
  -15.5349  -30.2995   23.7654 H   0  0  0  0  0  0
  -15.8654  -28.0838   22.7044 H   0  0  0  0  0  0
  -24.5928  -30.7036   25.7821 H   0  0  0  0  0  0
  -24.8922  -32.2847   26.4914 H   0  0  0  0  0  0
  -25.8107  -30.8883   27.0226 H   0  0  0  0  0  0
  -26.2823  -29.6812   24.1146 H   0  0  0  0  0  0
  -27.4119  -29.7275   25.4503 H   0  0  0  0  0  0
  -27.8642  -30.4381   23.9176 H   0  0  0  0  0  0
  -27.2664  -33.3609   26.2063 H   0  0  0  0  0  0
  -28.3847  -32.6877   25.0296 H   0  0  0  0  0  0
  -28.0718  -31.8429   26.5384 H   0  0  0  0  0  0
  -28.2594  -38.0102   24.7506 H   0  0  0  0  0  0
  -28.1071  -36.2630   24.6295 H   0  0  0  0  0  0
  -27.2298  -37.1461   25.8873 H   0  0  0  0  0  0
  -20.9297  -29.8770   21.6975 H   0  0  0  0  0  0
  -26.0188  -38.2876   24.1415 H   0  0  0  0  0  0
  -31.4281  -19.4456   19.2856 H   0  0  0  0  0  0
  -31.3541  -16.9984   19.3260 H   0  0  0  0  0  0
  -28.9718  -19.5928   22.8352 H   0  0  0  0  0  0
  -31.2844  -21.5247   20.6250 H   0  0  0  0  0  0
  -30.3763  -21.5920   22.1102 H   0  0  0  0  0  0
  -27.4086  -24.2396   20.2323 H   0  0  0  0  0  0
  -28.0025  -23.6640   18.7040 H   0  0  0  0  0  0
  -29.6237  -23.8679   21.2747 H   0  0  0  0  0  0
  -30.3758  -23.6216   19.7169 H   0  0  0  0  0  0
  -28.1038  -25.8965   18.1985 H   0  0  0  0  0  0
  -29.6868  -25.7077   18.8327 H   0  0  0  0  0  0
  -29.2286  -15.1135   21.7634 H   0  0  0  0  0  0
  -28.3742  -21.7977   20.8567 H   0  0  0  0  0  0
  -29.1643  -21.6011   19.4466 H   0  0  0  0  0  0
  1 25  1  0  0  0
  1 30  2  0  0  0
  1 81  1  0  0  0
  2  3  1  0  0  0
  2 25  1  0  0  0
  2 84  1  0  0  0
  2 85  1  0  0  0
  3  4  1  0  0  0
  3 86  1  0  0  0
  3 87  1  0  0  0
  4  5  1  0  0  0
  4 88  1  0  0  0
  4 89  1  0  0  0
  5  6  1  0  0  0
  5 26  1  0  0  0
  5 90  1  0  0  0
  6 25  1  0  0  0
  6 91  1  0  0  0
  6 92  1  0  0  0
  7  8  2  0  0  0
  7 26  1  0  0  0
  7 29  1  0  0  0
  8  9  1  0  0  0
  8 22  1  0  0  0
  9 10  1  0  0  0
  9 27  2  0  0  0
 10 11  2  0  0  0
 10 15  1  0  0  0
 11 12  1  0  0  0
 11 93  1  0  0  0
 12 13  2  0  0  0
 12 94  1  0  0  0
 13 14  1  0  0  0
 13 31  1  0  0  0
 14 15  2  0  0  0
 14 95  1  0  0  0
 15 96  1  0  0  0
 16 17  2  0  0  0
 16 21  1  0  0  0
 16 31  1  0  0  0
 17 18  1  0  0  0
 17 97  1  0  0  0
 18 19  2  0  0  0
 18 98  1  0  0  0
 19 20  1  0  0  0
 19 24  1  0  0  0
 20 21  2  0  0  0
 20 99  1  0  0  0
 21 23  1  0  0  0
 22 28  1  0  0  0
 22 32  2  0  0  0
 26 27  1  0  0  0
 28100  1  0  0  0
 28101  1  0  0  0
 29102  1  0  0  0
 29103  1  0  0  0
 33 34  1  0  0  0
 33 66  1  0  0  0
 33 70  2  0  0  0
 34 36  1  0  0  0
 34 59  1  0  0  0
 34104  1  0  0  0
 35 44  2  0  0  0
 35 45  1  0  0  0
 35 68  1  0  0  0
 36 56  1  0  0  0
 36105  1  0  0  0
 37 39  1  0  0  0
 37 47  1  0  0  0
 37 66  1  0  0  0
 37106  1  0  0  0
 38 43  2  0  0  0
 38 46  1  0  0  0
 38 47  1  0  0  0
 39 64  1  0  0  0
 39 67  2  0  0  0
 40 52  1  0  0  0
 40 53  2  0  0  0
 40 58  1  0  0  0
 41107  1  0  0  0
 41108  1  0  0  0
 41109  1  0  0  0
 41 48  1  0  0  0
 42 43  1  0  0  0
 42 66  1  0  0  0
 42110  1  0  0  0
 42111  1  0  0  0
 43 44  1  0  0  0
 44112  1  0  0  0
 45 46  2  0  0  0
 45113  1  0  0  0
 46114  1  0  0  0
 47115  1  0  0  0
 47116  1  0  0  0
 48 56  1  0  0  0
 48 65  1  0  0  0
 48117  1  0  0  0
 49 50  1  0  0  0
 49 53  1  0  0  0
 49 64  1  0  0  0
 49118  1  0  0  0
 50 51  1  0  0  0
 50119  1  0  0  0
 50120  1  0  0  0
 51 52  1  0  0  0
 51121  1  0  0  0
 51122  1  0  0  0
 52123  1  0  0  0
 52124  1  0  0  0
 53 54  1  0  0  0
 54 55  2  0  0  0
 54125  1  0  0  0
 55 57  1  0  0  0
 55126  1  0  0  0
 56 69  2  0  0  0
 57 58  2  0  0  0
 57127  1  0  0  0
 58128  1  0  0  0
 59 60  1  0  0  0
 59 61  1  0  0  0
 59 62  1  0  0  0
 60129  1  0  0  0
 60130  1  0  0  0
 60131  1  0  0  0
 61132  1  0  0  0
 61133  1  0  0  0
 61134  1  0  0  0
 62135  1  0  0  0
 62136  1  0  0  0
 62137  1  0  0  0
 63 65  1  0  0  0
 63138  1  0  0  0
 63139  1  0  0  0
 63140  1  0  0  0
 64141  1  0  0  0
 65142  1  0  0  0
 68 80  1  0  0  0
 71 72  2  0  0  0
 71 74  1  0  0  0
 71143  1  0  0  0
 72 75  1  0  0  0
 72144  1  0  0  0
 73 74  2  0  0  0
 73 76  1  0  0  0
 73145  1  0  0  0
 74 77  1  0  0  0
 75 76  2  0  0  0
 75 81  1  0  0  0
 76 83  1  0  0  0
 77 82  1  0  0  0
 77146  1  0  0  0
 77147  1  0  0  0
 78 79  1  0  0  0
 78 80  1  0  0  0
 78148  1  0  0  0
 78149  1  0  0  0
 79 82  1  0  0  0
 79150  1  0  0  0
 79151  1  0  0  0
 80152  1  0  0  0
 80153  1  0  0  0
 81154  1  0  0  0
 82155  1  0  0  0
 82156  1  0  0  0
M  CHG  1  82   1
M  ISO  4   1 100  68 101  80 101  81 100
M  END
> <chiral flag>
0

> <version>
0

> <s_m_source_file>
/data/baiqing/PycharmProjects/Reinvent-master-3.2/result/LINK_invent/BTK/process_docking_weight1_custom_product_contain_oxygen_bond_distance_aromatic_linkinvent_7_9_3/rearranged_h_0015.sdf

> <i_m_source_file_index>
89

> <r_mmod_Potential_Energy-OPLS-2005>
-298.080963134766

> <r_mmod_Stretch_Energy-OPLS-2005>
39.4371528625488

> <r_mmod_Bend_Energy-OPLS-2005>
104.131439208984

> <r_mmod_Torsional_Energy-OPLS-2005>
204.315719604492

> <r_mmod_Improper_Torsional_Energy-OPLS-2005>
2.72925519943237

> <r_mmod_Van_der_Waal_Energy-OPLS-2005>
152.663070678711

> <r_mmod_Electrostatic_Energy-OPLS-2005>
-332.007598876953

> <r_mmod_Solvation_Energy-OPLS-2005>
-481.441467285156

> <b_mmod_Minimization_Converged-OPLS-2005>
0

> <r_mmod_RMS_Derivative-OPLS-2005>
1.26993775367737

$$$$
89
                    3D
 Structure written by MMmdl.
162170  0  0  1  0            999 V2000
  -30.7636  -14.3990   20.6798 C   0  0  0  0  0  0
  -30.4126  -12.2864   19.4498 C   0  0  0  0  0  0
  -29.5017  -12.5256   18.2323 C   0  0  0  0  0  0
  -28.0256  -12.3736   18.6347 C   0  0  0  0  0  0
  -27.6697  -13.2121   19.8891 C   0  0  2  0  0  0
  -28.6997  -12.9912   21.0231 C   0  0  0  0  0  0
  -25.2600  -13.8194   20.5694 C   0  0  0  0  0  0
  -24.1844  -13.0441   20.9175 C   0  0  0  0  0  0
  -24.6416  -11.6923   20.8746 C   0  0  0  0  0  0
  -23.9086  -10.4293   21.0419 C   0  0  0  0  0  0
  -24.3628   -9.4199   21.9197 C   0  0  0  0  0  0
  -23.6301   -8.2232   22.0761 C   0  0  0  0  0  0
  -22.4279   -8.0290   21.3542 C   0  0  0  0  0  0
  -21.9911   -9.0282   20.4646 C   0  0  0  0  0  0
  -22.7264  -10.2154   20.3062 C   0  0  0  0  0  0
  -21.6859   -6.0743   22.5280 C   0  0  0  0  0  0
  -21.4032   -6.5644   23.8217 C   0  0  0  0  0  0
  -21.3667   -5.6796   24.9177 C   0  0  0  0  0  0
  -21.6044   -4.3055   24.7223 C   0  0  0  0  0  0
  -21.8814   -3.8149   23.4342 C   0  0  0  0  0  0
  -21.9189   -4.6969   22.3400 C   0  0  0  0  0  0
  -22.7862  -13.5230   21.1840 C   0  0  0  0  0  0
  -22.1652   -4.2148   21.0985 F   0  0  0  0  0  0
  -21.5606   -3.4540   25.7738 F   0  0  0  0  0  0
  -30.0570  -13.2494   20.5032 N   0  0  0  0  0  0
  -26.3048  -12.9374   20.3407 N   0  0  0  0  0  0
  -25.9344  -11.6523   20.5792 N   0  0  0  0  0  0
  -22.0506  -12.8230   22.0412 N   0  0  0  0  0  0
  -25.4313  -15.1913   20.4110 N   0  0  0  0  0  0
  -31.7472  -14.7031   19.9993 O   0  0  0  0  0  0
  -21.6639   -6.8897   21.4249 O   0  0  0  0  0  0
  -22.3548  -14.5540   20.6712 O   0  0  0  0  0  0
  -24.6140  -31.8689   23.2113 C   0  0  0  0  0  0
  -25.9060  -32.4818   23.8362 C   0  0  1  0  0  0
  -27.2290  -27.4346   20.1040 C   0  0  0  0  0  0
  -25.5917  -33.8599   24.2303 N   0  0  0  0  0  0
  -23.3991  -30.4958   21.5524 C   0  0  2  0  0  0
  -24.8477  -28.9733   20.1105 C   0  0  0  0  0  0
  -22.7424  -29.4663   22.5008 C   0  0  0  0  0  0
  -18.0274  -28.1405   22.8501 C   0  0  0  0  0  0
  -24.1487  -36.7300   23.2632 C   0  0  0  0  0  0
  -25.9274  -30.8417   21.3621 C   0  0  0  0  0  0
  -26.0096  -29.4791   20.7065 C   0  0  0  0  0  0
  -27.2057  -28.7194   20.6980 C   0  0  0  0  0  0
  -26.0450  -26.9583   19.4877 C   0  0  0  0  0  0
  -24.8618  -27.7142   19.4953 C   0  0  0  0  0  0
  -23.6057  -29.8335   20.1657 C   0  0  0  0  0  0
  -25.4107  -36.3097   24.0333 C   0  0  1  0  0  0
  -20.5844  -28.3657   23.1346 C   0  0  2  0  0  0
  -20.6756  -26.9400   22.5416 C   0  0  0  0  0  0
  -19.5742  -26.6432   21.5208 C   0  0  0  0  0  0
  -18.1923  -26.7962   22.1625 C   0  0  0  0  0  0
  -19.1513  -28.8856   23.2907 C   0  0  0  0  0  0
  -18.9452  -30.1470   23.8906 C   0  0  0  0  0  0
  -17.6448  -30.6601   24.0585 C   0  0  0  0  0  0
  -25.9042  -34.9466   23.5110 C   0  0  0  0  0  0
  -16.5334  -29.9096   23.6349 C   0  0  0  0  0  0
  -16.7257  -28.6528   23.0355 C   0  0  0  0  0  0
  -26.4491  -31.6571   25.0671 C   0  0  0  0  0  0
  -25.3772  -31.3660   26.1439 C   0  0  0  0  0  0
  -27.0295  -30.3009   24.6011 C   0  0  0  0  0  0
  -27.6073  -32.4268   25.7452 C   0  0  0  0  0  0
  -27.5577  -37.1805   24.8472 C   0  0  0  0  0  0
  -21.4146  -29.3026   22.3774 N   0  0  0  0  0  0
  -26.4288  -37.3792   23.9421 N   0  0  0  0  0  0
  -24.6651  -31.0803   22.1020 N   0  0  0  0  0  0
  -23.4205  -28.8209   23.3042 O   0  0  0  0  0  0
  -28.3801  -26.6642   20.1564 O   0  0  0  0  0  0
  -26.5590  -34.8928   22.4672 O   0  0  0  0  0  0
  -23.5336  -32.1456   23.7514 O   0  0  0  0  0  0
  -29.0511  -18.5271   20.7807 C   0  0  0  0  0  0
  -30.3635  -18.7435   22.8153 C   0  0  0  0  0  0
  -29.3997  -17.1624   20.6994 C   0  0  0  0  0  0
  -30.7037  -17.3726   22.7409 C   0  0  0  0  0  0
  -29.4989  -19.3243   21.8593 C   0  0  0  0  0  0
  -30.2049  -16.5654   21.6950 C   0  0  0  0  0  0
  -30.4571  -24.3887   19.6428 C   0  0  0  0  0  0
  -30.6900  -22.3635   22.4922 C   0  0  0  0  0  0
  -28.9077  -20.7265   22.0711 C   0  0  0  0  0  0
  -28.7645  -22.9312   20.9787 C   0  0  0  0  0  0
  -28.1516  -25.2423   20.1811 C   0  0  0  0  0  0
  -29.3252  -24.3630   20.6839 C   0  0  2  0  0  0
  -30.3938  -15.1549   21.7262 N   0  0  0  0  0  0
  -29.6848  -21.8756   21.5162 N   0  3  1  0  0  0
  -31.4623  -12.3560   19.1629 H   0  0  0  0  0  0
  -30.2791  -11.2724   19.8293 H   0  0  0  0  0  0
  -29.7511  -11.8219   17.4369 H   0  0  0  0  0  0
  -29.6750  -13.5258   17.8341 H   0  0  0  0  0  0
  -27.8475  -11.3177   18.8385 H   0  0  0  0  0  0
  -27.3750  -12.6375   17.8017 H   0  0  0  0  0  0
  -27.7205  -14.2631   19.6023 H   0  0  0  0  0  0
  -28.6427  -11.9687   21.3994 H   0  0  0  0  0  0
  -28.4400  -13.6224   21.8732 H   0  0  0  0  0  0
  -25.2780   -9.5662   22.4777 H   0  0  0  0  0  0
  -24.0012   -7.4619   22.7467 H   0  0  0  0  0  0
  -21.0844   -8.8831   19.8952 H   0  0  0  0  0  0
  -22.3754  -10.9707   19.6168 H   0  0  0  0  0  0
  -21.2055   -7.6154   23.9731 H   0  0  0  0  0  0
  -21.1485   -6.0519   25.9085 H   0  0  0  0  0  0
  -22.0583   -2.7608   23.2846 H   0  0  0  0  0  0
  -22.4122  -11.9888   22.4783 H   0  0  0  0  0  0
  -21.1131  -13.1274   22.2629 H   0  0  0  0  0  0
  -24.6729  -15.8546   20.5313 H   0  0  0  0  0  0
  -26.2948  -15.6281   20.1150 H   0  0  0  0  0  0
  -26.7109  -32.5547   23.1103 H   0  0  0  0  0  0
  -25.0082  -33.9716   25.0457 H   0  0  0  0  0  0
  -22.6858  -31.3112   21.4146 H   0  0  0  0  0  0
  -23.3741  -35.9641   23.3307 H   0  0  0  0  0  0
  -24.3573  -36.8899   22.2040 H   0  0  0  0  0  0
  -23.7246  -37.6514   23.6637 H   0  0  0  0  0  0
  -26.0266  -31.6124   20.5954 H   0  0  0  0  0  0
  -26.8182  -30.8952   21.9761 H   0  0  0  0  0  0
  -28.1014  -29.1003   21.1688 H   0  0  0  0  0  0
  -26.0015  -25.9963   18.9994 H   0  0  0  0  0  0
  -23.9693  -27.3221   19.0292 H   0  0  0  0  0  0
  -23.6977  -30.6095   19.4053 H   0  0  0  0  0  0
  -22.7304  -29.2491   19.8778 H   0  0  0  0  0  0
  -25.1281  -36.1949   25.0821 H   0  0  0  0  0  0
  -20.9877  -28.3208   24.1491 H   0  0  0  0  0  0
  -20.5671  -26.2248   23.3581 H   0  0  0  0  0  0
  -21.6636  -26.7488   22.1199 H   0  0  0  0  0  0
  -19.6889  -25.6365   21.1202 H   0  0  0  0  0  0
  -19.6691  -27.3283   20.6769 H   0  0  0  0  0  0
  -17.4183  -26.6728   21.4032 H   0  0  0  0  0  0
  -18.0318  -26.0089   22.9004 H   0  0  0  0  0  0
  -19.7925  -30.7296   24.2264 H   0  0  0  0  0  0
  -17.5008  -31.6285   24.5202 H   0  0  0  0  0  0
  -15.5336  -30.2995   23.7702 H   0  0  0  0  0  0
  -15.8667  -28.0864   22.7030 H   0  0  0  0  0  0
  -24.5980  -30.6944   25.7810 H   0  0  0  0  0  0
  -24.8913  -32.2793   26.4878 H   0  0  0  0  0  0
  -25.8166  -30.8879   27.0200 H   0  0  0  0  0  0
  -26.2796  -29.6782   24.1120 H   0  0  0  0  0  0
  -27.4120  -29.7231   25.4426 H   0  0  0  0  0  0
  -27.8617  -30.4287   23.9086 H   0  0  0  0  0  0
  -27.2706  -33.3566   26.2050 H   0  0  0  0  0  0
  -28.3923  -32.6831   25.0321 H   0  0  0  0  0  0
  -28.0720  -31.8374   26.5369 H   0  0  0  0  0  0
  -28.2618  -38.0080   24.7519 H   0  0  0  0  0  0
  -28.1048  -36.2617   24.6310 H   0  0  0  0  0  0
  -27.2289  -37.1482   25.8872 H   0  0  0  0  0  0
  -20.9325  -29.8711   21.6962 H   0  0  0  0  0  0
  -26.0174  -38.2867   24.1441 H   0  0  0  0  0  0
  -28.3776  -18.9358   20.0406 H   0  0  0  0  0  0
  -30.7167  -19.3259   23.6550 H   0  0  0  0  0  0
  -28.9889  -16.5607   19.9011 H   0  0  0  0  0  0
  -31.3174  -16.9365   23.5179 H   0  0  0  0  0  0
  -31.3124  -23.7863   19.9405 H   0  0  0  0  0  0
  -30.8191  -25.4089   19.5022 H   0  0  0  0  0  0
  -30.1143  -24.0242   18.6739 H   0  0  0  0  0  0
  -30.2058  -22.8035   23.3648 H   0  0  0  0  0  0
  -31.3583  -23.1144   22.0755 H   0  0  0  0  0  0
  -31.3208  -21.5399   22.8272 H   0  0  0  0  0  0
  -28.7178  -20.8825   23.1358 H   0  0  0  0  0  0
  -27.9130  -20.7074   21.6219 H   0  0  0  0  0  0
  -28.3027  -22.5275   20.0755 H   0  0  0  0  0  0
  -27.9472  -23.0465   21.6938 H   0  0  0  0  0  0
  -27.8704  -24.9059   19.1818 H   0  0  0  0  0  0
  -27.2943  -25.0421   20.8248 H   0  0  0  0  0  0
  -29.6945  -24.7902   21.6175 H   0  0  0  0  0  0
  -29.8726  -14.6699   22.4408 H   0  0  0  0  0  0
  -30.1938  -21.5130   20.7253 H   0  0  0  0  0  0
  1 25  1  0  0  0
  1 30  2  0  0  0
  1 83  1  0  0  0
  2  3  1  0  0  0
  2 25  1  0  0  0
  2 85  1  0  0  0
  2 86  1  0  0  0
  3  4  1  0  0  0
  3 87  1  0  0  0
  3 88  1  0  0  0
  4  5  1  0  0  0
  4 89  1  0  0  0
  4 90  1  0  0  0
  5  6  1  0  0  0
  5 26  1  0  0  0
  5 91  1  0  0  0
  6 25  1  0  0  0
  6 92  1  0  0  0
  6 93  1  0  0  0
  7  8  2  0  0  0
  7 26  1  0  0  0
  7 29  1  0  0  0
  8  9  1  0  0  0
  8 22  1  0  0  0
  9 10  1  0  0  0
  9 27  2  0  0  0
 10 11  2  0  0  0
 10 15  1  0  0  0
 11 12  1  0  0  0
 11 94  1  0  0  0
 12 13  2  0  0  0
 12 95  1  0  0  0
 13 14  1  0  0  0
 13 31  1  0  0  0
 14 15  2  0  0  0
 14 96  1  0  0  0
 15 97  1  0  0  0
 16 17  2  0  0  0
 16 21  1  0  0  0
 16 31  1  0  0  0
 17 18  1  0  0  0
 17 98  1  0  0  0
 18 19  2  0  0  0
 18 99  1  0  0  0
 19 20  1  0  0  0
 19 24  1  0  0  0
 20 21  2  0  0  0
 20100  1  0  0  0
 21 23  1  0  0  0
 22 28  1  0  0  0
 22 32  2  0  0  0
 26 27  1  0  0  0
 28101  1  0  0  0
 28102  1  0  0  0
 29103  1  0  0  0
 29104  1  0  0  0
 33 34  1  0  0  0
 33 66  1  0  0  0
 33 70  2  0  0  0
 34 36  1  0  0  0
 34 59  1  0  0  0
 34105  1  0  0  0
 35 44  2  0  0  0
 35 45  1  0  0  0
 35 68  1  0  0  0
 36 56  1  0  0  0
 36106  1  0  0  0
 37 39  1  0  0  0
 37 47  1  0  0  0
 37 66  1  0  0  0
 37107  1  0  0  0
 38 43  2  0  0  0
 38 46  1  0  0  0
 38 47  1  0  0  0
 39 64  1  0  0  0
 39 67  2  0  0  0
 40 52  1  0  0  0
 40 53  2  0  0  0
 40 58  1  0  0  0
 41108  1  0  0  0
 41109  1  0  0  0
 41110  1  0  0  0
 41 48  1  0  0  0
 42 43  1  0  0  0
 42 66  1  0  0  0
 42111  1  0  0  0
 42112  1  0  0  0
 43 44  1  0  0  0
 44113  1  0  0  0
 45 46  2  0  0  0
 45114  1  0  0  0
 46115  1  0  0  0
 47116  1  0  0  0
 47117  1  0  0  0
 48 56  1  0  0  0
 48 65  1  0  0  0
 48118  1  0  0  0
 49 50  1  0  0  0
 49 53  1  0  0  0
 49 64  1  0  0  0
 49119  1  0  0  0
 50 51  1  0  0  0
 50120  1  0  0  0
 50121  1  0  0  0
 51 52  1  0  0  0
 51122  1  0  0  0
 51123  1  0  0  0
 52124  1  0  0  0
 52125  1  0  0  0
 53 54  1  0  0  0
 54 55  2  0  0  0
 54126  1  0  0  0
 55 57  1  0  0  0
 55127  1  0  0  0
 56 69  2  0  0  0
 57 58  2  0  0  0
 57128  1  0  0  0
 58129  1  0  0  0
 59 60  1  0  0  0
 59 61  1  0  0  0
 59 62  1  0  0  0
 60130  1  0  0  0
 60131  1  0  0  0
 60132  1  0  0  0
 61133  1  0  0  0
 61134  1  0  0  0
 61135  1  0  0  0
 62136  1  0  0  0
 62137  1  0  0  0
 62138  1  0  0  0
 63 65  1  0  0  0
 63139  1  0  0  0
 63140  1  0  0  0
 63141  1  0  0  0
 64142  1  0  0  0
 65143  1  0  0  0
 68 81  1  0  0  0
 71 73  2  0  0  0
 71 75  1  0  0  0
 71144  1  0  0  0
 72 74  1  0  0  0
 72 75  2  0  0  0
 72145  1  0  0  0
 73 76  1  0  0  0
 73146  1  0  0  0
 74 76  2  0  0  0
 74147  1  0  0  0
 75 79  1  0  0  0
 76 83  1  0  0  0
 77148  1  0  0  0
 77149  1  0  0  0
 77150  1  0  0  0
 77 82  1  0  0  0
 78151  1  0  0  0
 78152  1  0  0  0
 78153  1  0  0  0
 78 84  1  0  0  0
 79 84  1  0  0  0
 79154  1  0  0  0
 79155  1  0  0  0
 80 82  1  0  0  0
 80 84  1  0  0  0
 80156  1  0  0  0
 80157  1  0  0  0
 81 82  1  0  0  0
 81158  1  0  0  0
 81159  1  0  0  0
 82160  1  0  0  0
 83161  1  0  0  0
 84162  1  0  0  0
M  CHG  1  84   1
M  ISO  4   1 100  68 101  81 101  83 100
M  END
> <chiral flag>
0

> <version>
0

> <s_m_source_file>
/data/baiqing/PycharmProjects/Reinvent-master-3.2/result/LINK_invent/BTK/process_docking_weight1_custom_product_contain_oxygen_bond_distance_aromatic_linkinvent_7_9_3/rearranged_h_0015.sdf

> <i_m_source_file_index>
90

> <r_mmod_Potential_Energy-OPLS-2005>
-140.013107299805

> <r_mmod_Stretch_Energy-OPLS-2005>
39.7984962463379

> <r_mmod_Bend_Energy-OPLS-2005>
104.792251586914

> <r_mmod_Torsional_Energy-OPLS-2005>
256.48388671875

> <r_mmod_Improper_Torsional_Energy-OPLS-2005>
5.43713998794556

> <r_mmod_Van_der_Waal_Energy-OPLS-2005>
158.359405517578

> <r_mmod_Electrostatic_Energy-OPLS-2005>
-265.59130859375

> <r_mmod_Solvation_Energy-OPLS-2005>
-451.120727539062

> <b_mmod_Minimization_Converged-OPLS-2005>
0

> <r_mmod_RMS_Derivative-OPLS-2005>
3.54497241973877

$$$$
90
                    3D
 Structure written by MMmdl.
158166  0  0  1  0            999 V2000
  -30.4913  -14.9017   20.4051 C   0  0  0  0  0  0
  -30.4457  -12.5512   19.4843 C   0  0  0  0  0  0
  -29.5228  -12.5336   18.2434 C   0  0  0  0  0  0
  -28.0463  -12.3462   18.6477 C   0  0  0  0  0  0
  -27.6367  -13.2405   19.8488 C   0  0  2  0  0  0
  -28.6793  -13.2016   20.9853 C   0  0  0  0  0  0
  -25.2509  -13.8214   20.5715 C   0  0  0  0  0  0
  -24.1810  -13.0462   20.9231 C   0  0  0  0  0  0
  -24.6405  -11.6938   20.8768 C   0  0  0  0  0  0
  -23.9079  -10.4315   21.0414 C   0  0  0  0  0  0
  -24.3631   -9.4219   21.9178 C   0  0  0  0  0  0
  -23.6311   -8.2254   22.0742 C   0  0  0  0  0  0
  -22.4293   -8.0288   21.3539 C   0  0  0  0  0  0
  -21.9927   -9.0268   20.4650 C   0  0  0  0  0  0
  -22.7251  -10.2149   20.3060 C   0  0  0  0  0  0
  -21.6862   -6.0747   22.5278 C   0  0  0  0  0  0
  -21.4015   -6.5643   23.8212 C   0  0  0  0  0  0
  -21.3664   -5.6786   24.9172 C   0  0  0  0  0  0
  -21.6039   -4.3047   24.7222 C   0  0  0  0  0  0
  -21.8819   -3.8152   23.4342 C   0  0  0  0  0  0
  -21.9206   -4.6978   22.3402 C   0  0  0  0  0  0
  -22.7830  -13.5238   21.1887 C   0  0  0  0  0  0
  -22.1663   -4.2159   21.0981 F   0  0  0  0  0  0
  -21.5644   -3.4527   25.7735 F   0  0  0  0  0  0
  -29.9598  -13.6174   20.4004 N   0  0  0  0  0  0
  -26.2920  -12.9422   20.3263 N   0  0  0  0  0  0
  -25.9330  -11.6561   20.5733 N   0  0  0  0  0  0
  -22.0462  -12.8245   22.0437 N   0  0  0  0  0  0
  -25.4242  -15.1945   20.4161 N   0  0  0  0  0  0
  -31.6737  -15.0419   20.0738 O   0  0  0  0  0  0
  -21.6655   -6.8888   21.4234 O   0  0  0  0  0  0
  -22.3521  -14.5546   20.6719 O   0  0  0  0  0  0
  -24.6387  -31.8477   23.1920 C   0  0  0  0  0  0
  -25.9163  -32.4717   23.8300 C   0  0  1  0  0  0
  -27.2077  -27.1588   20.1373 C   0  0  0  0  0  0
  -25.5912  -33.8531   24.2215 N   0  0  0  0  0  0
  -23.4405  -30.4672   21.5379 C   0  0  2  0  0  0
  -24.8849  -28.9006   20.1062 C   0  0  0  0  0  0
  -22.7547  -29.4564   22.4900 C   0  0  0  0  0  0
  -18.0297  -28.1398   22.8470 C   0  0  0  0  0  0
  -24.1476  -36.7255   23.2647 C   0  0  0  0  0  0
  -25.9951  -30.7227   21.3921 C   0  0  0  0  0  0
  -26.0611  -29.3403   20.7255 C   0  0  0  0  0  0
  -27.2191  -28.4838   20.7277 C   0  0  0  0  0  0
  -26.0032  -26.8116   19.4850 C   0  0  0  0  0  0
  -24.8678  -27.6492   19.4730 C   0  0  0  0  0  0
  -23.6601  -29.7975   20.1557 C   0  0  0  0  0  0
  -25.4115  -36.3064   24.0333 C   0  0  1  0  0  0
  -20.5907  -28.3715   23.1243 C   0  0  2  0  0  0
  -20.6784  -26.9427   22.5401 C   0  0  0  0  0  0
  -19.5756  -26.6380   21.5213 C   0  0  0  0  0  0
  -18.1937  -26.7935   22.1623 C   0  0  0  0  0  0
  -19.1552  -28.8877   23.2844 C   0  0  0  0  0  0
  -18.9477  -30.1477   23.8864 C   0  0  0  0  0  0
  -17.6474  -30.6597   24.0559 C   0  0  0  0  0  0
  -25.9065  -34.9429   23.5093 C   0  0  0  0  0  0
  -16.5367  -29.9087   23.6342 C   0  0  0  0  0  0
  -16.7282  -28.6508   23.0358 C   0  0  0  0  0  0
  -26.4473  -31.6588   25.0752 C   0  0  0  0  0  0
  -25.3647  -31.3799   26.1448 C   0  0  0  0  0  0
  -27.0330  -30.2973   24.6355 C   0  0  0  0  0  0
  -27.6024  -32.4349   25.7512 C   0  0  0  0  0  0
  -27.5582  -37.1788   24.8465 C   0  0  0  0  0  0
  -21.4251  -29.3044   22.3631 N   0  0  0  0  0  0
  -26.4287  -37.3772   23.9418 N   0  0  0  0  0  0
  -24.7108  -31.0339   22.0947 N   0  0  0  0  0  0
  -23.4203  -28.8124   23.3050 O   0  0  0  0  0  0
  -28.2849  -26.2155   20.2477 O   0  0  0  0  0  0
  -26.5670  -34.8915   22.4683 O   0  0  0  0  0  0
  -23.5512  -32.1365   23.7136 O   0  0  0  0  0  0
  -28.8323  -18.3841   21.3055 C   0  0  0  0  0  0
  -30.1156  -18.2339   19.3463 C   0  0  0  0  0  0
  -28.6775  -19.8224   21.1261 C   0  0  0  0  0  0
  -29.9289  -19.6609   19.1543 C   0  0  0  0  0  0
  -29.5829  -17.5017   20.4480 C   0  0  0  0  0  0
  -29.2240  -20.5812   20.0331 C   0  0  0  0  0  0
  -27.2037  -22.9960   21.1513 C   0  0  0  0  0  0
  -29.5454  -23.6179   21.6887 C   0  0  0  0  0  0
  -30.3060  -22.4370   18.9546 C   0  0  0  0  0  0
  -28.3263  -24.7735   19.6883 C   0  0  0  0  0  0
  -28.5747  -23.3198   20.5304 C   0  0  0  0  0  0
  -29.6195  -15.9878   20.6552 N   0  0  0  0  0  0
  -29.1396  -22.0654   19.7678 N   0  0  0  0  0  0
  -31.4768  -12.7258   19.1719 H   0  0  0  0  0  0
  -30.4446  -11.5820   19.9842 H   0  0  0  0  0  0
  -29.8274  -11.7396   17.5586 H   0  0  0  0  0  0
  -29.6309  -13.4716   17.6962 H   0  0  0  0  0  0
  -27.9029  -11.2948   18.8985 H   0  0  0  0  0  0
  -27.3967  -12.5482   17.7949 H   0  0  0  0  0  0
  -27.6188  -14.2609   19.4662 H   0  0  0  0  0  0
  -28.7543  -12.2034   21.4205 H   0  0  0  0  0  0
  -28.3881  -13.8699   21.7974 H   0  0  0  0  0  0
  -25.2775   -9.5714   22.4737 H   0  0  0  0  0  0
  -24.0043   -7.4652   22.7444 H   0  0  0  0  0  0
  -21.0861   -8.8795   19.8949 H   0  0  0  0  0  0
  -22.3707  -10.9696   19.6179 H   0  0  0  0  0  0
  -21.1971   -7.6140   23.9721 H   0  0  0  0  0  0
  -21.1490   -6.0511   25.9079 H   0  0  0  0  0  0
  -22.0594   -2.7613   23.2841 H   0  0  0  0  0  0
  -22.4090  -11.9933   22.4866 H   0  0  0  0  0  0
  -21.1055  -13.1254   22.2587 H   0  0  0  0  0  0
  -24.6623  -15.8524   20.5380 H   0  0  0  0  0  0
  -26.2701  -15.6314   20.0741 H   0  0  0  0  0  0
  -26.7230  -32.5304   23.1030 H   0  0  0  0  0  0
  -24.9985  -33.9652   25.0307 H   0  0  0  0  0  0
  -22.7409  -31.2916   21.3875 H   0  0  0  0  0  0
  -23.3778  -35.9546   23.3304 H   0  0  0  0  0  0
  -24.3548  -36.8890   22.2061 H   0  0  0  0  0  0
  -23.7181  -37.6430   23.6678 H   0  0  0  0  0  0
  -26.1600  -31.4821   20.6269 H   0  0  0  0  0  0
  -26.8629  -30.7576   22.0402 H   0  0  0  0  0  0
  -28.1129  -28.8124   21.2377 H   0  0  0  0  0  0
  -25.8774  -25.8537   19.0081 H   0  0  0  0  0  0
  -23.9646  -27.3063   18.9864 H   0  0  0  0  0  0
  -23.7849  -30.5708   19.3975 H   0  0  0  0  0  0
  -22.7764  -29.2323   19.8548 H   0  0  0  0  0  0
  -25.1304  -36.1913   25.0829 H   0  0  0  0  0  0
  -20.9979  -28.3300   24.1375 H   0  0  0  0  0  0
  -20.5672  -26.2342   23.3620 H   0  0  0  0  0  0
  -21.6650  -26.7437   22.1200 H   0  0  0  0  0  0
  -19.6922  -25.6285   21.1258 H   0  0  0  0  0  0
  -19.6691  -27.3177   20.6731 H   0  0  0  0  0  0
  -17.4207  -26.6671   21.4031 H   0  0  0  0  0  0
  -18.0344  -26.0089   22.9031 H   0  0  0  0  0  0
  -19.7959  -30.7298   24.2216 H   0  0  0  0  0  0
  -17.5037  -31.6271   24.5168 H   0  0  0  0  0  0
  -15.5367  -30.2980   23.7696 H   0  0  0  0  0  0
  -15.8682  -28.0818   22.7097 H   0  0  0  0  0  0
  -24.5805  -30.7177   25.7764 H   0  0  0  0  0  0
  -24.8850  -32.2991   26.4827 H   0  0  0  0  0  0
  -25.7896  -30.8985   27.0265 H   0  0  0  0  0  0
  -26.2962  -29.6727   24.1298 H   0  0  0  0  0  0
  -27.3847  -29.7251   25.4952 H   0  0  0  0  0  0
  -27.8908  -30.4206   23.9744 H   0  0  0  0  0  0
  -27.2629  -33.3663   26.2054 H   0  0  0  0  0  0
  -28.3823  -32.6899   25.0327 H   0  0  0  0  0  0
  -28.0700  -31.8510   26.5449 H   0  0  0  0  0  0
  -28.2602  -38.0087   24.7539 H   0  0  0  0  0  0
  -28.1079  -36.2627   24.6265 H   0  0  0  0  0  0
  -27.2301  -37.1396   25.8865 H   0  0  0  0  0  0
  -20.9483  -29.8724   21.6770 H   0  0  0  0  0  0
  -26.0177  -38.2848   24.1427 H   0  0  0  0  0  0
  -28.3367  -17.9455   22.1595 H   0  0  0  0  0  0
  -30.6564  -17.6891   18.5856 H   0  0  0  0  0  0
  -28.1001  -20.3265   21.8819 H   0  0  0  0  0  0
  -30.3759  -20.0340   18.2445 H   0  0  0  0  0  0
  -26.7791  -23.8804   21.6303 H   0  0  0  0  0  0
  -27.2498  -22.2384   21.9283 H   0  0  0  0  0  0
  -26.4898  -22.6667   20.3964 H   0  0  0  0  0  0
  -29.1769  -24.4317   22.3139 H   0  0  0  0  0  0
  -30.5313  -23.9120   21.3324 H   0  0  0  0  0  0
  -29.6773  -22.7481   22.3343 H   0  0  0  0  0  0
  -30.1418  -22.1938   17.9039 H   0  0  0  0  0  0
  -31.1987  -21.9137   19.2978 H   0  0  0  0  0  0
  -30.5782  -23.4876   19.0044 H   0  0  0  0  0  0
  -27.4825  -24.6083   19.0262 H   0  0  0  0  0  0
  -29.1351  -24.8866   18.9713 H   0  0  0  0  0  0
  -28.7535  -15.6364   21.0336 H   0  0  0  0  0  0
  1 25  1  0  0  0
  1 30  2  0  0  0
  1 82  1  0  0  0
  2  3  1  0  0  0
  2 25  1  0  0  0
  2 84  1  0  0  0
  2 85  1  0  0  0
  3  4  1  0  0  0
  3 86  1  0  0  0
  3 87  1  0  0  0
  4  5  1  0  0  0
  4 88  1  0  0  0
  4 89  1  0  0  0
  5  6  1  0  0  0
  5 26  1  0  0  0
  5 90  1  0  0  0
  6 25  1  0  0  0
  6 91  1  0  0  0
  6 92  1  0  0  0
  7  8  2  0  0  0
  7 26  1  0  0  0
  7 29  1  0  0  0
  8  9  1  0  0  0
  8 22  1  0  0  0
  9 10  1  0  0  0
  9 27  2  0  0  0
 10 11  2  0  0  0
 10 15  1  0  0  0
 11 12  1  0  0  0
 11 93  1  0  0  0
 12 13  2  0  0  0
 12 94  1  0  0  0
 13 14  1  0  0  0
 13 31  1  0  0  0
 14 15  2  0  0  0
 14 95  1  0  0  0
 15 96  1  0  0  0
 16 17  2  0  0  0
 16 21  1  0  0  0
 16 31  1  0  0  0
 17 18  1  0  0  0
 17 97  1  0  0  0
 18 19  2  0  0  0
 18 98  1  0  0  0
 19 20  1  0  0  0
 19 24  1  0  0  0
 20 21  2  0  0  0
 20 99  1  0  0  0
 21 23  1  0  0  0
 22 28  1  0  0  0
 22 32  2  0  0  0
 26 27  1  0  0  0
 28100  1  0  0  0
 28101  1  0  0  0
 29102  1  0  0  0
 29103  1  0  0  0
 33 34  1  0  0  0
 33 66  1  0  0  0
 33 70  2  0  0  0
 34 36  1  0  0  0
 34 59  1  0  0  0
 34104  1  0  0  0
 35 44  2  0  0  0
 35 45  1  0  0  0
 35 68  1  0  0  0
 36 56  1  0  0  0
 36105  1  0  0  0
 37 39  1  0  0  0
 37 47  1  0  0  0
 37 66  1  0  0  0
 37106  1  0  0  0
 38 43  2  0  0  0
 38 46  1  0  0  0
 38 47  1  0  0  0
 39 64  1  0  0  0
 39 67  2  0  0  0
 40 52  1  0  0  0
 40 53  2  0  0  0
 40 58  1  0  0  0
 41107  1  0  0  0
 41108  1  0  0  0
 41109  1  0  0  0
 41 48  1  0  0  0
 42 43  1  0  0  0
 42 66  1  0  0  0
 42110  1  0  0  0
 42111  1  0  0  0
 43 44  1  0  0  0
 44112  1  0  0  0
 45 46  2  0  0  0
 45113  1  0  0  0
 46114  1  0  0  0
 47115  1  0  0  0
 47116  1  0  0  0
 48 56  1  0  0  0
 48 65  1  0  0  0
 48117  1  0  0  0
 49 50  1  0  0  0
 49 53  1  0  0  0
 49 64  1  0  0  0
 49118  1  0  0  0
 50 51  1  0  0  0
 50119  1  0  0  0
 50120  1  0  0  0
 51 52  1  0  0  0
 51121  1  0  0  0
 51122  1  0  0  0
 52123  1  0  0  0
 52124  1  0  0  0
 53 54  1  0  0  0
 54 55  2  0  0  0
 54125  1  0  0  0
 55 57  1  0  0  0
 55126  1  0  0  0
 56 69  2  0  0  0
 57 58  2  0  0  0
 57127  1  0  0  0
 58128  1  0  0  0
 59 60  1  0  0  0
 59 61  1  0  0  0
 59 62  1  0  0  0
 60129  1  0  0  0
 60130  1  0  0  0
 60131  1  0  0  0
 61132  1  0  0  0
 61133  1  0  0  0
 61134  1  0  0  0
 62135  1  0  0  0
 62136  1  0  0  0
 62137  1  0  0  0
 63 65  1  0  0  0
 63138  1  0  0  0
 63139  1  0  0  0
 63140  1  0  0  0
 64141  1  0  0  0
 65142  1  0  0  0
 68 80  1  0  0  0
 71 73  2  0  0  0
 71 75  1  0  0  0
 71143  1  0  0  0
 72 74  1  0  0  0
 72 75  2  0  0  0
 72144  1  0  0  0
 73 76  1  0  0  0
 73145  1  0  0  0
 74 76  2  0  0  0
 74146  1  0  0  0
 75 82  1  0  0  0
 76 83  1  0  0  0
 77147  1  0  0  0
 77148  1  0  0  0
 77149  1  0  0  0
 77 81  1  0  0  0
 78 81  1  0  0  0
 78150  1  0  0  0
 78151  1  0  0  0
 78152  1  0  0  0
 79 83  1  0  0  0
 79153  1  0  0  0
 79154  1  0  0  0
 79155  1  0  0  0
 80 81  1  0  0  0
 80156  1  0  0  0
 80157  1  0  0  0
 81 83  1  0  0  0
 82158  1  0  0  0
M  ISO  4   1 100  68 101  80 101  82 100
M  END
> <chiral flag>
0

> <version>
0

> <s_m_source_file>
/data/baiqing/PycharmProjects/Reinvent-master-3.2/result/LINK_invent/BTK/process_docking_weight1_custom_product_contain_oxygen_bond_distance_aromatic_linkinvent_7_9_3/rearranged_h_0015.sdf

> <i_m_source_file_index>
91

> <r_mmod_Potential_Energy-OPLS-2005>
435.917846679688

> <r_mmod_Stretch_Energy-OPLS-2005>
228.81787109375

> <r_mmod_Bend_Energy-OPLS-2005>
292.640380859375

> <r_mmod_Torsional_Energy-OPLS-2005>
220.73942565918

> <r_mmod_Improper_Torsional_Energy-OPLS-2005>
6.26142549514771

> <r_mmod_Van_der_Waal_Energy-OPLS-2005>
150.445526123047

> <r_mmod_Electrostatic_Energy-OPLS-2005>
-412.919281005859

> <r_mmod_Solvation_Energy-OPLS-2005>
-217.406005859375

> <b_mmod_Minimization_Converged-OPLS-2005>
0

> <r_mmod_RMS_Derivative-OPLS-2005>
3.05493545532227

$$$$
91
                    3D
 Structure written by MMmdl.
150158  0  0  1  0            999 V2000
  -30.4983  -15.1875   20.3556 C   0  0  0  0  0  0
  -30.4238  -12.7451   19.5466 C   0  0  0  0  0  0
  -29.5367  -12.5611   18.2899 C   0  0  0  0  0  0
  -28.0702  -12.3168   18.6919 C   0  0  0  0  0  0
  -27.6036  -13.2812   19.8124 C   0  0  2  0  0  0
  -28.6299  -13.4515   20.9499 C   0  0  0  0  0  0
  -25.2340  -13.8268   20.5751 C   0  0  0  0  0  0
  -24.1697  -13.0433   20.9244 C   0  0  0  0  0  0
  -24.6360  -11.6938   20.8723 C   0  0  0  0  0  0
  -23.9064  -10.4291   21.0383 C   0  0  0  0  0  0
  -24.3616   -9.4214   21.9165 C   0  0  0  0  0  0
  -23.6299   -8.2243   22.0745 C   0  0  0  0  0  0
  -22.4276   -8.0274   21.3534 C   0  0  0  0  0  0
  -21.9905   -9.0243   20.4639 C   0  0  0  0  0  0
  -22.7221  -10.2122   20.3042 C   0  0  0  0  0  0
  -21.6865   -6.0727   22.5274 C   0  0  0  0  0  0
  -21.4022   -6.5625   23.8205 C   0  0  0  0  0  0
  -21.3672   -5.6781   24.9171 C   0  0  0  0  0  0
  -21.6055   -4.3041   24.7226 C   0  0  0  0  0  0
  -21.8820   -3.8136   23.4347 C   0  0  0  0  0  0
  -21.9190   -4.6951   22.3399 C   0  0  0  0  0  0
  -22.7714  -13.5176   21.1918 C   0  0  0  0  0  0
  -22.1659   -4.2131   21.0980 F   0  0  0  0  0  0
  -21.5629   -3.4527   25.7739 F   0  0  0  0  0  0
  -29.8868  -13.9068   20.3421 N   0  0  0  0  0  0
  -26.2762  -12.9549   20.3146 N   0  0  0  0  0  0
  -25.9298  -11.6647   20.5668 N   0  0  0  0  0  0
  -22.0383  -12.8164   22.0485 N   0  0  0  0  0  0
  -25.3990  -15.2009   20.4285 N   0  0  0  0  0  0
  -31.7214  -15.1180   20.1765 O   0  0  0  0  0  0
  -21.6651   -6.8865   21.4234 O   0  0  0  0  0  0
  -22.3393  -14.5480   20.6764 O   0  0  0  0  0  0
  -24.6580  -31.8286   23.1759 C   0  0  0  0  0  0
  -25.9296  -32.4610   23.8206 C   0  0  1  0  0  0
  -27.2175  -26.9915   20.1661 C   0  0  0  0  0  0
  -25.5993  -33.8427   24.2098 N   0  0  0  0  0  0
  -23.4687  -30.4452   21.5209 C   0  0  2  0  0  0
  -24.9202  -28.8397   20.1088 C   0  0  0  0  0  0
  -22.7637  -29.4491   22.4768 C   0  0  0  0  0  0
  -18.0319  -28.1418   22.8451 C   0  0  0  0  0  0
  -24.1493  -36.7227   23.2642 C   0  0  0  0  0  0
  -26.0348  -30.6534   21.3985 C   0  0  0  0  0  0
  -26.1023  -29.2507   20.7387 C   0  0  0  0  0  0
  -27.2459  -28.3439   20.7490 C   0  0  0  0  0  0
  -26.0093  -26.7169   19.4883 C   0  0  0  0  0  0
  -24.8945  -27.5910   19.4663 C   0  0  0  0  0  0
  -23.7049  -29.7616   20.1463 C   0  0  0  0  0  0
  -25.4130  -36.2979   24.0296 C   0  0  1  0  0  0
  -20.5942  -28.3765   23.1166 C   0  0  2  0  0  0
  -20.6803  -26.9444   22.5382 C   0  0  0  0  0  0
  -19.5780  -26.6375   21.5196 C   0  0  0  0  0  0
  -18.1963  -26.7944   22.1609 C   0  0  0  0  0  0
  -19.1584  -28.8904   23.2808 C   0  0  0  0  0  0
  -18.9499  -30.1496   23.8844 C   0  0  0  0  0  0
  -17.6500  -30.6601   24.0553 C   0  0  0  0  0  0
  -25.9085  -34.9359   23.5009 C   0  0  0  0  0  0
  -16.5382  -29.9094   23.6347 C   0  0  0  0  0  0
  -16.7311  -28.6517   23.0352 C   0  0  0  0  0  0
  -26.4554  -31.6548   25.0728 C   0  0  0  0  0  0
  -25.3696  -31.3799   26.1408 C   0  0  0  0  0  0
  -27.0449  -30.2912   24.6449 C   0  0  0  0  0  0
  -27.6053  -32.4348   25.7544 C   0  0  0  0  0  0
  -27.5566  -37.1778   24.8460 C   0  0  0  0  0  0
  -21.4304  -29.3075   22.3534 N   0  0  0  0  0  0
  -26.4277  -37.3706   23.9398 N   0  0  0  0  0  0
  -24.7416  -31.0005   22.0860 N   0  0  0  0  0  0
  -23.4210  -28.8052   23.2984 O   0  0  0  0  0  0
  -28.2296  -25.9208   20.2559 O   0  0  0  0  0  0
  -26.5693  -34.8887   22.4586 O   0  0  0  0  0  0
  -23.5666  -32.1251   23.6884 O   0  0  0  0  0  0
  -30.5759  -17.9128   20.9393 C   0  0  0  0  0  0
  -30.1846  -19.3432   20.8310 C   0  0  0  0  0  0
  -28.7077  -17.2770   19.7508 C   0  0  0  0  0  0
  -29.8780  -16.7386   20.4136 C   0  0  0  0  0  0
  -29.0297  -19.8865   20.1380 C   0  0  0  0  0  0
  -28.3170  -18.7019   19.6315 C   0  0  0  0  0  0
  -28.2256  -21.4640   18.4449 C   0  0  0  0  0  0
  -28.8959  -22.8579   20.4034 C   0  0  0  0  0  0
  -27.9866  -24.3344   20.0094 C   0  0  0  0  0  0
  -28.6259  -21.3598   19.8503 N   0  0  0  0  0  0
  -27.1643  -18.9193   18.9516 F   0  0  0  0  0  0
  -31.4567  -12.8986   19.2391 H   0  0  0  0  0  0
  -30.4290  -11.8358   20.1516 H   0  0  0  0  0  0
  -29.9061  -11.7340   17.6825 H   0  0  0  0  0  0
  -29.5990  -13.4545   17.6681 H   0  0  0  0  0  0
  -27.9901  -11.2853   19.0359 H   0  0  0  0  0  0
  -27.4181  -12.4032   17.8213 H   0  0  0  0  0  0
  -27.5195  -14.2501   19.3216 H   0  0  0  0  0  0
  -28.7615  -12.5240   21.5077 H   0  0  0  0  0  0
  -28.2789  -14.1972   21.6642 H   0  0  0  0  0  0
  -25.2767   -9.5706   22.4725 H   0  0  0  0  0  0
  -24.0019   -7.4645   22.7459 H   0  0  0  0  0  0
  -21.0834   -8.8752   19.8941 H   0  0  0  0  0  0
  -22.3676  -10.9655   19.6144 H   0  0  0  0  0  0
  -21.2020   -7.6136   23.9712 H   0  0  0  0  0  0
  -21.1495   -6.0505   25.9072 H   0  0  0  0  0  0
  -22.0589   -2.7594   23.2851 H   0  0  0  0  0  0
  -22.4034  -11.9842   22.4888 H   0  0  0  0  0  0
  -21.0994  -13.1152   22.2696 H   0  0  0  0  0  0
  -24.6342  -15.8526   20.5638 H   0  0  0  0  0  0
  -26.2587  -15.6526   20.1484 H   0  0  0  0  0  0
  -26.7371  -32.5163   23.0942 H   0  0  0  0  0  0
  -25.0117  -33.9511   25.0238 H   0  0  0  0  0  0
  -22.7810  -31.2769   21.3514 H   0  0  0  0  0  0
  -23.3755  -35.9559   23.3279 H   0  0  0  0  0  0
  -24.3563  -36.8907   22.2061 H   0  0  0  0  0  0
  -23.7275  -37.6413   23.6711 H   0  0  0  0  0  0
  -26.2101  -31.4010   20.6240 H   0  0  0  0  0  0
  -26.8984  -30.7052   22.0508 H   0  0  0  0  0  0
  -28.1374  -28.6462   21.2796 H   0  0  0  0  0  0
  -25.8945  -25.7626   18.9947 H   0  0  0  0  0  0
  -23.9946  -27.2693   18.9615 H   0  0  0  0  0  0
  -23.8626  -30.5301   19.3917 H   0  0  0  0  0  0
  -22.8169  -29.2157   19.8216 H   0  0  0  0  0  0
  -25.1330  -36.1766   25.0788 H   0  0  0  0  0  0
  -21.0044  -28.3382   24.1289 H   0  0  0  0  0  0
  -20.5659  -26.2388   23.3635 H   0  0  0  0  0  0
  -21.6671  -26.7415   22.1204 H   0  0  0  0  0  0
  -19.6944  -25.6264   21.1271 H   0  0  0  0  0  0
  -19.6722  -27.3138   20.6684 H   0  0  0  0  0  0
  -17.4225  -26.6669   21.4024 H   0  0  0  0  0  0
  -18.0388  -26.0102   22.9020 H   0  0  0  0  0  0
  -19.7983  -30.7311   24.2187 H   0  0  0  0  0  0
  -17.5061  -31.6273   24.5177 H   0  0  0  0  0  0
  -15.5383  -30.2980   23.7700 H   0  0  0  0  0  0
  -15.8717  -28.0820   22.7090 H   0  0  0  0  0  0
  -24.5880  -30.7139   25.7739 H   0  0  0  0  0  0
  -24.8899  -32.3003   26.4731 H   0  0  0  0  0  0
  -25.7962  -30.9047   27.0250 H   0  0  0  0  0  0
  -26.3114  -29.6603   24.1426 H   0  0  0  0  0  0
  -27.3938  -29.7265   25.5103 H   0  0  0  0  0  0
  -27.9061  -30.4085   23.9881 H   0  0  0  0  0  0
  -27.2609  -33.3667   26.2028 H   0  0  0  0  0  0
  -28.3929  -32.6882   25.0441 H   0  0  0  0  0  0
  -28.0643  -31.8547   26.5559 H   0  0  0  0  0  0
  -28.2563  -38.0091   24.7485 H   0  0  0  0  0  0
  -28.1083  -36.2616   24.6301 H   0  0  0  0  0  0
  -27.2279  -37.1439   25.8863 H   0  0  0  0  0  0
  -20.9554  -29.8777   21.6684 H   0  0  0  0  0  0
  -26.0126  -38.2758   24.1399 H   0  0  0  0  0  0
  -31.5126  -17.7186   21.4415 H   0  0  0  0  0  0
  -30.8596  -20.0638   21.2668 H   0  0  0  0  0  0
  -28.0695  -16.5659   19.2510 H   0  0  0  0  0  0
  -27.1387  -21.4634   18.3464 H   0  0  0  0  0  0
  -28.6245  -20.6576   17.8259 H   0  0  0  0  0  0
  -28.5977  -22.3852   17.9935 H   0  0  0  0  0  0
  -28.9065  -22.7825   21.4926 H   0  0  0  0  0  0
  -29.9312  -23.0743   20.1323 H   0  0  0  0  0  0
  -26.9933  -24.1500   20.4173 H   0  0  0  0  0  0
  -27.8325  -24.2878   18.9327 H   0  0  0  0  0  0
  1 25  1  0  0  0
  1 30  2  0  0  0
  1 74  1  0  0  0
  2  3  1  0  0  0
  2 25  1  0  0  0
  2 82  1  0  0  0
  2 83  1  0  0  0
  3  4  1  0  0  0
  3 84  1  0  0  0
  3 85  1  0  0  0
  4  5  1  0  0  0
  4 86  1  0  0  0
  4 87  1  0  0  0
  5  6  1  0  0  0
  5 26  1  0  0  0
  5 88  1  0  0  0
  6 25  1  0  0  0
  6 89  1  0  0  0
  6 90  1  0  0  0
  7  8  2  0  0  0
  7 26  1  0  0  0
  7 29  1  0  0  0
  8  9  1  0  0  0
  8 22  1  0  0  0
  9 10  1  0  0  0
  9 27  2  0  0  0
 10 11  2  0  0  0
 10 15  1  0  0  0
 11 12  1  0  0  0
 11 91  1  0  0  0
 12 13  2  0  0  0
 12 92  1  0  0  0
 13 14  1  0  0  0
 13 31  1  0  0  0
 14 15  2  0  0  0
 14 93  1  0  0  0
 15 94  1  0  0  0
 16 17  2  0  0  0
 16 21  1  0  0  0
 16 31  1  0  0  0
 17 18  1  0  0  0
 17 95  1  0  0  0
 18 19  2  0  0  0
 18 96  1  0  0  0
 19 20  1  0  0  0
 19 24  1  0  0  0
 20 21  2  0  0  0
 20 97  1  0  0  0
 21 23  1  0  0  0
 22 28  1  0  0  0
 22 32  2  0  0  0
 26 27  1  0  0  0
 28 98  1  0  0  0
 28 99  1  0  0  0
 29100  1  0  0  0
 29101  1  0  0  0
 33 34  1  0  0  0
 33 66  1  0  0  0
 33 70  2  0  0  0
 34 36  1  0  0  0
 34 59  1  0  0  0
 34102  1  0  0  0
 35 44  2  0  0  0
 35 45  1  0  0  0
 35 68  1  0  0  0
 36 56  1  0  0  0
 36103  1  0  0  0
 37 39  1  0  0  0
 37 47  1  0  0  0
 37 66  1  0  0  0
 37104  1  0  0  0
 38 43  2  0  0  0
 38 46  1  0  0  0
 38 47  1  0  0  0
 39 64  1  0  0  0
 39 67  2  0  0  0
 40 52  1  0  0  0
 40 53  2  0  0  0
 40 58  1  0  0  0
 41105  1  0  0  0
 41106  1  0  0  0
 41107  1  0  0  0
 41 48  1  0  0  0
 42 43  1  0  0  0
 42 66  1  0  0  0
 42108  1  0  0  0
 42109  1  0  0  0
 43 44  1  0  0  0
 44110  1  0  0  0
 45 46  2  0  0  0
 45111  1  0  0  0
 46112  1  0  0  0
 47113  1  0  0  0
 47114  1  0  0  0
 48 56  1  0  0  0
 48 65  1  0  0  0
 48115  1  0  0  0
 49 50  1  0  0  0
 49 53  1  0  0  0
 49 64  1  0  0  0
 49116  1  0  0  0
 50 51  1  0  0  0
 50117  1  0  0  0
 50118  1  0  0  0
 51 52  1  0  0  0
 51119  1  0  0  0
 51120  1  0  0  0
 52121  1  0  0  0
 52122  1  0  0  0
 53 54  1  0  0  0
 54 55  2  0  0  0
 54123  1  0  0  0
 55 57  1  0  0  0
 55124  1  0  0  0
 56 69  2  0  0  0
 57 58  2  0  0  0
 57125  1  0  0  0
 58126  1  0  0  0
 59 60  1  0  0  0
 59 61  1  0  0  0
 59 62  1  0  0  0
 60127  1  0  0  0
 60128  1  0  0  0
 60129  1  0  0  0
 61130  1  0  0  0
 61131  1  0  0  0
 61132  1  0  0  0
 62133  1  0  0  0
 62134  1  0  0  0
 62135  1  0  0  0
 63 65  1  0  0  0
 63136  1  0  0  0
 63137  1  0  0  0
 63138  1  0  0  0
 64139  1  0  0  0
 65140  1  0  0  0
 68 79  1  0  0  0
 71 72  2  0  0  0
 71 74  1  0  0  0
 71141  1  0  0  0
 72 75  1  0  0  0
 72142  1  0  0  0
 73 74  2  0  0  0
 73 76  1  0  0  0
 73143  1  0  0  0
 75 76  2  0  0  0
 75 80  1  0  0  0
 76 81  1  0  0  0
 77 80  1  0  0  0
 77144  1  0  0  0
 77145  1  0  0  0
 77146  1  0  0  0
 78 79  1  0  0  0
 78 80  1  0  0  0
 78147  1  0  0  0
 78148  1  0  0  0
 79149  1  0  0  0
 79150  1  0  0  0
M  ISO  4   1 100  68 101  74 100  79 101
M  END
> <chiral flag>
0

> <version>
0

> <s_m_source_file>
/data/baiqing/PycharmProjects/Reinvent-master-3.2/result/LINK_invent/BTK/process_docking_weight1_custom_product_contain_oxygen_bond_distance_aromatic_linkinvent_7_9_3/rearranged_h_0015.sdf

> <i_m_source_file_index>
92

> <r_mmod_Potential_Energy-OPLS-2005>
1095.78881835938

> <r_mmod_Stretch_Energy-OPLS-2005>
437.072998046875

> <r_mmod_Bend_Energy-OPLS-2005>
407.429595947266

> <r_mmod_Torsional_Energy-OPLS-2005>
202.523986816406

> <r_mmod_Improper_Torsional_Energy-OPLS-2005>
5.84188938140869

> <r_mmod_Van_der_Waal_Energy-OPLS-2005>
134.349838256836

> <r_mmod_Electrostatic_Energy-OPLS-2005>
-256.418243408203

> <r_mmod_Solvation_Energy-OPLS-2005>
-209.885162353516

> <b_mmod_Minimization_Converged-OPLS-2005>
0

> <r_mmod_RMS_Derivative-OPLS-2005>
2.87734150886536

$$$$
92
                    3D
 Structure written by MMmdl.
162170  0  0  1  0            999 V2000
  -30.7555  -14.4121   20.6627 C   0  0  0  0  0  0
  -30.4123  -12.3016   19.4194 C   0  0  0  0  0  0
  -29.4979  -12.5202   18.1988 C   0  0  0  0  0  0
  -28.0141  -12.3899   18.5926 C   0  0  0  0  0  0
  -27.6578  -13.2126   19.8574 C   0  0  2  0  0  0
  -28.6828  -12.9791   20.9821 C   0  0  0  0  0  0
  -25.2584  -13.8192   20.5631 C   0  0  0  0  0  0
  -24.1853  -13.0453   20.9136 C   0  0  0  0  0  0
  -24.6409  -11.6924   20.8706 C   0  0  0  0  0  0
  -23.9065  -10.4301   21.0397 C   0  0  0  0  0  0
  -24.3623   -9.4219   21.9179 C   0  0  0  0  0  0
  -23.6309   -8.2251   22.0748 C   0  0  0  0  0  0
  -22.4285   -8.0286   21.3538 C   0  0  0  0  0  0
  -21.9907   -9.0260   20.4646 C   0  0  0  0  0  0
  -22.7226  -10.2142   20.3055 C   0  0  0  0  0  0
  -21.6865   -6.0741   22.5281 C   0  0  0  0  0  0
  -21.4011   -6.5637   23.8217 C   0  0  0  0  0  0
  -21.3664   -5.6793   24.9177 C   0  0  0  0  0  0
  -21.6049   -4.3053   24.7229 C   0  0  0  0  0  0
  -21.8821   -3.8148   23.4344 C   0  0  0  0  0  0
  -21.9190   -4.6971   22.3406 C   0  0  0  0  0  0
  -22.7867  -13.5231   21.1865 C   0  0  0  0  0  0
  -22.1665   -4.2146   21.0985 F   0  0  0  0  0  0
  -21.5632   -3.4540   25.7740 F   0  0  0  0  0  0
  -30.0300  -13.2732   20.4583 N   0  0  0  0  0  0
  -26.2991  -12.9368   20.3207 N   0  0  0  0  0  0
  -25.9316  -11.6520   20.5639 N   0  0  0  0  0  0
  -22.0514  -12.8236   22.0418 N   0  0  0  0  0  0
  -25.4331  -15.1915   20.4100 N   0  0  0  0  0  0
  -31.8126  -14.6350   20.0607 O   0  0  0  0  0  0
  -21.6648   -6.8883   21.4243 O   0  0  0  0  0  0
  -22.3540  -14.5564   20.6722 O   0  0  0  0  0  0
  -24.6184  -31.8634   23.2065 C   0  0  0  0  0  0
  -25.9061  -32.4807   23.8382 C   0  0  1  0  0  0
  -27.2396  -27.4263   20.0864 C   0  0  0  0  0  0
  -25.5893  -33.8607   24.2304 N   0  0  0  0  0  0
  -23.4062  -30.4879   21.5488 C   0  0  2  0  0  0
  -24.8516  -28.9425   20.1240 C   0  0  0  0  0  0
  -22.7413  -29.4655   22.4998 C   0  0  0  0  0  0
  -18.0274  -28.1393   22.8486 C   0  0  0  0  0  0
  -24.1476  -36.7317   23.2644 C   0  0  0  0  0  0
  -25.9329  -30.8323   21.3523 C   0  0  0  0  0  0
  -26.0161  -29.4615   20.7056 C   0  0  0  0  0  0
  -27.2183  -28.7137   20.6742 C   0  0  0  0  0  0
  -26.0522  -26.9105   19.5272 C   0  0  0  0  0  0
  -24.8642  -27.6658   19.5359 C   0  0  0  0  0  0
  -23.6146  -29.8130   20.1649 C   0  0  0  0  0  0
  -25.4092  -36.3113   24.0347 C   0  0  1  0  0  0
  -20.5865  -28.3676   23.1306 C   0  0  2  0  0  0
  -20.6774  -26.9411   22.5417 C   0  0  0  0  0  0
  -19.5747  -26.6385   21.5221 C   0  0  0  0  0  0
  -18.1914  -26.7938   22.1625 C   0  0  0  0  0  0
  -19.1525  -28.8851   23.2899 C   0  0  0  0  0  0
  -18.9465  -30.1461   23.8901 C   0  0  0  0  0  0
  -17.6467  -30.6603   24.0564 C   0  0  0  0  0  0
  -25.9021  -34.9480   23.5118 C   0  0  0  0  0  0
  -16.5350  -29.9106   23.6335 C   0  0  0  0  0  0
  -16.7265  -28.6528   23.0346 C   0  0  0  0  0  0
  -26.4472  -31.6608   25.0726 C   0  0  0  0  0  0
  -25.3718  -31.3709   26.1469 C   0  0  0  0  0  0
  -27.0318  -30.3080   24.6059 C   0  0  0  0  0  0
  -27.6067  -32.4318   25.7458 C   0  0  0  0  0  0
  -27.5581  -37.1797   24.8463 C   0  0  0  0  0  0
  -21.4146  -29.3027   22.3719 N   0  0  0  0  0  0
  -26.4280  -37.3806   23.9426 N   0  0  0  0  0  0
  -24.6723  -31.0759   22.0950 N   0  0  0  0  0  0
  -23.4169  -28.8204   23.3056 O   0  0  0  0  0  0
  -28.4073  -26.6932   20.0385 O   0  0  0  0  0  0
  -26.5610  -34.8940   22.4690 O   0  0  0  0  0  0
  -23.5378  -32.1376   23.7473 O   0  0  0  0  0  0
  -30.0142  -18.4724   19.3727 C   0  0  0  0  0  0
  -29.9631  -17.1192   19.7825 C   0  0  0  0  0  0
  -30.3749  -19.1469   21.6663 C   0  0  0  0  0  0
  -30.2437  -19.5032   20.3101 C   0  0  0  0  0  0
  -30.1819  -16.7399   21.1375 C   0  0  0  0  0  0
  -30.3576  -17.7985   22.0770 C   0  0  0  0  0  0
  -30.2589  -14.9546   22.9440 C   0  0  0  0  0  0
  -28.4251  -21.3186   18.5263 C   0  0  0  0  0  0
  -30.4564  -20.9680   19.8872 C   0  0  0  0  0  0
  -28.2191  -24.1495   19.8533 C   0  0  0  0  0  0
  -29.4875  -23.2569   19.6869 C   0  0  0  0  0  0
  -28.3891  -25.4322   20.7273 C   0  0  0  0  0  0
  -30.2465  -15.3346   21.5189 N   0  0  0  0  0  0
  -29.2175  -21.7791   19.6944 N   0  3  1  0  0  0
  -30.5519  -17.5641   23.3946 F   0  0  0  0  0  0
  -31.4604  -12.3861   19.1235 H   0  0  0  0  0  0
  -30.3006  -11.2847   19.7977 H   0  0  0  0  0  0
  -29.7434  -11.8051   17.4099 H   0  0  0  0  0  0
  -29.6856  -13.5110   17.7803 H   0  0  0  0  0  0
  -27.8065  -11.3325   18.7632 H   0  0  0  0  0  0
  -27.3818  -12.6959   17.7591 H   0  0  0  0  0  0
  -27.7085  -14.2670   19.5812 H   0  0  0  0  0  0
  -28.6403  -11.9453   21.3293 H   0  0  0  0  0  0
  -28.3938  -13.5849   21.8372 H   0  0  0  0  0  0
  -25.2771   -9.5705   22.4743 H   0  0  0  0  0  0
  -24.0024   -7.4640   22.7461 H   0  0  0  0  0  0
  -21.0831   -8.8777   19.8961 H   0  0  0  0  0  0
  -22.3679  -10.9684   19.6170 H   0  0  0  0  0  0
  -21.2005   -7.6140   23.9717 H   0  0  0  0  0  0
  -21.1490   -6.0522   25.9082 H   0  0  0  0  0  0
  -22.0599   -2.7605   23.2850 H   0  0  0  0  0  0
  -22.4119  -11.9895   22.4821 H   0  0  0  0  0  0
  -21.1126  -13.1283   22.2622 H   0  0  0  0  0  0
  -24.6787  -15.8535   20.5426 H   0  0  0  0  0  0
  -26.2991  -15.6295   20.1253 H   0  0  0  0  0  0
  -26.7110  -32.5533   23.1142 H   0  0  0  0  0  0
  -25.0052  -33.9752   25.0458 H   0  0  0  0  0  0
  -22.6955  -31.3051   21.4041 H   0  0  0  0  0  0
  -23.3753  -35.9640   23.3313 H   0  0  0  0  0  0
  -24.3554  -36.8931   22.2053 H   0  0  0  0  0  0
  -23.7208  -37.6519   23.6644 H   0  0  0  0  0  0
  -26.0244  -31.5872   20.5702 H   0  0  0  0  0  0
  -26.8274  -30.9023   21.9587 H   0  0  0  0  0  0
  -28.1276  -29.1141   21.1009 H   0  0  0  0  0  0
  -26.0432  -25.9283   19.0765 H   0  0  0  0  0  0
  -23.9649  -27.2530   19.1000 H   0  0  0  0  0  0
  -23.7229  -30.5811   19.3970 H   0  0  0  0  0  0
  -22.7364  -29.2329   19.8782 H   0  0  0  0  0  0
  -25.1263  -36.1981   25.0844 H   0  0  0  0  0  0
  -20.9944  -28.3248   24.1444 H   0  0  0  0  0  0
  -20.5660  -26.2287   23.3612 H   0  0  0  0  0  0
  -21.6644  -26.7449   22.1216 H   0  0  0  0  0  0
  -19.6904  -25.6289   21.1262 H   0  0  0  0  0  0
  -19.6707  -27.3193   20.6744 H   0  0  0  0  0  0
  -17.4189  -26.6683   21.4033 H   0  0  0  0  0  0
  -18.0334  -26.0082   22.9018 H   0  0  0  0  0  0
  -19.7931  -30.7288   24.2262 H   0  0  0  0  0  0
  -17.5018  -31.6283   24.5177 H   0  0  0  0  0  0
  -15.5350  -30.3018   23.7676 H   0  0  0  0  0  0
  -15.8658  -28.0870   22.7053 H   0  0  0  0  0  0
  -24.5903  -30.7038   25.7798 H   0  0  0  0  0  0
  -24.8893  -32.2866   26.4909 H   0  0  0  0  0  0
  -25.8079  -30.8885   27.0223 H   0  0  0  0  0  0
  -26.2858  -29.6823   24.1139 H   0  0  0  0  0  0
  -27.4164  -29.7340   25.4496 H   0  0  0  0  0  0
  -27.8644  -30.4477   23.9156 H   0  0  0  0  0  0
  -27.2728  -33.3626   26.2051 H   0  0  0  0  0  0
  -28.3859  -32.6845   25.0253 H   0  0  0  0  0  0
  -28.0725  -31.8403   26.5350 H   0  0  0  0  0  0
  -28.2599  -38.0101   24.7560 H   0  0  0  0  0  0
  -28.1078  -36.2645   24.6224 H   0  0  0  0  0  0
  -27.2308  -37.1378   25.8868 H   0  0  0  0  0  0
  -20.9324  -29.8742   21.6930 H   0  0  0  0  0  0
  -26.0184  -38.2882   24.1477 H   0  0  0  0  0  0
  -29.9027  -18.7050   18.3220 H   0  0  0  0  0  0
  -29.7901  -16.3704   19.0222 H   0  0  0  0  0  0
  -30.5453  -19.9110   22.4120 H   0  0  0  0  0  0
  -29.4129  -15.3977   23.4717 H   0  0  0  0  0  0
  -31.1844  -15.2739   23.4198 H   0  0  0  0  0  0
  -30.1994  -13.8794   23.1149 H   0  0  0  0  0  0
  -28.0762  -20.2966   18.6808 H   0  0  0  0  0  0
  -29.0179  -21.3370   17.6102 H   0  0  0  0  0  0
  -27.5356  -21.9267   18.3683 H   0  0  0  0  0  0
  -31.0700  -21.0133   18.9865 H   0  0  0  0  0  0
  -31.0623  -21.4303   20.6678 H   0  0  0  0  0  0
  -27.4411  -23.5514   20.3254 H   0  0  0  0  0  0
  -27.8205  -24.4032   18.8688 H   0  0  0  0  0  0
  -30.1861  -23.4790   20.4961 H   0  0  0  0  0  0
  -30.0114  -23.5350   18.7684 H   0  0  0  0  0  0
  -27.5987  -25.4434   21.4820 H   0  0  0  0  0  0
  -29.3149  -25.3699   21.3009 H   0  0  0  0  0  0
  -28.6572  -21.5992   20.5121 H   0  0  0  0  0  0
  1 25  1  0  0  0
  1 30  2  0  0  0
  1 83  1  0  0  0
  2  3  1  0  0  0
  2 25  1  0  0  0
  2 86  1  0  0  0
  2 87  1  0  0  0
  3  4  1  0  0  0
  3 88  1  0  0  0
  3 89  1  0  0  0
  4  5  1  0  0  0
  4 90  1  0  0  0
  4 91  1  0  0  0
  5  6  1  0  0  0
  5 26  1  0  0  0
  5 92  1  0  0  0
  6 25  1  0  0  0
  6 93  1  0  0  0
  6 94  1  0  0  0
  7  8  2  0  0  0
  7 26  1  0  0  0
  7 29  1  0  0  0
  8  9  1  0  0  0
  8 22  1  0  0  0
  9 10  1  0  0  0
  9 27  2  0  0  0
 10 11  2  0  0  0
 10 15  1  0  0  0
 11 12  1  0  0  0
 11 95  1  0  0  0
 12 13  2  0  0  0
 12 96  1  0  0  0
 13 14  1  0  0  0
 13 31  1  0  0  0
 14 15  2  0  0  0
 14 97  1  0  0  0
 15 98  1  0  0  0
 16 17  2  0  0  0
 16 21  1  0  0  0
 16 31  1  0  0  0
 17 18  1  0  0  0
 17 99  1  0  0  0
 18 19  2  0  0  0
 18100  1  0  0  0
 19 20  1  0  0  0
 19 24  1  0  0  0
 20 21  2  0  0  0
 20101  1  0  0  0
 21 23  1  0  0  0
 22 28  1  0  0  0
 22 32  2  0  0  0
 26 27  1  0  0  0
 28102  1  0  0  0
 28103  1  0  0  0
 29104  1  0  0  0
 29105  1  0  0  0
 33 34  1  0  0  0
 33 66  1  0  0  0
 33 70  2  0  0  0
 34 36  1  0  0  0
 34 59  1  0  0  0
 34106  1  0  0  0
 35 44  2  0  0  0
 35 45  1  0  0  0
 35 68  1  0  0  0
 36 56  1  0  0  0
 36107  1  0  0  0
 37 39  1  0  0  0
 37 47  1  0  0  0
 37 66  1  0  0  0
 37108  1  0  0  0
 38 43  2  0  0  0
 38 46  1  0  0  0
 38 47  1  0  0  0
 39 64  1  0  0  0
 39 67  2  0  0  0
 40 52  1  0  0  0
 40 53  2  0  0  0
 40 58  1  0  0  0
 41109  1  0  0  0
 41110  1  0  0  0
 41111  1  0  0  0
 41 48  1  0  0  0
 42 43  1  0  0  0
 42 66  1  0  0  0
 42112  1  0  0  0
 42113  1  0  0  0
 43 44  1  0  0  0
 44114  1  0  0  0
 45 46  2  0  0  0
 45115  1  0  0  0
 46116  1  0  0  0
 47117  1  0  0  0
 47118  1  0  0  0
 48 56  1  0  0  0
 48 65  1  0  0  0
 48119  1  0  0  0
 49 50  1  0  0  0
 49 53  1  0  0  0
 49 64  1  0  0  0
 49120  1  0  0  0
 50 51  1  0  0  0
 50121  1  0  0  0
 50122  1  0  0  0
 51 52  1  0  0  0
 51123  1  0  0  0
 51124  1  0  0  0
 52125  1  0  0  0
 52126  1  0  0  0
 53 54  1  0  0  0
 54 55  2  0  0  0
 54127  1  0  0  0
 55 57  1  0  0  0
 55128  1  0  0  0
 56 69  2  0  0  0
 57 58  2  0  0  0
 57129  1  0  0  0
 58130  1  0  0  0
 59 60  1  0  0  0
 59 61  1  0  0  0
 59 62  1  0  0  0
 60131  1  0  0  0
 60132  1  0  0  0
 60133  1  0  0  0
 61134  1  0  0  0
 61135  1  0  0  0
 61136  1  0  0  0
 62137  1  0  0  0
 62138  1  0  0  0
 62139  1  0  0  0
 63 65  1  0  0  0
 63140  1  0  0  0
 63141  1  0  0  0
 63142  1  0  0  0
 64143  1  0  0  0
 65144  1  0  0  0
 68 82  1  0  0  0
 71 72  2  0  0  0
 71 74  1  0  0  0
 71145  1  0  0  0
 72 75  1  0  0  0
 72146  1  0  0  0
 73 74  2  0  0  0
 73 76  1  0  0  0
 73147  1  0  0  0
 74 79  1  0  0  0
 75 76  2  0  0  0
 75 83  1  0  0  0
 76 85  1  0  0  0
 77 83  1  0  0  0
 77148  1  0  0  0
 77149  1  0  0  0
 77150  1  0  0  0
 78151  1  0  0  0
 78152  1  0  0  0
 78153  1  0  0  0
 78 84  1  0  0  0
 79 84  1  0  0  0
 79154  1  0  0  0
 79155  1  0  0  0
 80 81  1  0  0  0
 80 82  1  0  0  0
 80156  1  0  0  0
 80157  1  0  0  0
 81 84  1  0  0  0
 81158  1  0  0  0
 81159  1  0  0  0
 82160  1  0  0  0
 82161  1  0  0  0
 84162  1  0  0  0
M  CHG  1  84   1
M  ISO  4   1 100  68 101  82 101  83 100
M  END
> <chiral flag>
0

> <version>
0

> <s_m_source_file>
/data/baiqing/PycharmProjects/Reinvent-master-3.2/result/LINK_invent/BTK/process_docking_weight1_custom_product_contain_oxygen_bond_distance_aromatic_linkinvent_7_9_3/rearranged_h_0015.sdf

> <i_m_source_file_index>
93

> <r_mmod_Potential_Energy-OPLS-2005>
-5.08770847320557

> <r_mmod_Stretch_Energy-OPLS-2005>
47.7403793334961

> <r_mmod_Bend_Energy-OPLS-2005>
107.14151763916

> <r_mmod_Torsional_Energy-OPLS-2005>
307.034240722656

> <r_mmod_Improper_Torsional_Energy-OPLS-2005>
3.27989721298218

> <r_mmod_Van_der_Waal_Energy-OPLS-2005>
167.20915222168

> <r_mmod_Electrostatic_Energy-OPLS-2005>
-203.203659057617

> <r_mmod_Solvation_Energy-OPLS-2005>
-444.204864501953

> <b_mmod_Minimization_Converged-OPLS-2005>
0

> <r_mmod_RMS_Derivative-OPLS-2005>
3.97116446495056

$$$$
93
                    3D
 Structure written by MMmdl.
165174  0  0  1  0            999 V2000
  -30.6988  -14.4517   20.5777 C   0  0  0  0  0  0
  -30.4246  -12.2977   19.4231 C   0  0  0  0  0  0
  -29.4986  -12.5091   18.2079 C   0  0  0  0  0  0
  -28.0178  -12.3713   18.6167 C   0  0  0  0  0  0
  -27.6632  -13.2052   19.8776 C   0  0  2  0  0  0
  -28.7010  -12.9735   20.9989 C   0  0  0  0  0  0
  -25.2580  -13.8162   20.5617 C   0  0  0  0  0  0
  -24.1832  -13.0450   20.9157 C   0  0  0  0  0  0
  -24.6374  -11.6917   20.8729 C   0  0  0  0  0  0
  -23.9039  -10.4309   21.0407 C   0  0  0  0  0  0
  -24.3600   -9.4218   21.9167 C   0  0  0  0  0  0
  -23.6291   -8.2241   22.0736 C   0  0  0  0  0  0
  -22.4265   -8.0277   21.3540 C   0  0  0  0  0  0
  -21.9889   -9.0253   20.4649 C   0  0  0  0  0  0
  -22.7208  -10.2141   20.3060 C   0  0  0  0  0  0
  -21.6854   -6.0723   22.5271 C   0  0  0  0  0  0
  -21.4008   -6.5622   23.8205 C   0  0  0  0  0  0
  -21.3662   -5.6773   24.9166 C   0  0  0  0  0  0
  -21.6049   -4.3034   24.7214 C   0  0  0  0  0  0
  -21.8819   -3.8130   23.4337 C   0  0  0  0  0  0
  -21.9194   -4.6951   22.3395 C   0  0  0  0  0  0
  -22.7858  -13.5248   21.1840 C   0  0  0  0  0  0
  -22.1662   -4.2135   21.0976 F   0  0  0  0  0  0
  -21.5641   -3.4517   25.7726 F   0  0  0  0  0  0
  -30.0348  -13.2742   20.4507 N   0  0  0  0  0  0
  -26.3021  -12.9329   20.3357 N   0  0  0  0  0  0
  -25.9307  -11.6498   20.5765 N   0  0  0  0  0  0
  -22.0502  -12.8275   22.0425 N   0  0  0  0  0  0
  -25.4300  -15.1875   20.3951 N   0  0  0  0  0  0
  -31.8338  -14.6318   20.1237 O   0  0  0  0  0  0
  -21.6642   -6.8868   21.4234 O   0  0  0  0  0  0
  -22.3535  -14.5542   20.6667 O   0  0  0  0  0  0
  -24.6175  -31.8682   23.2119 C   0  0  0  0  0  0
  -25.9073  -32.4815   23.8410 C   0  0  1  0  0  0
  -27.2303  -27.4310   20.0670 C   0  0  0  0  0  0
  -25.5958  -33.8615   24.2342 N   0  0  0  0  0  0
  -23.4041  -30.4952   21.5528 C   0  0  2  0  0  0
  -24.8450  -28.9614   20.1172 C   0  0  0  0  0  0
  -22.7416  -29.4669   22.4993 C   0  0  0  0  0  0
  -18.0278  -28.1364   22.8475 C   0  0  0  0  0  0
  -24.1476  -36.7275   23.2635 C   0  0  0  0  0  0
  -25.9382  -30.8262   21.3705 C   0  0  0  0  0  0
  -26.0098  -29.4631   20.7107 C   0  0  0  0  0  0
  -27.2030  -28.7025   20.6886 C   0  0  0  0  0  0
  -26.0302  -26.9297   19.5103 C   0  0  0  0  0  0
  -24.8491  -27.6907   19.5207 C   0  0  0  0  0  0
  -23.6103  -29.8311   20.1670 C   0  0  0  0  0  0
  -25.4097  -36.3107   24.0353 C   0  0  1  0  0  0
  -20.5866  -28.3650   23.1326 C   0  0  2  0  0  0
  -20.6745  -26.9371   22.5467 C   0  0  0  0  0  0
  -19.5774  -26.6369   21.5211 C   0  0  0  0  0  0
  -18.1923  -26.7940   22.1548 C   0  0  0  0  0  0
  -19.1524  -28.8821   23.2900 C   0  0  0  0  0  0
  -18.9445  -30.1422   23.8910 C   0  0  0  0  0  0
  -17.6451  -30.6564   24.0556 C   0  0  0  0  0  0
  -25.9048  -34.9477   23.5134 C   0  0  0  0  0  0
  -16.5341  -29.9060   23.6330 C   0  0  0  0  0  0
  -16.7268  -28.6481   23.0351 C   0  0  0  0  0  0
  -26.4483  -31.6614   25.0756 C   0  0  0  0  0  0
  -25.3765  -31.3841   26.1560 C   0  0  0  0  0  0
  -27.0212  -30.3002   24.6204 C   0  0  0  0  0  0
  -27.6146  -32.4281   25.7425 C   0  0  0  0  0  0
  -27.5615  -37.1740   24.8430 C   0  0  0  0  0  0
  -21.4153  -29.3016   22.3714 N   0  0  0  0  0  0
  -26.4262  -37.3818   23.9478 N   0  0  0  0  0  0
  -24.6713  -31.0788   22.1014 N   0  0  0  0  0  0
  -23.4195  -28.8225   23.3038 O   0  0  0  0  0  0
  -28.3993  -26.6911   20.0536 O   0  0  0  0  0  0
  -26.5577  -34.8935   22.4674 O   0  0  0  0  0  0
  -23.5368  -32.1431   23.7518 O   0  0  0  0  0  0
  -30.0232  -23.9866   18.0060 C   0  0  0  0  0  0
  -30.6152  -22.7132   18.0647 C   0  0  0  0  0  0
  -31.6894  -18.7809   20.7985 C   0  0  0  0  0  0
  -31.4141  -17.4668   21.2263 C   0  0  0  0  0  0
  -29.7069  -22.3934   20.2830 C   0  0  0  0  0  0
  -29.5400  -18.8780   19.6627 C   0  0  0  0  0  0
  -29.2834  -24.5059   19.0871 C   0  0  0  0  0  0
  -29.0970  -23.6768   20.2302 C   0  0  0  0  0  0
  -30.4966  -21.9006   19.2161 C   0  0  0  0  0  0
  -30.7818  -19.4806   19.9686 C   0  0  0  0  0  0
  -30.2227  -16.8290   20.8201 C   0  0  0  0  0  0
  -29.2647  -17.5565   20.0829 C   0  0  0  0  0  0
  -28.2553  -24.1260   21.4130 C   0  0  0  0  0  0
  -32.0075  -19.6447   17.1907 C   0  0  0  0  0  0
  -28.6777  -25.9049   18.8808 C   0  0  0  0  0  0
  -32.3592  -20.4566   18.4492 C   0  0  0  0  0  0
  -29.9831  -15.4586   21.1101 N   0  0  0  0  0  0
  -31.1932  -20.6682   19.3245 N   0  0  0  0  0  0
  -28.1037  -16.9572   19.7183 F   0  0  0  0  0  0
  -31.4715  -12.3961   19.1272 H   0  0  0  0  0  0
  -30.3212  -11.2847   19.8138 H   0  0  0  0  0  0
  -29.7400  -11.7940   17.4206 H   0  0  0  0  0  0
  -29.6701  -13.5008   17.7831 H   0  0  0  0  0  0
  -27.8227  -11.3150   18.8058 H   0  0  0  0  0  0
  -27.3704  -12.6551   17.7866 H   0  0  0  0  0  0
  -27.7121  -14.2547   19.5863 H   0  0  0  0  0  0
  -28.6703  -11.9343   21.3312 H   0  0  0  0  0  0
  -28.4636  -13.5666   21.8831 H   0  0  0  0  0  0
  -25.2757   -9.5697   22.4718 H   0  0  0  0  0  0
  -24.0016   -7.4626   22.7441 H   0  0  0  0  0  0
  -21.0808   -8.8776   19.8962 H   0  0  0  0  0  0
  -22.3654  -10.9674   19.6172 H   0  0  0  0  0  0
  -21.1983   -7.6124   23.9701 H   0  0  0  0  0  0
  -21.1491   -6.0497   25.9072 H   0  0  0  0  0  0
  -22.0590   -2.7592   23.2830 H   0  0  0  0  0  0
  -22.4112  -11.9963   22.4866 H   0  0  0  0  0  0
  -21.1130  -13.1339   22.2641 H   0  0  0  0  0  0
  -24.6518  -15.8359   20.4535 H   0  0  0  0  0  0
  -26.2827  -15.6251   20.0627 H   0  0  0  0  0  0
  -26.7135  -32.5510   23.1158 H   0  0  0  0  0  0
  -25.0225  -33.9768   25.0567 H   0  0  0  0  0  0
  -22.6954  -31.3147   21.4163 H   0  0  0  0  0  0
  -23.3816  -35.9523   23.3182 H   0  0  0  0  0  0
  -24.3617  -36.8993   22.2079 H   0  0  0  0  0  0
  -23.7100  -37.6396   23.6696 H   0  0  0  0  0  0
  -26.0718  -31.5972   20.6106 H   0  0  0  0  0  0
  -26.8193  -30.8610   22.0000 H   0  0  0  0  0  0
  -28.1039  -29.0936   21.1407 H   0  0  0  0  0  0
  -25.9751  -25.9402   19.0818 H   0  0  0  0  0  0
  -23.9482  -27.2876   19.0795 H   0  0  0  0  0  0
  -23.7217  -30.6060   19.4077 H   0  0  0  0  0  0
  -22.7328  -29.2540   19.8712 H   0  0  0  0  0  0
  -25.1251  -36.1954   25.0841 H   0  0  0  0  0  0
  -20.9966  -28.3218   24.1446 H   0  0  0  0  0  0
  -20.5555  -26.2274   23.3670 H   0  0  0  0  0  0
  -21.6633  -26.7355   22.1333 H   0  0  0  0  0  0
  -19.6930  -25.6274   21.1261 H   0  0  0  0  0  0
  -19.6781  -27.3158   20.6732 H   0  0  0  0  0  0
  -17.4251  -26.6765   21.3879 H   0  0  0  0  0  0
  -18.0233  -26.0041   22.8881 H   0  0  0  0  0  0
  -19.7926  -30.7219   24.2295 H   0  0  0  0  0  0
  -17.5012  -31.6247   24.5151 H   0  0  0  0  0  0
  -15.5334  -30.2943   23.7675 H   0  0  0  0  0  0
  -15.8673  -28.0801   22.7058 H   0  0  0  0  0  0
  -24.5986  -30.7057   25.8037 H   0  0  0  0  0  0
  -24.8877  -32.3021   26.4839 H   0  0  0  0  0  0
  -25.8165  -30.9242   27.0418 H   0  0  0  0  0  0
  -26.2697  -29.6816   24.1287 H   0  0  0  0  0  0
  -27.3906  -29.7245   25.4702 H   0  0  0  0  0  0
  -27.8614  -30.4216   23.9364 H   0  0  0  0  0  0
  -27.2894  -33.3637   26.1983 H   0  0  0  0  0  0
  -28.3919  -32.6723   25.0169 H   0  0  0  0  0  0
  -28.0845  -31.8398   26.5320 H   0  0  0  0  0  0
  -28.2567  -38.0108   24.7621 H   0  0  0  0  0  0
  -28.1158  -36.2662   24.5993 H   0  0  0  0  0  0
  -27.2415  -37.1104   25.8846 H   0  0  0  0  0  0
  -20.9311  -29.8718   21.6919 H   0  0  0  0  0  0
  -26.0157  -38.2869   24.1619 H   0  0  0  0  0  0
  -30.1458  -24.5727   17.1055 H   0  0  0  0  0  0
  -31.1667  -22.3881   17.1950 H   0  0  0  0  0  0
  -32.6373  -19.2254   21.0650 H   0  0  0  0  0  0
  -32.1466  -16.9345   21.8160 H   0  0  0  0  0  0
  -29.5850  -21.7901   21.1724 H   0  0  0  0  0  0
  -28.8280  -19.3903   19.0329 H   0  0  0  0  0  0
  -28.0444  -23.2979   22.0910 H   0  0  0  0  0  0
  -27.2980  -24.5249   21.0773 H   0  0  0  0  0  0
  -28.7749  -24.8968   21.9823 H   0  0  0  0  0  0
  -32.8677  -19.5699   16.5255 H   0  0  0  0  0  0
  -31.1921  -20.0973   16.6260 H   0  0  0  0  0  0
  -31.7129  -18.6263   17.4453 H   0  0  0  0  0  0
  -27.8479  -25.7950   18.1862 H   0  0  0  0  0  0
  -29.4082  -26.4920   18.3229 H   0  0  0  0  0  0
  -32.8193  -21.4050   18.1695 H   0  0  0  0  0  0
  -33.1492  -19.9314   18.9884 H   0  0  0  0  0  0
  -29.0325  -15.2155   21.3395 H   0  0  0  0  0  0
  1 25  1  0  0  0
  1 30  2  0  0  0
  1 87  1  0  0  0
  2  3  1  0  0  0
  2 25  1  0  0  0
  2 90  1  0  0  0
  2 91  1  0  0  0
  3  4  1  0  0  0
  3 92  1  0  0  0
  3 93  1  0  0  0
  4  5  1  0  0  0
  4 94  1  0  0  0
  4 95  1  0  0  0
  5  6  1  0  0  0
  5 26  1  0  0  0
  5 96  1  0  0  0
  6 25  1  0  0  0
  6 97  1  0  0  0
  6 98  1  0  0  0
  7  8  2  0  0  0
  7 26  1  0  0  0
  7 29  1  0  0  0
  8  9  1  0  0  0
  8 22  1  0  0  0
  9 10  1  0  0  0
  9 27  2  0  0  0
 10 11  2  0  0  0
 10 15  1  0  0  0
 11 12  1  0  0  0
 11 99  1  0  0  0
 12 13  2  0  0  0
 12100  1  0  0  0
 13 14  1  0  0  0
 13 31  1  0  0  0
 14 15  2  0  0  0
 14101  1  0  0  0
 15102  1  0  0  0
 16 17  2  0  0  0
 16 21  1  0  0  0
 16 31  1  0  0  0
 17 18  1  0  0  0
 17103  1  0  0  0
 18 19  2  0  0  0
 18104  1  0  0  0
 19 20  1  0  0  0
 19 24  1  0  0  0
 20 21  2  0  0  0
 20105  1  0  0  0
 21 23  1  0  0  0
 22 28  1  0  0  0
 22 32  2  0  0  0
 26 27  1  0  0  0
 28106  1  0  0  0
 28107  1  0  0  0
 29108  1  0  0  0
 29109  1  0  0  0
 33 34  1  0  0  0
 33 66  1  0  0  0
 33 70  2  0  0  0
 34 36  1  0  0  0
 34 59  1  0  0  0
 34110  1  0  0  0
 35 44  2  0  0  0
 35 45  1  0  0  0
 35 68  1  0  0  0
 36 56  1  0  0  0
 36111  1  0  0  0
 37 39  1  0  0  0
 37 47  1  0  0  0
 37 66  1  0  0  0
 37112  1  0  0  0
 38 43  2  0  0  0
 38 46  1  0  0  0
 38 47  1  0  0  0
 39 64  1  0  0  0
 39 67  2  0  0  0
 40 52  1  0  0  0
 40 53  2  0  0  0
 40 58  1  0  0  0
 41113  1  0  0  0
 41114  1  0  0  0
 41115  1  0  0  0
 41 48  1  0  0  0
 42 43  1  0  0  0
 42 66  1  0  0  0
 42116  1  0  0  0
 42117  1  0  0  0
 43 44  1  0  0  0
 44118  1  0  0  0
 45 46  2  0  0  0
 45119  1  0  0  0
 46120  1  0  0  0
 47121  1  0  0  0
 47122  1  0  0  0
 48 56  1  0  0  0
 48 65  1  0  0  0
 48123  1  0  0  0
 49 50  1  0  0  0
 49 53  1  0  0  0
 49 64  1  0  0  0
 49124  1  0  0  0
 50 51  1  0  0  0
 50125  1  0  0  0
 50126  1  0  0  0
 51 52  1  0  0  0
 51127  1  0  0  0
 51128  1  0  0  0
 52129  1  0  0  0
 52130  1  0  0  0
 53 54  1  0  0  0
 54 55  2  0  0  0
 54131  1  0  0  0
 55 57  1  0  0  0
 55132  1  0  0  0
 56 69  2  0  0  0
 57 58  2  0  0  0
 57133  1  0  0  0
 58134  1  0  0  0
 59 60  1  0  0  0
 59 61  1  0  0  0
 59 62  1  0  0  0
 60135  1  0  0  0
 60136  1  0  0  0
 60137  1  0  0  0
 61138  1  0  0  0
 61139  1  0  0  0
 61140  1  0  0  0
 62141  1  0  0  0
 62142  1  0  0  0
 62143  1  0  0  0
 63 65  1  0  0  0
 63144  1  0  0  0
 63145  1  0  0  0
 63146  1  0  0  0
 64147  1  0  0  0
 65148  1  0  0  0
 68 85  1  0  0  0
 71 72  2  0  0  0
 71 77  1  0  0  0
 71149  1  0  0  0
 72 79  1  0  0  0
 72150  1  0  0  0
 73 74  2  0  0  0
 73 80  1  0  0  0
 73151  1  0  0  0
 74 81  1  0  0  0
 74152  1  0  0  0
 75 78  1  0  0  0
 75 79  2  0  0  0
 75153  1  0  0  0
 76 80  2  0  0  0
 76 82  1  0  0  0
 76154  1  0  0  0
 77 78  2  0  0  0
 77 85  1  0  0  0
 78 83  1  0  0  0
 79 88  1  0  0  0
 80 88  1  0  0  0
 81 82  2  0  0  0
 81 87  1  0  0  0
 82 89  1  0  0  0
 83155  1  0  0  0
 83156  1  0  0  0
 83157  1  0  0  0
 84 86  1  0  0  0
 84158  1  0  0  0
 84159  1  0  0  0
 84160  1  0  0  0
 85161  1  0  0  0
 85162  1  0  0  0
 86 88  1  0  0  0
 86163  1  0  0  0
 86164  1  0  0  0
 87165  1  0  0  0
M  ISO  4   1 100  68 101  85 101  87 100
M  END
> <chiral flag>
0

> <version>
0

> <s_m_source_file>
/data/baiqing/PycharmProjects/Reinvent-master-3.2/result/LINK_invent/BTK/process_docking_weight1_custom_product_contain_oxygen_bond_distance_aromatic_linkinvent_7_9_3/rearranged_h_0015.sdf

> <i_m_source_file_index>
94

> <r_mmod_Potential_Energy-OPLS-2005>
-24.8575477600098

> <r_mmod_Stretch_Energy-OPLS-2005>
41.2771873474121

> <r_mmod_Bend_Energy-OPLS-2005>
107.999908447266

> <r_mmod_Torsional_Energy-OPLS-2005>
264.642974853516

> <r_mmod_Improper_Torsional_Energy-OPLS-2005>
7.05403852462769

> <r_mmod_Van_der_Waal_Energy-OPLS-2005>
180.643463134766

> <r_mmod_Electrostatic_Energy-OPLS-2005>
-446.944213867188

> <r_mmod_Solvation_Energy-OPLS-2005>
-192.627716064453

> <b_mmod_Minimization_Converged-OPLS-2005>
0

> <r_mmod_RMS_Derivative-OPLS-2005>
2.08058071136475

$$$$
94
                    3D
 Structure written by MMmdl.
155163  0  0  1  0            999 V2000
  -30.5503  -14.9307   20.3498 C   0  0  0  0  0  0
  -30.4458  -12.5557   19.4852 C   0  0  0  0  0  0
  -29.5220  -12.4442   18.2508 C   0  0  0  0  0  0
  -28.0448  -12.2909   18.6722 C   0  0  0  0  0  0
  -27.6250  -13.2319   19.8351 C   0  0  2  0  0  0
  -28.6810  -13.2846   20.9562 C   0  0  0  0  0  0
  -25.2482  -13.8175   20.5757 C   0  0  0  0  0  0
  -24.1772  -13.0423   20.9249 C   0  0  0  0  0  0
  -24.6366  -11.6900   20.8790 C   0  0  0  0  0  0
  -23.9046  -10.4282   21.0429 C   0  0  0  0  0  0
  -24.3600   -9.4194   21.9199 C   0  0  0  0  0  0
  -23.6281   -8.2228   22.0760 C   0  0  0  0  0  0
  -22.4267   -8.0271   21.3546 C   0  0  0  0  0  0
  -21.9902   -9.0244   20.4651 C   0  0  0  0  0  0
  -22.7225  -10.2128   20.3067 C   0  0  0  0  0  0
  -21.6849   -6.0725   22.5276 C   0  0  0  0  0  0
  -21.4011   -6.5631   23.8207 C   0  0  0  0  0  0
  -21.3660   -5.6789   24.9173 C   0  0  0  0  0  0
  -21.6044   -4.3051   24.7228 C   0  0  0  0  0  0
  -21.8818   -3.8138   23.4350 C   0  0  0  0  0  0
  -21.9191   -4.6954   22.3403 C   0  0  0  0  0  0
  -22.7799  -13.5215   21.1885 C   0  0  0  0  0  0
  -22.1663   -4.2139   21.0983 F   0  0  0  0  0  0
  -21.5631   -3.4531   25.7740 F   0  0  0  0  0  0
  -29.9467  -13.6761   20.3238 N   0  0  0  0  0  0
  -26.2882  -12.9360   20.3318 N   0  0  0  0  0  0
  -25.9296  -11.6512   20.5808 N   0  0  0  0  0  0
  -22.0436  -12.8213   22.0436 N   0  0  0  0  0  0
  -25.4182  -15.1904   20.4175 N   0  0  0  0  0  0
  -31.7834  -14.9624   20.2694 O   0  0  0  0  0  0
  -21.6636   -6.8865   21.4236 O   0  0  0  0  0  0
  -22.3494  -14.5518   20.6722 O   0  0  0  0  0  0
  -24.6416  -31.8469   23.1910 C   0  0  0  0  0  0
  -25.9201  -32.4711   23.8289 C   0  0  1  0  0  0
  -27.2156  -27.1616   20.1452 C   0  0  0  0  0  0
  -25.5958  -33.8516   24.2206 N   0  0  0  0  0  0
  -23.4436  -30.4681   21.5365 C   0  0  2  0  0  0
  -24.8921  -28.9019   20.1107 C   0  0  0  0  0  0
  -22.7562  -29.4563   22.4871 C   0  0  0  0  0  0
  -18.0306  -28.1391   22.8477 C   0  0  0  0  0  0
  -24.1494  -36.7258   23.2640 C   0  0  0  0  0  0
  -25.9987  -30.7289   21.3868 C   0  0  0  0  0  0
  -26.0700  -29.3436   20.7263 C   0  0  0  0  0  0
  -27.2338  -28.4897   20.7265 C   0  0  0  0  0  0
  -26.0098  -26.8178   19.4918 C   0  0  0  0  0  0
  -24.8737  -27.6512   19.4787 C   0  0  0  0  0  0
  -23.6684  -29.8011   20.1547 C   0  0  0  0  0  0
  -25.4124  -36.3039   24.0317 C   0  0  1  0  0  0
  -20.5916  -28.3721   23.1243 C   0  0  2  0  0  0
  -20.6796  -26.9427   22.5407 C   0  0  0  0  0  0
  -19.5771  -26.6385   21.5214 C   0  0  0  0  0  0
  -18.1950  -26.7932   22.1624 C   0  0  0  0  0  0
  -19.1560  -28.8875   23.2851 C   0  0  0  0  0  0
  -18.9472  -30.1470   23.8875 C   0  0  0  0  0  0
  -17.6467  -30.6588   24.0558 C   0  0  0  0  0  0
  -25.9074  -34.9416   23.5068 C   0  0  0  0  0  0
  -16.5359  -29.9080   23.6333 C   0  0  0  0  0  0
  -16.7289  -28.6497   23.0355 C   0  0  0  0  0  0
  -26.4526  -31.6571   25.0722 C   0  0  0  0  0  0
  -25.3713  -31.3755   26.1420 C   0  0  0  0  0  0
  -27.0390  -30.2970   24.6288 C   0  0  0  0  0  0
  -27.6057  -32.4334   25.7507 C   0  0  0  0  0  0
  -27.5576  -37.1787   24.8464 C   0  0  0  0  0  0
  -21.4256  -29.3055   22.3622 N   0  0  0  0  0  0
  -26.4289  -37.3751   23.9407 N   0  0  0  0  0  0
  -24.7144  -31.0349   22.0933 N   0  0  0  0  0  0
  -23.4222  -28.8109   23.3008 O   0  0  0  0  0  0
  -28.2699  -26.1848   20.2165 O   0  0  0  0  0  0
  -26.5653  -34.8905   22.4641 O   0  0  0  0  0  0
  -23.5543  -32.1336   23.7143 O   0  0  0  0  0  0
  -28.1785  -19.4169   21.0748 C   0  0  0  0  0  0
  -28.5426  -18.0169   21.0178 C   0  0  0  0  0  0
  -30.0894  -20.0076   19.8365 C   0  0  0  0  0  0
  -28.8870  -20.5031   20.4425 C   0  0  0  0  0  0
  -29.6861  -17.5152   20.3260 C   0  0  0  0  0  0
  -30.4611  -18.5981   19.7651 C   0  0  0  0  0  0
  -29.6251  -15.9865   18.4272 C   0  0  0  0  0  0
  -26.8533  -21.8526   20.2572 C   0  0  0  0  0  0
  -28.9180  -23.3214   20.3611 C   0  0  0  0  0  0
  -27.9472  -24.6747   20.1021 C   0  0  0  0  0  0
  -29.8016  -16.0553   19.8908 N   0  0  0  0  0  0
  -28.3165  -21.8819   20.3486 N   0  0  0  0  0  0
  -31.5675  -18.2808   19.0493 F   0  0  0  0  0  0
  -31.4762  -12.7168   19.1642 H   0  0  0  0  0  0
  -30.4488  -11.6247   20.0539 H   0  0  0  0  0  0
  -29.8190  -11.5867   17.6449 H   0  0  0  0  0  0
  -29.6478  -13.3084   17.6025 H   0  0  0  0  0  0
  -27.9142  -11.2544   18.9842 H   0  0  0  0  0  0
  -27.3872  -12.4314   17.8135 H   0  0  0  0  0  0
  -27.5602  -14.2277   19.4087 H   0  0  0  0  0  0
  -28.7718  -12.3232   21.4633 H   0  0  0  0  0  0
  -28.3968  -14.0164   21.7144 H   0  0  0  0  0  0
  -25.2742   -9.5671   22.4778 H   0  0  0  0  0  0
  -23.9987   -7.4618   22.7479 H   0  0  0  0  0  0
  -21.0835   -8.8760   19.8957 H   0  0  0  0  0  0
  -22.3682  -10.9667   19.6176 H   0  0  0  0  0  0
  -21.2004   -7.6140   23.9702 H   0  0  0  0  0  0
  -21.1486   -6.0527   25.9075 H   0  0  0  0  0  0
  -22.0600   -2.7600   23.2855 H   0  0  0  0  0  0
  -22.4047  -11.9878   22.4835 H   0  0  0  0  0  0
  -21.1053  -13.1248   22.2623 H   0  0  0  0  0  0
  -24.6510  -15.8451   20.5213 H   0  0  0  0  0  0
  -26.2708  -15.6262   20.0903 H   0  0  0  0  0  0
  -26.7268  -32.5323   23.1020 H   0  0  0  0  0  0
  -25.0099  -33.9639   25.0350 H   0  0  0  0  0  0
  -22.7442  -31.2928   21.3852 H   0  0  0  0  0  0
  -23.3760  -35.9585   23.3292 H   0  0  0  0  0  0
  -24.3575  -36.8897   22.2054 H   0  0  0  0  0  0
  -23.7245  -37.6451   23.6681 H   0  0  0  0  0  0
  -26.1531  -31.4859   20.6171 H   0  0  0  0  0  0
  -26.8697  -30.7762   22.0287 H   0  0  0  0  0  0
  -28.1309  -28.8225   21.2290 H   0  0  0  0  0  0
  -25.9027  -25.8648   18.9979 H   0  0  0  0  0  0
  -23.9743  -27.3078   18.9865 H   0  0  0  0  0  0
  -23.8038  -30.5771   19.4003 H   0  0  0  0  0  0
  -22.7836  -29.2427   19.8440 H   0  0  0  0  0  0
  -25.1312  -36.1870   25.0810 H   0  0  0  0  0  0
  -21.0001  -28.3310   24.1367 H   0  0  0  0  0  0
  -20.5698  -26.2333   23.3625 H   0  0  0  0  0  0
  -21.6662  -26.7446   22.1197 H   0  0  0  0  0  0
  -19.6937  -25.6291   21.1255 H   0  0  0  0  0  0
  -19.6709  -27.3189   20.6740 H   0  0  0  0  0  0
  -17.4220  -26.6674   21.4025 H   0  0  0  0  0  0
  -18.0353  -26.0075   22.9023 H   0  0  0  0  0  0
  -19.7946  -30.7291   24.2237 H   0  0  0  0  0  0
  -17.5018  -31.6268   24.5160 H   0  0  0  0  0  0
  -15.5358  -30.2971   23.7664 H   0  0  0  0  0  0
  -15.8693  -28.0808   22.7082 H   0  0  0  0  0  0
  -24.5900  -30.7094   25.7739 H   0  0  0  0  0  0
  -24.8895  -32.2936   26.4791 H   0  0  0  0  0  0
  -25.8001  -30.8966   27.0232 H   0  0  0  0  0  0
  -26.3008  -29.6694   24.1284 H   0  0  0  0  0  0
  -27.3998  -29.7266   25.4857 H   0  0  0  0  0  0
  -27.8917  -30.4207   23.9609 H   0  0  0  0  0  0
  -27.2651  -33.3651   26.2036 H   0  0  0  0  0  0
  -28.3896  -32.6869   25.0358 H   0  0  0  0  0  0
  -28.0695  -31.8494   26.5465 H   0  0  0  0  0  0
  -28.2590  -38.0089   24.7510 H   0  0  0  0  0  0
  -28.1080  -36.2618   24.6299 H   0  0  0  0  0  0
  -27.2290  -37.1440   25.8866 H   0  0  0  0  0  0
  -20.9463  -29.8775   21.6809 H   0  0  0  0  0  0
  -26.0157  -38.2819   24.1409 H   0  0  0  0  0  0
  -27.2576  -19.6375   21.5953 H   0  0  0  0  0  0
  -27.8557  -17.3039   21.4502 H   0  0  0  0  0  0
  -30.7229  -20.7134   19.3209 H   0  0  0  0  0  0
  -29.2935  -16.9319   17.9958 H   0  0  0  0  0  0
  -28.8664  -15.2694   18.1348 H   0  0  0  0  0  0
  -30.5535  -15.7239   17.9150 H   0  0  0  0  0  0
  -26.4708  -20.9033   19.8794 H   0  0  0  0  0  0
  -26.4776  -22.6033   19.5630 H   0  0  0  0  0  0
  -26.4005  -22.0367   21.2329 H   0  0  0  0  0  0
  -29.4020  -23.4463   21.3306 H   0  0  0  0  0  0
  -29.7293  -23.3443   19.6325 H   0  0  0  0  0  0
  -27.0828  -24.5435   20.7540 H   0  0  0  0  0  0
  -27.5789  -24.5446   19.0852 H   0  0  0  0  0  0
  1 25  1  0  0  0
  1 30  2  0  0  0
  1 81  1  0  0  0
  2  3  1  0  0  0
  2 25  1  0  0  0
  2 84  1  0  0  0
  2 85  1  0  0  0
  3  4  1  0  0  0
  3 86  1  0  0  0
  3 87  1  0  0  0
  4  5  1  0  0  0
  4 88  1  0  0  0
  4 89  1  0  0  0
  5  6  1  0  0  0
  5 26  1  0  0  0
  5 90  1  0  0  0
  6 25  1  0  0  0
  6 91  1  0  0  0
  6 92  1  0  0  0
  7  8  2  0  0  0
  7 26  1  0  0  0
  7 29  1  0  0  0
  8  9  1  0  0  0
  8 22  1  0  0  0
  9 10  1  0  0  0
  9 27  2  0  0  0
 10 11  2  0  0  0
 10 15  1  0  0  0
 11 12  1  0  0  0
 11 93  1  0  0  0
 12 13  2  0  0  0
 12 94  1  0  0  0
 13 14  1  0  0  0
 13 31  1  0  0  0
 14 15  2  0  0  0
 14 95  1  0  0  0
 15 96  1  0  0  0
 16 17  2  0  0  0
 16 21  1  0  0  0
 16 31  1  0  0  0
 17 18  1  0  0  0
 17 97  1  0  0  0
 18 19  2  0  0  0
 18 98  1  0  0  0
 19 20  1  0  0  0
 19 24  1  0  0  0
 20 21  2  0  0  0
 20 99  1  0  0  0
 21 23  1  0  0  0
 22 28  1  0  0  0
 22 32  2  0  0  0
 26 27  1  0  0  0
 28100  1  0  0  0
 28101  1  0  0  0
 29102  1  0  0  0
 29103  1  0  0  0
 33 34  1  0  0  0
 33 66  1  0  0  0
 33 70  2  0  0  0
 34 36  1  0  0  0
 34 59  1  0  0  0
 34104  1  0  0  0
 35 44  2  0  0  0
 35 45  1  0  0  0
 35 68  1  0  0  0
 36 56  1  0  0  0
 36105  1  0  0  0
 37 39  1  0  0  0
 37 47  1  0  0  0
 37 66  1  0  0  0
 37106  1  0  0  0
 38 43  2  0  0  0
 38 46  1  0  0  0
 38 47  1  0  0  0
 39 64  1  0  0  0
 39 67  2  0  0  0
 40 52  1  0  0  0
 40 53  2  0  0  0
 40 58  1  0  0  0
 41107  1  0  0  0
 41108  1  0  0  0
 41109  1  0  0  0
 41 48  1  0  0  0
 42 43  1  0  0  0
 42 66  1  0  0  0
 42110  1  0  0  0
 42111  1  0  0  0
 43 44  1  0  0  0
 44112  1  0  0  0
 45 46  2  0  0  0
 45113  1  0  0  0
 46114  1  0  0  0
 47115  1  0  0  0
 47116  1  0  0  0
 48 56  1  0  0  0
 48 65  1  0  0  0
 48117  1  0  0  0
 49 50  1  0  0  0
 49 53  1  0  0  0
 49 64  1  0  0  0
 49118  1  0  0  0
 50 51  1  0  0  0
 50119  1  0  0  0
 50120  1  0  0  0
 51 52  1  0  0  0
 51121  1  0  0  0
 51122  1  0  0  0
 52123  1  0  0  0
 52124  1  0  0  0
 53 54  1  0  0  0
 54 55  2  0  0  0
 54125  1  0  0  0
 55 57  1  0  0  0
 55126  1  0  0  0
 56 69  2  0  0  0
 57 58  2  0  0  0
 57127  1  0  0  0
 58128  1  0  0  0
 59 60  1  0  0  0
 59 61  1  0  0  0
 59 62  1  0  0  0
 60129  1  0  0  0
 60130  1  0  0  0
 60131  1  0  0  0
 61132  1  0  0  0
 61133  1  0  0  0
 61134  1  0  0  0
 62135  1  0  0  0
 62136  1  0  0  0
 62137  1  0  0  0
 63 65  1  0  0  0
 63138  1  0  0  0
 63139  1  0  0  0
 63140  1  0  0  0
 64141  1  0  0  0
 65142  1  0  0  0
 68 80  1  0  0  0
 71 72  2  0  0  0
 71 74  1  0  0  0
 71143  1  0  0  0
 72 75  1  0  0  0
 72144  1  0  0  0
 73 74  2  0  0  0
 73 76  1  0  0  0
 73145  1  0  0  0
 74 82  1  0  0  0
 75 76  2  0  0  0
 75 81  1  0  0  0
 76 83  1  0  0  0
 77 81  1  0  0  0
 77146  1  0  0  0
 77147  1  0  0  0
 77148  1  0  0  0
 78 82  1  0  0  0
 78149  1  0  0  0
 78150  1  0  0  0
 78151  1  0  0  0
 79 80  1  0  0  0
 79 82  1  0  0  0
 79152  1  0  0  0
 79153  1  0  0  0
 80154  1  0  0  0
 80155  1  0  0  0
M  ISO  4   1 100  68 101  80 101  81 100
M  END
> <chiral flag>
0

> <version>
0

> <s_m_source_file>
/data/baiqing/PycharmProjects/Reinvent-master-3.2/result/LINK_invent/BTK/process_docking_weight1_custom_product_contain_oxygen_bond_distance_aromatic_linkinvent_7_9_3/rearranged_h_0015.sdf

> <i_m_source_file_index>
95

> <r_mmod_Potential_Energy-OPLS-2005>
672.498718261719

> <r_mmod_Stretch_Energy-OPLS-2005>
216.54182434082

> <r_mmod_Bend_Energy-OPLS-2005>
265.249755859375

> <r_mmod_Torsional_Energy-OPLS-2005>
345.442291259766

> <r_mmod_Improper_Torsional_Energy-OPLS-2005>
27.1975555419922

> <r_mmod_Van_der_Waal_Energy-OPLS-2005>
148.807952880859

> <r_mmod_Electrostatic_Energy-OPLS-2005>
-297.758117675781

> <r_mmod_Solvation_Energy-OPLS-2005>
-217.574096679688

> <b_mmod_Minimization_Converged-OPLS-2005>
0

> <r_mmod_RMS_Derivative-OPLS-2005>
0.730960071086884

$$$$
95
                    3D
 Structure written by MMmdl.
181189  0  0  1  0            999 V2000
  -30.6909  -14.4930   20.6655 C   0  0  0  0  0  0
  -30.4353  -12.3562   19.4115 C   0  0  0  0  0  0
  -29.5038  -12.5359   18.1938 C   0  0  0  0  0  0
  -28.0213  -12.3829   18.5946 C   0  0  0  0  0  0
  -27.6597  -13.2054   19.8567 C   0  0  2  0  0  0
  -28.6885  -12.9650   20.9744 C   0  0  0  0  0  0
  -25.2610  -13.8138   20.5641 C   0  0  0  0  0  0
  -24.1865  -13.0424   20.9179 C   0  0  0  0  0  0
  -24.6401  -11.6885   20.8696 C   0  0  0  0  0  0
  -23.9058  -10.4282   21.0388 C   0  0  0  0  0  0
  -24.3608   -9.4208   21.9183 C   0  0  0  0  0  0
  -23.6280   -8.2251   22.0779 C   0  0  0  0  0  0
  -22.4270   -8.0280   21.3559 C   0  0  0  0  0  0
  -21.9892   -9.0252   20.4668 C   0  0  0  0  0  0
  -22.7225  -10.2125   20.3050 C   0  0  0  0  0  0
  -21.6847   -6.0725   22.5285 C   0  0  0  0  0  0
  -21.4015   -6.5636   23.8219 C   0  0  0  0  0  0
  -21.3651   -5.6787   24.9177 C   0  0  0  0  0  0
  -21.6037   -4.3057   24.7231 C   0  0  0  0  0  0
  -21.8815   -3.8144   23.4356 C   0  0  0  0  0  0
  -21.9203   -4.6952   22.3409 C   0  0  0  0  0  0
  -22.7898  -13.5258   21.1828 C   0  0  0  0  0  0
  -22.1674   -4.2137   21.0986 F   0  0  0  0  0  0
  -21.5617   -3.4544   25.7747 F   0  0  0  0  0  0
  -30.0269  -13.3135   20.4586 N   0  0  0  0  0  0
  -26.3009  -12.9300   20.3197 N   0  0  0  0  0  0
  -25.9312  -11.6461   20.5637 N   0  0  0  0  0  0
  -22.0500  -12.8278   22.0373 N   0  0  0  0  0  0
  -25.4318  -15.1858   20.4094 N   0  0  0  0  0  0
  -31.7373  -14.7676   20.0649 O   0  0  0  0  0  0
  -21.6649   -6.8867   21.4247 O   0  0  0  0  0  0
  -22.3615  -14.5568   20.6666 O   0  0  0  0  0  0
  -24.6199  -31.8598   23.2081 C   0  0  0  0  0  0
  -25.9066  -32.4764   23.8391 C   0  0  1  0  0  0
  -27.2121  -27.3636   20.0993 C   0  0  0  0  0  0
  -25.5891  -33.8571   24.2283 N   0  0  0  0  0  0
  -23.4080  -30.4911   21.5445 C   0  0  2  0  0  0
  -24.8478  -28.9475   20.1072 C   0  0  0  0  0  0
  -22.7435  -29.4635   22.4914 C   0  0  0  0  0  0
  -18.0287  -28.1378   22.8477 C   0  0  0  0  0  0
  -24.1476  -36.7321   23.2657 C   0  0  0  0  0  0
  -25.9445  -30.8031   21.3699 C   0  0  0  0  0  0
  -26.0122  -29.4340   20.7142 C   0  0  0  0  0  0
  -27.1929  -28.6482   20.7087 C   0  0  0  0  0  0
  -26.0215  -26.9026   19.4936 C   0  0  0  0  0  0
  -24.8511  -27.6848   19.4932 C   0  0  0  0  0  0
  -23.6178  -29.8287   20.1557 C   0  0  0  0  0  0
  -25.4085  -36.3076   24.0342 C   0  0  1  0  0  0
  -20.5878  -28.3678   23.1278 C   0  0  2  0  0  0
  -20.6790  -26.9404   22.5409 C   0  0  0  0  0  0
  -19.5767  -26.6370   21.5215 C   0  0  0  0  0  0
  -18.1930  -26.7912   22.1612 C   0  0  0  0  0  0
  -19.1542  -28.8837   23.2875 C   0  0  0  0  0  0
  -18.9485  -30.1433   23.8891 C   0  0  0  0  0  0
  -17.6481  -30.6578   24.0575 C   0  0  0  0  0  0
  -25.9028  -34.9442   23.5109 C   0  0  0  0  0  0
  -16.5377  -29.9083   23.6344 C   0  0  0  0  0  0
  -16.7283  -28.6498   23.0347 C   0  0  0  0  0  0
  -26.4479  -31.6570   25.0755 C   0  0  0  0  0  0
  -25.3771  -31.3692   26.1549 C   0  0  0  0  0  0
  -27.0318  -30.3000   24.6163 C   0  0  0  0  0  0
  -27.6009  -32.4345   25.7517 C   0  0  0  0  0  0
  -27.5549  -37.1803   24.8465 C   0  0  0  0  0  0
  -21.4151  -29.3040   22.3673 N   0  0  0  0  0  0
  -26.4251  -37.3760   23.9422 N   0  0  0  0  0  0
  -24.6769  -31.0681   22.0978 N   0  0  0  0  0  0
  -23.4190  -28.8179   23.2975 O   0  0  0  0  0  0
  -28.3661  -26.5868   20.1390 O   0  0  0  0  0  0
  -26.5614  -34.8903   22.4684 O   0  0  0  0  0  0
  -23.5382  -32.1361   23.7463 O   0  0  0  0  0  0
  -29.2997  -19.1888   20.6874 C   0  0  0  0  0  0
  -30.5355  -19.7681   23.0887 C   0  0  0  0  0  0
  -29.6958  -18.0904   21.5195 C   0  0  0  0  0  0
  -29.5663  -20.5738   20.9798 C   0  0  0  0  0  0
  -30.2912  -20.8282   22.1937 C   0  0  0  0  0  0
  -30.2678  -18.4346   22.7674 C   0  0  0  0  0  0
  -30.8560  -21.5572   18.2844 C   0  0  0  0  0  0
  -33.6702  -20.6275   22.1379 C   0  0  0  0  0  0
  -34.4486  -22.8795   21.3863 C   0  0  0  0  0  0
  -30.7006  -22.5571   23.9015 C   0  0  0  0  0  0
  -30.1433  -15.0555   22.9447 C   0  0  0  0  0  0
  -29.3838  -16.6252   21.0458 C   0  0  0  0  0  0
  -27.9855  -23.9968   19.8032 C   0  0  0  0  0  0
  -29.3831  -21.3571   18.6593 C   0  0  0  0  0  0
  -29.0375  -23.0555   20.4978 C   0  0  0  0  0  0
  -31.9778  -22.5280   21.7091 C   0  0  0  0  0  0
  -28.4999  -25.4027   19.3030 C   0  0  0  0  0  0
  -33.3872  -22.1382   22.2130 C   0  0  0  0  0  0
  -30.8538  -22.0754   22.5326 N   0  0  0  0  0  0
  -29.1157  -21.6164   20.0817 N   0  0  0  0  0  0
  -30.1049  -15.3869   21.5149 N   0  0  0  0  0  0
  -30.5912  -17.5248   23.7034 F   0  0  0  0  0  0
  -31.4750  -12.4913   19.1080 H   0  0  0  0  0  0
  -30.3746  -11.3357   19.7930 H   0  0  0  0  0  0
  -29.7552  -11.8097   17.4186 H   0  0  0  0  0  0
  -29.6653  -13.5209   17.7494 H   0  0  0  0  0  0
  -27.8314  -11.3240   18.7748 H   0  0  0  0  0  0
  -27.3775  -12.6716   17.7616 H   0  0  0  0  0  0
  -27.7067  -14.2602   19.5799 H   0  0  0  0  0  0
  -28.6788  -11.9197   21.2849 H   0  0  0  0  0  0
  -28.3785  -13.5289   21.8496 H   0  0  0  0  0  0
  -25.2742   -9.5698   22.4772 H   0  0  0  0  0  0
  -23.9982   -7.4652   22.7508 H   0  0  0  0  0  0
  -21.0825   -8.8761   19.8985 H   0  0  0  0  0  0
  -22.3673  -10.9661   19.6167 H   0  0  0  0  0  0
  -21.2006   -7.6142   23.9712 H   0  0  0  0  0  0
  -21.1471   -6.0523   25.9070 H   0  0  0  0  0  0
  -22.0599   -2.7607   23.2864 H   0  0  0  0  0  0
  -22.4083  -11.9953   22.4798 H   0  0  0  0  0  0
  -21.1108  -13.1337   22.2500 H   0  0  0  0  0  0
  -24.6621  -15.8335   20.5360 H   0  0  0  0  0  0
  -26.2667  -15.6250   20.0470 H   0  0  0  0  0  0
  -26.7121  -32.5425   23.1127 H   0  0  0  0  0  0
  -25.0048  -33.9725   25.0437 H   0  0  0  0  0  0
  -22.7003  -31.3114   21.4060 H   0  0  0  0  0  0
  -23.3701  -35.9693   23.3312 H   0  0  0  0  0  0
  -24.3585  -36.8945   22.2073 H   0  0  0  0  0  0
  -23.7251  -37.6537   23.6687 H   0  0  0  0  0  0
  -26.0699  -31.5632   20.5994 H   0  0  0  0  0  0
  -26.8297  -30.8499   21.9922 H   0  0  0  0  0  0
  -28.0894  -29.0156   21.1861 H   0  0  0  0  0  0
  -25.9650  -25.9261   19.0368 H   0  0  0  0  0  0
  -23.9551  -27.3025   19.0240 H   0  0  0  0  0  0
  -23.7363  -30.6086   19.4022 H   0  0  0  0  0  0
  -22.7373  -29.2618   19.8523 H   0  0  0  0  0  0
  -25.1233  -36.1927   25.0826 H   0  0  0  0  0  0
  -20.9994  -28.3272   24.1398 H   0  0  0  0  0  0
  -20.5695  -26.2292   23.3604 H   0  0  0  0  0  0
  -21.6654  -26.7441   22.1192 H   0  0  0  0  0  0
  -19.6951  -25.6288   21.1221 H   0  0  0  0  0  0
  -19.6715  -27.3214   20.6761 H   0  0  0  0  0  0
  -17.4211  -26.6683   21.4002 H   0  0  0  0  0  0
  -18.0332  -26.0030   22.8983 H   0  0  0  0  0  0
  -19.7980  -30.7247   24.2244 H   0  0  0  0  0  0
  -17.5067  -31.6273   24.5183 H   0  0  0  0  0  0
  -15.5385  -30.3005   23.7665 H   0  0  0  0  0  0
  -15.8669  -28.0843   22.7047 H   0  0  0  0  0  0
  -24.5950  -30.6976   25.7977 H   0  0  0  0  0  0
  -24.8979  -32.2855   26.5012 H   0  0  0  0  0  0
  -25.8208  -30.8915   27.0294 H   0  0  0  0  0  0
  -26.2863  -29.6752   24.1229 H   0  0  0  0  0  0
  -27.4066  -29.7244   25.4630 H   0  0  0  0  0  0
  -27.8699  -30.4284   23.9315 H   0  0  0  0  0  0
  -27.2554  -33.3631   26.2073 H   0  0  0  0  0  0
  -28.3834  -32.6926   25.0375 H   0  0  0  0  0  0
  -28.0649  -31.8497   26.5470 H   0  0  0  0  0  0
  -28.2548  -38.0112   24.7484 H   0  0  0  0  0  0
  -28.1034  -36.2627   24.6276 H   0  0  0  0  0  0
  -27.2297  -37.1464   25.8880 H   0  0  0  0  0  0
  -20.9313  -29.8788   21.6913 H   0  0  0  0  0  0
  -26.0129  -38.2825   24.1434 H   0  0  0  0  0  0
  -28.7564  -18.9311   19.7923 H   0  0  0  0  0  0
  -31.0198  -19.9539   24.0368 H   0  0  0  0  0  0
  -31.0080  -21.3924   17.2177 H   0  0  0  0  0  0
  -31.5063  -20.8618   18.8176 H   0  0  0  0  0  0
  -31.1891  -22.5733   18.4982 H   0  0  0  0  0  0
  -34.7247  -20.4130   22.3136 H   0  0  0  0  0  0
  -33.4116  -20.2249   21.1585 H   0  0  0  0  0  0
  -33.1187  -20.0700   22.8919 H   0  0  0  0  0  0
  -35.4522  -22.6626   21.7524 H   0  0  0  0  0  0
  -34.3137  -23.9607   21.4319 H   0  0  0  0  0  0
  -34.4094  -22.5835   20.3371 H   0  0  0  0  0  0
  -29.7322  -22.2737   24.3158 H   0  0  0  0  0  0
  -30.7692  -23.6451   23.9366 H   0  0  0  0  0  0
  -31.4802  -22.1449   24.5399 H   0  0  0  0  0  0
  -29.3292  -15.5384   23.4830 H   0  0  0  0  0  0
  -31.1048  -15.3389   23.3713 H   0  0  0  0  0  0
  -30.0553  -13.9879   23.1429 H   0  0  0  0  0  0
  -29.4472  -16.6411   19.9559 H   0  0  0  0  0  0
  -28.3281  -16.4553   21.2546 H   0  0  0  0  0  0
  -27.1287  -24.1301   20.4637 H   0  0  0  0  0  0
  -27.5662  -23.4885   18.9361 H   0  0  0  0  0  0
  -29.0665  -20.3612   18.3584 H   0  0  0  0  0  0
  -28.7821  -22.0202   18.0393 H   0  0  0  0  0  0
  -28.8279  -23.1113   21.5662 H   0  0  0  0  0  0
  -30.0191  -23.5018   20.3531 H   0  0  0  0  0  0
  -31.8548  -22.1560   20.6941 H   0  0  0  0  0  0
  -31.9085  -23.6148   21.6400 H   0  0  0  0  0  0
  -28.0473  -25.6130   18.3336 H   0  0  0  0  0  0
  -29.5608  -25.3175   19.0715 H   0  0  0  0  0  0
  -33.4959  -22.4648   23.2473 H   0  0  0  0  0  0
  1 25  1  0  0  0
  1 30  2  0  0  0
  1 91  1  0  0  0
  2  3  1  0  0  0
  2 25  1  0  0  0
  2 93  1  0  0  0
  2 94  1  0  0  0
  3  4  1  0  0  0
  3 95  1  0  0  0
  3 96  1  0  0  0
  4  5  1  0  0  0
  4 97  1  0  0  0
  4 98  1  0  0  0
  5  6  1  0  0  0
  5 26  1  0  0  0
  5 99  1  0  0  0
  6 25  1  0  0  0
  6100  1  0  0  0
  6101  1  0  0  0
  7  8  2  0  0  0
  7 26  1  0  0  0
  7 29  1  0  0  0
  8  9  1  0  0  0
  8 22  1  0  0  0
  9 10  1  0  0  0
  9 27  2  0  0  0
 10 11  2  0  0  0
 10 15  1  0  0  0
 11 12  1  0  0  0
 11102  1  0  0  0
 12 13  2  0  0  0
 12103  1  0  0  0
 13 14  1  0  0  0
 13 31  1  0  0  0
 14 15  2  0  0  0
 14104  1  0  0  0
 15105  1  0  0  0
 16 17  2  0  0  0
 16 21  1  0  0  0
 16 31  1  0  0  0
 17 18  1  0  0  0
 17106  1  0  0  0
 18 19  2  0  0  0
 18107  1  0  0  0
 19 20  1  0  0  0
 19 24  1  0  0  0
 20 21  2  0  0  0
 20108  1  0  0  0
 21 23  1  0  0  0
 22 28  1  0  0  0
 22 32  2  0  0  0
 26 27  1  0  0  0
 28109  1  0  0  0
 28110  1  0  0  0
 29111  1  0  0  0
 29112  1  0  0  0
 33 34  1  0  0  0
 33 66  1  0  0  0
 33 70  2  0  0  0
 34 36  1  0  0  0
 34 59  1  0  0  0
 34113  1  0  0  0
 35 44  2  0  0  0
 35 45  1  0  0  0
 35 68  1  0  0  0
 36 56  1  0  0  0
 36114  1  0  0  0
 37 39  1  0  0  0
 37 47  1  0  0  0
 37 66  1  0  0  0
 37115  1  0  0  0
 38 43  2  0  0  0
 38 46  1  0  0  0
 38 47  1  0  0  0
 39 64  1  0  0  0
 39 67  2  0  0  0
 40 52  1  0  0  0
 40 53  2  0  0  0
 40 58  1  0  0  0
 41116  1  0  0  0
 41117  1  0  0  0
 41118  1  0  0  0
 41 48  1  0  0  0
 42 43  1  0  0  0
 42 66  1  0  0  0
 42119  1  0  0  0
 42120  1  0  0  0
 43 44  1  0  0  0
 44121  1  0  0  0
 45 46  2  0  0  0
 45122  1  0  0  0
 46123  1  0  0  0
 47124  1  0  0  0
 47125  1  0  0  0
 48 56  1  0  0  0
 48 65  1  0  0  0
 48126  1  0  0  0
 49 50  1  0  0  0
 49 53  1  0  0  0
 49 64  1  0  0  0
 49127  1  0  0  0
 50 51  1  0  0  0
 50128  1  0  0  0
 50129  1  0  0  0
 51 52  1  0  0  0
 51130  1  0  0  0
 51131  1  0  0  0
 52132  1  0  0  0
 52133  1  0  0  0
 53 54  1  0  0  0
 54 55  2  0  0  0
 54134  1  0  0  0
 55 57  1  0  0  0
 55135  1  0  0  0
 56 69  2  0  0  0
 57 58  2  0  0  0
 57136  1  0  0  0
 58137  1  0  0  0
 59 60  1  0  0  0
 59 61  1  0  0  0
 59 62  1  0  0  0
 60138  1  0  0  0
 60139  1  0  0  0
 60140  1  0  0  0
 61141  1  0  0  0
 61142  1  0  0  0
 61143  1  0  0  0
 62144  1  0  0  0
 62145  1  0  0  0
 62146  1  0  0  0
 63 65  1  0  0  0
 63147  1  0  0  0
 63148  1  0  0  0
 63149  1  0  0  0
 64150  1  0  0  0
 65151  1  0  0  0
 68 87  1  0  0  0
 71 73  2  0  0  0
 71 74  1  0  0  0
 71152  1  0  0  0
 72 75  1  0  0  0
 72 76  2  0  0  0
 72153  1  0  0  0
 73 76  1  0  0  0
 73 82  1  0  0  0
 74 75  2  0  0  0
 74 90  1  0  0  0
 75 89  1  0  0  0
 76 92  1  0  0  0
 77 84  1  0  0  0
 77154  1  0  0  0
 77155  1  0  0  0
 77156  1  0  0  0
 78157  1  0  0  0
 78158  1  0  0  0
 78159  1  0  0  0
 78 88  1  0  0  0
 79 88  1  0  0  0
 79160  1  0  0  0
 79161  1  0  0  0
 79162  1  0  0  0
 80 89  1  0  0  0
 80163  1  0  0  0
 80164  1  0  0  0
 80165  1  0  0  0
 81 91  1  0  0  0
 81166  1  0  0  0
 81167  1  0  0  0
 81168  1  0  0  0
 82 91  1  0  0  0
 82169  1  0  0  0
 82170  1  0  0  0
 83 85  1  0  0  0
 83 87  1  0  0  0
 83171  1  0  0  0
 83172  1  0  0  0
 84 90  1  0  0  0
 84173  1  0  0  0
 84174  1  0  0  0
 85 90  1  0  0  0
 85175  1  0  0  0
 85176  1  0  0  0
 86 88  1  0  0  0
 86 89  1  0  0  0
 86177  1  0  0  0
 86178  1  0  0  0
 87179  1  0  0  0
 87180  1  0  0  0
 88181  1  0  0  0
M  ISO  4   1 100  68 101  87 101  91 100
M  END
> <chiral flag>
0

> <version>
0

> <s_m_source_file>
/data/baiqing/PycharmProjects/Reinvent-master-3.2/result/LINK_invent/BTK/process_docking_weight1_custom_product_contain_oxygen_bond_distance_aromatic_linkinvent_7_9_3/rearranged_h_0015.sdf

> <i_m_source_file_index>
96

> <r_mmod_Potential_Energy-OPLS-2005>
257.696441650391

> <r_mmod_Stretch_Energy-OPLS-2005>
75.547721862793

> <r_mmod_Bend_Energy-OPLS-2005>
175.856796264648

> <r_mmod_Torsional_Energy-OPLS-2005>
327.686431884766

> <r_mmod_Improper_Torsional_Energy-OPLS-2005>
6.06084203720093

> <r_mmod_Van_der_Waal_Energy-OPLS-2005>
174.566467285156

> <r_mmod_Electrostatic_Energy-OPLS-2005>
-315.846008300781

> <r_mmod_Solvation_Energy-OPLS-2005>
-208.18212890625

> <b_mmod_Minimization_Converged-OPLS-2005>
0

> <r_mmod_RMS_Derivative-OPLS-2005>
3.44148182868958

$$$$
96
                    3D
 Structure written by MMmdl.
163171  0  0  1  0            999 V2000
  -30.7900  -14.3942   20.6409 C   0  0  0  0  0  0
  -30.4077  -12.3016   19.3908 C   0  0  0  0  0  0
  -29.4773  -12.5253   18.1853 C   0  0  0  0  0  0
  -28.0053  -12.3604   18.6065 C   0  0  0  0  0  0
  -27.6550  -13.1966   19.8622 C   0  0  2  0  0  0
  -28.7024  -12.9861   20.9840 C   0  0  0  0  0  0
  -25.2563  -13.8118   20.5699 C   0  0  0  0  0  0
  -24.1811  -13.0409   20.9221 C   0  0  0  0  0  0
  -24.6352  -11.6878   20.8754 C   0  0  0  0  0  0
  -23.9022  -10.4273   21.0434 C   0  0  0  0  0  0
  -24.3581   -9.4184   21.9206 C   0  0  0  0  0  0
  -23.6275   -8.2205   22.0741 C   0  0  0  0  0  0
  -22.4254   -8.0253   21.3539 C   0  0  0  0  0  0
  -21.9894   -9.0231   20.4642 C   0  0  0  0  0  0
  -22.7202  -10.2125   20.3070 C   0  0  0  0  0  0
  -21.6838   -6.0709   22.5279 C   0  0  0  0  0  0
  -21.4001   -6.5612   23.8209 C   0  0  0  0  0  0
  -21.3659   -5.6782   24.9175 C   0  0  0  0  0  0
  -21.6055   -4.3043   24.7219 C   0  0  0  0  0  0
  -21.8815   -3.8121   23.4347 C   0  0  0  0  0  0
  -21.9189   -4.6939   22.3399 C   0  0  0  0  0  0
  -22.7835  -13.5231   21.1886 C   0  0  0  0  0  0
  -22.1660   -4.2126   21.0970 F   0  0  0  0  0  0
  -21.5655   -3.4527   25.7732 F   0  0  0  0  0  0
  -30.0415  -13.2712   20.4393 N   0  0  0  0  0  0
  -26.2986  -12.9268   20.3325 N   0  0  0  0  0  0
  -25.9269  -11.6443   20.5745 N   0  0  0  0  0  0
  -22.0430  -12.8264   22.0432 N   0  0  0  0  0  0
  -25.4293  -15.1819   20.4099 N   0  0  0  0  0  0
  -31.8679  -14.5724   20.0664 O   0  0  0  0  0  0
  -21.6616   -6.8850   21.4240 O   0  0  0  0  0  0
  -22.3558  -14.5547   20.6707 O   0  0  0  0  0  0
  -24.6141  -31.8713   23.2105 C   0  0  0  0  0  0
  -25.9057  -32.4834   23.8390 C   0  0  1  0  0  0
  -27.2326  -27.4477   20.0761 C   0  0  0  0  0  0
  -25.5916  -33.8630   24.2318 N   0  0  0  0  0  0
  -23.3986  -30.4982   21.5526 C   0  0  2  0  0  0
  -24.8400  -28.9682   20.1146 C   0  0  0  0  0  0
  -22.7394  -29.4699   22.4989 C   0  0  0  0  0  0
  -18.0271  -28.1387   22.8490 C   0  0  0  0  0  0
  -24.1483  -36.7317   23.2628 C   0  0  0  0  0  0
  -25.9284  -30.8375   21.3649 C   0  0  0  0  0  0
  -26.0022  -29.4736   20.7100 C   0  0  0  0  0  0
  -27.1971  -28.7194   20.6937 C   0  0  0  0  0  0
  -26.0431  -26.9565   19.4805 C   0  0  0  0  0  0
  -24.8542  -27.7059   19.5028 C   0  0  0  0  0  0
  -23.6039  -29.8358   20.1661 C   0  0  0  0  0  0
  -25.4107  -36.3112   24.0322 C   0  0  1  0  0  0
  -20.5857  -28.3679   23.1312 C   0  0  2  0  0  0
  -20.6767  -26.9413   22.5418 C   0  0  0  0  0  0
  -19.5750  -26.6387   21.5215 C   0  0  0  0  0  0
  -18.1926  -26.7931   22.1623 C   0  0  0  0  0  0
  -19.1519  -28.8846   23.2904 C   0  0  0  0  0  0
  -18.9458  -30.1450   23.8913 C   0  0  0  0  0  0
  -17.6462  -30.6590   24.0569 C   0  0  0  0  0  0
  -25.9046  -34.9482   23.5116 C   0  0  0  0  0  0
  -16.5352  -29.9103   23.6324 C   0  0  0  0  0  0
  -16.7263  -28.6523   23.0338 C   0  0  0  0  0  0
  -26.4471  -31.6610   25.0716 C   0  0  0  0  0  0
  -25.3739  -31.3740   26.1468 C   0  0  0  0  0  0
  -27.0283  -30.3033   24.6117 C   0  0  0  0  0  0
  -27.6029  -32.4330   25.7505 C   0  0  0  0  0  0
  -27.5581  -37.1809   24.8456 C   0  0  0  0  0  0
  -21.4125  -29.3050   22.3718 N   0  0  0  0  0  0
  -26.4289  -37.3805   23.9408 N   0  0  0  0  0  0
  -24.6649  -31.0819   22.1007 N   0  0  0  0  0  0
  -23.4171  -28.8250   23.3036 O   0  0  0  0  0  0
  -28.4206  -26.7387   20.0758 O   0  0  0  0  0  0
  -26.5611  -34.8939   22.4679 O   0  0  0  0  0  0
  -23.5340  -32.1486   23.7509 O   0  0  0  0  0  0
  -29.5476  -19.9204   20.3566 C   0  0  0  0  0  0
  -30.6596  -18.6047   18.6369 C   0  0  0  0  0  0
  -29.2564  -18.7375   21.0669 C   0  0  0  0  0  0
  -30.3519  -17.4249   19.3393 C   0  0  0  0  0  0
  -30.2585  -19.8616   19.1366 C   0  0  0  0  0  0
  -29.6574  -17.4791   20.5683 C   0  0  0  0  0  0
  -31.9855  -22.5607   19.6166 C   0  0  0  0  0  0
  -31.3920  -15.8134   22.5072 C   0  0  0  0  0  0
  -30.5554  -21.1077   18.3080 C   0  0  0  0  0  0
  -29.2828  -16.2059   21.3321 C   0  0  0  0  0  0
  -29.7198  -24.6670   19.6900 C   0  0  0  0  0  0
  -29.6495  -23.3092   18.9491 C   0  0  0  0  0  0
  -28.4038  -25.4357   19.4897 C   0  0  0  0  0  0
  -30.7712  -22.3530   19.0634 N   0  0  0  0  0  0
  -30.3833  -15.2627   21.5940 N   0  0  0  0  0  0
  -32.3810  -23.6177   20.1141 O   0  0  0  0  0  0
  -31.4500  -12.3844   19.0783 H   0  0  0  0  0  0
  -30.3015  -11.2821   19.7660 H   0  0  0  0  0  0
  -29.7203  -11.8345   17.3767 H   0  0  0  0  0  0
  -29.6380  -13.5266   17.7816 H   0  0  0  0  0  0
  -27.8267  -11.3031   18.8046 H   0  0  0  0  0  0
  -27.3468  -12.6282   17.7784 H   0  0  0  0  0  0
  -27.6820  -14.2305   19.5290 H   0  0  0  0  0  0
  -28.6673  -11.9539   21.3316 H   0  0  0  0  0  0
  -28.4628  -13.5928   21.8580 H   0  0  0  0  0  0
  -25.2711   -9.5663   22.4816 H   0  0  0  0  0  0
  -23.9972   -7.4582   22.7444 H   0  0  0  0  0  0
  -21.0829   -8.8751   19.8946 H   0  0  0  0  0  0
  -22.3651  -10.9679   19.6194 H   0  0  0  0  0  0
  -21.1963   -7.6125   23.9717 H   0  0  0  0  0  0
  -21.1520   -6.0498   25.9090 H   0  0  0  0  0  0
  -22.0601   -2.7587   23.2844 H   0  0  0  0  0  0
  -22.3982  -11.9915   22.4886 H   0  0  0  0  0  0
  -21.1037  -13.1320   22.2554 H   0  0  0  0  0  0
  -24.6591  -15.8346   20.5071 H   0  0  0  0  0  0
  -26.2770  -15.6231   20.0785 H   0  0  0  0  0  0
  -26.7134  -32.5544   23.1159 H   0  0  0  0  0  0
  -25.0043  -33.9811   25.0445 H   0  0  0  0  0  0
  -22.6885  -31.3163   21.4162 H   0  0  0  0  0  0
  -23.3749  -35.9648   23.3287 H   0  0  0  0  0  0
  -24.3578  -36.8946   22.2042 H   0  0  0  0  0  0
  -23.7240  -37.6516   23.6659 H   0  0  0  0  0  0
  -26.0448  -31.6048   20.5976 H   0  0  0  0  0  0
  -26.8155  -30.8850   21.9859 H   0  0  0  0  0  0
  -28.0933  -29.1123   21.1546 H   0  0  0  0  0  0
  -25.9973  -25.9978   18.9854 H   0  0  0  0  0  0
  -23.9613  -27.3070   19.0416 H   0  0  0  0  0  0
  -23.7119  -30.6136   19.4087 H   0  0  0  0  0  0
  -22.7279  -29.2571   19.8673 H   0  0  0  0  0  0
  -25.1283  -36.1958   25.0813 H   0  0  0  0  0  0
  -20.9954  -28.3251   24.1428 H   0  0  0  0  0  0
  -20.5669  -26.2291   23.3615 H   0  0  0  0  0  0
  -21.6643  -26.7467   22.1209 H   0  0  0  0  0  0
  -19.6913  -25.6299   21.1241 H   0  0  0  0  0  0
  -19.6686  -27.3197   20.6743 H   0  0  0  0  0  0
  -17.4198  -26.6677   21.4023 H   0  0  0  0  0  0
  -18.0328  -26.0070   22.9014 H   0  0  0  0  0  0
  -19.7943  -30.7254   24.2286 H   0  0  0  0  0  0
  -17.5032  -31.6268   24.5172 H   0  0  0  0  0  0
  -15.5362  -30.3019   23.7633 H   0  0  0  0  0  0
  -15.8663  -28.0851   22.7038 H   0  0  0  0  0  0
  -24.5933  -30.7051   25.7835 H   0  0  0  0  0  0
  -24.8910  -32.2901   26.4871 H   0  0  0  0  0  0
  -25.8098  -30.8969   27.0256 H   0  0  0  0  0  0
  -26.2831  -29.6826   24.1130 H   0  0  0  0  0  0
  -27.3972  -29.7240   25.4592 H   0  0  0  0  0  0
  -27.8703  -30.4306   23.9313 H   0  0  0  0  0  0
  -27.2628  -33.3630   26.2085 H   0  0  0  0  0  0
  -28.3861  -32.6906   25.0360 H   0  0  0  0  0  0
  -28.0681  -31.8462   26.5440 H   0  0  0  0  0  0
  -28.2582  -38.0121   24.7520 H   0  0  0  0  0  0
  -28.1089  -36.2651   24.6245 H   0  0  0  0  0  0
  -27.2310  -37.1417   25.8865 H   0  0  0  0  0  0
  -20.9278  -29.8767   21.6939 H   0  0  0  0  0  0
  -26.0160  -38.2874   24.1439 H   0  0  0  0  0  0
  -29.2035  -20.8660   20.7546 H   0  0  0  0  0  0
  -31.1874  -18.5254   17.6955 H   0  0  0  0  0  0
  -28.6981  -18.8052   21.9910 H   0  0  0  0  0  0
  -30.6435  -16.4848   18.8942 H   0  0  0  0  0  0
  -32.5946  -21.6420   19.5884 H   0  0  0  0  0  0
  -30.9372  -16.2179   23.4127 H   0  0  0  0  0  0
  -31.9518  -16.6160   22.0261 H   0  0  0  0  0  0
  -32.1089  -15.0454   22.8058 H   0  0  0  0  0  0
  -29.7246  -21.2289   17.6126 H   0  0  0  0  0  0
  -31.4222  -20.9177   17.6711 H   0  0  0  0  0  0
  -28.4900  -15.7258   20.7674 H   0  0  0  0  0  0
  -28.8238  -16.4715   22.2846 H   0  0  0  0  0  0
  -30.5484  -25.2648   19.3084 H   0  0  0  0  0  0
  -29.8909  -24.5137   20.7571 H   0  0  0  0  0  0
  -29.4930  -23.5100   17.8890 H   0  0  0  0  0  0
  -28.7556  -22.7873   19.2891 H   0  0  0  0  0  0
  -27.6016  -24.8406   19.9302 H   0  0  0  0  0  0
  -28.2061  -25.5317   18.4206 H   0  0  0  0  0  0
  1 25  1  0  0  0
  1 30  2  0  0  0
  1 85  1  0  0  0
  2  3  1  0  0  0
  2 25  1  0  0  0
  2 87  1  0  0  0
  2 88  1  0  0  0
  3  4  1  0  0  0
  3 89  1  0  0  0
  3 90  1  0  0  0
  4  5  1  0  0  0
  4 91  1  0  0  0
  4 92  1  0  0  0
  5  6  1  0  0  0
  5 26  1  0  0  0
  5 93  1  0  0  0
  6 25  1  0  0  0
  6 94  1  0  0  0
  6 95  1  0  0  0
  7  8  2  0  0  0
  7 26  1  0  0  0
  7 29  1  0  0  0
  8  9  1  0  0  0
  8 22  1  0  0  0
  9 10  1  0  0  0
  9 27  2  0  0  0
 10 11  2  0  0  0
 10 15  1  0  0  0
 11 12  1  0  0  0
 11 96  1  0  0  0
 12 13  2  0  0  0
 12 97  1  0  0  0
 13 14  1  0  0  0
 13 31  1  0  0  0
 14 15  2  0  0  0
 14 98  1  0  0  0
 15 99  1  0  0  0
 16 17  2  0  0  0
 16 21  1  0  0  0
 16 31  1  0  0  0
 17 18  1  0  0  0
 17100  1  0  0  0
 18 19  2  0  0  0
 18101  1  0  0  0
 19 20  1  0  0  0
 19 24  1  0  0  0
 20 21  2  0  0  0
 20102  1  0  0  0
 21 23  1  0  0  0
 22 28  1  0  0  0
 22 32  2  0  0  0
 26 27  1  0  0  0
 28103  1  0  0  0
 28104  1  0  0  0
 29105  1  0  0  0
 29106  1  0  0  0
 33 34  1  0  0  0
 33 66  1  0  0  0
 33 70  2  0  0  0
 34 36  1  0  0  0
 34 59  1  0  0  0
 34107  1  0  0  0
 35 44  2  0  0  0
 35 45  1  0  0  0
 35 68  1  0  0  0
 36 56  1  0  0  0
 36108  1  0  0  0
 37 39  1  0  0  0
 37 47  1  0  0  0
 37 66  1  0  0  0
 37109  1  0  0  0
 38 43  2  0  0  0
 38 46  1  0  0  0
 38 47  1  0  0  0
 39 64  1  0  0  0
 39 67  2  0  0  0
 40 52  1  0  0  0
 40 53  2  0  0  0
 40 58  1  0  0  0
 41110  1  0  0  0
 41111  1  0  0  0
 41112  1  0  0  0
 41 48  1  0  0  0
 42 43  1  0  0  0
 42 66  1  0  0  0
 42113  1  0  0  0
 42114  1  0  0  0
 43 44  1  0  0  0
 44115  1  0  0  0
 45 46  2  0  0  0
 45116  1  0  0  0
 46117  1  0  0  0
 47118  1  0  0  0
 47119  1  0  0  0
 48 56  1  0  0  0
 48 65  1  0  0  0
 48120  1  0  0  0
 49 50  1  0  0  0
 49 53  1  0  0  0
 49 64  1  0  0  0
 49121  1  0  0  0
 50 51  1  0  0  0
 50122  1  0  0  0
 50123  1  0  0  0
 51 52  1  0  0  0
 51124  1  0  0  0
 51125  1  0  0  0
 52126  1  0  0  0
 52127  1  0  0  0
 53 54  1  0  0  0
 54 55  2  0  0  0
 54128  1  0  0  0
 55 57  1  0  0  0
 55129  1  0  0  0
 56 69  2  0  0  0
 57 58  2  0  0  0
 57130  1  0  0  0
 58131  1  0  0  0
 59 60  1  0  0  0
 59 61  1  0  0  0
 59 62  1  0  0  0
 60132  1  0  0  0
 60133  1  0  0  0
 60134  1  0  0  0
 61135  1  0  0  0
 61136  1  0  0  0
 61137  1  0  0  0
 62138  1  0  0  0
 62139  1  0  0  0
 62140  1  0  0  0
 63 65  1  0  0  0
 63141  1  0  0  0
 63142  1  0  0  0
 63143  1  0  0  0
 64144  1  0  0  0
 65145  1  0  0  0
 68 83  1  0  0  0
 71 73  2  0  0  0
 71 75  1  0  0  0
 71146  1  0  0  0
 72 74  1  0  0  0
 72 75  2  0  0  0
 72147  1  0  0  0
 73 76  1  0  0  0
 73148  1  0  0  0
 74 76  2  0  0  0
 74149  1  0  0  0
 75 79  1  0  0  0
 76 80  1  0  0  0
 77 84  1  0  0  0
 77 86  2  0  0  0
 77150  1  0  0  0
 78 85  1  0  0  0
 78151  1  0  0  0
 78152  1  0  0  0
 78153  1  0  0  0
 79 84  1  0  0  0
 79154  1  0  0  0
 79155  1  0  0  0
 80 85  1  0  0  0
 80156  1  0  0  0
 80157  1  0  0  0
 81 82  1  0  0  0
 81 83  1  0  0  0
 81158  1  0  0  0
 81159  1  0  0  0
 82 84  1  0  0  0
 82160  1  0  0  0
 82161  1  0  0  0
 83162  1  0  0  0
 83163  1  0  0  0
M  ISO  4   1 100  68 101  83 101  85 100
M  END
> <chiral flag>
0

> <version>
0

> <s_m_source_file>
/data/baiqing/PycharmProjects/Reinvent-master-3.2/result/LINK_invent/BTK/process_docking_weight1_custom_product_contain_oxygen_bond_distance_aromatic_linkinvent_7_9_3/rearranged_h_0015.sdf

> <i_m_source_file_index>
97

> <r_mmod_Potential_Energy-OPLS-2005>
62.4719123840332

> <r_mmod_Stretch_Energy-OPLS-2005>
37.9672088623047

> <r_mmod_Bend_Energy-OPLS-2005>
112.115707397461

> <r_mmod_Torsional_Energy-OPLS-2005>
248.879150390625

> <r_mmod_Improper_Torsional_Energy-OPLS-2005>
5.77282857894897

> <r_mmod_Van_der_Waal_Energy-OPLS-2005>
171.28125

> <r_mmod_Electrostatic_Energy-OPLS-2005>
-300.96875

> <r_mmod_Solvation_Energy-OPLS-2005>
-223.358108520508

> <b_mmod_Minimization_Converged-OPLS-2005>
0

> <r_mmod_RMS_Derivative-OPLS-2005>
3.20268845558167

$$$$
