0
                    3D
 Structure written by MMmdl.
169178  0  0  1  0            999 V2000
  -30.6568  -14.7222   20.3384 C   0  0  0  0  0  0
  -30.4225  -12.4235   19.4373 C   0  0  0  0  0  0
  -29.4841  -12.4304   18.2139 C   0  0  0  0  0  0
  -28.0184  -12.2831   18.6567 C   0  0  0  0  0  0
  -27.6356  -13.2137   19.8395 C   0  0  2  0  0  0
  -28.7028  -13.2174   20.9520 C   0  0  0  0  0  0
  -25.2560  -13.8146   20.5833 C   0  0  0  0  0  0
  -24.1801  -13.0416   20.9219 C   0  0  0  0  0  0
  -24.6360  -11.6880   20.8758 C   0  0  0  0  0  0
  -23.9031  -10.4281   21.0398 C   0  0  0  0  0  0
  -24.3589   -9.4203   21.9169 C   0  0  0  0  0  0
  -23.6275   -8.2237   22.0743 C   0  0  0  0  0  0
  -22.4262   -8.0277   21.3530 C   0  0  0  0  0  0
  -21.9875   -9.0248   20.4634 C   0  0  0  0  0  0
  -22.7202  -10.2129   20.3052 C   0  0  0  0  0  0
  -21.6868   -6.0715   22.5272 C   0  0  0  0  0  0
  -21.4028   -6.5633   23.8200 C   0  0  0  0  0  0
  -21.3650   -5.6788   24.9161 C   0  0  0  0  0  0
  -21.6042   -4.3055   24.7233 C   0  0  0  0  0  0
  -21.8825   -3.8133   23.4369 C   0  0  0  0  0  0
  -21.9202   -4.6937   22.3411 C   0  0  0  0  0  0
  -22.7836  -13.5218   21.1858 C   0  0  0  0  0  0
  -22.1658   -4.2108   21.0988 F   0  0  0  0  0  0
  -21.5630   -3.4550   25.7758 F   0  0  0  0  0  0
  -29.9820  -13.5282   20.3104 N   0  0  0  0  0  0
  -26.2950  -12.9307   20.3375 N   0  0  0  0  0  0
  -25.9302  -11.6470   20.5810 N   0  0  0  0  0  0
  -22.0515  -12.8208   22.0439 N   0  0  0  0  0  0
  -25.4348  -15.1866   20.4465 N   0  0  0  0  0  0
  -31.8906  -14.7026   20.3456 O   0  0  0  0  0  0
  -21.6654   -6.8854   21.4233 O   0  0  0  0  0  0
  -22.3503  -14.5509   20.6691 O   0  0  0  0  0  0
  -24.6281  -31.8603   23.2064 C   0  0  0  0  0  0
  -25.9144  -32.4767   23.8341 C   0  0  1  0  0  0
  -27.2121  -27.3253   20.1104 C   0  0  0  0  0  0
  -25.5976  -33.8567   24.2286 N   0  0  0  0  0  0
  -23.4158  -30.4891   21.5478 C   0  0  2  0  0  0
  -24.8586  -28.9490   20.1036 C   0  0  0  0  0  0
  -22.7429  -29.4638   22.4921 C   0  0  0  0  0  0
  -18.0283  -28.1380   22.8478 C   0  0  0  0  0  0
  -24.1499  -36.7277   23.2630 C   0  0  0  0  0  0
  -25.9552  -30.7984   21.3685 C   0  0  0  0  0  0
  -26.0280  -29.4272   20.7056 C   0  0  0  0  0  0
  -27.2067  -28.6265   20.7009 C   0  0  0  0  0  0
  -26.0156  -26.8915   19.4934 C   0  0  0  0  0  0
  -24.8519  -27.6831   19.4931 C   0  0  0  0  0  0
  -23.6269  -29.8300   20.1580 C   0  0  0  0  0  0
  -25.4120  -36.3065   24.0326 C   0  0  1  0  0  0
  -20.5878  -28.3687   23.1279 C   0  0  2  0  0  0
  -20.6768  -26.9404   22.5432 C   0  0  0  0  0  0
  -19.5753  -26.6374   21.5220 C   0  0  0  0  0  0
  -18.1923  -26.7921   22.1609 C   0  0  0  0  0  0
  -19.1530  -28.8841   23.2873 C   0  0  0  0  0  0
  -18.9473  -30.1448   23.8893 C   0  0  0  0  0  0
  -17.6476  -30.6578   24.0555 C   0  0  0  0  0  0
  -25.9061  -34.9450   23.5088 C   0  0  0  0  0  0
  -16.5366  -29.9090   23.6319 C   0  0  0  0  0  0
  -16.7270  -28.6507   23.0329 C   0  0  0  0  0  0
  -26.4544  -31.6559   25.0697 C   0  0  0  0  0  0
  -25.3818  -31.3711   26.1457 C   0  0  0  0  0  0
  -27.0365  -30.2980   24.6122 C   0  0  0  0  0  0
  -27.6103  -32.4287   25.7477 C   0  0  0  0  0  0
  -27.5574  -37.1806   24.8450 C   0  0  0  0  0  0
  -21.4154  -29.3034   22.3641 N   0  0  0  0  0  0
  -26.4269  -37.3777   23.9415 N   0  0  0  0  0  0
  -24.6845  -31.0644   22.0981 N   0  0  0  0  0  0
  -23.4149  -28.8188   23.2999 O   0  0  0  0  0  0
  -28.3399  -26.4946   20.1954 O   0  0  0  0  0  0
  -26.5611  -34.8912   22.4638 O   0  0  0  0  0  0
  -23.5466  -32.1407   23.7433 O   0  0  0  0  0  0
  -30.0848  -19.3885   21.0880 C   0  0  0  0  0  0
  -28.2311  -19.1649   19.6100 C   0  0  0  0  0  0
  -30.4129  -17.9982   20.9346 C   0  0  0  0  0  0
  -28.5319  -17.7820   19.4266 C   0  0  0  0  0  0
  -29.0015  -20.0193   20.4274 C   0  0  0  0  0  0
  -29.6413  -17.1342   20.0785 C   0  0  0  0  0  0
  -28.2264  -23.8190   20.3451 C   0  0  0  0  0  0
  -28.8200  -22.6049   20.0311 C   0  0  0  0  0  0
  -27.2886  -23.8363   21.4953 C   0  0  0  0  0  0
  -32.7682  -18.2512   21.7212 C   0  0  0  0  0  0
  -31.6338  -17.5366   21.6191 C   0  0  0  0  0  0
  -27.3240  -22.6517   22.4589 C   0  0  0  0  0  0
  -27.5354  -21.3109   21.7391 C   0  0  0  0  0  0
  -27.6107  -17.0666   18.4488 C   0  0  0  0  0  0
  -29.7709  -22.5093   18.8482 C   0  0  0  0  0  0
  -30.6175  -15.8591   18.2661 C   0  0  0  0  0  0
  -28.4128  -25.1692   19.5368 C   0  0  0  0  0  0
  -28.5891  -21.3696   20.7247 N   0  0  0  0  0  0
  -30.0653  -15.7744   19.6383 N   0  0  0  0  0  0
  -26.4858  -24.7427   21.7255 O   0  0  0  0  0  0
  -31.4616  -12.5341   19.1184 H   0  0  0  0  0  0
  -30.3663  -11.4717   19.9687 H   0  0  0  0  0  0
  -29.7502  -11.6165   17.5370 H   0  0  0  0  0  0
  -29.5881  -13.3473   17.6358 H   0  0  0  0  0  0
  -27.8816  -11.2407   18.9483 H   0  0  0  0  0  0
  -27.3505  -12.4528   17.8117 H   0  0  0  0  0  0
  -27.6086  -14.2177   19.4307 H   0  0  0  0  0  0
  -28.7554  -12.2552   21.4611 H   0  0  0  0  0  0
  -28.4631  -13.9694   21.7059 H   0  0  0  0  0  0
  -25.2740   -9.5704   22.4736 H   0  0  0  0  0  0
  -24.0002   -7.4632   22.7462 H   0  0  0  0  0  0
  -21.0805   -8.8781   19.8927 H   0  0  0  0  0  0
  -22.3659  -10.9686   19.6177 H   0  0  0  0  0  0
  -21.2033   -7.6144   23.9701 H   0  0  0  0  0  0
  -21.1450   -6.0514   25.9049 H   0  0  0  0  0  0
  -22.0604   -2.7599   23.2898 H   0  0  0  0  0  0
  -22.4174  -11.9856   22.4759 H   0  0  0  0  0  0
  -21.1132  -13.1191   22.2699 H   0  0  0  0  0  0
  -24.6806  -15.8468   20.6004 H   0  0  0  0  0  0
  -26.3206  -15.6307   20.2436 H   0  0  0  0  0  0
  -26.7200  -32.5453   23.1076 H   0  0  0  0  0  0
  -25.0157  -33.9689   25.0448 H   0  0  0  0  0  0
  -22.7124  -31.3153   21.4147 H   0  0  0  0  0  0
  -23.3752  -35.9617   23.3284 H   0  0  0  0  0  0
  -24.3587  -36.8908   22.2042 H   0  0  0  0  0  0
  -23.7285  -37.6494   23.6649 H   0  0  0  0  0  0
  -26.0819  -31.5649   20.6035 H   0  0  0  0  0  0
  -26.8369  -30.8442   21.9963 H   0  0  0  0  0  0
  -28.1020  -28.9894   21.1872 H   0  0  0  0  0  0
  -25.9288  -25.9126   19.0510 H   0  0  0  0  0  0
  -23.9482  -27.3039   19.0387 H   0  0  0  0  0  0
  -23.7517  -30.6177   19.4138 H   0  0  0  0  0  0
  -22.7439  -29.2711   19.8408 H   0  0  0  0  0  0
  -25.1308  -36.1874   25.0824 H   0  0  0  0  0  0
  -20.9993  -28.3313   24.1392 H   0  0  0  0  0  0
  -20.5652  -26.2314   23.3647 H   0  0  0  0  0  0
  -21.6646  -26.7428   22.1250 H   0  0  0  0  0  0
  -19.6906  -25.6295   21.1228 H   0  0  0  0  0  0
  -19.6685  -27.3200   20.6764 H   0  0  0  0  0  0
  -17.4209  -26.6698   21.3981 H   0  0  0  0  0  0
  -18.0292  -26.0051   22.8993 H   0  0  0  0  0  0
  -19.7963  -30.7236   24.2265 H   0  0  0  0  0  0
  -17.5052  -31.6257   24.5169 H   0  0  0  0  0  0
  -15.5372  -30.2989   23.7651 H   0  0  0  0  0  0
  -15.8673  -28.0828   22.7032 H   0  0  0  0  0  0
  -24.6040  -30.6953   25.7869 H   0  0  0  0  0  0
  -24.8953  -32.2875   26.4815 H   0  0  0  0  0  0
  -25.8230  -30.9020   27.0264 H   0  0  0  0  0  0
  -26.2923  -29.6755   24.1133 H   0  0  0  0  0  0
  -27.4053  -29.7208   25.4613 H   0  0  0  0  0  0
  -27.8801  -30.4243   23.9334 H   0  0  0  0  0  0
  -27.2701  -33.3598   26.2017 H   0  0  0  0  0  0
  -28.3957  -32.6818   25.0342 H   0  0  0  0  0  0
  -28.0693  -31.8417   26.5445 H   0  0  0  0  0  0
  -28.2592  -38.0103   24.7508 H   0  0  0  0  0  0
  -28.1077  -36.2643   24.6256 H   0  0  0  0  0  0
  -27.2286  -37.1439   25.8850 H   0  0  0  0  0  0
  -20.9341  -29.8764   21.6856 H   0  0  0  0  0  0
  -26.0134  -38.2841   24.1455 H   0  0  0  0  0  0
  -30.6816  -19.9993   21.7506 H   0  0  0  0  0  0
  -27.3742  -19.5829   19.1006 H   0  0  0  0  0  0
  -33.6241  -17.8680   22.2577 H   0  0  0  0  0  0
  -32.8665  -19.2265   21.2650 H   0  0  0  0  0  0
  -31.5954  -16.5737   22.1038 H   0  0  0  0  0  0
  -26.3998  -22.6218   23.0364 H   0  0  0  0  0  0
  -28.1356  -22.8183   23.1660 H   0  0  0  0  0  0
  -26.6050  -20.9995   21.2614 H   0  0  0  0  0  0
  -27.7677  -20.5452   22.4824 H   0  0  0  0  0  0
  -26.5689  -17.1814   18.7465 H   0  0  0  0  0  0
  -27.8089  -16.0066   18.3411 H   0  0  0  0  0  0
  -27.7153  -17.5190   17.4624 H   0  0  0  0  0  0
  -29.2643  -22.8373   17.9402 H   0  0  0  0  0  0
  -30.1486  -21.5050   18.6679 H   0  0  0  0  0  0
  -30.6337  -23.1564   19.0117 H   0  0  0  0  0  0
  -29.8692  -16.1210   17.5228 H   0  0  0  0  0  0
  -31.0883  -14.9423   17.9056 H   0  0  0  0  0  0
  -31.3879  -16.6303   18.2285 H   0  0  0  0  0  0
  -27.8002  -25.1228   18.6385 H   0  0  0  0  0  0
  -29.4249  -25.1512   19.1392 H   0  0  0  0  0  0
  1 25  1  0  0  0
  1 30  2  0  0  0
  1 89  1  0  0  0
  2  3  1  0  0  0
  2 25  1  0  0  0
  2 91  1  0  0  0
  2 92  1  0  0  0
  3  4  1  0  0  0
  3 93  1  0  0  0
  3 94  1  0  0  0
  4  5  1  0  0  0
  4 95  1  0  0  0
  4 96  1  0  0  0
  5  6  1  0  0  0
  5 26  1  0  0  0
  5 97  1  0  0  0
  6 25  1  0  0  0
  6 98  1  0  0  0
  6 99  1  0  0  0
  7  8  2  0  0  0
  7 26  1  0  0  0
  7 29  1  0  0  0
  8  9  1  0  0  0
  8 22  1  0  0  0
  9 10  1  0  0  0
  9 27  2  0  0  0
 10 11  2  0  0  0
 10 15  1  0  0  0
 11 12  1  0  0  0
 11100  1  0  0  0
 12 13  2  0  0  0
 12101  1  0  0  0
 13 14  1  0  0  0
 13 31  1  0  0  0
 14 15  2  0  0  0
 14102  1  0  0  0
 15103  1  0  0  0
 16 17  2  0  0  0
 16 21  1  0  0  0
 16 31  1  0  0  0
 17 18  1  0  0  0
 17104  1  0  0  0
 18 19  2  0  0  0
 18105  1  0  0  0
 19 20  1  0  0  0
 19 24  1  0  0  0
 20 21  2  0  0  0
 20106  1  0  0  0
 21 23  1  0  0  0
 22 28  1  0  0  0
 22 32  2  0  0  0
 26 27  1  0  0  0
 28107  1  0  0  0
 28108  1  0  0  0
 29109  1  0  0  0
 29110  1  0  0  0
 33 34  1  0  0  0
 33 66  1  0  0  0
 33 70  2  0  0  0
 34 36  1  0  0  0
 34 59  1  0  0  0
 34111  1  0  0  0
 35 44  2  0  0  0
 35 45  1  0  0  0
 35 68  1  0  0  0
 36 56  1  0  0  0
 36112  1  0  0  0
 37 39  1  0  0  0
 37 47  1  0  0  0
 37 66  1  0  0  0
 37113  1  0  0  0
 38 43  2  0  0  0
 38 46  1  0  0  0
 38 47  1  0  0  0
 39 64  1  0  0  0
 39 67  2  0  0  0
 40 52  1  0  0  0
 40 53  2  0  0  0
 40 58  1  0  0  0
 41114  1  0  0  0
 41115  1  0  0  0
 41116  1  0  0  0
 41 48  1  0  0  0
 42 43  1  0  0  0
 42 66  1  0  0  0
 42117  1  0  0  0
 42118  1  0  0  0
 43 44  1  0  0  0
 44119  1  0  0  0
 45 46  2  0  0  0
 45120  1  0  0  0
 46121  1  0  0  0
 47122  1  0  0  0
 47123  1  0  0  0
 48 56  1  0  0  0
 48 65  1  0  0  0
 48124  1  0  0  0
 49 50  1  0  0  0
 49 53  1  0  0  0
 49 64  1  0  0  0
 49125  1  0  0  0
 50 51  1  0  0  0
 50126  1  0  0  0
 50127  1  0  0  0
 51 52  1  0  0  0
 51128  1  0  0  0
 51129  1  0  0  0
 52130  1  0  0  0
 52131  1  0  0  0
 53 54  1  0  0  0
 54 55  2  0  0  0
 54132  1  0  0  0
 55 57  1  0  0  0
 55133  1  0  0  0
 56 69  2  0  0  0
 57 58  2  0  0  0
 57134  1  0  0  0
 58135  1  0  0  0
 59 60  1  0  0  0
 59 61  1  0  0  0
 59 62  1  0  0  0
 60136  1  0  0  0
 60137  1  0  0  0
 60138  1  0  0  0
 61139  1  0  0  0
 61140  1  0  0  0
 61141  1  0  0  0
 62142  1  0  0  0
 62143  1  0  0  0
 62144  1  0  0  0
 63 65  1  0  0  0
 63145  1  0  0  0
 63146  1  0  0  0
 63147  1  0  0  0
 64148  1  0  0  0
 65149  1  0  0  0
 68 87  1  0  0  0
 71 73  2  0  0  0
 71 75  1  0  0  0
 71150  1  0  0  0
 72 74  1  0  0  0
 72 75  2  0  0  0
 72151  1  0  0  0
 73 76  1  0  0  0
 73 81  1  0  0  0
 74 76  2  0  0  0
 74 84  1  0  0  0
 75 88  1  0  0  0
 76 89  1  0  0  0
 77 78  2  0  0  0
 77 79  1  0  0  0
 77 87  1  0  0  0
 78 85  1  0  0  0
 78 88  1  0  0  0
 79 82  1  0  0  0
 79 90  2  0  0  0
 80 81  2  0  0  0
 80152  1  0  0  0
 80153  1  0  0  0
 81154  1  0  0  0
 82 83  1  0  0  0
 82155  1  0  0  0
 82156  1  0  0  0
 83 88  1  0  0  0
 83157  1  0  0  0
 83158  1  0  0  0
 84159  1  0  0  0
 84160  1  0  0  0
 84161  1  0  0  0
 85162  1  0  0  0
 85163  1  0  0  0
 85164  1  0  0  0
 86 89  1  0  0  0
 86165  1  0  0  0
 86166  1  0  0  0
 86167  1  0  0  0
 87168  1  0  0  0
 87169  1  0  0  0
M  ISO  4   1 100  68 101  87 101  89 100
M  END
> <chiral flag>
0

> <version>
0

> <s_m_source_file>
/data/baiqing/PycharmProjects/Reinvent-master-3.2/result/LINK_invent/BTK/process_docking_weight1_custom_product_contain_oxygen_bond_distance_aromatic_linkinvent_7_9_3/rearranged_h_0109.sdf

> <i_m_source_file_index>
1

> <r_mmod_Potential_Energy-OPLS-2005>
404.647155761719

> <r_mmod_Stretch_Energy-OPLS-2005>
99.9894180297852

> <r_mmod_Bend_Energy-OPLS-2005>
181.784088134766

> <r_mmod_Torsional_Energy-OPLS-2005>
339.808776855469

> <r_mmod_Improper_Torsional_Energy-OPLS-2005>
35.8738746643066

> <r_mmod_Van_der_Waal_Energy-OPLS-2005>
165.841720581055

> <r_mmod_Electrostatic_Energy-OPLS-2005>
-300.445159912109

> <r_mmod_Solvation_Energy-OPLS-2005>
-203.745193481445

> <b_mmod_Minimization_Converged-OPLS-2005>
0

> <r_mmod_RMS_Derivative-OPLS-2005>
3.78879117965698

$$$$
1
                    3D
 Structure written by MMmdl.
159167  0  0  1  0            999 V2000
  -30.7693  -14.4172   20.5950 C   0  0  0  0  0  0
  -30.3974  -12.2875   19.4122 C   0  0  0  0  0  0
  -29.4740  -12.4872   18.1968 C   0  0  0  0  0  0
  -27.9995  -12.3514   18.6206 C   0  0  0  0  0  0
  -27.6504  -13.2076   19.8670 C   0  0  2  0  0  0
  -28.6963  -13.0216   20.9890 C   0  0  0  0  0  0
  -25.2541  -13.8153   20.5695 C   0  0  0  0  0  0
  -24.1809  -13.0425   20.9203 C   0  0  0  0  0  0
  -24.6370  -11.6890   20.8756 C   0  0  0  0  0  0
  -23.9028  -10.4278   21.0411 C   0  0  0  0  0  0
  -24.3584   -9.4201   21.9189 C   0  0  0  0  0  0
  -23.6264   -8.2233   22.0756 C   0  0  0  0  0  0
  -22.4249   -8.0272   21.3549 C   0  0  0  0  0  0
  -21.9886   -9.0242   20.4654 C   0  0  0  0  0  0
  -22.7202  -10.2122   20.3067 C   0  0  0  0  0  0
  -21.6845   -6.0723   22.5286 C   0  0  0  0  0  0
  -21.4009   -6.5632   23.8218 C   0  0  0  0  0  0
  -21.3660   -5.6794   24.9189 C   0  0  0  0  0  0
  -21.6044   -4.3051   24.7241 C   0  0  0  0  0  0
  -21.8810   -3.8138   23.4363 C   0  0  0  0  0  0
  -21.9185   -4.6953   22.3414 C   0  0  0  0  0  0
  -22.7841  -13.5232   21.1855 C   0  0  0  0  0  0
  -22.1651   -4.2133   21.0991 F   0  0  0  0  0  0
  -21.5633   -3.4537   25.7749 F   0  0  0  0  0  0
  -30.0231  -13.2951   20.4165 N   0  0  0  0  0  0
  -26.2961  -12.9322   20.3370 N   0  0  0  0  0  0
  -25.9297  -11.6476   20.5795 N   0  0  0  0  0  0
  -22.0459  -12.8244   22.0415 N   0  0  0  0  0  0
  -25.4286  -15.1869   20.4081 N   0  0  0  0  0  0
  -31.9132  -14.5084   20.1390 O   0  0  0  0  0  0
  -21.6630   -6.8861   21.4242 O   0  0  0  0  0  0
  -22.3537  -14.5549   20.6711 O   0  0  0  0  0  0
  -24.6130  -31.8680   23.2123 C   0  0  0  0  0  0
  -25.9027  -32.4829   23.8401 C   0  0  1  0  0  0
  -27.2351  -27.4539   20.0930 C   0  0  0  0  0  0
  -25.5888  -33.8623   24.2337 N   0  0  0  0  0  0
  -23.3999  -30.4937   21.5522 C   0  0  2  0  0  0
  -24.8474  -28.9653   20.1125 C   0  0  0  0  0  0
  -22.7407  -29.4658   22.4999 C   0  0  0  0  0  0
  -18.0269  -28.1377   22.8496 C   0  0  0  0  0  0
  -24.1486  -36.7319   23.2638 C   0  0  0  0  0  0
  -25.9254  -30.8459   21.3571 C   0  0  0  0  0  0
  -26.0069  -29.4819   20.7036 C   0  0  0  0  0  0
  -27.2062  -28.7352   20.6864 C   0  0  0  0  0  0
  -26.0583  -26.9527   19.4892 C   0  0  0  0  0  0
  -24.8672  -27.7010   19.5010 C   0  0  0  0  0  0
  -23.6068  -29.8277   20.1656 C   0  0  0  0  0  0
  -25.4103  -36.3115   24.0343 C   0  0  1  0  0  0
  -20.5856  -28.3652   23.1325 C   0  0  2  0  0  0
  -20.6753  -26.9381   22.5423 C   0  0  0  0  0  0
  -19.5737  -26.6383   21.5212 C   0  0  0  0  0  0
  -18.1916  -26.7924   22.1626 C   0  0  0  0  0  0
  -19.1516  -28.8833   23.2912 C   0  0  0  0  0  0
  -18.9445  -30.1443   23.8914 C   0  0  0  0  0  0
  -17.6447  -30.6580   24.0567 C   0  0  0  0  0  0
  -25.9027  -34.9478   23.5140 C   0  0  0  0  0  0
  -16.5338  -29.9085   23.6321 C   0  0  0  0  0  0
  -16.7257  -28.6506   23.0336 C   0  0  0  0  0  0
  -26.4473  -31.6595   25.0708 C   0  0  0  0  0  0
  -25.3759  -31.3667   26.1475 C   0  0  0  0  0  0
  -27.0293  -30.3054   24.6023 C   0  0  0  0  0  0
  -27.6064  -32.4302   25.7461 C   0  0  0  0  0  0
  -27.5579  -37.1814   24.8466 C   0  0  0  0  0  0
  -21.4133  -29.3030   22.3744 N   0  0  0  0  0  0
  -26.4294  -37.3796   23.9413 N   0  0  0  0  0  0
  -24.6643  -31.0817   22.1008 N   0  0  0  0  0  0
  -23.4187  -28.8172   23.3012 O   0  0  0  0  0  0
  -28.4028  -26.7225   20.1192 O   0  0  0  0  0  0
  -26.5582  -34.8928   22.4697 O   0  0  0  0  0  0
  -23.5330  -32.1406   23.7545 O   0  0  0  0  0  0
  -29.4612  -19.5149   19.2574 C   0  0  0  0  0  0
  -29.7579  -20.6099   20.0870 C   0  0  0  0  0  0
  -30.4362  -19.0724   21.8374 C   0  0  0  0  0  0
  -30.2162  -17.9566   20.9939 C   0  0  0  0  0  0
  -29.6991  -18.1894   19.6834 C   0  0  0  0  0  0
  -30.2238  -20.3974   21.4009 C   0  0  0  0  0  0
  -30.7728  -16.6244   21.4491 C   0  0  0  0  0  0
  -30.3053  -22.7278   22.4135 C   0  0  0  0  0  0
  -29.4686  -17.0851   18.6609 C   0  0  0  0  0  0
  -29.0911  -23.3611   21.7138 C   0  0  0  0  0  0
  -29.4394  -24.7009   21.0220 C   0  0  0  0  0  0
  -28.2463  -25.3068   20.2646 C   0  0  0  0  0  0
  -30.6539  -21.4356   22.2722 N   0  0  0  0  0  0
  -30.1346  -15.4898   21.1094 N   0  0  0  0  0  0
  -31.8140  -16.6236   22.1187 O   0  0  0  0  0  0
  -30.9746  -23.4380   23.1646 O   0  0  0  0  0  0
  -31.4420  -12.3499   19.1020 H   0  0  0  0  0  0
  -30.2723  -11.2856   19.8264 H   0  0  0  0  0  0
  -29.7040  -11.7536   17.4221 H   0  0  0  0  0  0
  -29.6453  -13.4687   17.7534 H   0  0  0  0  0  0
  -27.8146  -11.2979   18.8351 H   0  0  0  0  0  0
  -27.3386  -12.6087   17.7924 H   0  0  0  0  0  0
  -27.6836  -14.2487   19.5483 H   0  0  0  0  0  0
  -28.6645  -12.0007   21.3728 H   0  0  0  0  0  0
  -28.4708  -13.6638   21.8419 H   0  0  0  0  0  0
  -25.2708   -9.5680   22.4788 H   0  0  0  0  0  0
  -23.9962   -7.4623   22.7487 H   0  0  0  0  0  0
  -21.0812   -8.8770   19.8960 H   0  0  0  0  0  0
  -22.3649  -10.9676   19.6201 H   0  0  0  0  0  0
  -21.2007   -7.6140   23.9714 H   0  0  0  0  0  0
  -21.1487   -6.0532   25.9092 H   0  0  0  0  0  0
  -22.0588   -2.7594   23.2882 H   0  0  0  0  0  0
  -22.4021  -11.9888   22.4812 H   0  0  0  0  0  0
  -21.1106  -13.1350   22.2610 H   0  0  0  0  0  0
  -24.6619  -15.8419   20.5184 H   0  0  0  0  0  0
  -26.2762  -15.6246   20.0711 H   0  0  0  0  0  0
  -26.7095  -32.5565   23.1171 H   0  0  0  0  0  0
  -25.0063  -33.9787   25.0499 H   0  0  0  0  0  0
  -22.6869  -31.3096   21.4147 H   0  0  0  0  0  0
  -23.3742  -35.9661   23.3315 H   0  0  0  0  0  0
  -24.3577  -36.8912   22.2048 H   0  0  0  0  0  0
  -23.7248  -37.6535   23.6637 H   0  0  0  0  0  0
  -26.0244  -31.6131   20.5875 H   0  0  0  0  0  0
  -26.8189  -30.9075   21.9667 H   0  0  0  0  0  0
  -28.1018  -29.1313   21.1443 H   0  0  0  0  0  0
  -26.0486  -25.9862   19.0058 H   0  0  0  0  0  0
  -23.9764  -27.3005   19.0376 H   0  0  0  0  0  0
  -23.7117  -30.6015   19.4053 H   0  0  0  0  0  0
  -22.7320  -29.2448   19.8713 H   0  0  0  0  0  0
  -25.1279  -36.1985   25.0837 H   0  0  0  0  0  0
  -20.9954  -28.3211   24.1448 H   0  0  0  0  0  0
  -20.5638  -26.2250   23.3605 H   0  0  0  0  0  0
  -21.6624  -26.7419   22.1218 H   0  0  0  0  0  0
  -19.6883  -25.6301   21.1225 H   0  0  0  0  0  0
  -19.6678  -27.3209   20.6751 H   0  0  0  0  0  0
  -17.4179  -26.6672   21.4034 H   0  0  0  0  0  0
  -18.0318  -26.0063   22.9018 H   0  0  0  0  0  0
  -19.7916  -30.7260   24.2284 H   0  0  0  0  0  0
  -17.4996  -31.6257   24.5169 H   0  0  0  0  0  0
  -15.5338  -30.2988   23.7640 H   0  0  0  0  0  0
  -15.8657  -28.0841   22.7023 H   0  0  0  0  0  0
  -24.5928  -30.7022   25.7804 H   0  0  0  0  0  0
  -24.8965  -32.2812   26.4978 H   0  0  0  0  0  0
  -25.8150  -30.8791   27.0191 H   0  0  0  0  0  0
  -26.2803  -29.6815   24.1133 H   0  0  0  0  0  0
  -27.4158  -29.7287   25.4436 H   0  0  0  0  0  0
  -27.8596  -30.4402   23.9085 H   0  0  0  0  0  0
  -27.2690  -33.3578   26.2100 H   0  0  0  0  0  0
  -28.3842  -32.6898   25.0265 H   0  0  0  0  0  0
  -28.0766  -31.8380   26.5325 H   0  0  0  0  0  0
  -28.2612  -38.0096   24.7502 H   0  0  0  0  0  0
  -28.1062  -36.2632   24.6311 H   0  0  0  0  0  0
  -27.2295  -37.1480   25.8869 H   0  0  0  0  0  0
  -20.9276  -29.8777   21.6998 H   0  0  0  0  0  0
  -26.0185  -38.2878   24.1420 H   0  0  0  0  0  0
  -29.1100  -19.7085   18.2529 H   0  0  0  0  0  0
  -29.6688  -21.5994   19.6663 H   0  0  0  0  0  0
  -30.8630  -18.9076   22.8182 H   0  0  0  0  0  0
  -29.1327  -17.4883   17.7056 H   0  0  0  0  0  0
  -28.6979  -16.3944   19.0007 H   0  0  0  0  0  0
  -30.3868  -16.5288   18.4689 H   0  0  0  0  0  0
  -28.3583  -23.5616   22.4968 H   0  0  0  0  0  0
  -28.5769  -22.6864   21.0387 H   0  0  0  0  0  0
  -29.7636  -25.4073   21.7879 H   0  0  0  0  0  0
  -30.2851  -24.5793   20.3440 H   0  0  0  0  0  0
  -27.3396  -25.0786   20.8291 H   0  0  0  0  0  0
  -28.1438  -24.8402   19.2828 H   0  0  0  0  0  0
  -31.3711  -21.1551   22.9270 H   0  0  0  0  0  0
  -29.1314  -15.5123   21.0391 H   0  0  0  0  0  0
  1 25  1  0  0  0
  1 30  2  0  0  0
  1 84  1  0  0  0
  2  3  1  0  0  0
  2 25  1  0  0  0
  2 87  1  0  0  0
  2 88  1  0  0  0
  3  4  1  0  0  0
  3 89  1  0  0  0
  3 90  1  0  0  0
  4  5  1  0  0  0
  4 91  1  0  0  0
  4 92  1  0  0  0
  5  6  1  0  0  0
  5 26  1  0  0  0
  5 93  1  0  0  0
  6 25  1  0  0  0
  6 94  1  0  0  0
  6 95  1  0  0  0
  7  8  2  0  0  0
  7 26  1  0  0  0
  7 29  1  0  0  0
  8  9  1  0  0  0
  8 22  1  0  0  0
  9 10  1  0  0  0
  9 27  2  0  0  0
 10 11  2  0  0  0
 10 15  1  0  0  0
 11 12  1  0  0  0
 11 96  1  0  0  0
 12 13  2  0  0  0
 12 97  1  0  0  0
 13 14  1  0  0  0
 13 31  1  0  0  0
 14 15  2  0  0  0
 14 98  1  0  0  0
 15 99  1  0  0  0
 16 17  2  0  0  0
 16 21  1  0  0  0
 16 31  1  0  0  0
 17 18  1  0  0  0
 17100  1  0  0  0
 18 19  2  0  0  0
 18101  1  0  0  0
 19 20  1  0  0  0
 19 24  1  0  0  0
 20 21  2  0  0  0
 20102  1  0  0  0
 21 23  1  0  0  0
 22 28  1  0  0  0
 22 32  2  0  0  0
 26 27  1  0  0  0
 28103  1  0  0  0
 28104  1  0  0  0
 29105  1  0  0  0
 29106  1  0  0  0
 33 34  1  0  0  0
 33 66  1  0  0  0
 33 70  2  0  0  0
 34 36  1  0  0  0
 34 59  1  0  0  0
 34107  1  0  0  0
 35 44  2  0  0  0
 35 45  1  0  0  0
 35 68  1  0  0  0
 36 56  1  0  0  0
 36108  1  0  0  0
 37 39  1  0  0  0
 37 47  1  0  0  0
 37 66  1  0  0  0
 37109  1  0  0  0
 38 43  2  0  0  0
 38 46  1  0  0  0
 38 47  1  0  0  0
 39 64  1  0  0  0
 39 67  2  0  0  0
 40 52  1  0  0  0
 40 53  2  0  0  0
 40 58  1  0  0  0
 41110  1  0  0  0
 41111  1  0  0  0
 41112  1  0  0  0
 41 48  1  0  0  0
 42 43  1  0  0  0
 42 66  1  0  0  0
 42113  1  0  0  0
 42114  1  0  0  0
 43 44  1  0  0  0
 44115  1  0  0  0
 45 46  2  0  0  0
 45116  1  0  0  0
 46117  1  0  0  0
 47118  1  0  0  0
 47119  1  0  0  0
 48 56  1  0  0  0
 48 65  1  0  0  0
 48120  1  0  0  0
 49 50  1  0  0  0
 49 53  1  0  0  0
 49 64  1  0  0  0
 49121  1  0  0  0
 50 51  1  0  0  0
 50122  1  0  0  0
 50123  1  0  0  0
 51 52  1  0  0  0
 51124  1  0  0  0
 51125  1  0  0  0
 52126  1  0  0  0
 52127  1  0  0  0
 53 54  1  0  0  0
 54 55  2  0  0  0
 54128  1  0  0  0
 55 57  1  0  0  0
 55129  1  0  0  0
 56 69  2  0  0  0
 57 58  2  0  0  0
 57130  1  0  0  0
 58131  1  0  0  0
 59 60  1  0  0  0
 59 61  1  0  0  0
 59 62  1  0  0  0
 60132  1  0  0  0
 60133  1  0  0  0
 60134  1  0  0  0
 61135  1  0  0  0
 61136  1  0  0  0
 61137  1  0  0  0
 62138  1  0  0  0
 62139  1  0  0  0
 62140  1  0  0  0
 63 65  1  0  0  0
 63141  1  0  0  0
 63142  1  0  0  0
 63143  1  0  0  0
 64144  1  0  0  0
 65145  1  0  0  0
 68 82  1  0  0  0
 71 72  2  0  0  0
 71 75  1  0  0  0
 71146  1  0  0  0
 72 76  1  0  0  0
 72147  1  0  0  0
 73 74  1  0  0  0
 73 76  2  0  0  0
 73148  1  0  0  0
 74 75  2  0  0  0
 74 77  1  0  0  0
 75 79  1  0  0  0
 76 83  1  0  0  0
 77 84  1  0  0  0
 77 85  2  0  0  0
 78 80  1  0  0  0
 78 83  1  0  0  0
 78 86  2  0  0  0
 79149  1  0  0  0
 79150  1  0  0  0
 79151  1  0  0  0
 80 81  1  0  0  0
 80152  1  0  0  0
 80153  1  0  0  0
 81 82  1  0  0  0
 81154  1  0  0  0
 81155  1  0  0  0
 82156  1  0  0  0
 82157  1  0  0  0
 83158  1  0  0  0
 84159  1  0  0  0
M  ISO  4   1 100  68 101  82 101  84 100
M  END
> <chiral flag>
0

> <version>
0

> <s_m_source_file>
/data/baiqing/PycharmProjects/Reinvent-master-3.2/result/LINK_invent/BTK/process_docking_weight1_custom_product_contain_oxygen_bond_distance_aromatic_linkinvent_7_9_3/rearranged_h_0109.sdf

> <i_m_source_file_index>
2

> <r_mmod_Potential_Energy-OPLS-2005>
-106.787467956543

> <r_mmod_Stretch_Energy-OPLS-2005>
35.6429786682129

> <r_mmod_Bend_Energy-OPLS-2005>
118.070678710938

> <r_mmod_Torsional_Energy-OPLS-2005>
288.385986328125

> <r_mmod_Improper_Torsional_Energy-OPLS-2005>
6.88213396072388

> <r_mmod_Van_der_Waal_Energy-OPLS-2005>
172.596649169922

> <r_mmod_Electrostatic_Energy-OPLS-2005>
-506.680450439453

> <r_mmod_Solvation_Energy-OPLS-2005>
-237.195953369141

> <b_mmod_Minimization_Converged-OPLS-2005>
0

> <r_mmod_RMS_Derivative-OPLS-2005>
2.22520685195923

$$$$
2
                    3D
 Structure written by MMmdl.
169178  0  0  1  0            999 V2000
  -30.5857  -14.6632   20.5031 C   0  0  0  0  0  0
  -30.4458  -12.4084   19.4469 C   0  0  0  0  0  0
  -29.5097  -12.5131   18.2207 C   0  0  0  0  0  0
  -28.0269  -12.3636   18.6259 C   0  0  0  0  0  0
  -27.6543  -13.2168   19.8653 C   0  0  2  0  0  0
  -28.6999  -13.0497   20.9899 C   0  0  0  0  0  0
  -25.2570  -13.8182   20.5727 C   0  0  0  0  0  0
  -24.1833  -13.0429   20.9173 C   0  0  0  0  0  0
  -24.6402  -11.6909   20.8701 C   0  0  0  0  0  0
  -23.9050  -10.4291   21.0378 C   0  0  0  0  0  0
  -24.3603   -9.4204   21.9164 C   0  0  0  0  0  0
  -23.6274   -8.2242   22.0741 C   0  0  0  0  0  0
  -22.4253   -8.0286   21.3537 C   0  0  0  0  0  0
  -21.9883   -9.0254   20.4643 C   0  0  0  0  0  0
  -22.7214  -10.2137   20.3037 C   0  0  0  0  0  0
  -21.6869   -6.0729   22.5274 C   0  0  0  0  0  0
  -21.4030   -6.5637   23.8203 C   0  0  0  0  0  0
  -21.3625   -5.6780   24.9153 C   0  0  0  0  0  0
  -21.6029   -4.3041   24.7218 C   0  0  0  0  0  0
  -21.8832   -3.8128   23.4351 C   0  0  0  0  0  0
  -21.9200   -4.6950   22.3400 C   0  0  0  0  0  0
  -22.7847  -13.5208   21.1822 C   0  0  0  0  0  0
  -22.1672   -4.2130   21.0984 F   0  0  0  0  0  0
  -21.5583   -3.4520   25.7726 F   0  0  0  0  0  0
  -30.0141  -13.4171   20.4331 N   0  0  0  0  0  0
  -26.2988  -12.9370   20.3314 N   0  0  0  0  0  0
  -25.9330  -11.6511   20.5726 N   0  0  0  0  0  0
  -22.0485  -12.8217   22.0388 N   0  0  0  0  0  0
  -25.4346  -15.1911   20.4299 N   0  0  0  0  0  0
  -31.7364  -14.8599   20.0931 O   0  0  0  0  0  0
  -21.6642   -6.8874   21.4244 O   0  0  0  0  0  0
  -22.3516  -14.5507   20.6656 O   0  0  0  0  0  0
  -24.6241  -31.8563   23.1980 C   0  0  0  0  0  0
  -25.9089  -32.4753   23.8318 C   0  0  1  0  0  0
  -27.2465  -27.3083   20.1325 C   0  0  0  0  0  0
  -25.5900  -33.8549   24.2253 N   0  0  0  0  0  0
  -23.4201  -30.4745   21.5384 C   0  0  2  0  0  0
  -24.8751  -28.9211   20.1066 C   0  0  0  0  0  0
  -22.7446  -29.4590   22.4910 C   0  0  0  0  0  0
  -18.0286  -28.1377   22.8478 C   0  0  0  0  0  0
  -24.1471  -36.7275   23.2616 C   0  0  0  0  0  0
  -25.9570  -30.7853   21.3695 C   0  0  0  0  0  0
  -26.0358  -29.4076   20.7173 C   0  0  0  0  0  0
  -27.2163  -28.6094   20.7260 C   0  0  0  0  0  0
  -26.0646  -26.8692   19.4947 C   0  0  0  0  0  0
  -24.8912  -27.6577   19.4871 C   0  0  0  0  0  0
  -23.6386  -29.8010   20.1557 C   0  0  0  0  0  0
  -25.4081  -36.3056   24.0325 C   0  0  1  0  0  0
  -20.5880  -28.3676   23.1278 C   0  0  2  0  0  0
  -20.6766  -26.9398   22.5414 C   0  0  0  0  0  0
  -19.5763  -26.6381   21.5196 C   0  0  0  0  0  0
  -18.1939  -26.7916   22.1611 C   0  0  0  0  0  0
  -19.1533  -28.8845   23.2879 C   0  0  0  0  0  0
  -18.9469  -30.1437   23.8904 C   0  0  0  0  0  0
  -17.6467  -30.6576   24.0578 C   0  0  0  0  0  0
  -25.9046  -34.9440   23.5092 C   0  0  0  0  0  0
  -16.5359  -29.9077   23.6336 C   0  0  0  0  0  0
  -16.7268  -28.6502   23.0350 C   0  0  0  0  0  0
  -26.4493  -31.6554   25.0680 C   0  0  0  0  0  0
  -25.3747  -31.3734   26.1432 C   0  0  0  0  0  0
  -27.0305  -30.2958   24.6131 C   0  0  0  0  0  0
  -27.6054  -32.4289   25.7437 C   0  0  0  0  0  0
  -27.5615  -37.1715   24.8408 C   0  0  0  0  0  0
  -21.4169  -29.3015   22.3643 N   0  0  0  0  0  0
  -26.4225  -37.3796   23.9503 N   0  0  0  0  0  0
  -24.6851  -31.0556   22.0934 N   0  0  0  0  0  0
  -23.4152  -28.8173   23.3041 O   0  0  0  0  0  0
  -28.3836  -26.4908   20.2560 O   0  0  0  0  0  0
  -26.5654  -34.8912   22.4682 O   0  0  0  0  0  0
  -23.5405  -32.1368   23.7302 O   0  0  0  0  0  0
  -28.4506  -19.2717   21.1345 C   0  0  0  0  0  0
  -30.5523  -17.8851   19.9193 C   0  0  0  0  0  0
  -28.6417  -17.8769   21.3832 C   0  0  0  0  0  0
  -29.2758  -20.0153   20.2527 C   0  0  0  0  0  0
  -29.6829  -17.1259   20.7503 C   0  0  0  0  0  0
  -30.3693  -19.2929   19.6852 C   0  0  0  0  0  0
  -27.6463  -22.9733   18.7086 C   0  0  0  0  0  0
  -27.7871  -21.4803   19.0295 C   0  0  0  0  0  0
  -28.0994  -23.7526   19.9598 C   0  0  1  0  0  0
  -28.9806  -22.6120   20.6887 C   0  0  2  0  0  0
  -27.6714  -17.2128   22.3525 C   0  0  0  0  0  0
  -31.0116  -22.0688   22.1813 C   0  0  0  0  0  0
  -32.6032  -19.7010   18.9958 C   0  0  0  0  0  0
  -28.6121  -25.2232   19.5232 C   0  0  0  0  0  0
  -30.3971  -23.0242   21.1407 C   0  0  0  0  0  0
  -28.9834  -21.3742   19.8467 N   0  0  0  0  0  0
  -29.7594  -15.6671   20.9443 N   0  0  0  0  0  0
  -31.2191  -19.9955   18.8619 O   0  0  0  0  0  0
  -31.4816  -12.5581   19.1346 H   0  0  0  0  0  0
  -30.4062  -11.4089   19.8841 H   0  0  0  0  0  0
  -29.7635  -11.7506   17.4818 H   0  0  0  0  0  0
  -29.6613  -13.4765   17.7304 H   0  0  0  0  0  0
  -27.8425  -11.3101   18.8340 H   0  0  0  0  0  0
  -27.3844  -12.6242   17.7844 H   0  0  0  0  0  0
  -27.6727  -14.2565   19.5389 H   0  0  0  0  0  0
  -28.7187  -12.0159   21.3373 H   0  0  0  0  0  0
  -28.4435  -13.6501   21.8612 H   0  0  0  0  0  0
  -25.2763   -9.5671   22.4710 H   0  0  0  0  0  0
  -23.9953   -7.4629   22.7459 H   0  0  0  0  0  0
  -21.0794   -8.8795   19.8971 H   0  0  0  0  0  0
  -22.3670  -10.9664   19.6126 H   0  0  0  0  0  0
  -21.2075   -7.6158   23.9707 H   0  0  0  0  0  0
  -21.1393   -6.0510   25.9043 H   0  0  0  0  0  0
  -22.0645   -2.7591   23.2877 H   0  0  0  0  0  0
  -22.4108  -11.9886   22.4792 H   0  0  0  0  0  0
  -21.1091  -13.1259   22.2546 H   0  0  0  0  0  0
  -24.6966  -15.8602   20.6175 H   0  0  0  0  0  0
  -26.3042  -15.6301   20.1582 H   0  0  0  0  0  0
  -26.7141  -32.5434   23.1055 H   0  0  0  0  0  0
  -25.0001  -33.9689   25.0361 H   0  0  0  0  0  0
  -22.7132  -31.2942   21.3900 H   0  0  0  0  0  0
  -23.3795  -35.9535   23.3091 H   0  0  0  0  0  0
  -24.3629  -36.9099   22.2079 H   0  0  0  0  0  0
  -23.7102  -37.6354   23.6769 H   0  0  0  0  0  0
  -26.0820  -31.5464   20.5977 H   0  0  0  0  0  0
  -26.8360  -30.8408   21.9991 H   0  0  0  0  0  0
  -28.1014  -28.9771   21.2267 H   0  0  0  0  0  0
  -26.0275  -25.8946   19.0326 H   0  0  0  0  0  0
  -23.9993  -27.2753   19.0092 H   0  0  0  0  0  0
  -23.7551  -30.5754   19.3971 H   0  0  0  0  0  0
  -22.7596  -29.2296   19.8535 H   0  0  0  0  0  0
  -25.1217  -36.1862   25.0803 H   0  0  0  0  0  0
  -20.9975  -28.3267   24.1397 H   0  0  0  0  0  0
  -20.5635  -26.2292   23.3612 H   0  0  0  0  0  0
  -21.6645  -26.7401   22.1253 H   0  0  0  0  0  0
  -19.6942  -25.6295   21.1219 H   0  0  0  0  0  0
  -19.6712  -27.3197   20.6735 H   0  0  0  0  0  0
  -17.4205  -26.6649   21.4021 H   0  0  0  0  0  0
  -18.0365  -26.0040   22.8996 H   0  0  0  0  0  0
  -19.7942  -30.7253   24.2275 H   0  0  0  0  0  0
  -17.5022  -31.6239   24.5199 H   0  0  0  0  0  0
  -15.5360  -30.2996   23.7633 H   0  0  0  0  0  0
  -15.8674  -28.0811   22.7071 H   0  0  0  0  0  0
  -24.5890  -30.7106   25.7789 H   0  0  0  0  0  0
  -24.8998  -32.2932   26.4856 H   0  0  0  0  0  0
  -25.8094  -30.8908   27.0197 H   0  0  0  0  0  0
  -26.2851  -29.6707   24.1198 H   0  0  0  0  0  0
  -27.4025  -29.7216   25.4628 H   0  0  0  0  0  0
  -27.8721  -30.4203   23.9313 H   0  0  0  0  0  0
  -27.2661  -33.3598   26.1991 H   0  0  0  0  0  0
  -28.3876  -32.6830   25.0271 H   0  0  0  0  0  0
  -28.0699  -31.8428   26.5375 H   0  0  0  0  0  0
  -28.2394  -38.0243   24.7810 H   0  0  0  0  0  0
  -28.1340  -36.2820   24.5736 H   0  0  0  0  0  0
  -27.2434  -37.0741   25.8804 H   0  0  0  0  0  0
  -20.9338  -29.8672   21.6801 H   0  0  0  0  0  0
  -26.0078  -38.2795   24.1765 H   0  0  0  0  0  0
  -27.6233  -19.7772   21.6134 H   0  0  0  0  0  0
  -31.3530  -17.3639   19.4165 H   0  0  0  0  0  0
  -26.6349  -23.2315   18.3940 H   0  0  0  0  0  0
  -28.3104  -23.2059   17.8743 H   0  0  0  0  0  0
  -27.8799  -20.8906   18.1161 H   0  0  0  0  0  0
  -26.9108  -21.1210   19.5744 H   0  0  0  0  0  0
  -27.2120  -23.9006   20.5763 H   0  0  0  0  0  0
  -28.4331  -22.3552   21.5982 H   0  0  0  0  0  0
  -27.6142  -17.7946   23.2723 H   0  0  0  0  0  0
  -27.9590  -16.2029   22.6382 H   0  0  0  0  0  0
  -26.6703  -17.1730   21.9230 H   0  0  0  0  0  0
  -31.9622  -22.4474   22.5531 H   0  0  0  0  0  0
  -31.2004  -21.0779   21.7712 H   0  0  0  0  0  0
  -30.3524  -21.9463   23.0410 H   0  0  0  0  0  0
  -33.1807  -20.4514   18.4574 H   0  0  0  0  0  0
  -32.8621  -18.7313   18.5739 H   0  0  0  0  0  0
  -32.9192  -19.7336   20.0404 H   0  0  0  0  0  0
  -28.2569  -25.4166   18.5100 H   0  0  0  0  0  0
  -29.6935  -25.1585   19.4002 H   0  0  0  0  0  0
  -30.3457  -24.0136   21.5949 H   0  0  0  0  0  0
  -31.0656  -23.1188   20.2829 H   0  0  0  0  0  0
  -28.9356  -15.2797   21.3779 H   0  0  0  0  0  0
  1 25  1  0  0  0
  1 30  2  0  0  0
  1 87  1  0  0  0
  2  3  1  0  0  0
  2 25  1  0  0  0
  2 89  1  0  0  0
  2 90  1  0  0  0
  3  4  1  0  0  0
  3 91  1  0  0  0
  3 92  1  0  0  0
  4  5  1  0  0  0
  4 93  1  0  0  0
  4 94  1  0  0  0
  5  6  1  0  0  0
  5 26  1  0  0  0
  5 95  1  0  0  0
  6 25  1  0  0  0
  6 96  1  0  0  0
  6 97  1  0  0  0
  7  8  2  0  0  0
  7 26  1  0  0  0
  7 29  1  0  0  0
  8  9  1  0  0  0
  8 22  1  0  0  0
  9 10  1  0  0  0
  9 27  2  0  0  0
 10 11  2  0  0  0
 10 15  1  0  0  0
 11 12  1  0  0  0
 11 98  1  0  0  0
 12 13  2  0  0  0
 12 99  1  0  0  0
 13 14  1  0  0  0
 13 31  1  0  0  0
 14 15  2  0  0  0
 14100  1  0  0  0
 15101  1  0  0  0
 16 17  2  0  0  0
 16 21  1  0  0  0
 16 31  1  0  0  0
 17 18  1  0  0  0
 17102  1  0  0  0
 18 19  2  0  0  0
 18103  1  0  0  0
 19 20  1  0  0  0
 19 24  1  0  0  0
 20 21  2  0  0  0
 20104  1  0  0  0
 21 23  1  0  0  0
 22 28  1  0  0  0
 22 32  2  0  0  0
 26 27  1  0  0  0
 28105  1  0  0  0
 28106  1  0  0  0
 29107  1  0  0  0
 29108  1  0  0  0
 33 34  1  0  0  0
 33 66  1  0  0  0
 33 70  2  0  0  0
 34 36  1  0  0  0
 34 59  1  0  0  0
 34109  1  0  0  0
 35 44  2  0  0  0
 35 45  1  0  0  0
 35 68  1  0  0  0
 36 56  1  0  0  0
 36110  1  0  0  0
 37 39  1  0  0  0
 37 47  1  0  0  0
 37 66  1  0  0  0
 37111  1  0  0  0
 38 43  2  0  0  0
 38 46  1  0  0  0
 38 47  1  0  0  0
 39 64  1  0  0  0
 39 67  2  0  0  0
 40 52  1  0  0  0
 40 53  2  0  0  0
 40 58  1  0  0  0
 41112  1  0  0  0
 41113  1  0  0  0
 41114  1  0  0  0
 41 48  1  0  0  0
 42 43  1  0  0  0
 42 66  1  0  0  0
 42115  1  0  0  0
 42116  1  0  0  0
 43 44  1  0  0  0
 44117  1  0  0  0
 45 46  2  0  0  0
 45118  1  0  0  0
 46119  1  0  0  0
 47120  1  0  0  0
 47121  1  0  0  0
 48 56  1  0  0  0
 48 65  1  0  0  0
 48122  1  0  0  0
 49 50  1  0  0  0
 49 53  1  0  0  0
 49 64  1  0  0  0
 49123  1  0  0  0
 50 51  1  0  0  0
 50124  1  0  0  0
 50125  1  0  0  0
 51 52  1  0  0  0
 51126  1  0  0  0
 51127  1  0  0  0
 52128  1  0  0  0
 52129  1  0  0  0
 53 54  1  0  0  0
 54 55  2  0  0  0
 54130  1  0  0  0
 55 57  1  0  0  0
 55131  1  0  0  0
 56 69  2  0  0  0
 57 58  2  0  0  0
 57132  1  0  0  0
 58133  1  0  0  0
 59 60  1  0  0  0
 59 61  1  0  0  0
 59 62  1  0  0  0
 60134  1  0  0  0
 60135  1  0  0  0
 60136  1  0  0  0
 61137  1  0  0  0
 61138  1  0  0  0
 61139  1  0  0  0
 62140  1  0  0  0
 62141  1  0  0  0
 62142  1  0  0  0
 63 65  1  0  0  0
 63143  1  0  0  0
 63144  1  0  0  0
 63145  1  0  0  0
 64146  1  0  0  0
 65147  1  0  0  0
 68 84  1  0  0  0
 71 73  2  0  0  0
 71 74  1  0  0  0
 71148  1  0  0  0
 72 75  2  0  0  0
 72 76  1  0  0  0
 72149  1  0  0  0
 73 75  1  0  0  0
 73 81  1  0  0  0
 74 76  2  0  0  0
 74 86  1  0  0  0
 75 87  1  0  0  0
 76 88  1  0  0  0
 77 78  1  0  0  0
 77 79  1  0  0  0
 77150  1  0  0  0
 77151  1  0  0  0
 78 86  1  0  0  0
 78152  1  0  0  0
 78153  1  0  0  0
 79 80  1  0  0  0
 79 84  1  0  0  0
 79154  1  0  0  0
 80 85  1  0  0  0
 80 86  1  0  0  0
 80155  1  0  0  0
 81156  1  0  0  0
 81157  1  0  0  0
 81158  1  0  0  0
 82 85  1  0  0  0
 82159  1  0  0  0
 82160  1  0  0  0
 82161  1  0  0  0
 83 88  1  0  0  0
 83162  1  0  0  0
 83163  1  0  0  0
 83164  1  0  0  0
 84165  1  0  0  0
 84166  1  0  0  0
 85167  1  0  0  0
 85168  1  0  0  0
 87169  1  0  0  0
M  ISO  4   1 100  68 101  84 101  87 100
M  END
> <chiral flag>
0

> <version>
0

> <s_m_source_file>
/data/baiqing/PycharmProjects/Reinvent-master-3.2/result/LINK_invent/BTK/process_docking_weight1_custom_product_contain_oxygen_bond_distance_aromatic_linkinvent_7_9_3/rearranged_h_0109.sdf

> <i_m_source_file_index>
3

> <r_mmod_Potential_Energy-OPLS-2005>
243.645980834961

> <r_mmod_Stretch_Energy-OPLS-2005>
94.2240371704102

> <r_mmod_Bend_Energy-OPLS-2005>
227.906524658203

> <r_mmod_Torsional_Energy-OPLS-2005>
332.300384521484

> <r_mmod_Improper_Torsional_Energy-OPLS-2005>
8.18102073669434

> <r_mmod_Van_der_Waal_Energy-OPLS-2005>
131.380737304688

> <r_mmod_Electrostatic_Energy-OPLS-2005>
-387.936309814453

> <r_mmod_Solvation_Energy-OPLS-2005>
-219.056503295898

> <b_mmod_Minimization_Converged-OPLS-2005>
0

> <r_mmod_RMS_Derivative-OPLS-2005>
3.78140068054199

$$$$
3
                    3D
 Structure written by MMmdl.
174183  0  0  1  0            999 V2000
  -30.7397  -14.5468   20.5762 C   0  0  0  0  0  0
  -30.4179  -12.3714   19.4462 C   0  0  0  0  0  0
  -29.4926  -12.5143   18.2226 C   0  0  0  0  0  0
  -28.0140  -12.3612   18.6297 C   0  0  0  0  0  0
  -27.6486  -13.2239   19.8696 C   0  0  2  0  0  0
  -28.6982  -13.0830   20.9969 C   0  0  0  0  0  0
  -25.2506  -13.8193   20.5736 C   0  0  0  0  0  0
  -24.1801  -13.0437   20.9202 C   0  0  0  0  0  0
  -24.6363  -11.6907   20.8748 C   0  0  0  0  0  0
  -23.9046  -10.4290   21.0392 C   0  0  0  0  0  0
  -24.3589   -9.4205   21.9161 C   0  0  0  0  0  0
  -23.6286   -8.2236   22.0726 C   0  0  0  0  0  0
  -22.4263   -8.0260   21.3519 C   0  0  0  0  0  0
  -21.9895   -9.0244   20.4623 C   0  0  0  0  0  0
  -22.7217  -10.2127   20.3045 C   0  0  0  0  0  0
  -21.6850   -6.0716   22.5269 C   0  0  0  0  0  0
  -21.4012   -6.5624   23.8191 C   0  0  0  0  0  0
  -21.3672   -5.6783   24.9161 C   0  0  0  0  0  0
  -21.6052   -4.3047   24.7220 C   0  0  0  0  0  0
  -21.8822   -3.8137   23.4343 C   0  0  0  0  0  0
  -21.9201   -4.6951   22.3386 C   0  0  0  0  0  0
  -22.7792  -13.5214   21.1867 C   0  0  0  0  0  0
  -22.1657   -4.2126   21.0970 F   0  0  0  0  0  0
  -21.5652   -3.4535   25.7745 F   0  0  0  0  0  0
  -30.0126  -13.3973   20.4242 N   0  0  0  0  0  0
  -26.2962  -12.9399   20.3415 N   0  0  0  0  0  0
  -25.9305  -11.6533   20.5798 N   0  0  0  0  0  0
  -22.0469  -12.8192   22.0425 N   0  0  0  0  0  0
  -25.4229  -15.1917   20.4056 N   0  0  0  0  0  0
  -31.8898  -14.6109   20.1362 O   0  0  0  0  0  0
  -21.6636   -6.8849   21.4213 O   0  0  0  0  0  0
  -22.3465  -14.5516   20.6724 O   0  0  0  0  0  0
  -24.6137  -31.8658   23.2164 C   0  0  0  0  0  0
  -25.9040  -32.4846   23.8446 C   0  0  1  0  0  0
  -27.2431  -27.4065   20.1346 C   0  0  0  0  0  0
  -25.5938  -33.8622   24.2419 N   0  0  0  0  0  0
  -23.4051  -30.4907   21.5477 C   0  0  2  0  0  0
  -24.8611  -28.9550   20.1088 C   0  0  0  0  0  0
  -22.7394  -29.4600   22.4894 C   0  0  0  0  0  0
  -18.0234  -28.1330   22.8468 C   0  0  0  0  0  0
  -24.1475  -36.7300   23.2617 C   0  0  0  0  0  0
  -25.9291  -30.8410   21.3557 C   0  0  0  0  0  0
  -26.0135  -29.4645   20.7129 C   0  0  0  0  0  0
  -27.2012  -28.6974   20.7244 C   0  0  0  0  0  0
  -26.0739  -26.9160   19.5077 C   0  0  0  0  0  0
  -24.8834  -27.6825   19.5029 C   0  0  0  0  0  0
  -23.6321  -29.8422   20.1513 C   0  0  0  0  0  0
  -25.4065  -36.3106   24.0361 C   0  0  1  0  0  0
  -20.5830  -28.3596   23.1313 C   0  0  2  0  0  0
  -20.6730  -26.9333   22.5402 C   0  0  0  0  0  0
  -19.5743  -26.6344   21.5165 C   0  0  0  0  0  0
  -18.1907  -26.7886   22.1556 C   0  0  0  0  0  0
  -19.1501  -28.8765   23.2915 C   0  0  0  0  0  0
  -18.9407  -30.1338   23.8983 C   0  0  0  0  0  0
  -17.6437  -30.6578   24.0499 C   0  0  0  0  0  0
  -25.8986  -34.9465   23.5154 C   0  0  0  0  0  0
  -16.5309  -29.9070   23.6296 C   0  0  0  0  0  0
  -16.7225  -28.6438   23.0397 C   0  0  0  0  0  0
  -26.4485  -31.6579   25.0706 C   0  0  0  0  0  0
  -25.3812  -31.3630   26.1502 C   0  0  0  0  0  0
  -27.0215  -30.3057   24.5888 C   0  0  0  0  0  0
  -27.6157  -32.4138   25.7490 C   0  0  0  0  0  0
  -27.5566  -37.1803   24.8463 C   0  0  0  0  0  0
  -21.4111  -29.3003   22.3741 N   0  0  0  0  0  0
  -26.4241  -37.3779   23.9471 N   0  0  0  0  0  0
  -24.6693  -31.0746   22.1059 N   0  0  0  0  0  0
  -23.4167  -28.8106   23.2922 O   0  0  0  0  0  0
  -28.3791  -26.6265   20.3076 O   0  0  0  0  0  0
  -26.5444  -34.8899   22.4665 O   0  0  0  0  0  0
  -23.5344  -32.1356   23.7596 O   0  0  0  0  0  0
  -30.1405  -20.3526   19.8910 C   0  0  0  0  0  0
  -28.4052  -19.9238   21.5162 C   0  0  0  0  0  0
  -30.0869  -18.1731   21.0746 C   0  0  0  0  0  0
  -30.6820  -19.0630   20.1332 C   0  0  0  0  0  0
  -28.9703  -20.7958   20.5501 C   0  0  0  0  0  0
  -28.9843  -18.6559   21.8186 C   0  0  0  0  0  0
  -28.5146  -24.2447   19.2577 C   0  0  0  0  0  0
  -28.6014  -23.3238   20.2804 C   0  0  0  0  0  0
  -28.2030  -23.7339   17.8799 C   0  0  0  0  0  0
  -30.7364  -16.8223   21.3724 C   0  0  0  0  0  0
  -28.0704  -22.2290   17.6751 C   0  0  0  0  0  0
  -27.4749  -21.6100   18.9339 C   0  0  0  0  0  0
  -31.9298  -18.6356   19.3740 C   0  0  0  0  0  0
  -29.0204  -23.6917   21.6961 C   0  0  0  0  0  0
  -30.4250  -19.4647   25.8499 C   0  0  0  0  0  0
  -28.8951  -25.7611   19.2768 C   0  0  0  0  0  0
  -30.2257  -18.7876   24.4879 C   0  0  0  0  0  0
  -28.7356  -18.5195   24.1530 C   0  0  0  0  0  0
  -28.2700  -21.9567   20.1092 N   0  0  0  0  0  0
  -30.1014  -15.6635   21.0283 N   0  0  0  0  0  0
  -28.0819  -24.4456   16.8788 O   0  0  0  0  0  0
  -31.8632  -16.8378   21.8783 O   0  0  0  0  0  0
  -28.5359  -17.9064   22.8778 O   0  0  0  0  0  0
  -31.4592  -12.4637   19.1332 H   0  0  0  0  0  0
  -30.3361  -11.3819   19.8951 H   0  0  0  0  0  0
  -29.7523  -11.7834   17.4559 H   0  0  0  0  0  0
  -29.6460  -13.4952   17.7691 H   0  0  0  0  0  0
  -27.8240  -11.3065   18.8337 H   0  0  0  0  0  0
  -27.3678  -12.6252   17.7921 H   0  0  0  0  0  0
  -27.6618  -14.2619   19.5329 H   0  0  0  0  0  0
  -28.7044  -12.0651   21.3879 H   0  0  0  0  0  0
  -28.4579  -13.7245   21.8464 H   0  0  0  0  0  0
  -25.2721   -9.5706   22.4725 H   0  0  0  0  0  0
  -24.0018   -7.4623   22.7422 H   0  0  0  0  0  0
  -21.0833   -8.8740   19.8919 H   0  0  0  0  0  0
  -22.3652  -10.9651   19.6161 H   0  0  0  0  0  0
  -21.1977   -7.6125   23.9682 H   0  0  0  0  0  0
  -21.1500   -6.0510   25.9053 H   0  0  0  0  0  0
  -22.0594   -2.7601   23.2848 H   0  0  0  0  0  0
  -22.4112  -11.9885   22.4863 H   0  0  0  0  0  0
  -21.1053  -13.1172   22.2588 H   0  0  0  0  0  0
  -24.6593  -15.8504   20.4925 H   0  0  0  0  0  0
  -26.2739  -15.6169   20.0643 H   0  0  0  0  0  0
  -26.7107  -32.5599   23.1226 H   0  0  0  0  0  0
  -25.0403  -33.9788   25.0778 H   0  0  0  0  0  0
  -22.6921  -31.3085   21.4153 H   0  0  0  0  0  0
  -23.3737  -35.9631   23.3222 H   0  0  0  0  0  0
  -24.3646  -36.8914   22.2053 H   0  0  0  0  0  0
  -23.7199  -37.6487   23.6616 H   0  0  0  0  0  0
  -25.9920  -31.6043   20.5794 H   0  0  0  0  0  0
  -26.8401  -30.9386   21.9341 H   0  0  0  0  0  0
  -28.0810  -29.0956   21.2101 H   0  0  0  0  0  0
  -26.0651  -25.9229   19.0815 H   0  0  0  0  0  0
  -23.9861  -27.2846   19.0504 H   0  0  0  0  0  0
  -23.7963  -30.6437   19.4280 H   0  0  0  0  0  0
  -22.7502  -29.3026   19.8029 H   0  0  0  0  0  0
  -25.1215  -36.1968   25.0835 H   0  0  0  0  0  0
  -20.9874  -28.3132   24.1447 H   0  0  0  0  0  0
  -20.5552  -26.2170   23.3545 H   0  0  0  0  0  0
  -21.6623  -26.7347   22.1265 H   0  0  0  0  0  0
  -19.6908  -25.6240   21.1217 H   0  0  0  0  0  0
  -19.6783  -27.3109   20.6673 H   0  0  0  0  0  0
  -17.4179  -26.6574   21.3951 H   0  0  0  0  0  0
  -18.0359  -26.0028   22.8970 H   0  0  0  0  0  0
  -19.7883  -30.7088   24.2494 H   0  0  0  0  0  0
  -17.4995  -31.6320   24.4980 H   0  0  0  0  0  0
  -15.5307  -30.3030   23.7574 H   0  0  0  0  0  0
  -15.8578  -28.0747   22.7209 H   0  0  0  0  0  0
  -24.6103  -30.6775   25.7944 H   0  0  0  0  0  0
  -24.8843  -32.2725   26.4895 H   0  0  0  0  0  0
  -25.8306  -30.8952   27.0286 H   0  0  0  0  0  0
  -26.2649  -29.6956   24.0904 H   0  0  0  0  0  0
  -27.4029  -29.7144   25.4233 H   0  0  0  0  0  0
  -27.8518  -30.4456   23.8948 H   0  0  0  0  0  0
  -27.2950  -33.3517   26.2045 H   0  0  0  0  0  0
  -28.4092  -32.6464   25.0370 H   0  0  0  0  0  0
  -28.0646  -31.8146   26.5430 H   0  0  0  0  0  0
  -28.2527  -38.0142   24.7514 H   0  0  0  0  0  0
  -28.1080  -36.2659   24.6247 H   0  0  0  0  0  0
  -27.2296  -37.1448   25.8856 H   0  0  0  0  0  0
  -20.9219  -29.8839   21.7106 H   0  0  0  0  0  0
  -26.0116  -38.2825   24.1551 H   0  0  0  0  0  0
  -30.6042  -20.9860   19.1452 H   0  0  0  0  0  0
  -27.5073  -20.2289   22.0313 H   0  0  0  0  0  0
  -29.0573  -21.8193   17.4523 H   0  0  0  0  0  0
  -27.4260  -22.0235   16.8168 H   0  0  0  0  0  0
  -27.3936  -20.5311   18.8025 H   0  0  0  0  0  0
  -26.4668  -22.0078   19.0667 H   0  0  0  0  0  0
  -32.2433  -19.3479   18.6125 H   0  0  0  0  0  0
  -31.7681  -17.6728   18.8850 H   0  0  0  0  0  0
  -32.7589  -18.5348   20.0752 H   0  0  0  0  0  0
  -28.3464  -24.4292   22.1399 H   0  0  0  0  0  0
  -30.0261  -24.1107   21.6726 H   0  0  0  0  0  0
  -29.0281  -22.8287   22.3673 H   0  0  0  0  0  0
  -31.4581  -19.7944   25.9699 H   0  0  0  0  0  0
  -30.1990  -18.7914   26.6775 H   0  0  0  0  0  0
  -29.7934  -20.3474   25.9551 H   0  0  0  0  0  0
  -28.6844  -26.2535   18.3290 H   0  0  0  0  0  0
  -29.9837  -25.7973   19.3523 H   0  0  0  0  0  0
  -30.7995  -17.8591   24.4679 H   0  0  0  0  0  0
  -30.6818  -19.4284   23.7322 H   0  0  0  0  0  0
  -28.1513  -19.4378   24.2174 H   0  0  0  0  0  0
  -28.3210  -17.8439   24.8986 H   0  0  0  0  0  0
  -29.0968  -15.6819   20.9965 H   0  0  0  0  0  0
  1 25  1  0  0  0
  1 30  2  0  0  0
  1 90  1  0  0  0
  2  3  1  0  0  0
  2 25  1  0  0  0
  2 94  1  0  0  0
  2 95  1  0  0  0
  3  4  1  0  0  0
  3 96  1  0  0  0
  3 97  1  0  0  0
  4  5  1  0  0  0
  4 98  1  0  0  0
  4 99  1  0  0  0
  5  6  1  0  0  0
  5 26  1  0  0  0
  5100  1  0  0  0
  6 25  1  0  0  0
  6101  1  0  0  0
  6102  1  0  0  0
  7  8  2  0  0  0
  7 26  1  0  0  0
  7 29  1  0  0  0
  8  9  1  0  0  0
  8 22  1  0  0  0
  9 10  1  0  0  0
  9 27  2  0  0  0
 10 11  2  0  0  0
 10 15  1  0  0  0
 11 12  1  0  0  0
 11103  1  0  0  0
 12 13  2  0  0  0
 12104  1  0  0  0
 13 14  1  0  0  0
 13 31  1  0  0  0
 14 15  2  0  0  0
 14105  1  0  0  0
 15106  1  0  0  0
 16 17  2  0  0  0
 16 21  1  0  0  0
 16 31  1  0  0  0
 17 18  1  0  0  0
 17107  1  0  0  0
 18 19  2  0  0  0
 18108  1  0  0  0
 19 20  1  0  0  0
 19 24  1  0  0  0
 20 21  2  0  0  0
 20109  1  0  0  0
 21 23  1  0  0  0
 22 28  1  0  0  0
 22 32  2  0  0  0
 26 27  1  0  0  0
 28110  1  0  0  0
 28111  1  0  0  0
 29112  1  0  0  0
 29113  1  0  0  0
 33 34  1  0  0  0
 33 66  1  0  0  0
 33 70  2  0  0  0
 34 36  1  0  0  0
 34 59  1  0  0  0
 34114  1  0  0  0
 35 44  2  0  0  0
 35 45  1  0  0  0
 35 68  1  0  0  0
 36 56  1  0  0  0
 36115  1  0  0  0
 37 39  1  0  0  0
 37 47  1  0  0  0
 37 66  1  0  0  0
 37116  1  0  0  0
 38 43  2  0  0  0
 38 46  1  0  0  0
 38 47  1  0  0  0
 39 64  1  0  0  0
 39 67  2  0  0  0
 40 52  1  0  0  0
 40 53  2  0  0  0
 40 58  1  0  0  0
 41117  1  0  0  0
 41118  1  0  0  0
 41119  1  0  0  0
 41 48  1  0  0  0
 42 43  1  0  0  0
 42 66  1  0  0  0
 42120  1  0  0  0
 42121  1  0  0  0
 43 44  1  0  0  0
 44122  1  0  0  0
 45 46  2  0  0  0
 45123  1  0  0  0
 46124  1  0  0  0
 47125  1  0  0  0
 47126  1  0  0  0
 48 56  1  0  0  0
 48 65  1  0  0  0
 48127  1  0  0  0
 49 50  1  0  0  0
 49 53  1  0  0  0
 49 64  1  0  0  0
 49128  1  0  0  0
 50 51  1  0  0  0
 50129  1  0  0  0
 50130  1  0  0  0
 51 52  1  0  0  0
 51131  1  0  0  0
 51132  1  0  0  0
 52133  1  0  0  0
 52134  1  0  0  0
 53 54  1  0  0  0
 54 55  2  0  0  0
 54135  1  0  0  0
 55 57  1  0  0  0
 55136  1  0  0  0
 56 69  2  0  0  0
 57 58  2  0  0  0
 57137  1  0  0  0
 58138  1  0  0  0
 59 60  1  0  0  0
 59 61  1  0  0  0
 59 62  1  0  0  0
 60139  1  0  0  0
 60140  1  0  0  0
 60141  1  0  0  0
 61142  1  0  0  0
 61143  1  0  0  0
 61144  1  0  0  0
 62145  1  0  0  0
 62146  1  0  0  0
 62147  1  0  0  0
 63 65  1  0  0  0
 63148  1  0  0  0
 63149  1  0  0  0
 63150  1  0  0  0
 64151  1  0  0  0
 65152  1  0  0  0
 68 86  1  0  0  0
 71 74  2  0  0  0
 71 75  1  0  0  0
 71153  1  0  0  0
 72 75  2  0  0  0
 72 76  1  0  0  0
 72154  1  0  0  0
 73 74  1  0  0  0
 73 76  2  0  0  0
 73 80  1  0  0  0
 74 83  1  0  0  0
 75 89  1  0  0  0
 76 93  1  0  0  0
 77 78  2  0  0  0
 77 79  1  0  0  0
 77 86  1  0  0  0
 78 84  1  0  0  0
 78 89  1  0  0  0
 79 81  1  0  0  0
 79 91  2  0  0  0
 80 90  1  0  0  0
 80 92  2  0  0  0
 81 82  1  0  0  0
 81155  1  0  0  0
 81156  1  0  0  0
 82 89  1  0  0  0
 82157  1  0  0  0
 82158  1  0  0  0
 83159  1  0  0  0
 83160  1  0  0  0
 83161  1  0  0  0
 84162  1  0  0  0
 84163  1  0  0  0
 84164  1  0  0  0
 85 87  1  0  0  0
 85165  1  0  0  0
 85166  1  0  0  0
 85167  1  0  0  0
 86168  1  0  0  0
 86169  1  0  0  0
 87 88  1  0  0  0
 87170  1  0  0  0
 87171  1  0  0  0
 88 93  1  0  0  0
 88172  1  0  0  0
 88173  1  0  0  0
 90174  1  0  0  0
M  ISO  4   1 100  68 101  86 101  90 100
M  END
> <chiral flag>
0

> <version>
0

> <s_m_source_file>
/data/baiqing/PycharmProjects/Reinvent-master-3.2/result/LINK_invent/BTK/process_docking_weight1_custom_product_contain_oxygen_bond_distance_aromatic_linkinvent_7_9_3/rearranged_h_0109.sdf

> <i_m_source_file_index>
4

> <r_mmod_Potential_Energy-OPLS-2005>
135.212814331055

> <r_mmod_Stretch_Energy-OPLS-2005>
61.8163223266602

> <r_mmod_Bend_Energy-OPLS-2005>
137.031433105469

> <r_mmod_Torsional_Energy-OPLS-2005>
312.750305175781

> <r_mmod_Improper_Torsional_Energy-OPLS-2005>
9.08492946624756

> <r_mmod_Van_der_Waal_Energy-OPLS-2005>
165.913009643555

> <r_mmod_Electrostatic_Energy-OPLS-2005>
-367.973236083984

> <r_mmod_Solvation_Energy-OPLS-2005>
-215.588806152344

> <b_mmod_Minimization_Converged-OPLS-2005>
0

> <r_mmod_RMS_Derivative-OPLS-2005>
7.54811525344849

$$$$
4
                    3D
 Structure written by MMmdl.
158166  0  0  1  0            999 V2000
  -30.6315  -14.6947   20.4672 C   0  0  0  0  0  0
  -30.4463  -12.4062   19.4916 C   0  0  0  0  0  0
  -29.5222  -12.3842   18.2512 C   0  0  0  0  0  0
  -28.0271  -12.3094   18.6344 C   0  0  0  0  0  0
  -27.6415  -13.2048   19.8468 C   0  0  2  0  0  0
  -28.6840  -13.0921   20.9774 C   0  0  0  0  0  0
  -25.2511  -13.8138   20.5640 C   0  0  0  0  0  0
  -24.1779  -13.0424   20.9186 C   0  0  0  0  0  0
  -24.6305  -11.6886   20.8686 C   0  0  0  0  0  0
  -23.8976  -10.4283   21.0361 C   0  0  0  0  0  0
  -24.3557   -9.4206   21.9140 C   0  0  0  0  0  0
  -23.6248   -8.2233   22.0731 C   0  0  0  0  0  0
  -22.4239   -8.0240   21.3519 C   0  0  0  0  0  0
  -21.9840   -9.0193   20.4625 C   0  0  0  0  0  0
  -22.7144  -10.2089   20.3017 C   0  0  0  0  0  0
  -21.6838   -6.0713   22.5274 C   0  0  0  0  0  0
  -21.4009   -6.5622   23.8202 C   0  0  0  0  0  0
  -21.3671   -5.6775   24.9165 C   0  0  0  0  0  0
  -21.6049   -4.3032   24.7227 C   0  0  0  0  0  0
  -21.8817   -3.8119   23.4349 C   0  0  0  0  0  0
  -21.9201   -4.6945   22.3406 C   0  0  0  0  0  0
  -22.7812  -13.5226   21.1890 C   0  0  0  0  0  0
  -22.1670   -4.2123   21.0976 F   0  0  0  0  0  0
  -21.5633   -3.4521   25.7739 F   0  0  0  0  0  0
  -29.9963  -13.4669   20.4238 N   0  0  0  0  0  0
  -26.2902  -12.9278   20.3224 N   0  0  0  0  0  0
  -25.9221  -11.6453   20.5714 N   0  0  0  0  0  0
  -22.0431  -12.8236   22.0447 N   0  0  0  0  0  0
  -25.4246  -15.1875   20.4073 N   0  0  0  0  0  0
  -31.7733  -14.8200   20.0166 O   0  0  0  0  0  0
  -21.6615   -6.8834   21.4225 O   0  0  0  0  0  0
  -22.3518  -14.5548   20.6750 O   0  0  0  0  0  0
  -24.6256  -31.8544   23.2007 C   0  0  0  0  0  0
  -25.9094  -32.4755   23.8342 C   0  0  1  0  0  0
  -27.2328  -27.2872   20.1093 C   0  0  0  0  0  0
  -25.5897  -33.8572   24.2258 N   0  0  0  0  0  0
  -23.4240  -30.4741   21.5449 C   0  0  2  0  0  0
  -24.8765  -28.9306   20.1092 C   0  0  0  0  0  0
  -22.7490  -29.4543   22.4932 C   0  0  0  0  0  0
  -18.0287  -28.1362   22.8504 C   0  0  0  0  0  0
  -24.1483  -36.7292   23.2640 C   0  0  0  0  0  0
  -25.9698  -30.7725   21.3822 C   0  0  0  0  0  0
  -26.0443  -29.3994   20.7188 C   0  0  0  0  0  0
  -27.2232  -28.5877   20.7148 C   0  0  0  0  0  0
  -26.0399  -26.8929   19.4551 C   0  0  0  0  0  0
  -24.8756  -27.6839   19.4666 C   0  0  0  0  0  0
  -23.6429  -29.8088   20.1615 C   0  0  0  0  0  0
  -25.4111  -36.3078   24.0325 C   0  0  1  0  0  0
  -20.5896  -28.3609   23.1297 C   0  0  2  0  0  0
  -20.6766  -26.9342   22.5391 C   0  0  0  0  0  0
  -19.5743  -26.6373   21.5178 C   0  0  0  0  0  0
  -18.1929  -26.7927   22.1615 C   0  0  0  0  0  0
  -19.1556  -28.8800   23.2906 C   0  0  0  0  0  0
  -18.9503  -30.1413   23.8916 C   0  0  0  0  0  0
  -17.6512  -30.6560   24.0587 C   0  0  0  0  0  0
  -25.9039  -34.9444   23.5093 C   0  0  0  0  0  0
  -16.5379  -29.9063   23.6376 C   0  0  0  0  0  0
  -16.7281  -28.6498   23.0374 C   0  0  0  0  0  0
  -26.4488  -31.6576   25.0725 C   0  0  0  0  0  0
  -25.3754  -31.3722   26.1476 C   0  0  0  0  0  0
  -27.0316  -30.2977   24.6227 C   0  0  0  0  0  0
  -27.6026  -32.4332   25.7512 C   0  0  0  0  0  0
  -27.5573  -37.1801   24.8460 C   0  0  0  0  0  0
  -21.4191  -29.2984   22.3730 N   0  0  0  0  0  0
  -26.4285  -37.3771   23.9408 N   0  0  0  0  0  0
  -24.6927  -31.0516   22.0992 N   0  0  0  0  0  0
  -23.4232  -28.8054   23.2978 O   0  0  0  0  0  0
  -28.3482  -26.4214   20.1900 O   0  0  0  0  0  0
  -26.5606  -34.8908   22.4657 O   0  0  0  0  0  0
  -23.5418  -32.1366   23.7319 O   0  0  0  0  0  0
  -29.1687  -18.5004   17.9797 C   0  0  0  0  0  0
  -29.1592  -19.7456   18.6200 C   0  0  0  0  0  0
  -29.7169  -18.6204   20.6844 C   0  0  0  0  0  0
  -29.7137  -17.2954   20.0696 C   0  0  0  0  0  0
  -29.4332  -17.2916   18.6608 C   0  0  0  0  0  0
  -29.4434  -19.8671   19.9944 C   0  0  0  0  0  0
  -29.8416  -15.9975   20.9452 C   0  0  0  0  0  0
  -29.3357  -16.0536   17.7748 C   0  0  0  0  0  0
  -29.1098  -23.8303   20.4978 C   0  0  0  0  0  0
  -28.9867  -22.3544   19.8801 C   0  0  0  0  0  0
  -28.2337  -24.9807   19.8017 C   0  0  0  0  0  0
  -29.3292  -16.0221   22.1018 N   0  0  0  0  0  0
  -30.4958  -15.9328   16.8744 N   0  3  0  0  0  0
  -29.4484  -21.1469   20.6182 O   0  0  0  0  0  0
  -31.4811  -12.5344   19.1752 H   0  0  0  0  0  0
  -30.4210  -11.4420   19.9983 H   0  0  0  0  0  0
  -29.7707  -11.5142   17.6408 H   0  0  0  0  0  0
  -29.7187  -13.2317   17.6039 H   0  0  0  0  0  0
  -27.8121  -11.2656   18.8720 H   0  0  0  0  0  0
  -27.4046  -12.5450   17.7698 H   0  0  0  0  0  0
  -27.6389  -14.2345   19.4979 H   0  0  0  0  0  0
  -28.7097  -12.0675   21.3497 H   0  0  0  0  0  0
  -28.3905  -13.7009   21.8311 H   0  0  0  0  0  0
  -25.2684   -9.5720   22.4727 H   0  0  0  0  0  0
  -23.9966   -7.4614   22.7438 H   0  0  0  0  0  0
  -21.0773   -8.8662   19.8921 H   0  0  0  0  0  0
  -22.3535  -10.9609   19.6139 H   0  0  0  0  0  0
  -21.1977   -7.6117   23.9710 H   0  0  0  0  0  0
  -21.1510   -6.0494   25.9073 H   0  0  0  0  0  0
  -22.0595   -2.7586   23.2846 H   0  0  0  0  0  0
  -22.3987  -11.9929   22.4940 H   0  0  0  0  0  0
  -21.1013  -13.1230   22.2545 H   0  0  0  0  0  0
  -24.6670  -15.8432   20.5535 H   0  0  0  0  0  0
  -26.3006  -15.6377   20.1788 H   0  0  0  0  0  0
  -26.7154  -32.5415   23.1088 H   0  0  0  0  0  0
  -25.0041  -33.9729   25.0390 H   0  0  0  0  0  0
  -22.7164  -31.2929   21.3977 H   0  0  0  0  0  0
  -23.3741  -35.9621   23.3298 H   0  0  0  0  0  0
  -24.3572  -36.8912   22.2050 H   0  0  0  0  0  0
  -23.7229  -37.6494   23.6661 H   0  0  0  0  0  0
  -26.1136  -31.5405   20.6207 H   0  0  0  0  0  0
  -26.8467  -30.8166   22.0177 H   0  0  0  0  0  0
  -28.1200  -28.9374   21.2103 H   0  0  0  0  0  0
  -25.9690  -25.9581   18.9201 H   0  0  0  0  0  0
  -23.9841  -27.3248   18.9717 H   0  0  0  0  0  0
  -23.7607  -30.5835   19.4034 H   0  0  0  0  0  0
  -22.7641  -29.2362   19.8599 H   0  0  0  0  0  0
  -25.1301  -36.1927   25.0817 H   0  0  0  0  0  0
  -20.9996  -28.3116   24.1392 H   0  0  0  0  0  0
  -20.5646  -26.2178   23.3549 H   0  0  0  0  0  0
  -21.6640  -26.7335   22.1193 H   0  0  0  0  0  0
  -19.6872  -25.6296   21.1156 H   0  0  0  0  0  0
  -19.6704  -27.3209   20.6723 H   0  0  0  0  0  0
  -17.4207  -26.6687   21.4016 H   0  0  0  0  0  0
  -18.0317  -26.0040   22.8977 H   0  0  0  0  0  0
  -19.7981  -30.7234   24.2283 H   0  0  0  0  0  0
  -17.5087  -31.6259   24.5185 H   0  0  0  0  0  0
  -15.5414  -30.2989   23.7739 H   0  0  0  0  0  0
  -15.8669  -28.0841   22.7058 H   0  0  0  0  0  0
  -24.5941  -30.7040   25.7850 H   0  0  0  0  0  0
  -24.8959  -32.2895   26.4900 H   0  0  0  0  0  0
  -25.8143  -30.8936   27.0240 H   0  0  0  0  0  0
  -26.2897  -29.6746   24.1238 H   0  0  0  0  0  0
  -27.3928  -29.7230   25.4758 H   0  0  0  0  0  0
  -27.8802  -30.4198   23.9502 H   0  0  0  0  0  0
  -27.2592  -33.3618   26.2084 H   0  0  0  0  0  0
  -28.3860  -32.6921   25.0381 H   0  0  0  0  0  0
  -28.0669  -31.8475   26.5455 H   0  0  0  0  0  0
  -28.2595  -38.0094   24.7518 H   0  0  0  0  0  0
  -28.1069  -36.2633   24.6285 H   0  0  0  0  0  0
  -27.2293  -37.1445   25.8861 H   0  0  0  0  0  0
  -20.9308  -29.8829   21.7087 H   0  0  0  0  0  0
  -26.0163  -38.2838   24.1419 H   0  0  0  0  0  0
  -28.9375  -18.4826   16.9254 H   0  0  0  0  0  0
  -28.9266  -20.5986   18.0036 H   0  0  0  0  0  0
  -29.9192  -18.6834   21.7446 H   0  0  0  0  0  0
  -28.4251  -16.1116   17.1727 H   0  0  0  0  0  0
  -29.2118  -15.1575   18.3577 H   0  0  0  0  0  0
  -30.1596  -24.1218   20.4573 H   0  0  0  0  0  0
  -28.8572  -23.7930   21.5553 H   0  0  0  0  0  0
  -29.5246  -22.4022   18.9341 H   0  0  0  0  0  0
  -27.9393  -22.1868   19.6303 H   0  0  0  0  0  0
  -27.2094  -24.6340   19.9257 H   0  0  0  0  0  0
  -28.4353  -24.9352   18.7309 H   0  0  0  0  0  0
  -28.8856  -16.9144   22.2838 H   0  0  0  0  0  0
  -30.5022  -16.6943   16.2197 H   0  0  0  0  0  0
  -30.4459  -15.0807   16.3440 H   0  0  0  0  0  0
  -31.3611  -15.9468   17.3853 H   0  0  0  0  0  0
  1 25  1  0  0  0
  1 30  2  0  0  0
  1 77  1  0  0  0
  2  3  1  0  0  0
  2 25  1  0  0  0
  2 85  1  0  0  0
  2 86  1  0  0  0
  3  4  1  0  0  0
  3 87  1  0  0  0
  3 88  1  0  0  0
  4  5  1  0  0  0
  4 89  1  0  0  0
  4 90  1  0  0  0
  5  6  1  0  0  0
  5 26  1  0  0  0
  5 91  1  0  0  0
  6 25  1  0  0  0
  6 92  1  0  0  0
  6 93  1  0  0  0
  7  8  2  0  0  0
  7 26  1  0  0  0
  7 29  1  0  0  0
  8  9  1  0  0  0
  8 22  1  0  0  0
  9 10  1  0  0  0
  9 27  2  0  0  0
 10 11  2  0  0  0
 10 15  1  0  0  0
 11 12  1  0  0  0
 11 94  1  0  0  0
 12 13  2  0  0  0
 12 95  1  0  0  0
 13 14  1  0  0  0
 13 31  1  0  0  0
 14 15  2  0  0  0
 14 96  1  0  0  0
 15 97  1  0  0  0
 16 17  2  0  0  0
 16 21  1  0  0  0
 16 31  1  0  0  0
 17 18  1  0  0  0
 17 98  1  0  0  0
 18 19  2  0  0  0
 18 99  1  0  0  0
 19 20  1  0  0  0
 19 24  1  0  0  0
 20 21  2  0  0  0
 20100  1  0  0  0
 21 23  1  0  0  0
 22 28  1  0  0  0
 22 32  2  0  0  0
 26 27  1  0  0  0
 28101  1  0  0  0
 28102  1  0  0  0
 29103  1  0  0  0
 29104  1  0  0  0
 33 34  1  0  0  0
 33 66  1  0  0  0
 33 70  2  0  0  0
 34 36  1  0  0  0
 34 59  1  0  0  0
 34105  1  0  0  0
 35 44  2  0  0  0
 35 45  1  0  0  0
 35 68  1  0  0  0
 36 56  1  0  0  0
 36106  1  0  0  0
 37 39  1  0  0  0
 37 47  1  0  0  0
 37 66  1  0  0  0
 37107  1  0  0  0
 38 43  2  0  0  0
 38 46  1  0  0  0
 38 47  1  0  0  0
 39 64  1  0  0  0
 39 67  2  0  0  0
 40 52  1  0  0  0
 40 53  2  0  0  0
 40 58  1  0  0  0
 41108  1  0  0  0
 41109  1  0  0  0
 41110  1  0  0  0
 41 48  1  0  0  0
 42 43  1  0  0  0
 42 66  1  0  0  0
 42111  1  0  0  0
 42112  1  0  0  0
 43 44  1  0  0  0
 44113  1  0  0  0
 45 46  2  0  0  0
 45114  1  0  0  0
 46115  1  0  0  0
 47116  1  0  0  0
 47117  1  0  0  0
 48 56  1  0  0  0
 48 65  1  0  0  0
 48118  1  0  0  0
 49 50  1  0  0  0
 49 53  1  0  0  0
 49 64  1  0  0  0
 49119  1  0  0  0
 50 51  1  0  0  0
 50120  1  0  0  0
 50121  1  0  0  0
 51 52  1  0  0  0
 51122  1  0  0  0
 51123  1  0  0  0
 52124  1  0  0  0
 52125  1  0  0  0
 53 54  1  0  0  0
 54 55  2  0  0  0
 54126  1  0  0  0
 55 57  1  0  0  0
 55127  1  0  0  0
 56 69  2  0  0  0
 57 58  2  0  0  0
 57128  1  0  0  0
 58129  1  0  0  0
 59 60  1  0  0  0
 59 61  1  0  0  0
 59 62  1  0  0  0
 60130  1  0  0  0
 60131  1  0  0  0
 60132  1  0  0  0
 61133  1  0  0  0
 61134  1  0  0  0
 61135  1  0  0  0
 62136  1  0  0  0
 62137  1  0  0  0
 62138  1  0  0  0
 63 65  1  0  0  0
 63139  1  0  0  0
 63140  1  0  0  0
 63141  1  0  0  0
 64142  1  0  0  0
 65143  1  0  0  0
 68 81  1  0  0  0
 71 72  2  0  0  0
 71 75  1  0  0  0
 71144  1  0  0  0
 72 76  1  0  0  0
 72145  1  0  0  0
 73 74  1  0  0  0
 73 76  2  0  0  0
 73146  1  0  0  0
 74 75  2  0  0  0
 74 77  1  0  0  0
 75 78  1  0  0  0
 76 84  1  0  0  0
 77 82  2  0  0  0
 78 83  1  0  0  0
 78147  1  0  0  0
 78148  1  0  0  0
 79 80  1  0  0  0
 79 81  1  0  0  0
 79149  1  0  0  0
 79150  1  0  0  0
 80 84  1  0  0  0
 80151  1  0  0  0
 80152  1  0  0  0
 81153  1  0  0  0
 81154  1  0  0  0
 82155  1  0  0  0
 83156  1  0  0  0
 83157  1  0  0  0
 83158  1  0  0  0
M  CHG  1  83   1
M  ISO  4   1 100  68 101  77 100  81 101
M  END
> <chiral flag>
0

> <version>
0

> <s_m_source_file>
/data/baiqing/PycharmProjects/Reinvent-master-3.2/result/LINK_invent/BTK/process_docking_weight1_custom_product_contain_oxygen_bond_distance_aromatic_linkinvent_7_9_3/rearranged_h_0109.sdf

> <i_m_source_file_index>
5

> <r_mmod_Potential_Energy-OPLS-2005>
2.37555336952209

> <r_mmod_Stretch_Energy-OPLS-2005>
125.934707641602

> <r_mmod_Bend_Energy-OPLS-2005>
175.705917358398

> <r_mmod_Torsional_Energy-OPLS-2005>
203.874755859375

> <r_mmod_Improper_Torsional_Energy-OPLS-2005>
3.8010585308075

> <r_mmod_Van_der_Waal_Energy-OPLS-2005>
153.972579956055

> <r_mmod_Electrostatic_Energy-OPLS-2005>
-223.220901489258

> <r_mmod_Solvation_Energy-OPLS-2005>
-506.332855224609

> <b_mmod_Minimization_Converged-OPLS-2005>
0

> <r_mmod_RMS_Derivative-OPLS-2005>
4.53770542144775

$$$$
5
                    3D
 Structure written by MMmdl.
164172  0  0  1  0            999 V2000
  -30.6959  -14.4124   20.4962 C   0  0  0  0  0  0
  -30.4141  -12.2487   19.4125 C   0  0  0  0  0  0
  -29.4879  -12.4808   18.1980 C   0  0  0  0  0  0
  -28.0078  -12.3567   18.6169 C   0  0  0  0  0  0
  -27.6625  -13.1943   19.8774 C   0  0  2  0  0  0
  -28.7096  -12.9642   20.9982 C   0  0  0  0  0  0
  -25.2600  -13.8152   20.5688 C   0  0  0  0  0  0
  -24.1850  -13.0423   20.9194 C   0  0  0  0  0  0
  -24.6389  -11.6908   20.8755 C   0  0  0  0  0  0
  -23.9048  -10.4307   21.0431 C   0  0  0  0  0  0
  -24.3621   -9.4233   21.9216 C   0  0  0  0  0  0
  -23.6291   -8.2260   22.0774 C   0  0  0  0  0  0
  -22.4270   -8.0281   21.3551 C   0  0  0  0  0  0
  -21.9897   -9.0259   20.4669 C   0  0  0  0  0  0
  -22.7219  -10.2142   20.3084 C   0  0  0  0  0  0
  -21.6831   -6.0742   22.5296 C   0  0  0  0  0  0
  -21.4007   -6.5666   23.8227 C   0  0  0  0  0  0
  -21.3655   -5.6813   24.9172 C   0  0  0  0  0  0
  -21.6048   -4.3072   24.7239 C   0  0  0  0  0  0
  -21.8811   -3.8166   23.4353 C   0  0  0  0  0  0
  -21.9190   -4.6982   22.3416 C   0  0  0  0  0  0
  -22.7878  -13.5248   21.1866 C   0  0  0  0  0  0
  -22.1647   -4.2173   21.0986 F   0  0  0  0  0  0
  -21.5626   -3.4567   25.7744 F   0  0  0  0  0  0
  -30.0464  -13.2277   20.4420 N   0  0  0  0  0  0
  -26.3032  -12.9289   20.3399 N   0  0  0  0  0  0
  -25.9317  -11.6473   20.5795 N   0  0  0  0  0  0
  -22.0519  -12.8232   22.0428 N   0  0  0  0  0  0
  -25.4315  -15.1857   20.4036 N   0  0  0  0  0  0
  -31.8559  -14.5777   20.1085 O   0  0  0  0  0  0
  -21.6638   -6.8878   21.4246 O   0  0  0  0  0  0
  -22.3583  -14.5575   20.6735 O   0  0  0  0  0  0
  -24.6098  -31.8699   23.2154 C   0  0  0  0  0  0
  -25.9008  -32.4826   23.8426 C   0  0  1  0  0  0
  -27.2379  -27.4698   20.0675 C   0  0  0  0  0  0
  -25.5882  -33.8627   24.2325 N   0  0  0  0  0  0
  -23.3935  -30.4969   21.5547 C   0  0  2  0  0  0
  -24.8381  -28.9716   20.1132 C   0  0  0  0  0  0
  -22.7368  -29.4662   22.5002 C   0  0  0  0  0  0
  -18.0256  -28.1347   22.8519 C   0  0  0  0  0  0
  -24.1472  -36.7326   23.2626 C   0  0  0  0  0  0
  -25.9220  -30.8444   21.3675 C   0  0  0  0  0  0
  -25.9973  -29.4844   20.7084 C   0  0  0  0  0  0
  -27.1944  -28.7376   20.6885 C   0  0  0  0  0  0
  -26.0551  -26.9712   19.4667 C   0  0  0  0  0  0
  -24.8599  -27.7087   19.4993 C   0  0  0  0  0  0
  -23.5998  -29.8348   20.1659 C   0  0  0  0  0  0
  -25.4090  -36.3106   24.0314 C   0  0  1  0  0  0
  -20.5845  -28.3622   23.1337 C   0  0  2  0  0  0
  -20.6737  -26.9361   22.5432 C   0  0  0  0  0  0
  -19.5706  -26.6360   21.5230 C   0  0  0  0  0  0
  -18.1889  -26.7900   22.1638 C   0  0  0  0  0  0
  -19.1510  -28.8802   23.2929 C   0  0  0  0  0  0
  -18.9441  -30.1421   23.8916 C   0  0  0  0  0  0
  -17.6445  -30.6568   24.0564 C   0  0  0  0  0  0
  -25.9028  -34.9478   23.5116 C   0  0  0  0  0  0
  -16.5337  -29.9069   23.6326 C   0  0  0  0  0  0
  -16.7252  -28.6479   23.0368 C   0  0  0  0  0  0
  -26.4443  -31.6632   25.0771 C   0  0  0  0  0  0
  -25.3736  -31.3808   26.1554 C   0  0  0  0  0  0
  -27.0253  -30.3044   24.6207 C   0  0  0  0  0  0
  -27.5992  -32.4381   25.7544 C   0  0  0  0  0  0
  -27.5577  -37.1791   24.8435 C   0  0  0  0  0  0
  -21.4095  -29.3015   22.3751 N   0  0  0  0  0  0
  -26.4264  -37.3804   23.9426 N   0  0  0  0  0  0
  -24.6595  -31.0842   22.1039 N   0  0  0  0  0  0
  -23.4163  -28.8186   23.3010 O   0  0  0  0  0  0
  -28.4361  -26.7867   20.0737 O   0  0  0  0  0  0
  -26.5604  -34.8912   22.4684 O   0  0  0  0  0  0
  -23.5296  -32.1444   23.7566 O   0  0  0  0  0  0
  -30.5566  -19.6741   22.0958 C   0  0  0  0  0  0
  -28.6286  -18.7094   20.3235 C   0  0  0  0  0  0
  -30.7466  -18.4134   21.5001 C   0  0  0  0  0  0
  -29.7745  -17.9354   20.5929 C   0  0  0  0  0  0
  -29.4598  -20.4978   21.7482 C   0  0  0  0  0  0
  -28.4583  -19.9995   20.8618 C   0  0  0  0  0  0
  -32.0250  -17.6348   21.7829 C   0  0  0  0  0  0
  -30.5896  -22.5370   21.9831 C   0  0  0  0  0  0
  -29.9727  -16.6406   19.8313 C   0  0  0  0  0  0
  -27.8073  -24.4372   20.4370 C   0  0  0  0  0  0
  -27.8937  -23.0033   19.8920 C   0  0  0  0  0  0
  -28.5032  -25.4701   19.5282 C   0  0  0  0  0  0
  -27.0733  -22.0232   20.7540 C   0  0  0  0  0  0
  -29.8726  -15.4505   20.6651 N   0  0  0  0  0  0
  -29.4162  -21.7754   22.2444 O   0  0  0  0  0  0
  -27.3271  -20.6634   20.4155 O   0  0  0  0  0  0
  -31.4599  -12.3289   19.1090 H   0  0  0  0  0  0
  -30.2886  -11.2361   19.7997 H   0  0  0  0  0  0
  -29.7132  -11.7537   17.4164 H   0  0  0  0  0  0
  -29.6684  -13.4640   17.7598 H   0  0  0  0  0  0
  -27.8127  -11.3026   18.8123 H   0  0  0  0  0  0
  -27.3527  -12.6349   17.7912 H   0  0  0  0  0  0
  -27.7013  -14.2403   19.5750 H   0  0  0  0  0  0
  -28.6695  -11.9382   21.3615 H   0  0  0  0  0  0
  -28.5023  -13.5886   21.8691 H   0  0  0  0  0  0
  -25.2769   -9.5707   22.4802 H   0  0  0  0  0  0
  -24.0009   -7.4662   22.7497 H   0  0  0  0  0  0
  -21.0819   -8.8759   19.8991 H   0  0  0  0  0  0
  -22.3670  -10.9676   19.6208 H   0  0  0  0  0  0
  -21.1994   -7.6170   23.9724 H   0  0  0  0  0  0
  -21.1467   -6.0550   25.9073 H   0  0  0  0  0  0
  -22.0590   -2.7636   23.2851 H   0  0  0  0  0  0
  -22.4058  -11.9821   22.4740 H   0  0  0  0  0  0
  -21.1185  -13.1316   22.2719 H   0  0  0  0  0  0
  -24.6562  -15.8313   20.5057 H   0  0  0  0  0  0
  -26.2705  -15.6284   20.0538 H   0  0  0  0  0  0
  -26.7103  -32.5536   23.1210 H   0  0  0  0  0  0
  -25.0024  -33.9814   25.0458 H   0  0  0  0  0  0
  -22.6809  -31.3135   21.4208 H   0  0  0  0  0  0
  -23.3726  -35.9667   23.3254 H   0  0  0  0  0  0
  -24.3592  -36.8988   22.2058 H   0  0  0  0  0  0
  -23.7225  -37.6504   23.6690 H   0  0  0  0  0  0
  -26.0442  -31.6214   20.6095 H   0  0  0  0  0  0
  -26.8043  -30.8856   21.9947 H   0  0  0  0  0  0
  -28.0901  -29.1367   21.1442 H   0  0  0  0  0  0
  -26.0282  -26.0192   18.9606 H   0  0  0  0  0  0
  -23.9685  -27.3039   19.0404 H   0  0  0  0  0  0
  -23.7009  -30.6153   19.4099 H   0  0  0  0  0  0
  -22.7244  -29.2534   19.8701 H   0  0  0  0  0  0
  -25.1267  -36.1949   25.0805 H   0  0  0  0  0  0
  -20.9962  -28.3182   24.1444 H   0  0  0  0  0  0
  -20.5627  -26.2231   23.3623 H   0  0  0  0  0  0
  -21.6603  -26.7401   22.1217 H   0  0  0  0  0  0
  -19.6849  -25.6277   21.1233 H   0  0  0  0  0  0
  -19.6628  -27.3196   20.6786 H   0  0  0  0  0  0
  -17.4166  -26.6691   21.4036 H   0  0  0  0  0  0
  -18.0258  -26.0028   22.9012 H   0  0  0  0  0  0
  -19.7924  -30.7249   24.2277 H   0  0  0  0  0  0
  -17.4995  -31.6257   24.5142 H   0  0  0  0  0  0
  -15.5334  -30.2979   23.7624 H   0  0  0  0  0  0
  -15.8653  -28.0799   22.7079 H   0  0  0  0  0  0
  -24.5872  -30.7159   25.7979 H   0  0  0  0  0  0
  -24.8975  -32.3002   26.4980 H   0  0  0  0  0  0
  -25.8096  -30.9039   27.0341 H   0  0  0  0  0  0
  -26.2830  -29.6862   24.1139 H   0  0  0  0  0  0
  -27.3834  -29.7239   25.4723 H   0  0  0  0  0  0
  -27.8754  -30.4309   23.9493 H   0  0  0  0  0  0
  -27.2554  -33.3661   26.2132 H   0  0  0  0  0  0
  -28.3799  -32.6991   25.0392 H   0  0  0  0  0  0
  -28.0665  -31.8529   26.5474 H   0  0  0  0  0  0
  -28.2527  -38.0156   24.7579 H   0  0  0  0  0  0
  -28.1131  -36.2695   24.6112 H   0  0  0  0  0  0
  -27.2325  -37.1254   25.8837 H   0  0  0  0  0  0
  -20.9214  -29.8801   21.7063 H   0  0  0  0  0  0
  -26.0126  -38.2846   24.1521 H   0  0  0  0  0  0
  -31.2955  -20.0442   22.7925 H   0  0  0  0  0  0
  -27.8871  -18.3338   19.6296 H   0  0  0  0  0  0
  -32.7451  -18.2232   22.3523 H   0  0  0  0  0  0
  -32.5188  -17.3583   20.8512 H   0  0  0  0  0  0
  -31.8255  -16.7181   22.3368 H   0  0  0  0  0  0
  -30.3305  -23.5834   21.8306 H   0  0  0  0  0  0
  -31.0999  -22.2039   21.0768 H   0  0  0  0  0  0
  -31.2853  -22.4747   22.8165 H   0  0  0  0  0  0
  -30.9227  -16.7051   19.2953 H   0  0  0  0  0  0
  -29.2297  -16.5500   19.0360 H   0  0  0  0  0  0
  -28.2480  -24.4823   21.4325 H   0  0  0  0  0  0
  -26.7576  -24.6909   20.5827 H   0  0  0  0  0  0
  -28.9371  -22.6963   19.8374 H   0  0  0  0  0  0
  -27.5257  -22.9713   18.8646 H   0  0  0  0  0  0
  -28.1144  -25.4434   18.5088 H   0  0  0  0  0  0
  -29.5610  -25.2145   19.4430 H   0  0  0  0  0  0
  -26.0162  -22.2101   20.5625 H   0  0  0  0  0  0
  -27.1824  -22.1996   21.8232 H   0  0  0  0  0  0
  -28.9561  -15.2382   21.0292 H   0  0  0  0  0  0
  1 25  1  0  0  0
  1 30  2  0  0  0
  1 84  1  0  0  0
  2  3  1  0  0  0
  2 25  1  0  0  0
  2 87  1  0  0  0
  2 88  1  0  0  0
  3  4  1  0  0  0
  3 89  1  0  0  0
  3 90  1  0  0  0
  4  5  1  0  0  0
  4 91  1  0  0  0
  4 92  1  0  0  0
  5  6  1  0  0  0
  5 26  1  0  0  0
  5 93  1  0  0  0
  6 25  1  0  0  0
  6 94  1  0  0  0
  6 95  1  0  0  0
  7  8  2  0  0  0
  7 26  1  0  0  0
  7 29  1  0  0  0
  8  9  1  0  0  0
  8 22  1  0  0  0
  9 10  1  0  0  0
  9 27  2  0  0  0
 10 11  2  0  0  0
 10 15  1  0  0  0
 11 12  1  0  0  0
 11 96  1  0  0  0
 12 13  2  0  0  0
 12 97  1  0  0  0
 13 14  1  0  0  0
 13 31  1  0  0  0
 14 15  2  0  0  0
 14 98  1  0  0  0
 15 99  1  0  0  0
 16 17  2  0  0  0
 16 21  1  0  0  0
 16 31  1  0  0  0
 17 18  1  0  0  0
 17100  1  0  0  0
 18 19  2  0  0  0
 18101  1  0  0  0
 19 20  1  0  0  0
 19 24  1  0  0  0
 20 21  2  0  0  0
 20102  1  0  0  0
 21 23  1  0  0  0
 22 28  1  0  0  0
 22 32  2  0  0  0
 26 27  1  0  0  0
 28103  1  0  0  0
 28104  1  0  0  0
 29105  1  0  0  0
 29106  1  0  0  0
 33 34  1  0  0  0
 33 66  1  0  0  0
 33 70  2  0  0  0
 34 36  1  0  0  0
 34 59  1  0  0  0
 34107  1  0  0  0
 35 44  2  0  0  0
 35 45  1  0  0  0
 35 68  1  0  0  0
 36 56  1  0  0  0
 36108  1  0  0  0
 37 39  1  0  0  0
 37 47  1  0  0  0
 37 66  1  0  0  0
 37109  1  0  0  0
 38 43  2  0  0  0
 38 46  1  0  0  0
 38 47  1  0  0  0
 39 64  1  0  0  0
 39 67  2  0  0  0
 40 52  1  0  0  0
 40 53  2  0  0  0
 40 58  1  0  0  0
 41110  1  0  0  0
 41111  1  0  0  0
 41112  1  0  0  0
 41 48  1  0  0  0
 42 43  1  0  0  0
 42 66  1  0  0  0
 42113  1  0  0  0
 42114  1  0  0  0
 43 44  1  0  0  0
 44115  1  0  0  0
 45 46  2  0  0  0
 45116  1  0  0  0
 46117  1  0  0  0
 47118  1  0  0  0
 47119  1  0  0  0
 48 56  1  0  0  0
 48 65  1  0  0  0
 48120  1  0  0  0
 49 50  1  0  0  0
 49 53  1  0  0  0
 49 64  1  0  0  0
 49121  1  0  0  0
 50 51  1  0  0  0
 50122  1  0  0  0
 50123  1  0  0  0
 51 52  1  0  0  0
 51124  1  0  0  0
 51125  1  0  0  0
 52126  1  0  0  0
 52127  1  0  0  0
 53 54  1  0  0  0
 54 55  2  0  0  0
 54128  1  0  0  0
 55 57  1  0  0  0
 55129  1  0  0  0
 56 69  2  0  0  0
 57 58  2  0  0  0
 57130  1  0  0  0
 58131  1  0  0  0
 59 60  1  0  0  0
 59 61  1  0  0  0
 59 62  1  0  0  0
 60132  1  0  0  0
 60133  1  0  0  0
 60134  1  0  0  0
 61135  1  0  0  0
 61136  1  0  0  0
 61137  1  0  0  0
 62138  1  0  0  0
 62139  1  0  0  0
 62140  1  0  0  0
 63 65  1  0  0  0
 63141  1  0  0  0
 63142  1  0  0  0
 63143  1  0  0  0
 64144  1  0  0  0
 65145  1  0  0  0
 68 82  1  0  0  0
 71 73  2  0  0  0
 71 75  1  0  0  0
 71146  1  0  0  0
 72 74  2  0  0  0
 72 76  1  0  0  0
 72147  1  0  0  0
 73 74  1  0  0  0
 73 77  1  0  0  0
 74 79  1  0  0  0
 75 76  2  0  0  0
 75 85  1  0  0  0
 76 86  1  0  0  0
 77148  1  0  0  0
 77149  1  0  0  0
 77150  1  0  0  0
 78 85  1  0  0  0
 78151  1  0  0  0
 78152  1  0  0  0
 78153  1  0  0  0
 79 84  1  0  0  0
 79154  1  0  0  0
 79155  1  0  0  0
 80 81  1  0  0  0
 80 82  1  0  0  0
 80156  1  0  0  0
 80157  1  0  0  0
 81 83  1  0  0  0
 81158  1  0  0  0
 81159  1  0  0  0
 82160  1  0  0  0
 82161  1  0  0  0
 83 86  1  0  0  0
 83162  1  0  0  0
 83163  1  0  0  0
 84164  1  0  0  0
M  ISO  4   1 100  68 101  82 101  84 100
M  END
> <chiral flag>
0

> <version>
0

> <s_m_source_file>
/data/baiqing/PycharmProjects/Reinvent-master-3.2/result/LINK_invent/BTK/process_docking_weight1_custom_product_contain_oxygen_bond_distance_aromatic_linkinvent_7_9_3/rearranged_h_0109.sdf

> <i_m_source_file_index>
6

> <r_mmod_Potential_Energy-OPLS-2005>
-63.2514801025391

> <r_mmod_Stretch_Energy-OPLS-2005>
33.6318893432617

> <r_mmod_Bend_Energy-OPLS-2005>
113.529235839844

> <r_mmod_Torsional_Energy-OPLS-2005>
234.045272827148

> <r_mmod_Improper_Torsional_Energy-OPLS-2005>
11.9186820983887

> <r_mmod_Van_der_Waal_Energy-OPLS-2005>
170.538360595703

> <r_mmod_Electrostatic_Energy-OPLS-2005>
-429.721649169922

> <r_mmod_Solvation_Energy-OPLS-2005>
-210.705551147461

> <b_mmod_Minimization_Converged-OPLS-2005>
0

> <r_mmod_RMS_Derivative-OPLS-2005>
3.9624285697937

$$$$
6
                    3D
 Structure written by MMmdl.
157166  0  0  1  0            999 V2000
  -30.5072  -14.9244   20.4447 C   0  0  0  0  0  0
  -30.4554  -12.5738   19.4930 C   0  0  0  0  0  0
  -29.5269  -12.5382   18.2543 C   0  0  0  0  0  0
  -28.0567  -12.3254   18.6670 C   0  0  0  0  0  0
  -27.6384  -13.2386   19.8481 C   0  0  2  0  0  0
  -28.6819  -13.2168   20.9870 C   0  0  0  0  0  0
  -25.2467  -13.8166   20.5624 C   0  0  0  0  0  0
  -24.1790  -13.0415   20.9217 C   0  0  0  0  0  0
  -24.6403  -11.6903   20.8762 C   0  0  0  0  0  0
  -23.9078  -10.4283   21.0414 C   0  0  0  0  0  0
  -24.3624   -9.4199   21.9191 C   0  0  0  0  0  0
  -23.6293   -8.2240   22.0761 C   0  0  0  0  0  0
  -22.4277   -8.0281   21.3547 C   0  0  0  0  0  0
  -21.9916   -9.0256   20.4651 C   0  0  0  0  0  0
  -22.7250  -10.2131   20.3061 C   0  0  0  0  0  0
  -21.6854   -6.0733   22.5274 C   0  0  0  0  0  0
  -21.4014   -6.5637   23.8208 C   0  0  0  0  0  0
  -21.3658   -5.6791   24.9170 C   0  0  0  0  0  0
  -21.6044   -4.3053   24.7222 C   0  0  0  0  0  0
  -21.8821   -3.8144   23.4343 C   0  0  0  0  0  0
  -21.9194   -4.6960   22.3400 C   0  0  0  0  0  0
  -22.7813  -13.5205   21.1864 C   0  0  0  0  0  0
  -22.1663   -4.2145   21.0978 F   0  0  0  0  0  0
  -21.5627   -3.4539   25.7736 F   0  0  0  0  0  0
  -29.9656  -13.6421   20.4074 N   0  0  0  0  0  0
  -26.2917  -12.9397   20.3246 N   0  0  0  0  0  0
  -25.9339  -11.6539   20.5760 N   0  0  0  0  0  0
  -22.0462  -12.8205   22.0429 N   0  0  0  0  0  0
  -25.4057  -15.1870   20.3865 N   0  0  0  0  0  0
  -31.6881  -15.0716   20.1099 O   0  0  0  0  0  0
  -21.6642   -6.8878   21.4238 O   0  0  0  0  0  0
  -22.3500  -14.5510   20.6707 O   0  0  0  0  0  0
  -24.6424  -31.8456   23.1890 C   0  0  0  0  0  0
  -25.9198  -32.4704   23.8278 C   0  0  1  0  0  0
  -27.2176  -27.1481   20.1502 C   0  0  0  0  0  0
  -25.5946  -33.8505   24.2201 N   0  0  0  0  0  0
  -23.4453  -30.4653   21.5348 C   0  0  2  0  0  0
  -24.8940  -28.8934   20.1129 C   0  0  0  0  0  0
  -22.7561  -29.4553   22.4865 C   0  0  0  0  0  0
  -18.0301  -28.1400   22.8469 C   0  0  0  0  0  0
  -24.1486  -36.7255   23.2646 C   0  0  0  0  0  0
  -26.0001  -30.7240   21.3839 C   0  0  0  0  0  0
  -26.0723  -29.3355   20.7276 C   0  0  0  0  0  0
  -27.2360  -28.4804   20.7259 C   0  0  0  0  0  0
  -26.0116  -26.8043   19.4991 C   0  0  0  0  0  0
  -24.8760  -27.6408   19.4833 C   0  0  0  0  0  0
  -23.6710  -29.7947   20.1542 C   0  0  0  0  0  0
  -25.4116  -36.3036   24.0325 C   0  0  1  0  0  0
  -20.5914  -28.3718   23.1230 C   0  0  2  0  0  0
  -20.6781  -26.9422   22.5395 C   0  0  0  0  0  0
  -19.5757  -26.6388   21.5199 C   0  0  0  0  0  0
  -18.1939  -26.7939   22.1614 C   0  0  0  0  0  0
  -19.1559  -28.8877   23.2843 C   0  0  0  0  0  0
  -18.9482  -30.1472   23.8875 C   0  0  0  0  0  0
  -17.6480  -30.6595   24.0561 C   0  0  0  0  0  0
  -25.9066  -34.9410   23.5072 C   0  0  0  0  0  0
  -16.5368  -29.9090   23.6340 C   0  0  0  0  0  0
  -16.7287  -28.6513   23.0351 C   0  0  0  0  0  0
  -26.4529  -31.6569   25.0712 C   0  0  0  0  0  0
  -25.3717  -31.3746   26.1410 C   0  0  0  0  0  0
  -27.0392  -30.2973   24.6266 C   0  0  0  0  0  0
  -27.6070  -32.4331   25.7490 C   0  0  0  0  0  0
  -27.5570  -37.1774   24.8468 C   0  0  0  0  0  0
  -21.4255  -29.3050   22.3611 N   0  0  0  0  0  0
  -26.4279  -37.3749   23.9417 N   0  0  0  0  0  0
  -24.7162  -31.0320   22.0918 N   0  0  0  0  0  0
  -23.4209  -28.8092   23.3004 O   0  0  0  0  0  0
  -28.2847  -26.1816   20.1933 O   0  0  0  0  0  0
  -26.5652  -34.8911   22.4651 O   0  0  0  0  0  0
  -23.5545  -32.1327   23.7114 O   0  0  0  0  0  0
  -30.4693  -18.4895   20.0625 C   0  0  0  0  0  0
  -30.2463  -19.9347   20.0955 C   0  0  0  0  0  0
  -29.5674  -17.5399   20.6580 C   0  0  0  0  0  0
  -28.4458  -18.2447   21.2190 C   0  0  0  0  0  0
  -29.1116  -20.5537   20.7272 C   0  0  0  0  0  0
  -29.2432  -22.3694   22.3387 C   0  0  0  0  0  0
  -30.0207  -23.6710   22.4692 C   0  0  0  0  0  0
  -30.3574  -23.9975   21.0206 C   0  0  0  0  0  0
  -29.1592  -23.4116   20.2740 C   0  0  2  0  0  0
  -27.3403  -17.4965   21.9431 C   0  0  0  0  0  0
  -28.0162  -24.6523   20.3119 C   0  0  0  0  0  0
  -28.2422  -19.6151   21.2298 N   0  0  0  0  0  0
  -28.9627  -22.0528   21.0538 N   0  0  0  0  0  0
  -29.6355  -16.0048   20.7183 N   0  0  0  0  0  0
  -28.9412  -21.7177   23.3435 O   0  0  0  0  0  0
  -31.4851  -12.7533   19.1793 H   0  0  0  0  0  0
  -30.4625  -11.6084   20.0014 H   0  0  0  0  0  0
  -29.8409  -11.7502   17.5686 H   0  0  0  0  0  0
  -29.6180  -13.4760   17.7036 H   0  0  0  0  0  0
  -27.9424  -11.2792   18.9529 H   0  0  0  0  0  0
  -27.3957  -12.4813   17.8135 H   0  0  0  0  0  0
  -27.6156  -14.2512   19.4447 H   0  0  0  0  0  0
  -28.7622  -12.2198   21.4229 H   0  0  0  0  0  0
  -28.3804  -13.8779   21.8008 H   0  0  0  0  0  0
  -25.2768   -9.5673   22.4765 H   0  0  0  0  0  0
  -23.9997   -7.4630   22.7482 H   0  0  0  0  0  0
  -21.0849   -8.8780   19.8955 H   0  0  0  0  0  0
  -22.3713  -10.9673   19.6172 H   0  0  0  0  0  0
  -21.2009   -7.6146   23.9707 H   0  0  0  0  0  0
  -21.1476   -6.0524   25.9072 H   0  0  0  0  0  0
  -22.0602   -2.7607   23.2847 H   0  0  0  0  0  0
  -22.4087  -11.9873   22.4820 H   0  0  0  0  0  0
  -21.1076  -13.1225   22.2628 H   0  0  0  0  0  0
  -24.6100  -15.8128   20.4483 H   0  0  0  0  0  0
  -26.1982  -15.6028   19.9160 H   0  0  0  0  0  0
  -26.7258  -32.5319   23.1006 H   0  0  0  0  0  0
  -25.0063  -33.9622   25.0327 H   0  0  0  0  0  0
  -22.7478  -31.2909   21.3799 H   0  0  0  0  0  0
  -23.3757  -35.9576   23.3296 H   0  0  0  0  0  0
  -24.3568  -36.8898   22.2061 H   0  0  0  0  0  0
  -23.7234  -37.6442   23.6695 H   0  0  0  0  0  0
  -26.1478  -31.4768   20.6083 H   0  0  0  0  0  0
  -26.8743  -30.7784   22.0214 H   0  0  0  0  0  0
  -28.1362  -28.8173   21.2203 H   0  0  0  0  0  0
  -25.9131  -25.8548   18.9974 H   0  0  0  0  0  0
  -23.9766  -27.3000   18.9884 H   0  0  0  0  0  0
  -23.8080  -30.5690   19.3987 H   0  0  0  0  0  0
  -22.7862  -29.2362   19.8433 H   0  0  0  0  0  0
  -25.1301  -36.1864   25.0817 H   0  0  0  0  0  0
  -21.0002  -28.3303   24.1354 H   0  0  0  0  0  0
  -20.5657  -26.2330   23.3611 H   0  0  0  0  0  0
  -21.6646  -26.7417   22.1199 H   0  0  0  0  0  0
  -19.6914  -25.6295   21.1236 H   0  0  0  0  0  0
  -19.6698  -27.3189   20.6723 H   0  0  0  0  0  0
  -17.4201  -26.6679   21.4023 H   0  0  0  0  0  0
  -18.0344  -26.0089   22.9022 H   0  0  0  0  0  0
  -19.7959  -30.7285   24.2237 H   0  0  0  0  0  0
  -17.5040  -31.6273   24.5165 H   0  0  0  0  0  0
  -15.5368  -30.2985   23.7689 H   0  0  0  0  0  0
  -15.8684  -28.0831   22.7075 H   0  0  0  0  0  0
  -24.5918  -30.7070   25.7734 H   0  0  0  0  0  0
  -24.8875  -32.2914   26.4778 H   0  0  0  0  0  0
  -25.8003  -30.8965   27.0228 H   0  0  0  0  0  0
  -26.2997  -29.6690   24.1286 H   0  0  0  0  0  0
  -27.4035  -29.7278   25.4825 H   0  0  0  0  0  0
  -27.8899  -30.4224   23.9564 H   0  0  0  0  0  0
  -27.2684  -33.3666   26.2002 H   0  0  0  0  0  0
  -28.3915  -32.6829   25.0335 H   0  0  0  0  0  0
  -28.0705  -31.8493   26.5454 H   0  0  0  0  0  0
  -28.2579  -38.0077   24.7515 H   0  0  0  0  0  0
  -28.1073  -36.2602   24.6299 H   0  0  0  0  0  0
  -27.2285  -37.1434   25.8870 H   0  0  0  0  0  0
  -20.9465  -29.8779   21.6805 H   0  0  0  0  0  0
  -26.0146  -38.2814   24.1437 H   0  0  0  0  0  0
  -31.3637  -18.1200   19.5820 H   0  0  0  0  0  0
  -31.0072  -20.5771   19.6756 H   0  0  0  0  0  0
  -30.9142  -23.5487   23.0817 H   0  0  0  0  0  0
  -29.3865  -24.4335   22.9227 H   0  0  0  0  0  0
  -31.2775  -23.4926   20.7208 H   0  0  0  0  0  0
  -30.5016  -25.0650   20.8510 H   0  0  0  0  0  0
  -29.4361  -23.2056   19.2397 H   0  0  0  0  0  0
  -27.3977  -16.4172   21.8277 H   0  0  0  0  0  0
  -26.3633  -17.8129   21.5775 H   0  0  0  0  0  0
  -27.3860  -17.7124   23.0104 H   0  0  0  0  0  0
  -27.2975  -24.3766   19.5436 H   0  0  0  0  0  0
  -27.4630  -24.5494   21.2456 H   0  0  0  0  0  0
  -28.7584  -15.6149   21.0274 H   0  0  0  0  0  0
  1 25  1  0  0  0
  1 30  2  0  0  0
  1 84  1  0  0  0
  2  3  1  0  0  0
  2 25  1  0  0  0
  2 86  1  0  0  0
  2 87  1  0  0  0
  3  4  1  0  0  0
  3 88  1  0  0  0
  3 89  1  0  0  0
  4  5  1  0  0  0
  4 90  1  0  0  0
  4 91  1  0  0  0
  5  6  1  0  0  0
  5 26  1  0  0  0
  5 92  1  0  0  0
  6 25  1  0  0  0
  6 93  1  0  0  0
  6 94  1  0  0  0
  7  8  2  0  0  0
  7 26  1  0  0  0
  7 29  1  0  0  0
  8  9  1  0  0  0
  8 22  1  0  0  0
  9 10  1  0  0  0
  9 27  2  0  0  0
 10 11  2  0  0  0
 10 15  1  0  0  0
 11 12  1  0  0  0
 11 95  1  0  0  0
 12 13  2  0  0  0
 12 96  1  0  0  0
 13 14  1  0  0  0
 13 31  1  0  0  0
 14 15  2  0  0  0
 14 97  1  0  0  0
 15 98  1  0  0  0
 16 17  2  0  0  0
 16 21  1  0  0  0
 16 31  1  0  0  0
 17 18  1  0  0  0
 17 99  1  0  0  0
 18 19  2  0  0  0
 18100  1  0  0  0
 19 20  1  0  0  0
 19 24  1  0  0  0
 20 21  2  0  0  0
 20101  1  0  0  0
 21 23  1  0  0  0
 22 28  1  0  0  0
 22 32  2  0  0  0
 26 27  1  0  0  0
 28102  1  0  0  0
 28103  1  0  0  0
 29104  1  0  0  0
 29105  1  0  0  0
 33 34  1  0  0  0
 33 66  1  0  0  0
 33 70  2  0  0  0
 34 36  1  0  0  0
 34 59  1  0  0  0
 34106  1  0  0  0
 35 44  2  0  0  0
 35 45  1  0  0  0
 35 68  1  0  0  0
 36 56  1  0  0  0
 36107  1  0  0  0
 37 39  1  0  0  0
 37 47  1  0  0  0
 37 66  1  0  0  0
 37108  1  0  0  0
 38 43  2  0  0  0
 38 46  1  0  0  0
 38 47  1  0  0  0
 39 64  1  0  0  0
 39 67  2  0  0  0
 40 52  1  0  0  0
 40 53  2  0  0  0
 40 58  1  0  0  0
 41109  1  0  0  0
 41110  1  0  0  0
 41111  1  0  0  0
 41 48  1  0  0  0
 42 43  1  0  0  0
 42 66  1  0  0  0
 42112  1  0  0  0
 42113  1  0  0  0
 43 44  1  0  0  0
 44114  1  0  0  0
 45 46  2  0  0  0
 45115  1  0  0  0
 46116  1  0  0  0
 47117  1  0  0  0
 47118  1  0  0  0
 48 56  1  0  0  0
 48 65  1  0  0  0
 48119  1  0  0  0
 49 50  1  0  0  0
 49 53  1  0  0  0
 49 64  1  0  0  0
 49120  1  0  0  0
 50 51  1  0  0  0
 50121  1  0  0  0
 50122  1  0  0  0
 51 52  1  0  0  0
 51123  1  0  0  0
 51124  1  0  0  0
 52125  1  0  0  0
 52126  1  0  0  0
 53 54  1  0  0  0
 54 55  2  0  0  0
 54127  1  0  0  0
 55 57  1  0  0  0
 55128  1  0  0  0
 56 69  2  0  0  0
 57 58  2  0  0  0
 57129  1  0  0  0
 58130  1  0  0  0
 59 60  1  0  0  0
 59 61  1  0  0  0
 59 62  1  0  0  0
 60131  1  0  0  0
 60132  1  0  0  0
 60133  1  0  0  0
 61134  1  0  0  0
 61135  1  0  0  0
 61136  1  0  0  0
 62137  1  0  0  0
 62138  1  0  0  0
 62139  1  0  0  0
 63 65  1  0  0  0
 63140  1  0  0  0
 63141  1  0  0  0
 63142  1  0  0  0
 64143  1  0  0  0
 65144  1  0  0  0
 68 81  1  0  0  0
 71 72  2  0  0  0
 71 73  1  0  0  0
 71145  1  0  0  0
 72 75  1  0  0  0
 72146  1  0  0  0
 73 74  2  0  0  0
 73 84  1  0  0  0
 74 80  1  0  0  0
 74 82  1  0  0  0
 75 82  2  0  0  0
 75 83  1  0  0  0
 76 77  1  0  0  0
 76 83  1  0  0  0
 76 85  2  0  0  0
 77 78  1  0  0  0
 77147  1  0  0  0
 77148  1  0  0  0
 78 79  1  0  0  0
 78149  1  0  0  0
 78150  1  0  0  0
 79 81  1  0  0  0
 79 83  1  0  0  0
 79151  1  0  0  0
 80152  1  0  0  0
 80153  1  0  0  0
 80154  1  0  0  0
 81155  1  0  0  0
 81156  1  0  0  0
 84157  1  0  0  0
M  ISO  4   1 100  68 101  81 101  84 100
M  END
> <chiral flag>
0

> <version>
0

> <s_m_source_file>
/data/baiqing/PycharmProjects/Reinvent-master-3.2/result/LINK_invent/BTK/process_docking_weight1_custom_product_contain_oxygen_bond_distance_aromatic_linkinvent_7_9_3/rearranged_h_0109.sdf

> <i_m_source_file_index>
7

> <r_mmod_Potential_Energy-OPLS-2005>
397.399932861328

> <r_mmod_Stretch_Energy-OPLS-2005>
233.316070556641

> <r_mmod_Bend_Energy-OPLS-2005>
313.145050048828

> <r_mmod_Torsional_Energy-OPLS-2005>
305.229736328125

> <r_mmod_Improper_Torsional_Energy-OPLS-2005>
6.93039989471436

> <r_mmod_Van_der_Waal_Energy-OPLS-2005>
131.590148925781

> <r_mmod_Electrostatic_Energy-OPLS-2005>
-533.748291015625

> <r_mmod_Solvation_Energy-OPLS-2005>
-236.634582519531

> <b_mmod_Minimization_Converged-OPLS-2005>
0

> <r_mmod_RMS_Derivative-OPLS-2005>
0.79111647605896

$$$$
7
                    3D
 Structure written by MMmdl.
156164  0  0  1  0            999 V2000
  -30.7559  -14.4239   20.5952 C   0  0  0  0  0  0
  -30.4040  -12.2980   19.4030 C   0  0  0  0  0  0
  -29.4779  -12.5065   18.1901 C   0  0  0  0  0  0
  -28.0027  -12.3638   18.6123 C   0  0  0  0  0  0
  -27.6540  -13.2110   19.8652 C   0  0  2  0  0  0
  -28.6999  -13.0112   20.9848 C   0  0  0  0  0  0
  -25.2579  -13.8183   20.5689 C   0  0  0  0  0  0
  -24.1842  -13.0453   20.9201 C   0  0  0  0  0  0
  -24.6396  -11.6922   20.8738 C   0  0  0  0  0  0
  -23.9078  -10.4299   21.0417 C   0  0  0  0  0  0
  -24.3620   -9.4211   21.9195 C   0  0  0  0  0  0
  -23.6299   -8.2245   22.0755 C   0  0  0  0  0  0
  -22.4287   -8.0287   21.3546 C   0  0  0  0  0  0
  -21.9929   -9.0261   20.4646 C   0  0  0  0  0  0
  -22.7252  -10.2140   20.3061 C   0  0  0  0  0  0
  -21.6852   -6.0751   22.5289 C   0  0  0  0  0  0
  -21.4005   -6.5657   23.8220 C   0  0  0  0  0  0
  -21.3644   -5.6815   24.9177 C   0  0  0  0  0  0
  -21.6048   -4.3070   24.7225 C   0  0  0  0  0  0
  -21.8816   -3.8169   23.4342 C   0  0  0  0  0  0
  -21.9189   -4.6991   22.3403 C   0  0  0  0  0  0
  -22.7871  -13.5234   21.1878 C   0  0  0  0  0  0
  -22.1669   -4.2176   21.0984 F   0  0  0  0  0  0
  -21.5624   -3.4551   25.7741 F   0  0  0  0  0  0
  -30.0253  -13.2930   20.4164 N   0  0  0  0  0  0
  -26.2992  -12.9362   20.3333 N   0  0  0  0  0  0
  -25.9311  -11.6511   20.5756 N   0  0  0  0  0  0
  -22.0516  -12.8194   22.0405 N   0  0  0  0  0  0
  -25.4333  -15.1892   20.4081 N   0  0  0  0  0  0
  -31.9070  -14.5292   20.1612 O   0  0  0  0  0  0
  -21.6629   -6.8895   21.4258 O   0  0  0  0  0  0
  -22.3562  -14.5545   20.6745 O   0  0  0  0  0  0
  -24.6127  -31.8691   23.2149 C   0  0  0  0  0  0
  -25.9018  -32.4829   23.8445 C   0  0  1  0  0  0
  -27.2347  -27.4575   20.1061 C   0  0  0  0  0  0
  -25.5905  -33.8633   24.2376 N   0  0  0  0  0  0
  -23.4020  -30.4905   21.5542 C   0  0  2  0  0  0
  -24.8483  -28.9604   20.1180 C   0  0  0  0  0  0
  -22.7407  -29.4663   22.5024 C   0  0  0  0  0  0
  -18.0257  -28.1359   22.8515 C   0  0  0  0  0  0
  -24.1474  -36.7297   23.2642 C   0  0  0  0  0  0
  -25.9276  -30.8443   21.3631 C   0  0  0  0  0  0
  -26.0069  -29.4809   20.7080 C   0  0  0  0  0  0
  -27.2061  -28.7377   20.6960 C   0  0  0  0  0  0
  -26.0641  -26.9407   19.5116 C   0  0  0  0  0  0
  -24.8694  -27.6878   19.5177 C   0  0  0  0  0  0
  -23.6080  -29.8236   20.1706 C   0  0  0  0  0  0
  -25.4102  -36.3114   24.0342 C   0  0  1  0  0  0
  -20.5856  -28.3667   23.1311 C   0  0  2  0  0  0
  -20.6759  -26.9401   22.5413 C   0  0  0  0  0  0
  -19.5741  -26.6385   21.5209 C   0  0  0  0  0  0
  -18.1909  -26.7921   22.1613 C   0  0  0  0  0  0
  -19.1514  -28.8820   23.2901 C   0  0  0  0  0  0
  -18.9443  -30.1429   23.8907 C   0  0  0  0  0  0
  -17.6451  -30.6579   24.0574 C   0  0  0  0  0  0
  -25.9034  -34.9475   23.5154 C   0  0  0  0  0  0
  -16.5338  -29.9092   23.6339 C   0  0  0  0  0  0
  -16.7253  -28.6495   23.0391 C   0  0  0  0  0  0
  -26.4483  -31.6599   25.0743 C   0  0  0  0  0  0
  -25.3751  -31.3654   26.1484 C   0  0  0  0  0  0
  -27.0371  -30.3064   24.6108 C   0  0  0  0  0  0
  -27.6074  -32.4336   25.7495 C   0  0  0  0  0  0
  -27.5584  -37.1779   24.8457 C   0  0  0  0  0  0
  -21.4141  -29.3028   22.3712 N   0  0  0  0  0  0
  -26.4285  -37.3805   23.9429 N   0  0  0  0  0  0
  -24.6656  -31.0821   22.1030 N   0  0  0  0  0  0
  -23.4157  -28.8201   23.3064 O   0  0  0  0  0  0
  -28.3892  -26.7174   20.1196 O   0  0  0  0  0  0
  -26.5596  -34.8905   22.4711 O   0  0  0  0  0  0
  -23.5309  -32.1443   23.7535 O   0  0  0  0  0  0
  -29.1797  -19.5825   19.4502 C   0  0  0  0  0  0
  -29.0850  -20.1186   21.8167 C   0  0  0  0  0  0
  -29.9377  -17.9261   21.0964 C   0  0  0  0  0  0
  -29.7114  -18.3053   19.7390 C   0  0  0  0  0  0
  -28.8849  -20.5060   20.4738 C   0  0  0  0  0  0
  -29.6096  -18.8437   22.1253 C   0  0  0  0  0  0
  -30.6592  -16.6486   21.4471 C   0  0  0  0  0  0
  -28.5141  -24.2594   20.1751 C   0  0  0  0  0  0
  -30.0814  -17.4127   18.5577 C   0  0  0  0  0  0
  -28.6231  -22.9420   20.9649 C   0  0  0  0  0  0
  -28.3247  -25.5611   20.9713 C   0  0  0  0  0  0
  -28.4078  -21.7750   20.1026 N   0  0  0  0  0  0
  -30.0847  -15.4908   21.0664 N   0  0  0  0  0  0
  -31.7556  -16.7173   22.0184 O   0  0  0  0  0  0
  -28.5741  -24.2532   18.9390 O   0  0  0  0  0  0
  -29.8075  -18.5169   23.4278 F   0  0  0  0  0  0
  -31.4462  -12.3770   19.0911 H   0  0  0  0  0  0
  -30.2906  -11.2897   19.8018 H   0  0  0  0  0  0
  -29.7120  -11.7864   17.4039 H   0  0  0  0  0  0
  -29.6432  -13.4951   17.7591 H   0  0  0  0  0  0
  -27.8210  -11.3086   18.8177 H   0  0  0  0  0  0
  -27.3442  -12.6289   17.7839 H   0  0  0  0  0  0
  -27.6933  -14.2543   19.5554 H   0  0  0  0  0  0
  -28.6725  -11.9868   21.3585 H   0  0  0  0  0  0
  -28.4725  -13.6434   21.8457 H   0  0  0  0  0  0
  -25.2757   -9.5678   22.4776 H   0  0  0  0  0  0
  -24.0018   -7.4623   22.7459 H   0  0  0  0  0  0
  -21.0873   -8.8775   19.8932 H   0  0  0  0  0  0
  -22.3728  -10.9687   19.6165 H   0  0  0  0  0  0
  -21.2000   -7.6166   23.9733 H   0  0  0  0  0  0
  -21.1471   -6.0537   25.9081 H   0  0  0  0  0  0
  -22.0606   -2.7639   23.2837 H   0  0  0  0  0  0
  -22.4151  -11.9825   22.4723 H   0  0  0  0  0  0
  -21.1132  -13.1210   22.2633 H   0  0  0  0  0  0
  -24.6654  -15.8438   20.5028 H   0  0  0  0  0  0
  -26.2832  -15.6249   20.0743 H   0  0  0  0  0  0
  -26.7097  -32.5548   23.1228 H   0  0  0  0  0  0
  -25.0090  -33.9831   25.0546 H   0  0  0  0  0  0
  -22.6892  -31.3043   21.4157 H   0  0  0  0  0  0
  -23.3747  -35.9614   23.3280 H   0  0  0  0  0  0
  -24.3575  -36.8945   22.2060 H   0  0  0  0  0  0
  -23.7193  -37.6469   23.6689 H   0  0  0  0  0  0
  -26.0363  -31.6127   20.5950 H   0  0  0  0  0  0
  -26.8150  -30.8946   21.9841 H   0  0  0  0  0  0
  -28.1034  -29.1416   21.1466 H   0  0  0  0  0  0
  -26.0752  -25.9650   19.0487 H   0  0  0  0  0  0
  -23.9757  -27.2808   19.0637 H   0  0  0  0  0  0
  -23.7117  -30.5977   19.4101 H   0  0  0  0  0  0
  -22.7324  -29.2377   19.8851 H   0  0  0  0  0  0
  -25.1269  -36.1984   25.0829 H   0  0  0  0  0  0
  -20.9948  -28.3250   24.1438 H   0  0  0  0  0  0
  -20.5668  -26.2280   23.3608 H   0  0  0  0  0  0
  -21.6627  -26.7446   22.1192 H   0  0  0  0  0  0
  -19.6908  -25.6296   21.1232 H   0  0  0  0  0  0
  -19.6674  -27.3199   20.6749 H   0  0  0  0  0  0
  -17.4183  -26.6698   21.3988 H   0  0  0  0  0  0
  -18.0254  -26.0031   22.8970 H   0  0  0  0  0  0
  -19.7923  -30.7250   24.2280 H   0  0  0  0  0  0
  -17.5006  -31.6270   24.5169 H   0  0  0  0  0  0
  -15.5335  -30.3004   23.7654 H   0  0  0  0  0  0
  -15.8648  -28.0815   22.7131 H   0  0  0  0  0  0
  -24.6034  -30.6874   25.7833 H   0  0  0  0  0  0
  -24.8795  -32.2750   26.4871 H   0  0  0  0  0  0
  -25.8126  -30.8926   27.0284 H   0  0  0  0  0  0
  -26.2939  -29.6726   24.1260 H   0  0  0  0  0  0
  -27.4275  -29.7387   25.4567 H   0  0  0  0  0  0
  -27.8683  -30.4422   23.9190 H   0  0  0  0  0  0
  -27.2755  -33.3708   26.1984 H   0  0  0  0  0  0
  -28.3916  -32.6773   25.0311 H   0  0  0  0  0  0
  -28.0682  -31.8490   26.5462 H   0  0  0  0  0  0
  -28.2561  -38.0123   24.7609 H   0  0  0  0  0  0
  -28.1136  -36.2654   24.6188 H   0  0  0  0  0  0
  -27.2304  -37.1306   25.8860 H   0  0  0  0  0  0
  -20.9274  -29.8729   21.6932 H   0  0  0  0  0  0
  -26.0155  -38.2870   24.1492 H   0  0  0  0  0  0
  -29.0308  -19.8657   18.4174 H   0  0  0  0  0  0
  -28.8572  -20.7917   22.6297 H   0  0  0  0  0  0
  -30.1263  -17.9839   17.6275 H   0  0  0  0  0  0
  -29.3410  -16.6232   18.4187 H   0  0  0  0  0  0
  -31.0626  -16.9531   18.6860 H   0  0  0  0  0  0
  -27.8945  -22.9494   21.7774 H   0  0  0  0  0  0
  -29.6116  -22.8989   21.4270 H   0  0  0  0  0  0
  -29.1028  -25.6403   21.7290 H   0  0  0  0  0  0
  -27.3740  -25.5093   21.5075 H   0  0  0  0  0  0
  -28.4442  -22.0100   19.1120 H   0  0  0  0  0  0
  -29.0823  -15.4670   20.9873 H   0  0  0  0  0  0
  1 25  1  0  0  0
  1 30  2  0  0  0
  1 83  1  0  0  0
  2  3  1  0  0  0
  2 25  1  0  0  0
  2 87  1  0  0  0
  2 88  1  0  0  0
  3  4  1  0  0  0
  3 89  1  0  0  0
  3 90  1  0  0  0
  4  5  1  0  0  0
  4 91  1  0  0  0
  4 92  1  0  0  0
  5  6  1  0  0  0
  5 26  1  0  0  0
  5 93  1  0  0  0
  6 25  1  0  0  0
  6 94  1  0  0  0
  6 95  1  0  0  0
  7  8  2  0  0  0
  7 26  1  0  0  0
  7 29  1  0  0  0
  8  9  1  0  0  0
  8 22  1  0  0  0
  9 10  1  0  0  0
  9 27  2  0  0  0
 10 11  2  0  0  0
 10 15  1  0  0  0
 11 12  1  0  0  0
 11 96  1  0  0  0
 12 13  2  0  0  0
 12 97  1  0  0  0
 13 14  1  0  0  0
 13 31  1  0  0  0
 14 15  2  0  0  0
 14 98  1  0  0  0
 15 99  1  0  0  0
 16 17  2  0  0  0
 16 21  1  0  0  0
 16 31  1  0  0  0
 17 18  1  0  0  0
 17100  1  0  0  0
 18 19  2  0  0  0
 18101  1  0  0  0
 19 20  1  0  0  0
 19 24  1  0  0  0
 20 21  2  0  0  0
 20102  1  0  0  0
 21 23  1  0  0  0
 22 28  1  0  0  0
 22 32  2  0  0  0
 26 27  1  0  0  0
 28103  1  0  0  0
 28104  1  0  0  0
 29105  1  0  0  0
 29106  1  0  0  0
 33 34  1  0  0  0
 33 66  1  0  0  0
 33 70  2  0  0  0
 34 36  1  0  0  0
 34 59  1  0  0  0
 34107  1  0  0  0
 35 44  2  0  0  0
 35 45  1  0  0  0
 35 68  1  0  0  0
 36 56  1  0  0  0
 36108  1  0  0  0
 37 39  1  0  0  0
 37 47  1  0  0  0
 37 66  1  0  0  0
 37109  1  0  0  0
 38 43  2  0  0  0
 38 46  1  0  0  0
 38 47  1  0  0  0
 39 64  1  0  0  0
 39 67  2  0  0  0
 40 52  1  0  0  0
 40 53  2  0  0  0
 40 58  1  0  0  0
 41110  1  0  0  0
 41111  1  0  0  0
 41112  1  0  0  0
 41 48  1  0  0  0
 42 43  1  0  0  0
 42 66  1  0  0  0
 42113  1  0  0  0
 42114  1  0  0  0
 43 44  1  0  0  0
 44115  1  0  0  0
 45 46  2  0  0  0
 45116  1  0  0  0
 46117  1  0  0  0
 47118  1  0  0  0
 47119  1  0  0  0
 48 56  1  0  0  0
 48 65  1  0  0  0
 48120  1  0  0  0
 49 50  1  0  0  0
 49 53  1  0  0  0
 49 64  1  0  0  0
 49121  1  0  0  0
 50 51  1  0  0  0
 50122  1  0  0  0
 50123  1  0  0  0
 51 52  1  0  0  0
 51124  1  0  0  0
 51125  1  0  0  0
 52126  1  0  0  0
 52127  1  0  0  0
 53 54  1  0  0  0
 54 55  2  0  0  0
 54128  1  0  0  0
 55 57  1  0  0  0
 55129  1  0  0  0
 56 69  2  0  0  0
 57 58  2  0  0  0
 57130  1  0  0  0
 58131  1  0  0  0
 59 60  1  0  0  0
 59 61  1  0  0  0
 59 62  1  0  0  0
 60132  1  0  0  0
 60133  1  0  0  0
 60134  1  0  0  0
 61135  1  0  0  0
 61136  1  0  0  0
 61137  1  0  0  0
 62138  1  0  0  0
 62139  1  0  0  0
 62140  1  0  0  0
 63 65  1  0  0  0
 63141  1  0  0  0
 63142  1  0  0  0
 63143  1  0  0  0
 64144  1  0  0  0
 65145  1  0  0  0
 68 81  1  0  0  0
 71 74  2  0  0  0
 71 75  1  0  0  0
 71146  1  0  0  0
 72 75  2  0  0  0
 72 76  1  0  0  0
 72147  1  0  0  0
 73 74  1  0  0  0
 73 76  2  0  0  0
 73 77  1  0  0  0
 74 79  1  0  0  0
 75 82  1  0  0  0
 76 86  1  0  0  0
 77 83  1  0  0  0
 77 84  2  0  0  0
 78 80  1  0  0  0
 78 81  1  0  0  0
 78 85  2  0  0  0
 79148  1  0  0  0
 79149  1  0  0  0
 79150  1  0  0  0
 80 82  1  0  0  0
 80151  1  0  0  0
 80152  1  0  0  0
 81153  1  0  0  0
 81154  1  0  0  0
 82155  1  0  0  0
 83156  1  0  0  0
M  ISO  4   1 100  68 101  81 101  83 100
M  END
> <chiral flag>
0

> <version>
0

> <s_m_source_file>
/data/baiqing/PycharmProjects/Reinvent-master-3.2/result/LINK_invent/BTK/process_docking_weight1_custom_product_contain_oxygen_bond_distance_aromatic_linkinvent_7_9_3/rearranged_h_0109.sdf

> <i_m_source_file_index>
8

> <r_mmod_Potential_Energy-OPLS-2005>
12.2316722869873

> <r_mmod_Stretch_Energy-OPLS-2005>
35.7087249755859

> <r_mmod_Bend_Energy-OPLS-2005>
94.6155548095703

> <r_mmod_Torsional_Energy-OPLS-2005>
270.920318603516

> <r_mmod_Improper_Torsional_Energy-OPLS-2005>
8.70365524291992

> <r_mmod_Van_der_Waal_Energy-OPLS-2005>
157.929321289062

> <r_mmod_Electrostatic_Energy-OPLS-2005>
-327.171264648438

> <r_mmod_Solvation_Energy-OPLS-2005>
-242.971710205078

> <b_mmod_Minimization_Converged-OPLS-2005>
0

> <r_mmod_RMS_Derivative-OPLS-2005>
3.38539266586304

$$$$
8
                    3D
 Structure written by MMmdl.
166175  0  0  1  0            999 V2000
  -30.6266  -14.7413   20.3070 C   0  0  0  0  0  0
  -30.4563  -12.3974   19.4751 C   0  0  0  0  0  0
  -29.5168  -12.2519   18.2559 C   0  0  0  0  0  0
  -28.0167  -12.2734   18.6507 C   0  0  0  0  0  0
  -27.6347  -13.2045   19.8431 C   0  0  2  0  0  0
  -28.7059  -13.1974   20.9503 C   0  0  0  0  0  0
  -25.2541  -13.8138   20.5798 C   0  0  0  0  0  0
  -24.1787  -13.0409   20.9252 C   0  0  0  0  0  0
  -24.6360  -11.6886   20.8850 C   0  0  0  0  0  0
  -23.9042  -10.4278   21.0477 C   0  0  0  0  0  0
  -24.3596   -9.4187   21.9235 C   0  0  0  0  0  0
  -23.6273   -8.2223   22.0788 C   0  0  0  0  0  0
  -22.4266   -8.0282   21.3558 C   0  0  0  0  0  0
  -21.9910   -9.0261   20.4658 C   0  0  0  0  0  0
  -22.7241  -10.2142   20.3089 C   0  0  0  0  0  0
  -21.6848   -6.0741   22.5282 C   0  0  0  0  0  0
  -21.4011   -6.5644   23.8214 C   0  0  0  0  0  0
  -21.3649   -5.6812   24.9179 C   0  0  0  0  0  0
  -21.6029   -4.3074   24.7232 C   0  0  0  0  0  0
  -21.8815   -3.8149   23.4359 C   0  0  0  0  0  0
  -21.9188   -4.6964   22.3418 C   0  0  0  0  0  0
  -22.7812  -13.5221   21.1873 C   0  0  0  0  0  0
  -22.1667   -4.2137   21.1005 F   0  0  0  0  0  0
  -21.5615   -3.4573   25.7750 F   0  0  0  0  0  0
  -29.9866  -13.5212   20.3087 N   0  0  0  0  0  0
  -26.2942  -12.9270   20.3433 N   0  0  0  0  0  0
  -25.9282  -11.6457   20.5927 N   0  0  0  0  0  0
  -22.0442  -12.8217   22.0420 N   0  0  0  0  0  0
  -25.4247  -15.1875   20.4221 N   0  0  0  0  0  0
  -31.8584  -14.7857   20.2962 O   0  0  0  0  0  0
  -21.6627   -6.8882   21.4251 O   0  0  0  0  0  0
  -22.3511  -14.5524   20.6709 O   0  0  0  0  0  0
  -24.6241  -31.8607   23.2041 C   0  0  0  0  0  0
  -25.9094  -32.4784   23.8366 C   0  0  1  0  0  0
  -27.2252  -27.3285   20.1272 C   0  0  0  0  0  0
  -25.5915  -33.8589   24.2280 N   0  0  0  0  0  0
  -23.4174  -30.4859   21.5452 C   0  0  2  0  0  0
  -24.8668  -28.9468   20.1088 C   0  0  0  0  0  0
  -22.7468  -29.4630   22.4926 C   0  0  0  0  0  0
  -18.0284  -28.1396   22.8477 C   0  0  0  0  0  0
  -24.1495  -36.7293   23.2639 C   0  0  0  0  0  0
  -25.9581  -30.7973   21.3737 C   0  0  0  0  0  0
  -26.0343  -29.4269   20.7150 C   0  0  0  0  0  0
  -27.2162  -28.6288   20.7165 C   0  0  0  0  0  0
  -26.0365  -26.9081   19.4810 C   0  0  0  0  0  0
  -24.8694  -27.6932   19.4821 C   0  0  0  0  0  0
  -23.6319  -29.8224   20.1599 C   0  0  0  0  0  0
  -25.4117  -36.3089   24.0330 C   0  0  1  0  0  0
  -20.5878  -28.3684   23.1277 C   0  0  2  0  0  0
  -20.6768  -26.9404   22.5408 C   0  0  0  0  0  0
  -19.5746  -26.6381   21.5208 C   0  0  0  0  0  0
  -18.1926  -26.7929   22.1622 C   0  0  0  0  0  0
  -19.1538  -28.8857   23.2868 C   0  0  0  0  0  0
  -18.9468  -30.1458   23.8886 C   0  0  0  0  0  0
  -17.6471  -30.6593   24.0563 C   0  0  0  0  0  0
  -25.9060  -34.9462   23.5110 C   0  0  0  0  0  0
  -16.5355  -29.9096   23.6340 C   0  0  0  0  0  0
  -16.7268  -28.6517   23.0345 C   0  0  0  0  0  0
  -26.4485  -31.6602   25.0732 C   0  0  0  0  0  0
  -25.3726  -31.3727   26.1463 C   0  0  0  0  0  0
  -27.0330  -30.3030   24.6178 C   0  0  0  0  0  0
  -27.6032  -32.4338   25.7515 C   0  0  0  0  0  0
  -27.5594  -37.1786   24.8451 C   0  0  0  0  0  0
  -21.4181  -29.3039   22.3675 N   0  0  0  0  0  0
  -26.4285  -37.3794   23.9430 N   0  0  0  0  0  0
  -24.6856  -31.0639   22.0979 N   0  0  0  0  0  0
  -23.4195  -28.8168   23.2998 O   0  0  0  0  0  0
  -28.3333  -26.4679   20.2132 O   0  0  0  0  0  0
  -26.5633  -34.8929   22.4683 O   0  0  0  0  0  0
  -23.5411  -32.1410   23.7371 O   0  0  0  0  0  0
  -29.6709  -19.6722   19.5423 C   0  0  0  0  0  0
  -29.7995  -18.3019   19.2094 C   0  0  0  0  0  0
  -29.9356  -19.0941   21.8457 C   0  0  0  0  0  0
  -29.7199  -20.1250   20.8753 C   0  0  0  0  0  0
  -29.9553  -17.2468   20.1673 C   0  0  0  0  0  0
  -30.0366  -17.7001   21.5125 C   0  0  0  0  0  0
  -29.0431  -23.9157   20.6594 C   0  0  0  0  0  0
  -28.8098  -22.5514   20.5766 C   0  0  0  0  0  0
  -30.2726  -24.3613   21.3673 C   0  0  0  0  0  0
  -30.6975  -16.4302   16.2089 C   0  0  0  0  0  0
  -30.7064  -15.7169   17.3443 C   0  0  0  0  0  0
  -31.2702  -23.2833   21.8047 C   0  0  0  0  0  0
  -30.5697  -21.9747   22.2091 C   0  0  0  0  0  0
  -27.5383  -22.0265   19.9149 C   0  0  0  0  0  0
  -28.0665  -25.0142   20.0859 C   0  0  0  0  0  0
  -29.5426  -15.6401   18.3232 C   0  0  0  0  0  0
  -29.6227  -21.5362   21.1814 N   0  0  0  0  0  0
  -29.9363  -15.8196   19.7440 N   0  0  0  0  0  0
  -30.5538  -25.5399   21.6035 O   0  0  0  0  0  0
  -30.1796  -16.7924   22.5077 F   0  0  0  0  0  0
  -31.4836  -12.5423   19.1346 H   0  0  0  0  0  0
  -30.4620  -11.4785   20.0644 H   0  0  0  0  0  0
  -29.7241  -11.2898   17.7836 H   0  0  0  0  0  0
  -29.7635  -12.9573   17.4658 H   0  0  0  0  0  0
  -27.7766  -11.2439   18.9184 H   0  0  0  0  0  0
  -27.3981  -12.5029   17.7813 H   0  0  0  0  0  0
  -27.5757  -14.2170   19.4625 H   0  0  0  0  0  0
  -28.7547  -12.2265   21.4463 H   0  0  0  0  0  0
  -28.4730  -13.9353   21.7194 H   0  0  0  0  0  0
  -25.2745   -9.5669   22.4798 H   0  0  0  0  0  0
  -23.9984   -7.4615   22.7506 H   0  0  0  0  0  0
  -21.0846   -8.8796   19.8952 H   0  0  0  0  0  0
  -22.3730  -10.9692   19.6191 H   0  0  0  0  0  0
  -21.2024   -7.6147   23.9724 H   0  0  0  0  0  0
  -21.1468   -6.0542   25.9086 H   0  0  0  0  0  0
  -22.0594   -2.7599   23.2883 H   0  0  0  0  0  0
  -22.4057  -11.9877   22.4792 H   0  0  0  0  0  0
  -21.1060  -13.1242   22.2612 H   0  0  0  0  0  0
  -24.6595  -15.8448   20.5313 H   0  0  0  0  0  0
  -26.2864  -15.6345   20.1345 H   0  0  0  0  0  0
  -26.7162  -32.5470   23.1121 H   0  0  0  0  0  0
  -25.0045  -33.9744   25.0413 H   0  0  0  0  0  0
  -22.7094  -31.3055   21.4041 H   0  0  0  0  0  0
  -23.3782  -35.9598   23.3244 H   0  0  0  0  0  0
  -24.3596  -36.8976   22.2066 H   0  0  0  0  0  0
  -23.7212  -37.6458   23.6703 H   0  0  0  0  0  0
  -26.0898  -31.5606   20.6060 H   0  0  0  0  0  0
  -26.8383  -30.8444   22.0036 H   0  0  0  0  0  0
  -28.1081  -28.9895   21.2111 H   0  0  0  0  0  0
  -25.9740  -25.9523   18.9819 H   0  0  0  0  0  0
  -23.9751  -27.3187   19.0022 H   0  0  0  0  0  0
  -23.7458  -30.6000   19.4039 H   0  0  0  0  0  0
  -22.7528  -29.2488   19.8593 H   0  0  0  0  0  0
  -25.1292  -36.1929   25.0814 H   0  0  0  0  0  0
  -20.9971  -28.3269   24.1398 H   0  0  0  0  0  0
  -20.5660  -26.2299   23.3610 H   0  0  0  0  0  0
  -21.6635  -26.7432   22.1213 H   0  0  0  0  0  0
  -19.6905  -25.6293   21.1239 H   0  0  0  0  0  0
  -19.6686  -27.3193   20.6739 H   0  0  0  0  0  0
  -17.4188  -26.6666   21.4024 H   0  0  0  0  0  0
  -18.0323  -26.0077   22.9029 H   0  0  0  0  0  0
  -19.7946  -30.7267   24.2248 H   0  0  0  0  0  0
  -17.5037  -31.6267   24.5168 H   0  0  0  0  0  0
  -15.5360  -30.3006   23.7667 H   0  0  0  0  0  0
  -15.8663  -28.0846   22.7059 H   0  0  0  0  0  0
  -24.5883  -30.7091   25.7797 H   0  0  0  0  0  0
  -24.8941  -32.2893   26.4923 H   0  0  0  0  0  0
  -25.8060  -30.8881   27.0220 H   0  0  0  0  0  0
  -26.2905  -29.6780   24.1197 H   0  0  0  0  0  0
  -27.4033  -29.7280   25.4676 H   0  0  0  0  0  0
  -27.8774  -30.4327   23.9399 H   0  0  0  0  0  0
  -27.2617  -33.3622   26.2113 H   0  0  0  0  0  0
  -28.3841  -32.6925   25.0347 H   0  0  0  0  0  0
  -28.0708  -31.8453   26.5426 H   0  0  0  0  0  0
  -28.2550  -38.0147   24.7599 H   0  0  0  0  0  0
  -28.1154  -36.2682   24.6151 H   0  0  0  0  0  0
  -27.2323  -37.1280   25.8851 H   0  0  0  0  0  0
  -20.9358  -29.8771   21.6891 H   0  0  0  0  0  0
  -26.0160  -38.2848   24.1497 H   0  0  0  0  0  0
  -29.5470  -20.3880   18.7421 H   0  0  0  0  0  0
  -29.7623  -18.1135   18.1510 H   0  0  0  0  0  0
  -29.9988  -19.3628   22.8889 H   0  0  0  0  0  0
  -31.5543  -16.4382   15.5481 H   0  0  0  0  0  0
  -29.8362  -17.0140   15.9156 H   0  0  0  0  0  0
  -31.5876  -15.1381   17.5845 H   0  0  0  0  0  0
  -31.8729  -23.6579   22.6323 H   0  0  0  0  0  0
  -31.9515  -23.0952   20.9745 H   0  0  0  0  0  0
  -30.0278  -22.1227   23.1450 H   0  0  0  0  0  0
  -31.3345  -21.2241   22.4093 H   0  0  0  0  0  0
  -27.6246  -22.0664   18.8290 H   0  0  0  0  0  0
  -26.6699  -22.6189   20.2033 H   0  0  0  0  0  0
  -27.3033  -21.0013   20.1993 H   0  0  0  0  0  0
  -27.1211  -24.8093   20.5907 H   0  0  0  0  0  0
  -27.9217  -24.7879   19.0283 H   0  0  0  0  0  0
  -29.0557  -14.7052   18.1464 H   0  0  0  0  0  0
  -28.7367  -16.3135   18.0364 H   0  0  0  0  0  0
  1 25  1  0  0  0
  1 30  2  0  0  0
  1 88  1  0  0  0
  2  3  1  0  0  0
  2 25  1  0  0  0
  2 91  1  0  0  0
  2 92  1  0  0  0
  3  4  1  0  0  0
  3 93  1  0  0  0
  3 94  1  0  0  0
  4  5  1  0  0  0
  4 95  1  0  0  0
  4 96  1  0  0  0
  5  6  1  0  0  0
  5 26  1  0  0  0
  5 97  1  0  0  0
  6 25  1  0  0  0
  6 98  1  0  0  0
  6 99  1  0  0  0
  7  8  2  0  0  0
  7 26  1  0  0  0
  7 29  1  0  0  0
  8  9  1  0  0  0
  8 22  1  0  0  0
  9 10  1  0  0  0
  9 27  2  0  0  0
 10 11  2  0  0  0
 10 15  1  0  0  0
 11 12  1  0  0  0
 11100  1  0  0  0
 12 13  2  0  0  0
 12101  1  0  0  0
 13 14  1  0  0  0
 13 31  1  0  0  0
 14 15  2  0  0  0
 14102  1  0  0  0
 15103  1  0  0  0
 16 17  2  0  0  0
 16 21  1  0  0  0
 16 31  1  0  0  0
 17 18  1  0  0  0
 17104  1  0  0  0
 18 19  2  0  0  0
 18105  1  0  0  0
 19 20  1  0  0  0
 19 24  1  0  0  0
 20 21  2  0  0  0
 20106  1  0  0  0
 21 23  1  0  0  0
 22 28  1  0  0  0
 22 32  2  0  0  0
 26 27  1  0  0  0
 28107  1  0  0  0
 28108  1  0  0  0
 29109  1  0  0  0
 29110  1  0  0  0
 33 34  1  0  0  0
 33 66  1  0  0  0
 33 70  2  0  0  0
 34 36  1  0  0  0
 34 59  1  0  0  0
 34111  1  0  0  0
 35 44  2  0  0  0
 35 45  1  0  0  0
 35 68  1  0  0  0
 36 56  1  0  0  0
 36112  1  0  0  0
 37 39  1  0  0  0
 37 47  1  0  0  0
 37 66  1  0  0  0
 37113  1  0  0  0
 38 43  2  0  0  0
 38 46  1  0  0  0
 38 47  1  0  0  0
 39 64  1  0  0  0
 39 67  2  0  0  0
 40 52  1  0  0  0
 40 53  2  0  0  0
 40 58  1  0  0  0
 41114  1  0  0  0
 41115  1  0  0  0
 41116  1  0  0  0
 41 48  1  0  0  0
 42 43  1  0  0  0
 42 66  1  0  0  0
 42117  1  0  0  0
 42118  1  0  0  0
 43 44  1  0  0  0
 44119  1  0  0  0
 45 46  2  0  0  0
 45120  1  0  0  0
 46121  1  0  0  0
 47122  1  0  0  0
 47123  1  0  0  0
 48 56  1  0  0  0
 48 65  1  0  0  0
 48124  1  0  0  0
 49 50  1  0  0  0
 49 53  1  0  0  0
 49 64  1  0  0  0
 49125  1  0  0  0
 50 51  1  0  0  0
 50126  1  0  0  0
 50127  1  0  0  0
 51 52  1  0  0  0
 51128  1  0  0  0
 51129  1  0  0  0
 52130  1  0  0  0
 52131  1  0  0  0
 53 54  1  0  0  0
 54 55  2  0  0  0
 54132  1  0  0  0
 55 57  1  0  0  0
 55133  1  0  0  0
 56 69  2  0  0  0
 57 58  2  0  0  0
 57134  1  0  0  0
 58135  1  0  0  0
 59 60  1  0  0  0
 59 61  1  0  0  0
 59 62  1  0  0  0
 60136  1  0  0  0
 60137  1  0  0  0
 60138  1  0  0  0
 61139  1  0  0  0
 61140  1  0  0  0
 61141  1  0  0  0
 62142  1  0  0  0
 62143  1  0  0  0
 62144  1  0  0  0
 63 65  1  0  0  0
 63145  1  0  0  0
 63146  1  0  0  0
 63147  1  0  0  0
 64148  1  0  0  0
 65149  1  0  0  0
 68 85  1  0  0  0
 71 72  2  0  0  0
 71 74  1  0  0  0
 71150  1  0  0  0
 72 75  1  0  0  0
 72151  1  0  0  0
 73 74  2  0  0  0
 73 76  1  0  0  0
 73152  1  0  0  0
 74 87  1  0  0  0
 75 76  2  0  0  0
 75 88  1  0  0  0
 76 90  1  0  0  0
 77 78  2  0  0  0
 77 79  1  0  0  0
 77 85  1  0  0  0
 78 84  1  0  0  0
 78 87  1  0  0  0
 79 82  1  0  0  0
 79 89  2  0  0  0
 80 81  2  0  0  0
 80153  1  0  0  0
 80154  1  0  0  0
 81 86  1  0  0  0
 81155  1  0  0  0
 82 83  1  0  0  0
 82156  1  0  0  0
 82157  1  0  0  0
 83 87  1  0  0  0
 83158  1  0  0  0
 83159  1  0  0  0
 84160  1  0  0  0
 84161  1  0  0  0
 84162  1  0  0  0
 85163  1  0  0  0
 85164  1  0  0  0
 86 88  1  0  0  0
 86165  1  0  0  0
 86166  1  0  0  0
M  ISO  4   1 100  68 101  85 101  88 100
M  END
> <chiral flag>
0

> <version>
0

> <s_m_source_file>
/data/baiqing/PycharmProjects/Reinvent-master-3.2/result/LINK_invent/BTK/process_docking_weight1_custom_product_contain_oxygen_bond_distance_aromatic_linkinvent_7_9_3/rearranged_h_0109.sdf

> <i_m_source_file_index>
9

> <r_mmod_Potential_Energy-OPLS-2005>
347.027465820312

> <r_mmod_Stretch_Energy-OPLS-2005>
100.759170532227

> <r_mmod_Bend_Energy-OPLS-2005>
156.317245483398

> <r_mmod_Torsional_Energy-OPLS-2005>
296.605987548828

> <r_mmod_Improper_Torsional_Energy-OPLS-2005>
21.1051445007324

> <r_mmod_Van_der_Waal_Energy-OPLS-2005>
193.47981262207

> <r_mmod_Electrostatic_Energy-OPLS-2005>
-309.278472900391

> <r_mmod_Solvation_Energy-OPLS-2005>
-206.803909301758

> <b_mmod_Minimization_Converged-OPLS-2005>
0

> <r_mmod_RMS_Derivative-OPLS-2005>
2.37969636917114

$$$$
9
                    3D
 Structure written by MMmdl.
157166  0  0  1  0            999 V2000
  -30.6771  -14.5901   20.4990 C   0  0  0  0  0  0
  -30.4193  -12.3628   19.4544 C   0  0  0  0  0  0
  -29.4991  -12.4989   18.2229 C   0  0  0  0  0  0
  -28.0219  -12.3501   18.6352 C   0  0  0  0  0  0
  -27.6511  -13.2232   19.8647 C   0  0  2  0  0  0
  -28.6946  -13.0920   20.9971 C   0  0  0  0  0  0
  -25.2550  -13.8193   20.5701 C   0  0  0  0  0  0
  -24.1819  -13.0449   20.9191 C   0  0  0  0  0  0
  -24.6392  -11.6919   20.8742 C   0  0  0  0  0  0
  -23.9070  -10.4297   21.0403 C   0  0  0  0  0  0
  -24.3616   -9.4216   21.9186 C   0  0  0  0  0  0
  -23.6288   -8.2250   22.0765 C   0  0  0  0  0  0
  -22.4281   -8.0279   21.3543 C   0  0  0  0  0  0
  -21.9913   -9.0252   20.4648 C   0  0  0  0  0  0
  -22.7237  -10.2129   20.3053 C   0  0  0  0  0  0
  -21.6852   -6.0736   22.5279 C   0  0  0  0  0  0
  -21.4008   -6.5636   23.8213 C   0  0  0  0  0  0
  -21.3659   -5.6786   24.9169 C   0  0  0  0  0  0
  -21.6045   -4.3054   24.7218 C   0  0  0  0  0  0
  -21.8820   -3.8146   23.4339 C   0  0  0  0  0  0
  -21.9191   -4.6966   22.3400 C   0  0  0  0  0  0
  -22.7843  -13.5237   21.1847 C   0  0  0  0  0  0
  -22.1662   -4.2149   21.0979 F   0  0  0  0  0  0
  -21.5629   -3.4546   25.7733 F   0  0  0  0  0  0
  -30.0139  -13.3964   20.4279 N   0  0  0  0  0  0
  -26.2979  -12.9381   20.3341 N   0  0  0  0  0  0
  -25.9324  -11.6528   20.5767 N   0  0  0  0  0  0
  -22.0480  -12.8217   22.0387 N   0  0  0  0  0  0
  -25.4268  -15.1915   20.4134 N   0  0  0  0  0  0
  -31.8441  -14.6975   20.1138 O   0  0  0  0  0  0
  -21.6642   -6.8879   21.4241 O   0  0  0  0  0  0
  -22.3533  -14.5547   20.6708 O   0  0  0  0  0  0
  -24.6226  -31.8610   23.2052 C   0  0  0  0  0  0
  -25.9085  -32.4788   23.8374 C   0  0  1  0  0  0
  -27.2349  -27.3656   20.1155 C   0  0  0  0  0  0
  -25.5899  -33.8589   24.2293 N   0  0  0  0  0  0
  -23.4154  -30.4842   21.5451 C   0  0  2  0  0  0
  -24.8668  -28.9400   20.1154 C   0  0  0  0  0  0
  -22.7449  -29.4637   22.4947 C   0  0  0  0  0  0
  -18.0270  -28.1399   22.8496 C   0  0  0  0  0  0
  -24.1483  -36.7302   23.2640 C   0  0  0  0  0  0
  -25.9512  -30.8053   21.3691 C   0  0  0  0  0  0
  -26.0306  -29.4332   20.7206 C   0  0  0  0  0  0
  -27.2206  -28.6536   20.7218 C   0  0  0  0  0  0
  -26.0571  -26.9084   19.4938 C   0  0  0  0  0  0
  -24.8763  -27.6776   19.4992 C   0  0  0  0  0  0
  -23.6306  -29.8142   20.1620 C   0  0  0  0  0  0
  -25.4104  -36.3089   24.0342 C   0  0  1  0  0  0
  -20.5870  -28.3693   23.1296 C   0  0  2  0  0  0
  -20.6773  -26.9421   22.5411 C   0  0  0  0  0  0
  -19.5746  -26.6397   21.5214 C   0  0  0  0  0  0
  -18.1919  -26.7942   22.1621 C   0  0  0  0  0  0
  -19.1526  -28.8862   23.2894 C   0  0  0  0  0  0
  -18.9449  -30.1460   23.8913 C   0  0  0  0  0  0
  -17.6454  -30.6600   24.0578 C   0  0  0  0  0  0
  -25.9041  -34.9457   23.5124 C   0  0  0  0  0  0
  -16.5344  -29.9102   23.6351 C   0  0  0  0  0  0
  -16.7259  -28.6524   23.0368 C   0  0  0  0  0  0
  -26.4477  -31.6591   25.0728 C   0  0  0  0  0  0
  -25.3723  -31.3691   26.1457 C   0  0  0  0  0  0
  -27.0328  -30.3035   24.6145 C   0  0  0  0  0  0
  -27.6029  -32.4331   25.7500 C   0  0  0  0  0  0
  -27.5571  -37.1796   24.8463 C   0  0  0  0  0  0
  -21.4164  -29.3049   22.3690 N   0  0  0  0  0  0
  -26.4278  -37.3789   23.9421 N   0  0  0  0  0  0
  -24.6818  -31.0655   22.0982 N   0  0  0  0  0  0
  -23.4178  -28.8179   23.3024 O   0  0  0  0  0  0
  -28.3276  -26.5060   20.0940 O   0  0  0  0  0  0
  -26.5607  -34.8922   22.4684 O   0  0  0  0  0  0
  -23.5395  -32.1381   23.7406 O   0  0  0  0  0  0
  -28.6516  -19.8077   22.5537 C   0  0  0  0  0  0
  -29.0106  -18.4490   22.2435 C   0  0  0  0  0  0
  -29.7063  -18.3287   21.0594 C   0  0  0  0  0  0
  -29.0324  -20.7632   21.6359 C   0  0  0  0  0  0
  -28.9513  -24.5861   21.5809 C   0  0  0  0  0  0
  -28.6720  -25.8967   21.2883 C   0  0  0  0  0  0
  -29.2655  -24.1790   22.9999 C   0  0  0  0  0  0
  -28.9278  -23.2626   20.7719 C   0  0  0  0  0  0
  -28.7457  -22.7480   23.1196 C   0  0  0  0  0  0
  -28.6733  -17.3049   23.1547 C   0  0  0  0  0  0
  -30.3747  -17.0970   20.4152 C   0  0  0  0  0  0
  -28.8456  -22.1745   21.7834 N   0  0  0  0  0  0
  -29.9470  -15.7079   20.7803 N   0  0  0  0  0  0
  -29.8490  -19.9408   20.3091 S   0  0  0  0  0  0
  -31.4641  -12.4543   19.1543 H   0  0  0  0  0  0
  -30.3231  -11.3699   19.8964 H   0  0  0  0  0  0
  -29.7543  -11.7463   17.4750 H   0  0  0  0  0  0
  -29.6540  -13.4690   17.7464 H   0  0  0  0  0  0
  -27.8515  -11.2970   18.8643 H   0  0  0  0  0  0
  -27.3687  -12.5862   17.7938 H   0  0  0  0  0  0
  -27.6680  -14.2575   19.5204 H   0  0  0  0  0  0
  -28.6896  -12.0822   21.4113 H   0  0  0  0  0  0
  -28.4538  -13.7599   21.8255 H   0  0  0  0  0  0
  -25.2757   -9.5690   22.4767 H   0  0  0  0  0  0
  -23.9993   -7.4647   22.7493 H   0  0  0  0  0  0
  -21.0845   -8.8756   19.8954 H   0  0  0  0  0  0
  -22.3691  -10.9661   19.6164 H   0  0  0  0  0  0
  -21.1997   -7.6145   23.9705 H   0  0  0  0  0  0
  -21.1483   -6.0526   25.9068 H   0  0  0  0  0  0
  -22.0599   -2.7610   23.2839 H   0  0  0  0  0  0
  -22.4089  -11.9860   22.4744 H   0  0  0  0  0  0
  -21.1092  -13.1235   22.2587 H   0  0  0  0  0  0
  -24.6597  -15.8458   20.5222 H   0  0  0  0  0  0
  -26.2756  -15.6304   20.0808 H   0  0  0  0  0  0
  -26.7161  -32.5476   23.1129 H   0  0  0  0  0  0
  -25.0028  -33.9750   25.0430 H   0  0  0  0  0  0
  -22.7083  -31.3030   21.3994 H   0  0  0  0  0  0
  -23.3753  -35.9623   23.3294 H   0  0  0  0  0  0
  -24.3559  -36.8934   22.2051 H   0  0  0  0  0  0
  -23.7242  -37.6509   23.6661 H   0  0  0  0  0  0
  -26.0694  -31.5651   20.5943 H   0  0  0  0  0  0
  -26.8374  -30.8617   21.9896 H   0  0  0  0  0  0
  -28.1178  -29.0275   21.1960 H   0  0  0  0  0  0
  -26.0524  -25.9354   19.0238 H   0  0  0  0  0  0
  -23.9809  -27.2907   19.0328 H   0  0  0  0  0  0
  -23.7448  -30.5881   19.4018 H   0  0  0  0  0  0
  -22.7525  -29.2368   19.8663 H   0  0  0  0  0  0
  -25.1287  -36.1925   25.0838 H   0  0  0  0  0  0
  -20.9955  -28.3264   24.1416 H   0  0  0  0  0  0
  -20.5697  -26.2303   23.3607 H   0  0  0  0  0  0
  -21.6644  -26.7472   22.1182 H   0  0  0  0  0  0
  -19.6924  -25.6309   21.1233 H   0  0  0  0  0  0
  -19.6696  -27.3231   20.6761 H   0  0  0  0  0  0
  -17.4197  -26.6714   21.4010 H   0  0  0  0  0  0
  -18.0308  -26.0074   22.9008 H   0  0  0  0  0  0
  -19.7928  -30.7280   24.2287 H   0  0  0  0  0  0
  -17.5013  -31.6280   24.5180 H   0  0  0  0  0  0
  -15.5356  -30.3018   23.7677 H   0  0  0  0  0  0
  -15.8652  -28.0856   22.7088 H   0  0  0  0  0  0
  -24.5942  -30.6987   25.7787 H   0  0  0  0  0  0
  -24.8863  -32.2837   26.4864 H   0  0  0  0  0  0
  -25.8072  -30.8897   27.0237 H   0  0  0  0  0  0
  -26.2894  -29.6780   24.1190 H   0  0  0  0  0  0
  -27.4086  -29.7279   25.4614 H   0  0  0  0  0  0
  -27.8729  -30.4365   23.9324 H   0  0  0  0  0  0
  -27.2654  -33.3665   26.2012 H   0  0  0  0  0  0
  -28.3869  -32.6834   25.0344 H   0  0  0  0  0  0
  -28.0658  -31.8500   26.5466 H   0  0  0  0  0  0
  -28.2567  -38.0111   24.7519 H   0  0  0  0  0  0
  -28.1084  -36.2639   24.6263 H   0  0  0  0  0  0
  -27.2281  -37.1423   25.8862 H   0  0  0  0  0  0
  -20.9334  -29.8749   21.6886 H   0  0  0  0  0  0
  -26.0155  -38.2863   24.1429 H   0  0  0  0  0  0
  -28.1277  -20.0363   23.4722 H   0  0  0  0  0  0
  -28.7327  -26.6385   22.0736 H   0  0  0  0  0  0
  -28.8398  -24.8519   23.7455 H   0  0  0  0  0  0
  -30.3495  -24.1857   23.1236 H   0  0  0  0  0  0
  -29.8418  -23.1606   20.1847 H   0  0  0  0  0  0
  -28.0744  -23.2414   20.0926 H   0  0  0  0  0  0
  -27.6985  -22.7523   23.4288 H   0  0  0  0  0  0
  -29.3117  -22.1851   23.8640 H   0  0  0  0  0  0
  -28.2769  -17.6534   24.1089 H   0  0  0  0  0  0
  -29.5475  -16.6931   23.3796 H   0  0  0  0  0  0
  -27.9166  -16.6579   22.7103 H   0  0  0  0  0  0
  -31.4477  -17.1824   20.5951 H   0  0  0  0  0  0
  -30.2658  -17.1803   19.3329 H   0  0  0  0  0  0
  -28.9871  -15.5728   21.0521 H   0  0  0  0  0  0
  1 25  1  0  0  0
  1 30  2  0  0  0
  1 83  1  0  0  0
  2  3  1  0  0  0
  2 25  1  0  0  0
  2 85  1  0  0  0
  2 86  1  0  0  0
  3  4  1  0  0  0
  3 87  1  0  0  0
  3 88  1  0  0  0
  4  5  1  0  0  0
  4 89  1  0  0  0
  4 90  1  0  0  0
  5  6  1  0  0  0
  5 26  1  0  0  0
  5 91  1  0  0  0
  6 25  1  0  0  0
  6 92  1  0  0  0
  6 93  1  0  0  0
  7  8  2  0  0  0
  7 26  1  0  0  0
  7 29  1  0  0  0
  8  9  1  0  0  0
  8 22  1  0  0  0
  9 10  1  0  0  0
  9 27  2  0  0  0
 10 11  2  0  0  0
 10 15  1  0  0  0
 11 12  1  0  0  0
 11 94  1  0  0  0
 12 13  2  0  0  0
 12 95  1  0  0  0
 13 14  1  0  0  0
 13 31  1  0  0  0
 14 15  2  0  0  0
 14 96  1  0  0  0
 15 97  1  0  0  0
 16 17  2  0  0  0
 16 21  1  0  0  0
 16 31  1  0  0  0
 17 18  1  0  0  0
 17 98  1  0  0  0
 18 19  2  0  0  0
 18 99  1  0  0  0
 19 20  1  0  0  0
 19 24  1  0  0  0
 20 21  2  0  0  0
 20100  1  0  0  0
 21 23  1  0  0  0
 22 28  1  0  0  0
 22 32  2  0  0  0
 26 27  1  0  0  0
 28101  1  0  0  0
 28102  1  0  0  0
 29103  1  0  0  0
 29104  1  0  0  0
 33 34  1  0  0  0
 33 66  1  0  0  0
 33 70  2  0  0  0
 34 36  1  0  0  0
 34 59  1  0  0  0
 34105  1  0  0  0
 35 44  2  0  0  0
 35 45  1  0  0  0
 35 68  1  0  0  0
 36 56  1  0  0  0
 36106  1  0  0  0
 37 39  1  0  0  0
 37 47  1  0  0  0
 37 66  1  0  0  0
 37107  1  0  0  0
 38 43  2  0  0  0
 38 46  1  0  0  0
 38 47  1  0  0  0
 39 64  1  0  0  0
 39 67  2  0  0  0
 40 52  1  0  0  0
 40 53  2  0  0  0
 40 58  1  0  0  0
 41108  1  0  0  0
 41109  1  0  0  0
 41110  1  0  0  0
 41 48  1  0  0  0
 42 43  1  0  0  0
 42 66  1  0  0  0
 42111  1  0  0  0
 42112  1  0  0  0
 43 44  1  0  0  0
 44113  1  0  0  0
 45 46  2  0  0  0
 45114  1  0  0  0
 46115  1  0  0  0
 47116  1  0  0  0
 47117  1  0  0  0
 48 56  1  0  0  0
 48 65  1  0  0  0
 48118  1  0  0  0
 49 50  1  0  0  0
 49 53  1  0  0  0
 49 64  1  0  0  0
 49119  1  0  0  0
 50 51  1  0  0  0
 50120  1  0  0  0
 50121  1  0  0  0
 51 52  1  0  0  0
 51122  1  0  0  0
 51123  1  0  0  0
 52124  1  0  0  0
 52125  1  0  0  0
 53 54  1  0  0  0
 54 55  2  0  0  0
 54126  1  0  0  0
 55 57  1  0  0  0
 55127  1  0  0  0
 56 69  2  0  0  0
 57 58  2  0  0  0
 57128  1  0  0  0
 58129  1  0  0  0
 59 60  1  0  0  0
 59 61  1  0  0  0
 59 62  1  0  0  0
 60130  1  0  0  0
 60131  1  0  0  0
 60132  1  0  0  0
 61133  1  0  0  0
 61134  1  0  0  0
 61135  1  0  0  0
 62136  1  0  0  0
 62137  1  0  0  0
 62138  1  0  0  0
 63 65  1  0  0  0
 63139  1  0  0  0
 63140  1  0  0  0
 63141  1  0  0  0
 64142  1  0  0  0
 65143  1  0  0  0
 68 76  1  0  0  0
 71 72  1  0  0  0
 71 74  2  0  0  0
 71144  1  0  0  0
 72 73  2  0  0  0
 72 80  1  0  0  0
 73 81  1  0  0  0
 73 84  1  0  0  0
 74 82  1  0  0  0
 74 84  1  0  0  0
 75 76  2  0  0  0
 75 77  1  0  0  0
 75 78  1  0  0  0
 76145  1  0  0  0
 77 79  1  0  0  0
 77146  1  0  0  0
 77147  1  0  0  0
 78 82  1  0  0  0
 78148  1  0  0  0
 78149  1  0  0  0
 79 82  1  0  0  0
 79150  1  0  0  0
 79151  1  0  0  0
 80152  1  0  0  0
 80153  1  0  0  0
 80154  1  0  0  0
 81 83  1  0  0  0
 81155  1  0  0  0
 81156  1  0  0  0
 83157  1  0  0  0
M  ISO  4   1 100  68 101  76 101  83 100
M  END
> <chiral flag>
0

> <version>
0

> <s_m_source_file>
/data/baiqing/PycharmProjects/Reinvent-master-3.2/result/LINK_invent/BTK/process_docking_weight1_custom_product_contain_oxygen_bond_distance_aromatic_linkinvent_7_9_3/rearranged_h_0109.sdf

> <i_m_source_file_index>
10

> <r_mmod_Potential_Energy-OPLS-2005>
24.336555480957

> <r_mmod_Stretch_Energy-OPLS-2005>
56.7677154541016

> <r_mmod_Bend_Energy-OPLS-2005>
184.958572387695

> <r_mmod_Torsional_Energy-OPLS-2005>
232.846710205078

> <r_mmod_Improper_Torsional_Energy-OPLS-2005>
6.33855628967285

> <r_mmod_Van_der_Waal_Energy-OPLS-2005>
114.004623413086

> <r_mmod_Electrostatic_Energy-OPLS-2005>
-380.013092041016

> <r_mmod_Solvation_Energy-OPLS-2005>
-225.63346862793

> <b_mmod_Minimization_Converged-OPLS-2005>
0

> <r_mmod_RMS_Derivative-OPLS-2005>
2.04638934135437

$$$$
10
                    3D
 Structure written by MMmdl.
156164  0  0  1  0            999 V2000
  -30.4861  -15.0567   20.3889 C   0  0  0  0  0  0
  -30.4421  -12.6504   19.5337 C   0  0  0  0  0  0
  -29.5354  -12.5427   18.2829 C   0  0  0  0  0  0
  -28.0679  -12.3195   18.6910 C   0  0  0  0  0  0
  -27.6278  -13.2576   19.8445 C   0  0  2  0  0  0
  -28.6624  -13.3213   20.9895 C   0  0  0  0  0  0
  -25.2444  -13.8229   20.5732 C   0  0  0  0  0  0
  -24.1765  -13.0441   20.9228 C   0  0  0  0  0  0
  -24.6393  -11.6928   20.8748 C   0  0  0  0  0  0
  -23.9079  -10.4294   21.0402 C   0  0  0  0  0  0
  -24.3626   -9.4210   21.9181 C   0  0  0  0  0  0
  -23.6297   -8.2245   22.0753 C   0  0  0  0  0  0
  -22.4277   -8.0282   21.3545 C   0  0  0  0  0  0
  -21.9916   -9.0256   20.4647 C   0  0  0  0  0  0
  -22.7248  -10.2134   20.3053 C   0  0  0  0  0  0
  -21.6856   -6.0736   22.5278 C   0  0  0  0  0  0
  -21.4018   -6.5639   23.8212 C   0  0  0  0  0  0
  -21.3660   -5.6792   24.9173 C   0  0  0  0  0  0
  -21.6043   -4.3054   24.7224 C   0  0  0  0  0  0
  -21.8818   -3.8147   23.4345 C   0  0  0  0  0  0
  -21.9194   -4.6964   22.3402 C   0  0  0  0  0  0
  -22.7784  -13.5207   21.1884 C   0  0  0  0  0  0
  -22.1661   -4.2150   21.0978 F   0  0  0  0  0  0
  -21.5628   -3.4536   25.7737 F   0  0  0  0  0  0
  -29.9334  -13.7640   20.4005 N   0  0  0  0  0  0
  -26.2873  -12.9476   20.3260 N   0  0  0  0  0  0
  -25.9329  -11.6596   20.5735 N   0  0  0  0  0  0
  -22.0434  -12.8193   22.0438 N   0  0  0  0  0  0
  -25.4114  -15.1962   20.4186 N   0  0  0  0  0  0
  -31.6678  -15.1247   20.0301 O   0  0  0  0  0  0
  -21.6642   -6.8880   21.4241 O   0  0  0  0  0  0
  -22.3466  -14.5511   20.6729 O   0  0  0  0  0  0
  -24.6489  -31.8351   23.1795 C   0  0  0  0  0  0
  -25.9230  -32.4646   23.8215 C   0  0  1  0  0  0
  -27.2287  -27.0650   20.1631 C   0  0  0  0  0  0
  -25.5951  -33.8455   24.2133 N   0  0  0  0  0  0
  -23.4577  -30.4481   21.5243 C   0  0  2  0  0  0
  -24.9124  -28.8578   20.1018 C   0  0  0  0  0  0
  -22.7599  -29.4490   22.4817 C   0  0  0  0  0  0
  -18.0309  -28.1400   22.8470 C   0  0  0  0  0  0
  -24.1493  -36.7237   23.2645 C   0  0  0  0  0  0
  -26.0151  -30.6846   21.3893 C   0  0  0  0  0  0
  -26.0853  -29.2878   20.7326 C   0  0  0  0  0  0
  -27.2352  -28.4045   20.7503 C   0  0  0  0  0  0
  -26.0350  -26.7509   19.4794 C   0  0  0  0  0  0
  -24.9042  -27.6067   19.4587 C   0  0  0  0  0  0
  -23.6893  -29.7671   20.1459 C   0  0  0  0  0  0
  -25.4128  -36.3005   24.0308 C   0  0  1  0  0  0
  -20.5925  -28.3729   23.1220 C   0  0  2  0  0  0
  -20.6788  -26.9424   22.5408 C   0  0  0  0  0  0
  -19.5765  -26.6377   21.5213 C   0  0  0  0  0  0
  -18.1946  -26.7936   22.1621 C   0  0  0  0  0  0
  -19.1568  -28.8884   23.2835 C   0  0  0  0  0  0
  -18.9483  -30.1478   23.8863 C   0  0  0  0  0  0
  -17.6479  -30.6594   24.0556 C   0  0  0  0  0  0
  -25.9081  -34.9383   23.5038 C   0  0  0  0  0  0
  -16.5369  -29.9086   23.6338 C   0  0  0  0  0  0
  -16.7293  -28.6507   23.0355 C   0  0  0  0  0  0
  -26.4534  -31.6547   25.0692 C   0  0  0  0  0  0
  -25.3699  -31.3759   26.1375 C   0  0  0  0  0  0
  -27.0416  -30.2935   24.6328 C   0  0  0  0  0  0
  -27.6053  -32.4327   25.7484 C   0  0  0  0  0  0
  -27.5573  -37.1776   24.8465 C   0  0  0  0  0  0
  -21.4284  -29.3037   22.3576 N   0  0  0  0  0  0
  -26.4286  -37.3726   23.9404 N   0  0  0  0  0  0
  -24.7271  -31.0136   22.0858 N   0  0  0  0  0  0
  -23.4208  -28.8059   23.3011 O   0  0  0  0  0  0
  -28.2715  -26.0606   20.3275 O   0  0  0  0  0  0
  -26.5683  -34.8900   22.4628 O   0  0  0  0  0  0
  -23.5592  -32.1259   23.6974 O   0  0  0  0  0  0
  -29.0643  -20.1542   18.6465 C   0  0  0  0  0  0
  -29.4863  -17.7283   18.6157 C   0  0  0  0  0  0
  -29.1886  -19.0116   17.9400 C   0  0  0  0  0  0
  -29.5971  -17.6435   19.9800 C   0  0  0  0  0  0
  -29.4446  -19.0269   20.7301 C   0  0  0  0  0  0
  -30.2151  -16.3206   16.6841 C   0  0  0  0  0  0
  -29.5100  -16.5054   17.8130 C   0  0  0  0  0  0
  -28.2538  -23.1070   20.4196 C   0  0  0  0  0  0
  -28.9516  -19.1087   16.4397 C   0  0  0  0  0  0
  -29.3414  -21.8144   20.4994 C   0  0  0  0  0  0
  -28.4492  -24.6183   19.6835 C   0  0  0  0  0  0
  -29.1933  -20.2718   20.0304 N   0  0  0  0  0  0
  -29.6964  -16.2459   20.6183 N   0  0  0  0  0  0
  -29.5740  -19.0675   21.9573 O   0  0  0  0  0  0
  -27.1677  -22.9186   20.9758 O   0  0  0  0  0  0
  -31.4757  -12.8138   19.2245 H   0  0  0  0  0  0
  -30.4489  -11.7088   20.0851 H   0  0  0  0  0  0
  -29.8729  -11.7289   17.6396 H   0  0  0  0  0  0
  -29.6188  -13.4530   17.6892 H   0  0  0  0  0  0
  -27.9713  -11.2805   19.0077 H   0  0  0  0  0  0
  -27.4102  -12.4384   17.8294 H   0  0  0  0  0  0
  -27.5785  -14.2532   19.4051 H   0  0  0  0  0  0
  -28.7676  -12.3530   21.4807 H   0  0  0  0  0  0
  -28.3379  -14.0234   21.7590 H   0  0  0  0  0  0
  -25.2768   -9.5691   22.4757 H   0  0  0  0  0  0
  -24.0008   -7.4638   22.7470 H   0  0  0  0  0  0
  -21.0848   -8.8775   19.8951 H   0  0  0  0  0  0
  -22.3702  -10.9672   19.6162 H   0  0  0  0  0  0
  -21.2012   -7.6148   23.9716 H   0  0  0  0  0  0
  -21.1482   -6.0521   25.9077 H   0  0  0  0  0  0
  -22.0598   -2.7610   23.2842 H   0  0  0  0  0  0
  -22.4058  -11.9863   22.4834 H   0  0  0  0  0  0
  -21.1047  -13.1211   22.2638 H   0  0  0  0  0  0
  -24.6418  -15.8467   20.5338 H   0  0  0  0  0  0
  -26.2560  -15.6387   20.0807 H   0  0  0  0  0  0
  -26.7293  -32.5231   23.0933 H   0  0  0  0  0  0
  -25.0059  -33.9547   25.0256 H   0  0  0  0  0  0
  -22.7638  -31.2754   21.3619 H   0  0  0  0  0  0
  -23.3759  -35.9565   23.3297 H   0  0  0  0  0  0
  -24.3571  -36.8884   22.2061 H   0  0  0  0  0  0
  -23.7251  -37.6428   23.6695 H   0  0  0  0  0  0
  -26.1778  -31.4337   20.6133 H   0  0  0  0  0  0
  -26.8822  -30.7390   22.0357 H   0  0  0  0  0  0
  -28.1208  -28.7222   21.2824 H   0  0  0  0  0  0
  -25.9391  -25.7852   19.0053 H   0  0  0  0  0  0
  -24.0082  -27.2723   18.9542 H   0  0  0  0  0  0
  -23.8283  -30.5376   19.3866 H   0  0  0  0  0  0
  -22.8035  -29.2097   19.8366 H   0  0  0  0  0  0
  -25.1324  -36.1820   25.0801 H   0  0  0  0  0  0
  -21.0014  -28.3330   24.1342 H   0  0  0  0  0  0
  -20.5670  -26.2346   23.3635 H   0  0  0  0  0  0
  -21.6655  -26.7414   22.1215 H   0  0  0  0  0  0
  -19.6925  -25.6279   21.1264 H   0  0  0  0  0  0
  -19.6706  -27.3169   20.6729 H   0  0  0  0  0  0
  -17.4216  -26.6675   21.4025 H   0  0  0  0  0  0
  -18.0345  -26.0088   22.9028 H   0  0  0  0  0  0
  -19.7958  -30.7303   24.2218 H   0  0  0  0  0  0
  -17.5032  -31.6270   24.5166 H   0  0  0  0  0  0
  -15.5368  -30.2978   23.7680 H   0  0  0  0  0  0
  -15.8694  -28.0817   22.7085 H   0  0  0  0  0  0
  -24.5885  -30.7102   25.7690 H   0  0  0  0  0  0
  -24.8878  -32.2948   26.4722 H   0  0  0  0  0  0
  -25.7960  -30.8979   27.0204 H   0  0  0  0  0  0
  -26.3052  -29.6633   24.1329 H   0  0  0  0  0  0
  -27.4000  -29.7266   25.4932 H   0  0  0  0  0  0
  -27.8970  -30.4157   23.9680 H   0  0  0  0  0  0
  -27.2641  -33.3652   26.1991 H   0  0  0  0  0  0
  -28.3902  -32.6844   25.0340 H   0  0  0  0  0  0
  -28.0681  -31.8497   26.5458 H   0  0  0  0  0  0
  -28.2584  -38.0078   24.7508 H   0  0  0  0  0  0
  -28.1077  -36.2606   24.6301 H   0  0  0  0  0  0
  -27.2287  -37.1434   25.8867 H   0  0  0  0  0  0
  -20.9512  -29.8729   21.6726 H   0  0  0  0  0  0
  -26.0147  -38.2792   24.1401 H   0  0  0  0  0  0
  -28.8495  -21.0970   18.1631 H   0  0  0  0  0  0
  -30.1521  -15.3898   16.1389 H   0  0  0  0  0  0
  -30.8690  -17.0829   16.2878 H   0  0  0  0  0  0
  -28.8810  -15.6871   18.1290 H   0  0  0  0  0  0
  -28.4430  -20.0356   16.1710 H   0  0  0  0  0  0
  -28.3251  -18.2903   16.0843 H   0  0  0  0  0  0
  -29.8980  -19.0905   15.8997 H   0  0  0  0  0  0
  -29.6176  -21.7657   21.5525 H   0  0  0  0  0  0
  -30.2450  -22.1803   20.0121 H   0  0  0  0  0  0
  -27.8326  -24.5950   18.7860 H   0  0  0  0  0  0
  -29.4708  -24.6083   19.3038 H   0  0  0  0  0  0
  -28.8928  -16.0543   21.1973 H   0  0  0  0  0  0
  1 25  1  0  0  0
  1 30  2  0  0  0
  1 83  1  0  0  0
  2  3  1  0  0  0
  2 25  1  0  0  0
  2 86  1  0  0  0
  2 87  1  0  0  0
  3  4  1  0  0  0
  3 88  1  0  0  0
  3 89  1  0  0  0
  4  5  1  0  0  0
  4 90  1  0  0  0
  4 91  1  0  0  0
  5  6  1  0  0  0
  5 26  1  0  0  0
  5 92  1  0  0  0
  6 25  1  0  0  0
  6 93  1  0  0  0
  6 94  1  0  0  0
  7  8  2  0  0  0
  7 26  1  0  0  0
  7 29  1  0  0  0
  8  9  1  0  0  0
  8 22  1  0  0  0
  9 10  1  0  0  0
  9 27  2  0  0  0
 10 11  2  0  0  0
 10 15  1  0  0  0
 11 12  1  0  0  0
 11 95  1  0  0  0
 12 13  2  0  0  0
 12 96  1  0  0  0
 13 14  1  0  0  0
 13 31  1  0  0  0
 14 15  2  0  0  0
 14 97  1  0  0  0
 15 98  1  0  0  0
 16 17  2  0  0  0
 16 21  1  0  0  0
 16 31  1  0  0  0
 17 18  1  0  0  0
 17 99  1  0  0  0
 18 19  2  0  0  0
 18100  1  0  0  0
 19 20  1  0  0  0
 19 24  1  0  0  0
 20 21  2  0  0  0
 20101  1  0  0  0
 21 23  1  0  0  0
 22 28  1  0  0  0
 22 32  2  0  0  0
 26 27  1  0  0  0
 28102  1  0  0  0
 28103  1  0  0  0
 29104  1  0  0  0
 29105  1  0  0  0
 33 34  1  0  0  0
 33 66  1  0  0  0
 33 70  2  0  0  0
 34 36  1  0  0  0
 34 59  1  0  0  0
 34106  1  0  0  0
 35 44  2  0  0  0
 35 45  1  0  0  0
 35 68  1  0  0  0
 36 56  1  0  0  0
 36107  1  0  0  0
 37 39  1  0  0  0
 37 47  1  0  0  0
 37 66  1  0  0  0
 37108  1  0  0  0
 38 43  2  0  0  0
 38 46  1  0  0  0
 38 47  1  0  0  0
 39 64  1  0  0  0
 39 67  2  0  0  0
 40 52  1  0  0  0
 40 53  2  0  0  0
 40 58  1  0  0  0
 41109  1  0  0  0
 41110  1  0  0  0
 41111  1  0  0  0
 41 48  1  0  0  0
 42 43  1  0  0  0
 42 66  1  0  0  0
 42112  1  0  0  0
 42113  1  0  0  0
 43 44  1  0  0  0
 44114  1  0  0  0
 45 46  2  0  0  0
 45115  1  0  0  0
 46116  1  0  0  0
 47117  1  0  0  0
 47118  1  0  0  0
 48 56  1  0  0  0
 48 65  1  0  0  0
 48119  1  0  0  0
 49 50  1  0  0  0
 49 53  1  0  0  0
 49 64  1  0  0  0
 49120  1  0  0  0
 50 51  1  0  0  0
 50121  1  0  0  0
 50122  1  0  0  0
 51 52  1  0  0  0
 51123  1  0  0  0
 51124  1  0  0  0
 52125  1  0  0  0
 52126  1  0  0  0
 53 54  1  0  0  0
 54 55  2  0  0  0
 54127  1  0  0  0
 55 57  1  0  0  0
 55128  1  0  0  0
 56 69  2  0  0  0
 57 58  2  0  0  0
 57129  1  0  0  0
 58130  1  0  0  0
 59 60  1  0  0  0
 59 61  1  0  0  0
 59 62  1  0  0  0
 60131  1  0  0  0
 60132  1  0  0  0
 60133  1  0  0  0
 61134  1  0  0  0
 61135  1  0  0  0
 61136  1  0  0  0
 62137  1  0  0  0
 62138  1  0  0  0
 62139  1  0  0  0
 63 65  1  0  0  0
 63140  1  0  0  0
 63141  1  0  0  0
 63142  1  0  0  0
 64143  1  0  0  0
 65144  1  0  0  0
 68 81  1  0  0  0
 71 73  2  0  0  0
 71 82  1  0  0  0
 71145  1  0  0  0
 72 73  1  0  0  0
 72 74  2  0  0  0
 72 77  1  0  0  0
 73 79  1  0  0  0
 74 75  1  0  0  0
 74 83  1  0  0  0
 75 82  1  0  0  0
 75 84  2  0  0  0
 76 77  2  0  0  0
 76146  1  0  0  0
 76147  1  0  0  0
 77148  1  0  0  0
 78 80  1  0  0  0
 78 81  1  0  0  0
 78 85  2  0  0  0
 79149  1  0  0  0
 79150  1  0  0  0
 79151  1  0  0  0
 80 82  1  0  0  0
 80152  1  0  0  0
 80153  1  0  0  0
 81154  1  0  0  0
 81155  1  0  0  0
 83156  1  0  0  0
M  ISO  4   1 100  68 101  81 101  83 100
M  END
> <chiral flag>
0

> <version>
0

> <s_m_source_file>
/data/baiqing/PycharmProjects/Reinvent-master-3.2/result/LINK_invent/BTK/process_docking_weight1_custom_product_contain_oxygen_bond_distance_aromatic_linkinvent_7_9_3/rearranged_h_0109.sdf

> <i_m_source_file_index>
11

> <r_mmod_Potential_Energy-OPLS-2005>
768.624267578125

> <r_mmod_Stretch_Energy-OPLS-2005>
366.746215820312

> <r_mmod_Bend_Energy-OPLS-2005>
352.197723388672

> <r_mmod_Torsional_Energy-OPLS-2005>
294.759674072266

> <r_mmod_Improper_Torsional_Energy-OPLS-2005>
5.45090866088867

> <r_mmod_Van_der_Waal_Energy-OPLS-2005>
136.368041992188

> <r_mmod_Electrostatic_Energy-OPLS-2005>
-411.310882568359

> <r_mmod_Solvation_Energy-OPLS-2005>
-248.393447875977

> <b_mmod_Minimization_Converged-OPLS-2005>
0

> <r_mmod_RMS_Derivative-OPLS-2005>
0.511128604412079

$$$$
11
                    3D
 Structure written by MMmdl.
156164  0  0  1  0            999 V2000
  -30.7133  -14.5148   20.6518 C   0  0  0  0  0  0
  -30.4380  -12.3752   19.4190 C   0  0  0  0  0  0
  -29.4938  -12.5486   18.2114 C   0  0  0  0  0  0
  -28.0179  -12.3916   18.6297 C   0  0  0  0  0  0
  -27.6679  -13.2158   19.8989 C   0  0  2  0  0  0
  -28.7205  -12.9571   21.0045 C   0  0  0  0  0  0
  -25.2490  -13.8146   20.5552 C   0  0  0  0  0  0
  -24.1772  -13.0396   20.9087 C   0  0  0  0  0  0
  -24.6402  -11.6900   20.8736 C   0  0  0  0  0  0
  -23.9076  -10.4270   21.0407 C   0  0  0  0  0  0
  -24.3609   -9.4192   21.9196 C   0  0  0  0  0  0
  -23.6272   -8.2232   22.0760 C   0  0  0  0  0  0
  -22.4263   -8.0271   21.3544 C   0  0  0  0  0  0
  -21.9909   -9.0241   20.4646 C   0  0  0  0  0  0
  -22.7244  -10.2115   20.3051 C   0  0  0  0  0  0
  -21.6834   -6.0737   22.5284 C   0  0  0  0  0  0
  -21.4002   -6.5640   23.8216 C   0  0  0  0  0  0
  -21.3655   -5.6790   24.9177 C   0  0  0  0  0  0
  -21.6044   -4.3053   24.7226 C   0  0  0  0  0  0
  -21.8809   -3.8146   23.4343 C   0  0  0  0  0  0
  -21.9185   -4.6964   22.3405 C   0  0  0  0  0  0
  -22.7795  -13.5189   21.1766 C   0  0  0  0  0  0
  -22.1658   -4.2153   21.0978 F   0  0  0  0  0  0
  -21.5628   -3.4541   25.7741 F   0  0  0  0  0  0
  -30.0371  -13.3352   20.4680 N   0  0  0  0  0  0
  -26.3059  -12.9386   20.3543 N   0  0  0  0  0  0
  -25.9368  -11.6526   20.5909 N   0  0  0  0  0  0
  -22.0447  -12.8212   22.0364 N   0  0  0  0  0  0
  -25.4005  -15.1835   20.3736 N   0  0  0  0  0  0
  -31.7356  -14.7858   20.0127 O   0  0  0  0  0  0
  -21.6622   -6.8875   21.4247 O   0  0  0  0  0  0
  -22.3477  -14.5508   20.6653 O   0  0  0  0  0  0
  -24.6172  -31.8632   23.2048 C   0  0  0  0  0  0
  -25.9058  -32.4787   23.8355 C   0  0  1  0  0  0
  -27.2339  -27.3800   20.1060 C   0  0  0  0  0  0
  -25.5920  -33.8585   24.2300 N   0  0  0  0  0  0
  -23.4065  -30.4839   21.5463 C   0  0  2  0  0  0
  -24.8516  -28.9375   20.1130 C   0  0  0  0  0  0
  -22.7421  -29.4639   22.4992 C   0  0  0  0  0  0
  -18.0286  -28.1360   22.8477 C   0  0  0  0  0  0
  -24.1493  -36.7287   23.2637 C   0  0  0  0  0  0
  -25.9387  -30.8108   21.3638 C   0  0  0  0  0  0
  -26.0120  -29.4406   20.7119 C   0  0  0  0  0  0
  -27.2006  -28.6683   20.7027 C   0  0  0  0  0  0
  -26.0486  -26.8971   19.5066 C   0  0  0  0  0  0
  -24.8667  -27.6677   19.5080 C   0  0  0  0  0  0
  -23.6146  -29.8098   20.1631 C   0  0  0  0  0  0
  -25.4119  -36.3084   24.0337 C   0  0  1  0  0  0
  -20.5873  -28.3654   23.1315 C   0  0  2  0  0  0
  -20.6781  -26.9393   22.5408 C   0  0  0  0  0  0
  -19.5754  -26.6380   21.5200 C   0  0  0  0  0  0
  -18.1930  -26.7912   22.1609 C   0  0  0  0  0  0
  -19.1531  -28.8822   23.2886 C   0  0  0  0  0  0
  -18.9464  -30.1440   23.8885 C   0  0  0  0  0  0
  -17.6468  -30.6570   24.0555 C   0  0  0  0  0  0
  -25.9037  -34.9453   23.5112 C   0  0  0  0  0  0
  -16.5357  -29.9068   23.6322 C   0  0  0  0  0  0
  -16.7275  -28.6490   23.0343 C   0  0  0  0  0  0
  -26.4482  -31.6583   25.0705 C   0  0  0  0  0  0
  -25.3731  -31.3667   26.1434 C   0  0  0  0  0  0
  -27.0344  -30.3034   24.6082 C   0  0  0  0  0  0
  -27.6039  -32.4315   25.7475 C   0  0  0  0  0  0
  -27.5584  -37.1794   24.8465 C   0  0  0  0  0  0
  -21.4149  -29.3016   22.3718 N   0  0  0  0  0  0
  -26.4297  -37.3776   23.9407 N   0  0  0  0  0  0
  -24.6730  -31.0694   22.0958 N   0  0  0  0  0  0
  -23.4176  -28.8175   23.3042 O   0  0  0  0  0  0
  -28.4165  -26.6510   20.1508 O   0  0  0  0  0  0
  -26.5601  -34.8912   22.4676 O   0  0  0  0  0  0
  -23.5365  -32.1421   23.7430 O   0  0  0  0  0  0
  -29.8315  -17.8898   20.9604 C   0  0  0  0  0  0
  -27.6299  -18.8170   21.2965 C   0  0  0  0  0  0
  -29.3859  -16.6509   21.5297 C   0  0  0  0  0  0
  -28.9606  -19.0273   20.8708 C   0  0  0  0  0  0
  -28.0420  -16.6484   21.9738 C   0  0  0  0  0  0
  -30.2963  -15.4609   21.8001 C   0  0  0  0  0  0
  -28.2795  -24.0824   20.3955 C   0  0  0  0  0  0
  -29.1020  -22.7863   20.0322 C   0  0  0  0  0  0
  -28.5768  -25.3511   19.5211 C   0  0  0  0  0  0
  -28.5299  -21.4321   20.5691 C   0  0  0  0  0  0
  -27.1837  -17.6637   21.8227 N   0  0  0  0  0  0
  -30.7395  -15.2500   22.9725 N   0  0  0  0  0  0
  -27.4629  -15.5914   22.6555 N   0  0  0  0  0  0
  -29.3999  -20.2743   20.4018 O   0  0  0  0  0  0
  -31.4755  -12.5089   19.1049 H   0  0  0  0  0  0
  -30.3877  -11.3561   19.8057 H   0  0  0  0  0  0
  -29.7438  -11.8285   17.4313 H   0  0  0  0  0  0
  -29.6484  -13.5365   17.7755 H   0  0  0  0  0  0
  -27.8334  -11.3337   18.8155 H   0  0  0  0  0  0
  -27.3606  -12.6688   17.8057 H   0  0  0  0  0  0
  -27.7179  -14.2721   19.6295 H   0  0  0  0  0  0
  -28.7296  -11.8976   21.2653 H   0  0  0  0  0  0
  -28.4835  -13.4567   21.9356 H   0  0  0  0  0  0
  -25.2728   -9.5664   22.4799 H   0  0  0  0  0  0
  -23.9969   -7.4613   22.7481 H   0  0  0  0  0  0
  -21.0851   -8.8756   19.8941 H   0  0  0  0  0  0
  -22.3701  -10.9655   19.6158 H   0  0  0  0  0  0
  -21.1995   -7.6142   23.9724 H   0  0  0  0  0  0
  -21.1486   -6.0521   25.9083 H   0  0  0  0  0  0
  -22.0592   -2.7617   23.2840 H   0  0  0  0  0  0
  -22.4020  -11.9881   22.4797 H   0  0  0  0  0  0
  -21.1062  -13.1257   22.2525 H   0  0  0  0  0  0
  -24.6294  -15.7829   20.6460 H   0  0  0  0  0  0
  -26.2916  -15.5889   20.6428 H   0  0  0  0  0  0
  -26.7118  -32.5473   23.1099 H   0  0  0  0  0  0
  -25.0090  -33.9728   25.0464 H   0  0  0  0  0  0
  -22.6953  -31.3014   21.4030 H   0  0  0  0  0  0
  -23.3749  -35.9616   23.3303 H   0  0  0  0  0  0
  -24.3576  -36.8912   22.2042 H   0  0  0  0  0  0
  -23.7254  -37.6498   23.6658 H   0  0  0  0  0  0
  -26.0567  -31.5732   20.5921 H   0  0  0  0  0  0
  -26.8246  -30.8657   21.9845 H   0  0  0  0  0  0
  -28.0962  -29.0493   21.1709 H   0  0  0  0  0  0
  -26.0087  -25.9174   19.0554 H   0  0  0  0  0  0
  -23.9686  -27.2728   19.0507 H   0  0  0  0  0  0
  -23.7165  -30.5794   19.3963 H   0  0  0  0  0  0
  -22.7383  -29.2268   19.8759 H   0  0  0  0  0  0
  -25.1295  -36.1932   25.0827 H   0  0  0  0  0  0
  -20.9973  -28.3235   24.1436 H   0  0  0  0  0  0
  -20.5701  -26.2256   23.3590 H   0  0  0  0  0  0
  -21.6650  -26.7441   22.1193 H   0  0  0  0  0  0
  -19.6916  -25.6297   21.1220 H   0  0  0  0  0  0
  -19.6709  -27.3192   20.6724 H   0  0  0  0  0  0
  -17.4217  -26.6677   21.3999 H   0  0  0  0  0  0
  -18.0313  -26.0041   22.8977 H   0  0  0  0  0  0
  -19.7948  -30.7248   24.2255 H   0  0  0  0  0  0
  -17.5030  -31.6255   24.5153 H   0  0  0  0  0  0
  -15.5361  -30.2965   23.7666 H   0  0  0  0  0  0
  -15.8679  -28.0815   22.7057 H   0  0  0  0  0  0
  -24.5966  -30.6943   25.7778 H   0  0  0  0  0  0
  -24.8827  -32.2789   26.4822 H   0  0  0  0  0  0
  -25.8083  -30.8907   27.0224 H   0  0  0  0  0  0
  -26.2901  -29.6746   24.1166 H   0  0  0  0  0  0
  -27.4184  -29.7305   25.4536 H   0  0  0  0  0  0
  -27.8701  -30.4378   23.9203 H   0  0  0  0  0  0
  -27.2672  -33.3639   26.2002 H   0  0  0  0  0  0
  -28.3875  -32.6825   25.0320 H   0  0  0  0  0  0
  -28.0659  -31.8454   26.5419 H   0  0  0  0  0  0
  -28.2590  -38.0098   24.7539 H   0  0  0  0  0  0
  -28.1109  -36.2636   24.6292 H   0  0  0  0  0  0
  -27.2294  -37.1449   25.8863 H   0  0  0  0  0  0
  -20.9321  -29.8729   21.6930 H   0  0  0  0  0  0
  -26.0184  -38.2856   24.1399 H   0  0  0  0  0  0
  -30.8605  -17.9911   20.6483 H   0  0  0  0  0  0
  -26.8782  -19.5880   21.2464 H   0  0  0  0  0  0
  -28.4681  -24.3160   21.4435 H   0  0  0  0  0  0
  -27.2134  -23.8640   20.3324 H   0  0  0  0  0  0
  -30.1195  -22.9112   20.4030 H   0  0  0  0  0  0
  -29.1906  -22.7056   18.9481 H   0  0  0  0  0  0
  -28.0524  -25.2954   18.5660 H   0  0  0  0  0  0
  -29.6320  -25.3163   19.2473 H   0  0  0  0  0  0
  -27.5878  -21.2592   20.0461 H   0  0  0  0  0  0
  -28.2908  -21.5426   21.6293 H   0  0  0  0  0  0
  -30.4116  -15.9411   23.6373 H   0  0  0  0  0  0
  -28.0707  -14.9604   23.1607 H   0  0  0  0  0  0
  -26.5798  -15.7606   23.1177 H   0  0  0  0  0  0
  1 25  1  0  0  0
  1 30  2  0  0  0
  1 76  1  0  0  0
  2  3  1  0  0  0
  2 25  1  0  0  0
  2 85  1  0  0  0
  2 86  1  0  0  0
  3  4  1  0  0  0
  3 87  1  0  0  0
  3 88  1  0  0  0
  4  5  1  0  0  0
  4 89  1  0  0  0
  4 90  1  0  0  0
  5  6  1  0  0  0
  5 26  1  0  0  0
  5 91  1  0  0  0
  6 25  1  0  0  0
  6 92  1  0  0  0
  6 93  1  0  0  0
  7  8  2  0  0  0
  7 26  1  0  0  0
  7 29  1  0  0  0
  8  9  1  0  0  0
  8 22  1  0  0  0
  9 10  1  0  0  0
  9 27  2  0  0  0
 10 11  2  0  0  0
 10 15  1  0  0  0
 11 12  1  0  0  0
 11 94  1  0  0  0
 12 13  2  0  0  0
 12 95  1  0  0  0
 13 14  1  0  0  0
 13 31  1  0  0  0
 14 15  2  0  0  0
 14 96  1  0  0  0
 15 97  1  0  0  0
 16 17  2  0  0  0
 16 21  1  0  0  0
 16 31  1  0  0  0
 17 18  1  0  0  0
 17 98  1  0  0  0
 18 19  2  0  0  0
 18 99  1  0  0  0
 19 20  1  0  0  0
 19 24  1  0  0  0
 20 21  2  0  0  0
 20100  1  0  0  0
 21 23  1  0  0  0
 22 28  1  0  0  0
 22 32  2  0  0  0
 26 27  1  0  0  0
 28101  1  0  0  0
 28102  1  0  0  0
 29103  1  0  0  0
 29104  1  0  0  0
 33 34  1  0  0  0
 33 66  1  0  0  0
 33 70  2  0  0  0
 34 36  1  0  0  0
 34 59  1  0  0  0
 34105  1  0  0  0
 35 44  2  0  0  0
 35 45  1  0  0  0
 35 68  1  0  0  0
 36 56  1  0  0  0
 36106  1  0  0  0
 37 39  1  0  0  0
 37 47  1  0  0  0
 37 66  1  0  0  0
 37107  1  0  0  0
 38 43  2  0  0  0
 38 46  1  0  0  0
 38 47  1  0  0  0
 39 64  1  0  0  0
 39 67  2  0  0  0
 40 52  1  0  0  0
 40 53  2  0  0  0
 40 58  1  0  0  0
 41108  1  0  0  0
 41109  1  0  0  0
 41110  1  0  0  0
 41 48  1  0  0  0
 42 43  1  0  0  0
 42 66  1  0  0  0
 42111  1  0  0  0
 42112  1  0  0  0
 43 44  1  0  0  0
 44113  1  0  0  0
 45 46  2  0  0  0
 45114  1  0  0  0
 46115  1  0  0  0
 47116  1  0  0  0
 47117  1  0  0  0
 48 56  1  0  0  0
 48 65  1  0  0  0
 48118  1  0  0  0
 49 50  1  0  0  0
 49 53  1  0  0  0
 49 64  1  0  0  0
 49119  1  0  0  0
 50 51  1  0  0  0
 50120  1  0  0  0
 50121  1  0  0  0
 51 52  1  0  0  0
 51122  1  0  0  0
 51123  1  0  0  0
 52124  1  0  0  0
 52125  1  0  0  0
 53 54  1  0  0  0
 54 55  2  0  0  0
 54126  1  0  0  0
 55 57  1  0  0  0
 55127  1  0  0  0
 56 69  2  0  0  0
 57 58  2  0  0  0
 57128  1  0  0  0
 58129  1  0  0  0
 59 60  1  0  0  0
 59 61  1  0  0  0
 59 62  1  0  0  0
 60130  1  0  0  0
 60131  1  0  0  0
 60132  1  0  0  0
 61133  1  0  0  0
 61134  1  0  0  0
 61135  1  0  0  0
 62136  1  0  0  0
 62137  1  0  0  0
 62138  1  0  0  0
 63 65  1  0  0  0
 63139  1  0  0  0
 63140  1  0  0  0
 63141  1  0  0  0
 64142  1  0  0  0
 65143  1  0  0  0
 68 79  1  0  0  0
 71 73  2  0  0  0
 71 74  1  0  0  0
 71144  1  0  0  0
 72 74  2  0  0  0
 72 81  1  0  0  0
 72145  1  0  0  0
 73 75  1  0  0  0
 73 76  1  0  0  0
 74 84  1  0  0  0
 75 81  2  0  0  0
 75 83  1  0  0  0
 76 82  2  0  0  0
 77 78  1  0  0  0
 77 79  1  0  0  0
 77146  1  0  0  0
 77147  1  0  0  0
 78 80  1  0  0  0
 78148  1  0  0  0
 78149  1  0  0  0
 79150  1  0  0  0
 79151  1  0  0  0
 80 84  1  0  0  0
 80152  1  0  0  0
 80153  1  0  0  0
 82154  1  0  0  0
 83155  1  0  0  0
 83156  1  0  0  0
M  ISO  4   1 100  68 101  76 100  79 101
M  END
> <chiral flag>
0

> <version>
0

> <s_m_source_file>
/data/baiqing/PycharmProjects/Reinvent-master-3.2/result/LINK_invent/BTK/process_docking_weight1_custom_product_contain_oxygen_bond_distance_aromatic_linkinvent_7_9_3/rearranged_h_0109.sdf

> <i_m_source_file_index>
12

> <r_mmod_Potential_Energy-OPLS-2005>
-30.8413677215576

> <r_mmod_Stretch_Energy-OPLS-2005>
62.4736061096191

> <r_mmod_Bend_Energy-OPLS-2005>
138.37841796875

> <r_mmod_Torsional_Energy-OPLS-2005>
242.561874389648

> <r_mmod_Improper_Torsional_Energy-OPLS-2005>
10.7924480438232

> <r_mmod_Van_der_Waal_Energy-OPLS-2005>
148.233764648438

> <r_mmod_Electrostatic_Energy-OPLS-2005>
-442.704833984375

> <r_mmod_Solvation_Energy-OPLS-2005>
-211.601135253906

> <b_mmod_Minimization_Converged-OPLS-2005>
0

> <r_mmod_RMS_Derivative-OPLS-2005>
2.86197757720947

$$$$
12
                    3D
 Structure written by MMmdl.
158166  0  0  1  0            999 V2000
  -30.6506  -14.5621   20.5543 C   0  0  0  0  0  0
  -30.4419  -12.3628   19.4285 C   0  0  0  0  0  0
  -29.5010  -12.5214   18.2113 C   0  0  0  0  0  0
  -28.0194  -12.3638   18.6160 C   0  0  0  0  0  0
  -27.6605  -13.1905   19.8780 C   0  0  2  0  0  0
  -28.7078  -12.9324   20.9843 C   0  0  0  0  0  0
  -25.2615  -13.8115   20.5716 C   0  0  0  0  0  0
  -24.1827  -13.0425   20.9144 C   0  0  0  0  0  0
  -24.6368  -11.6879   20.8721 C   0  0  0  0  0  0
  -23.9035  -10.4284   21.0406 C   0  0  0  0  0  0
  -24.3592   -9.4207   21.9192 C   0  0  0  0  0  0
  -23.6276   -8.2235   22.0761 C   0  0  0  0  0  0
  -22.4262   -8.0276   21.3540 C   0  0  0  0  0  0
  -21.9896   -9.0244   20.4634 C   0  0  0  0  0  0
  -22.7221  -10.2122   20.3046 C   0  0  0  0  0  0
  -21.6846   -6.0737   22.5287 C   0  0  0  0  0  0
  -21.4013   -6.5642   23.8221 C   0  0  0  0  0  0
  -21.3649   -5.6790   24.9178 C   0  0  0  0  0  0
  -21.6041   -4.3056   24.7223 C   0  0  0  0  0  0
  -21.8821   -3.8152   23.4347 C   0  0  0  0  0  0
  -21.9194   -4.6968   22.3407 C   0  0  0  0  0  0
  -22.7855  -13.5237   21.1836 C   0  0  0  0  0  0
  -22.1665   -4.2159   21.0981 F   0  0  0  0  0  0
  -21.5618   -3.4539   25.7732 F   0  0  0  0  0  0
  -30.0194  -13.3422   20.4497 N   0  0  0  0  0  0
  -26.3020  -12.9243   20.3397 N   0  0  0  0  0  0
  -25.9285  -11.6418   20.5746 N   0  0  0  0  0  0
  -22.0486  -12.8214   22.0365 N   0  0  0  0  0  0
  -25.4467  -15.1825   20.4252 N   0  0  0  0  0  0
  -31.7960  -14.7239   20.1160 O   0  0  0  0  0  0
  -21.6628   -6.8879   21.4246 O   0  0  0  0  0  0
  -22.3548  -14.5556   20.6707 O   0  0  0  0  0  0
  -24.6188  -31.8652   23.2052 C   0  0  0  0  0  0
  -25.9072  -32.4812   23.8349 C   0  0  1  0  0  0
  -27.2378  -27.3987   20.1062 C   0  0  0  0  0  0
  -25.5889  -33.8604   24.2292 N   0  0  0  0  0  0
  -23.4082  -30.4830   21.5505 C   0  0  2  0  0  0
  -24.8554  -28.9394   20.1195 C   0  0  0  0  0  0
  -22.7434  -29.4612   22.5007 C   0  0  0  0  0  0
  -18.0272  -28.1348   22.8480 C   0  0  0  0  0  0
  -24.1488  -36.7294   23.2638 C   0  0  0  0  0  0
  -25.9376  -30.8211   21.3588 C   0  0  0  0  0  0
  -26.0181  -29.4465   20.7162 C   0  0  0  0  0  0
  -27.2137  -28.6841   20.7064 C   0  0  0  0  0  0
  -26.0594  -26.9124   19.5053 C   0  0  0  0  0  0
  -24.8723  -27.6718   19.5103 C   0  0  0  0  0  0
  -23.6178  -29.8095   20.1672 C   0  0  0  0  0  0
  -25.4108  -36.3095   24.0327 C   0  0  1  0  0  0
  -20.5859  -28.3637   23.1307 C   0  0  2  0  0  0
  -20.6768  -26.9373   22.5394 C   0  0  0  0  0  0
  -19.5746  -26.6379   21.5184 C   0  0  0  0  0  0
  -18.1919  -26.7900   22.1596 C   0  0  0  0  0  0
  -19.1518  -28.8807   23.2895 C   0  0  0  0  0  0
  -18.9453  -30.1413   23.8902 C   0  0  0  0  0  0
  -17.6459  -30.6557   24.0546 C   0  0  0  0  0  0
  -25.9031  -34.9465   23.5102 C   0  0  0  0  0  0
  -16.5346  -29.9058   23.6320 C   0  0  0  0  0  0
  -16.7264  -28.6475   23.0340 C   0  0  0  0  0  0
  -26.4488  -31.6580   25.0682 C   0  0  0  0  0  0
  -25.3743  -31.3654   26.1420 C   0  0  0  0  0  0
  -27.0320  -30.3034   24.6013 C   0  0  0  0  0  0
  -27.6057  -32.4288   25.7465 C   0  0  0  0  0  0
  -27.5580  -37.1811   24.8467 C   0  0  0  0  0  0
  -21.4154  -29.3008   22.3740 N   0  0  0  0  0  0
  -26.4293  -37.3783   23.9414 N   0  0  0  0  0  0
  -24.6743  -31.0709   22.0978 N   0  0  0  0  0  0
  -23.4193  -28.8168   23.3074 O   0  0  0  0  0  0
  -28.3883  -26.6317   20.0433 O   0  0  0  0  0  0
  -26.5615  -34.8923   22.4675 O   0  0  0  0  0  0
  -23.5370  -32.1407   23.7428 O   0  0  0  0  0  0
  -31.6047  -17.4351   21.8277 C   0  0  0  0  0  0
  -31.4783  -19.8247   21.3330 C   0  0  0  0  0  0
  -30.4821  -17.1753   21.0111 C   0  0  0  0  0  0
  -29.8935  -18.2813   20.3027 C   0  0  0  0  0  0
  -30.3707  -19.6141   20.4890 C   0  0  0  0  0  0
  -32.1027  -18.7423   21.9804 C   0  0  0  0  0  0
  -29.8468  -15.8067   21.0788 C   0  0  0  0  0  0
  -28.7290  -18.0589   19.3464 C   0  0  0  0  0  0
  -28.1451  -24.1222   20.6434 C   0  0  0  0  0  0
  -29.2855  -23.1386   20.2039 C   0  0  0  0  0  0
  -28.5296  -25.5922   21.0375 C   0  0  0  0  0  0
  -29.0343  -21.6353   20.5734 C   0  0  0  0  0  0
  -28.6720  -15.7841   21.5517 N   0  0  0  0  0  0
  -29.8230  -20.6966   19.8126 O   0  0  0  0  0  0
  -33.1733  -18.9629   22.7792 F   0  0  0  0  0  0
  -31.4800  -12.4980   19.1194 H   0  0  0  0  0  0
  -30.3904  -11.3476   19.8259 H   0  0  0  0  0  0
  -29.7563  -11.7929   17.4417 H   0  0  0  0  0  0
  -29.6501  -13.5050   17.7623 H   0  0  0  0  0  0
  -27.8362  -11.3061   18.8052 H   0  0  0  0  0  0
  -27.3670  -12.6390   17.7869 H   0  0  0  0  0  0
  -27.7059  -14.2389   19.5868 H   0  0  0  0  0  0
  -28.7227  -11.8687   21.2271 H   0  0  0  0  0  0
  -28.4546  -13.4012   21.9326 H   0  0  0  0  0  0
  -25.2733   -9.5690   22.4766 H   0  0  0  0  0  0
  -23.9991   -7.4629   22.7480 H   0  0  0  0  0  0
  -21.0831   -8.8759   19.8924 H   0  0  0  0  0  0
  -22.3699  -10.9657   19.6138 H   0  0  0  0  0  0
  -21.2011   -7.6151   23.9728 H   0  0  0  0  0  0
  -21.1460   -6.0517   25.9080 H   0  0  0  0  0  0
  -22.0609   -2.7616   23.2841 H   0  0  0  0  0  0
  -22.4072  -11.9838   22.4699 H   0  0  0  0  0  0
  -21.1097  -13.1234   22.2566 H   0  0  0  0  0  0
  -24.7214  -15.8601   20.6307 H   0  0  0  0  0  0
  -26.3717  -15.5923   20.3489 H   0  0  0  0  0  0
  -26.7156  -32.5504   23.1113 H   0  0  0  0  0  0
  -25.0086  -33.9740   25.0476 H   0  0  0  0  0  0
  -22.6988  -31.2994   21.4093 H   0  0  0  0  0  0
  -23.3746  -35.9631   23.3294 H   0  0  0  0  0  0
  -24.3591  -36.8917   22.2054 H   0  0  0  0  0  0
  -23.7234  -37.6490   23.6659 H   0  0  0  0  0  0
  -26.0394  -31.5788   20.5802 H   0  0  0  0  0  0
  -26.8294  -30.8895   21.9704 H   0  0  0  0  0  0
  -28.1152  -29.0750   21.1583 H   0  0  0  0  0  0
  -26.0619  -25.9436   19.0266 H   0  0  0  0  0  0
  -23.9816  -27.2748   19.0426 H   0  0  0  0  0  0
  -23.7256  -30.5812   19.4048 H   0  0  0  0  0  0
  -22.7420  -29.2287   19.8750 H   0  0  0  0  0  0
  -25.1288  -36.1955   25.0815 H   0  0  0  0  0  0
  -20.9949  -28.3190   24.1433 H   0  0  0  0  0  0
  -20.5653  -26.2230   23.3569 H   0  0  0  0  0  0
  -21.6639  -26.7416   22.1183 H   0  0  0  0  0  0
  -19.6901  -25.6309   21.1166 H   0  0  0  0  0  0
  -19.6674  -27.3216   20.6737 H   0  0  0  0  0  0
  -17.4188  -26.6639   21.4000 H   0  0  0  0  0  0
  -18.0339  -26.0020   22.8974 H   0  0  0  0  0  0
  -19.7936  -30.7214   24.2276 H   0  0  0  0  0  0
  -17.5021  -31.6237   24.5148 H   0  0  0  0  0  0
  -15.5342  -30.2963   23.7639 H   0  0  0  0  0  0
  -15.8668  -28.0794   22.7062 H   0  0  0  0  0  0
  -24.5934  -30.6981   25.7738 H   0  0  0  0  0  0
  -24.8903  -32.2800   26.4866 H   0  0  0  0  0  0
  -25.8100  -30.8821   27.0175 H   0  0  0  0  0  0
  -26.2841  -29.6790   24.1109 H   0  0  0  0  0  0
  -27.4185  -29.7261   25.4419 H   0  0  0  0  0  0
  -27.8631  -30.4379   23.9080 H   0  0  0  0  0  0
  -27.2690  -33.3611   26.2006 H   0  0  0  0  0  0
  -28.3911  -32.6795   25.0322 H   0  0  0  0  0  0
  -28.0668  -31.8408   26.5413 H   0  0  0  0  0  0
  -28.2586  -38.0124   24.7536 H   0  0  0  0  0  0
  -28.1081  -36.2645   24.6274 H   0  0  0  0  0  0
  -27.2283  -37.1445   25.8867 H   0  0  0  0  0  0
  -20.9326  -29.8761   21.6975 H   0  0  0  0  0  0
  -26.0161  -38.2854   24.1416 H   0  0  0  0  0  0
  -32.0690  -16.6320   22.3828 H   0  0  0  0  0  0
  -31.8670  -20.8235   21.4701 H   0  0  0  0  0  0
  -28.8757  -17.1513   18.7592 H   0  0  0  0  0  0
  -28.6219  -18.8811   18.6383 H   0  0  0  0  0  0
  -27.7937  -17.9715   19.8989 H   0  0  0  0  0  0
  -27.6921  -23.6858   21.5342 H   0  0  0  0  0  0
  -27.3475  -24.1207   19.9008 H   0  0  0  0  0  0
  -30.2346  -23.4428   20.6480 H   0  0  0  0  0  0
  -29.4182  -23.2302   19.1258 H   0  0  0  0  0  0
  -29.5622  -25.6108   21.3859 H   0  0  0  0  0  0
  -27.9402  -25.8745   21.9126 H   0  0  0  0  0  0
  -27.9904  -21.3893   20.3767 H   0  0  0  0  0  0
  -29.1761  -21.4917   21.6457 H   0  0  0  0  0  0
  -28.3862  -16.7166   21.8217 H   0  0  0  0  0  0
  1 25  1  0  0  0
  1 30  2  0  0  0
  1 77  1  0  0  0
  2  3  1  0  0  0
  2 25  1  0  0  0
  2 86  1  0  0  0
  2 87  1  0  0  0
  3  4  1  0  0  0
  3 88  1  0  0  0
  3 89  1  0  0  0
  4  5  1  0  0  0
  4 90  1  0  0  0
  4 91  1  0  0  0
  5  6  1  0  0  0
  5 26  1  0  0  0
  5 92  1  0  0  0
  6 25  1  0  0  0
  6 93  1  0  0  0
  6 94  1  0  0  0
  7  8  2  0  0  0
  7 26  1  0  0  0
  7 29  1  0  0  0
  8  9  1  0  0  0
  8 22  1  0  0  0
  9 10  1  0  0  0
  9 27  2  0  0  0
 10 11  2  0  0  0
 10 15  1  0  0  0
 11 12  1  0  0  0
 11 95  1  0  0  0
 12 13  2  0  0  0
 12 96  1  0  0  0
 13 14  1  0  0  0
 13 31  1  0  0  0
 14 15  2  0  0  0
 14 97  1  0  0  0
 15 98  1  0  0  0
 16 17  2  0  0  0
 16 21  1  0  0  0
 16 31  1  0  0  0
 17 18  1  0  0  0
 17 99  1  0  0  0
 18 19  2  0  0  0
 18100  1  0  0  0
 19 20  1  0  0  0
 19 24  1  0  0  0
 20 21  2  0  0  0
 20101  1  0  0  0
 21 23  1  0  0  0
 22 28  1  0  0  0
 22 32  2  0  0  0
 26 27  1  0  0  0
 28102  1  0  0  0
 28103  1  0  0  0
 29104  1  0  0  0
 29105  1  0  0  0
 33 34  1  0  0  0
 33 66  1  0  0  0
 33 70  2  0  0  0
 34 36  1  0  0  0
 34 59  1  0  0  0
 34106  1  0  0  0
 35 44  2  0  0  0
 35 45  1  0  0  0
 35 68  1  0  0  0
 36 56  1  0  0  0
 36107  1  0  0  0
 37 39  1  0  0  0
 37 47  1  0  0  0
 37 66  1  0  0  0
 37108  1  0  0  0
 38 43  2  0  0  0
 38 46  1  0  0  0
 38 47  1  0  0  0
 39 64  1  0  0  0
 39 67  2  0  0  0
 40 52  1  0  0  0
 40 53  2  0  0  0
 40 58  1  0  0  0
 41109  1  0  0  0
 41110  1  0  0  0
 41111  1  0  0  0
 41 48  1  0  0  0
 42 43  1  0  0  0
 42 66  1  0  0  0
 42112  1  0  0  0
 42113  1  0  0  0
 43 44  1  0  0  0
 44114  1  0  0  0
 45 46  2  0  0  0
 45115  1  0  0  0
 46116  1  0  0  0
 47117  1  0  0  0
 47118  1  0  0  0
 48 56  1  0  0  0
 48 65  1  0  0  0
 48119  1  0  0  0
 49 50  1  0  0  0
 49 53  1  0  0  0
 49 64  1  0  0  0
 49120  1  0  0  0
 50 51  1  0  0  0
 50121  1  0  0  0
 50122  1  0  0  0
 51 52  1  0  0  0
 51123  1  0  0  0
 51124  1  0  0  0
 52125  1  0  0  0
 52126  1  0  0  0
 53 54  1  0  0  0
 54 55  2  0  0  0
 54127  1  0  0  0
 55 57  1  0  0  0
 55128  1  0  0  0
 56 69  2  0  0  0
 57 58  2  0  0  0
 57129  1  0  0  0
 58130  1  0  0  0
 59 60  1  0  0  0
 59 61  1  0  0  0
 59 62  1  0  0  0
 60131  1  0  0  0
 60132  1  0  0  0
 60133  1  0  0  0
 61134  1  0  0  0
 61135  1  0  0  0
 61136  1  0  0  0
 62137  1  0  0  0
 62138  1  0  0  0
 62139  1  0  0  0
 63 65  1  0  0  0
 63140  1  0  0  0
 63141  1  0  0  0
 63142  1  0  0  0
 64143  1  0  0  0
 65144  1  0  0  0
 68 81  1  0  0  0
 71 73  2  0  0  0
 71 76  1  0  0  0
 71145  1  0  0  0
 72 75  1  0  0  0
 72 76  2  0  0  0
 72146  1  0  0  0
 73 74  1  0  0  0
 73 77  1  0  0  0
 74 75  2  0  0  0
 74 78  1  0  0  0
 75 84  1  0  0  0
 76 85  1  0  0  0
 77 83  2  0  0  0
 78147  1  0  0  0
 78148  1  0  0  0
 78149  1  0  0  0
 79 80  1  0  0  0
 79 81  1  0  0  0
 79150  1  0  0  0
 79151  1  0  0  0
 80 82  1  0  0  0
 80152  1  0  0  0
 80153  1  0  0  0
 81154  1  0  0  0
 81155  1  0  0  0
 82 84  1  0  0  0
 82156  1  0  0  0
 82157  1  0  0  0
 83158  1  0  0  0
M  ISO  4   1 100  68 101  77 100  81 101
M  END
> <chiral flag>
0

> <version>
0

> <s_m_source_file>
/data/baiqing/PycharmProjects/Reinvent-master-3.2/result/LINK_invent/BTK/process_docking_weight1_custom_product_contain_oxygen_bond_distance_aromatic_linkinvent_7_9_3/rearranged_h_0109.sdf

> <i_m_source_file_index>
13

> <r_mmod_Potential_Energy-OPLS-2005>
171.830703735352

> <r_mmod_Stretch_Energy-OPLS-2005>
59.8070220947266

> <r_mmod_Bend_Energy-OPLS-2005>
126.511589050293

> <r_mmod_Torsional_Energy-OPLS-2005>
265.57177734375

> <r_mmod_Improper_Torsional_Energy-OPLS-2005>
4.91312265396118

> <r_mmod_Van_der_Waal_Energy-OPLS-2005>
154.61506652832

> <r_mmod_Electrostatic_Energy-OPLS-2005>
-273.053466796875

> <r_mmod_Solvation_Energy-OPLS-2005>
-187.482498168945

> <b_mmod_Minimization_Converged-OPLS-2005>
0

> <r_mmod_RMS_Derivative-OPLS-2005>
2.1964111328125

$$$$
13
                    3D
 Structure written by MMmdl.
162171  0  0  1  0            999 V2000
  -30.6254  -14.6483   20.5236 C   0  0  0  0  0  0
  -30.4401  -12.4037   19.4555 C   0  0  0  0  0  0
  -29.5092  -12.5161   18.2273 C   0  0  0  0  0  0
  -28.0329  -12.3485   18.6399 C   0  0  0  0  0  0
  -27.6531  -13.2197   19.8670 C   0  0  2  0  0  0
  -28.6977  -13.0709   20.9973 C   0  0  0  0  0  0
  -25.2470  -13.8118   20.5542 C   0  0  0  0  0  0
  -24.1794  -13.0385   20.9179 C   0  0  0  0  0  0
  -24.6401  -11.6876   20.8767 C   0  0  0  0  0  0
  -23.9076  -10.4260   21.0417 C   0  0  0  0  0  0
  -24.3625   -9.4173   21.9193 C   0  0  0  0  0  0
  -23.6287   -8.2215   22.0757 C   0  0  0  0  0  0
  -22.4269   -8.0265   21.3545 C   0  0  0  0  0  0
  -21.9911   -9.0241   20.4649 C   0  0  0  0  0  0
  -22.7249  -10.2113   20.3057 C   0  0  0  0  0  0
  -21.6849   -6.0722   22.5277 C   0  0  0  0  0  0
  -21.4010   -6.5635   23.8207 C   0  0  0  0  0  0
  -21.3655   -5.6789   24.9171 C   0  0  0  0  0  0
  -21.6044   -4.3050   24.7224 C   0  0  0  0  0  0
  -21.8822   -3.8137   23.4348 C   0  0  0  0  0  0
  -21.9192   -4.6949   22.3401 C   0  0  0  0  0  0
  -22.7817  -13.5175   21.1850 C   0  0  0  0  0  0
  -22.1663   -4.2133   21.0977 F   0  0  0  0  0  0
  -21.5628   -3.4533   25.7739 F   0  0  0  0  0  0
  -30.0154  -13.4218   20.4394 N   0  0  0  0  0  0
  -26.2970  -12.9351   20.3316 N   0  0  0  0  0  0
  -25.9344  -11.6505   20.5816 N   0  0  0  0  0  0
  -22.0493  -12.8165   22.0430 N   0  0  0  0  0  0
  -25.3973  -15.1801   20.3663 N   0  0  0  0  0  0
  -31.7751  -14.8180   20.1054 O   0  0  0  0  0  0
  -21.6638   -6.8857   21.4230 O   0  0  0  0  0  0
  -22.3498  -14.5484   20.6705 O   0  0  0  0  0  0
  -24.6248  -31.8612   23.2043 C   0  0  0  0  0  0
  -25.9103  -32.4790   23.8367 C   0  0  1  0  0  0
  -27.2199  -27.3208   20.1213 C   0  0  0  0  0  0
  -25.5949  -33.8595   24.2284 N   0  0  0  0  0  0
  -23.4187  -30.4870   21.5458 C   0  0  2  0  0  0
  -24.8654  -28.9478   20.1074 C   0  0  0  0  0  0
  -22.7478  -29.4623   22.4925 C   0  0  0  0  0  0
  -18.0278  -28.1401   22.8491 C   0  0  0  0  0  0
  -24.1480  -36.7280   23.2644 C   0  0  0  0  0  0
  -25.9596  -30.7941   21.3743 C   0  0  0  0  0  0
  -26.0336  -29.4230   20.7146 C   0  0  0  0  0  0
  -27.2153  -28.6218   20.7126 C   0  0  0  0  0  0
  -26.0283  -26.9051   19.4790 C   0  0  0  0  0  0
  -24.8647  -27.6944   19.4787 C   0  0  0  0  0  0
  -23.6326  -29.8274   20.1589 C   0  0  0  0  0  0
  -25.4110  -36.3095   24.0340 C   0  0  1  0  0  0
  -20.5879  -28.3688   23.1282 C   0  0  2  0  0  0
  -20.6752  -26.9403   22.5430 C   0  0  0  0  0  0
  -19.5742  -26.6380   21.5215 C   0  0  0  0  0  0
  -18.1910  -26.7956   22.1601 C   0  0  0  0  0  0
  -19.1537  -28.8862   23.2876 C   0  0  0  0  0  0
  -18.9469  -30.1465   23.8889 C   0  0  0  0  0  0
  -17.6475  -30.6606   24.0567 C   0  0  0  0  0  0
  -25.9058  -34.9468   23.5109 C   0  0  0  0  0  0
  -16.5354  -29.9115   23.6340 C   0  0  0  0  0  0
  -16.7267  -28.6529   23.0361 C   0  0  0  0  0  0
  -26.4488  -31.6619   25.0740 C   0  0  0  0  0  0
  -25.3742  -31.3779   26.1489 C   0  0  0  0  0  0
  -27.0326  -30.3059   24.6190 C   0  0  0  0  0  0
  -27.6054  -32.4369   25.7498 C   0  0  0  0  0  0
  -27.5575  -37.1789   24.8465 C   0  0  0  0  0  0
  -21.4191  -29.3047   22.3681 N   0  0  0  0  0  0
  -26.4278  -37.3799   23.9431 N   0  0  0  0  0  0
  -24.6869  -31.0632   22.0991 N   0  0  0  0  0  0
  -23.4220  -28.8151   23.2982 O   0  0  0  0  0  0
  -28.3272  -26.4577   20.1941 O   0  0  0  0  0  0
  -26.5598  -34.8944   22.4653 O   0  0  0  0  0  0
  -23.5414  -32.1400   23.7378 O   0  0  0  0  0  0
  -30.8986  -19.3123   20.1887 C   0  0  0  0  0  0
  -30.9286  -17.8855   20.2528 C   0  0  0  0  0  0
  -28.8268  -19.3506   21.3878 C   0  0  0  0  0  0
  -28.8476  -17.9214   21.4597 C   0  0  0  0  0  0
  -29.8478  -20.0978   20.7459 C   0  0  0  0  0  0
  -29.9004  -17.1420   20.8894 C   0  0  0  0  0  0
  -29.1148  -23.9122   20.5076 C   0  0  0  0  0  0
  -28.9364  -22.5399   20.3824 C   0  0  0  0  0  0
  -30.3965  -24.3918   21.0763 C   0  0  0  0  0  0
  -31.5508  -23.3938   21.1230 C   0  0  0  0  0  0
  -31.0743  -21.9904   21.5287 C   0  0  0  0  0  0
  -27.7113  -17.2235   22.1852 C   0  0  0  0  0  0
  -27.6475  -22.0026   19.7706 C   0  0  0  0  0  0
  -28.0654  -25.0013   20.0547 C   0  0  0  0  0  0
  -29.9046  -21.5449   20.7595 N   0  0  0  0  0  0
  -29.8373  -15.6762   20.9776 N   0  0  0  0  0  0
  -30.5920  -25.5329   21.5054 O   0  0  0  0  0  0
  -31.4814  -12.5309   19.1547 H   0  0  0  0  0  0
  -30.3762  -11.4075   19.8949 H   0  0  0  0  0  0
  -29.7764  -11.7656   17.4815 H   0  0  0  0  0  0
  -29.6456  -13.4869   17.7488 H   0  0  0  0  0  0
  -27.8754  -11.2948   18.8745 H   0  0  0  0  0  0
  -27.3753  -12.5715   17.7991 H   0  0  0  0  0  0
  -27.6720  -14.2567   19.5305 H   0  0  0  0  0  0
  -28.7115  -12.0466   21.3744 H   0  0  0  0  0  0
  -28.4358  -13.6934   21.8540 H   0  0  0  0  0  0
  -25.2772   -9.5643   22.4762 H   0  0  0  0  0  0
  -23.9988   -7.4606   22.7475 H   0  0  0  0  0  0
  -21.0837   -8.8762   19.8958 H   0  0  0  0  0  0
  -22.3717  -10.9646   19.6160 H   0  0  0  0  0  0
  -21.2006   -7.6142   23.9700 H   0  0  0  0  0  0
  -21.1472   -6.0526   25.9075 H   0  0  0  0  0  0
  -22.0606   -2.7596   23.2856 H   0  0  0  0  0  0
  -22.4137  -11.9826   22.4790 H   0  0  0  0  0  0
  -21.1123  -13.1183   22.2683 H   0  0  0  0  0  0
  -24.5987  -15.8035   20.4166 H   0  0  0  0  0  0
  -26.2079  -15.6109   19.9413 H   0  0  0  0  0  0
  -26.7164  -32.5454   23.1116 H   0  0  0  0  0  0
  -25.0201  -33.9744   25.0499 H   0  0  0  0  0  0
  -22.7131  -31.3085   21.4051 H   0  0  0  0  0  0
  -23.3780  -35.9572   23.3309 H   0  0  0  0  0  0
  -24.3574  -36.8887   22.2055 H   0  0  0  0  0  0
  -23.7183  -37.6465   23.6662 H   0  0  0  0  0  0
  -26.0905  -31.5594   20.6077 H   0  0  0  0  0  0
  -26.8388  -30.8397   22.0046 H   0  0  0  0  0  0
  -28.1109  -28.9796   21.2020 H   0  0  0  0  0  0
  -25.9592  -25.9502   18.9809 H   0  0  0  0  0  0
  -23.9733  -27.3250   18.9920 H   0  0  0  0  0  0
  -23.7530  -30.6083   19.4070 H   0  0  0  0  0  0
  -22.7514  -29.2594   19.8545 H   0  0  0  0  0  0
  -25.1281  -36.1936   25.0833 H   0  0  0  0  0  0
  -20.9957  -28.3260   24.1405 H   0  0  0  0  0  0
  -20.5596  -26.2307   23.3639 H   0  0  0  0  0  0
  -21.6626  -26.7415   22.1239 H   0  0  0  0  0  0
  -19.6901  -25.6279   21.1261 H   0  0  0  0  0  0
  -19.6718  -27.3171   20.6736 H   0  0  0  0  0  0
  -17.4200  -26.6762   21.3969 H   0  0  0  0  0  0
  -18.0265  -26.0069   22.8962 H   0  0  0  0  0  0
  -19.7958  -30.7279   24.2244 H   0  0  0  0  0  0
  -17.5048  -31.6281   24.5178 H   0  0  0  0  0  0
  -15.5356  -30.3028   23.7682 H   0  0  0  0  0  0
  -15.8663  -28.0859   22.7079 H   0  0  0  0  0  0
  -24.5953  -30.7052   25.7881 H   0  0  0  0  0  0
  -24.8885  -32.2929   26.4869 H   0  0  0  0  0  0
  -25.8091  -30.9055   27.0302 H   0  0  0  0  0  0
  -26.2887  -29.6810   24.1225 H   0  0  0  0  0  0
  -27.4045  -29.7309   25.4681 H   0  0  0  0  0  0
  -27.8759  -30.4367   23.9404 H   0  0  0  0  0  0
  -27.2689  -33.3706   26.2015 H   0  0  0  0  0  0
  -28.3891  -32.6857   25.0331 H   0  0  0  0  0  0
  -28.0698  -31.8532   26.5451 H   0  0  0  0  0  0
  -28.2602  -38.0082   24.7519 H   0  0  0  0  0  0
  -28.1050  -36.2611   24.6265 H   0  0  0  0  0  0
  -27.2304  -37.1404   25.8872 H   0  0  0  0  0  0
  -20.9345  -29.8848   21.6972 H   0  0  0  0  0  0
  -26.0161  -38.2863   24.1491 H   0  0  0  0  0  0
  -31.7182  -19.8147   19.6949 H   0  0  0  0  0  0
  -31.7646  -17.3727   19.8001 H   0  0  0  0  0  0
  -28.0167  -19.8889   21.8586 H   0  0  0  0  0  0
  -32.3159  -23.7451   21.8157 H   0  0  0  0  0  0
  -32.0060  -23.3600   20.1334 H   0  0  0  0  0  0
  -30.8080  -21.9943   22.5870 H   0  0  0  0  0  0
  -31.9167  -21.3056   21.4375 H   0  0  0  0  0  0
  -26.9053  -17.9121   22.4391 H   0  0  0  0  0  0
  -28.0659  -16.7612   23.1065 H   0  0  0  0  0  0
  -27.2922  -16.4437   21.5562 H   0  0  0  0  0  0
  -27.4514  -22.4816   18.8105 H   0  0  0  0  0  0
  -26.8035  -22.2202   20.4280 H   0  0  0  0  0  0
  -27.6556  -20.9310   19.5818 H   0  0  0  0  0  0
  -27.1483  -24.7567   20.5920 H   0  0  0  0  0  0
  -27.8746  -24.8125   18.9986 H   0  0  0  0  0  0
  -28.9698  -15.3335   21.3574 H   0  0  0  0  0  0
  1 25  1  0  0  0
  1 30  2  0  0  0
  1 86  1  0  0  0
  2  3  1  0  0  0
  2 25  1  0  0  0
  2 88  1  0  0  0
  2 89  1  0  0  0
  3  4  1  0  0  0
  3 90  1  0  0  0
  3 91  1  0  0  0
  4  5  1  0  0  0
  4 92  1  0  0  0
  4 93  1  0  0  0
  5  6  1  0  0  0
  5 26  1  0  0  0
  5 94  1  0  0  0
  6 25  1  0  0  0
  6 95  1  0  0  0
  6 96  1  0  0  0
  7  8  2  0  0  0
  7 26  1  0  0  0
  7 29  1  0  0  0
  8  9  1  0  0  0
  8 22  1  0  0  0
  9 10  1  0  0  0
  9 27  2  0  0  0
 10 11  2  0  0  0
 10 15  1  0  0  0
 11 12  1  0  0  0
 11 97  1  0  0  0
 12 13  2  0  0  0
 12 98  1  0  0  0
 13 14  1  0  0  0
 13 31  1  0  0  0
 14 15  2  0  0  0
 14 99  1  0  0  0
 15100  1  0  0  0
 16 17  2  0  0  0
 16 21  1  0  0  0
 16 31  1  0  0  0
 17 18  1  0  0  0
 17101  1  0  0  0
 18 19  2  0  0  0
 18102  1  0  0  0
 19 20  1  0  0  0
 19 24  1  0  0  0
 20 21  2  0  0  0
 20103  1  0  0  0
 21 23  1  0  0  0
 22 28  1  0  0  0
 22 32  2  0  0  0
 26 27  1  0  0  0
 28104  1  0  0  0
 28105  1  0  0  0
 29106  1  0  0  0
 29107  1  0  0  0
 33 34  1  0  0  0
 33 66  1  0  0  0
 33 70  2  0  0  0
 34 36  1  0  0  0
 34 59  1  0  0  0
 34108  1  0  0  0
 35 44  2  0  0  0
 35 45  1  0  0  0
 35 68  1  0  0  0
 36 56  1  0  0  0
 36109  1  0  0  0
 37 39  1  0  0  0
 37 47  1  0  0  0
 37 66  1  0  0  0
 37110  1  0  0  0
 38 43  2  0  0  0
 38 46  1  0  0  0
 38 47  1  0  0  0
 39 64  1  0  0  0
 39 67  2  0  0  0
 40 52  1  0  0  0
 40 53  2  0  0  0
 40 58  1  0  0  0
 41111  1  0  0  0
 41112  1  0  0  0
 41113  1  0  0  0
 41 48  1  0  0  0
 42 43  1  0  0  0
 42 66  1  0  0  0
 42114  1  0  0  0
 42115  1  0  0  0
 43 44  1  0  0  0
 44116  1  0  0  0
 45 46  2  0  0  0
 45117  1  0  0  0
 46118  1  0  0  0
 47119  1  0  0  0
 47120  1  0  0  0
 48 56  1  0  0  0
 48 65  1  0  0  0
 48121  1  0  0  0
 49 50  1  0  0  0
 49 53  1  0  0  0
 49 64  1  0  0  0
 49122  1  0  0  0
 50 51  1  0  0  0
 50123  1  0  0  0
 50124  1  0  0  0
 51 52  1  0  0  0
 51125  1  0  0  0
 51126  1  0  0  0
 52127  1  0  0  0
 52128  1  0  0  0
 53 54  1  0  0  0
 54 55  2  0  0  0
 54129  1  0  0  0
 55 57  1  0  0  0
 55130  1  0  0  0
 56 69  2  0  0  0
 57 58  2  0  0  0
 57131  1  0  0  0
 58132  1  0  0  0
 59 60  1  0  0  0
 59 61  1  0  0  0
 59 62  1  0  0  0
 60133  1  0  0  0
 60134  1  0  0  0
 60135  1  0  0  0
 61136  1  0  0  0
 61137  1  0  0  0
 61138  1  0  0  0
 62139  1  0  0  0
 62140  1  0  0  0
 62141  1  0  0  0
 63 65  1  0  0  0
 63142  1  0  0  0
 63143  1  0  0  0
 63144  1  0  0  0
 64145  1  0  0  0
 65146  1  0  0  0
 68 84  1  0  0  0
 71 72  2  0  0  0
 71 75  1  0  0  0
 71147  1  0  0  0
 72 76  1  0  0  0
 72148  1  0  0  0
 73 74  1  0  0  0
 73 75  2  0  0  0
 73149  1  0  0  0
 74 76  2  0  0  0
 74 82  1  0  0  0
 75 85  1  0  0  0
 76 86  1  0  0  0
 77 78  2  0  0  0
 77 79  1  0  0  0
 77 84  1  0  0  0
 78 83  1  0  0  0
 78 85  1  0  0  0
 79 80  1  0  0  0
 79 87  2  0  0  0
 80 81  1  0  0  0
 80150  1  0  0  0
 80151  1  0  0  0
 81 85  1  0  0  0
 81152  1  0  0  0
 81153  1  0  0  0
 82154  1  0  0  0
 82155  1  0  0  0
 82156  1  0  0  0
 83157  1  0  0  0
 83158  1  0  0  0
 83159  1  0  0  0
 84160  1  0  0  0
 84161  1  0  0  0
 86162  1  0  0  0
M  ISO  4   1 100  68 101  84 101  86 100
M  END
> <chiral flag>
0

> <version>
0

> <s_m_source_file>
/data/baiqing/PycharmProjects/Reinvent-master-3.2/result/LINK_invent/BTK/process_docking_weight1_custom_product_contain_oxygen_bond_distance_aromatic_linkinvent_7_9_3/rearranged_h_0109.sdf

> <i_m_source_file_index>
14

> <r_mmod_Potential_Energy-OPLS-2005>
60.5659255981445

> <r_mmod_Stretch_Energy-OPLS-2005>
89.6756973266602

> <r_mmod_Bend_Energy-OPLS-2005>
142.898635864258

> <r_mmod_Torsional_Energy-OPLS-2005>
210.342193603516

> <r_mmod_Improper_Torsional_Energy-OPLS-2005>
4.71023464202881

> <r_mmod_Van_der_Waal_Energy-OPLS-2005>
167.014770507812

> <r_mmod_Electrostatic_Energy-OPLS-2005>
-384.545318603516

> <r_mmod_Solvation_Energy-OPLS-2005>
-220.731399536133

> <b_mmod_Minimization_Converged-OPLS-2005>
0

> <r_mmod_RMS_Derivative-OPLS-2005>
2.07503890991211

$$$$
14
                    3D
 Structure written by MMmdl.
168177  0  0  1  0            999 V2000
  -30.6175  -14.5340   20.4848 C   0  0  0  0  0  0
  -30.4014  -12.3026   19.4552 C   0  0  0  0  0  0
  -29.5074  -12.5221   18.2136 C   0  0  0  0  0  0
  -28.0242  -12.3791   18.5973 C   0  0  0  0  0  0
  -27.6544  -13.1838   19.8708 C   0  0  2  0  0  0
  -28.6887  -12.9872   21.0085 C   0  0  0  0  0  0
  -25.2761  -13.7830   20.6294 C   0  0  0  0  0  0
  -24.1824  -13.0106   20.9269 C   0  0  0  0  0  0
  -24.6363  -11.6596   20.8570 C   0  0  0  0  0  0
  -23.9016  -10.4082   21.0292 C   0  0  0  0  0  0
  -24.3550   -9.4038   21.9096 C   0  0  0  0  0  0
  -23.6203   -8.2090   22.0721 C   0  0  0  0  0  0
  -22.4206   -8.0168   21.3498 C   0  0  0  0  0  0
  -21.9823   -9.0118   20.4603 C   0  0  0  0  0  0
  -22.7166  -10.1970   20.2952 C   0  0  0  0  0  0
  -21.6815   -6.0677   22.5334 C   0  0  0  0  0  0
  -21.4002   -6.5614   23.8262 C   0  0  0  0  0  0
  -21.3656   -5.6760   24.9198 C   0  0  0  0  0  0
  -21.6011   -4.3047   24.7256 C   0  0  0  0  0  0
  -21.8812   -3.8128   23.4386 C   0  0  0  0  0  0
  -21.9141   -4.6917   22.3432 C   0  0  0  0  0  0
  -22.7908  -13.5056   21.1910 C   0  0  0  0  0  0
  -22.1619   -4.2081   21.1005 F   0  0  0  0  0  0
  -21.5579   -3.4541   25.7780 F   0  0  0  0  0  0
  -30.0145  -13.3089   20.4627 N   0  0  0  0  0  0
  -26.2990  -12.8938   20.3333 N   0  0  0  0  0  0
  -25.9264  -11.6115   20.5456 N   0  0  0  0  0  0
  -22.0457  -12.8102   22.0448 N   0  0  0  0  0  0
  -25.4895  -15.1556   20.6115 N   0  0  0  0  0  0
  -31.7460  -14.7281   20.0353 O   0  0  0  0  0  0
  -21.6528   -6.8821   21.4327 O   0  0  0  0  0  0
  -22.3723  -14.5397   20.6788 O   0  0  0  0  0  0
  -24.6221  -31.8646   23.2125 C   0  0  0  0  0  0
  -25.9164  -32.4756   23.8441 C   0  0  1  0  0  0
  -27.1880  -27.3636   20.1124 C   0  0  0  0  0  0
  -25.6040  -33.8582   24.2379 N   0  0  0  0  0  0
  -23.4087  -30.4879   21.5665 C   0  0  2  0  0  0
  -24.8409  -28.9497   20.1201 C   0  0  0  0  0  0
  -22.7500  -29.4534   22.5090 C   0  0  0  0  0  0
  -18.0184  -28.1274   22.8744 C   0  0  0  0  0  0
  -24.1516  -36.7296   23.2630 C   0  0  0  0  0  0
  -25.9442  -30.8086   21.3667 C   0  0  0  0  0  0
  -26.0138  -29.4438   20.6989 C   0  0  0  0  0  0
  -27.2079  -28.6663   20.6757 C   0  0  0  0  0  0
  -26.0077  -26.9016   19.5088 C   0  0  0  0  0  0
  -24.8387  -27.6906   19.4959 C   0  0  0  0  0  0
  -23.6101  -29.8326   20.1795 C   0  0  0  0  0  0
  -25.4124  -36.3095   24.0319 C   0  0  1  0  0  0
  -20.5800  -28.3570   23.1314 C   0  0  2  0  0  0
  -20.6640  -26.9597   22.4944 C   0  0  0  0  0  0
  -19.5279  -26.6224   21.5123 C   0  0  0  0  0  0
  -18.1718  -26.7656   22.2090 C   0  0  0  0  0  0
  -19.1436  -28.8813   23.2885 C   0  0  0  0  0  0
  -18.9430  -30.1497   23.8694 C   0  0  0  0  0  0
  -17.6495  -30.6690   24.0479 C   0  0  0  0  0  0
  -25.9035  -34.9436   23.5088 C   0  0  0  0  0  0
  -16.5293  -29.9139   23.6460 C   0  0  0  0  0  0
  -16.7212  -28.6394   23.0696 C   0  0  0  0  0  0
  -26.4538  -31.6519   25.0772 C   0  0  0  0  0  0
  -25.3766  -31.3582   26.1460 C   0  0  0  0  0  0
  -27.0339  -30.2952   24.6127 C   0  0  0  0  0  0
  -27.6074  -32.4231   25.7559 C   0  0  0  0  0  0
  -27.5595  -37.1809   24.8466 C   0  0  0  0  0  0
  -21.4149  -29.3233   22.4147 N   0  0  0  0  0  0
  -26.4342  -37.3757   23.9348 N   0  0  0  0  0  0
  -24.6785  -31.0681   22.1018 N   0  0  0  0  0  0
  -23.4337  -28.7807   23.2810 O   0  0  0  0  0  0
  -28.3172  -26.5815   19.9820 O   0  0  0  0  0  0
  -26.5573  -34.8886   22.4654 O   0  0  0  0  0  0
  -23.5379  -32.1423   23.7501 O   0  0  0  0  0  0
  -29.2928  -18.8775   21.1769 C   0  0  0  0  0  0
  -28.7233  -20.1543   21.3996 C   0  0  0  0  0  0
  -27.0260  -19.6767   19.7441 C   0  0  0  0  0  0
  -28.7781  -17.9682   20.2116 C   0  0  0  0  0  0
  -27.5845  -18.3788   19.5251 C   0  0  0  0  0  0
  -27.6067  -20.5967   20.6554 C   0  0  0  0  0  0
  -27.6644  -24.2927   21.1388 C   0  0  0  0  0  0
  -27.7213  -23.1044   20.4626 C   0  0  0  0  0  0
  -26.8743  -24.3181   22.3799 C   0  0  0  0  0  0
  -25.7416  -23.3014   22.4812 C   0  0  0  0  0  0
  -26.2944  -21.9072   22.1244 C   0  0  0  0  0  0
  -28.6597  -22.9387   19.2843 C   0  0  0  0  0  0
  -29.6181  -16.7026   19.8156 C   0  0  0  0  0  0
  -26.8427  -17.5098   18.4944 C   0  0  0  0  0  0
  -28.6077  -25.5238   20.9506 C   0  0  0  0  0  0
  -27.0727  -21.9052   20.8646 N   0  0  0  0  0  0
  -29.7771  -15.5628   20.7568 N   0  0  0  0  0  0
  -25.4846  -17.2771   18.9609 N   0  3  0  0  0  0
  -27.1476  -25.0159   23.3540 O   0  0  0  0  0  0
  -31.4639  -12.3324   19.2000 H   0  0  0  0  0  0
  -30.2258  -11.2879   19.8360 H   0  0  0  0  0  0
  -29.7679  -11.8225   17.4196 H   0  0  0  0  0  0
  -29.6927  -13.5175   17.8084 H   0  0  0  0  0  0
  -27.8089  -11.3259   18.7358 H   0  0  0  0  0  0
  -27.3948  -12.7135   17.7725 H   0  0  0  0  0  0
  -27.6807  -14.2325   19.5777 H   0  0  0  0  0  0
  -28.6876  -11.9544   21.3763 H   0  0  0  0  0  0
  -28.4601  -13.6000   21.8820 H   0  0  0  0  0  0
  -25.2747   -9.5434   22.4565 H   0  0  0  0  0  0
  -23.9864   -7.4498   22.7499 H   0  0  0  0  0  0
  -21.0657   -8.8631   19.8971 H   0  0  0  0  0  0
  -22.3684  -10.9416   19.5932 H   0  0  0  0  0  0
  -21.2107   -7.6130   23.9750 H   0  0  0  0  0  0
  -21.1478   -6.0504   25.9083 H   0  0  0  0  0  0
  -22.0629   -2.7594   23.2927 H   0  0  0  0  0  0
  -22.3958  -11.9699   22.4720 H   0  0  0  0  0  0
  -21.1099  -13.1121   22.2703 H   0  0  0  0  0  0
  -24.8268  -15.5493   21.2810 H   0  0  0  0  0  0
  -26.4263  -15.3105   20.9796 H   0  0  0  0  0  0
  -26.7200  -32.5378   23.1145 H   0  0  0  0  0  0
  -25.0286  -33.9746   25.0586 H   0  0  0  0  0  0
  -22.6941  -31.3039   21.4311 H   0  0  0  0  0  0
  -23.3775  -35.9651   23.3293 H   0  0  0  0  0  0
  -24.3613  -36.8914   22.2062 H   0  0  0  0  0  0
  -23.7311  -37.6489   23.6643 H   0  0  0  0  0  0
  -26.0748  -31.5825   20.6151 H   0  0  0  0  0  0
  -26.8318  -30.8514   21.9923 H   0  0  0  0  0  0
  -28.1378  -29.0524   21.0615 H   0  0  0  0  0  0
  -25.9873  -25.9331   19.0249 H   0  0  0  0  0  0
  -23.9424  -27.3190   19.0177 H   0  0  0  0  0  0
  -23.7167  -30.6187   19.4269 H   0  0  0  0  0  0
  -22.7314  -29.2679   19.8673 H   0  0  0  0  0  0
  -25.1323  -36.1929   25.0818 H   0  0  0  0  0  0
  -20.9610  -28.2715   24.1538 H   0  0  0  0  0  0
  -20.6119  -26.2224   23.2988 H   0  0  0  0  0  0
  -21.6303  -26.7955   22.0167 H   0  0  0  0  0  0
  -19.6407  -25.6025   21.1533 H   0  0  0  0  0  0
  -19.5793  -27.2637   20.6369 H   0  0  0  0  0  0
  -17.3642  -26.6129   21.4867 H   0  0  0  0  0  0
  -18.1021  -26.0011   22.9849 H   0  0  0  0  0  0
  -19.7995  -30.7424   24.1827 H   0  0  0  0  0  0
  -17.5110  -31.6603   24.4587 H   0  0  0  0  0  0
  -15.5311  -30.3048   23.7957 H   0  0  0  0  0  0
  -15.8628  -28.0558   22.7820 H   0  0  0  0  0  0
  -24.5971  -30.6910   25.7739 H   0  0  0  0  0  0
  -24.8931  -32.2695   26.4962 H   0  0  0  0  0  0
  -25.8122  -30.8674   27.0176 H   0  0  0  0  0  0
  -26.2887  -29.6726   24.1138 H   0  0  0  0  0  0
  -27.4017  -29.7141   25.4595 H   0  0  0  0  0  0
  -27.8772  -30.4211   23.9342 H   0  0  0  0  0  0
  -27.2689  -33.3516   26.2146 H   0  0  0  0  0  0
  -28.3921  -32.6795   25.0441 H   0  0  0  0  0  0
  -28.0694  -31.8349   26.5472 H   0  0  0  0  0  0
  -28.2600  -38.0120   24.7484 H   0  0  0  0  0  0
  -28.1116  -36.2629   24.6336 H   0  0  0  0  0  0
  -27.2287  -37.1501   25.8873 H   0  0  0  0  0  0
  -20.9121  -30.0059   21.8564 H   0  0  0  0  0  0
  -26.0212  -38.2827   24.1306 H   0  0  0  0  0  0
  -30.1907  -18.6268   21.7132 H   0  0  0  0  0  0
  -29.1774  -20.8271   22.1165 H   0  0  0  0  0  0
  -26.1588  -19.9961   19.1578 H   0  0  0  0  0  0
  -25.3408  -23.3413   23.4968 H   0  0  0  0  0  0
  -24.9143  -23.5949   21.8467 H   0  0  0  0  0  0
  -25.4870  -21.1725   22.1030 H   0  0  0  0  0  0
  -26.9324  -21.6170   22.9657 H   0  0  0  0  0  0
  -28.7457  -23.8498   18.7026 H   0  0  0  0  0  0
  -28.3300  -22.1627   18.6059 H   0  0  0  0  0  0
  -29.6392  -22.6602   19.6627 H   0  0  0  0  0  0
  -30.6108  -17.0425   19.4865 H   0  0  0  0  0  0
  -29.1930  -16.2533   18.9191 H   0  0  0  0  0  0
  -27.2510  -16.5213   18.3177 H   0  0  0  0  0  0
  -26.7804  -18.0218   17.5313 H   0  0  0  0  0  0
  -29.5752  -25.1122   20.6409 H   0  0  0  0  0  0
  -28.8373  -25.9868   21.9210 H   0  0  0  0  0  0
  -28.9656  -15.3289   21.3024 H   0  0  0  0  0  0
  -25.1737  -18.0432   19.5334 H   0  0  0  0  0  0
  -25.4796  -16.4203   19.5281 H   0  0  0  0  0  0
  -24.8643  -17.1507   18.1792 H   0  0  0  0  0  0
  1 25  1  0  0  0
  1 30  2  0  0  0
  1 87  1  0  0  0
  2  3  1  0  0  0
  2 25  1  0  0  0
  2 90  1  0  0  0
  2 91  1  0  0  0
  3  4  1  0  0  0
  3 92  1  0  0  0
  3 93  1  0  0  0
  4  5  1  0  0  0
  4 94  1  0  0  0
  4 95  1  0  0  0
  5  6  1  0  0  0
  5 26  1  0  0  0
  5 96  1  0  0  0
  6 25  1  0  0  0
  6 97  1  0  0  0
  6 98  1  0  0  0
  7  8  2  0  0  0
  7 26  1  0  0  0
  7 29  1  0  0  0
  8  9  1  0  0  0
  8 22  1  0  0  0
  9 10  1  0  0  0
  9 27  2  0  0  0
 10 11  2  0  0  0
 10 15  1  0  0  0
 11 12  1  0  0  0
 11 99  1  0  0  0
 12 13  2  0  0  0
 12100  1  0  0  0
 13 14  1  0  0  0
 13 31  1  0  0  0
 14 15  2  0  0  0
 14101  1  0  0  0
 15102  1  0  0  0
 16 17  2  0  0  0
 16 21  1  0  0  0
 16 31  1  0  0  0
 17 18  1  0  0  0
 17103  1  0  0  0
 18 19  2  0  0  0
 18104  1  0  0  0
 19 20  1  0  0  0
 19 24  1  0  0  0
 20 21  2  0  0  0
 20105  1  0  0  0
 21 23  1  0  0  0
 22 28  1  0  0  0
 22 32  2  0  0  0
 26 27  1  0  0  0
 28106  1  0  0  0
 28107  1  0  0  0
 29108  1  0  0  0
 29109  1  0  0  0
 33 34  1  0  0  0
 33 66  1  0  0  0
 33 70  2  0  0  0
 34 36  1  0  0  0
 34 59  1  0  0  0
 34110  1  0  0  0
 35 44  2  0  0  0
 35 45  1  0  0  0
 35 68  1  0  0  0
 36 56  1  0  0  0
 36111  1  0  0  0
 37 39  1  0  0  0
 37 47  1  0  0  0
 37 66  1  0  0  0
 37112  1  0  0  0
 38 43  2  0  0  0
 38 46  1  0  0  0
 38 47  1  0  0  0
 39 64  1  0  0  0
 39 67  2  0  0  0
 40 52  1  0  0  0
 40 53  2  0  0  0
 40 58  1  0  0  0
 41113  1  0  0  0
 41114  1  0  0  0
 41115  1  0  0  0
 41 48  1  0  0  0
 42 43  1  0  0  0
 42 66  1  0  0  0
 42116  1  0  0  0
 42117  1  0  0  0
 43 44  1  0  0  0
 44118  1  0  0  0
 45 46  2  0  0  0
 45119  1  0  0  0
 46120  1  0  0  0
 47121  1  0  0  0
 47122  1  0  0  0
 48 56  1  0  0  0
 48 65  1  0  0  0
 48123  1  0  0  0
 49 50  1  0  0  0
 49 53  1  0  0  0
 49 64  1  0  0  0
 49124  1  0  0  0
 50 51  1  0  0  0
 50125  1  0  0  0
 50126  1  0  0  0
 51 52  1  0  0  0
 51127  1  0  0  0
 51128  1  0  0  0
 52129  1  0  0  0
 52130  1  0  0  0
 53 54  1  0  0  0
 54 55  2  0  0  0
 54131  1  0  0  0
 55 57  1  0  0  0
 55132  1  0  0  0
 56 69  2  0  0  0
 57 58  2  0  0  0
 57133  1  0  0  0
 58134  1  0  0  0
 59 60  1  0  0  0
 59 61  1  0  0  0
 59 62  1  0  0  0
 60135  1  0  0  0
 60136  1  0  0  0
 60137  1  0  0  0
 61138  1  0  0  0
 61139  1  0  0  0
 61140  1  0  0  0
 62141  1  0  0  0
 62142  1  0  0  0
 62143  1  0  0  0
 63 65  1  0  0  0
 63144  1  0  0  0
 63145  1  0  0  0
 63146  1  0  0  0
 64147  1  0  0  0
 65148  1  0  0  0
 68 85  1  0  0  0
 71 72  2  0  0  0
 71 74  1  0  0  0
 71149  1  0  0  0
 72 76  1  0  0  0
 72150  1  0  0  0
 73 75  1  0  0  0
 73 76  2  0  0  0
 73151  1  0  0  0
 74 75  2  0  0  0
 74 83  1  0  0  0
 75 84  1  0  0  0
 76 86  1  0  0  0
 77 78  2  0  0  0
 77 79  1  0  0  0
 77 85  1  0  0  0
 78 82  1  0  0  0
 78 86  1  0  0  0
 79 80  1  0  0  0
 79 89  2  0  0  0
 80 81  1  0  0  0
 80152  1  0  0  0
 80153  1  0  0  0
 81 86  1  0  0  0
 81154  1  0  0  0
 81155  1  0  0  0
 82156  1  0  0  0
 82157  1  0  0  0
 82158  1  0  0  0
 83 87  1  0  0  0
 83159  1  0  0  0
 83160  1  0  0  0
 84 88  1  0  0  0
 84161  1  0  0  0
 84162  1  0  0  0
 85163  1  0  0  0
 85164  1  0  0  0
 87165  1  0  0  0
 88166  1  0  0  0
 88167  1  0  0  0
 88168  1  0  0  0
M  CHG  1  88   1
M  ISO  4   1 100  68 101  85 101  87 100
M  END
> <chiral flag>
0

> <version>
0

> <s_m_source_file>
/data/baiqing/PycharmProjects/Reinvent-master-3.2/result/LINK_invent/BTK/process_docking_weight1_custom_product_contain_oxygen_bond_distance_aromatic_linkinvent_7_9_3/rearranged_h_0109.sdf

> <i_m_source_file_index>
15

> <r_mmod_Potential_Energy-OPLS-2005>
-240.317016601562

> <r_mmod_Stretch_Energy-OPLS-2005>
67.6842041015625

> <r_mmod_Bend_Energy-OPLS-2005>
134.911499023438

> <r_mmod_Torsional_Energy-OPLS-2005>
305.908203125

> <r_mmod_Improper_Torsional_Energy-OPLS-2005>
22.891902923584

> <r_mmod_Van_der_Waal_Energy-OPLS-2005>
170.844451904297

> <r_mmod_Electrostatic_Energy-OPLS-2005>
-462.894592285156

> <r_mmod_Solvation_Energy-OPLS-2005>
-512.961730957031

> <b_mmod_Minimization_Converged-OPLS-2005>
0

> <r_mmod_RMS_Derivative-OPLS-2005>
19.9598865509033

$$$$
15
                    3D
 Structure written by MMmdl.
168177  0  0  1  0            999 V2000
  -30.5039  -14.9137   20.4405 C   0  0  0  0  0  0
  -30.4557  -12.5644   19.4858 C   0  0  0  0  0  0
  -29.5268  -12.5304   18.2479 C   0  0  0  0  0  0
  -28.0540  -12.3302   18.6591 C   0  0  0  0  0  0
  -27.6372  -13.2375   19.8453 C   0  0  2  0  0  0
  -28.6820  -13.2060   20.9812 C   0  0  0  0  0  0
  -25.2377  -13.8072   20.5406 C   0  0  0  0  0  0
  -24.1746  -13.0348   20.9147 C   0  0  0  0  0  0
  -24.6413  -11.6858   20.8785 C   0  0  0  0  0  0
  -23.9095  -10.4248   21.0444 C   0  0  0  0  0  0
  -24.3630   -9.4162   21.9217 C   0  0  0  0  0  0
  -23.6284   -8.2211   22.0774 C   0  0  0  0  0  0
  -22.4265   -8.0270   21.3554 C   0  0  0  0  0  0
  -21.9924   -9.0251   20.4655 C   0  0  0  0  0  0
  -22.7281  -10.2107   20.3063 C   0  0  0  0  0  0
  -21.6841   -6.0724   22.5280 C   0  0  0  0  0  0
  -21.4007   -6.5636   23.8220 C   0  0  0  0  0  0
  -21.3645   -5.6778   24.9184 C   0  0  0  0  0  0
  -21.6044   -4.3045   24.7228 C   0  0  0  0  0  0
  -21.8821   -3.8139   23.4349 C   0  0  0  0  0  0
  -21.9193   -4.6956   22.3410 C   0  0  0  0  0  0
  -22.7779  -13.5156   21.1825 C   0  0  0  0  0  0
  -22.1658   -4.2144   21.0981 F   0  0  0  0  0  0
  -21.5624   -3.4526   25.7742 F   0  0  0  0  0  0
  -29.9629  -13.6315   20.3993 N   0  0  0  0  0  0
  -26.2917  -12.9361   20.3238 N   0  0  0  0  0  0
  -25.9369  -11.6510   20.5827 N   0  0  0  0  0  0
  -22.0428  -12.8182   22.0409 N   0  0  0  0  0  0
  -25.3827  -15.1709   20.3332 N   0  0  0  0  0  0
  -31.6942  -15.0547   20.1376 O   0  0  0  0  0  0
  -21.6623   -6.8875   21.4244 O   0  0  0  0  0  0
  -22.3478  -14.5491   20.6715 O   0  0  0  0  0  0
  -24.6388  -31.8455   23.1901 C   0  0  0  0  0  0
  -25.9173  -32.4685   23.8280 C   0  0  1  0  0  0
  -27.2217  -27.1712   20.1475 C   0  0  0  0  0  0
  -25.5922  -33.8495   24.2187 N   0  0  0  0  0  0
  -23.4437  -30.4674   21.5332 C   0  0  2  0  0  0
  -24.8935  -28.9053   20.1091 C   0  0  0  0  0  0
  -22.7557  -29.4535   22.4825 C   0  0  0  0  0  0
  -18.0293  -28.1428   22.8494 C   0  0  0  0  0  0
  -24.1459  -36.7233   23.2653 C   0  0  0  0  0  0
  -25.9981  -30.7346   21.3835 C   0  0  0  0  0  0
  -26.0704  -29.3490   20.7278 C   0  0  0  0  0  0
  -27.2379  -28.5000   20.7249 C   0  0  0  0  0  0
  -26.0113  -26.8200   19.5044 C   0  0  0  0  0  0
  -24.8760  -27.6535   19.4818 C   0  0  0  0  0  0
  -23.6694  -29.8040   20.1489 C   0  0  0  0  0  0
  -25.4092  -36.3011   24.0325 C   0  0  1  0  0  0
  -20.5917  -28.3703   23.1242 C   0  0  2  0  0  0
  -20.6775  -26.9415   22.5395 C   0  0  0  0  0  0
  -19.5744  -26.6403   21.5208 C   0  0  0  0  0  0
  -18.1922  -26.7972   22.1627 C   0  0  0  0  0  0
  -19.1563  -28.8882   23.2862 C   0  0  0  0  0  0
  -18.9490  -30.1494   23.8871 C   0  0  0  0  0  0
  -17.6490  -30.6621   24.0576 C   0  0  0  0  0  0
  -25.9069  -34.9395   23.5068 C   0  0  0  0  0  0
  -16.5373  -29.9129   23.6372 C   0  0  0  0  0  0
  -16.7277  -28.6555   23.0373 C   0  0  0  0  0  0
  -26.4513  -31.6551   25.0702 C   0  0  0  0  0  0
  -25.3712  -31.3767   26.1401 C   0  0  0  0  0  0
  -27.0384  -30.2959   24.6262 C   0  0  0  0  0  0
  -27.6027  -32.4318   25.7489 C   0  0  0  0  0  0
  -27.5556  -37.1764   24.8474 C   0  0  0  0  0  0
  -21.4253  -29.3034   22.3614 N   0  0  0  0  0  0
  -26.4244  -37.3733   23.9434 N   0  0  0  0  0  0
  -24.7123  -31.0373   22.0906 N   0  0  0  0  0  0
  -23.4217  -28.8060   23.2927 O   0  0  0  0  0  0
  -28.2894  -26.2096   20.1964 O   0  0  0  0  0  0
  -26.5643  -34.8899   22.4648 O   0  0  0  0  0  0
  -23.5514  -32.1280   23.7170 O   0  0  0  0  0  0
  -30.5242  -18.5158   20.2693 C   0  0  0  0  0  0
  -28.0620  -19.5680   20.8977 C   0  0  0  0  0  0
  -30.2998  -19.9689   20.2745 C   0  0  0  0  0  0
  -29.0326  -20.5881   20.6274 C   0  0  0  0  0  0
  -29.5366  -17.5223   20.5981 C   0  0  0  0  0  0
  -28.2820  -18.1345   20.9119 C   0  0  0  0  0  0
  -30.0094  -23.8940   22.6507 C   0  0  0  0  0  0
  -31.4631  -20.7929   19.8953 C   0  0  0  0  0  0
  -29.2669  -22.6683   23.1864 C   0  0  0  0  0  0
  -30.2899  -23.9274   21.1502 C   0  0  0  0  0  0
  -28.1566  -22.1810   22.2352 C   0  0  0  0  0  0
  -29.0884  -23.4235   20.3229 C   0  0  2  0  0  0
  -31.4017  -21.4627   18.5396 C   0  0  0  0  0  0
  -26.1511  -17.7619   21.9703 C   0  0  0  0  0  0
  -27.9900  -24.6944   20.2339 C   0  0  0  0  0  0
  -32.5005  -20.9012   20.6131 N   0  0  0  0  0  0
  -28.6356  -22.0233   20.8486 N   0  0  0  0  0  0
  -29.6154  -15.9933   20.6535 N   0  0  0  0  0  0
  -30.4124  -24.7841   23.4033 O   0  0  0  0  0  0
  -27.2711  -17.2552   21.2440 O   0  0  0  0  0  0
  -31.4850  -12.7469   19.1734 H   0  0  0  0  0  0
  -30.4643  -11.5960   19.9902 H   0  0  0  0  0  0
  -29.8358  -11.7361   17.5674 H   0  0  0  0  0  0
  -29.6297  -13.4638   17.6909 H   0  0  0  0  0  0
  -27.9318  -11.2836   18.9395 H   0  0  0  0  0  0
  -27.3969  -12.4951   17.8044 H   0  0  0  0  0  0
  -27.6155  -14.2536   19.4486 H   0  0  0  0  0  0
  -28.7587  -12.2037   21.4066 H   0  0  0  0  0  0
  -28.3863  -13.8635   21.8002 H   0  0  0  0  0  0
  -25.2770   -9.5618   22.4802 H   0  0  0  0  0  0
  -23.9973   -7.4592   22.7496 H   0  0  0  0  0  0
  -21.0854   -8.8788   19.8955 H   0  0  0  0  0  0
  -22.3779  -10.9643   19.6151 H   0  0  0  0  0  0
  -21.1995   -7.6139   23.9725 H   0  0  0  0  0  0
  -21.1458   -6.0508   25.9085 H   0  0  0  0  0  0
  -22.0613   -2.7601   23.2855 H   0  0  0  0  0  0
  -22.4000  -11.9819   22.4787 H   0  0  0  0  0  0
  -21.1056  -13.1238   22.2615 H   0  0  0  0  0  0
  -24.5884  -15.7981   20.3844 H   0  0  0  0  0  0
  -26.2366  -15.6392   20.0564 H   0  0  0  0  0  0
  -26.7242  -32.5288   23.1015 H   0  0  0  0  0  0
  -25.0037  -33.9602   25.0310 H   0  0  0  0  0  0
  -22.7451  -31.2921   21.3835 H   0  0  0  0  0  0
  -23.3726  -35.9560   23.3290 H   0  0  0  0  0  0
  -24.3574  -36.8881   22.2080 H   0  0  0  0  0  0
  -23.7207  -37.6424   23.6690 H   0  0  0  0  0  0
  -26.1518  -31.4903   20.6130 H   0  0  0  0  0  0
  -26.8732  -30.7861   22.0201 H   0  0  0  0  0  0
  -28.1369  -28.8416   21.2198 H   0  0  0  0  0  0
  -25.9004  -25.8660   19.0168 H   0  0  0  0  0  0
  -23.9773  -27.3094   18.9871 H   0  0  0  0  0  0
  -23.8059  -30.5797   19.3946 H   0  0  0  0  0  0
  -22.7880  -29.2439   19.8333 H   0  0  0  0  0  0
  -25.1282  -36.1829   25.0817 H   0  0  0  0  0  0
  -21.0011  -28.3270   24.1362 H   0  0  0  0  0  0
  -20.5642  -26.2301   23.3601 H   0  0  0  0  0  0
  -21.6637  -26.7407   22.1197 H   0  0  0  0  0  0
  -19.6868  -25.6307   21.1241 H   0  0  0  0  0  0
  -19.6696  -27.3223   20.6751 H   0  0  0  0  0  0
  -17.4187  -26.6717   21.4038 H   0  0  0  0  0  0
  -18.0319  -26.0142   22.9048 H   0  0  0  0  0  0
  -19.7959  -30.7346   24.2180 H   0  0  0  0  0  0
  -17.5048  -31.6289   24.5210 H   0  0  0  0  0  0
  -15.5383  -30.3028   23.7723 H   0  0  0  0  0  0
  -15.8676  -28.0886   22.7069 H   0  0  0  0  0  0
  -24.5878  -30.7106   25.7778 H   0  0  0  0  0  0
  -24.8902  -32.2968   26.4734 H   0  0  0  0  0  0
  -25.8009  -30.9034   27.0237 H   0  0  0  0  0  0
  -26.3013  -29.6676   24.1246 H   0  0  0  0  0  0
  -27.4018  -29.7243   25.4815 H   0  0  0  0  0  0
  -27.8899  -30.4231   23.9572 H   0  0  0  0  0  0
  -27.2595  -33.3642   26.1977 H   0  0  0  0  0  0
  -28.3877  -32.6839   25.0346 H   0  0  0  0  0  0
  -28.0620  -31.8491   26.5478 H   0  0  0  0  0  0
  -28.2545  -38.0090   24.7535 H   0  0  0  0  0  0
  -28.1068  -36.2614   24.6245 H   0  0  0  0  0  0
  -27.2291  -37.1357   25.8885 H   0  0  0  0  0  0
  -20.9436  -29.8786   21.6853 H   0  0  0  0  0  0
  -26.0090  -38.2778   24.1508 H   0  0  0  0  0  0
  -31.5075  -18.1602   20.0017 H   0  0  0  0  0  0
  -27.0755  -19.9331   21.1299 H   0  0  0  0  0  0
  -28.8423  -22.9036   24.1630 H   0  0  0  0  0  0
  -29.9932  -21.8709   23.3444 H   0  0  0  0  0  0
  -31.1741  -23.3261   20.9539 H   0  0  0  0  0  0
  -30.5453  -24.9454   20.8579 H   0  0  0  0  0  0
  -27.3198  -22.8766   22.2617 H   0  0  0  0  0  0
  -27.7407  -21.2686   22.6607 H   0  0  0  0  0  0
  -29.4502  -23.2737   19.3077 H   0  0  0  0  0  0
  -30.3816  -21.4727   18.1539 H   0  0  0  0  0  0
  -32.0253  -20.9215   17.8288 H   0  0  0  0  0  0
  -31.7570  -22.4916   18.6013 H   0  0  0  0  0  0
  -25.5359  -18.4310   21.3671 H   0  0  0  0  0  0
  -26.4676  -18.2772   22.8772 H   0  0  0  0  0  0
  -25.5042  -16.9436   22.2837 H   0  0  0  0  0  0
  -27.2808  -24.5936   21.0523 H   0  0  0  0  0  0
  -27.4092  -24.4673   19.3422 H   0  0  0  0  0  0
  -32.4203  -20.3777   21.4783 H   0  0  0  0  0  0
  -28.7064  -15.6201   20.8791 H   0  0  0  0  0  0
  1 25  1  0  0  0
  1 30  2  0  0  0
  1 88  1  0  0  0
  2  3  1  0  0  0
  2 25  1  0  0  0
  2 91  1  0  0  0
  2 92  1  0  0  0
  3  4  1  0  0  0
  3 93  1  0  0  0
  3 94  1  0  0  0
  4  5  1  0  0  0
  4 95  1  0  0  0
  4 96  1  0  0  0
  5  6  1  0  0  0
  5 26  1  0  0  0
  5 97  1  0  0  0
  6 25  1  0  0  0
  6 98  1  0  0  0
  6 99  1  0  0  0
  7  8  2  0  0  0
  7 26  1  0  0  0
  7 29  1  0  0  0
  8  9  1  0  0  0
  8 22  1  0  0  0
  9 10  1  0  0  0
  9 27  2  0  0  0
 10 11  2  0  0  0
 10 15  1  0  0  0
 11 12  1  0  0  0
 11100  1  0  0  0
 12 13  2  0  0  0
 12101  1  0  0  0
 13 14  1  0  0  0
 13 31  1  0  0  0
 14 15  2  0  0  0
 14102  1  0  0  0
 15103  1  0  0  0
 16 17  2  0  0  0
 16 21  1  0  0  0
 16 31  1  0  0  0
 17 18  1  0  0  0
 17104  1  0  0  0
 18 19  2  0  0  0
 18105  1  0  0  0
 19 20  1  0  0  0
 19 24  1  0  0  0
 20 21  2  0  0  0
 20106  1  0  0  0
 21 23  1  0  0  0
 22 28  1  0  0  0
 22 32  2  0  0  0
 26 27  1  0  0  0
 28107  1  0  0  0
 28108  1  0  0  0
 29109  1  0  0  0
 29110  1  0  0  0
 33 34  1  0  0  0
 33 66  1  0  0  0
 33 70  2  0  0  0
 34 36  1  0  0  0
 34 59  1  0  0  0
 34111  1  0  0  0
 35 44  2  0  0  0
 35 45  1  0  0  0
 35 68  1  0  0  0
 36 56  1  0  0  0
 36112  1  0  0  0
 37 39  1  0  0  0
 37 47  1  0  0  0
 37 66  1  0  0  0
 37113  1  0  0  0
 38 43  2  0  0  0
 38 46  1  0  0  0
 38 47  1  0  0  0
 39 64  1  0  0  0
 39 67  2  0  0  0
 40 52  1  0  0  0
 40 53  2  0  0  0
 40 58  1  0  0  0
 41114  1  0  0  0
 41115  1  0  0  0
 41116  1  0  0  0
 41 48  1  0  0  0
 42 43  1  0  0  0
 42 66  1  0  0  0
 42117  1  0  0  0
 42118  1  0  0  0
 43 44  1  0  0  0
 44119  1  0  0  0
 45 46  2  0  0  0
 45120  1  0  0  0
 46121  1  0  0  0
 47122  1  0  0  0
 47123  1  0  0  0
 48 56  1  0  0  0
 48 65  1  0  0  0
 48124  1  0  0  0
 49 50  1  0  0  0
 49 53  1  0  0  0
 49 64  1  0  0  0
 49125  1  0  0  0
 50 51  1  0  0  0
 50126  1  0  0  0
 50127  1  0  0  0
 51 52  1  0  0  0
 51128  1  0  0  0
 51129  1  0  0  0
 52130  1  0  0  0
 52131  1  0  0  0
 53 54  1  0  0  0
 54 55  2  0  0  0
 54132  1  0  0  0
 55 57  1  0  0  0
 55133  1  0  0  0
 56 69  2  0  0  0
 57 58  2  0  0  0
 57134  1  0  0  0
 58135  1  0  0  0
 59 60  1  0  0  0
 59 61  1  0  0  0
 59 62  1  0  0  0
 60136  1  0  0  0
 60137  1  0  0  0
 60138  1  0  0  0
 61139  1  0  0  0
 61140  1  0  0  0
 61141  1  0  0  0
 62142  1  0  0  0
 62143  1  0  0  0
 62144  1  0  0  0
 63 65  1  0  0  0
 63145  1  0  0  0
 63146  1  0  0  0
 63147  1  0  0  0
 64148  1  0  0  0
 65149  1  0  0  0
 68 85  1  0  0  0
 71 73  2  0  0  0
 71 75  1  0  0  0
 71150  1  0  0  0
 72 74  2  0  0  0
 72 76  1  0  0  0
 72151  1  0  0  0
 73 74  1  0  0  0
 73 78  1  0  0  0
 74 87  1  0  0  0
 75 76  2  0  0  0
 75 88  1  0  0  0
 76 90  1  0  0  0
 77 79  1  0  0  0
 77 80  1  0  0  0
 77 89  2  0  0  0
 78 83  1  0  0  0
 78 86  2  0  0  0
 79 81  1  0  0  0
 79152  1  0  0  0
 79153  1  0  0  0
 80 82  1  0  0  0
 80154  1  0  0  0
 80155  1  0  0  0
 81 87  1  0  0  0
 81156  1  0  0  0
 81157  1  0  0  0
 82 85  1  0  0  0
 82 87  1  0  0  0
 82158  1  0  0  0
 83159  1  0  0  0
 83160  1  0  0  0
 83161  1  0  0  0
 84 90  1  0  0  0
 84162  1  0  0  0
 84163  1  0  0  0
 84164  1  0  0  0
 85165  1  0  0  0
 85166  1  0  0  0
 86167  1  0  0  0
 88168  1  0  0  0
M  ISO  4   1 100  68 101  85 101  88 100
M  END
> <chiral flag>
0

> <version>
0

> <s_m_source_file>
/data/baiqing/PycharmProjects/Reinvent-master-3.2/result/LINK_invent/BTK/process_docking_weight1_custom_product_contain_oxygen_bond_distance_aromatic_linkinvent_7_9_3/rearranged_h_0109.sdf

> <i_m_source_file_index>
16

> <r_mmod_Potential_Energy-OPLS-2005>
410.346588134766

> <r_mmod_Stretch_Energy-OPLS-2005>
222.560180664062

> <r_mmod_Bend_Energy-OPLS-2005>
302.238464355469

> <r_mmod_Torsional_Energy-OPLS-2005>
236.183120727539

> <r_mmod_Improper_Torsional_Energy-OPLS-2005>
7.13022041320801

> <r_mmod_Van_der_Waal_Energy-OPLS-2005>
149.994598388672

> <r_mmod_Electrostatic_Energy-OPLS-2005>
-435.190826416016

> <r_mmod_Solvation_Energy-OPLS-2005>
-239.385498046875

> <b_mmod_Minimization_Converged-OPLS-2005>
0

> <r_mmod_RMS_Derivative-OPLS-2005>
3.2933509349823

$$$$
16
                    3D
 Structure written by MMmdl.
159167  0  0  1  0            999 V2000
  -30.7069  -14.4871   20.5965 C   0  0  0  0  0  0
  -30.4262  -12.3319   19.4113 C   0  0  0  0  0  0
  -29.4912  -12.5067   18.1979 C   0  0  0  0  0  0
  -28.0134  -12.3608   18.6149 C   0  0  0  0  0  0
  -27.6583  -13.2079   19.8665 C   0  0  2  0  0  0
  -28.7019  -12.9997   20.9846 C   0  0  0  0  0  0
  -25.2569  -13.8155   20.5664 C   0  0  0  0  0  0
  -24.1830  -13.0437   20.9168 C   0  0  0  0  0  0
  -24.6391  -11.6898   20.8727 C   0  0  0  0  0  0
  -23.9058  -10.4288   21.0401 C   0  0  0  0  0  0
  -24.3615   -9.4207   21.9186 C   0  0  0  0  0  0
  -23.6292   -8.2243   22.0755 C   0  0  0  0  0  0
  -22.4274   -8.0281   21.3541 C   0  0  0  0  0  0
  -21.9905   -9.0253   20.4642 C   0  0  0  0  0  0
  -22.7228  -10.2133   20.3053 C   0  0  0  0  0  0
  -21.6852   -6.0733   22.5277 C   0  0  0  0  0  0
  -21.4016   -6.5640   23.8208 C   0  0  0  0  0  0
  -21.3658   -5.6793   24.9174 C   0  0  0  0  0  0
  -21.6042   -4.3055   24.7224 C   0  0  0  0  0  0
  -21.8825   -3.8148   23.4343 C   0  0  0  0  0  0
  -21.9193   -4.6962   22.3401 C   0  0  0  0  0  0
  -22.7849  -13.5227   21.1840 C   0  0  0  0  0  0
  -22.1661   -4.2148   21.0977 F   0  0  0  0  0  0
  -21.5627   -3.4543   25.7738 F   0  0  0  0  0  0
  -30.0253  -13.3205   20.4240 N   0  0  0  0  0  0
  -26.3013  -12.9338   20.3340 N   0  0  0  0  0  0
  -25.9323  -11.6492   20.5751 N   0  0  0  0  0  0
  -22.0498  -12.8225   22.0396 N   0  0  0  0  0  0
  -25.4290  -15.1874   20.4061 N   0  0  0  0  0  0
  -31.8360  -14.6742   20.1370 O   0  0  0  0  0  0
  -21.6634   -6.8880   21.4239 O   0  0  0  0  0  0
  -22.3534  -14.5538   20.6688 O   0  0  0  0  0  0
  -24.6159  -31.8675   23.2084 C   0  0  0  0  0  0
  -25.9051  -32.4815   23.8373 C   0  0  1  0  0  0
  -27.2316  -27.4152   20.0877 C   0  0  0  0  0  0
  -25.5900  -33.8614   24.2299 N   0  0  0  0  0  0
  -23.4053  -30.4922   21.5500 C   0  0  2  0  0  0
  -24.8496  -28.9593   20.1114 C   0  0  0  0  0  0
  -22.7410  -29.4664   22.4968 C   0  0  0  0  0  0
  -18.0281  -28.1378   22.8465 C   0  0  0  0  0  0
  -24.1509  -36.7322   23.2635 C   0  0  0  0  0  0
  -25.9387  -30.8247   21.3678 C   0  0  0  0  0  0
  -26.0133  -29.4605   20.7087 C   0  0  0  0  0  0
  -27.2061  -28.6967   20.6926 C   0  0  0  0  0  0
  -26.0443  -26.9411   19.4786 C   0  0  0  0  0  0
  -24.8612  -27.7003   19.4923 C   0  0  0  0  0  0
  -23.6134  -29.8273   20.1643 C   0  0  0  0  0  0
  -25.4125  -36.3106   24.0334 C   0  0  1  0  0  0
  -20.5872  -28.3672   23.1297 C   0  0  2  0  0  0
  -20.6789  -26.9406   22.5409 C   0  0  0  0  0  0
  -19.5766  -26.6389   21.5202 C   0  0  0  0  0  0
  -18.1930  -26.7921   22.1607 C   0  0  0  0  0  0
  -19.1526  -28.8835   23.2876 C   0  0  0  0  0  0
  -18.9459  -30.1442   23.8884 C   0  0  0  0  0  0
  -17.6470  -30.6578   24.0561 C   0  0  0  0  0  0
  -25.9055  -34.9475   23.5115 C   0  0  0  0  0  0
  -16.5351  -29.9081   23.6337 C   0  0  0  0  0  0
  -16.7267  -28.6505   23.0336 C   0  0  0  0  0  0
  -26.4466  -31.6595   25.0707 C   0  0  0  0  0  0
  -25.3713  -31.3724   26.1445 C   0  0  0  0  0  0
  -27.0295  -30.3031   24.6114 C   0  0  0  0  0  0
  -27.6032  -32.4320   25.7469 C   0  0  0  0  0  0
  -27.5595  -37.1808   24.8454 C   0  0  0  0  0  0
  -21.4140  -29.3036   22.3704 N   0  0  0  0  0  0
  -26.4310  -37.3794   23.9402 N   0  0  0  0  0  0
  -24.6714  -31.0753   22.1002 N   0  0  0  0  0  0
  -23.4165  -28.8207   23.3025 O   0  0  0  0  0  0
  -28.3970  -26.6610   20.1118 O   0  0  0  0  0  0
  -26.5622  -34.8931   22.4685 O   0  0  0  0  0  0
  -23.5356  -32.1450   23.7467 O   0  0  0  0  0  0
  -30.1597  -18.4250   20.2737 C   0  0  0  0  0  0
  -30.5621  -20.4131   22.2133 C   0  0  0  0  0  0
  -30.4509  -18.0301   21.6048 C   0  0  0  0  0  0
  -30.6258  -19.0500   22.5796 C   0  0  0  0  0  0
  -30.0938  -19.7985   19.9148 C   0  0  0  0  0  0
  -30.3171  -20.8083   20.8861 C   0  0  0  0  0  0
  -30.9134  -18.7148   24.0371 C   0  0  0  0  0  0
  -30.6755  -16.5545   22.0129 C   0  0  0  0  0  0
  -29.4969  -24.4038   20.2981 C   0  0  0  0  0  0
  -28.2640  -25.2418   19.8816 C   0  0  0  0  0  0
  -29.2418  -22.8708   20.2416 C   0  0  0  0  0  0
  -29.8677  -20.1639   18.5888 N   0  0  0  0  0  0
  -30.0479  -15.4615   21.2542 N   0  0  0  0  0  0
  -30.4337  -22.1528   20.5720 O   0  0  0  0  0  0
  -31.4674  -12.4454   19.1045 H   0  0  0  0  0  0
  -30.3449  -11.3235   19.8200 H   0  0  0  0  0  0
  -29.7346  -11.7739   17.4269 H   0  0  0  0  0  0
  -29.6505  -13.4891   17.7490 H   0  0  0  0  0  0
  -27.8298  -11.3048   18.8191 H   0  0  0  0  0  0
  -27.3607  -12.6275   17.7824 H   0  0  0  0  0  0
  -27.6984  -14.2549   19.5632 H   0  0  0  0  0  0
  -28.6913  -11.9634   21.3251 H   0  0  0  0  0  0
  -28.4568  -13.5951   21.8650 H   0  0  0  0  0  0
  -25.2765   -9.5683   22.4751 H   0  0  0  0  0  0
  -24.0000   -7.4634   22.7477 H   0  0  0  0  0  0
  -21.0837   -8.8772   19.8949 H   0  0  0  0  0  0
  -22.3693  -10.9673   19.6156 H   0  0  0  0  0  0
  -21.2016   -7.6148   23.9715 H   0  0  0  0  0  0
  -21.1470   -6.0521   25.9074 H   0  0  0  0  0  0
  -22.0604   -2.7608   23.2844 H   0  0  0  0  0  0
  -22.4123  -11.9885   22.4777 H   0  0  0  0  0  0
  -21.1111  -13.1244   22.2607 H   0  0  0  0  0  0
  -24.6643  -15.8438   20.5162 H   0  0  0  0  0  0
  -26.2827  -15.6247   20.0843 H   0  0  0  0  0  0
  -26.7115  -32.5516   23.1122 H   0  0  0  0  0  0
  -25.0012  -33.9761   25.0422 H   0  0  0  0  0  0
  -22.6941  -31.3088   21.4097 H   0  0  0  0  0  0
  -23.3764  -35.9665   23.3301 H   0  0  0  0  0  0
  -24.3594  -36.8943   22.2052 H   0  0  0  0  0  0
  -23.7271  -37.6531   23.6650 H   0  0  0  0  0  0
  -26.0590  -31.5938   20.6038 H   0  0  0  0  0  0
  -26.8239  -30.8697   21.9912 H   0  0  0  0  0  0
  -28.1038  -29.0793   21.1561 H   0  0  0  0  0  0
  -26.0052  -25.9826   18.9815 H   0  0  0  0  0  0
  -23.9691  -27.3109   19.0217 H   0  0  0  0  0  0
  -23.7173  -30.6028   19.4035 H   0  0  0  0  0  0
  -22.7376  -29.2450   19.8718 H   0  0  0  0  0  0
  -25.1298  -36.1974   25.0829 H   0  0  0  0  0  0
  -20.9947  -28.3261   24.1426 H   0  0  0  0  0  0
  -20.5732  -26.2263   23.3597 H   0  0  0  0  0  0
  -21.6657  -26.7488   22.1158 H   0  0  0  0  0  0
  -19.6953  -25.6304   21.1223 H   0  0  0  0  0  0
  -19.6730  -27.3219   20.6743 H   0  0  0  0  0  0
  -17.4213  -26.6661   21.3999 H   0  0  0  0  0  0
  -18.0331  -26.0073   22.9015 H   0  0  0  0  0  0
  -19.7952  -30.7248   24.2254 H   0  0  0  0  0  0
  -17.5037  -31.6273   24.5153 H   0  0  0  0  0  0
  -15.5349  -30.2976   23.7696 H   0  0  0  0  0  0
  -15.8666  -28.0840   22.7031 H   0  0  0  0  0  0
  -24.5889  -30.7071   25.7787 H   0  0  0  0  0  0
  -24.8885  -32.2884   26.4863 H   0  0  0  0  0  0
  -25.8037  -30.8912   27.0223 H   0  0  0  0  0  0
  -26.2852  -29.6792   24.1154 H   0  0  0  0  0  0
  -27.4044  -29.7274   25.4580 H   0  0  0  0  0  0
  -27.8695  -30.4339   23.9285 H   0  0  0  0  0  0
  -27.2652  -33.3625   26.2053 H   0  0  0  0  0  0
  -28.3833  -32.6884   25.0283 H   0  0  0  0  0  0
  -28.0719  -31.8441   26.5381 H   0  0  0  0  0  0
  -28.2583  -38.0128   24.7526 H   0  0  0  0  0  0
  -28.1116  -36.2661   24.6247 H   0  0  0  0  0  0
  -27.2306  -37.1419   25.8850 H   0  0  0  0  0  0
  -20.9315  -29.8716   21.6885 H   0  0  0  0  0  0
  -26.0204  -38.2871   24.1412 H   0  0  0  0  0  0
  -30.0344  -17.6649   19.5153 H   0  0  0  0  0  0
  -30.7339  -21.1758   22.9590 H   0  0  0  0  0  0
  -31.2016  -19.5996   24.6049 H   0  0  0  0  0  0
  -31.7253  -17.9930   24.1307 H   0  0  0  0  0  0
  -30.0254  -18.2976   24.5123 H   0  0  0  0  0  0
  -30.2957  -16.4178   23.0256 H   0  0  0  0  0  0
  -31.7523  -16.3919   22.0910 H   0  0  0  0  0  0
  -29.7970  -24.6797   21.3097 H   0  0  0  0  0  0
  -30.3361  -24.6557   19.6486 H   0  0  0  0  0  0
  -27.4060  -24.8631   20.4403 H   0  0  0  0  0  0
  -28.0672  -25.0669   18.8229 H   0  0  0  0  0  0
  -28.9135  -22.5939   19.2415 H   0  0  0  0  0  0
  -28.4419  -22.6002   20.9324 H   0  0  0  0  0  0
  -30.0167  -19.4716   17.8639 H   0  0  0  0  0  0
  -30.2072  -21.0827   18.3243 H   0  0  0  0  0  0
  -29.0959  -15.2449   21.5060 H   0  0  0  0  0  0
  1 25  1  0  0  0
  1 30  2  0  0  0
  1 83  1  0  0  0
  2  3  1  0  0  0
  2 25  1  0  0  0
  2 85  1  0  0  0
  2 86  1  0  0  0
  3  4  1  0  0  0
  3 87  1  0  0  0
  3 88  1  0  0  0
  4  5  1  0  0  0
  4 89  1  0  0  0
  4 90  1  0  0  0
  5  6  1  0  0  0
  5 26  1  0  0  0
  5 91  1  0  0  0
  6 25  1  0  0  0
  6 92  1  0  0  0
  6 93  1  0  0  0
  7  8  2  0  0  0
  7 26  1  0  0  0
  7 29  1  0  0  0
  8  9  1  0  0  0
  8 22  1  0  0  0
  9 10  1  0  0  0
  9 27  2  0  0  0
 10 11  2  0  0  0
 10 15  1  0  0  0
 11 12  1  0  0  0
 11 94  1  0  0  0
 12 13  2  0  0  0
 12 95  1  0  0  0
 13 14  1  0  0  0
 13 31  1  0  0  0
 14 15  2  0  0  0
 14 96  1  0  0  0
 15 97  1  0  0  0
 16 17  2  0  0  0
 16 21  1  0  0  0
 16 31  1  0  0  0
 17 18  1  0  0  0
 17 98  1  0  0  0
 18 19  2  0  0  0
 18 99  1  0  0  0
 19 20  1  0  0  0
 19 24  1  0  0  0
 20 21  2  0  0  0
 20100  1  0  0  0
 21 23  1  0  0  0
 22 28  1  0  0  0
 22 32  2  0  0  0
 26 27  1  0  0  0
 28101  1  0  0  0
 28102  1  0  0  0
 29103  1  0  0  0
 29104  1  0  0  0
 33 34  1  0  0  0
 33 66  1  0  0  0
 33 70  2  0  0  0
 34 36  1  0  0  0
 34 59  1  0  0  0
 34105  1  0  0  0
 35 44  2  0  0  0
 35 45  1  0  0  0
 35 68  1  0  0  0
 36 56  1  0  0  0
 36106  1  0  0  0
 37 39  1  0  0  0
 37 47  1  0  0  0
 37 66  1  0  0  0
 37107  1  0  0  0
 38 43  2  0  0  0
 38 46  1  0  0  0
 38 47  1  0  0  0
 39 64  1  0  0  0
 39 67  2  0  0  0
 40 52  1  0  0  0
 40 53  2  0  0  0
 40 58  1  0  0  0
 41108  1  0  0  0
 41109  1  0  0  0
 41110  1  0  0  0
 41 48  1  0  0  0
 42 43  1  0  0  0
 42 66  1  0  0  0
 42111  1  0  0  0
 42112  1  0  0  0
 43 44  1  0  0  0
 44113  1  0  0  0
 45 46  2  0  0  0
 45114  1  0  0  0
 46115  1  0  0  0
 47116  1  0  0  0
 47117  1  0  0  0
 48 56  1  0  0  0
 48 65  1  0  0  0
 48118  1  0  0  0
 49 50  1  0  0  0
 49 53  1  0  0  0
 49 64  1  0  0  0
 49119  1  0  0  0
 50 51  1  0  0  0
 50120  1  0  0  0
 50121  1  0  0  0
 51 52  1  0  0  0
 51122  1  0  0  0
 51123  1  0  0  0
 52124  1  0  0  0
 52125  1  0  0  0
 53 54  1  0  0  0
 54 55  2  0  0  0
 54126  1  0  0  0
 55 57  1  0  0  0
 55127  1  0  0  0
 56 69  2  0  0  0
 57 58  2  0  0  0
 57128  1  0  0  0
 58129  1  0  0  0
 59 60  1  0  0  0
 59 61  1  0  0  0
 59 62  1  0  0  0
 60130  1  0  0  0
 60131  1  0  0  0
 60132  1  0  0  0
 61133  1  0  0  0
 61134  1  0  0  0
 61135  1  0  0  0
 62136  1  0  0  0
 62137  1  0  0  0
 62138  1  0  0  0
 63 65  1  0  0  0
 63139  1  0  0  0
 63140  1  0  0  0
 63141  1  0  0  0
 64142  1  0  0  0
 65143  1  0  0  0
 68 80  1  0  0  0
 71 73  2  0  0  0
 71 75  1  0  0  0
 71144  1  0  0  0
 72 74  2  0  0  0
 72 76  1  0  0  0
 72145  1  0  0  0
 73 74  1  0  0  0
 73 78  1  0  0  0
 74 77  1  0  0  0
 75 76  2  0  0  0
 75 82  1  0  0  0
 76 84  1  0  0  0
 77146  1  0  0  0
 77147  1  0  0  0
 77148  1  0  0  0
 78 83  1  0  0  0
 78149  1  0  0  0
 78150  1  0  0  0
 79 80  1  0  0  0
 79 81  1  0  0  0
 79151  1  0  0  0
 79152  1  0  0  0
 80153  1  0  0  0
 80154  1  0  0  0
 81 84  1  0  0  0
 81155  1  0  0  0
 81156  1  0  0  0
 82157  1  0  0  0
 82158  1  0  0  0
 83159  1  0  0  0
M  ISO  4   1 100  68 101  80 101  83 100
M  END
> <chiral flag>
0

> <version>
0

> <s_m_source_file>
/data/baiqing/PycharmProjects/Reinvent-master-3.2/result/LINK_invent/BTK/process_docking_weight1_custom_product_contain_oxygen_bond_distance_aromatic_linkinvent_7_9_3/rearranged_h_0109.sdf

> <i_m_source_file_index>
17

> <r_mmod_Potential_Energy-OPLS-2005>
-125.738906860352

> <r_mmod_Stretch_Energy-OPLS-2005>
41.6724700927734

> <r_mmod_Bend_Energy-OPLS-2005>
105.88077545166

> <r_mmod_Torsional_Energy-OPLS-2005>
230.931289672852

> <r_mmod_Improper_Torsional_Energy-OPLS-2005>
7.47360992431641

> <r_mmod_Van_der_Waal_Energy-OPLS-2005>
157.685958862305

> <r_mmod_Electrostatic_Energy-OPLS-2005>
-463.920684814453

> <r_mmod_Solvation_Energy-OPLS-2005>
-221.347640991211

> <b_mmod_Minimization_Converged-OPLS-2005>
0

> <r_mmod_RMS_Derivative-OPLS-2005>
2.43407273292542

$$$$
17
                    3D
 Structure written by MMmdl.
161169  0  0  1  0            999 V2000
  -30.7348  -14.5103   20.5734 C   0  0  0  0  0  0
  -30.4141  -12.3457   19.4175 C   0  0  0  0  0  0
  -29.4941  -12.5320   18.1952 C   0  0  0  0  0  0
  -28.0149  -12.3808   18.6078 C   0  0  0  0  0  0
  -27.6531  -13.2240   19.8609 C   0  0  2  0  0  0
  -28.7043  -13.0643   20.9807 C   0  0  0  0  0  0
  -25.2589  -13.8156   20.5706 C   0  0  0  0  0  0
  -24.1853  -13.0407   20.9186 C   0  0  0  0  0  0
  -24.6434  -11.6905   20.8739 C   0  0  0  0  0  0
  -23.9109  -10.4285   21.0384 C   0  0  0  0  0  0
  -24.3648   -9.4198   21.9155 C   0  0  0  0  0  0
  -23.6317   -8.2234   22.0729 C   0  0  0  0  0  0
  -22.4304   -8.0268   21.3512 C   0  0  0  0  0  0
  -21.9945   -9.0256   20.4627 C   0  0  0  0  0  0
  -22.7283  -10.2136   20.3032 C   0  0  0  0  0  0
  -21.6860   -6.0731   22.5275 C   0  0  0  0  0  0
  -21.4035   -6.5645   23.8218 C   0  0  0  0  0  0
  -21.3677   -5.6789   24.9167 C   0  0  0  0  0  0
  -21.6052   -4.3040   24.7215 C   0  0  0  0  0  0
  -21.8830   -3.8139   23.4337 C   0  0  0  0  0  0
  -21.9207   -4.6962   22.3398 C   0  0  0  0  0  0
  -22.7890  -13.5217   21.1831 C   0  0  0  0  0  0
  -22.1669   -4.2181   21.0971 F   0  0  0  0  0  0
  -21.5620   -3.4515   25.7715 F   0  0  0  0  0  0
  -30.0237  -13.3599   20.4058 N   0  0  0  0  0  0
  -26.3027  -12.9374   20.3359 N   0  0  0  0  0  0
  -25.9372  -11.6513   20.5742 N   0  0  0  0  0  0
  -22.0537  -12.8210   22.0389 N   0  0  0  0  0  0
  -25.4224  -15.1870   20.4125 N   0  0  0  0  0  0
  -31.9229  -14.5872   20.2482 O   0  0  0  0  0  0
  -21.6633   -6.8880   21.4235 O   0  0  0  0  0  0
  -22.3608  -14.5532   20.6698 O   0  0  0  0  0  0
  -24.6217  -31.8684   23.2091 C   0  0  0  0  0  0
  -25.9115  -32.4802   23.8381 C   0  0  1  0  0  0
  -27.2231  -27.3989   20.0694 C   0  0  0  0  0  0
  -25.5975  -33.8602   24.2300 N   0  0  0  0  0  0
  -23.4092  -30.4980   21.5533 C   0  0  2  0  0  0
  -24.8468  -28.9632   20.1161 C   0  0  0  0  0  0
  -22.7454  -29.4661   22.4970 C   0  0  0  0  0  0
  -18.0287  -28.1389   22.8477 C   0  0  0  0  0  0
  -24.1517  -36.7296   23.2625 C   0  0  0  0  0  0
  -25.9467  -30.8233   21.3670 C   0  0  0  0  0  0
  -26.0176  -29.4615   20.6959 C   0  0  0  0  0  0
  -27.2070  -28.6932   20.6582 C   0  0  0  0  0  0
  -26.0087  -26.9114   19.5271 C   0  0  0  0  0  0
  -24.8355  -27.6874   19.5367 C   0  0  0  0  0  0
  -23.6217  -29.8479   20.1623 C   0  0  0  0  0  0
  -25.4140  -36.3085   24.0322 C   0  0  1  0  0  0
  -20.5887  -28.3685   23.1320 C   0  0  2  0  0  0
  -20.6804  -26.9426   22.5418 C   0  0  0  0  0  0
  -19.5773  -26.6382   21.5240 C   0  0  0  0  0  0
  -18.1942  -26.7943   22.1636 C   0  0  0  0  0  0
  -19.1531  -28.8849   23.2899 C   0  0  0  0  0  0
  -18.9444  -30.1450   23.8934 C   0  0  0  0  0  0
  -17.6446  -30.6596   24.0575 C   0  0  0  0  0  0
  -25.9076  -34.9459   23.5097 C   0  0  0  0  0  0
  -16.5335  -29.9111   23.6303 C   0  0  0  0  0  0
  -16.7266  -28.6523   23.0321 C   0  0  0  0  0  0
  -26.4485  -31.6596   25.0739 C   0  0  0  0  0  0
  -25.3663  -31.3799   26.1421 C   0  0  0  0  0  0
  -27.0311  -30.3004   24.6180 C   0  0  0  0  0  0
  -27.6048  -32.4321   25.7520 C   0  0  0  0  0  0
  -27.5602  -37.1819   24.8445 C   0  0  0  0  0  0
  -21.4174  -29.3055   22.3729 N   0  0  0  0  0  0
  -26.4300  -37.3790   23.9400 N   0  0  0  0  0  0
  -24.6778  -31.0782   22.0991 N   0  0  0  0  0  0
  -23.4214  -28.8168   23.2996 O   0  0  0  0  0  0
  -28.4101  -26.6725   20.0740 O   0  0  0  0  0  0
  -26.5615  -34.8912   22.4644 O   0  0  0  0  0  0
  -23.5401  -32.1435   23.7473 O   0  0  0  0  0  0
  -29.8846  -17.8209   18.9416 C   0  0  0  0  0  0
  -29.5619  -20.1924   18.5399 C   0  0  0  0  0  0
  -30.0331  -18.0360   20.3264 C   0  0  0  0  0  0
  -29.8997  -19.3784   20.8329 C   0  0  0  0  0  0
  -29.6947  -18.8756   18.0415 C   0  0  0  0  0  0
  -29.6408  -20.4655   19.9310 C   0  0  0  0  0  0
  -30.7689  -20.6940   22.7868 C   0  0  0  0  0  0
  -30.0673  -19.6654   22.2771 C   0  0  0  0  0  0
  -30.5237  -16.8444   21.1417 C   0  0  0  0  0  0
  -30.0305  -19.5016   15.7513 C   0  0  0  0  0  0
  -28.9066  -24.2078   20.2958 C   0  0  0  0  0  0
  -28.5580  -25.4130   19.3654 C   0  0  0  0  0  0
  -29.1596  -22.8579   19.5534 C   0  0  0  0  0  0
  -30.0132  -15.6259   20.8375 N   0  0  0  0  0  0
  -31.3976  -16.9995   22.0011 O   0  0  0  0  0  0
  -29.6596  -18.5245   16.7115 O   0  0  0  0  0  0
  -29.4664  -21.7595   20.4393 O   0  0  0  0  0  0
  -31.4622  -12.4314   19.1217 H   0  0  0  0  0  0
  -30.2922  -11.3449   19.8350 H   0  0  0  0  0  0
  -29.7410  -11.8078   17.4196 H   0  0  0  0  0  0
  -29.6567  -13.5174   17.7542 H   0  0  0  0  0  0
  -27.8317  -11.3229   18.7968 H   0  0  0  0  0  0
  -27.3644  -12.6533   17.7767 H   0  0  0  0  0  0
  -27.6698  -14.2669   19.5440 H   0  0  0  0  0  0
  -28.6884  -12.0497   21.3825 H   0  0  0  0  0  0
  -28.4805  -13.7223   21.8199 H   0  0  0  0  0  0
  -25.2793   -9.5692   22.4731 H   0  0  0  0  0  0
  -24.0042   -7.4637   22.7448 H   0  0  0  0  0  0
  -21.0869   -8.8800   19.8934 H   0  0  0  0  0  0
  -22.3729  -10.9690   19.6159 H   0  0  0  0  0  0
  -21.2027   -7.6152   23.9748 H   0  0  0  0  0  0
  -21.1492   -6.0485   25.9088 H   0  0  0  0  0  0
  -22.0595   -2.7610   23.2810 H   0  0  0  0  0  0
  -22.4161  -11.9897   22.4818 H   0  0  0  0  0  0
  -21.1151  -13.1263   22.2520 H   0  0  0  0  0  0
  -24.6475  -15.8320   20.5160 H   0  0  0  0  0  0
  -26.2661  -15.6408   20.0875 H   0  0  0  0  0  0
  -26.7218  -32.5475   23.1176 H   0  0  0  0  0  0
  -25.0158  -33.9767   25.0459 H   0  0  0  0  0  0
  -22.6994  -31.3166   21.4197 H   0  0  0  0  0  0
  -23.3776  -35.9634   23.3268 H   0  0  0  0  0  0
  -24.3622  -36.8920   22.2042 H   0  0  0  0  0  0
  -23.7274  -37.6499   23.6645 H   0  0  0  0  0  0
  -26.0829  -31.6081   20.6214 H   0  0  0  0  0  0
  -26.8236  -30.8527   22.0026 H   0  0  0  0  0  0
  -28.1147  -29.0926   21.0872 H   0  0  0  0  0  0
  -25.9047  -25.9198   19.1205 H   0  0  0  0  0  0
  -23.9189  -27.2880   19.1244 H   0  0  0  0  0  0
  -23.7662  -30.6366   19.4218 H   0  0  0  0  0  0
  -22.7371  -29.2987   19.8358 H   0  0  0  0  0  0
  -25.1332  -36.1948   25.0821 H   0  0  0  0  0  0
  -20.9959  -28.3231   24.1459 H   0  0  0  0  0  0
  -20.5780  -26.2283   23.3597 H   0  0  0  0  0  0
  -21.6664  -26.7535   22.1172 H   0  0  0  0  0  0
  -19.6954  -25.6289   21.1292 H   0  0  0  0  0  0
  -19.6724  -27.3171   20.6751 H   0  0  0  0  0  0
  -17.4239  -26.6681   21.4012 H   0  0  0  0  0  0
  -18.0317  -26.0085   22.9027 H   0  0  0  0  0  0
  -19.7897  -30.7255   24.2353 H   0  0  0  0  0  0
  -17.4985  -31.6275   24.5165 H   0  0  0  0  0  0
  -15.5341  -30.3035   23.7597 H   0  0  0  0  0  0
  -15.8661  -28.0874   22.7014 H   0  0  0  0  0  0
  -24.5764  -30.7275   25.7670 H   0  0  0  0  0  0
  -24.8941  -32.3016   26.4823 H   0  0  0  0  0  0
  -25.7877  -30.8891   27.0189 H   0  0  0  0  0  0
  -26.2912  -29.6816   24.1071 H   0  0  0  0  0  0
  -27.3852  -29.7220   25.4720 H   0  0  0  0  0  0
  -27.8848  -30.4277   23.9521 H   0  0  0  0  0  0
  -27.2639  -33.3579   26.2165 H   0  0  0  0  0  0
  -28.3826  -32.6952   25.0343 H   0  0  0  0  0  0
  -28.0741  -31.8393   26.5373 H   0  0  0  0  0  0
  -28.2595  -38.0136   24.7520 H   0  0  0  0  0  0
  -28.1133  -36.2676   24.6254 H   0  0  0  0  0  0
  -27.2311  -37.1434   25.8837 H   0  0  0  0  0  0
  -20.9340  -29.8794   21.6971 H   0  0  0  0  0  0
  -26.0182  -38.2868   24.1391 H   0  0  0  0  0  0
  -30.0064  -16.8314   18.5246 H   0  0  0  0  0  0
  -29.3872  -20.9974   17.8458 H   0  0  0  0  0  0
  -30.8254  -20.8696   23.8530 H   0  0  0  0  0  0
  -31.3043  -21.3819   22.1465 H   0  0  0  0  0  0
  -29.5569  -19.0043   22.9647 H   0  0  0  0  0  0
  -31.0522  -19.8513   15.9072 H   0  0  0  0  0  0
  -29.3521  -20.3529   15.7566 H   0  0  0  0  0  0
  -29.9872  -19.0566   14.7579 H   0  0  0  0  0  0
  -28.1088  -24.0723   21.0284 H   0  0  0  0  0  0
  -29.8061  -24.4569   20.8637 H   0  0  0  0  0  0
  -27.7291  -25.1512   18.7120 H   0  0  0  0  0  0
  -29.3917  -25.5535   18.6762 H   0  0  0  0  0  0
  -29.9878  -22.9910   18.8558 H   0  0  0  0  0  0
  -28.2705  -22.6123   18.9723 H   0  0  0  0  0  0
  -29.0531  -15.6037   20.5418 H   0  0  0  0  0  0
  1 25  1  0  0  0
  1 30  2  0  0  0
  1 84  1  0  0  0
  2  3  1  0  0  0
  2 25  1  0  0  0
  2 88  1  0  0  0
  2 89  1  0  0  0
  3  4  1  0  0  0
  3 90  1  0  0  0
  3 91  1  0  0  0
  4  5  1  0  0  0
  4 92  1  0  0  0
  4 93  1  0  0  0
  5  6  1  0  0  0
  5 26  1  0  0  0
  5 94  1  0  0  0
  6 25  1  0  0  0
  6 95  1  0  0  0
  6 96  1  0  0  0
  7  8  2  0  0  0
  7 26  1  0  0  0
  7 29  1  0  0  0
  8  9  1  0  0  0
  8 22  1  0  0  0
  9 10  1  0  0  0
  9 27  2  0  0  0
 10 11  2  0  0  0
 10 15  1  0  0  0
 11 12  1  0  0  0
 11 97  1  0  0  0
 12 13  2  0  0  0
 12 98  1  0  0  0
 13 14  1  0  0  0
 13 31  1  0  0  0
 14 15  2  0  0  0
 14 99  1  0  0  0
 15100  1  0  0  0
 16 17  2  0  0  0
 16 21  1  0  0  0
 16 31  1  0  0  0
 17 18  1  0  0  0
 17101  1  0  0  0
 18 19  2  0  0  0
 18102  1  0  0  0
 19 20  1  0  0  0
 19 24  1  0  0  0
 20 21  2  0  0  0
 20103  1  0  0  0
 21 23  1  0  0  0
 22 28  1  0  0  0
 22 32  2  0  0  0
 26 27  1  0  0  0
 28104  1  0  0  0
 28105  1  0  0  0
 29106  1  0  0  0
 29107  1  0  0  0
 33 34  1  0  0  0
 33 66  1  0  0  0
 33 70  2  0  0  0
 34 36  1  0  0  0
 34 59  1  0  0  0
 34108  1  0  0  0
 35 44  2  0  0  0
 35 45  1  0  0  0
 35 68  1  0  0  0
 36 56  1  0  0  0
 36109  1  0  0  0
 37 39  1  0  0  0
 37 47  1  0  0  0
 37 66  1  0  0  0
 37110  1  0  0  0
 38 43  2  0  0  0
 38 46  1  0  0  0
 38 47  1  0  0  0
 39 64  1  0  0  0
 39 67  2  0  0  0
 40 52  1  0  0  0
 40 53  2  0  0  0
 40 58  1  0  0  0
 41111  1  0  0  0
 41112  1  0  0  0
 41113  1  0  0  0
 41 48  1  0  0  0
 42 43  1  0  0  0
 42 66  1  0  0  0
 42114  1  0  0  0
 42115  1  0  0  0
 43 44  1  0  0  0
 44116  1  0  0  0
 45 46  2  0  0  0
 45117  1  0  0  0
 46118  1  0  0  0
 47119  1  0  0  0
 47120  1  0  0  0
 48 56  1  0  0  0
 48 65  1  0  0  0
 48121  1  0  0  0
 49 50  1  0  0  0
 49 53  1  0  0  0
 49 64  1  0  0  0
 49122  1  0  0  0
 50 51  1  0  0  0
 50123  1  0  0  0
 50124  1  0  0  0
 51 52  1  0  0  0
 51125  1  0  0  0
 51126  1  0  0  0
 52127  1  0  0  0
 52128  1  0  0  0
 53 54  1  0  0  0
 54 55  2  0  0  0
 54129  1  0  0  0
 55 57  1  0  0  0
 55130  1  0  0  0
 56 69  2  0  0  0
 57 58  2  0  0  0
 57131  1  0  0  0
 58132  1  0  0  0
 59 60  1  0  0  0
 59 61  1  0  0  0
 59 62  1  0  0  0
 60133  1  0  0  0
 60134  1  0  0  0
 60135  1  0  0  0
 61136  1  0  0  0
 61137  1  0  0  0
 61138  1  0  0  0
 62139  1  0  0  0
 62140  1  0  0  0
 62141  1  0  0  0
 63 65  1  0  0  0
 63142  1  0  0  0
 63143  1  0  0  0
 63144  1  0  0  0
 64145  1  0  0  0
 65146  1  0  0  0
 68 82  1  0  0  0
 71 73  2  0  0  0
 71 75  1  0  0  0
 71147  1  0  0  0
 72 75  2  0  0  0
 72 76  1  0  0  0
 72148  1  0  0  0
 73 74  1  0  0  0
 73 79  1  0  0  0
 74 76  2  0  0  0
 74 78  1  0  0  0
 75 86  1  0  0  0
 76 87  1  0  0  0
 77 78  2  0  0  0
 77149  1  0  0  0
 77150  1  0  0  0
 78151  1  0  0  0
 79 84  1  0  0  0
 79 85  2  0  0  0
 80 86  1  0  0  0
 80152  1  0  0  0
 80153  1  0  0  0
 80154  1  0  0  0
 81 82  1  0  0  0
 81 83  1  0  0  0
 81155  1  0  0  0
 81156  1  0  0  0
 82157  1  0  0  0
 82158  1  0  0  0
 83 87  1  0  0  0
 83159  1  0  0  0
 83160  1  0  0  0
 84161  1  0  0  0
M  ISO  4   1 100  68 101  82 101  84 100
M  END
> <chiral flag>
0

> <version>
0

> <s_m_source_file>
/data/baiqing/PycharmProjects/Reinvent-master-3.2/result/LINK_invent/BTK/process_docking_weight1_custom_product_contain_oxygen_bond_distance_aromatic_linkinvent_7_9_3/rearranged_h_0109.sdf

> <i_m_source_file_index>
18

> <r_mmod_Potential_Energy-OPLS-2005>
-21.5970287322998

> <r_mmod_Stretch_Energy-OPLS-2005>
52.8735084533691

> <r_mmod_Bend_Energy-OPLS-2005>
128.358856201172

> <r_mmod_Torsional_Energy-OPLS-2005>
280.489776611328

> <r_mmod_Improper_Torsional_Energy-OPLS-2005>
8.51747035980225

> <r_mmod_Van_der_Waal_Energy-OPLS-2005>
169.972610473633

> <r_mmod_Electrostatic_Energy-OPLS-2005>
-458.712158203125

> <r_mmod_Solvation_Energy-OPLS-2005>
-229.198364257812

> <b_mmod_Minimization_Converged-OPLS-2005>
0

> <r_mmod_RMS_Derivative-OPLS-2005>
4.66124868392944

$$$$
18
                    3D
 Structure written by MMmdl.
177186  0  0  1  0            999 V2000
  -30.7457  -14.4411   20.5957 C   0  0  0  0  0  0
  -30.4055  -12.3004   19.4118 C   0  0  0  0  0  0
  -29.4852  -12.5240   18.1961 C   0  0  0  0  0  0
  -28.0035  -12.3939   18.6067 C   0  0  0  0  0  0
  -27.6590  -13.2161   19.8774 C   0  0  2  0  0  0
  -28.7035  -12.9970   20.9958 C   0  0  0  0  0  0
  -25.2560  -13.8195   20.5699 C   0  0  0  0  0  0
  -24.1817  -13.0449   20.9180 C   0  0  0  0  0  0
  -24.6405  -11.6929   20.8768 C   0  0  0  0  0  0
  -23.9064  -10.4306   21.0420 C   0  0  0  0  0  0
  -24.3598   -9.4226   21.9205 C   0  0  0  0  0  0
  -23.6264   -8.2261   22.0791 C   0  0  0  0  0  0
  -22.4260   -8.0287   21.3553 C   0  0  0  0  0  0
  -21.9893   -9.0268   20.4649 C   0  0  0  0  0  0
  -22.7242  -10.2144   20.3059 C   0  0  0  0  0  0
  -21.6830   -6.0732   22.5289 C   0  0  0  0  0  0
  -21.4010   -6.5636   23.8231 C   0  0  0  0  0  0
  -21.3656   -5.6780   24.9184 C   0  0  0  0  0  0
  -21.6043   -4.3038   24.7222 C   0  0  0  0  0  0
  -21.8820   -3.8136   23.4339 C   0  0  0  0  0  0
  -21.9189   -4.6962   22.3404 C   0  0  0  0  0  0
  -22.7843  -13.5256   21.1819 C   0  0  0  0  0  0
  -22.1663   -4.2151   21.0981 F   0  0  0  0  0  0
  -21.5621   -3.4525   25.7731 F   0  0  0  0  0  0
  -30.0337  -13.2904   20.4381 N   0  0  0  0  0  0
  -26.3013  -12.9391   20.3395 N   0  0  0  0  0  0
  -25.9349  -11.6539   20.5814 N   0  0  0  0  0  0
  -22.0455  -12.8243   22.0367 N   0  0  0  0  0  0
  -25.4218  -15.1914   20.4137 N   0  0  0  0  0  0
  -31.8576  -14.6014   20.0914 O   0  0  0  0  0  0
  -21.6622   -6.8878   21.4254 O   0  0  0  0  0  0
  -22.3553  -14.5575   20.6677 O   0  0  0  0  0  0
  -24.6159  -31.8656   23.2103 C   0  0  0  0  0  0
  -25.9038  -32.4813   23.8412 C   0  0  1  0  0  0
  -27.2282  -27.3917   20.0893 C   0  0  0  0  0  0
  -25.5869  -33.8613   24.2305 N   0  0  0  0  0  0
  -23.4090  -30.4925   21.5492 C   0  0  2  0  0  0
  -24.8542  -28.9611   20.1077 C   0  0  0  0  0  0
  -22.7411  -29.4686   22.4960 C   0  0  0  0  0  0
  -18.0270  -28.1400   22.8528 C   0  0  0  0  0  0
  -24.1469  -36.7308   23.2654 C   0  0  0  0  0  0
  -25.9430  -30.8191   21.3734 C   0  0  0  0  0  0
  -26.0146  -29.4482   20.7209 C   0  0  0  0  0  0
  -27.1963  -28.6636   20.7228 C   0  0  0  0  0  0
  -26.0568  -26.9556   19.4371 C   0  0  0  0  0  0
  -24.8723  -27.7145   19.4658 C   0  0  0  0  0  0
  -23.6161  -29.8279   20.1636 C   0  0  0  0  0  0
  -25.4099  -36.3096   24.0332 C   0  0  1  0  0  0
  -20.5877  -28.3723   23.1304 C   0  0  2  0  0  0
  -20.6767  -26.9457   22.5422 C   0  0  0  0  0  0
  -19.5732  -26.6427   21.5236 C   0  0  0  0  0  0
  -18.1915  -26.7955   22.1659 C   0  0  0  0  0  0
  -19.1528  -28.8871   23.2915 C   0  0  0  0  0  0
  -18.9445  -30.1456   23.8958 C   0  0  0  0  0  0
  -17.6451  -30.6622   24.0586 C   0  0  0  0  0  0
  -25.9031  -34.9474   23.5113 C   0  0  0  0  0  0
  -16.5334  -29.9136   23.6325 C   0  0  0  0  0  0
  -16.7256  -28.6523   23.0397 C   0  0  0  0  0  0
  -26.4472  -31.6624   25.0774 C   0  0  0  0  0  0
  -25.3703  -31.3620   26.1472 C   0  0  0  0  0  0
  -27.0413  -30.3104   24.6191 C   0  0  0  0  0  0
  -27.6015  -32.4409   25.7548 C   0  0  0  0  0  0
  -27.5565  -37.1789   24.8473 C   0  0  0  0  0  0
  -21.4136  -29.3079   22.3667 N   0  0  0  0  0  0
  -26.4283  -37.3792   23.9412 N   0  0  0  0  0  0
  -24.6747  -31.0738   22.1019 N   0  0  0  0  0  0
  -23.4152  -28.8229   23.3030 O   0  0  0  0  0  0
  -28.3744  -26.6110   20.1753 O   0  0  0  0  0  0
  -26.5625  -34.8936   22.4691 O   0  0  0  0  0  0
  -23.5344  -32.1436   23.7454 O   0  0  0  0  0  0
  -29.3526  -19.7120   19.7147 C   0  0  0  0  0  0
  -29.2855  -20.2327   22.0716 C   0  0  0  0  0  0
  -29.9094  -18.4340   19.9783 C   0  0  0  0  0  0
  -30.1576  -18.0410   21.3265 C   0  0  0  0  0  0
  -29.0196  -20.6227   20.7445 C   0  0  0  0  0  0
  -29.8693  -18.9766   22.3608 C   0  0  0  0  0  0
  -28.1363  -24.0810   19.5831 C   0  0  0  0  0  0
  -28.7816  -23.1373   20.3416 C   0  0  0  0  0  0
  -29.5921  -17.5760   17.6400 C   0  0  0  0  0  0
  -30.1902  -17.5319   18.8417 C   0  0  0  0  0  0
  -26.8970  -23.6733   18.7835 C   0  0  0  0  0  0
  -26.7999  -22.1612   18.5576 C   0  0  0  0  0  0
  -26.9875  -21.4552   19.8979 C   0  0  0  0  0  0
  -30.0601  -23.4518   21.1015 C   0  0  0  0  0  0
  -29.0579  -16.7346   26.6364 C   0  0  0  0  0  0
  -30.8248  -16.6893   21.6845 C   0  0  0  0  0  0
  -28.6527  -25.5172   19.2619 C   0  0  0  0  0  0
  -29.9719  -17.5043   25.6796 C   0  0  0  0  0  0
  -29.2576  -18.0005   24.4154 C   0  0  0  0  0  0
  -28.2972  -21.8078   20.4481 N   0  0  0  0  0  0
  -30.1510  -15.4405   21.2735 N   0  0  0  0  0  0
  -30.2208  -18.7156   23.6591 O   0  0  0  0  0  0
  -31.4525  -12.3736   19.1102 H   0  0  0  0  0  0
  -30.2804  -11.2901   19.8037 H   0  0  0  0  0  0
  -29.7172  -11.8099   17.4047 H   0  0  0  0  0  0
  -29.6648  -13.5173   17.7788 H   0  0  0  0  0  0
  -27.7926  -11.3389   18.7740 H   0  0  0  0  0  0
  -27.3582  -12.7020   17.7824 H   0  0  0  0  0  0
  -27.7051  -14.2680   19.5957 H   0  0  0  0  0  0
  -28.6715  -11.9650   21.3518 H   0  0  0  0  0  0
  -28.4730  -13.6101   21.8660 H   0  0  0  0  0  0
  -25.2743   -9.5706   22.4792 H   0  0  0  0  0  0
  -23.9949   -7.4662   22.7535 H   0  0  0  0  0  0
  -21.0813   -8.8783   19.8952 H   0  0  0  0  0  0
  -22.3687  -10.9676   19.6158 H   0  0  0  0  0  0
  -21.2022   -7.6151   23.9726 H   0  0  0  0  0  0
  -21.1470   -6.0514   25.9085 H   0  0  0  0  0  0
  -22.0603   -2.7601   23.2841 H   0  0  0  0  0  0
  -22.4036  -11.9883   22.4745 H   0  0  0  0  0  0
  -21.1105  -13.1353   22.2587 H   0  0  0  0  0  0
  -24.6497  -15.8384   20.5319 H   0  0  0  0  0  0
  -26.2740  -15.6415   20.1058 H   0  0  0  0  0  0
  -26.7114  -32.5547   23.1191 H   0  0  0  0  0  0
  -24.9906  -33.9770   25.0370 H   0  0  0  0  0  0
  -22.7003  -31.3129   21.4093 H   0  0  0  0  0  0
  -23.3752  -35.9619   23.3288 H   0  0  0  0  0  0
  -24.3532  -36.8988   22.2071 H   0  0  0  0  0  0
  -23.7215  -37.6494   23.6714 H   0  0  0  0  0  0
  -26.0527  -31.5822   20.6018 H   0  0  0  0  0  0
  -26.8301  -30.8751   21.9918 H   0  0  0  0  0  0
  -28.0851  -29.0271   21.2188 H   0  0  0  0  0  0
  -26.0286  -26.0314   18.8972 H   0  0  0  0  0  0
  -23.9835  -27.3411   18.9775 H   0  0  0  0  0  0
  -23.7160  -30.6023   19.4009 H   0  0  0  0  0  0
  -22.7411  -29.2404   19.8791 H   0  0  0  0  0  0
  -25.1256  -36.1958   25.0824 H   0  0  0  0  0  0
  -20.9987  -28.3336   24.1429 H   0  0  0  0  0  0
  -20.5720  -26.2325   23.3615 H   0  0  0  0  0  0
  -21.6618  -26.7538   22.1174 H   0  0  0  0  0  0
  -19.6896  -25.6343   21.1251 H   0  0  0  0  0  0
  -19.6665  -27.3222   20.6748 H   0  0  0  0  0  0
  -17.4186  -26.6757   21.4062 H   0  0  0  0  0  0
  -18.0283  -26.0095   22.9037 H   0  0  0  0  0  0
  -19.7917  -30.7226   24.2423 H   0  0  0  0  0  0
  -17.5015  -31.6326   24.5143 H   0  0  0  0  0  0
  -15.5320  -30.3052   23.7623 H   0  0  0  0  0  0
  -15.8659  -28.0808   22.7171 H   0  0  0  0  0  0
  -24.5936  -30.6945   25.7720 H   0  0  0  0  0  0
  -24.8797  -32.2705   26.4976 H   0  0  0  0  0  0
  -25.8042  -30.8734   27.0205 H   0  0  0  0  0  0
  -26.3023  -29.6775   24.1273 H   0  0  0  0  0  0
  -27.4240  -29.7438   25.4694 H   0  0  0  0  0  0
  -27.8791  -30.4487   23.9353 H   0  0  0  0  0  0
  -27.2607  -33.3722   26.2083 H   0  0  0  0  0  0
  -28.3818  -32.6955   25.0360 H   0  0  0  0  0  0
  -28.0686  -31.8582   26.5500 H   0  0  0  0  0  0
  -28.2535  -38.0131   24.7579 H   0  0  0  0  0  0
  -28.1108  -36.2652   24.6255 H   0  0  0  0  0  0
  -27.2248  -37.1373   25.8867 H   0  0  0  0  0  0
  -20.9276  -29.8750   21.6857 H   0  0  0  0  0  0
  -26.0169  -38.2853   24.1492 H   0  0  0  0  0  0
  -29.1660  -20.0141   18.6949 H   0  0  0  0  0  0
  -29.0421  -20.9055   22.8812 H   0  0  0  0  0  0
  -29.8723  -16.8911   16.8526 H   0  0  0  0  0  0
  -28.8110  -18.2878   17.4124 H   0  0  0  0  0  0
  -30.9641  -16.7924   18.9847 H   0  0  0  0  0  0
  -26.8768  -24.1722   17.8138 H   0  0  0  0  0  0
  -26.0196  -23.9883   19.3472 H   0  0  0  0  0  0
  -27.5676  -21.8355   17.8524 H   0  0  0  0  0  0
  -25.8422  -21.8951   18.1087 H   0  0  0  0  0  0
  -26.8478  -20.3802   19.7740 H   0  0  0  0  0  0
  -26.2159  -21.7701   20.6033 H   0  0  0  0  0  0
  -30.8888  -23.5803   20.4076 H   0  0  0  0  0  0
  -30.3424  -22.6842   21.8217 H   0  0  0  0  0  0
  -29.9410  -24.3763   21.6653 H   0  0  0  0  0  0
  -29.6156  -16.3777   27.5044 H   0  0  0  0  0  0
  -28.6119  -15.8694   26.1472 H   0  0  0  0  0  0
  -28.2504  -17.3658   27.0026 H   0  0  0  0  0  0
  -30.9538  -16.5990   22.7605 H   0  0  0  0  0  0
  -31.8468  -16.7340   21.3064 H   0  0  0  0  0  0
  -28.3659  -25.8003   18.2505 H   0  0  0  0  0  0
  -29.7399  -25.4552   19.2162 H   0  0  0  0  0  0
  -30.8110  -16.8675   25.3920 H   0  0  0  0  0  0
  -30.4027  -18.3539   26.2095 H   0  0  0  0  0  0
  -28.4230  -18.6554   24.6710 H   0  0  0  0  0  0
  -28.8565  -17.1570   23.8498 H   0  0  0  0  0  0
  -29.2228  -15.2680   21.6257 H   0  0  0  0  0  0
  1 25  1  0  0  0
  1 30  2  0  0  0
  1 91  1  0  0  0
  2  3  1  0  0  0
  2 25  1  0  0  0
  2 93  1  0  0  0
  2 94  1  0  0  0
  3  4  1  0  0  0
  3 95  1  0  0  0
  3 96  1  0  0  0
  4  5  1  0  0  0
  4 97  1  0  0  0
  4 98  1  0  0  0
  5  6  1  0  0  0
  5 26  1  0  0  0
  5 99  1  0  0  0
  6 25  1  0  0  0
  6100  1  0  0  0
  6101  1  0  0  0
  7  8  2  0  0  0
  7 26  1  0  0  0
  7 29  1  0  0  0
  8  9  1  0  0  0
  8 22  1  0  0  0
  9 10  1  0  0  0
  9 27  2  0  0  0
 10 11  2  0  0  0
 10 15  1  0  0  0
 11 12  1  0  0  0
 11102  1  0  0  0
 12 13  2  0  0  0
 12103  1  0  0  0
 13 14  1  0  0  0
 13 31  1  0  0  0
 14 15  2  0  0  0
 14104  1  0  0  0
 15105  1  0  0  0
 16 17  2  0  0  0
 16 21  1  0  0  0
 16 31  1  0  0  0
 17 18  1  0  0  0
 17106  1  0  0  0
 18 19  2  0  0  0
 18107  1  0  0  0
 19 20  1  0  0  0
 19 24  1  0  0  0
 20 21  2  0  0  0
 20108  1  0  0  0
 21 23  1  0  0  0
 22 28  1  0  0  0
 22 32  2  0  0  0
 26 27  1  0  0  0
 28109  1  0  0  0
 28110  1  0  0  0
 29111  1  0  0  0
 29112  1  0  0  0
 33 34  1  0  0  0
 33 66  1  0  0  0
 33 70  2  0  0  0
 34 36  1  0  0  0
 34 59  1  0  0  0
 34113  1  0  0  0
 35 44  2  0  0  0
 35 45  1  0  0  0
 35 68  1  0  0  0
 36 56  1  0  0  0
 36114  1  0  0  0
 37 39  1  0  0  0
 37 47  1  0  0  0
 37 66  1  0  0  0
 37115  1  0  0  0
 38 43  2  0  0  0
 38 46  1  0  0  0
 38 47  1  0  0  0
 39 64  1  0  0  0
 39 67  2  0  0  0
 40 52  1  0  0  0
 40 53  2  0  0  0
 40 58  1  0  0  0
 41116  1  0  0  0
 41117  1  0  0  0
 41118  1  0  0  0
 41 48  1  0  0  0
 42 43  1  0  0  0
 42 66  1  0  0  0
 42119  1  0  0  0
 42120  1  0  0  0
 43 44  1  0  0  0
 44121  1  0  0  0
 45 46  2  0  0  0
 45122  1  0  0  0
 46123  1  0  0  0
 47124  1  0  0  0
 47125  1  0  0  0
 48 56  1  0  0  0
 48 65  1  0  0  0
 48126  1  0  0  0
 49 50  1  0  0  0
 49 53  1  0  0  0
 49 64  1  0  0  0
 49127  1  0  0  0
 50 51  1  0  0  0
 50128  1  0  0  0
 50129  1  0  0  0
 51 52  1  0  0  0
 51130  1  0  0  0
 51131  1  0  0  0
 52132  1  0  0  0
 52133  1  0  0  0
 53 54  1  0  0  0
 54 55  2  0  0  0
 54134  1  0  0  0
 55 57  1  0  0  0
 55135  1  0  0  0
 56 69  2  0  0  0
 57 58  2  0  0  0
 57136  1  0  0  0
 58137  1  0  0  0
 59 60  1  0  0  0
 59 61  1  0  0  0
 59 62  1  0  0  0
 60138  1  0  0  0
 60139  1  0  0  0
 60140  1  0  0  0
 61141  1  0  0  0
 61142  1  0  0  0
 61143  1  0  0  0
 62144  1  0  0  0
 62145  1  0  0  0
 62146  1  0  0  0
 63 65  1  0  0  0
 63147  1  0  0  0
 63148  1  0  0  0
 63149  1  0  0  0
 64150  1  0  0  0
 65151  1  0  0  0
 68 87  1  0  0  0
 71 73  2  0  0  0
 71 75  1  0  0  0
 71152  1  0  0  0
 72 75  2  0  0  0
 72 76  1  0  0  0
 72153  1  0  0  0
 73 74  1  0  0  0
 73 80  1  0  0  0
 74 76  2  0  0  0
 74 86  1  0  0  0
 75 90  1  0  0  0
 76 92  1  0  0  0
 77 78  2  0  0  0
 77 81  1  0  0  0
 77 87  1  0  0  0
 78 84  1  0  0  0
 78 90  1  0  0  0
 79 80  2  0  0  0
 79154  1  0  0  0
 79155  1  0  0  0
 80156  1  0  0  0
 81 82  1  0  0  0
 81157  1  0  0  0
 81158  1  0  0  0
 82 83  1  0  0  0
 82159  1  0  0  0
 82160  1  0  0  0
 83 90  1  0  0  0
 83161  1  0  0  0
 83162  1  0  0  0
 84163  1  0  0  0
 84164  1  0  0  0
 84165  1  0  0  0
 85 88  1  0  0  0
 85166  1  0  0  0
 85167  1  0  0  0
 85168  1  0  0  0
 86 91  1  0  0  0
 86169  1  0  0  0
 86170  1  0  0  0
 87171  1  0  0  0
 87172  1  0  0  0
 88 89  1  0  0  0
 88173  1  0  0  0
 88174  1  0  0  0
 89 92  1  0  0  0
 89175  1  0  0  0
 89176  1  0  0  0
 91177  1  0  0  0
M  ISO  4   1 100  68 101  87 101  91 100
M  END
> <chiral flag>
0

> <version>
0

> <s_m_source_file>
/data/baiqing/PycharmProjects/Reinvent-master-3.2/result/LINK_invent/BTK/process_docking_weight1_custom_product_contain_oxygen_bond_distance_aromatic_linkinvent_7_9_3/rearranged_h_0109.sdf

> <i_m_source_file_index>
19

> <r_mmod_Potential_Energy-OPLS-2005>
64.872314453125

> <r_mmod_Stretch_Energy-OPLS-2005>
53.7028121948242

> <r_mmod_Bend_Energy-OPLS-2005>
132.723815917969

> <r_mmod_Torsional_Energy-OPLS-2005>
284.178619384766

> <r_mmod_Improper_Torsional_Energy-OPLS-2005>
4.2844557762146

> <r_mmod_Van_der_Waal_Energy-OPLS-2005>
166.39501953125

> <r_mmod_Electrostatic_Energy-OPLS-2005>
-391.910461425781

> <r_mmod_Solvation_Energy-OPLS-2005>
-202.146774291992

> <b_mmod_Minimization_Converged-OPLS-2005>
0

> <r_mmod_RMS_Derivative-OPLS-2005>
3.8470733165741

$$$$
19
                    3D
 Structure written by MMmdl.
158167  0  0  1  0            999 V2000
  -30.7341  -14.5320   20.5207 C   0  0  0  0  0  0
  -30.4103  -12.3249   19.4606 C   0  0  0  0  0  0
  -29.5095  -12.5079   18.2240 C   0  0  0  0  0  0
  -28.0249  -12.3790   18.6207 C   0  0  0  0  0  0
  -27.6569  -13.2331   19.8660 C   0  0  2  0  0  0
  -28.7006  -13.0866   20.9955 C   0  0  0  0  0  0
  -25.2579  -13.8232   20.5686 C   0  0  0  0  0  0
  -24.1840  -13.0458   20.9173 C   0  0  0  0  0  0
  -24.6433  -11.6934   20.8713 C   0  0  0  0  0  0
  -23.9106  -10.4291   21.0382 C   0  0  0  0  0  0
  -24.3646   -9.4218   21.9174 C   0  0  0  0  0  0
  -23.6311   -8.2257   22.0766 C   0  0  0  0  0  0
  -22.4285   -8.0296   21.3565 C   0  0  0  0  0  0
  -21.9926   -9.0266   20.4652 C   0  0  0  0  0  0
  -22.7269  -10.2139   20.3047 C   0  0  0  0  0  0
  -21.6851   -6.0737   22.5278 C   0  0  0  0  0  0
  -21.4002   -6.5640   23.8210 C   0  0  0  0  0  0
  -21.3665   -5.6799   24.9170 C   0  0  0  0  0  0
  -21.6057   -4.3060   24.7225 C   0  0  0  0  0  0
  -21.8818   -3.8144   23.4347 C   0  0  0  0  0  0
  -21.9190   -4.6961   22.3395 C   0  0  0  0  0  0
  -22.7860  -13.5245   21.1820 C   0  0  0  0  0  0
  -22.1662   -4.2142   21.0976 F   0  0  0  0  0  0
  -21.5632   -3.4552   25.7746 F   0  0  0  0  0  0
  -30.0270  -13.3652   20.4336 N   0  0  0  0  0  0
  -26.3021  -12.9441   20.3328 N   0  0  0  0  0  0
  -25.9379  -11.6573   20.5760 N   0  0  0  0  0  0
  -22.0512  -12.8215   22.0382 N   0  0  0  0  0  0
  -25.4269  -15.1943   20.4115 N   0  0  0  0  0  0
  -31.9017  -14.5582   20.1202 O   0  0  0  0  0  0
  -21.6661   -6.8885   21.4248 O   0  0  0  0  0  0
  -22.3542  -14.5541   20.6677 O   0  0  0  0  0  0
  -24.6212  -31.8641   23.2065 C   0  0  0  0  0  0
  -25.9046  -32.4804   23.8409 C   0  0  1  0  0  0
  -27.2347  -27.3828   20.1109 C   0  0  0  0  0  0
  -25.5877  -33.8614   24.2336 N   0  0  0  0  0  0
  -23.4147  -30.4848   21.5491 C   0  0  2  0  0  0
  -24.8633  -28.9389   20.1230 C   0  0  0  0  0  0
  -22.7446  -29.4652   22.4977 C   0  0  0  0  0  0
  -18.0266  -28.1463   22.8517 C   0  0  0  0  0  0
  -24.1484  -36.7310   23.2651 C   0  0  0  0  0  0
  -25.9486  -30.8101   21.3702 C   0  0  0  0  0  0
  -26.0259  -29.4376   20.7251 C   0  0  0  0  0  0
  -27.2201  -28.6674   20.7149 C   0  0  0  0  0  0
  -26.0578  -26.9097   19.5011 C   0  0  0  0  0  0
  -24.8734  -27.6741   19.5098 C   0  0  0  0  0  0
  -23.6306  -29.8172   20.1654 C   0  0  0  0  0  0
  -25.4092  -36.3098   24.0351 C   0  0  1  0  0  0
  -20.5867  -28.3749   23.1324 C   0  0  2  0  0  0
  -20.6760  -26.9472   22.5454 C   0  0  0  0  0  0
  -19.5722  -26.6433   21.5275 C   0  0  0  0  0  0
  -18.1896  -26.8017   22.1652 C   0  0  0  0  0  0
  -19.1519  -28.8924   23.2919 C   0  0  0  0  0  0
  -18.9435  -30.1525   23.8942 C   0  0  0  0  0  0
  -17.6433  -30.6646   24.0611 C   0  0  0  0  0  0
  -25.9023  -34.9469   23.5144 C   0  0  0  0  0  0
  -16.5323  -29.9161   23.6356 C   0  0  0  0  0  0
  -16.7252  -28.6593   23.0355 C   0  0  0  0  0  0
  -26.4462  -31.6601   25.0749 C   0  0  0  0  0  0
  -25.3726  -31.3659   26.1491 C   0  0  0  0  0  0
  -27.0309  -30.3054   24.6155 C   0  0  0  0  0  0
  -27.6109  -32.4299   25.7421 C   0  0  0  0  0  0
  -27.5580  -37.1762   24.8450 C   0  0  0  0  0  0
  -21.4178  -29.3076   22.3712 N   0  0  0  0  0  0
  -26.4270  -37.3780   23.9440 N   0  0  0  0  0  0
  -24.6810  -31.0700   22.1000 N   0  0  0  0  0  0
  -23.4167  -28.8191   23.3043 O   0  0  0  0  0  0
  -28.3744  -26.6004   20.0275 O   0  0  0  0  0  0
  -26.5595  -34.8901   22.4709 O   0  0  0  0  0  0
  -23.5384  -32.1400   23.7422 O   0  0  0  0  0  0
  -30.8170  -20.4028   19.8389 C   0  0  0  0  0  0
  -31.1553  -19.0207   19.6987 C   0  0  0  0  0  0
  -30.1928  -18.1631   20.1863 C   0  0  0  0  0  0
  -29.5993  -20.6536   20.4234 C   0  0  0  0  0  0
  -28.5052  -24.1560   20.8030 C   0  0  0  0  0  0
  -29.4783  -23.2299   20.6185 C   0  0  0  0  0  0
  -30.2694  -16.6864   20.0554 C   0  0  0  0  0  0
  -27.1579  -23.4733   20.9057 C   0  0  0  0  0  0
  -27.5318  -21.9727   20.9347 C   0  0  0  0  0  0
  -32.4364  -18.5743   19.0464 C   0  0  0  0  0  0
  -30.9845  -23.4835   20.5220 C   0  0  0  0  0  0
  -28.6292  -25.6752   21.1107 C   0  0  0  0  0  0
  -30.0445  -15.7118   20.8784 N   0  0  0  0  0  0
  -28.9652  -21.9161   20.6367 N   0  0  0  0  0  0
  -28.8547  -19.0967   20.8606 S   0  0  0  0  0  0
  -31.4610  -12.3678   19.1679 H   0  0  0  0  0  0
  -30.2712  -11.3333   19.8958 H   0  0  0  0  0  0
  -29.7616  -11.7698   17.4603 H   0  0  0  0  0  0
  -29.6887  -13.4888   17.7804 H   0  0  0  0  0  0
  -27.8250  -11.3247   18.8179 H   0  0  0  0  0  0
  -27.3910  -12.6549   17.7774 H   0  0  0  0  0  0
  -27.6839  -14.2749   19.5494 H   0  0  0  0  0  0
  -28.6814  -12.0759   21.4078 H   0  0  0  0  0  0
  -28.4727  -13.7584   21.8243 H   0  0  0  0  0  0
  -25.2784   -9.5682   22.4756 H   0  0  0  0  0  0
  -24.0005   -7.4650   22.7490 H   0  0  0  0  0  0
  -21.0859   -8.8797   19.8960 H   0  0  0  0  0  0
  -22.3736  -10.9679   19.6154 H   0  0  0  0  0  0
  -21.1993   -7.6148   23.9702 H   0  0  0  0  0  0
  -21.1491   -6.0538   25.9082 H   0  0  0  0  0  0
  -22.0589   -2.7607   23.2859 H   0  0  0  0  0  0
  -22.4155  -11.9871   22.4718 H   0  0  0  0  0  0
  -21.1136  -13.1230   22.2588 H   0  0  0  0  0  0
  -24.6716  -15.8579   20.5453 H   0  0  0  0  0  0
  -26.2983  -15.6319   20.1393 H   0  0  0  0  0  0
  -26.7131  -32.5509   23.1182 H   0  0  0  0  0  0
  -24.9986  -33.9798   25.0453 H   0  0  0  0  0  0
  -22.7089  -31.3057   21.4047 H   0  0  0  0  0  0
  -23.3752  -35.9628   23.3248 H   0  0  0  0  0  0
  -24.3599  -36.9017   22.2078 H   0  0  0  0  0  0
  -23.7192  -37.6482   23.6696 H   0  0  0  0  0  0
  -26.0623  -31.5646   20.5913 H   0  0  0  0  0  0
  -26.8371  -30.8739   21.9871 H   0  0  0  0  0  0
  -28.1261  -29.0516   21.1643 H   0  0  0  0  0  0
  -26.0584  -25.9449   19.0128 H   0  0  0  0  0  0
  -23.9802  -27.2884   19.0373 H   0  0  0  0  0  0
  -23.7473  -30.5919   19.4054 H   0  0  0  0  0  0
  -22.7561  -29.2426   19.8638 H   0  0  0  0  0  0
  -25.1244  -36.1951   25.0834 H   0  0  0  0  0  0
  -20.9951  -28.3355   24.1462 H   0  0  0  0  0  0
  -20.5721  -26.2371   23.3663 H   0  0  0  0  0  0
  -21.6604  -26.7528   22.1219 H   0  0  0  0  0  0
  -19.6860  -25.6350   21.1305 H   0  0  0  0  0  0
  -19.6667  -27.3274   20.6832 H   0  0  0  0  0  0
  -17.4172  -26.6881   21.4009 H   0  0  0  0  0  0
  -18.0156  -26.0155   22.9021 H   0  0  0  0  0  0
  -19.7901  -30.7350   24.2322 H   0  0  0  0  0  0
  -17.4977  -31.6310   24.5257 H   0  0  0  0  0  0
  -15.5330  -30.3071   23.7678 H   0  0  0  0  0  0
  -15.8655  -28.0947   22.7014 H   0  0  0  0  0  0
  -24.6078  -30.6769   25.7860 H   0  0  0  0  0  0
  -24.8649  -32.2739   26.4766 H   0  0  0  0  0  0
  -25.8136  -30.9047   27.0346 H   0  0  0  0  0  0
  -26.2865  -29.6749   24.1284 H   0  0  0  0  0  0
  -27.4167  -29.7340   25.4611 H   0  0  0  0  0  0
  -27.8644  -30.4402   23.9265 H   0  0  0  0  0  0
  -27.2882  -33.3684   26.1931 H   0  0  0  0  0  0
  -28.3877  -32.6726   25.0147 H   0  0  0  0  0  0
  -28.0793  -31.8431   26.5329 H   0  0  0  0  0  0
  -28.2552  -38.0109   24.7579 H   0  0  0  0  0  0
  -28.1160  -36.2658   24.6180 H   0  0  0  0  0  0
  -27.2341  -37.1268   25.8866 H   0  0  0  0  0  0
  -20.9363  -29.8833   21.6954 H   0  0  0  0  0  0
  -26.0180  -38.2855   24.1502 H   0  0  0  0  0  0
  -31.4858  -21.1575   19.4617 H   0  0  0  0  0  0
  -30.6786  -16.4434   19.0650 H   0  0  0  0  0  0
  -26.5441  -23.7171   20.0361 H   0  0  0  0  0  0
  -26.6105  -23.7641   21.8047 H   0  0  0  0  0  0
  -26.9309  -21.3999   20.2225 H   0  0  0  0  0  0
  -27.3485  -21.5597   21.9304 H   0  0  0  0  0  0
  -33.1521  -19.3919   18.9522 H   0  0  0  0  0  0
  -32.2499  -18.1811   18.0454 H   0  0  0  0  0  0
  -32.9283  -17.7902   19.6239 H   0  0  0  0  0  0
  -31.2865  -24.4791   20.8574 H   0  0  0  0  0  0
  -31.3159  -23.4017   19.4832 H   0  0  0  0  0  0
  -31.5512  -22.7685   21.1237 H   0  0  0  0  0  0
  -29.6478  -25.8723   21.4410 H   0  0  0  0  0  0
  -28.0123  -25.9078   21.9816 H   0  0  0  0  0  0
  1 25  1  0  0  0
  1 30  2  0  0  0
  1 83  1  0  0  0
  2  3  1  0  0  0
  2 25  1  0  0  0
  2 86  1  0  0  0
  2 87  1  0  0  0
  3  4  1  0  0  0
  3 88  1  0  0  0
  3 89  1  0  0  0
  4  5  1  0  0  0
  4 90  1  0  0  0
  4 91  1  0  0  0
  5  6  1  0  0  0
  5 26  1  0  0  0
  5 92  1  0  0  0
  6 25  1  0  0  0
  6 93  1  0  0  0
  6 94  1  0  0  0
  7  8  2  0  0  0
  7 26  1  0  0  0
  7 29  1  0  0  0
  8  9  1  0  0  0
  8 22  1  0  0  0
  9 10  1  0  0  0
  9 27  2  0  0  0
 10 11  2  0  0  0
 10 15  1  0  0  0
 11 12  1  0  0  0
 11 95  1  0  0  0
 12 13  2  0  0  0
 12 96  1  0  0  0
 13 14  1  0  0  0
 13 31  1  0  0  0
 14 15  2  0  0  0
 14 97  1  0  0  0
 15 98  1  0  0  0
 16 17  2  0  0  0
 16 21  1  0  0  0
 16 31  1  0  0  0
 17 18  1  0  0  0
 17 99  1  0  0  0
 18 19  2  0  0  0
 18100  1  0  0  0
 19 20  1  0  0  0
 19 24  1  0  0  0
 20 21  2  0  0  0
 20101  1  0  0  0
 21 23  1  0  0  0
 22 28  1  0  0  0
 22 32  2  0  0  0
 26 27  1  0  0  0
 28102  1  0  0  0
 28103  1  0  0  0
 29104  1  0  0  0
 29105  1  0  0  0
 33 34  1  0  0  0
 33 66  1  0  0  0
 33 70  2  0  0  0
 34 36  1  0  0  0
 34 59  1  0  0  0
 34106  1  0  0  0
 35 44  2  0  0  0
 35 45  1  0  0  0
 35 68  1  0  0  0
 36 56  1  0  0  0
 36107  1  0  0  0
 37 39  1  0  0  0
 37 47  1  0  0  0
 37 66  1  0  0  0
 37108  1  0  0  0
 38 43  2  0  0  0
 38 46  1  0  0  0
 38 47  1  0  0  0
 39 64  1  0  0  0
 39 67  2  0  0  0
 40 52  1  0  0  0
 40 53  2  0  0  0
 40 58  1  0  0  0
 41109  1  0  0  0
 41110  1  0  0  0
 41111  1  0  0  0
 41 48  1  0  0  0
 42 43  1  0  0  0
 42 66  1  0  0  0
 42112  1  0  0  0
 42113  1  0  0  0
 43 44  1  0  0  0
 44114  1  0  0  0
 45 46  2  0  0  0
 45115  1  0  0  0
 46116  1  0  0  0
 47117  1  0  0  0
 47118  1  0  0  0
 48 56  1  0  0  0
 48 65  1  0  0  0
 48119  1  0  0  0
 49 50  1  0  0  0
 49 53  1  0  0  0
 49 64  1  0  0  0
 49120  1  0  0  0
 50 51  1  0  0  0
 50121  1  0  0  0
 50122  1  0  0  0
 51 52  1  0  0  0
 51123  1  0  0  0
 51124  1  0  0  0
 52125  1  0  0  0
 52126  1  0  0  0
 53 54  1  0  0  0
 54 55  2  0  0  0
 54127  1  0  0  0
 55 57  1  0  0  0
 55128  1  0  0  0
 56 69  2  0  0  0
 57 58  2  0  0  0
 57129  1  0  0  0
 58130  1  0  0  0
 59 60  1  0  0  0
 59 61  1  0  0  0
 59 62  1  0  0  0
 60131  1  0  0  0
 60132  1  0  0  0
 60133  1  0  0  0
 61134  1  0  0  0
 61135  1  0  0  0
 61136  1  0  0  0
 62137  1  0  0  0
 62138  1  0  0  0
 62139  1  0  0  0
 63 65  1  0  0  0
 63140  1  0  0  0
 63141  1  0  0  0
 63142  1  0  0  0
 64143  1  0  0  0
 65144  1  0  0  0
 68 82  1  0  0  0
 71 72  1  0  0  0
 71 74  2  0  0  0
 71145  1  0  0  0
 72 73  2  0  0  0
 72 80  1  0  0  0
 73 77  1  0  0  0
 73 85  1  0  0  0
 74 84  1  0  0  0
 74 85  1  0  0  0
 75 76  2  0  0  0
 75 78  1  0  0  0
 75 82  1  0  0  0
 76 81  1  0  0  0
 76 84  1  0  0  0
 77 83  2  0  0  0
 77146  1  0  0  0
 78 79  1  0  0  0
 78147  1  0  0  0
 78148  1  0  0  0
 79 84  1  0  0  0
 79149  1  0  0  0
 79150  1  0  0  0
 80151  1  0  0  0
 80152  1  0  0  0
 80153  1  0  0  0
 81154  1  0  0  0
 81155  1  0  0  0
 81156  1  0  0  0
 82157  1  0  0  0
 82158  1  0  0  0
M  ISO  4   1 100  68 101  82 101  83 100
M  END
> <chiral flag>
0

> <version>
0

> <s_m_source_file>
/data/baiqing/PycharmProjects/Reinvent-master-3.2/result/LINK_invent/BTK/process_docking_weight1_custom_product_contain_oxygen_bond_distance_aromatic_linkinvent_7_9_3/rearranged_h_0109.sdf

> <i_m_source_file_index>
20

> <r_mmod_Potential_Energy-OPLS-2005>
108.152275085449

> <r_mmod_Stretch_Energy-OPLS-2005>
53.8152236938477

> <r_mmod_Bend_Energy-OPLS-2005>
189.375442504883

> <r_mmod_Torsional_Energy-OPLS-2005>
224.416046142578

> <r_mmod_Improper_Torsional_Energy-OPLS-2005>
5.3675537109375

> <r_mmod_Van_der_Waal_Energy-OPLS-2005>
133.198287963867

> <r_mmod_Electrostatic_Energy-OPLS-2005>
-339.035125732422

> <r_mmod_Solvation_Energy-OPLS-2005>
-185.227966308594

> <b_mmod_Minimization_Converged-OPLS-2005>
0

> <r_mmod_RMS_Derivative-OPLS-2005>
5.12225914001465

$$$$
20
                    3D
 Structure written by MMmdl.
165173  0  0  1  0            999 V2000
  -30.6434  -14.5434   20.6413 C   0  0  0  0  0  0
  -30.4530  -12.3791   19.4163 C   0  0  0  0  0  0
  -29.5048  -12.5300   18.2072 C   0  0  0  0  0  0
  -28.0270  -12.3506   18.6169 C   0  0  0  0  0  0
  -27.6685  -13.1766   19.8793 C   0  0  2  0  0  0
  -28.7207  -12.8991   20.9796 C   0  0  0  0  0  0
  -25.2625  -13.8048   20.5573 C   0  0  0  0  0  0
  -24.1868  -13.0372   20.9121 C   0  0  0  0  0  0
  -24.6400  -11.6837   20.8745 C   0  0  0  0  0  0
  -23.9047  -10.4254   21.0430 C   0  0  0  0  0  0
  -24.3608   -9.4180   21.9204 C   0  0  0  0  0  0
  -23.6283   -8.2228   22.0772 C   0  0  0  0  0  0
  -22.4272   -8.0280   21.3554 C   0  0  0  0  0  0
  -21.9887   -9.0245   20.4658 C   0  0  0  0  0  0
  -22.7220  -10.2119   20.3068 C   0  0  0  0  0  0
  -21.6838   -6.0733   22.5282 C   0  0  0  0  0  0
  -21.4007   -6.5638   23.8210 C   0  0  0  0  0  0
  -21.3663   -5.6789   24.9170 C   0  0  0  0  0  0
  -21.6038   -4.3051   24.7222 C   0  0  0  0  0  0
  -21.8826   -3.8148   23.4347 C   0  0  0  0  0  0
  -21.9185   -4.6966   22.3403 C   0  0  0  0  0  0
  -22.7910  -13.5242   21.1786 C   0  0  0  0  0  0
  -22.1667   -4.2154   21.0983 F   0  0  0  0  0  0
  -21.5620   -3.4527   25.7734 F   0  0  0  0  0  0
  -30.0242  -13.3318   20.4619 N   0  0  0  0  0  0
  -26.3056  -12.9177   20.3349 N   0  0  0  0  0  0
  -25.9313  -11.6378   20.5761 N   0  0  0  0  0  0
  -22.0518  -12.8278   22.0350 N   0  0  0  0  0  0
  -25.4296  -15.1742   20.3905 N   0  0  0  0  0  0
  -31.7273  -14.7473   20.0770 O   0  0  0  0  0  0
  -21.6630   -6.8882   21.4258 O   0  0  0  0  0  0
  -22.3629  -14.5557   20.6617 O   0  0  0  0  0  0
  -24.6162  -31.8686   23.2113 C   0  0  0  0  0  0
  -25.9055  -32.4814   23.8389 C   0  0  1  0  0  0
  -27.2227  -27.4088   20.0882 C   0  0  0  0  0  0
  -25.5908  -33.8614   24.2316 N   0  0  0  0  0  0
  -23.4039  -30.4926   21.5525 C   0  0  2  0  0  0
  -24.8474  -28.9596   20.1136 C   0  0  0  0  0  0
  -22.7437  -29.4643   22.4994 C   0  0  0  0  0  0
  -18.0279  -28.1400   22.8498 C   0  0  0  0  0  0
  -24.1477  -36.7295   23.2632 C   0  0  0  0  0  0
  -25.9370  -30.8226   21.3721 C   0  0  0  0  0  0
  -26.0125  -29.4559   20.7158 C   0  0  0  0  0  0
  -27.2051  -28.6907   20.6926 C   0  0  0  0  0  0
  -26.0416  -26.9413   19.4705 C   0  0  0  0  0  0
  -24.8595  -27.7032   19.4860 C   0  0  0  0  0  0
  -23.6143  -29.8355   20.1646 C   0  0  0  0  0  0
  -25.4103  -36.3093   24.0329 C   0  0  1  0  0  0
  -20.5860  -28.3664   23.1337 C   0  0  2  0  0  0
  -20.6768  -26.9412   22.5414 C   0  0  0  0  0  0
  -19.5744  -26.6407   21.5221 C   0  0  0  0  0  0
  -18.1926  -26.7946   22.1623 C   0  0  0  0  0  0
  -19.1526  -28.8858   23.2906 C   0  0  0  0  0  0
  -18.9451  -30.1466   23.8915 C   0  0  0  0  0  0
  -17.6450  -30.6610   24.0574 C   0  0  0  0  0  0
  -25.9045  -34.9461   23.5124 C   0  0  0  0  0  0
  -16.5346  -29.9103   23.6330 C   0  0  0  0  0  0
  -16.7263  -28.6520   23.0350 C   0  0  0  0  0  0
  -26.4494  -31.6584   25.0716 C   0  0  0  0  0  0
  -25.3755  -31.3735   26.1472 C   0  0  0  0  0  0
  -27.0317  -30.2999   24.6132 C   0  0  0  0  0  0
  -27.6046  -32.4325   25.7495 C   0  0  0  0  0  0
  -27.5587  -37.1816   24.8481 C   0  0  0  0  0  0
  -21.4149  -29.3020   22.3728 N   0  0  0  0  0  0
  -26.4297  -37.3775   23.9420 N   0  0  0  0  0  0
  -24.6707  -31.0769   22.1022 N   0  0  0  0  0  0
  -23.4196  -28.8207   23.3074 O   0  0  0  0  0  0
  -28.3754  -26.6415   20.0749 O   0  0  0  0  0  0
  -26.5609  -34.8925   22.4694 O   0  0  0  0  0  0
  -23.5348  -32.1464   23.7479 O   0  0  0  0  0  0
  -29.9757  -18.0517   20.4200 C   0  0  0  0  0  0
  -31.5206  -19.8373   20.9476 C   0  0  0  0  0  0
  -30.6816  -17.1307   21.2531 C   0  0  0  0  0  0
  -31.8589  -17.5949   21.9139 C   0  0  0  0  0  0
  -30.3544  -19.4103   20.2811 C   0  0  0  0  0  0
  -32.2746  -18.9441   21.7382 C   0  0  0  0  0  0
  -29.0232  -22.7443   20.0576 C   0  0  0  0  0  0
  -29.1104  -24.2670   19.6738 C   0  0  0  0  0  0
  -32.2654  -16.7274   24.2884 C   0  0  0  0  0  0
  -28.5327  -15.9152   21.6509 C   0  0  0  0  0  0
  -32.6789  -16.6614   22.8094 C   0  0  0  0  0  0
  -29.8504  -21.7136   19.2475 C   0  0  0  0  0  0
  -28.2072  -25.2478   20.4544 C   0  0  0  0  0  0
  -30.0692  -15.7199   21.5488 C   0  0  2  0  0  0
  -33.4354  -19.4283   22.3516 N   0  0  0  0  0  0
  -29.5446  -20.2809   19.5118 N   0  0  0  0  0  0
  -28.3016  -22.3702   20.9915 O   0  0  0  0  0  0
  -29.8566  -24.6617   18.7678 O   0  0  0  0  0  0
  -31.4852  -12.5374   19.1021 H   0  0  0  0  0  0
  -30.4261  -11.3561   19.7912 H   0  0  0  0  0  0
  -29.7667  -11.8134   17.4287 H   0  0  0  0  0  0
  -29.6432  -13.5159   17.7641 H   0  0  0  0  0  0
  -27.8557  -11.2880   18.8059 H   0  0  0  0  0  0
  -27.3736  -12.6241   17.7867 H   0  0  0  0  0  0
  -27.7165  -14.2176   19.5750 H   0  0  0  0  0  0
  -28.7465  -11.8234   21.1702 H   0  0  0  0  0  0
  -28.4873  -13.2900   21.9581 H   0  0  0  0  0  0
  -25.2759   -9.5629   22.4758 H   0  0  0  0  0  0
  -23.9964   -7.4615   22.7501 H   0  0  0  0  0  0
  -21.0796   -8.8767   19.8982 H   0  0  0  0  0  0
  -22.3692  -10.9650   19.6168 H   0  0  0  0  0  0
  -21.2021   -7.6149   23.9710 H   0  0  0  0  0  0
  -21.1469   -6.0519   25.9056 H   0  0  0  0  0  0
  -22.0606   -2.7612   23.2835 H   0  0  0  0  0  0
  -22.4134  -11.9938   22.4746 H   0  0  0  0  0  0
  -21.1140  -13.1346   22.2585 H   0  0  0  0  0  0
  -24.6588  -15.8239   20.4953 H   0  0  0  0  0  0
  -26.2833  -15.6119   20.0711 H   0  0  0  0  0  0
  -26.7123  -32.5520   23.1138 H   0  0  0  0  0  0
  -25.0043  -33.9773   25.0453 H   0  0  0  0  0  0
  -22.6872  -31.3061   21.4202 H   0  0  0  0  0  0
  -23.3732  -35.9641   23.3316 H   0  0  0  0  0  0
  -24.3566  -36.8898   22.2045 H   0  0  0  0  0  0
  -23.7234  -37.6504   23.6647 H   0  0  0  0  0  0
  -26.0587  -31.5941   20.6100 H   0  0  0  0  0  0
  -26.8210  -30.8647   21.9974 H   0  0  0  0  0  0
  -28.1055  -29.0705   21.1561 H   0  0  0  0  0  0
  -26.0271  -25.9927   18.9541 H   0  0  0  0  0  0
  -23.9697  -27.3250   19.0013 H   0  0  0  0  0  0
  -23.7244  -30.6174   19.4123 H   0  0  0  0  0  0
  -22.7329  -29.2660   19.8655 H   0  0  0  0  0  0
  -25.1266  -36.1946   25.0819 H   0  0  0  0  0  0
  -20.9946  -28.3246   24.1456 H   0  0  0  0  0  0
  -20.5681  -26.2285   23.3592 H   0  0  0  0  0  0
  -21.6639  -26.7476   22.1202 H   0  0  0  0  0  0
  -19.6895  -25.6325   21.1241 H   0  0  0  0  0  0
  -19.6684  -27.3226   20.6759 H   0  0  0  0  0  0
  -17.4181  -26.6693   21.4029 H   0  0  0  0  0  0
  -18.0329  -26.0101   22.9029 H   0  0  0  0  0  0
  -19.7928  -30.7304   24.2269 H   0  0  0  0  0  0
  -17.5001  -31.6293   24.5178 H   0  0  0  0  0  0
  -15.5334  -30.3006   23.7678 H   0  0  0  0  0  0
  -15.8659  -28.0866   22.7030 H   0  0  0  0  0  0
  -24.5925  -30.7055   25.7871 H   0  0  0  0  0  0
  -24.8923  -32.2893   26.4876 H   0  0  0  0  0  0
  -25.8097  -30.8961   27.0252 H   0  0  0  0  0  0
  -26.2873  -29.6774   24.1148 H   0  0  0  0  0  0
  -27.4010  -29.7243   25.4623 H   0  0  0  0  0  0
  -27.8746  -30.4286   23.9341 H   0  0  0  0  0  0
  -27.2643  -33.3621   26.2073 H   0  0  0  0  0  0
  -28.3868  -32.6898   25.0340 H   0  0  0  0  0  0
  -28.0700  -31.8433   26.5416 H   0  0  0  0  0  0
  -28.2616  -38.0102   24.7505 H   0  0  0  0  0  0
  -28.1056  -36.2628   24.6303 H   0  0  0  0  0  0
  -27.2316  -37.1483   25.8890 H   0  0  0  0  0  0
  -20.9311  -29.8705   21.6924 H   0  0  0  0  0  0
  -26.0167  -38.2847   24.1409 H   0  0  0  0  0  0
  -29.0831  -17.7311   19.9050 H   0  0  0  0  0  0
  -31.8402  -20.8656   20.8812 H   0  0  0  0  0  0
  -31.1957  -16.5621   24.4274 H   0  0  0  0  0  0
  -32.5166  -17.6996   24.7172 H   0  0  0  0  0  0
  -32.7838  -15.9611   24.8645 H   0  0  0  0  0  0
  -28.3013  -16.8553   22.1585 H   0  0  0  0  0  0
  -28.0035  -15.1874   22.2586 H   0  0  0  0  0  0
  -28.0678  -15.9817   20.6722 H   0  0  0  0  0  0
  -32.6154  -15.6383   22.4459 H   0  0  0  0  0  0
  -33.7425  -16.8917   22.7272 H   0  0  0  0  0  0
  -29.6419  -21.9026   18.1925 H   0  0  0  0  0  0
  -30.9070  -21.9439   19.3729 H   0  0  0  0  0  0
  -28.4250  -25.1488   21.5176 H   0  0  0  0  0  0
  -27.1845  -24.8989   20.3278 H   0  0  0  0  0  0
  -30.3637  -15.4462   22.5581 H   0  0  0  0  0  0
  -33.6323  -20.4243   22.3683 H   0  0  0  0  0  0
  -33.8383  -18.9183   23.1315 H   0  0  0  0  0  0
  -28.6313  -19.9567   19.2056 H   0  0  0  0  0  0
  1 25  1  0  0  0
  1 30  2  0  0  0
  1 84  1  0  0  0
  2  3  1  0  0  0
  2 25  1  0  0  0
  2 89  1  0  0  0
  2 90  1  0  0  0
  3  4  1  0  0  0
  3 91  1  0  0  0
  3 92  1  0  0  0
  4  5  1  0  0  0
  4 93  1  0  0  0
  4 94  1  0  0  0
  5  6  1  0  0  0
  5 26  1  0  0  0
  5 95  1  0  0  0
  6 25  1  0  0  0
  6 96  1  0  0  0
  6 97  1  0  0  0
  7  8  2  0  0  0
  7 26  1  0  0  0
  7 29  1  0  0  0
  8  9  1  0  0  0
  8 22  1  0  0  0
  9 10  1  0  0  0
  9 27  2  0  0  0
 10 11  2  0  0  0
 10 15  1  0  0  0
 11 12  1  0  0  0
 11 98  1  0  0  0
 12 13  2  0  0  0
 12 99  1  0  0  0
 13 14  1  0  0  0
 13 31  1  0  0  0
 14 15  2  0  0  0
 14100  1  0  0  0
 15101  1  0  0  0
 16 17  2  0  0  0
 16 21  1  0  0  0
 16 31  1  0  0  0
 17 18  1  0  0  0
 17102  1  0  0  0
 18 19  2  0  0  0
 18103  1  0  0  0
 19 20  1  0  0  0
 19 24  1  0  0  0
 20 21  2  0  0  0
 20104  1  0  0  0
 21 23  1  0  0  0
 22 28  1  0  0  0
 22 32  2  0  0  0
 26 27  1  0  0  0
 28105  1  0  0  0
 28106  1  0  0  0
 29107  1  0  0  0
 29108  1  0  0  0
 33 34  1  0  0  0
 33 66  1  0  0  0
 33 70  2  0  0  0
 34 36  1  0  0  0
 34 59  1  0  0  0
 34109  1  0  0  0
 35 44  2  0  0  0
 35 45  1  0  0  0
 35 68  1  0  0  0
 36 56  1  0  0  0
 36110  1  0  0  0
 37 39  1  0  0  0
 37 47  1  0  0  0
 37 66  1  0  0  0
 37111  1  0  0  0
 38 43  2  0  0  0
 38 46  1  0  0  0
 38 47  1  0  0  0
 39 64  1  0  0  0
 39 67  2  0  0  0
 40 52  1  0  0  0
 40 53  2  0  0  0
 40 58  1  0  0  0
 41112  1  0  0  0
 41113  1  0  0  0
 41114  1  0  0  0
 41 48  1  0  0  0
 42 43  1  0  0  0
 42 66  1  0  0  0
 42115  1  0  0  0
 42116  1  0  0  0
 43 44  1  0  0  0
 44117  1  0  0  0
 45 46  2  0  0  0
 45118  1  0  0  0
 46119  1  0  0  0
 47120  1  0  0  0
 47121  1  0  0  0
 48 56  1  0  0  0
 48 65  1  0  0  0
 48122  1  0  0  0
 49 50  1  0  0  0
 49 53  1  0  0  0
 49 64  1  0  0  0
 49123  1  0  0  0
 50 51  1  0  0  0
 50124  1  0  0  0
 50125  1  0  0  0
 51 52  1  0  0  0
 51126  1  0  0  0
 51127  1  0  0  0
 52128  1  0  0  0
 52129  1  0  0  0
 53 54  1  0  0  0
 54 55  2  0  0  0
 54130  1  0  0  0
 55 57  1  0  0  0
 55131  1  0  0  0
 56 69  2  0  0  0
 57 58  2  0  0  0
 57132  1  0  0  0
 58133  1  0  0  0
 59 60  1  0  0  0
 59 61  1  0  0  0
 59 62  1  0  0  0
 60134  1  0  0  0
 60135  1  0  0  0
 60136  1  0  0  0
 61137  1  0  0  0
 61138  1  0  0  0
 61139  1  0  0  0
 62140  1  0  0  0
 62141  1  0  0  0
 62142  1  0  0  0
 63 65  1  0  0  0
 63143  1  0  0  0
 63144  1  0  0  0
 63145  1  0  0  0
 64146  1  0  0  0
 65147  1  0  0  0
 68 83  1  0  0  0
 71 73  2  0  0  0
 71 75  1  0  0  0
 71148  1  0  0  0
 72 75  2  0  0  0
 72 76  1  0  0  0
 72149  1  0  0  0
 73 74  1  0  0  0
 73 84  1  0  0  0
 74 76  2  0  0  0
 74 81  1  0  0  0
 75 86  1  0  0  0
 76 85  1  0  0  0
 77 78  1  0  0  0
 77 82  1  0  0  0
 77 87  2  0  0  0
 78 83  1  0  0  0
 78 88  2  0  0  0
 79 81  1  0  0  0
 79150  1  0  0  0
 79151  1  0  0  0
 79152  1  0  0  0
 80153  1  0  0  0
 80154  1  0  0  0
 80155  1  0  0  0
 80 84  1  0  0  0
 81156  1  0  0  0
 81157  1  0  0  0
 82 86  1  0  0  0
 82158  1  0  0  0
 82159  1  0  0  0
 83160  1  0  0  0
 83161  1  0  0  0
 84162  1  0  0  0
 85163  1  0  0  0
 85164  1  0  0  0
 86165  1  0  0  0
M  ISO  4   1 100  68 101  83 101  84 100
M  END
> <chiral flag>
0

> <version>
0

> <s_m_source_file>
/data/baiqing/PycharmProjects/Reinvent-master-3.2/result/LINK_invent/BTK/process_docking_weight1_custom_product_contain_oxygen_bond_distance_aromatic_linkinvent_7_9_3/rearranged_h_0109.sdf

> <i_m_source_file_index>
21

> <r_mmod_Potential_Energy-OPLS-2005>
178.447769165039

> <r_mmod_Stretch_Energy-OPLS-2005>
61.0681381225586

> <r_mmod_Bend_Energy-OPLS-2005>
145.509887695312

> <r_mmod_Torsional_Energy-OPLS-2005>
188.888809204102

> <r_mmod_Improper_Torsional_Energy-OPLS-2005>
4.61641454696655

> <r_mmod_Van_der_Waal_Energy-OPLS-2005>
168.401153564453

> <r_mmod_Electrostatic_Energy-OPLS-2005>
-167.177062988281

> <r_mmod_Solvation_Energy-OPLS-2005>
-243.534378051758

> <b_mmod_Minimization_Converged-OPLS-2005>
0

> <r_mmod_RMS_Derivative-OPLS-2005>
4.69400358200073

$$$$
21
                    3D
 Structure written by MMmdl.
159167  0  0  1  0            999 V2000
  -30.7318  -14.4533   20.6183 C   0  0  0  0  0  0
  -30.4197  -12.3181   19.4099 C   0  0  0  0  0  0
  -29.4872  -12.5144   18.1989 C   0  0  0  0  0  0
  -28.0114  -12.3688   18.6173 C   0  0  0  0  0  0
  -27.6607  -13.2088   19.8742 C   0  0  2  0  0  0
  -28.7035  -12.9902   20.9920 C   0  0  0  0  0  0
  -25.2588  -13.8171   20.5693 C   0  0  0  0  0  0
  -24.1836  -13.0445   20.9176 C   0  0  0  0  0  0
  -24.6392  -11.6911   20.8734 C   0  0  0  0  0  0
  -23.9057  -10.4297   21.0405 C   0  0  0  0  0  0
  -24.3612   -9.4213   21.9185 C   0  0  0  0  0  0
  -23.6292   -8.2246   22.0754 C   0  0  0  0  0  0
  -22.4274   -8.0283   21.3543 C   0  0  0  0  0  0
  -21.9906   -9.0255   20.4645 C   0  0  0  0  0  0
  -22.7231  -10.2137   20.3055 C   0  0  0  0  0  0
  -21.6852   -6.0737   22.5280 C   0  0  0  0  0  0
  -21.4013   -6.5642   23.8214 C   0  0  0  0  0  0
  -21.3658   -5.6795   24.9175 C   0  0  0  0  0  0
  -21.6045   -4.3056   24.7224 C   0  0  0  0  0  0
  -21.8818   -3.8148   23.4345 C   0  0  0  0  0  0
  -21.9193   -4.6966   22.3402 C   0  0  0  0  0  0
  -22.7860  -13.5244   21.1845 C   0  0  0  0  0  0
  -22.1662   -4.2153   21.0980 F   0  0  0  0  0  0
  -21.5628   -3.4540   25.7737 F   0  0  0  0  0  0
  -30.0338  -13.2983   20.4376 N   0  0  0  0  0  0
  -26.3023  -12.9341   20.3377 N   0  0  0  0  0  0
  -25.9321  -11.6497   20.5768 N   0  0  0  0  0  0
  -22.0500  -12.8232   22.0398 N   0  0  0  0  0  0
  -25.4326  -15.1887   20.4122 N   0  0  0  0  0  0
  -31.8300  -14.6595   20.0952 O   0  0  0  0  0  0
  -21.6637   -6.8880   21.4242 O   0  0  0  0  0  0
  -22.3545  -14.5554   20.6704 O   0  0  0  0  0  0
  -24.6178  -31.8674   23.2104 C   0  0  0  0  0  0
  -25.9063  -32.4819   23.8402 C   0  0  1  0  0  0
  -27.2249  -27.4092   20.0872 C   0  0  0  0  0  0
  -25.5908  -33.8617   24.2326 N   0  0  0  0  0  0
  -23.4054  -30.4947   21.5528 C   0  0  2  0  0  0
  -24.8484  -28.9649   20.1131 C   0  0  0  0  0  0
  -22.7423  -29.4664   22.4984 C   0  0  0  0  0  0
  -18.0273  -28.1375   22.8491 C   0  0  0  0  0  0
  -24.1485  -36.7313   23.2637 C   0  0  0  0  0  0
  -25.9398  -30.8245   21.3691 C   0  0  0  0  0  0
  -26.0142  -29.4602   20.7099 C   0  0  0  0  0  0
  -27.2056  -28.6917   20.6924 C   0  0  0  0  0  0
  -26.0328  -26.9444   19.4777 C   0  0  0  0  0  0
  -24.8542  -27.7070   19.4946 C   0  0  0  0  0  0
  -23.6130  -29.8342   20.1659 C   0  0  0  0  0  0
  -25.4106  -36.3109   24.0334 C   0  0  1  0  0  0
  -20.5865  -28.3665   23.1312 C   0  0  2  0  0  0
  -20.6767  -26.9399   22.5415 C   0  0  0  0  0  0
  -19.5748  -26.6383   21.5210 C   0  0  0  0  0  0
  -18.1922  -26.7922   22.1619 C   0  0  0  0  0  0
  -19.1524  -28.8837   23.2898 C   0  0  0  0  0  0
  -18.9453  -30.1445   23.8911 C   0  0  0  0  0  0
  -17.6455  -30.6585   24.0570 C   0  0  0  0  0  0
  -25.9038  -34.9474   23.5126 C   0  0  0  0  0  0
  -16.5346  -29.9087   23.6331 C   0  0  0  0  0  0
  -16.7262  -28.6502   23.0351 C   0  0  0  0  0  0
  -26.4479  -31.6601   25.0739 C   0  0  0  0  0  0
  -25.3735  -31.3715   26.1483 C   0  0  0  0  0  0
  -27.0310  -30.3038   24.6129 C   0  0  0  0  0  0
  -27.6056  -32.4324   25.7494 C   0  0  0  0  0  0
  -27.5582  -37.1810   24.8462 C   0  0  0  0  0  0
  -21.4148  -29.3038   22.3722 N   0  0  0  0  0  0
  -26.4293  -37.3792   23.9408 N   0  0  0  0  0  0
  -24.6731  -31.0763   22.1017 N   0  0  0  0  0  0
  -23.4189  -28.8193   23.3023 O   0  0  0  0  0  0
  -28.3762  -26.6340   20.1115 O   0  0  0  0  0  0
  -26.5602  -34.8926   22.4690 O   0  0  0  0  0  0
  -23.5365  -32.1438   23.7485 O   0  0  0  0  0  0
  -29.1675  -20.0074   21.1848 C   0  0  0  0  0  0
  -31.5198  -18.5886   20.6497 C   0  0  0  0  0  0
  -29.2769  -18.6525   21.6114 C   0  0  0  0  0  0
  -30.4899  -17.9447   21.3694 C   0  0  0  0  0  0
  -31.3955  -19.9307   20.2379 C   0  0  0  0  0  0
  -30.2328  -20.6756   20.5284 C   0  0  0  0  0  0
  -26.9924  -18.5613   22.6934 C   0  0  0  0  0  0
  -28.1616  -18.0020   22.3366 C   0  0  0  0  0  0
  -29.3831  -24.3358   20.2556 C   0  0  0  0  0  0
  -30.7974  -16.5612   21.9741 C   0  0  0  0  0  0
  -28.1730  -25.2168   19.8898 C   0  0  0  0  0  0
  -29.0942  -22.8336   20.4951 C   0  0  0  0  0  0
  -32.4469  -20.5470   19.5633 N   0  0  0  0  0  0
  -30.1395  -15.3845   21.3860 N   0  0  0  0  0  0
  -30.5240  -24.8044   20.3527 O   0  0  0  0  0  0
  -30.2294  -22.0190   20.1671 O   0  0  0  0  0  0
  -31.4626  -12.4193   19.1040 H   0  0  0  0  0  0
  -30.3250  -11.3057   19.8061 H   0  0  0  0  0  0
  -29.7262  -11.7921   17.4174 H   0  0  0  0  0  0
  -29.6507  -13.5018   17.7639 H   0  0  0  0  0  0
  -27.8256  -11.3125   18.8155 H   0  0  0  0  0  0
  -27.3563  -12.6411   17.7890 H   0  0  0  0  0  0
  -27.7054  -14.2574   19.5786 H   0  0  0  0  0  0
  -28.6832  -11.9535   21.3311 H   0  0  0  0  0  0
  -28.4557  -13.5844   21.8722 H   0  0  0  0  0  0
  -25.2757   -9.5691   22.4759 H   0  0  0  0  0  0
  -24.0004   -7.4637   22.7471 H   0  0  0  0  0  0
  -21.0837   -8.8770   19.8951 H   0  0  0  0  0  0
  -22.3688  -10.9676   19.6163 H   0  0  0  0  0  0
  -21.2004   -7.6150   23.9719 H   0  0  0  0  0  0
  -21.1481   -6.0524   25.9080 H   0  0  0  0  0  0
  -22.0598   -2.7611   23.2844 H   0  0  0  0  0  0
  -22.4106  -11.9883   22.4774 H   0  0  0  0  0  0
  -21.1124  -13.1266   22.2617 H   0  0  0  0  0  0
  -24.6727  -15.8492   20.5323 H   0  0  0  0  0  0
  -26.2953  -15.6290   20.1173 H   0  0  0  0  0  0
  -26.7133  -32.5517   23.1163 H   0  0  0  0  0  0
  -25.0065  -33.9783   25.0475 H   0  0  0  0  0  0
  -22.6946  -31.3126   21.4166 H   0  0  0  0  0  0
  -23.3747  -35.9647   23.3306 H   0  0  0  0  0  0
  -24.3579  -36.8922   22.2050 H   0  0  0  0  0  0
  -23.7240  -37.6519   23.6651 H   0  0  0  0  0  0
  -26.0598  -31.5924   20.6039 H   0  0  0  0  0  0
  -26.8257  -30.8719   21.9908 H   0  0  0  0  0  0
  -28.1039  -29.0701   21.1599 H   0  0  0  0  0  0
  -25.9789  -25.9890   18.9774 H   0  0  0  0  0  0
  -23.9586  -27.3217   19.0264 H   0  0  0  0  0  0
  -23.7226  -30.6128   19.4100 H   0  0  0  0  0  0
  -22.7354  -29.2580   19.8675 H   0  0  0  0  0  0
  -25.1280  -36.1974   25.0827 H   0  0  0  0  0  0
  -20.9955  -28.3228   24.1434 H   0  0  0  0  0  0
  -20.5668  -26.2267   23.3599 H   0  0  0  0  0  0
  -21.6639  -26.7441   22.1207 H   0  0  0  0  0  0
  -19.6911  -25.6298   21.1233 H   0  0  0  0  0  0
  -19.6693  -27.3202   20.6748 H   0  0  0  0  0  0
  -17.4192  -26.6672   21.4018 H   0  0  0  0  0  0
  -18.0324  -26.0055   22.9005 H   0  0  0  0  0  0
  -19.7930  -30.7257   24.2279 H   0  0  0  0  0  0
  -17.5010  -31.6265   24.5167 H   0  0  0  0  0  0
  -15.5348  -30.2996   23.7644 H   0  0  0  0  0  0
  -15.8656  -28.0828   22.7063 H   0  0  0  0  0  0
  -24.5912  -30.7054   25.7823 H   0  0  0  0  0  0
  -24.8923  -32.2874   26.4928 H   0  0  0  0  0  0
  -25.8085  -30.8891   27.0244 H   0  0  0  0  0  0
  -26.2860  -29.6800   24.1173 H   0  0  0  0  0  0
  -27.4062  -29.7273   25.4595 H   0  0  0  0  0  0
  -27.8703  -30.4351   23.9294 H   0  0  0  0  0  0
  -27.2684  -33.3622   26.2090 H   0  0  0  0  0  0
  -28.3855  -32.6890   25.0311 H   0  0  0  0  0  0
  -28.0735  -31.8436   26.5394 H   0  0  0  0  0  0
  -28.2603  -38.0106   24.7517 H   0  0  0  0  0  0
  -28.1081  -36.2641   24.6279 H   0  0  0  0  0  0
  -27.2306  -37.1445   25.8868 H   0  0  0  0  0  0
  -20.9302  -29.8771   21.6958 H   0  0  0  0  0  0
  -26.0183  -38.2872   24.1416 H   0  0  0  0  0  0
  -28.2604  -20.5509   21.3885 H   0  0  0  0  0  0
  -32.4381  -18.0530   20.4536 H   0  0  0  0  0  0
  -26.2514  -17.9764   23.2201 H   0  0  0  0  0  0
  -26.7352  -19.5878   22.4830 H   0  0  0  0  0  0
  -28.2910  -16.9652   22.6065 H   0  0  0  0  0  0
  -30.5309  -16.5917   23.0313 H   0  0  0  0  0  0
  -31.8788  -16.4106   21.9834 H   0  0  0  0  0  0
  -27.3228  -24.8662   20.4765 H   0  0  0  0  0  0
  -27.9449  -25.0419   18.8381 H   0  0  0  0  0  0
  -28.2360  -22.5277   19.8962 H   0  0  0  0  0  0
  -28.8321  -22.7071   21.5458 H   0  0  0  0  0  0
  -33.3841  -20.1816   19.6974 H   0  0  0  0  0  0
  -32.4174  -21.5618   19.5304 H   0  0  0  0  0  0
  -29.2234  -15.1512   21.7361 H   0  0  0  0  0  0
  1 25  1  0  0  0
  1 30  2  0  0  0
  1 84  1  0  0  0
  2  3  1  0  0  0
  2 25  1  0  0  0
  2 87  1  0  0  0
  2 88  1  0  0  0
  3  4  1  0  0  0
  3 89  1  0  0  0
  3 90  1  0  0  0
  4  5  1  0  0  0
  4 91  1  0  0  0
  4 92  1  0  0  0
  5  6  1  0  0  0
  5 26  1  0  0  0
  5 93  1  0  0  0
  6 25  1  0  0  0
  6 94  1  0  0  0
  6 95  1  0  0  0
  7  8  2  0  0  0
  7 26  1  0  0  0
  7 29  1  0  0  0
  8  9  1  0  0  0
  8 22  1  0  0  0
  9 10  1  0  0  0
  9 27  2  0  0  0
 10 11  2  0  0  0
 10 15  1  0  0  0
 11 12  1  0  0  0
 11 96  1  0  0  0
 12 13  2  0  0  0
 12 97  1  0  0  0
 13 14  1  0  0  0
 13 31  1  0  0  0
 14 15  2  0  0  0
 14 98  1  0  0  0
 15 99  1  0  0  0
 16 17  2  0  0  0
 16 21  1  0  0  0
 16 31  1  0  0  0
 17 18  1  0  0  0
 17100  1  0  0  0
 18 19  2  0  0  0
 18101  1  0  0  0
 19 20  1  0  0  0
 19 24  1  0  0  0
 20 21  2  0  0  0
 20102  1  0  0  0
 21 23  1  0  0  0
 22 28  1  0  0  0
 22 32  2  0  0  0
 26 27  1  0  0  0
 28103  1  0  0  0
 28104  1  0  0  0
 29105  1  0  0  0
 29106  1  0  0  0
 33 34  1  0  0  0
 33 66  1  0  0  0
 33 70  2  0  0  0
 34 36  1  0  0  0
 34 59  1  0  0  0
 34107  1  0  0  0
 35 44  2  0  0  0
 35 45  1  0  0  0
 35 68  1  0  0  0
 36 56  1  0  0  0
 36108  1  0  0  0
 37 39  1  0  0  0
 37 47  1  0  0  0
 37 66  1  0  0  0
 37109  1  0  0  0
 38 43  2  0  0  0
 38 46  1  0  0  0
 38 47  1  0  0  0
 39 64  1  0  0  0
 39 67  2  0  0  0
 40 52  1  0  0  0
 40 53  2  0  0  0
 40 58  1  0  0  0
 41110  1  0  0  0
 41111  1  0  0  0
 41112  1  0  0  0
 41 48  1  0  0  0
 42 43  1  0  0  0
 42 66  1  0  0  0
 42113  1  0  0  0
 42114  1  0  0  0
 43 44  1  0  0  0
 44115  1  0  0  0
 45 46  2  0  0  0
 45116  1  0  0  0
 46117  1  0  0  0
 47118  1  0  0  0
 47119  1  0  0  0
 48 56  1  0  0  0
 48 65  1  0  0  0
 48120  1  0  0  0
 49 50  1  0  0  0
 49 53  1  0  0  0
 49 64  1  0  0  0
 49121  1  0  0  0
 50 51  1  0  0  0
 50122  1  0  0  0
 50123  1  0  0  0
 51 52  1  0  0  0
 51124  1  0  0  0
 51125  1  0  0  0
 52126  1  0  0  0
 52127  1  0  0  0
 53 54  1  0  0  0
 54 55  2  0  0  0
 54128  1  0  0  0
 55 57  1  0  0  0
 55129  1  0  0  0
 56 69  2  0  0  0
 57 58  2  0  0  0
 57130  1  0  0  0
 58131  1  0  0  0
 59 60  1  0  0  0
 59 61  1  0  0  0
 59 62  1  0  0  0
 60132  1  0  0  0
 60133  1  0  0  0
 60134  1  0  0  0
 61135  1  0  0  0
 61136  1  0  0  0
 61137  1  0  0  0
 62138  1  0  0  0
 62139  1  0  0  0
 62140  1  0  0  0
 63 65  1  0  0  0
 63141  1  0  0  0
 63142  1  0  0  0
 63143  1  0  0  0
 64144  1  0  0  0
 65145  1  0  0  0
 68 81  1  0  0  0
 71 73  2  0  0  0
 71 76  1  0  0  0
 71146  1  0  0  0
 72 74  2  0  0  0
 72 75  1  0  0  0
 72147  1  0  0  0
 73 74  1  0  0  0
 73 78  1  0  0  0
 74 80  1  0  0  0
 75 76  2  0  0  0
 75 83  1  0  0  0
 76 86  1  0  0  0
 77 78  2  0  0  0
 77148  1  0  0  0
 77149  1  0  0  0
 78150  1  0  0  0
 79 81  1  0  0  0
 79 82  1  0  0  0
 79 85  2  0  0  0
 80 84  1  0  0  0
 80151  1  0  0  0
 80152  1  0  0  0
 81153  1  0  0  0
 81154  1  0  0  0
 82 86  1  0  0  0
 82155  1  0  0  0
 82156  1  0  0  0
 83157  1  0  0  0
 83158  1  0  0  0
 84159  1  0  0  0
M  ISO  4   1 100  68 101  81 101  84 100
M  END
> <chiral flag>
0

> <version>
0

> <s_m_source_file>
/data/baiqing/PycharmProjects/Reinvent-master-3.2/result/LINK_invent/BTK/process_docking_weight1_custom_product_contain_oxygen_bond_distance_aromatic_linkinvent_7_9_3/rearranged_h_0109.sdf

> <i_m_source_file_index>
22

> <r_mmod_Potential_Energy-OPLS-2005>
-128.733459472656

> <r_mmod_Stretch_Energy-OPLS-2005>
43.5764236450195

> <r_mmod_Bend_Energy-OPLS-2005>
108.380897521973

> <r_mmod_Torsional_Energy-OPLS-2005>
204.954742431641

> <r_mmod_Improper_Torsional_Energy-OPLS-2005>
6.18164968490601

> <r_mmod_Van_der_Waal_Energy-OPLS-2005>
163.354217529297

> <r_mmod_Electrostatic_Energy-OPLS-2005>
-412.423431396484

> <r_mmod_Solvation_Energy-OPLS-2005>
-256.78564453125

> <b_mmod_Minimization_Converged-OPLS-2005>
0

> <r_mmod_RMS_Derivative-OPLS-2005>
0.584526896476746

$$$$
22
                    3D
 Structure written by MMmdl.
168177  0  0  1  0            999 V2000
  -30.6187  -14.7372   20.3649 C   0  0  0  0  0  0
  -30.4315  -12.4306   19.4337 C   0  0  0  0  0  0
  -29.4767  -12.3813   18.2169 C   0  0  0  0  0  0
  -28.0059  -12.2815   18.6571 C   0  0  0  0  0  0
  -27.6330  -13.2203   19.8339 C   0  0  2  0  0  0
  -28.6957  -13.1845   20.9507 C   0  0  0  0  0  0
  -25.2511  -13.8187   20.5745 C   0  0  0  0  0  0
  -24.1770  -13.0459   20.9226 C   0  0  0  0  0  0
  -24.6338  -11.6920   20.8764 C   0  0  0  0  0  0
  -23.9006  -10.4296   21.0406 C   0  0  0  0  0  0
  -24.3564   -9.4225   21.9188 C   0  0  0  0  0  0
  -23.6269   -8.2242   22.0750 C   0  0  0  0  0  0
  -22.4265   -8.0259   21.3525 C   0  0  0  0  0  0
  -21.9875   -9.0224   20.4641 C   0  0  0  0  0  0
  -22.7173  -10.2133   20.3056 C   0  0  0  0  0  0
  -21.6864   -6.0709   22.5262 C   0  0  0  0  0  0
  -21.4019   -6.5623   23.8192 C   0  0  0  0  0  0
  -21.3668   -5.6793   24.9160 C   0  0  0  0  0  0
  -21.6038   -4.3044   24.7227 C   0  0  0  0  0  0
  -21.8830   -3.8125   23.4349 C   0  0  0  0  0  0
  -21.9202   -4.6930   22.3400 C   0  0  0  0  0  0
  -22.7807  -13.5242   21.1864 C   0  0  0  0  0  0
  -22.1659   -4.2096   21.0980 F   0  0  0  0  0  0
  -21.5630   -3.4544   25.7748 F   0  0  0  0  0  0
  -29.9779  -13.5215   20.3224 N   0  0  0  0  0  0
  -26.2923  -12.9371   20.3344 N   0  0  0  0  0  0
  -25.9271  -11.6527   20.5829 N   0  0  0  0  0  0
  -22.0447  -12.8232   22.0428 N   0  0  0  0  0  0
  -25.4282  -15.1905   20.4171 N   0  0  0  0  0  0
  -31.8523  -14.7662   20.3304 O   0  0  0  0  0  0
  -21.6656   -6.8840   21.4217 O   0  0  0  0  0  0
  -22.3495  -14.5542   20.6710 O   0  0  0  0  0  0
  -24.6279  -31.8569   23.2032 C   0  0  0  0  0  0
  -25.9108  -32.4764   23.8364 C   0  0  1  0  0  0
  -27.2041  -27.2746   20.1551 C   0  0  0  0  0  0
  -25.5944  -33.8569   24.2299 N   0  0  0  0  0  0
  -23.4245  -30.4822   21.5405 C   0  0  2  0  0  0
  -24.8730  -28.9296   20.1134 C   0  0  0  0  0  0
  -22.7485  -29.4592   22.4867 C   0  0  0  0  0  0
  -18.0296  -28.1390   22.8476 C   0  0  0  0  0  0
  -24.1481  -36.7245   23.2651 C   0  0  0  0  0  0
  -25.9709  -30.7701   21.3909 C   0  0  0  0  0  0
  -26.0390  -29.3912   20.7414 C   0  0  0  0  0  0
  -27.2089  -28.5720   20.7587 C   0  0  0  0  0  0
  -26.0336  -26.8829   19.4789 C   0  0  0  0  0  0
  -24.8748  -27.6809   19.4713 C   0  0  0  0  0  0
  -23.6483  -29.8221   20.1544 C   0  0  0  0  0  0
  -25.4103  -36.3060   24.0353 C   0  0  1  0  0  0
  -20.5897  -28.3665   23.1269 C   0  0  2  0  0  0
  -20.6792  -26.9387   22.5398 C   0  0  0  0  0  0
  -19.5763  -26.6368   21.5211 C   0  0  0  0  0  0
  -18.1940  -26.7936   22.1606 C   0  0  0  0  0  0
  -19.1555  -28.8847   23.2882 C   0  0  0  0  0  0
  -18.9485  -30.1459   23.8876 C   0  0  0  0  0  0
  -17.6483  -30.6592   24.0555 C   0  0  0  0  0  0
  -25.9027  -34.9438   23.5109 C   0  0  0  0  0  0
  -16.5366  -29.9088   23.6354 C   0  0  0  0  0  0
  -16.7282  -28.6517   23.0348 C   0  0  0  0  0  0
  -26.4509  -31.6596   25.0743 C   0  0  0  0  0  0
  -25.3769  -31.3726   26.1482 C   0  0  0  0  0  0
  -27.0390  -30.3029   24.6219 C   0  0  0  0  0  0
  -27.6060  -32.4341   25.7510 C   0  0  0  0  0  0
  -27.5569  -37.1781   24.8491 C   0  0  0  0  0  0
  -21.4191  -29.3029   22.3636 N   0  0  0  0  0  0
  -26.4274  -37.3763   23.9428 N   0  0  0  0  0  0
  -24.6925  -31.0554   22.0997 N   0  0  0  0  0  0
  -23.4211  -28.8104   23.2923 O   0  0  0  0  0  0
  -28.2976  -26.4017   20.0856 O   0  0  0  0  0  0
  -26.5566  -34.8928   22.4667 O   0  0  0  0  0  0
  -23.5425  -32.1363   23.7324 O   0  0  0  0  0  0
  -29.9531  -19.3957   21.1972 C   0  0  0  0  0  0
  -27.9656  -19.0496   19.9198 C   0  0  0  0  0  0
  -30.3186  -18.0150   21.0016 C   0  0  0  0  0  0
  -28.3215  -17.6833   19.7250 C   0  0  0  0  0  0
  -28.7651  -19.9740   20.6508 C   0  0  0  0  0  0
  -29.5152  -17.1103   20.2463 C   0  0  0  0  0  0
  -27.9527  -23.8170   20.8801 C   0  0  0  0  0  0
  -28.7103  -22.6454   20.7700 C   0  0  0  0  0  0
  -26.7428  -22.0091   22.9079 C   0  0  0  0  0  0
  -26.4376  -23.7382   21.0714 C   0  0  0  0  0  0
  -25.9802  -23.2465   22.4597 C   0  0  0  0  0  0
  -27.0434  -20.9848   21.8142 C   0  0  0  0  0  0
  -30.2018  -22.7403   20.4908 C   0  0  0  0  0  0
  -31.2103  -16.9842   17.8880 C   0  0  0  0  0  0
  -28.4954  -25.3084   21.0744 C   0  0  0  0  0  0
  -30.2315  -15.8597   18.2834 C   0  0  0  0  0  0
  -28.2247  -21.2850   20.9743 N   0  0  0  0  0  0
  -29.9471  -15.7879   19.7394 N   0  0  0  0  0  0
  -27.1185  -21.8627   24.0747 O   0  0  0  0  0  0
  -31.4573  -12.5776   19.0918 H   0  0  0  0  0  0
  -30.4243  -11.4792   19.9662 H   0  0  0  0  0  0
  -29.7237  -11.5204   17.5950 H   0  0  0  0  0  0
  -29.5880  -13.2397   17.5634 H   0  0  0  0  0  0
  -27.8342  -11.2453   18.9501 H   0  0  0  0  0  0
  -27.3452  -12.4631   17.8071 H   0  0  0  0  0  0
  -27.6170  -14.2287   19.4218 H   0  0  0  0  0  0
  -28.7413  -12.1993   21.4178 H   0  0  0  0  0  0
  -28.4540  -13.9003   21.7376 H   0  0  0  0  0  0
  -25.2703   -9.5736   22.4775 H   0  0  0  0  0  0
  -23.9976   -7.4667   22.7498 H   0  0  0  0  0  0
  -21.0802   -8.8748   19.8971 H   0  0  0  0  0  0
  -22.3604  -10.9669   19.6175 H   0  0  0  0  0  0
  -21.2007   -7.6132   23.9670 H   0  0  0  0  0  0
  -21.1472   -6.0519   25.9054 H   0  0  0  0  0  0
  -22.0596   -2.7574   23.2876 H   0  0  0  0  0  0
  -22.4060  -11.9865   22.4768 H   0  0  0  0  0  0
  -21.1067  -13.1248   22.2621 H   0  0  0  0  0  0
  -24.6744  -15.8559   20.5443 H   0  0  0  0  0  0
  -26.3018  -15.6242   20.1534 H   0  0  0  0  0  0
  -26.7150  -32.5404   23.1082 H   0  0  0  0  0  0
  -25.0270  -33.9729   25.0559 H   0  0  0  0  0  0
  -22.7209  -31.3049   21.3941 H   0  0  0  0  0  0
  -23.3772  -35.9556   23.3332 H   0  0  0  0  0  0
  -24.3569  -36.8818   22.2062 H   0  0  0  0  0  0
  -23.7217  -37.6455   23.6625 H   0  0  0  0  0  0
  -26.1254  -31.5311   20.6257 H   0  0  0  0  0  0
  -26.8430  -30.8068   22.0320 H   0  0  0  0  0  0
  -28.1051  -28.9217   21.2532 H   0  0  0  0  0  0
  -26.0158  -25.9363   18.9576 H   0  0  0  0  0  0
  -23.9893  -27.3297   18.9602 H   0  0  0  0  0  0
  -23.7873  -30.6026   19.4049 H   0  0  0  0  0  0
  -22.7658  -29.2633   19.8334 H   0  0  0  0  0  0
  -25.1290  -36.1918   25.0848 H   0  0  0  0  0  0
  -20.9999  -28.3238   24.1378 H   0  0  0  0  0  0
  -20.5705  -26.2270   23.3591 H   0  0  0  0  0  0
  -21.6663  -26.7427   22.1169 H   0  0  0  0  0  0
  -19.6924  -25.6284   21.1232 H   0  0  0  0  0  0
  -19.6727  -27.3194   20.6754 H   0  0  0  0  0  0
  -17.4219  -26.6705   21.3998 H   0  0  0  0  0  0
  -18.0311  -26.0095   22.9005 H   0  0  0  0  0  0
  -19.7970  -30.7283   24.2212 H   0  0  0  0  0  0
  -17.5054  -31.6272   24.5151 H   0  0  0  0  0  0
  -15.5373  -30.2980   23.7717 H   0  0  0  0  0  0
  -15.8682  -28.0843   22.7052 H   0  0  0  0  0  0
  -24.5950  -30.7049   25.7847 H   0  0  0  0  0  0
  -24.8974  -32.2897   26.4904 H   0  0  0  0  0  0
  -25.8145  -30.8932   27.0258 H   0  0  0  0  0  0
  -26.2992  -29.6742   24.1244 H   0  0  0  0  0  0
  -27.4125  -29.7299   25.4728 H   0  0  0  0  0  0
  -27.8845  -30.4360   23.9464 H   0  0  0  0  0  0
  -27.2661  -33.3657   26.2044 H   0  0  0  0  0  0
  -28.3895  -32.6855   25.0351 H   0  0  0  0  0  0
  -28.0695  -31.8497   26.5469 H   0  0  0  0  0  0
  -28.2594  -38.0070   24.7506 H   0  0  0  0  0  0
  -28.1050  -36.2591   24.6340 H   0  0  0  0  0  0
  -27.2282  -37.1469   25.8899 H   0  0  0  0  0  0
  -20.9336  -29.8787   21.6885 H   0  0  0  0  0  0
  -26.0155  -38.2841   24.1444 H   0  0  0  0  0  0
  -30.6050  -20.0147   21.7974 H   0  0  0  0  0  0
  -27.0334  -19.3942   19.4970 H   0  0  0  0  0  0
  -31.2638  -17.6720   21.3947 H   0  0  0  0  0  0
  -27.6680  -17.0791   19.1121 H   0  0  0  0  0  0
  -26.0326  -23.0916   20.2917 H   0  0  0  0  0  0
  -25.9812  -24.7083   20.9001 H   0  0  0  0  0  0
  -26.1093  -24.0267   23.2078 H   0  0  0  0  0  0
  -24.9172  -23.0057   22.4307 H   0  0  0  0  0  0
  -26.1631  -20.8813   21.1800 H   0  0  0  0  0  0
  -27.1558  -20.0236   22.3208 H   0  0  0  0  0  0
  -30.7445  -23.0852   21.3732 H   0  0  0  0  0  0
  -30.3806  -23.4544   19.6855 H   0  0  0  0  0  0
  -30.6432  -21.8007   20.1617 H   0  0  0  0  0  0
  -31.4238  -16.9482   16.8199 H   0  0  0  0  0  0
  -32.1596  -16.8748   18.4139 H   0  0  0  0  0  0
  -30.8243  -17.9808   18.1037 H   0  0  0  0  0  0
  -29.5731  -25.2440   21.2227 H   0  0  0  0  0  0
  -28.1203  -25.6567   22.0380 H   0  0  0  0  0  0
  -30.6900  -14.9462   17.9084 H   0  0  0  0  0  0
  -29.2960  -15.9672   17.7338 H   0  0  0  0  0  0
  1 25  1  0  0  0
  1 30  2  0  0  0
  1 88  1  0  0  0
  2  3  1  0  0  0
  2 25  1  0  0  0
  2 90  1  0  0  0
  2 91  1  0  0  0
  3  4  1  0  0  0
  3 92  1  0  0  0
  3 93  1  0  0  0
  4  5  1  0  0  0
  4 94  1  0  0  0
  4 95  1  0  0  0
  5  6  1  0  0  0
  5 26  1  0  0  0
  5 96  1  0  0  0
  6 25  1  0  0  0
  6 97  1  0  0  0
  6 98  1  0  0  0
  7  8  2  0  0  0
  7 26  1  0  0  0
  7 29  1  0  0  0
  8  9  1  0  0  0
  8 22  1  0  0  0
  9 10  1  0  0  0
  9 27  2  0  0  0
 10 11  2  0  0  0
 10 15  1  0  0  0
 11 12  1  0  0  0
 11 99  1  0  0  0
 12 13  2  0  0  0
 12100  1  0  0  0
 13 14  1  0  0  0
 13 31  1  0  0  0
 14 15  2  0  0  0
 14101  1  0  0  0
 15102  1  0  0  0
 16 17  2  0  0  0
 16 21  1  0  0  0
 16 31  1  0  0  0
 17 18  1  0  0  0
 17103  1  0  0  0
 18 19  2  0  0  0
 18104  1  0  0  0
 19 20  1  0  0  0
 19 24  1  0  0  0
 20 21  2  0  0  0
 20105  1  0  0  0
 21 23  1  0  0  0
 22 28  1  0  0  0
 22 32  2  0  0  0
 26 27  1  0  0  0
 28106  1  0  0  0
 28107  1  0  0  0
 29108  1  0  0  0
 29109  1  0  0  0
 33 34  1  0  0  0
 33 66  1  0  0  0
 33 70  2  0  0  0
 34 36  1  0  0  0
 34 59  1  0  0  0
 34110  1  0  0  0
 35 44  2  0  0  0
 35 45  1  0  0  0
 35 68  1  0  0  0
 36 56  1  0  0  0
 36111  1  0  0  0
 37 39  1  0  0  0
 37 47  1  0  0  0
 37 66  1  0  0  0
 37112  1  0  0  0
 38 43  2  0  0  0
 38 46  1  0  0  0
 38 47  1  0  0  0
 39 64  1  0  0  0
 39 67  2  0  0  0
 40 52  1  0  0  0
 40 53  2  0  0  0
 40 58  1  0  0  0
 41113  1  0  0  0
 41114  1  0  0  0
 41115  1  0  0  0
 41 48  1  0  0  0
 42 43  1  0  0  0
 42 66  1  0  0  0
 42116  1  0  0  0
 42117  1  0  0  0
 43 44  1  0  0  0
 44118  1  0  0  0
 45 46  2  0  0  0
 45119  1  0  0  0
 46120  1  0  0  0
 47121  1  0  0  0
 47122  1  0  0  0
 48 56  1  0  0  0
 48 65  1  0  0  0
 48123  1  0  0  0
 49 50  1  0  0  0
 49 53  1  0  0  0
 49 64  1  0  0  0
 49124  1  0  0  0
 50 51  1  0  0  0
 50125  1  0  0  0
 50126  1  0  0  0
 51 52  1  0  0  0
 51127  1  0  0  0
 51128  1  0  0  0
 52129  1  0  0  0
 52130  1  0  0  0
 53 54  1  0  0  0
 54 55  2  0  0  0
 54131  1  0  0  0
 55 57  1  0  0  0
 55132  1  0  0  0
 56 69  2  0  0  0
 57 58  2  0  0  0
 57133  1  0  0  0
 58134  1  0  0  0
 59 60  1  0  0  0
 59 61  1  0  0  0
 59 62  1  0  0  0
 60135  1  0  0  0
 60136  1  0  0  0
 60137  1  0  0  0
 61138  1  0  0  0
 61139  1  0  0  0
 61140  1  0  0  0
 62141  1  0  0  0
 62142  1  0  0  0
 62143  1  0  0  0
 63 65  1  0  0  0
 63144  1  0  0  0
 63145  1  0  0  0
 63146  1  0  0  0
 64147  1  0  0  0
 65148  1  0  0  0
 68 85  1  0  0  0
 71 73  2  0  0  0
 71 75  1  0  0  0
 71149  1  0  0  0
 72 74  1  0  0  0
 72 75  2  0  0  0
 72150  1  0  0  0
 73 76  1  0  0  0
 73151  1  0  0  0
 74 76  2  0  0  0
 74152  1  0  0  0
 75 87  1  0  0  0
 76 88  1  0  0  0
 77 78  2  0  0  0
 77 80  1  0  0  0
 77 85  1  0  0  0
 78 83  1  0  0  0
 78 87  1  0  0  0
 79 81  1  0  0  0
 79 82  1  0  0  0
 79 89  2  0  0  0
 80 81  1  0  0  0
 80153  1  0  0  0
 80154  1  0  0  0
 81155  1  0  0  0
 81156  1  0  0  0
 82 87  1  0  0  0
 82157  1  0  0  0
 82158  1  0  0  0
 83159  1  0  0  0
 83160  1  0  0  0
 83161  1  0  0  0
 84 86  1  0  0  0
 84162  1  0  0  0
 84163  1  0  0  0
 84164  1  0  0  0
 85165  1  0  0  0
 85166  1  0  0  0
 86 88  1  0  0  0
 86167  1  0  0  0
 86168  1  0  0  0
M  ISO  4   1 100  68 101  85 101  88 100
M  END
> <chiral flag>
0

> <version>
0

> <s_m_source_file>
/data/baiqing/PycharmProjects/Reinvent-master-3.2/result/LINK_invent/BTK/process_docking_weight1_custom_product_contain_oxygen_bond_distance_aromatic_linkinvent_7_9_3/rearranged_h_0109.sdf

> <i_m_source_file_index>
23

> <r_mmod_Potential_Energy-OPLS-2005>
512.291076660156

> <r_mmod_Stretch_Energy-OPLS-2005>
114.492279052734

> <r_mmod_Bend_Energy-OPLS-2005>
192.092956542969

> <r_mmod_Torsional_Energy-OPLS-2005>
404.809753417969

> <r_mmod_Improper_Torsional_Energy-OPLS-2005>
33.6785697937012

> <r_mmod_Van_der_Waal_Energy-OPLS-2005>
153.782257080078

> <r_mmod_Electrostatic_Energy-OPLS-2005>
-278.271118164062

> <r_mmod_Solvation_Energy-OPLS-2005>
-202.048522949219

> <b_mmod_Minimization_Converged-OPLS-2005>
0

> <r_mmod_RMS_Derivative-OPLS-2005>
3.65190625190735

$$$$
23
                    3D
 Structure written by MMmdl.
175184  0  0  1  0            999 V2000
  -30.7124  -14.4714   20.4760 C   0  0  0  0  0  0
  -30.4047  -12.2857   19.4059 C   0  0  0  0  0  0
  -29.4823  -12.4850   18.1895 C   0  0  0  0  0  0
  -27.9996  -12.3713   18.6033 C   0  0  0  0  0  0
  -27.6502  -13.2251   19.8503 C   0  0  2  0  0  0
  -28.7005  -13.0513   20.9714 C   0  0  0  0  0  0
  -25.2575  -13.8204   20.5701 C   0  0  0  0  0  0
  -24.1845  -13.0381   20.9157 C   0  0  0  0  0  0
  -24.6474  -11.6899   20.8731 C   0  0  0  0  0  0
  -23.9140  -10.4267   21.0366 C   0  0  0  0  0  0
  -24.3676   -9.4195   21.9167 C   0  0  0  0  0  0
  -23.6344   -8.2233   22.0747 C   0  0  0  0  0  0
  -22.4307   -8.0288   21.3556 C   0  0  0  0  0  0
  -21.9954   -9.0244   20.4647 C   0  0  0  0  0  0
  -22.7295  -10.2127   20.3057 C   0  0  0  0  0  0
  -21.6834   -6.0785   22.5273 C   0  0  0  0  0  0
  -21.4042   -6.5668   23.8217 C   0  0  0  0  0  0
  -21.3633   -5.6805   24.9139 C   0  0  0  0  0  0
  -21.6043   -4.3075   24.7189 C   0  0  0  0  0  0
  -21.8816   -3.8182   23.4285 C   0  0  0  0  0  0
  -21.9224   -4.7021   22.3363 C   0  0  0  0  0  0
  -22.7880  -13.5143   21.1720 C   0  0  0  0  0  0
  -22.1681   -4.2215   21.0940 F   0  0  0  0  0  0
  -21.5595   -3.4540   25.7677 F   0  0  0  0  0  0
  -30.0193  -13.3121   20.3846 N   0  0  0  0  0  0
  -26.2991  -12.9419   20.3286 N   0  0  0  0  0  0
  -25.9399  -11.6550   20.5778 N   0  0  0  0  0  0
  -22.0604  -12.8186   22.0387 N   0  0  0  0  0  0
  -25.4125  -15.1949   20.4245 N   0  0  0  0  0  0
  -31.9013  -14.5648   20.1739 O   0  0  0  0  0  0
  -21.6650   -6.8908   21.4231 O   0  0  0  0  0  0
  -22.3528  -14.5421   20.6553 O   0  0  0  0  0  0
  -24.6190  -31.8765   23.2125 C   0  0  0  0  0  0
  -25.9065  -32.4899   23.8441 C   0  0  1  0  0  0
  -27.1904  -27.4321   19.9961 C   0  0  0  0  0  0
  -25.5968  -33.8701   24.2378 N   0  0  0  0  0  0
  -23.3923  -30.5209   21.5603 C   0  0  2  0  0  0
  -24.8087  -28.9853   20.1358 C   0  0  0  0  0  0
  -22.7386  -29.4822   22.5009 C   0  0  0  0  0  0
  -18.0244  -28.1363   22.8492 C   0  0  0  0  0  0
  -24.1448  -36.7291   23.2648 C   0  0  0  0  0  0
  -25.9311  -30.8506   21.3381 C   0  0  0  0  0  0
  -25.9989  -29.4885   20.6710 C   0  0  0  0  0  0
  -27.2062  -28.7403   20.5591 C   0  0  0  0  0  0
  -25.9292  -26.9107   19.6300 C   0  0  0  0  0  0
  -24.7692  -27.6884   19.6258 C   0  0  0  0  0  0
  -23.5801  -29.8588   20.1763 C   0  0  0  0  0  0
  -25.4101  -36.3174   24.0373 C   0  0  1  0  0  0
  -20.5868  -28.3677   23.1252 C   0  0  2  0  0  0
  -20.6666  -26.9405   22.5356 C   0  0  0  0  0  0
  -19.5660  -26.6351   21.5150 C   0  0  0  0  0  0
  -18.1870  -26.7876   22.1647 C   0  0  0  0  0  0
  -19.1532  -28.8813   23.2871 C   0  0  0  0  0  0
  -18.9492  -30.1416   23.8841 C   0  0  0  0  0  0
  -17.6514  -30.6596   24.0561 C   0  0  0  0  0  0
  -25.9056  -34.9520   23.5165 C   0  0  0  0  0  0
  -16.5360  -29.9142   23.6364 C   0  0  0  0  0  0
  -16.7245  -28.6574   23.0307 C   0  0  0  0  0  0
  -26.4400  -31.6701   25.0780 C   0  0  0  0  0  0
  -25.3598  -31.3897   26.1539 C   0  0  0  0  0  0
  -27.0254  -30.3143   24.6237 C   0  0  0  0  0  0
  -27.5961  -32.4425   25.7582 C   0  0  0  0  0  0
  -27.5573  -37.1840   24.8505 C   0  0  0  0  0  0
  -21.4136  -29.3109   22.3676 N   0  0  0  0  0  0
  -26.4251  -37.3879   23.9486 N   0  0  0  0  0  0
  -24.6721  -31.0905   22.0992 N   0  0  0  0  0  0
  -23.4186  -28.8305   23.2977 O   0  0  0  0  0  0
  -28.3524  -26.6896   19.7881 O   0  0  0  0  0  0
  -26.5580  -34.9025   22.4694 O   0  0  0  0  0  0
  -23.5379  -32.1438   23.7596 O   0  0  0  0  0  0
  -29.1848  -19.3879   18.2299 C   0  0  0  0  0  0
  -29.3584  -20.5081   20.3524 C   0  0  0  0  0  0
  -29.5700  -18.1648   18.8261 C   0  0  0  0  0  0
  -29.9619  -18.1309   20.1997 C   0  0  0  0  0  0
  -29.1143  -20.5974   18.9645 C   0  0  0  0  0  0
  -29.8696  -19.3322   20.9501 C   0  0  0  0  0  0
  -28.3547  -24.2166   18.7729 C   0  0  0  0  0  0
  -29.1558  -23.1069   18.8532 C   0  0  0  0  0  0
  -27.2898  -24.2183   17.7136 C   0  0  0  0  0  0
  -27.1637  -22.9850   16.8259 C   0  0  0  0  0  0
  -27.5627  -21.7007   17.5579 C   0  0  0  0  0  0
  -29.5674  -16.9390   17.9300 C   0  0  0  0  0  0
  -30.5827  -23.1646   19.4303 C   0  0  0  0  0  0
  -27.5631  -20.5482   23.7059 C   0  0  0  0  0  0
  -30.5702  -16.8994   20.9146 C   0  0  0  0  0  0
  -28.2764  -25.2473   19.9553 C   0  0  0  0  0  0
  -28.8056  -19.6984   23.9633 C   0  0  0  0  0  0
  -30.0320  -20.2425   23.2209 C   0  0  0  0  0  0
  -28.8014  -21.8399   18.3323 N   0  0  0  0  0  0
  -29.9800  -15.5780   20.6858 N   0  0  0  0  0  0
  -26.6065  -25.1874   17.3856 O   0  0  0  0  0  0
  -30.4049  -19.3028   22.2239 O   0  0  0  0  0  0
  -31.4530  -12.3516   19.1196 H   0  0  0  0  0  0
  -30.2749  -11.2908   19.8280 H   0  0  0  0  0  0
  -29.7068  -11.7521   17.4192 H   0  0  0  0  0  0
  -29.6631  -13.4629   17.7329 H   0  0  0  0  0  0
  -27.7826  -11.3226   18.7999 H   0  0  0  0  0  0
  -27.3556  -12.6547   17.7724 H   0  0  0  0  0  0
  -27.6725  -14.2634   19.5120 H   0  0  0  0  0  0
  -28.6796  -12.0379   21.3723 H   0  0  0  0  0  0
  -28.4968  -13.7138   21.8156 H   0  0  0  0  0  0
  -25.2833   -9.5643   22.4728 H   0  0  0  0  0  0
  -24.0023   -7.4628   22.7511 H   0  0  0  0  0  0
  -21.0849   -8.8767   19.9005 H   0  0  0  0  0  0
  -22.3729  -10.9644   19.6164 H   0  0  0  0  0  0
  -21.2064   -7.6192   23.9714 H   0  0  0  0  0  0
  -21.1436   -6.0539   25.9043 H   0  0  0  0  0  0
  -22.0646   -2.7661   23.2744 H   0  0  0  0  0  0
  -22.4285  -11.9814   22.4686 H   0  0  0  0  0  0
  -21.1258  -13.1232   22.2692 H   0  0  0  0  0  0
  -24.6294  -15.8189   20.5836 H   0  0  0  0  0  0
  -26.2416  -15.6786   20.1026 H   0  0  0  0  0  0
  -26.7074  -32.5506   23.1181 H   0  0  0  0  0  0
  -25.0198  -33.9945   25.0574 H   0  0  0  0  0  0
  -22.6918  -31.3536   21.4408 H   0  0  0  0  0  0
  -23.3775  -35.9546   23.3315 H   0  0  0  0  0  0
  -24.3432  -36.8858   22.2023 H   0  0  0  0  0  0
  -23.7066  -37.6467   23.6582 H   0  0  0  0  0  0
  -26.0411  -31.6133   20.5614 H   0  0  0  0  0  0
  -26.8183  -30.8948   21.9574 H   0  0  0  0  0  0
  -28.1368  -29.1868   20.8781 H   0  0  0  0  0  0
  -25.7623  -25.8927   19.3529 H   0  0  0  0  0  0
  -23.8292  -27.2725   19.2896 H   0  0  0  0  0  0
  -22.6946  -29.3008   19.8588 H   0  0  0  0  0  0
  -23.7062  -30.6305   19.4163 H   0  0  0  0  0  0
  -25.1225  -36.2079   25.0833 H   0  0  0  0  0  0
  -20.9946  -28.3163   24.1415 H   0  0  0  0  0  0
  -20.5430  -26.2346   23.3598 H   0  0  0  0  0  0
  -21.6542  -26.7244   22.1292 H   0  0  0  0  0  0
  -19.6799  -25.6291   21.1153 H   0  0  0  0  0  0
  -19.6526  -27.3148   20.6687 H   0  0  0  0  0  0
  -17.4065  -26.6558   21.4092 H   0  0  0  0  0  0
  -18.0365  -26.0011   22.9089 H   0  0  0  0  0  0
  -19.7970  -30.7242   24.2134 H   0  0  0  0  0  0
  -17.5121  -31.6271   24.5190 H   0  0  0  0  0  0
  -15.5404  -30.3042   23.7747 H   0  0  0  0  0  0
  -15.8620  -28.0913   22.6984 H   0  0  0  0  0  0
  -24.5710  -30.7342   25.7874 H   0  0  0  0  0  0
  -24.8828  -32.3084   26.4997 H   0  0  0  0  0  0
  -25.7839  -30.9064   27.0329 H   0  0  0  0  0  0
  -26.2876  -29.6997   24.1041 H   0  0  0  0  0  0
  -27.3721  -29.7351   25.4852 H   0  0  0  0  0  0
  -27.8850  -30.4533   23.9680 H   0  0  0  0  0  0
  -27.2555  -33.3757   26.2194 H   0  0  0  0  0  0
  -28.3691  -32.6980   25.0343 H   0  0  0  0  0  0
  -28.0618  -31.8473   26.5461 H   0  0  0  0  0  0
  -28.2673  -38.0082   24.7570 H   0  0  0  0  0  0
  -28.0987  -36.2626   24.6268 H   0  0  0  0  0  0
  -27.2323  -37.1488   25.8925 H   0  0  0  0  0  0
  -20.9260  -29.9125   21.7149 H   0  0  0  0  0  0
  -26.0173  -38.2971   24.1480 H   0  0  0  0  0  0
  -28.9512  -19.3794   17.1736 H   0  0  0  0  0  0
  -29.2606  -21.4155   20.9291 H   0  0  0  0  0  0
  -27.8154  -23.1321   15.9654 H   0  0  0  0  0  0
  -26.1533  -22.9062   16.4139 H   0  0  0  0  0  0
  -27.6587  -20.9209   16.8026 H   0  0  0  0  0  0
  -26.7415  -21.3968   18.2126 H   0  0  0  0  0  0
  -29.7315  -17.2260   16.8887 H   0  0  0  0  0  0
  -28.6002  -16.4334   17.9905 H   0  0  0  0  0  0
  -30.3376  -16.2200   18.1886 H   0  0  0  0  0  0
  -30.7891  -24.0347   20.0466 H   0  0  0  0  0  0
  -31.2902  -23.2069   18.5971 H   0  0  0  0  0  0
  -30.9145  -22.2972   19.9856 H   0  0  0  0  0  0
  -26.7090  -20.2001   24.2902 H   0  0  0  0  0  0
  -27.2964  -20.5606   22.6498 H   0  0  0  0  0  0
  -27.7865  -21.5731   23.9951 H   0  0  0  0  0  0
  -31.6440  -16.9212   20.7152 H   0  0  0  0  0  0
  -30.4941  -16.9979   21.9988 H   0  0  0  0  0  0
  -29.0544  -25.0077   20.6736 H   0  0  0  0  0  0
  -27.3727  -25.0069   20.5103 H   0  0  0  0  0  0
  -28.6361  -18.6498   23.7088 H   0  0  0  0  0  0
  -29.0248  -19.6921   25.0274 H   0  0  0  0  0  0
  -30.8618  -20.2849   23.9298 H   0  0  0  0  0  0
  -29.9081  -21.2707   22.8779 H   0  0  0  0  0  0
  -28.9847  -15.4849   20.7842 H   0  0  0  0  0  0
  1 25  1  0  0  0
  1 30  2  0  0  0
  1 90  1  0  0  0
  2  3  1  0  0  0
  2 25  1  0  0  0
  2 93  1  0  0  0
  2 94  1  0  0  0
  3  4  1  0  0  0
  3 95  1  0  0  0
  3 96  1  0  0  0
  4  5  1  0  0  0
  4 97  1  0  0  0
  4 98  1  0  0  0
  5  6  1  0  0  0
  5 26  1  0  0  0
  5 99  1  0  0  0
  6 25  1  0  0  0
  6100  1  0  0  0
  6101  1  0  0  0
  7  8  2  0  0  0
  7 26  1  0  0  0
  7 29  1  0  0  0
  8  9  1  0  0  0
  8 22  1  0  0  0
  9 10  1  0  0  0
  9 27  2  0  0  0
 10 11  2  0  0  0
 10 15  1  0  0  0
 11 12  1  0  0  0
 11102  1  0  0  0
 12 13  2  0  0  0
 12103  1  0  0  0
 13 14  1  0  0  0
 13 31  1  0  0  0
 14 15  2  0  0  0
 14104  1  0  0  0
 15105  1  0  0  0
 16 17  2  0  0  0
 16 21  1  0  0  0
 16 31  1  0  0  0
 17 18  1  0  0  0
 17106  1  0  0  0
 18 19  2  0  0  0
 18107  1  0  0  0
 19 20  1  0  0  0
 19 24  1  0  0  0
 20 21  2  0  0  0
 20108  1  0  0  0
 21 23  1  0  0  0
 22 28  1  0  0  0
 22 32  2  0  0  0
 26 27  1  0  0  0
 28109  1  0  0  0
 28110  1  0  0  0
 29111  1  0  0  0
 29112  1  0  0  0
 33 34  1  0  0  0
 33 66  1  0  0  0
 33 70  2  0  0  0
 34 36  1  0  0  0
 34 59  1  0  0  0
 34113  1  0  0  0
 35 44  2  0  0  0
 35 45  1  0  0  0
 35 68  1  0  0  0
 36 56  1  0  0  0
 36114  1  0  0  0
 37 39  1  0  0  0
 37 47  1  0  0  0
 37 66  1  0  0  0
 37115  1  0  0  0
 38 43  2  0  0  0
 38 46  1  0  0  0
 38 47  1  0  0  0
 39 64  1  0  0  0
 39 67  2  0  0  0
 40 52  1  0  0  0
 40 53  2  0  0  0
 40 58  1  0  0  0
 41116  1  0  0  0
 41117  1  0  0  0
 41118  1  0  0  0
 41 48  1  0  0  0
 42 43  1  0  0  0
 42 66  1  0  0  0
 42119  1  0  0  0
 42120  1  0  0  0
 43 44  1  0  0  0
 44121  1  0  0  0
 45 46  2  0  0  0
 45122  1  0  0  0
 46123  1  0  0  0
 47124  1  0  0  0
 47125  1  0  0  0
 48 56  1  0  0  0
 48 65  1  0  0  0
 48126  1  0  0  0
 49 50  1  0  0  0
 49 53  1  0  0  0
 49 64  1  0  0  0
 49127  1  0  0  0
 50 51  1  0  0  0
 50128  1  0  0  0
 50129  1  0  0  0
 51 52  1  0  0  0
 51130  1  0  0  0
 51131  1  0  0  0
 52132  1  0  0  0
 52133  1  0  0  0
 53 54  1  0  0  0
 54 55  2  0  0  0
 54134  1  0  0  0
 55 57  1  0  0  0
 55135  1  0  0  0
 56 69  2  0  0  0
 57 58  2  0  0  0
 57136  1  0  0  0
 58137  1  0  0  0
 59 60  1  0  0  0
 59 61  1  0  0  0
 59 62  1  0  0  0
 60138  1  0  0  0
 60139  1  0  0  0
 60140  1  0  0  0
 61141  1  0  0  0
 61142  1  0  0  0
 61143  1  0  0  0
 62144  1  0  0  0
 62145  1  0  0  0
 62146  1  0  0  0
 63 65  1  0  0  0
 63147  1  0  0  0
 63148  1  0  0  0
 63149  1  0  0  0
 64150  1  0  0  0
 65151  1  0  0  0
 68 86  1  0  0  0
 71 73  2  0  0  0
 71 75  1  0  0  0
 71152  1  0  0  0
 72 75  2  0  0  0
 72 76  1  0  0  0
 72153  1  0  0  0
 73 74  1  0  0  0
 73 82  1  0  0  0
 74 76  2  0  0  0
 74 85  1  0  0  0
 75 89  1  0  0  0
 76 92  1  0  0  0
 77 78  2  0  0  0
 77 79  1  0  0  0
 77 86  1  0  0  0
 78 83  1  0  0  0
 78 89  1  0  0  0
 79 80  1  0  0  0
 79 91  2  0  0  0
 80 81  1  0  0  0
 80154  1  0  0  0
 80155  1  0  0  0
 81 89  1  0  0  0
 81156  1  0  0  0
 81157  1  0  0  0
 82158  1  0  0  0
 82159  1  0  0  0
 82160  1  0  0  0
 83161  1  0  0  0
 83162  1  0  0  0
 83163  1  0  0  0
 84 87  1  0  0  0
 84164  1  0  0  0
 84165  1  0  0  0
 84166  1  0  0  0
 85 90  1  0  0  0
 85167  1  0  0  0
 85168  1  0  0  0
 86169  1  0  0  0
 86170  1  0  0  0
 87 88  1  0  0  0
 87171  1  0  0  0
 87172  1  0  0  0
 88 92  1  0  0  0
 88173  1  0  0  0
 88174  1  0  0  0
 90175  1  0  0  0
M  ISO  4   1 100  68 101  86 101  90 100
M  END
> <chiral flag>
0

> <version>
0

> <s_m_source_file>
/data/baiqing/PycharmProjects/Reinvent-master-3.2/result/LINK_invent/BTK/process_docking_weight1_custom_product_contain_oxygen_bond_distance_aromatic_linkinvent_7_9_3/rearranged_h_0109.sdf

> <i_m_source_file_index>
24

> <r_mmod_Potential_Energy-OPLS-2005>
167.791198730469

> <r_mmod_Stretch_Energy-OPLS-2005>
59.0040321350098

> <r_mmod_Bend_Energy-OPLS-2005>
158.024536132812

> <r_mmod_Torsional_Energy-OPLS-2005>
299.227722167969

> <r_mmod_Improper_Torsional_Energy-OPLS-2005>
11.1234312057495

> <r_mmod_Van_der_Waal_Energy-OPLS-2005>
207.723983764648

> <r_mmod_Electrostatic_Energy-OPLS-2005>
-386.438140869141

> <r_mmod_Solvation_Energy-OPLS-2005>
-217.869979858398

> <b_mmod_Minimization_Converged-OPLS-2005>
0

> <r_mmod_RMS_Derivative-OPLS-2005>
12.2392463684082

$$$$
24
                    3D
 Structure written by MMmdl.
159167  0  0  1  0            999 V2000
  -30.7753  -14.4870   20.6187 C   0  0  0  0  0  0
  -30.4081  -12.3428   19.4339 C   0  0  0  0  0  0
  -29.4849  -12.5017   18.2124 C   0  0  0  0  0  0
  -28.0179  -12.3077   18.6333 C   0  0  0  0  0  0
  -27.6492  -13.1808   19.8567 C   0  0  2  0  0  0
  -28.6955  -13.0483   20.9942 C   0  0  0  0  0  0
  -25.2595  -13.8087   20.5706 C   0  0  0  0  0  0
  -24.1808  -13.0404   20.9158 C   0  0  0  0  0  0
  -24.6335  -11.6863   20.8741 C   0  0  0  0  0  0
  -23.9007  -10.4270   21.0429 C   0  0  0  0  0  0
  -24.3581   -9.4191   21.9204 C   0  0  0  0  0  0
  -23.6264   -8.2223   22.0765 C   0  0  0  0  0  0
  -22.4250   -8.0264   21.3546 C   0  0  0  0  0  0
  -21.9876   -9.0234   20.4654 C   0  0  0  0  0  0
  -22.7192  -10.2114   20.3070 C   0  0  0  0  0  0
  -21.6840   -6.0718   22.5279 C   0  0  0  0  0  0
  -21.4003   -6.5627   23.8211 C   0  0  0  0  0  0
  -21.3660   -5.6784   24.9175 C   0  0  0  0  0  0
  -21.6043   -4.3047   24.7232 C   0  0  0  0  0  0
  -21.8821   -3.8135   23.4352 C   0  0  0  0  0  0
  -21.9192   -4.6949   22.3409 C   0  0  0  0  0  0
  -22.7852  -13.5247   21.1839 C   0  0  0  0  0  0
  -22.1669   -4.2134   21.0985 F   0  0  0  0  0  0
  -21.5624   -3.4535   25.7747 F   0  0  0  0  0  0
  -30.0210  -13.3563   20.4375 N   0  0  0  0  0  0
  -26.2961  -12.9189   20.3322 N   0  0  0  0  0  0
  -25.9247  -11.6383   20.5767 N   0  0  0  0  0  0
  -22.0468  -12.8264   22.0397 N   0  0  0  0  0  0
  -25.4451  -15.1795   20.4267 N   0  0  0  0  0  0
  -31.8668  -14.6082   20.0555 O   0  0  0  0  0  0
  -21.6621   -6.8856   21.4239 O   0  0  0  0  0  0
  -22.3566  -14.5574   20.6704 O   0  0  0  0  0  0
  -24.6138  -31.8678   23.2104 C   0  0  0  0  0  0
  -25.9032  -32.4825   23.8401 C   0  0  1  0  0  0
  -27.2337  -27.4382   20.1024 C   0  0  0  0  0  0
  -25.5883  -33.8621   24.2328 N   0  0  0  0  0  0
  -23.4030  -30.4911   21.5503 C   0  0  2  0  0  0
  -24.8515  -28.9601   20.1142 C   0  0  0  0  0  0
  -22.7411  -29.4645   22.4983 C   0  0  0  0  0  0
  -18.0274  -28.1377   22.8485 C   0  0  0  0  0  0
  -24.1477  -36.7306   23.2639 C   0  0  0  0  0  0
  -25.9318  -30.8369   21.3631 C   0  0  0  0  0  0
  -26.0119  -29.4723   20.7090 C   0  0  0  0  0  0
  -27.2091  -28.7198   20.6973 C   0  0  0  0  0  0
  -26.0599  -26.9451   19.4915 C   0  0  0  0  0  0
  -24.8696  -27.6957   19.5016 C   0  0  0  0  0  0
  -23.6121  -29.8246   20.1647 C   0  0  0  0  0  0
  -25.4100  -36.3108   24.0335 C   0  0  1  0  0  0
  -20.5862  -28.3660   23.1316 C   0  0  2  0  0  0
  -20.6764  -26.9394   22.5423 C   0  0  0  0  0  0
  -19.5749  -26.6383   21.5213 C   0  0  0  0  0  0
  -18.1923  -26.7924   22.1616 C   0  0  0  0  0  0
  -19.1522  -28.8834   23.2899 C   0  0  0  0  0  0
  -18.9452  -30.1438   23.8919 C   0  0  0  0  0  0
  -17.6454  -30.6578   24.0567 C   0  0  0  0  0  0
  -25.9027  -34.9474   23.5130 C   0  0  0  0  0  0
  -16.5348  -29.9085   23.6319 C   0  0  0  0  0  0
  -16.7263  -28.6500   23.0344 C   0  0  0  0  0  0
  -26.4464  -31.6605   25.0725 C   0  0  0  0  0  0
  -25.3729  -31.3701   26.1472 C   0  0  0  0  0  0
  -27.0304  -30.3054   24.6091 C   0  0  0  0  0  0
  -27.6035  -32.4324   25.7495 C   0  0  0  0  0  0
  -27.5566  -37.1821   24.8456 C   0  0  0  0  0  0
  -21.4139  -29.3025   22.3722 N   0  0  0  0  0  0
  -26.4282  -37.3792   23.9397 N   0  0  0  0  0  0
  -24.6679  -31.0789   22.1002 N   0  0  0  0  0  0
  -23.4186  -28.8184   23.3017 O   0  0  0  0  0  0
  -28.3788  -26.6736   20.1217 O   0  0  0  0  0  0
  -26.5594  -34.8921   22.4694 O   0  0  0  0  0  0
  -23.5330  -32.1420   23.7501 O   0  0  0  0  0  0
  -30.6559  -18.3830   20.3017 C   0  0  0  0  0  0
  -30.8428  -19.7769   20.1809 C   0  0  0  0  0  0
  -29.1376  -20.1468   21.8645 C   0  0  0  0  0  0
  -29.6920  -17.8463   21.1869 C   0  0  0  0  0  0
  -28.9391  -18.7493   21.9901 C   0  0  0  0  0  0
  -30.0693  -20.6770   20.9414 C   0  0  0  0  0  0
  -29.3942  -16.3572   21.1428 C   0  0  0  0  0  0
  -29.3189  -24.3994   20.4793 C   0  0  0  0  0  0
  -27.9052  -18.2528   22.9914 C   0  0  0  0  0  0
  -31.4113  -15.9328   22.4223 C   0  0  0  0  0  0
  -29.1788  -23.0003   21.1160 C   0  0  0  0  0  0
  -28.1960  -25.4072   20.7849 C   0  0  0  0  0  0
  -30.2478  -22.0602   20.7510 N   0  0  0  0  0  0
  -30.3819  -15.4766   21.4699 N   0  0  0  0  0  0
  -28.2718  -16.0347   20.7576 O   0  0  0  0  0  0
  -30.2806  -24.6785   19.7515 O   0  0  0  0  0  0
  -31.4508  -12.4205   19.1220 H   0  0  0  0  0  0
  -30.3098  -11.3421   19.8588 H   0  0  0  0  0  0
  -29.7527  -11.7808   17.4387 H   0  0  0  0  0  0
  -29.6180  -13.4916   17.7728 H   0  0  0  0  0  0
  -27.8729  -11.2534   18.8717 H   0  0  0  0  0  0
  -27.3533  -12.5273   17.7973 H   0  0  0  0  0  0
  -27.6562  -14.1899   19.4593 H   0  0  0  0  0  0
  -28.6933  -12.0334   21.3948 H   0  0  0  0  0  0
  -28.4411  -13.6913   21.8368 H   0  0  0  0  0  0
  -25.2732   -9.5659   22.4770 H   0  0  0  0  0  0
  -23.9970   -7.4609   22.7477 H   0  0  0  0  0  0
  -21.0806   -8.8747   19.8956 H   0  0  0  0  0  0
  -22.3661  -10.9653   19.6171 H   0  0  0  0  0  0
  -21.1983   -7.6132   23.9717 H   0  0  0  0  0  0
  -21.1489   -6.0510   25.9081 H   0  0  0  0  0  0
  -22.0601   -2.7596   23.2866 H   0  0  0  0  0  0
  -22.4058  -11.9922   22.4796 H   0  0  0  0  0  0
  -21.1097  -13.1326   22.2595 H   0  0  0  0  0  0
  -24.7208  -15.8576   20.6321 H   0  0  0  0  0  0
  -26.3743  -15.5911   20.3492 H   0  0  0  0  0  0
  -26.7112  -32.5544   23.1176 H   0  0  0  0  0  0
  -25.0022  -33.9786   25.0465 H   0  0  0  0  0  0
  -22.6913  -31.3074   21.4111 H   0  0  0  0  0  0
  -23.3732  -35.9649   23.3333 H   0  0  0  0  0  0
  -24.3567  -36.8890   22.2047 H   0  0  0  0  0  0
  -23.7247  -37.6524   23.6640 H   0  0  0  0  0  0
  -26.0434  -31.6044   20.5960 H   0  0  0  0  0  0
  -26.8193  -30.8908   21.9817 H   0  0  0  0  0  0
  -28.1049  -29.1071   21.1627 H   0  0  0  0  0  0
  -26.0586  -25.9802   19.0044 H   0  0  0  0  0  0
  -23.9782  -27.2974   19.0368 H   0  0  0  0  0  0
  -23.7201  -30.5995   19.4051 H   0  0  0  0  0  0
  -22.7372  -29.2430   19.8685 H   0  0  0  0  0  0
  -25.1281  -36.1974   25.0830 H   0  0  0  0  0  0
  -20.9951  -28.3233   24.1438 H   0  0  0  0  0  0
  -20.5656  -26.2268   23.3609 H   0  0  0  0  0  0
  -21.6641  -26.7432   22.1230 H   0  0  0  0  0  0
  -19.6916  -25.6299   21.1233 H   0  0  0  0  0  0
  -19.6693  -27.3206   20.6754 H   0  0  0  0  0  0
  -17.4190  -26.6662   21.4021 H   0  0  0  0  0  0
  -18.0329  -26.0066   22.9012 H   0  0  0  0  0  0
  -19.7927  -30.7247   24.2308 H   0  0  0  0  0  0
  -17.5009  -31.6259   24.5164 H   0  0  0  0  0  0
  -15.5349  -30.3000   23.7627 H   0  0  0  0  0  0
  -15.8656  -28.0826   22.7058 H   0  0  0  0  0  0
  -24.5887  -30.7076   25.7793 H   0  0  0  0  0  0
  -24.8945  -32.2859   26.4951 H   0  0  0  0  0  0
  -25.8078  -30.8832   27.0207 H   0  0  0  0  0  0
  -26.2862  -29.6834   24.1103 H   0  0  0  0  0  0
  -27.4047  -29.7268   25.4545 H   0  0  0  0  0  0
  -27.8705  -30.4391   23.9269 H   0  0  0  0  0  0
  -27.2654  -33.3621   26.2079 H   0  0  0  0  0  0
  -28.3845  -32.6882   25.0324 H   0  0  0  0  0  0
  -28.0699  -31.8441   26.5407 H   0  0  0  0  0  0
  -28.2595  -38.0104   24.7481 H   0  0  0  0  0  0
  -28.1050  -36.2637   24.6308 H   0  0  0  0  0  0
  -27.2284  -37.1502   25.8859 H   0  0  0  0  0  0
  -20.9298  -29.8745   21.6942 H   0  0  0  0  0  0
  -26.0167  -38.2869   24.1396 H   0  0  0  0  0  0
  -31.2322  -17.7221   19.6688 H   0  0  0  0  0  0
  -31.5712  -20.1457   19.4720 H   0  0  0  0  0  0
  -28.5497  -20.8123   22.4805 H   0  0  0  0  0  0
  -27.5579  -19.0592   23.6385 H   0  0  0  0  0  0
  -28.3270  -17.4801   23.6349 H   0  0  0  0  0  0
  -27.0359  -17.8394   22.4787 H   0  0  0  0  0  0
  -30.9771  -16.5025   23.2463 H   0  0  0  0  0  0
  -32.1583  -16.5613   21.9337 H   0  0  0  0  0  0
  -31.9360  -15.0883   22.8727 H   0  0  0  0  0  0
  -28.2116  -22.5922   20.8189 H   0  0  0  0  0  0
  -29.1581  -23.1229   22.1996 H   0  0  0  0  0  0
  -28.1613  -25.5741   21.8616 H   0  0  0  0  0  0
  -27.2540  -24.9343   20.5090 H   0  0  0  0  0  0
  -30.8326  -22.3731   19.9777 H   0  0  0  0  0  0
  1 25  1  0  0  0
  1 30  2  0  0  0
  1 84  1  0  0  0
  2  3  1  0  0  0
  2 25  1  0  0  0
  2 87  1  0  0  0
  2 88  1  0  0  0
  3  4  1  0  0  0
  3 89  1  0  0  0
  3 90  1  0  0  0
  4  5  1  0  0  0
  4 91  1  0  0  0
  4 92  1  0  0  0
  5  6  1  0  0  0
  5 26  1  0  0  0
  5 93  1  0  0  0
  6 25  1  0  0  0
  6 94  1  0  0  0
  6 95  1  0  0  0
  7  8  2  0  0  0
  7 26  1  0  0  0
  7 29  1  0  0  0
  8  9  1  0  0  0
  8 22  1  0  0  0
  9 10  1  0  0  0
  9 27  2  0  0  0
 10 11  2  0  0  0
 10 15  1  0  0  0
 11 12  1  0  0  0
 11 96  1  0  0  0
 12 13  2  0  0  0
 12 97  1  0  0  0
 13 14  1  0  0  0
 13 31  1  0  0  0
 14 15  2  0  0  0
 14 98  1  0  0  0
 15 99  1  0  0  0
 16 17  2  0  0  0
 16 21  1  0  0  0
 16 31  1  0  0  0
 17 18  1  0  0  0
 17100  1  0  0  0
 18 19  2  0  0  0
 18101  1  0  0  0
 19 20  1  0  0  0
 19 24  1  0  0  0
 20 21  2  0  0  0
 20102  1  0  0  0
 21 23  1  0  0  0
 22 28  1  0  0  0
 22 32  2  0  0  0
 26 27  1  0  0  0
 28103  1  0  0  0
 28104  1  0  0  0
 29105  1  0  0  0
 29106  1  0  0  0
 33 34  1  0  0  0
 33 66  1  0  0  0
 33 70  2  0  0  0
 34 36  1  0  0  0
 34 59  1  0  0  0
 34107  1  0  0  0
 35 44  2  0  0  0
 35 45  1  0  0  0
 35 68  1  0  0  0
 36 56  1  0  0  0
 36108  1  0  0  0
 37 39  1  0  0  0
 37 47  1  0  0  0
 37 66  1  0  0  0
 37109  1  0  0  0
 38 43  2  0  0  0
 38 46  1  0  0  0
 38 47  1  0  0  0
 39 64  1  0  0  0
 39 67  2  0  0  0
 40 52  1  0  0  0
 40 53  2  0  0  0
 40 58  1  0  0  0
 41110  1  0  0  0
 41111  1  0  0  0
 41112  1  0  0  0
 41 48  1  0  0  0
 42 43  1  0  0  0
 42 66  1  0  0  0
 42113  1  0  0  0
 42114  1  0  0  0
 43 44  1  0  0  0
 44115  1  0  0  0
 45 46  2  0  0  0
 45116  1  0  0  0
 46117  1  0  0  0
 47118  1  0  0  0
 47119  1  0  0  0
 48 56  1  0  0  0
 48 65  1  0  0  0
 48120  1  0  0  0
 49 50  1  0  0  0
 49 53  1  0  0  0
 49 64  1  0  0  0
 49121  1  0  0  0
 50 51  1  0  0  0
 50122  1  0  0  0
 50123  1  0  0  0
 51 52  1  0  0  0
 51124  1  0  0  0
 51125  1  0  0  0
 52126  1  0  0  0
 52127  1  0  0  0
 53 54  1  0  0  0
 54 55  2  0  0  0
 54128  1  0  0  0
 55 57  1  0  0  0
 55129  1  0  0  0
 56 69  2  0  0  0
 57 58  2  0  0  0
 57130  1  0  0  0
 58131  1  0  0  0
 59 60  1  0  0  0
 59 61  1  0  0  0
 59 62  1  0  0  0
 60132  1  0  0  0
 60133  1  0  0  0
 60134  1  0  0  0
 61135  1  0  0  0
 61136  1  0  0  0
 61137  1  0  0  0
 62138  1  0  0  0
 62139  1  0  0  0
 62140  1  0  0  0
 63 65  1  0  0  0
 63141  1  0  0  0
 63142  1  0  0  0
 63143  1  0  0  0
 64144  1  0  0  0
 65145  1  0  0  0
 68 82  1  0  0  0
 71 72  2  0  0  0
 71 74  1  0  0  0
 71146  1  0  0  0
 72 76  1  0  0  0
 72147  1  0  0  0
 73 75  1  0  0  0
 73 76  2  0  0  0
 73148  1  0  0  0
 74 75  2  0  0  0
 74 77  1  0  0  0
 75 79  1  0  0  0
 76 83  1  0  0  0
 77 84  1  0  0  0
 77 85  2  0  0  0
 78 81  1  0  0  0
 78 82  1  0  0  0
 78 86  2  0  0  0
 79149  1  0  0  0
 79150  1  0  0  0
 79151  1  0  0  0
 80 84  1  0  0  0
 80152  1  0  0  0
 80153  1  0  0  0
 80154  1  0  0  0
 81 83  1  0  0  0
 81155  1  0  0  0
 81156  1  0  0  0
 82157  1  0  0  0
 82158  1  0  0  0
 83159  1  0  0  0
M  ISO  4   1 100  68 101  82 101  84 100
M  END
> <chiral flag>
0

> <version>
0

> <s_m_source_file>
/data/baiqing/PycharmProjects/Reinvent-master-3.2/result/LINK_invent/BTK/process_docking_weight1_custom_product_contain_oxygen_bond_distance_aromatic_linkinvent_7_9_3/rearranged_h_0109.sdf

> <i_m_source_file_index>
25

> <r_mmod_Potential_Energy-OPLS-2005>
190.862991333008

> <r_mmod_Stretch_Energy-OPLS-2005>
43.2816619873047

> <r_mmod_Bend_Energy-OPLS-2005>
115.249862670898

> <r_mmod_Torsional_Energy-OPLS-2005>
337.299224853516

> <r_mmod_Improper_Torsional_Energy-OPLS-2005>
6.8907527923584

> <r_mmod_Van_der_Waal_Energy-OPLS-2005>
165.29377746582

> <r_mmod_Electrostatic_Energy-OPLS-2005>
-282.279968261719

> <r_mmod_Solvation_Energy-OPLS-2005>
-212.011840820312

> <b_mmod_Minimization_Converged-OPLS-2005>
0

> <r_mmod_RMS_Derivative-OPLS-2005>
1.08493423461914

$$$$
25
                    3D
 Structure written by MMmdl.
161169  0  0  1  0            999 V2000
  -30.7074  -14.5224   20.4913 C   0  0  0  0  0  0
  -30.4203  -12.3104   19.4396 C   0  0  0  0  0  0
  -29.4949  -12.4401   18.2123 C   0  0  0  0  0  0
  -28.0137  -12.3303   18.6303 C   0  0  0  0  0  0
  -27.6501  -13.2030   19.8633 C   0  0  2  0  0  0
  -28.7024  -13.0681   20.9871 C   0  0  0  0  0  0
  -25.2573  -13.8148   20.5728 C   0  0  0  0  0  0
  -24.1816  -13.0437   20.9210 C   0  0  0  0  0  0
  -24.6368  -11.6901   20.8766 C   0  0  0  0  0  0
  -23.9035  -10.4293   21.0416 C   0  0  0  0  0  0
  -24.3598   -9.4210   21.9185 C   0  0  0  0  0  0
  -23.6284   -8.2242   22.0750 C   0  0  0  0  0  0
  -22.4267   -8.0278   21.3541 C   0  0  0  0  0  0
  -21.9895   -9.0251   20.4645 C   0  0  0  0  0  0
  -22.7213  -10.2138   20.3060 C   0  0  0  0  0  0
  -21.6856   -6.0728   22.5273 C   0  0  0  0  0  0
  -21.4007   -6.5631   23.8204 C   0  0  0  0  0  0
  -21.3663   -5.6783   24.9166 C   0  0  0  0  0  0
  -21.6047   -4.3046   24.7220 C   0  0  0  0  0  0
  -21.8822   -3.8142   23.4342 C   0  0  0  0  0  0
  -21.9193   -4.6956   22.3396 C   0  0  0  0  0  0
  -22.7839  -13.5242   21.1857 C   0  0  0  0  0  0
  -22.1663   -4.2141   21.0974 F   0  0  0  0  0  0
  -21.5637   -3.4537   25.7737 F   0  0  0  0  0  0
  -30.0209  -13.3472   20.4029 N   0  0  0  0  0  0
  -26.2981  -12.9296   20.3383 N   0  0  0  0  0  0
  -25.9295  -11.6471   20.5818 N   0  0  0  0  0  0
  -22.0475  -12.8242   22.0415 N   0  0  0  0  0  0
  -25.4326  -15.1863   20.4136 N   0  0  0  0  0  0
  -31.8945  -14.6128   20.1678 O   0  0  0  0  0  0
  -21.6639   -6.8872   21.4236 O   0  0  0  0  0  0
  -22.3529  -14.5549   20.6696 O   0  0  0  0  0  0
  -24.6156  -31.8670   23.2083 C   0  0  0  0  0  0
  -25.9045  -32.4817   23.8388 C   0  0  1  0  0  0
  -27.2370  -27.4207   20.1071 C   0  0  0  0  0  0
  -25.5894  -33.8614   24.2320 N   0  0  0  0  0  0
  -23.4044  -30.4895   21.5486 C   0  0  2  0  0  0
  -24.8515  -28.9533   20.1135 C   0  0  0  0  0  0
  -22.7418  -29.4654   22.4984 C   0  0  0  0  0  0
  -18.0276  -28.1380   22.8502 C   0  0  0  0  0  0
  -24.1485  -36.7313   23.2639 C   0  0  0  0  0  0
  -25.9334  -30.8303   21.3621 C   0  0  0  0  0  0
  -26.0107  -29.4634   20.7097 C   0  0  0  0  0  0
  -27.2046  -28.7060   20.6988 C   0  0  0  0  0  0
  -26.0593  -26.9306   19.4956 C   0  0  0  0  0  0
  -24.8722  -27.6883   19.5012 C   0  0  0  0  0  0
  -23.6135  -29.8209   20.1634 C   0  0  0  0  0  0
  -25.4106  -36.3108   24.0339 C   0  0  1  0  0  0
  -20.5868  -28.3667   23.1322 C   0  0  2  0  0  0
  -20.6761  -26.9403   22.5421 C   0  0  0  0  0  0
  -19.5733  -26.6389   21.5221 C   0  0  0  0  0  0
  -18.1916  -26.7927   22.1637 C   0  0  0  0  0  0
  -19.1526  -28.8841   23.2908 C   0  0  0  0  0  0
  -18.9450  -30.1449   23.8914 C   0  0  0  0  0  0
  -17.6450  -30.6583   24.0574 C   0  0  0  0  0  0
  -25.9032  -34.9473   23.5125 C   0  0  0  0  0  0
  -16.5343  -29.9086   23.6329 C   0  0  0  0  0  0
  -16.7266  -28.6506   23.0348 C   0  0  0  0  0  0
  -26.4469  -31.6598   25.0718 C   0  0  0  0  0  0
  -25.3735  -31.3708   26.1467 C   0  0  0  0  0  0
  -27.0293  -30.3038   24.6093 C   0  0  0  0  0  0
  -27.6047  -32.4319   25.7474 C   0  0  0  0  0  0
  -27.5581  -37.1811   24.8468 C   0  0  0  0  0  0
  -21.4143  -29.3030   22.3724 N   0  0  0  0  0  0
  -26.4295  -37.3792   23.9408 N   0  0  0  0  0  0
  -24.6693  -31.0769   22.0980 N   0  0  0  0  0  0
  -23.4187  -28.8204   23.3034 O   0  0  0  0  0  0
  -28.4117  -26.6920   20.1481 O   0  0  0  0  0  0
  -26.5601  -34.8925   22.4691 O   0  0  0  0  0  0
  -23.5344  -32.1424   23.7473 O   0  0  0  0  0  0
  -28.8135  -18.6773   22.1226 C   0  0  0  0  0  0
  -30.5825  -18.7445   20.4784 C   0  0  0  0  0  0
  -29.7958  -17.9920   21.3779 C   0  0  0  0  0  0
  -28.5928  -20.0643   21.9384 C   0  0  0  0  0  0
  -30.3535  -20.1222   20.2603 C   0  0  0  0  0  0
  -29.3510  -20.8205   21.0066 C   0  0  0  0  0  0
  -30.0401  -16.5057   21.5933 C   0  0  0  0  0  0
  -27.5193  -20.7503   22.7640 C   0  0  0  0  0  0
  -29.5270  -16.1591   19.2079 C   0  0  0  0  0  0
  -29.5857  -24.6067   20.6655 C   0  0  0  0  0  0
  -28.3474  -25.2590   20.0056 C   0  0  0  0  0  0
  -29.8895  -23.1306   20.2930 C   0  0  0  0  0  0
  -31.1308  -20.7202   19.2704 N   0  0  0  0  0  0
  -29.9556  -15.6544   20.5286 N   0  0  0  0  0  0
  -30.2856  -16.1259   22.7443 O   0  0  0  0  0  0
  -29.0202  -22.1755   20.9138 O   0  0  0  0  0  0
  -31.4645  -12.3977   19.1338 H   0  0  0  0  0  0
  -30.3239  -11.3227   19.8937 H   0  0  0  0  0  0
  -29.7301  -11.6579   17.4889 H   0  0  0  0  0  0
  -29.6766  -13.3808   17.6950 H   0  0  0  0  0  0
  -27.8231  -11.2810   18.8574 H   0  0  0  0  0  0
  -27.3636  -12.5778   17.7906 H   0  0  0  0  0  0
  -27.6529  -14.2344   19.5239 H   0  0  0  0  0  0
  -28.6885  -12.0638   21.4130 H   0  0  0  0  0  0
  -28.4799  -13.7520   21.8078 H   0  0  0  0  0  0
  -25.2748   -9.5695   22.4749 H   0  0  0  0  0  0
  -24.0004   -7.4634   22.7464 H   0  0  0  0  0  0
  -21.0829   -8.8768   19.8946 H   0  0  0  0  0  0
  -22.3672  -10.9677   19.6167 H   0  0  0  0  0  0
  -21.1992   -7.6139   23.9701 H   0  0  0  0  0  0
  -21.1483   -6.0515   25.9066 H   0  0  0  0  0  0
  -22.0601   -2.7609   23.2837 H   0  0  0  0  0  0
  -22.4091  -11.9899   22.4792 H   0  0  0  0  0  0
  -21.1095  -13.1269   22.2626 H   0  0  0  0  0  0
  -24.6704  -15.8462   20.5243 H   0  0  0  0  0  0
  -26.2900  -15.6221   20.0994 H   0  0  0  0  0  0
  -26.7119  -32.5531   23.1154 H   0  0  0  0  0  0
  -25.0044  -33.9772   25.0464 H   0  0  0  0  0  0
  -22.6929  -31.3060   21.4086 H   0  0  0  0  0  0
  -23.3739  -35.9656   23.3318 H   0  0  0  0  0  0
  -24.3577  -36.8908   22.2050 H   0  0  0  0  0  0
  -23.7246  -37.6526   23.6641 H   0  0  0  0  0  0
  -26.0456  -31.5959   20.5931 H   0  0  0  0  0  0
  -26.8210  -30.8846   21.9809 H   0  0  0  0  0  0
  -28.0999  -29.0966   21.1625 H   0  0  0  0  0  0
  -26.0430  -25.9661   19.0097 H   0  0  0  0  0  0
  -23.9827  -27.2918   19.0314 H   0  0  0  0  0  0
  -23.7214  -30.5943   19.4019 H   0  0  0  0  0  0
  -22.7376  -29.2396   19.8705 H   0  0  0  0  0  0
  -25.1282  -36.1973   25.0833 H   0  0  0  0  0  0
  -20.9969  -28.3229   24.1440 H   0  0  0  0  0  0
  -20.5667  -26.2272   23.3604 H   0  0  0  0  0  0
  -21.6630  -26.7441   22.1209 H   0  0  0  0  0  0
  -19.6884  -25.6305   21.1236 H   0  0  0  0  0  0
  -19.6662  -27.3213   20.6759 H   0  0  0  0  0  0
  -17.4184  -26.6691   21.4040 H   0  0  0  0  0  0
  -18.0308  -26.0063   22.9027 H   0  0  0  0  0  0
  -19.7921  -30.7272   24.2282 H   0  0  0  0  0  0
  -17.5000  -31.6264   24.5174 H   0  0  0  0  0  0
  -15.5341  -30.2993   23.7634 H   0  0  0  0  0  0
  -15.8671  -28.0832   22.7044 H   0  0  0  0  0  0
  -24.5897  -30.7066   25.7808 H   0  0  0  0  0  0
  -24.8936  -32.2863   26.4935 H   0  0  0  0  0  0
  -25.8088  -30.8862   27.0214 H   0  0  0  0  0  0
  -26.2833  -29.6805   24.1146 H   0  0  0  0  0  0
  -27.4057  -29.7270   25.4551 H   0  0  0  0  0  0
  -27.8673  -30.4350   23.9242 H   0  0  0  0  0  0
  -27.2667  -33.3609   26.2078 H   0  0  0  0  0  0
  -28.3836  -32.6899   25.0287 H   0  0  0  0  0  0
  -28.0735  -31.8428   26.5363 H   0  0  0  0  0  0
  -28.2613  -38.0096   24.7505 H   0  0  0  0  0  0
  -28.1061  -36.2627   24.6304 H   0  0  0  0  0  0
  -27.2300  -37.1483   25.8873 H   0  0  0  0  0  0
  -20.9298  -29.8756   21.6953 H   0  0  0  0  0  0
  -26.0182  -38.2874   24.1395 H   0  0  0  0  0  0
  -28.2198  -18.1281   22.8409 H   0  0  0  0  0  0
  -31.3690  -18.2434   19.9310 H   0  0  0  0  0  0
  -26.9819  -20.0462   23.4000 H   0  0  0  0  0  0
  -26.7929  -21.2360   22.1119 H   0  0  0  0  0  0
  -27.9646  -21.5117   23.4051 H   0  0  0  0  0  0
  -30.3321  -16.6964   18.7073 H   0  0  0  0  0  0
  -28.6610  -16.8188   19.2828 H   0  0  0  0  0  0
  -29.2408  -15.3632   18.5251 H   0  0  0  0  0  0
  -29.5248  -24.7096   21.7493 H   0  0  0  0  0  0
  -30.4551  -25.1932   20.3668 H   0  0  0  0  0  0
  -27.4517  -24.8474   20.4744 H   0  0  0  0  0  0
  -28.3088  -25.0112   18.9442 H   0  0  0  0  0  0
  -30.9131  -22.9311   20.6135 H   0  0  0  0  0  0
  -29.8502  -23.0221   19.2088 H   0  0  0  0  0  0
  -31.6152  -20.1101   18.6208 H   0  0  0  0  0  0
  -30.7410  -21.5338   18.8105 H   0  0  0  0  0  0
  1 25  1  0  0  0
  1 30  2  0  0  0
  1 84  1  0  0  0
  2  3  1  0  0  0
  2 25  1  0  0  0
  2 87  1  0  0  0
  2 88  1  0  0  0
  3  4  1  0  0  0
  3 89  1  0  0  0
  3 90  1  0  0  0
  4  5  1  0  0  0
  4 91  1  0  0  0
  4 92  1  0  0  0
  5  6  1  0  0  0
  5 26  1  0  0  0
  5 93  1  0  0  0
  6 25  1  0  0  0
  6 94  1  0  0  0
  6 95  1  0  0  0
  7  8  2  0  0  0
  7 26  1  0  0  0
  7 29  1  0  0  0
  8  9  1  0  0  0
  8 22  1  0  0  0
  9 10  1  0  0  0
  9 27  2  0  0  0
 10 11  2  0  0  0
 10 15  1  0  0  0
 11 12  1  0  0  0
 11 96  1  0  0  0
 12 13  2  0  0  0
 12 97  1  0  0  0
 13 14  1  0  0  0
 13 31  1  0  0  0
 14 15  2  0  0  0
 14 98  1  0  0  0
 15 99  1  0  0  0
 16 17  2  0  0  0
 16 21  1  0  0  0
 16 31  1  0  0  0
 17 18  1  0  0  0
 17100  1  0  0  0
 18 19  2  0  0  0
 18101  1  0  0  0
 19 20  1  0  0  0
 19 24  1  0  0  0
 20 21  2  0  0  0
 20102  1  0  0  0
 21 23  1  0  0  0
 22 28  1  0  0  0
 22 32  2  0  0  0
 26 27  1  0  0  0
 28103  1  0  0  0
 28104  1  0  0  0
 29105  1  0  0  0
 29106  1  0  0  0
 33 34  1  0  0  0
 33 66  1  0  0  0
 33 70  2  0  0  0
 34 36  1  0  0  0
 34 59  1  0  0  0
 34107  1  0  0  0
 35 44  2  0  0  0
 35 45  1  0  0  0
 35 68  1  0  0  0
 36 56  1  0  0  0
 36108  1  0  0  0
 37 39  1  0  0  0
 37 47  1  0  0  0
 37 66  1  0  0  0
 37109  1  0  0  0
 38 43  2  0  0  0
 38 46  1  0  0  0
 38 47  1  0  0  0
 39 64  1  0  0  0
 39 67  2  0  0  0
 40 52  1  0  0  0
 40 53  2  0  0  0
 40 58  1  0  0  0
 41110  1  0  0  0
 41111  1  0  0  0
 41112  1  0  0  0
 41 48  1  0  0  0
 42 43  1  0  0  0
 42 66  1  0  0  0
 42113  1  0  0  0
 42114  1  0  0  0
 43 44  1  0  0  0
 44115  1  0  0  0
 45 46  2  0  0  0
 45116  1  0  0  0
 46117  1  0  0  0
 47118  1  0  0  0
 47119  1  0  0  0
 48 56  1  0  0  0
 48 65  1  0  0  0
 48120  1  0  0  0
 49 50  1  0  0  0
 49 53  1  0  0  0
 49 64  1  0  0  0
 49121  1  0  0  0
 50 51  1  0  0  0
 50122  1  0  0  0
 50123  1  0  0  0
 51 52  1  0  0  0
 51124  1  0  0  0
 51125  1  0  0  0
 52126  1  0  0  0
 52127  1  0  0  0
 53 54  1  0  0  0
 54 55  2  0  0  0
 54128  1  0  0  0
 55 57  1  0  0  0
 55129  1  0  0  0
 56 69  2  0  0  0
 57 58  2  0  0  0
 57130  1  0  0  0
 58131  1  0  0  0
 59 60  1  0  0  0
 59 61  1  0  0  0
 59 62  1  0  0  0
 60132  1  0  0  0
 60133  1  0  0  0
 60134  1  0  0  0
 61135  1  0  0  0
 61136  1  0  0  0
 61137  1  0  0  0
 62138  1  0  0  0
 62139  1  0  0  0
 62140  1  0  0  0
 63 65  1  0  0  0
 63141  1  0  0  0
 63142  1  0  0  0
 63143  1  0  0  0
 64144  1  0  0  0
 65145  1  0  0  0
 68 81  1  0  0  0
 71 73  2  0  0  0
 71 74  1  0  0  0
 71146  1  0  0  0
 72 73  1  0  0  0
 72 75  2  0  0  0
 72147  1  0  0  0
 73 77  1  0  0  0
 74 76  2  0  0  0
 74 78  1  0  0  0
 75 76  1  0  0  0
 75 83  1  0  0  0
 76 86  1  0  0  0
 77 84  1  0  0  0
 77 85  2  0  0  0
 78148  1  0  0  0
 78149  1  0  0  0
 78150  1  0  0  0
 79 84  1  0  0  0
 79151  1  0  0  0
 79152  1  0  0  0
 79153  1  0  0  0
 80 81  1  0  0  0
 80 82  1  0  0  0
 80154  1  0  0  0
 80155  1  0  0  0
 81156  1  0  0  0
 81157  1  0  0  0
 82 86  1  0  0  0
 82158  1  0  0  0
 82159  1  0  0  0
 83160  1  0  0  0
 83161  1  0  0  0
M  ISO  4   1 100  68 101  81 101  84 100
M  END
> <chiral flag>
0

> <version>
0

> <s_m_source_file>
/data/baiqing/PycharmProjects/Reinvent-master-3.2/result/LINK_invent/BTK/process_docking_weight1_custom_product_contain_oxygen_bond_distance_aromatic_linkinvent_7_9_3/rearranged_h_0109.sdf

> <i_m_source_file_index>
26

> <r_mmod_Potential_Energy-OPLS-2005>
102.226112365723

> <r_mmod_Stretch_Energy-OPLS-2005>
45.6946907043457

> <r_mmod_Bend_Energy-OPLS-2005>
124.139114379883

> <r_mmod_Torsional_Energy-OPLS-2005>
338.99169921875

> <r_mmod_Improper_Torsional_Energy-OPLS-2005>
17.1232814788818

> <r_mmod_Van_der_Waal_Energy-OPLS-2005>
168.854263305664

> <r_mmod_Electrostatic_Energy-OPLS-2005>
-410.660614013672

> <r_mmod_Solvation_Energy-OPLS-2005>
-206.035263061523

> <b_mmod_Minimization_Converged-OPLS-2005>
0

> <r_mmod_RMS_Derivative-OPLS-2005>
0.996426820755005

$$$$
26
                    3D
 Structure written by MMmdl.
157166  0  0  1  0            999 V2000
  -30.5850  -14.7678   20.4115 C   0  0  0  0  0  0
  -30.4337  -12.4606   19.4787 C   0  0  0  0  0  0
  -29.5084  -12.5319   18.2377 C   0  0  0  0  0  0
  -28.0294  -12.3650   18.6466 C   0  0  0  0  0  0
  -27.6466  -13.2350   19.8705 C   0  0  2  0  0  0
  -28.6935  -13.1066   20.9959 C   0  0  0  0  0  0
  -25.2501  -13.8244   20.5824 C   0  0  0  0  0  0
  -24.1744  -13.0475   20.9171 C   0  0  0  0  0  0
  -24.6388  -11.6969   20.8712 C   0  0  0  0  0  0
  -23.9068  -10.4329   21.0368 C   0  0  0  0  0  0
  -24.3623   -9.4237   21.9148 C   0  0  0  0  0  0
  -23.6292   -8.2267   22.0725 C   0  0  0  0  0  0
  -22.4284   -8.0288   21.3518 C   0  0  0  0  0  0
  -21.9940   -9.0236   20.4599 C   0  0  0  0  0  0
  -22.7236  -10.2142   20.3028 C   0  0  0  0  0  0
  -21.6846   -6.0766   22.5301 C   0  0  0  0  0  0
  -21.4010   -6.5649   23.8248 C   0  0  0  0  0  0
  -21.3658   -5.6774   24.9195 C   0  0  0  0  0  0
  -21.6043   -4.3041   24.7225 C   0  0  0  0  0  0
  -21.8818   -3.8153   23.4339 C   0  0  0  0  0  0
  -21.9189   -4.6985   22.3415 C   0  0  0  0  0  0
  -22.7789  -13.5229   21.1868 C   0  0  0  0  0  0
  -22.1654   -4.2179   21.0970 F   0  0  0  0  0  0
  -21.5623   -3.4528   25.7746 F   0  0  0  0  0  0
  -29.9882  -13.5146   20.4278 N   0  0  0  0  0  0
  -26.2951  -12.9459   20.3385 N   0  0  0  0  0  0
  -25.9319  -11.6614   20.5760 N   0  0  0  0  0  0
  -22.0421  -12.8245   22.0425 N   0  0  0  0  0  0
  -25.4228  -15.1986   20.4639 N   0  0  0  0  0  0
  -31.7684  -14.8595   20.0644 O   0  0  0  0  0  0
  -21.6613   -6.8900   21.4263 O   0  0  0  0  0  0
  -22.3452  -14.5546   20.6761 O   0  0  0  0  0  0
  -24.6379  -31.8546   23.1983 C   0  0  0  0  0  0
  -25.9224  -32.4706   23.8333 C   0  0  1  0  0  0
  -27.2041  -27.2479   20.0759 C   0  0  0  0  0  0
  -25.6038  -33.8522   24.2251 N   0  0  0  0  0  0
  -23.4312  -30.4837   21.5435 C   0  0  2  0  0  0
  -24.8686  -28.9198   20.1094 C   0  0  0  0  0  0
  -22.7495  -29.4669   22.4908 C   0  0  0  0  0  0
  -18.0317  -28.1351   22.8480 C   0  0  0  0  0  0
  -24.1479  -36.7216   23.2639 C   0  0  0  0  0  0
  -25.9829  -30.7502   21.3873 C   0  0  0  0  0  0
  -26.0451  -29.3749   20.7171 C   0  0  0  0  0  0
  -27.2180  -28.5517   20.6879 C   0  0  0  0  0  0
  -26.0069  -26.8708   19.4391 C   0  0  0  0  0  0
  -24.8536  -27.6739   19.4673 C   0  0  0  0  0  0
  -23.6433  -29.8143   20.1624 C   0  0  0  0  0  0
  -25.4119  -36.3019   24.0326 C   0  0  1  0  0  0
  -20.5912  -28.3739   23.1215 C   0  0  2  0  0  0
  -20.6820  -26.9455   22.5397 C   0  0  0  0  0  0
  -19.5786  -26.6359   21.5209 C   0  0  0  0  0  0
  -18.1965  -26.7906   22.1621 C   0  0  0  0  0  0
  -19.1557  -28.8851   23.2854 C   0  0  0  0  0  0
  -18.9487  -30.1461   23.8849 C   0  0  0  0  0  0
  -17.6473  -30.6562   24.0528 C   0  0  0  0  0  0
  -25.9091  -34.9412   23.5068 C   0  0  0  0  0  0
  -16.5359  -29.9041   23.6321 C   0  0  0  0  0  0
  -16.7313  -28.6451   23.0376 C   0  0  0  0  0  0
  -26.4540  -31.6541   25.0747 C   0  0  0  0  0  0
  -25.3741  -31.3738   26.1456 C   0  0  0  0  0  0
  -27.0421  -30.2939   24.6314 C   0  0  0  0  0  0
  -27.6074  -32.4298   25.7521 C   0  0  0  0  0  0
  -27.5562  -37.1779   24.8483 C   0  0  0  0  0  0
  -21.4203  -29.3090   22.3604 N   0  0  0  0  0  0
  -26.4266  -37.3740   23.9444 N   0  0  0  0  0  0
  -24.7026  -31.0484   22.0983 N   0  0  0  0  0  0
  -23.4198  -28.8224   23.3043 O   0  0  0  0  0  0
  -28.2934  -26.3402   20.0464 O   0  0  0  0  0  0
  -26.5590  -34.8896   22.4597 O   0  0  0  0  0  0
  -23.5531  -32.1403   23.7244 O   0  0  0  0  0  0
  -29.4739  -18.8266   20.1444 C   0  0  0  0  0  0
  -30.7259  -17.4516   18.7159 C   0  0  0  0  0  0
  -29.9969  -17.4521   19.8732 C   0  0  0  0  0  0
  -29.7568  -19.8304   19.1834 C   0  0  0  0  0  0
  -28.7850  -23.6838   19.5146 C   0  0  0  0  0  0
  -28.7760  -22.2944   19.7559 C   0  0  0  0  0  0
  -29.4416  -24.0995   18.2662 C   0  0  0  0  0  0
  -29.7191  -16.1214   20.6617 C   0  0  0  0  0  0
  -29.3312  -23.0810   17.1525 C   0  0  0  0  0  0
  -29.9336  -21.7608   17.6358 C   0  0  0  0  0  0
  -27.9161  -21.7174   20.8612 C   0  0  0  0  0  0
  -28.0434  -24.8660   20.3179 C   0  0  0  0  0  0
  -28.7683  -16.1530   21.4969 N   0  0  0  0  0  0
  -29.4342  -21.2698   18.9458 N   0  0  0  0  0  0
  -30.0587  -25.1528   18.0868 O   0  0  0  0  0  0
  -30.7971  -19.0288   17.9845 S   0  0  0  0  0  0
  -31.4755  -12.5824   19.1755 H   0  0  0  0  0  0
  -30.3766  -11.4738   19.9349 H   0  0  0  0  0  0
  -29.7867  -11.7596   17.5192 H   0  0  0  0  0  0
  -29.6443  -13.4852   17.7217 H   0  0  0  0  0  0
  -27.8763  -11.3092   18.8754 H   0  0  0  0  0  0
  -27.3653  -12.5897   17.8111 H   0  0  0  0  0  0
  -27.6480  -14.2694   19.5255 H   0  0  0  0  0  0
  -28.7454  -12.0770   21.3515 H   0  0  0  0  0  0
  -28.4227  -13.6923   21.8736 H   0  0  0  0  0  0
  -25.2726   -9.5753   22.4785 H   0  0  0  0  0  0
  -23.9969   -7.4679   22.7477 H   0  0  0  0  0  0
  -21.0871   -8.8715   19.8910 H   0  0  0  0  0  0
  -22.3601  -10.9672   19.6186 H   0  0  0  0  0  0
  -21.2009   -7.6137   23.9811 H   0  0  0  0  0  0
  -21.1454   -6.0463   25.9113 H   0  0  0  0  0  0
  -22.0601   -2.7608   23.2817 H   0  0  0  0  0  0
  -22.3931  -11.9840   22.4800 H   0  0  0  0  0  0
  -21.1059  -13.1385   22.2561 H   0  0  0  0  0  0
  -24.6881  -15.8124   20.8015 H   0  0  0  0  0  0
  -26.3490  -15.5806   20.6250 H   0  0  0  0  0  0
  -26.7283  -32.5280   23.1071 H   0  0  0  0  0  0
  -25.0391  -33.9685   25.0527 H   0  0  0  0  0  0
  -22.7353  -31.3134   21.3996 H   0  0  0  0  0  0
  -23.3754  -35.9519   23.3274 H   0  0  0  0  0  0
  -24.3561  -36.8857   22.2048 H   0  0  0  0  0  0
  -23.7213  -37.6427   23.6648 H   0  0  0  0  0  0
  -26.1520  -31.5137   20.6259 H   0  0  0  0  0  0
  -26.8518  -30.7698   22.0329 H   0  0  0  0  0  0
  -28.1174  -28.9040   21.1695 H   0  0  0  0  0  0
  -25.9507  -25.9388   18.8955 H   0  0  0  0  0  0
  -23.9549  -27.3234   18.9785 H   0  0  0  0  0  0
  -23.7666  -30.5919   19.4067 H   0  0  0  0  0  0
  -22.7539  -29.2604   19.8594 H   0  0  0  0  0  0
  -25.1293  -36.1855   25.0808 H   0  0  0  0  0  0
  -21.0033  -28.3299   24.1319 H   0  0  0  0  0  0
  -20.5686  -26.2364   23.3649 H   0  0  0  0  0  0
  -21.6699  -26.7442   22.1219 H   0  0  0  0  0  0
  -19.6974  -25.6263   21.1260 H   0  0  0  0  0  0
  -19.6678  -27.3152   20.6729 H   0  0  0  0  0  0
  -17.4264  -26.6650   21.4017 H   0  0  0  0  0  0
  -18.0347  -26.0042   22.9009 H   0  0  0  0  0  0
  -19.7960  -30.7321   24.2145 H   0  0  0  0  0  0
  -17.5023  -31.6250   24.5118 H   0  0  0  0  0  0
  -15.5353  -30.2936   23.7648 H   0  0  0  0  0  0
  -15.8733  -28.0746   22.7116 H   0  0  0  0  0  0
  -24.5946  -30.7009   25.7838 H   0  0  0  0  0  0
  -24.8881  -32.2917   26.4763 H   0  0  0  0  0  0
  -25.8051  -30.9052   27.0311 H   0  0  0  0  0  0
  -26.3061  -29.6626   24.1308 H   0  0  0  0  0  0
  -27.4065  -29.7231   25.4882 H   0  0  0  0  0  0
  -27.8931  -30.4183   23.9604 H   0  0  0  0  0  0
  -27.2677  -33.3658   26.1951 H   0  0  0  0  0  0
  -28.3944  -32.6755   25.0370 H   0  0  0  0  0  0
  -28.0638  -31.8509   26.5563 H   0  0  0  0  0  0
  -28.2604  -38.0068   24.7544 H   0  0  0  0  0  0
  -28.1032  -36.2604   24.6262 H   0  0  0  0  0  0
  -27.2271  -37.1390   25.8889 H   0  0  0  0  0  0
  -20.9405  -29.8756   21.6772 H   0  0  0  0  0  0
  -26.0112  -38.2796   24.1458 H   0  0  0  0  0  0
  -28.8886  -19.0013   21.0360 H   0  0  0  0  0  0
  -31.2320  -16.6247   18.2315 H   0  0  0  0  0  0
  -29.8040  -23.4308   16.2362 H   0  0  0  0  0  0
  -28.2730  -22.9413   16.9291 H   0  0  0  0  0  0
  -31.0189  -21.8719   17.6849 H   0  0  0  0  0  0
  -29.7155  -21.0498   16.8403 H   0  0  0  0  0  0
  -27.6018  -20.6970   20.6376 H   0  0  0  0  0  0
  -26.9903  -22.2841   20.9363 H   0  0  0  0  0  0
  -28.4187  -21.7334   21.8281 H   0  0  0  0  0  0
  -28.3038  -24.7262   21.3647 H   0  0  0  0  0  0
  -26.9805  -24.6389   20.2726 H   0  0  0  0  0  0
  -28.3492  -17.0733   21.5106 H   0  0  0  0  0  0
  1 25  1  0  0  0
  1 30  2  0  0  0
  1 78  1  0  0  0
  2  3  1  0  0  0
  2 25  1  0  0  0
  2 87  1  0  0  0
  2 88  1  0  0  0
  3  4  1  0  0  0
  3 89  1  0  0  0
  3 90  1  0  0  0
  4  5  1  0  0  0
  4 91  1  0  0  0
  4 92  1  0  0  0
  5  6  1  0  0  0
  5 26  1  0  0  0
  5 93  1  0  0  0
  6 25  1  0  0  0
  6 94  1  0  0  0
  6 95  1  0  0  0
  7  8  2  0  0  0
  7 26  1  0  0  0
  7 29  1  0  0  0
  8  9  1  0  0  0
  8 22  1  0  0  0
  9 10  1  0  0  0
  9 27  2  0  0  0
 10 11  2  0  0  0
 10 15  1  0  0  0
 11 12  1  0  0  0
 11 96  1  0  0  0
 12 13  2  0  0  0
 12 97  1  0  0  0
 13 14  1  0  0  0
 13 31  1  0  0  0
 14 15  2  0  0  0
 14 98  1  0  0  0
 15 99  1  0  0  0
 16 17  2  0  0  0
 16 21  1  0  0  0
 16 31  1  0  0  0
 17 18  1  0  0  0
 17100  1  0  0  0
 18 19  2  0  0  0
 18101  1  0  0  0
 19 20  1  0  0  0
 19 24  1  0  0  0
 20 21  2  0  0  0
 20102  1  0  0  0
 21 23  1  0  0  0
 22 28  1  0  0  0
 22 32  2  0  0  0
 26 27  1  0  0  0
 28103  1  0  0  0
 28104  1  0  0  0
 29105  1  0  0  0
 29106  1  0  0  0
 33 34  1  0  0  0
 33 66  1  0  0  0
 33 70  2  0  0  0
 34 36  1  0  0  0
 34 59  1  0  0  0
 34107  1  0  0  0
 35 44  2  0  0  0
 35 45  1  0  0  0
 35 68  1  0  0  0
 36 56  1  0  0  0
 36108  1  0  0  0
 37 39  1  0  0  0
 37 47  1  0  0  0
 37 66  1  0  0  0
 37109  1  0  0  0
 38 43  2  0  0  0
 38 46  1  0  0  0
 38 47  1  0  0  0
 39 64  1  0  0  0
 39 67  2  0  0  0
 40 52  1  0  0  0
 40 53  2  0  0  0
 40 58  1  0  0  0
 41110  1  0  0  0
 41111  1  0  0  0
 41112  1  0  0  0
 41 48  1  0  0  0
 42 43  1  0  0  0
 42 66  1  0  0  0
 42113  1  0  0  0
 42114  1  0  0  0
 43 44  1  0  0  0
 44115  1  0  0  0
 45 46  2  0  0  0
 45116  1  0  0  0
 46117  1  0  0  0
 47118  1  0  0  0
 47119  1  0  0  0
 48 56  1  0  0  0
 48 65  1  0  0  0
 48120  1  0  0  0
 49 50  1  0  0  0
 49 53  1  0  0  0
 49 64  1  0  0  0
 49121  1  0  0  0
 50 51  1  0  0  0
 50122  1  0  0  0
 50123  1  0  0  0
 51 52  1  0  0  0
 51124  1  0  0  0
 51125  1  0  0  0
 52126  1  0  0  0
 52127  1  0  0  0
 53 54  1  0  0  0
 54 55  2  0  0  0
 54128  1  0  0  0
 55 57  1  0  0  0
 55129  1  0  0  0
 56 69  2  0  0  0
 57 58  2  0  0  0
 57130  1  0  0  0
 58131  1  0  0  0
 59 60  1  0  0  0
 59 61  1  0  0  0
 59 62  1  0  0  0
 60132  1  0  0  0
 60133  1  0  0  0
 60134  1  0  0  0
 61135  1  0  0  0
 61136  1  0  0  0
 61137  1  0  0  0
 62138  1  0  0  0
 62139  1  0  0  0
 62140  1  0  0  0
 63 65  1  0  0  0
 63141  1  0  0  0
 63142  1  0  0  0
 63143  1  0  0  0
 64144  1  0  0  0
 65145  1  0  0  0
 68 82  1  0  0  0
 71 73  1  0  0  0
 71 74  2  0  0  0
 71146  1  0  0  0
 72 73  2  0  0  0
 72 86  1  0  0  0
 72147  1  0  0  0
 73 78  1  0  0  0
 74 84  1  0  0  0
 74 86  1  0  0  0
 75 76  2  0  0  0
 75 77  1  0  0  0
 75 82  1  0  0  0
 76 81  1  0  0  0
 76 84  1  0  0  0
 77 79  1  0  0  0
 77 85  2  0  0  0
 78 83  2  0  0  0
 79 80  1  0  0  0
 79148  1  0  0  0
 79149  1  0  0  0
 80 84  1  0  0  0
 80150  1  0  0  0
 80151  1  0  0  0
 81152  1  0  0  0
 81153  1  0  0  0
 81154  1  0  0  0
 82155  1  0  0  0
 82156  1  0  0  0
 83157  1  0  0  0
M  ISO  4   1 100  68 101  78 100  82 101
M  END
> <chiral flag>
0

> <version>
0

> <s_m_source_file>
/data/baiqing/PycharmProjects/Reinvent-master-3.2/result/LINK_invent/BTK/process_docking_weight1_custom_product_contain_oxygen_bond_distance_aromatic_linkinvent_7_9_3/rearranged_h_0109.sdf

> <i_m_source_file_index>
27

> <r_mmod_Potential_Energy-OPLS-2005>
372.936767578125

> <r_mmod_Stretch_Energy-OPLS-2005>
174.362808227539

> <r_mmod_Bend_Energy-OPLS-2005>
195.404022216797

> <r_mmod_Torsional_Energy-OPLS-2005>
195.162170410156

> <r_mmod_Improper_Torsional_Energy-OPLS-2005>
7.17139005661011

> <r_mmod_Van_der_Waal_Energy-OPLS-2005>
154.556076049805

> <r_mmod_Electrostatic_Energy-OPLS-2005>
-225.689224243164

> <r_mmod_Solvation_Energy-OPLS-2005>
-219.813980102539

> <b_mmod_Minimization_Converged-OPLS-2005>
0

> <r_mmod_RMS_Derivative-OPLS-2005>
6.7982063293457

$$$$
27
                    3D
 Structure written by MMmdl.
168177  0  0  1  0            999 V2000
  -30.6337  -14.6633   20.5190 C   0  0  0  0  0  0
  -30.4348  -12.4172   19.4505 C   0  0  0  0  0  0
  -29.5033  -12.5184   18.2206 C   0  0  0  0  0  0
  -28.0233  -12.3611   18.6294 C   0  0  0  0  0  0
  -27.6497  -13.2189   19.8684 C   0  0  2  0  0  0
  -28.6970  -13.0388   20.9870 C   0  0  0  0  0  0
  -25.2524  -13.8182   20.5679 C   0  0  0  0  0  0
  -24.1798  -13.0439   20.9186 C   0  0  0  0  0  0
  -24.6382  -11.6911   20.8757 C   0  0  0  0  0  0
  -23.9066  -10.4296   21.0417 C   0  0  0  0  0  0
  -24.3620   -9.4208   21.9183 C   0  0  0  0  0  0
  -23.6293   -8.2246   22.0735 C   0  0  0  0  0  0
  -22.4268   -8.0294   21.3538 C   0  0  0  0  0  0
  -21.9908   -9.0264   20.4631 C   0  0  0  0  0  0
  -22.7247  -10.2141   20.3055 C   0  0  0  0  0  0
  -21.6854   -6.0751   22.5292 C   0  0  0  0  0  0
  -21.4017   -6.5653   23.8231 C   0  0  0  0  0  0
  -21.3643   -5.6792   24.9189 C   0  0  0  0  0  0
  -21.6041   -4.3057   24.7232 C   0  0  0  0  0  0
  -21.8815   -3.8162   23.4349 C   0  0  0  0  0  0
  -21.9182   -4.6978   22.3404 C   0  0  0  0  0  0
  -22.7821  -13.5221   21.1855 C   0  0  0  0  0  0
  -22.1639   -4.2172   21.0970 F   0  0  0  0  0  0
  -21.5634   -3.4527   25.7738 F   0  0  0  0  0  0
  -29.9960  -13.4431   20.4275 N   0  0  0  0  0  0
  -26.2963  -12.9372   20.3353 N   0  0  0  0  0  0
  -25.9310  -11.6523   20.5762 N   0  0  0  0  0  0
  -22.0473  -12.8211   22.0420 N   0  0  0  0  0  0
  -25.4205  -15.1900   20.4064 N   0  0  0  0  0  0
  -31.7962  -14.7639   20.1112 O   0  0  0  0  0  0
  -21.6629   -6.8896   21.4254 O   0  0  0  0  0  0
  -22.3499  -14.5522   20.6703 O   0  0  0  0  0  0
  -24.6253  -31.8600   23.2016 C   0  0  0  0  0  0
  -25.9105  -32.4782   23.8345 C   0  0  1  0  0  0
  -27.2262  -27.3211   20.1234 C   0  0  0  0  0  0
  -25.5917  -33.8579   24.2270 N   0  0  0  0  0  0
  -23.4189  -30.4817   21.5444 C   0  0  2  0  0  0
  -24.8660  -28.9321   20.1163 C   0  0  0  0  0  0
  -22.7468  -29.4623   22.4946 C   0  0  0  0  0  0
  -18.0283  -28.1386   22.8488 C   0  0  0  0  0  0
  -24.1484  -36.7291   23.2639 C   0  0  0  0  0  0
  -25.9592  -30.7916   21.3712 C   0  0  0  0  0  0
  -26.0346  -29.4169   20.7174 C   0  0  0  0  0  0
  -27.2197  -28.6243   20.7075 C   0  0  0  0  0  0
  -26.0374  -26.8863   19.4983 C   0  0  0  0  0  0
  -24.8688  -27.6718   19.4981 C   0  0  0  0  0  0
  -23.6336  -29.8121   20.1617 C   0  0  0  0  0  0
  -25.4112  -36.3085   24.0327 C   0  0  1  0  0  0
  -20.5883  -28.3684   23.1293 C   0  0  2  0  0  0
  -20.6773  -26.9409   22.5418 C   0  0  0  0  0  0
  -19.5748  -26.6383   21.5218 C   0  0  0  0  0  0
  -18.1926  -26.7929   22.1624 C   0  0  0  0  0  0
  -19.1536  -28.8852   23.2887 C   0  0  0  0  0  0
  -18.9460  -30.1455   23.8903 C   0  0  0  0  0  0
  -17.6461  -30.6588   24.0565 C   0  0  0  0  0  0
  -25.9052  -34.9455   23.5103 C   0  0  0  0  0  0
  -16.5353  -29.9090   23.6328 C   0  0  0  0  0  0
  -16.7271  -28.6507   23.0351 C   0  0  0  0  0  0
  -26.4486  -31.6595   25.0715 C   0  0  0  0  0  0
  -25.3722  -31.3732   26.1444 C   0  0  0  0  0  0
  -27.0327  -30.3019   24.6167 C   0  0  0  0  0  0
  -27.6046  -32.4331   25.7487 C   0  0  0  0  0  0
  -27.5580  -37.1796   24.8462 C   0  0  0  0  0  0
  -21.4185  -29.3039   22.3690 N   0  0  0  0  0  0
  -26.4287  -37.3784   23.9412 N   0  0  0  0  0  0
  -24.6866  -31.0612   22.0966 N   0  0  0  0  0  0
  -23.4194  -28.8172   23.3029 O   0  0  0  0  0  0
  -28.3563  -26.4936   20.1245 O   0  0  0  0  0  0
  -26.5627  -34.8924   22.4672 O   0  0  0  0  0  0
  -23.5421  -32.1395   23.7347 O   0  0  0  0  0  0
  -30.5196  -20.5539   21.5321 C   0  0  0  0  0  0
  -28.8240  -20.8241   19.8696 C   0  0  0  0  0  0
  -30.6155  -19.1592   21.2573 C   0  0  0  0  0  0
  -29.8012  -18.5436   20.2699 C   0  0  0  0  0  0
  -29.6460  -21.4509   20.8416 C   0  0  0  0  0  0
  -28.8794  -19.4091   19.5920 C   0  0  0  0  0  0
  -30.3415  -23.4517   22.1392 C   0  0  0  0  0  0
  -31.0185  -24.7541   21.7444 C   0  0  0  0  0  0
  -30.7172  -24.8229   20.2511 C   0  0  0  0  0  0
  -29.3951  -24.0487   20.1379 C   0  0  2  0  0  0
  -31.6511  -18.3495   22.0236 C   0  0  0  0  0  0
  -29.0289  -16.0204   21.8811 C   0  0  0  0  0  0
  -27.0025  -19.5788   18.0874 C   0  0  0  0  0  0
  -30.0209  -17.0370   19.8098 C   0  0  0  0  0  0
  -28.2052  -25.0645   20.5008 C   0  0  0  0  0  0
  -29.6408  -22.9147   21.1121 N   0  0  0  0  0  0
  -29.8775  -15.8180   20.7031 N   0  0  0  0  0  0
  -30.4277  -23.0046   23.2872 O   0  0  0  0  0  0
  -28.0733  -18.8205   18.6396 O   0  0  0  0  0  0
  -31.4736  -12.5464   19.1413 H   0  0  0  0  0  0
  -30.3883  -11.4199   19.8901 H   0  0  0  0  0  0
  -29.7659  -11.7607   17.4829 H   0  0  0  0  0  0
  -29.6501  -13.4829   17.7293 H   0  0  0  0  0  0
  -27.8501  -11.3053   18.8454 H   0  0  0  0  0  0
  -27.3728  -12.6079   17.7892 H   0  0  0  0  0  0
  -27.6728  -14.2604   19.5483 H   0  0  0  0  0  0
  -28.7324  -11.9921   21.2938 H   0  0  0  0  0  0
  -28.4241  -13.5732   21.8910 H   0  0  0  0  0  0
  -25.2758   -9.5682   22.4772 H   0  0  0  0  0  0
  -24.0019   -7.4638   22.7441 H   0  0  0  0  0  0
  -21.0843   -8.8799   19.8928 H   0  0  0  0  0  0
  -22.3722  -10.9699   19.6184 H   0  0  0  0  0  0
  -21.2027   -7.6162   23.9754 H   0  0  0  0  0  0
  -21.1456   -6.0514   25.9089 H   0  0  0  0  0  0
  -22.0603   -2.7627   23.2853 H   0  0  0  0  0  0
  -22.4078  -11.9871   22.4817 H   0  0  0  0  0  0
  -21.1101  -13.1265   22.2639 H   0  0  0  0  0  0
  -24.6530  -15.8437   20.5183 H   0  0  0  0  0  0
  -26.2755  -15.6329   20.0951 H   0  0  0  0  0  0
  -26.7173  -32.5453   23.1095 H   0  0  0  0  0  0
  -25.0049  -33.9724   25.0403 H   0  0  0  0  0  0
  -22.7126  -31.3019   21.3990 H   0  0  0  0  0  0
  -23.3756  -35.9615   23.3296 H   0  0  0  0  0  0
  -24.3573  -36.8918   22.2055 H   0  0  0  0  0  0
  -23.7231  -37.6485   23.6668 H   0  0  0  0  0  0
  -26.0879  -31.5533   20.6010 H   0  0  0  0  0  0
  -26.8409  -30.8437   21.9984 H   0  0  0  0  0  0
  -28.1207  -28.9955   21.1751 H   0  0  0  0  0  0
  -25.9977  -25.9309   18.9968 H   0  0  0  0  0  0
  -23.9745  -27.2959   19.0196 H   0  0  0  0  0  0
  -23.7522  -30.5855   19.4021 H   0  0  0  0  0  0
  -22.7541  -29.2396   19.8614 H   0  0  0  0  0  0
  -25.1295  -36.1931   25.0821 H   0  0  0  0  0  0
  -20.9972  -28.3260   24.1413 H   0  0  0  0  0  0
  -20.5674  -26.2296   23.3617 H   0  0  0  0  0  0
  -21.6644  -26.7441   22.1210 H   0  0  0  0  0  0
  -19.6912  -25.6294   21.1247 H   0  0  0  0  0  0
  -19.6691  -27.3196   20.6751 H   0  0  0  0  0  0
  -17.4202  -26.6683   21.4024 H   0  0  0  0  0  0
  -18.0320  -26.0069   22.9015 H   0  0  0  0  0  0
  -19.7938  -30.7271   24.2274 H   0  0  0  0  0  0
  -17.5016  -31.6267   24.5165 H   0  0  0  0  0  0
  -15.5356  -30.2996   23.7646 H   0  0  0  0  0  0
  -15.8669  -28.0830   22.7062 H   0  0  0  0  0  0
  -24.5893  -30.7086   25.7772 H   0  0  0  0  0  0
  -24.8918  -32.2900   26.4873 H   0  0  0  0  0  0
  -25.8044  -30.8905   27.0219 H   0  0  0  0  0  0
  -26.2898  -29.6773   24.1193 H   0  0  0  0  0  0
  -27.4030  -29.7270   25.4666 H   0  0  0  0  0  0
  -27.8764  -30.4306   23.9382 H   0  0  0  0  0  0
  -27.2655  -33.3629   26.2067 H   0  0  0  0  0  0
  -28.3855  -32.6899   25.0316 H   0  0  0  0  0  0
  -28.0719  -31.8459   26.5403 H   0  0  0  0  0  0
  -28.2592  -38.0100   24.7527 H   0  0  0  0  0  0
  -28.1082  -36.2634   24.6265 H   0  0  0  0  0  0
  -27.2300  -37.1418   25.8863 H   0  0  0  0  0  0
  -20.9366  -29.8758   21.6897 H   0  0  0  0  0  0
  -26.0168  -38.2852   24.1434 H   0  0  0  0  0  0
  -31.1965  -20.9312   22.2841 H   0  0  0  0  0  0
  -28.1460  -21.4636   19.3251 H   0  0  0  0  0  0
  -32.0893  -24.7341   21.9492 H   0  0  0  0  0  0
  -30.5680  -25.5855   22.2884 H   0  0  0  0  0  0
  -31.4994  -24.3086   19.6895 H   0  0  0  0  0  0
  -30.6781  -25.8439   19.8706 H   0  0  0  0  0  0
  -29.2718  -23.6775   19.1207 H   0  0  0  0  0  0
  -32.4220  -18.9921   22.4485 H   0  0  0  0  0  0
  -32.1539  -17.6265   21.3817 H   0  0  0  0  0  0
  -31.1845  -17.8100   22.8471 H   0  0  0  0  0  0
  -29.0481  -17.0440   22.2484 H   0  0  0  0  0  0
  -29.3511  -15.3951   22.7153 H   0  0  0  0  0  0
  -27.9905  -15.7910   21.6453 H   0  0  0  0  0  0
  -26.3959  -18.9314   17.4535 H   0  0  0  0  0  0
  -27.3651  -20.3982   17.4653 H   0  0  0  0  0  0
  -26.3474  -19.9771   18.8638 H   0  0  0  0  0  0
  -31.0167  -17.0265   19.3633 H   0  0  0  0  0  0
  -29.3641  -16.8329   18.9655 H   0  0  0  0  0  0
  -28.0585  -25.0685   21.5816 H   0  0  0  0  0  0
  -27.2873  -24.6369   20.1016 H   0  0  0  0  0  0
  1 25  1  0  0  0
  1 30  2  0  0  0
  1 87  1  0  0  0
  2  3  1  0  0  0
  2 25  1  0  0  0
  2 90  1  0  0  0
  2 91  1  0  0  0
  3  4  1  0  0  0
  3 92  1  0  0  0
  3 93  1  0  0  0
  4  5  1  0  0  0
  4 94  1  0  0  0
  4 95  1  0  0  0
  5  6  1  0  0  0
  5 26  1  0  0  0
  5 96  1  0  0  0
  6 25  1  0  0  0
  6 97  1  0  0  0
  6 98  1  0  0  0
  7  8  2  0  0  0
  7 26  1  0  0  0
  7 29  1  0  0  0
  8  9  1  0  0  0
  8 22  1  0  0  0
  9 10  1  0  0  0
  9 27  2  0  0  0
 10 11  2  0  0  0
 10 15  1  0  0  0
 11 12  1  0  0  0
 11 99  1  0  0  0
 12 13  2  0  0  0
 12100  1  0  0  0
 13 14  1  0  0  0
 13 31  1  0  0  0
 14 15  2  0  0  0
 14101  1  0  0  0
 15102  1  0  0  0
 16 17  2  0  0  0
 16 21  1  0  0  0
 16 31  1  0  0  0
 17 18  1  0  0  0
 17103  1  0  0  0
 18 19  2  0  0  0
 18104  1  0  0  0
 19 20  1  0  0  0
 19 24  1  0  0  0
 20 21  2  0  0  0
 20105  1  0  0  0
 21 23  1  0  0  0
 22 28  1  0  0  0
 22 32  2  0  0  0
 26 27  1  0  0  0
 28106  1  0  0  0
 28107  1  0  0  0
 29108  1  0  0  0
 29109  1  0  0  0
 33 34  1  0  0  0
 33 66  1  0  0  0
 33 70  2  0  0  0
 34 36  1  0  0  0
 34 59  1  0  0  0
 34110  1  0  0  0
 35 44  2  0  0  0
 35 45  1  0  0  0
 35 68  1  0  0  0
 36 56  1  0  0  0
 36111  1  0  0  0
 37 39  1  0  0  0
 37 47  1  0  0  0
 37 66  1  0  0  0
 37112  1  0  0  0
 38 43  2  0  0  0
 38 46  1  0  0  0
 38 47  1  0  0  0
 39 64  1  0  0  0
 39 67  2  0  0  0
 40 52  1  0  0  0
 40 53  2  0  0  0
 40 58  1  0  0  0
 41113  1  0  0  0
 41114  1  0  0  0
 41115  1  0  0  0
 41 48  1  0  0  0
 42 43  1  0  0  0
 42 66  1  0  0  0
 42116  1  0  0  0
 42117  1  0  0  0
 43 44  1  0  0  0
 44118  1  0  0  0
 45 46  2  0  0  0
 45119  1  0  0  0
 46120  1  0  0  0
 47121  1  0  0  0
 47122  1  0  0  0
 48 56  1  0  0  0
 48 65  1  0  0  0
 48123  1  0  0  0
 49 50  1  0  0  0
 49 53  1  0  0  0
 49 64  1  0  0  0
 49124  1  0  0  0
 50 51  1  0  0  0
 50125  1  0  0  0
 50126  1  0  0  0
 51 52  1  0  0  0
 51127  1  0  0  0
 51128  1  0  0  0
 52129  1  0  0  0
 52130  1  0  0  0
 53 54  1  0  0  0
 54 55  2  0  0  0
 54131  1  0  0  0
 55 57  1  0  0  0
 55132  1  0  0  0
 56 69  2  0  0  0
 57 58  2  0  0  0
 57133  1  0  0  0
 58134  1  0  0  0
 59 60  1  0  0  0
 59 61  1  0  0  0
 59 62  1  0  0  0
 60135  1  0  0  0
 60136  1  0  0  0
 60137  1  0  0  0
 61138  1  0  0  0
 61139  1  0  0  0
 61140  1  0  0  0
 62141  1  0  0  0
 62142  1  0  0  0
 62143  1  0  0  0
 63 65  1  0  0  0
 63144  1  0  0  0
 63145  1  0  0  0
 63146  1  0  0  0
 64147  1  0  0  0
 65148  1  0  0  0
 68 85  1  0  0  0
 71 73  2  0  0  0
 71 75  1  0  0  0
 71149  1  0  0  0
 72 75  2  0  0  0
 72 76  1  0  0  0
 72150  1  0  0  0
 73 74  1  0  0  0
 73 81  1  0  0  0
 74 76  2  0  0  0
 74 84  1  0  0  0
 75 86  1  0  0  0
 76 89  1  0  0  0
 77 78  1  0  0  0
 77 86  1  0  0  0
 77 88  2  0  0  0
 78 79  1  0  0  0
 78151  1  0  0  0
 78152  1  0  0  0
 79 80  1  0  0  0
 79153  1  0  0  0
 79154  1  0  0  0
 80 85  1  0  0  0
 80 86  1  0  0  0
 80155  1  0  0  0
 81156  1  0  0  0
 81157  1  0  0  0
 81158  1  0  0  0
 82 87  1  0  0  0
 82159  1  0  0  0
 82160  1  0  0  0
 82161  1  0  0  0
 83 89  1  0  0  0
 83162  1  0  0  0
 83163  1  0  0  0
 83164  1  0  0  0
 84 87  1  0  0  0
 84165  1  0  0  0
 84166  1  0  0  0
 85167  1  0  0  0
 85168  1  0  0  0
M  ISO  4   1 100  68 101  85 101  87 100
M  END
> <chiral flag>
0

> <version>
0

> <s_m_source_file>
/data/baiqing/PycharmProjects/Reinvent-master-3.2/result/LINK_invent/BTK/process_docking_weight1_custom_product_contain_oxygen_bond_distance_aromatic_linkinvent_7_9_3/rearranged_h_0109.sdf

> <i_m_source_file_index>
28

> <r_mmod_Potential_Energy-OPLS-2005>
352.593719482422

> <r_mmod_Stretch_Energy-OPLS-2005>
104.684944152832

> <r_mmod_Bend_Energy-OPLS-2005>
201.506927490234

> <r_mmod_Torsional_Energy-OPLS-2005>
352.701568603516

> <r_mmod_Improper_Torsional_Energy-OPLS-2005>
12.1514482498169

> <r_mmod_Van_der_Waal_Energy-OPLS-2005>
162.631683349609

> <r_mmod_Electrostatic_Energy-OPLS-2005>
-320.809143066406

> <r_mmod_Solvation_Energy-OPLS-2005>
-207.078994750977

> <b_mmod_Minimization_Converged-OPLS-2005>
0

> <r_mmod_RMS_Derivative-OPLS-2005>
1.542436003685

$$$$
28
                    3D
 Structure written by MMmdl.
168177  0  0  1  0            999 V2000
  -30.6383  -14.5725   20.6266 C   0  0  0  0  0  0
  -30.4429  -12.3872   19.4409 C   0  0  0  0  0  0
  -29.5092  -12.5452   18.2199 C   0  0  0  0  0  0
  -28.0315  -12.3740   18.6227 C   0  0  0  0  0  0
  -27.6611  -13.2102   19.8766 C   0  0  2  0  0  0
  -28.6971  -12.9925   21.0026 C   0  0  0  0  0  0
  -25.2478  -13.8039   20.5454 C   0  0  0  0  0  0
  -24.1786  -13.0368   20.9146 C   0  0  0  0  0  0
  -24.6379  -11.6857   20.8753 C   0  0  0  0  0  0
  -23.9049  -10.4262   21.0435 C   0  0  0  0  0  0
  -24.3596   -9.4177   21.9214 C   0  0  0  0  0  0
  -23.6278   -8.2212   22.0757 C   0  0  0  0  0  0
  -22.4266   -8.0258   21.3541 C   0  0  0  0  0  0
  -21.9902   -9.0233   20.4652 C   0  0  0  0  0  0
  -22.7223  -10.2112   20.3081 C   0  0  0  0  0  0
  -21.6848   -6.0712   22.5268 C   0  0  0  0  0  0
  -21.4006   -6.5624   23.8198 C   0  0  0  0  0  0
  -21.3663   -5.6780   24.9166 C   0  0  0  0  0  0
  -21.6057   -4.3046   24.7226 C   0  0  0  0  0  0
  -21.8825   -3.8126   23.4346 C   0  0  0  0  0  0
  -21.9188   -4.6941   22.3395 C   0  0  0  0  0  0
  -22.7830  -13.5213   21.1826 C   0  0  0  0  0  0
  -22.1656   -4.2120   21.0975 F   0  0  0  0  0  0
  -21.5631   -3.4536   25.7745 F   0  0  0  0  0  0
  -30.0286  -13.3541   20.4790 N   0  0  0  0  0  0
  -26.2999  -12.9281   20.3306 N   0  0  0  0  0  0
  -25.9322  -11.6446   20.5771 N   0  0  0  0  0  0
  -22.0461  -12.8242   22.0410 N   0  0  0  0  0  0
  -25.4037  -15.1669   20.3460 N   0  0  0  0  0  0
  -31.7001  -14.8469   20.0598 O   0  0  0  0  0  0
  -21.6638   -6.8850   21.4230 O   0  0  0  0  0  0
  -22.3545  -14.5535   20.6672 O   0  0  0  0  0  0
  -24.6194  -31.8630   23.2040 C   0  0  0  0  0  0
  -25.9063  -32.4801   23.8366 C   0  0  1  0  0  0
  -27.2462  -27.3797   20.1318 C   0  0  0  0  0  0
  -25.5888  -33.8601   24.2295 N   0  0  0  0  0  0
  -23.4124  -30.4831   21.5448 C   0  0  2  0  0  0
  -24.8647  -28.9382   20.1199 C   0  0  0  0  0  0
  -22.7443  -29.4636   22.4956 C   0  0  0  0  0  0
  -18.0280  -28.1393   22.8478 C   0  0  0  0  0  0
  -24.1484  -36.7304   23.2640 C   0  0  0  0  0  0
  -25.9454  -30.8158   21.3644 C   0  0  0  0  0  0
  -26.0267  -29.4442   20.7160 C   0  0  0  0  0  0
  -27.2216  -28.6780   20.7082 C   0  0  0  0  0  0
  -26.0650  -26.9007   19.5243 C   0  0  0  0  0  0
  -24.8822  -27.6686   19.5154 C   0  0  0  0  0  0
  -23.6272  -29.8107   20.1619 C   0  0  0  0  0  0
  -25.4105  -36.3101   24.0336 C   0  0  1  0  0  0
  -20.5873  -28.3683   23.1294 C   0  0  2  0  0  0
  -20.6771  -26.9411   22.5413 C   0  0  0  0  0  0
  -19.5749  -26.6387   21.5210 C   0  0  0  0  0  0
  -18.1928  -26.7936   22.1617 C   0  0  0  0  0  0
  -19.1530  -28.8855   23.2885 C   0  0  0  0  0  0
  -18.9459  -30.1455   23.8908 C   0  0  0  0  0  0
  -17.6462  -30.6589   24.0569 C   0  0  0  0  0  0
  -25.9037  -34.9468   23.5121 C   0  0  0  0  0  0
  -16.5354  -29.9097   23.6327 C   0  0  0  0  0  0
  -16.7269  -28.6516   23.0343 C   0  0  0  0  0  0
  -26.4478  -31.6595   25.0714 C   0  0  0  0  0  0
  -25.3732  -31.3715   26.1458 C   0  0  0  0  0  0
  -27.0311  -30.3027   24.6123 C   0  0  0  0  0  0
  -27.6059  -32.4321   25.7469 C   0  0  0  0  0  0
  -27.5581  -37.1803   24.8463 C   0  0  0  0  0  0
  -21.4163  -29.3033   22.3691 N   0  0  0  0  0  0
  -26.4289  -37.3788   23.9411 N   0  0  0  0  0  0
  -24.6775  -31.0699   22.0954 N   0  0  0  0  0  0
  -23.4189  -28.8185   23.3028 O   0  0  0  0  0  0
  -28.4083  -26.6159   20.1189 O   0  0  0  0  0  0
  -26.5611  -34.8931   22.4691 O   0  0  0  0  0  0
  -23.5375  -32.1398   23.7403 O   0  0  0  0  0  0
  -28.1545  -19.2885   21.1162 C   0  0  0  0  0  0
  -28.0753  -16.8738   21.4116 C   0  0  0  0  0  0
  -30.2190  -17.9826   21.0691 C   0  0  0  0  0  0
  -27.4150  -18.1182   21.3294 C   0  0  0  0  0  0
  -29.5570  -19.2645   21.0060 C   0  0  0  0  0  0
  -29.4767  -16.7660   21.2556 C   0  0  0  0  0  0
  -29.8150  -22.9816   20.8185 C   0  0  0  0  0  0
  -29.6957  -21.7118   20.3066 C   0  0  0  0  0  0
  -30.4838  -23.1410   22.1380 C   0  0  0  0  0  0
  -30.8771  -21.8767   22.9086 C   0  0  0  0  0  0
  -31.2284  -20.7102   21.9665 C   0  0  0  0  0  0
  -29.0762  -21.4734   18.9363 C   0  0  0  0  0  0
  -25.1902  -18.6574   20.2334 C   0  0  0  0  0  0
  -25.9127  -18.2429   21.5239 C   0  0  0  0  0  0
  -29.4638  -24.3146   20.0776 C   0  0  0  0  0  0
  -28.3549  -25.2620   20.6644 C   0  0  0  0  0  0
  -30.2076  -20.5369   20.9309 N   0  0  0  0  0  0
  -30.0186  -15.4355   21.4779 N   0  0  0  0  0  0
  -30.7255  -24.2387   22.6498 O   0  0  0  0  0  0
  -31.4824  -12.5321   19.1437 H   0  0  0  0  0  0
  -30.3876  -11.3729   19.8359 H   0  0  0  0  0  0
  -29.7736  -11.8259   17.4434 H   0  0  0  0  0  0
  -29.6517  -13.5325   17.7784 H   0  0  0  0  0  0
  -27.8544  -11.3153   18.8174 H   0  0  0  0  0  0
  -27.3832  -12.6430   17.7881 H   0  0  0  0  0  0
  -27.6994  -14.2601   19.5844 H   0  0  0  0  0  0
  -28.6973  -11.9465   21.3103 H   0  0  0  0  0  0
  -28.4175  -13.5505   21.8972 H   0  0  0  0  0  0
  -25.2725   -9.5653   22.4811 H   0  0  0  0  0  0
  -23.9965   -7.4602   22.7478 H   0  0  0  0  0  0
  -21.0825   -8.8775   19.8964 H   0  0  0  0  0  0
  -22.3685  -10.9666   19.6201 H   0  0  0  0  0  0
  -21.1996   -7.6130   23.9695 H   0  0  0  0  0  0
  -21.1482   -6.0510   25.9070 H   0  0  0  0  0  0
  -22.0602   -2.7586   23.2858 H   0  0  0  0  0  0
  -22.4033  -11.9885   22.4796 H   0  0  0  0  0  0
  -21.1093  -13.1301   22.2612 H   0  0  0  0  0  0
  -24.6224  -15.8082   20.4156 H   0  0  0  0  0  0
  -26.2303  -15.5926   19.9490 H   0  0  0  0  0  0
  -26.7143  -32.5506   23.1138 H   0  0  0  0  0  0
  -25.0025  -33.9750   25.0433 H   0  0  0  0  0  0
  -22.7040  -31.3008   21.3989 H   0  0  0  0  0  0
  -23.3744  -35.9641   23.3315 H   0  0  0  0  0  0
  -24.3573  -36.8910   22.2054 H   0  0  0  0  0  0
  -23.7249  -37.6514   23.6654 H   0  0  0  0  0  0
  -26.0637  -31.5771   20.5927 H   0  0  0  0  0  0
  -26.8301  -30.8730   21.9860 H   0  0  0  0  0  0
  -28.1207  -29.0691   21.1641 H   0  0  0  0  0  0
  -26.0551  -25.9297   19.0503 H   0  0  0  0  0  0
  -23.9929  -27.2729   19.0440 H   0  0  0  0  0  0
  -23.7429  -30.5831   19.4002 H   0  0  0  0  0  0
  -22.7506  -29.2330   19.8627 H   0  0  0  0  0  0
  -25.1288  -36.1960   25.0827 H   0  0  0  0  0  0
  -20.9963  -28.3269   24.1416 H   0  0  0  0  0  0
  -20.5662  -26.2299   23.3612 H   0  0  0  0  0  0
  -21.6648  -26.7443   22.1223 H   0  0  0  0  0  0
  -19.6912  -25.6300   21.1239 H   0  0  0  0  0  0
  -19.6691  -27.3195   20.6738 H   0  0  0  0  0  0
  -17.4195  -26.6678   21.4024 H   0  0  0  0  0  0
  -18.0323  -26.0086   22.9017 H   0  0  0  0  0  0
  -19.7934  -30.7261   24.2298 H   0  0  0  0  0  0
  -17.5019  -31.6270   24.5165 H   0  0  0  0  0  0
  -15.5357  -30.3003   23.7648 H   0  0  0  0  0  0
  -15.8666  -28.0838   22.7056 H   0  0  0  0  0  0
  -24.5901  -30.7072   25.7785 H   0  0  0  0  0  0
  -24.8931  -32.2877   26.4908 H   0  0  0  0  0  0
  -25.8074  -30.8875   27.0216 H   0  0  0  0  0  0
  -26.2858  -29.6780   24.1185 H   0  0  0  0  0  0
  -27.4071  -29.7281   25.4597 H   0  0  0  0  0  0
  -27.8700  -30.4327   23.9283 H   0  0  0  0  0  0
  -27.2690  -33.3621   26.2058 H   0  0  0  0  0  0
  -28.3854  -32.6879   25.0279 H   0  0  0  0  0  0
  -28.0745  -31.8439   26.5368 H   0  0  0  0  0  0
  -28.2609  -38.0091   24.7508 H   0  0  0  0  0  0
  -28.1070  -36.2628   24.6287 H   0  0  0  0  0  0
  -27.2304  -37.1450   25.8867 H   0  0  0  0  0  0
  -20.9340  -29.8745   21.6888 H   0  0  0  0  0  0
  -26.0178  -38.2865   24.1412 H   0  0  0  0  0  0
  -27.6298  -20.2341   21.0958 H   0  0  0  0  0  0
  -27.4896  -15.9918   21.6287 H   0  0  0  0  0  0
  -31.2974  -17.9402   21.0122 H   0  0  0  0  0  0
  -30.0399  -21.5973   23.5481 H   0  0  0  0  0  0
  -31.7197  -22.0950   23.5657 H   0  0  0  0  0  0
  -31.3668  -19.8106   22.5683 H   0  0  0  0  0  0
  -32.1874  -20.9015   21.4828 H   0  0  0  0  0  0
  -29.6625  -21.9755   18.1660 H   0  0  0  0  0  0
  -28.0603  -21.8702   18.9080 H   0  0  0  0  0  0
  -29.0279  -20.4190   18.6643 H   0  0  0  0  0  0
  -24.1172  -18.7503   20.4030 H   0  0  0  0  0  0
  -25.3404  -17.9223   19.4428 H   0  0  0  0  0  0
  -25.5455  -19.6198   19.8626 H   0  0  0  0  0  0
  -25.7305  -18.9911   22.2969 H   0  0  0  0  0  0
  -25.4973  -17.3150   21.9159 H   0  0  0  0  0  0
  -29.2142  -24.1051   19.0391 H   0  0  0  0  0  0
  -30.3935  -24.8827   20.0305 H   0  0  0  0  0  0
  -28.4766  -25.3566   21.7439 H   0  0  0  0  0  0
  -27.3796  -24.7982   20.5182 H   0  0  0  0  0  0
  -29.4002  -14.8911   22.0594 H   0  0  0  0  0  0
  1 25  1  0  0  0
  1 30  2  0  0  0
  1 88  1  0  0  0
  2  3  1  0  0  0
  2 25  1  0  0  0
  2 90  1  0  0  0
  2 91  1  0  0  0
  3  4  1  0  0  0
  3 92  1  0  0  0
  3 93  1  0  0  0
  4  5  1  0  0  0
  4 94  1  0  0  0
  4 95  1  0  0  0
  5  6  1  0  0  0
  5 26  1  0  0  0
  5 96  1  0  0  0
  6 25  1  0  0  0
  6 97  1  0  0  0
  6 98  1  0  0  0
  7  8  2  0  0  0
  7 26  1  0  0  0
  7 29  1  0  0  0
  8  9  1  0  0  0
  8 22  1  0  0  0
  9 10  1  0  0  0
  9 27  2  0  0  0
 10 11  2  0  0  0
 10 15  1  0  0  0
 11 12  1  0  0  0
 11 99  1  0  0  0
 12 13  2  0  0  0
 12100  1  0  0  0
 13 14  1  0  0  0
 13 31  1  0  0  0
 14 15  2  0  0  0
 14101  1  0  0  0
 15102  1  0  0  0
 16 17  2  0  0  0
 16 21  1  0  0  0
 16 31  1  0  0  0
 17 18  1  0  0  0
 17103  1  0  0  0
 18 19  2  0  0  0
 18104  1  0  0  0
 19 20  1  0  0  0
 19 24  1  0  0  0
 20 21  2  0  0  0
 20105  1  0  0  0
 21 23  1  0  0  0
 22 28  1  0  0  0
 22 32  2  0  0  0
 26 27  1  0  0  0
 28106  1  0  0  0
 28107  1  0  0  0
 29108  1  0  0  0
 29109  1  0  0  0
 33 34  1  0  0  0
 33 66  1  0  0  0
 33 70  2  0  0  0
 34 36  1  0  0  0
 34 59  1  0  0  0
 34110  1  0  0  0
 35 44  2  0  0  0
 35 45  1  0  0  0
 35 68  1  0  0  0
 36 56  1  0  0  0
 36111  1  0  0  0
 37 39  1  0  0  0
 37 47  1  0  0  0
 37 66  1  0  0  0
 37112  1  0  0  0
 38 43  2  0  0  0
 38 46  1  0  0  0
 38 47  1  0  0  0
 39 64  1  0  0  0
 39 67  2  0  0  0
 40 52  1  0  0  0
 40 53  2  0  0  0
 40 58  1  0  0  0
 41113  1  0  0  0
 41114  1  0  0  0
 41115  1  0  0  0
 41 48  1  0  0  0
 42 43  1  0  0  0
 42 66  1  0  0  0
 42116  1  0  0  0
 42117  1  0  0  0
 43 44  1  0  0  0
 44118  1  0  0  0
 45 46  2  0  0  0
 45119  1  0  0  0
 46120  1  0  0  0
 47121  1  0  0  0
 47122  1  0  0  0
 48 56  1  0  0  0
 48 65  1  0  0  0
 48123  1  0  0  0
 49 50  1  0  0  0
 49 53  1  0  0  0
 49 64  1  0  0  0
 49124  1  0  0  0
 50 51  1  0  0  0
 50125  1  0  0  0
 50126  1  0  0  0
 51 52  1  0  0  0
 51127  1  0  0  0
 51128  1  0  0  0
 52129  1  0  0  0
 52130  1  0  0  0
 53 54  1  0  0  0
 54 55  2  0  0  0
 54131  1  0  0  0
 55 57  1  0  0  0
 55132  1  0  0  0
 56 69  2  0  0  0
 57 58  2  0  0  0
 57133  1  0  0  0
 58134  1  0  0  0
 59 60  1  0  0  0
 59 61  1  0  0  0
 59 62  1  0  0  0
 60135  1  0  0  0
 60136  1  0  0  0
 60137  1  0  0  0
 61138  1  0  0  0
 61139  1  0  0  0
 61140  1  0  0  0
 62141  1  0  0  0
 62142  1  0  0  0
 62143  1  0  0  0
 63 65  1  0  0  0
 63144  1  0  0  0
 63145  1  0  0  0
 63146  1  0  0  0
 64147  1  0  0  0
 65148  1  0  0  0
 68 86  1  0  0  0
 71 74  2  0  0  0
 71 75  1  0  0  0
 71149  1  0  0  0
 72 74  1  0  0  0
 72 76  2  0  0  0
 72150  1  0  0  0
 73 75  2  0  0  0
 73 76  1  0  0  0
 73151  1  0  0  0
 74 84  1  0  0  0
 75 87  1  0  0  0
 76 88  1  0  0  0
 77 78  2  0  0  0
 77 79  1  0  0  0
 77 85  1  0  0  0
 78 82  1  0  0  0
 78 87  1  0  0  0
 79 80  1  0  0  0
 79 89  2  0  0  0
 80 81  1  0  0  0
 80152  1  0  0  0
 80153  1  0  0  0
 81 87  1  0  0  0
 81154  1  0  0  0
 81155  1  0  0  0
 82156  1  0  0  0
 82157  1  0  0  0
 82158  1  0  0  0
 83 84  1  0  0  0
 83159  1  0  0  0
 83160  1  0  0  0
 83161  1  0  0  0
 84162  1  0  0  0
 84163  1  0  0  0
 85 86  1  0  0  0
 85164  1  0  0  0
 85165  1  0  0  0
 86166  1  0  0  0
 86167  1  0  0  0
 88168  1  0  0  0
M  ISO  4   1 100  68 101  86 101  88 100
M  END
> <chiral flag>
0

> <version>
0

> <s_m_source_file>
/data/baiqing/PycharmProjects/Reinvent-master-3.2/result/LINK_invent/BTK/process_docking_weight1_custom_product_contain_oxygen_bond_distance_aromatic_linkinvent_7_9_3/rearranged_h_0109.sdf

> <i_m_source_file_index>
29

> <r_mmod_Potential_Energy-OPLS-2005>
35.8366317749023

> <r_mmod_Stretch_Energy-OPLS-2005>
67.609260559082

> <r_mmod_Bend_Energy-OPLS-2005>
128.232788085938

> <r_mmod_Torsional_Energy-OPLS-2005>
252.439865112305

> <r_mmod_Improper_Torsional_Energy-OPLS-2005>
8.74955654144287

> <r_mmod_Van_der_Waal_Energy-OPLS-2005>
154.525100708008

> <r_mmod_Electrostatic_Energy-OPLS-2005>
-392.329376220703

> <r_mmod_Solvation_Energy-OPLS-2005>
-211.426330566406

> <b_mmod_Minimization_Converged-OPLS-2005>
0

> <r_mmod_RMS_Derivative-OPLS-2005>
2.42462778091431

$$$$
29
                    3D
 Structure written by MMmdl.
165174  0  0  1  0            999 V2000
  -30.7268  -14.4682   20.6274 C   0  0  0  0  0  0
  -30.4185  -12.3259   19.4211 C   0  0  0  0  0  0
  -29.4926  -12.5300   18.2052 C   0  0  0  0  0  0
  -28.0145  -12.3869   18.6141 C   0  0  0  0  0  0
  -27.6615  -13.2158   19.8774 C   0  0  2  0  0  0
  -28.7012  -12.9950   20.9991 C   0  0  0  0  0  0
  -25.2572  -13.8173   20.5671 C   0  0  0  0  0  0
  -24.1834  -13.0440   20.9157 C   0  0  0  0  0  0
  -24.6410  -11.6913   20.8724 C   0  0  0  0  0  0
  -23.9086  -10.4284   21.0402 C   0  0  0  0  0  0
  -24.3630   -9.4195   21.9185 C   0  0  0  0  0  0
  -23.6293   -8.2240   22.0765 C   0  0  0  0  0  0
  -22.4275   -8.0281   21.3553 C   0  0  0  0  0  0
  -21.9917   -9.0256   20.4654 C   0  0  0  0  0  0
  -22.7260  -10.2128   20.3052 C   0  0  0  0  0  0
  -21.6853   -6.0732   22.5276 C   0  0  0  0  0  0
  -21.4016   -6.5640   23.8208 C   0  0  0  0  0  0
  -21.3658   -5.6797   24.9171 C   0  0  0  0  0  0
  -21.6042   -4.3058   24.7224 C   0  0  0  0  0  0
  -21.8820   -3.8146   23.4347 C   0  0  0  0  0  0
  -21.9191   -4.6959   22.3400 C   0  0  0  0  0  0
  -22.7852  -13.5226   21.1810 C   0  0  0  0  0  0
  -22.1661   -4.2147   21.0979 F   0  0  0  0  0  0
  -21.5625   -3.4542   25.7738 F   0  0  0  0  0  0
  -30.0364  -13.3012   20.4573 N   0  0  0  0  0  0
  -26.3023  -12.9365   20.3371 N   0  0  0  0  0  0
  -25.9341  -11.6516   20.5761 N   0  0  0  0  0  0
  -22.0502  -12.8221   22.0376 N   0  0  0  0  0  0
  -25.4262  -15.1897   20.4098 N   0  0  0  0  0  0
  -31.7803  -14.7048   20.0276 O   0  0  0  0  0  0
  -21.6641   -6.8879   21.4241 O   0  0  0  0  0  0
  -22.3533  -14.5527   20.6657 O   0  0  0  0  0  0
  -24.6143  -31.8669   23.2078 C   0  0  0  0  0  0
  -25.9031  -32.4827   23.8386 C   0  0  1  0  0  0
  -27.2306  -27.4183   20.1019 C   0  0  0  0  0  0
  -25.5899  -33.8627   24.2323 N   0  0  0  0  0  0
  -23.4040  -30.4905   21.5457 C   0  0  2  0  0  0
  -24.8542  -28.9564   20.1083 C   0  0  0  0  0  0
  -22.7412  -29.4658   22.4945 C   0  0  0  0  0  0
  -18.0280  -28.1375   22.8478 C   0  0  0  0  0  0
  -24.1486  -36.7312   23.2648 C   0  0  0  0  0  0
  -25.9341  -30.8296   21.3616 C   0  0  0  0  0  0
  -26.0142  -29.4617   20.7098 C   0  0  0  0  0  0
  -27.2098  -28.7010   20.7017 C   0  0  0  0  0  0
  -26.0562  -26.9340   19.4880 C   0  0  0  0  0  0
  -24.8714  -27.6937   19.4910 C   0  0  0  0  0  0
  -23.6138  -29.8218   20.1597 C   0  0  0  0  0  0
  -25.4109  -36.3115   24.0341 C   0  0  1  0  0  0
  -20.5874  -28.3664   23.1303 C   0  0  2  0  0  0
  -20.6768  -26.9395   22.5411 C   0  0  0  0  0  0
  -19.5755  -26.6372   21.5208 C   0  0  0  0  0  0
  -18.1930  -26.7915   22.1610 C   0  0  0  0  0  0
  -19.1529  -28.8834   23.2890 C   0  0  0  0  0  0
  -18.9463  -30.1438   23.8910 C   0  0  0  0  0  0
  -17.6469  -30.6581   24.0562 C   0  0  0  0  0  0
  -25.9036  -34.9483   23.5122 C   0  0  0  0  0  0
  -16.5358  -29.9083   23.6328 C   0  0  0  0  0  0
  -16.7270  -28.6502   23.0347 C   0  0  0  0  0  0
  -26.4458  -31.6616   25.0721 C   0  0  0  0  0  0
  -25.3734  -31.3700   26.1476 C   0  0  0  0  0  0
  -27.0294  -30.3072   24.6091 C   0  0  0  0  0  0
  -27.6039  -32.4326   25.7484 C   0  0  0  0  0  0
  -27.5578  -37.1814   24.8470 C   0  0  0  0  0  0
  -21.4131  -29.3038   22.3709 N   0  0  0  0  0  0
  -26.4292  -37.3804   23.9414 N   0  0  0  0  0  0
  -24.6687  -31.0770   22.0968 N   0  0  0  0  0  0
  -23.4184  -28.8183   23.2974 O   0  0  0  0  0  0
  -28.3627  -26.6279   20.0996 O   0  0  0  0  0  0
  -26.5595  -34.8934   22.4681 O   0  0  0  0  0  0
  -23.5328  -32.1420   23.7470 O   0  0  0  0  0  0
  -29.4116  -19.5125   23.5373 C   0  0  0  0  0  0
  -29.5079  -18.2319   22.9612 C   0  0  0  0  0  0
  -29.3619  -20.6621   22.7292 C   0  0  0  0  0  0
  -29.5540  -19.2542   20.7628 C   0  0  0  0  0  0
  -29.6165  -18.0715   21.5595 C   0  0  0  0  0  0
  -29.3950  -20.5599   21.3217 C   0  0  0  0  0  0
  -29.0033  -24.1890   20.5467 C   0  0  0  0  0  0
  -28.5946  -22.9224   20.8685 C   0  0  0  0  0  0
  -30.2240  -24.3252   19.7245 C   0  0  0  0  0  0
  -30.5653  -23.1352   18.8301 C   0  0  0  0  0  0
  -30.4249  -21.7914   19.5690 C   0  0  0  0  0  0
  -27.2890  -22.6936   21.6260 C   0  0  0  0  0  0
  -30.4456  -15.2650   22.8597 C   0  0  0  0  0  0
  -29.6775  -16.6950   20.8296 C   0  0  0  0  0  0
  -28.2996  -25.4962   21.0014 C   0  0  0  0  0  0
  -29.3062  -21.7411   20.5230 N   0  0  0  0  0  0
  -30.1585  -15.4063   21.4304 N   0  0  0  0  0  0
  -30.9548  -25.3207   19.7148 O   0  0  0  0  0  0
  -31.4643  -12.4190   19.1220 H   0  0  0  0  0  0
  -30.3148  -11.3123   19.8116 H   0  0  0  0  0  0
  -29.7348  -11.8117   17.4207 H   0  0  0  0  0  0
  -29.6603  -13.5193   17.7761 H   0  0  0  0  0  0
  -27.8197  -11.3296   18.7968 H   0  0  0  0  0  0
  -27.3667  -12.6761   17.7852 H   0  0  0  0  0  0
  -27.7046  -14.2667   19.5889 H   0  0  0  0  0  0
  -28.6753  -11.9602   21.3438 H   0  0  0  0  0  0
  -28.4452  -13.5976   21.8707 H   0  0  0  0  0  0
  -25.2779   -9.5665   22.4759 H   0  0  0  0  0  0
  -23.9991   -7.4638   22.7497 H   0  0  0  0  0  0
  -21.0844   -8.8786   19.8964 H   0  0  0  0  0  0
  -22.3732  -10.9665   19.6153 H   0  0  0  0  0  0
  -21.2018   -7.6151   23.9710 H   0  0  0  0  0  0
  -21.1477   -6.0529   25.9076 H   0  0  0  0  0  0
  -22.0601   -2.7608   23.2848 H   0  0  0  0  0  0
  -22.4128  -11.9884   22.4765 H   0  0  0  0  0  0
  -21.1121  -13.1241   22.2583 H   0  0  0  0  0  0
  -24.6617  -15.8458   20.5289 H   0  0  0  0  0  0
  -26.2840  -15.6325   20.1063 H   0  0  0  0  0  0
  -26.7104  -32.5548   23.1149 H   0  0  0  0  0  0
  -25.0104  -33.9789   25.0506 H   0  0  0  0  0  0
  -22.6934  -31.3077   21.4039 H   0  0  0  0  0  0
  -23.3756  -35.9645   23.3330 H   0  0  0  0  0  0
  -24.3579  -36.8902   22.2061 H   0  0  0  0  0  0
  -23.7223  -37.6516   23.6643 H   0  0  0  0  0  0
  -26.0459  -31.5936   20.5900 H   0  0  0  0  0  0
  -26.8206  -30.8844   21.9811 H   0  0  0  0  0  0
  -28.1048  -29.0836   21.1716 H   0  0  0  0  0  0
  -26.0598  -25.9647   19.0099 H   0  0  0  0  0  0
  -23.9811  -27.3036   19.0184 H   0  0  0  0  0  0
  -23.7120  -30.5949   19.3967 H   0  0  0  0  0  0
  -22.7385  -29.2367   19.8697 H   0  0  0  0  0  0
  -25.1277  -36.1998   25.0835 H   0  0  0  0  0  0
  -20.9977  -28.3236   24.1412 H   0  0  0  0  0  0
  -20.5668  -26.2266   23.3593 H   0  0  0  0  0  0
  -21.6635  -26.7423   22.1207 H   0  0  0  0  0  0
  -19.6914  -25.6284   21.1235 H   0  0  0  0  0  0
  -19.6707  -27.3185   20.6748 H   0  0  0  0  0  0
  -17.4195  -26.6673   21.4020 H   0  0  0  0  0  0
  -18.0333  -26.0050   22.9000 H   0  0  0  0  0  0
  -19.7947  -30.7236   24.2282 H   0  0  0  0  0  0
  -17.5040  -31.6274   24.5143 H   0  0  0  0  0  0
  -15.5366  -30.3002   23.7648 H   0  0  0  0  0  0
  -15.8670  -28.0838   22.7056 H   0  0  0  0  0  0
  -24.5934  -30.7009   25.7821 H   0  0  0  0  0  0
  -24.8888  -32.2832   26.4943 H   0  0  0  0  0  0
  -25.8103  -30.8873   27.0231 H   0  0  0  0  0  0
  -26.2832  -29.6849   24.1137 H   0  0  0  0  0  0
  -27.4065  -29.7299   25.4546 H   0  0  0  0  0  0
  -27.8661  -30.4411   23.9234 H   0  0  0  0  0  0
  -27.2686  -33.3644   26.2058 H   0  0  0  0  0  0
  -28.3857  -32.6864   25.0311 H   0  0  0  0  0  0
  -28.0699  -31.8447   26.5402 H   0  0  0  0  0  0
  -28.2601  -38.0112   24.7507 H   0  0  0  0  0  0
  -28.1048  -36.2625   24.6288 H   0  0  0  0  0  0
  -27.2279  -37.1468   25.8872 H   0  0  0  0  0  0
  -20.9280  -29.8788   21.6963 H   0  0  0  0  0  0
  -26.0185  -38.2882   24.1424 H   0  0  0  0  0  0
  -29.3529  -19.6149   24.6117 H   0  0  0  0  0  0
  -29.4690  -17.4012   23.6423 H   0  0  0  0  0  0
  -29.2823  -21.6286   23.2067 H   0  0  0  0  0  0
  -29.5824  -19.1445   19.6888 H   0  0  0  0  0  0
  -31.5697  -23.2432   18.4201 H   0  0  0  0  0  0
  -29.8755  -23.1566   17.9866 H   0  0  0  0  0  0
  -31.3554  -21.5773   20.0983 H   0  0  0  0  0  0
  -30.3076  -21.0076   18.8203 H   0  0  0  0  0  0
  -26.4642  -23.1905   21.1154 H   0  0  0  0  0  0
  -27.3532  -23.0968   22.6371 H   0  0  0  0  0  0
  -27.0046  -21.6442   21.6952 H   0  0  0  0  0  0
  -29.5217  -15.2877   23.4361 H   0  0  0  0  0  0
  -31.1314  -16.0396   23.2028 H   0  0  0  0  0  0
  -30.9218  -14.3100   23.0949 H   0  0  0  0  0  0
  -30.2365  -16.8682   19.9072 H   0  0  0  0  0  0
  -28.6567  -16.4982   20.5012 H   0  0  0  0  0  0
  -28.7828  -25.8068   21.9279 H   0  0  0  0  0  0
  -27.2663  -25.2839   21.2778 H   0  0  0  0  0  0
  1 25  1  0  0  0
  1 30  2  0  0  0
  1 87  1  0  0  0
  2  3  1  0  0  0
  2 25  1  0  0  0
  2 89  1  0  0  0
  2 90  1  0  0  0
  3  4  1  0  0  0
  3 91  1  0  0  0
  3 92  1  0  0  0
  4  5  1  0  0  0
  4 93  1  0  0  0
  4 94  1  0  0  0
  5  6  1  0  0  0
  5 26  1  0  0  0
  5 95  1  0  0  0
  6 25  1  0  0  0
  6 96  1  0  0  0
  6 97  1  0  0  0
  7  8  2  0  0  0
  7 26  1  0  0  0
  7 29  1  0  0  0
  8  9  1  0  0  0
  8 22  1  0  0  0
  9 10  1  0  0  0
  9 27  2  0  0  0
 10 11  2  0  0  0
 10 15  1  0  0  0
 11 12  1  0  0  0
 11 98  1  0  0  0
 12 13  2  0  0  0
 12 99  1  0  0  0
 13 14  1  0  0  0
 13 31  1  0  0  0
 14 15  2  0  0  0
 14100  1  0  0  0
 15101  1  0  0  0
 16 17  2  0  0  0
 16 21  1  0  0  0
 16 31  1  0  0  0
 17 18  1  0  0  0
 17102  1  0  0  0
 18 19  2  0  0  0
 18103  1  0  0  0
 19 20  1  0  0  0
 19 24  1  0  0  0
 20 21  2  0  0  0
 20104  1  0  0  0
 21 23  1  0  0  0
 22 28  1  0  0  0
 22 32  2  0  0  0
 26 27  1  0  0  0
 28105  1  0  0  0
 28106  1  0  0  0
 29107  1  0  0  0
 29108  1  0  0  0
 33 34  1  0  0  0
 33 66  1  0  0  0
 33 70  2  0  0  0
 34 36  1  0  0  0
 34 59  1  0  0  0
 34109  1  0  0  0
 35 44  2  0  0  0
 35 45  1  0  0  0
 35 68  1  0  0  0
 36 56  1  0  0  0
 36110  1  0  0  0
 37 39  1  0  0  0
 37 47  1  0  0  0
 37 66  1  0  0  0
 37111  1  0  0  0
 38 43  2  0  0  0
 38 46  1  0  0  0
 38 47  1  0  0  0
 39 64  1  0  0  0
 39 67  2  0  0  0
 40 52  1  0  0  0
 40 53  2  0  0  0
 40 58  1  0  0  0
 41112  1  0  0  0
 41113  1  0  0  0
 41114  1  0  0  0
 41 48  1  0  0  0
 42 43  1  0  0  0
 42 66  1  0  0  0
 42115  1  0  0  0
 42116  1  0  0  0
 43 44  1  0  0  0
 44117  1  0  0  0
 45 46  2  0  0  0
 45118  1  0  0  0
 46119  1  0  0  0
 47120  1  0  0  0
 47121  1  0  0  0
 48 56  1  0  0  0
 48 65  1  0  0  0
 48122  1  0  0  0
 49 50  1  0  0  0
 49 53  1  0  0  0
 49 64  1  0  0  0
 49123  1  0  0  0
 50 51  1  0  0  0
 50124  1  0  0  0
 50125  1  0  0  0
 51 52  1  0  0  0
 51126  1  0  0  0
 51127  1  0  0  0
 52128  1  0  0  0
 52129  1  0  0  0
 53 54  1  0  0  0
 54 55  2  0  0  0
 54130  1  0  0  0
 55 57  1  0  0  0
 55131  1  0  0  0
 56 69  2  0  0  0
 57 58  2  0  0  0
 57132  1  0  0  0
 58133  1  0  0  0
 59 60  1  0  0  0
 59 61  1  0  0  0
 59 62  1  0  0  0
 60134  1  0  0  0
 60135  1  0  0  0
 60136  1  0  0  0
 61137  1  0  0  0
 61138  1  0  0  0
 61139  1  0  0  0
 62140  1  0  0  0
 62141  1  0  0  0
 62142  1  0  0  0
 63 65  1  0  0  0
 63143  1  0  0  0
 63144  1  0  0  0
 63145  1  0  0  0
 64146  1  0  0  0
 65147  1  0  0  0
 68 85  1  0  0  0
 71 72  2  0  0  0
 71 73  1  0  0  0
 71148  1  0  0  0
 72 75  1  0  0  0
 72149  1  0  0  0
 73 76  2  0  0  0
 73150  1  0  0  0
 74 75  2  0  0  0
 74 76  1  0  0  0
 74151  1  0  0  0
 75 84  1  0  0  0
 76 86  1  0  0  0
 77 78  2  0  0  0
 77 79  1  0  0  0
 77 85  1  0  0  0
 78 82  1  0  0  0
 78 86  1  0  0  0
 79 80  1  0  0  0
 79 88  2  0  0  0
 80 81  1  0  0  0
 80152  1  0  0  0
 80153  1  0  0  0
 81 86  1  0  0  0
 81154  1  0  0  0
 81155  1  0  0  0
 82156  1  0  0  0
 82157  1  0  0  0
 82158  1  0  0  0
 83 87  1  0  0  0
 83159  1  0  0  0
 83160  1  0  0  0
 83161  1  0  0  0
 84 87  1  0  0  0
 84162  1  0  0  0
 84163  1  0  0  0
 85164  1  0  0  0
 85165  1  0  0  0
M  ISO  4   1 100  68 101  85 101  87 100
M  END
> <chiral flag>
0

> <version>
0

> <s_m_source_file>
/data/baiqing/PycharmProjects/Reinvent-master-3.2/result/LINK_invent/BTK/process_docking_weight1_custom_product_contain_oxygen_bond_distance_aromatic_linkinvent_7_9_3/rearranged_h_0109.sdf

> <i_m_source_file_index>
30

> <r_mmod_Potential_Energy-OPLS-2005>
165.38671875

> <r_mmod_Stretch_Energy-OPLS-2005>
57.9904441833496

> <r_mmod_Bend_Energy-OPLS-2005>
122.909278869629

> <r_mmod_Torsional_Energy-OPLS-2005>
297.618804931641

> <r_mmod_Improper_Torsional_Energy-OPLS-2005>
4.74395132064819

> <r_mmod_Van_der_Waal_Energy-OPLS-2005>
178.372299194336

> <r_mmod_Electrostatic_Energy-OPLS-2005>
-299.190032958984

> <r_mmod_Solvation_Energy-OPLS-2005>
-210.206527709961

> <b_mmod_Minimization_Converged-OPLS-2005>
0

> <r_mmod_RMS_Derivative-OPLS-2005>
1.98130190372467

$$$$
30
                    3D
 Structure written by MMmdl.
161169  0  0  1  0            999 V2000
  -30.7617  -14.3920   20.6730 C   0  0  0  0  0  0
  -30.4141  -12.2998   19.4039 C   0  0  0  0  0  0
  -29.4854  -12.5284   18.1963 C   0  0  0  0  0  0
  -28.0088  -12.3825   18.6093 C   0  0  0  0  0  0
  -27.6629  -13.2066   19.8764 C   0  0  2  0  0  0
  -28.6989  -12.9593   20.9924 C   0  0  0  0  0  0
  -25.2594  -13.8170   20.5673 C   0  0  0  0  0  0
  -24.1839  -13.0443   20.9157 C   0  0  0  0  0  0
  -24.6390  -11.6908   20.8718 C   0  0  0  0  0  0
  -23.9054  -10.4293   21.0396 C   0  0  0  0  0  0
  -24.3604   -9.4215   21.9183 C   0  0  0  0  0  0
  -23.6282   -8.2250   22.0759 C   0  0  0  0  0  0
  -22.4270   -8.0279   21.3543 C   0  0  0  0  0  0
  -21.9905   -9.0250   20.4645 C   0  0  0  0  0  0
  -22.7227  -10.2132   20.3049 C   0  0  0  0  0  0
  -21.6851   -6.0728   22.5274 C   0  0  0  0  0  0
  -21.4011   -6.5635   23.8208 C   0  0  0  0  0  0
  -21.3664   -5.6791   24.9173 C   0  0  0  0  0  0
  -21.6047   -4.3053   24.7224 C   0  0  0  0  0  0
  -21.8822   -3.8143   23.4346 C   0  0  0  0  0  0
  -21.9190   -4.6957   22.3400 C   0  0  0  0  0  0
  -22.7866  -13.5245   21.1828 C   0  0  0  0  0  0
  -22.1661   -4.2142   21.0979 F   0  0  0  0  0  0
  -21.5636   -3.4539   25.7738 F   0  0  0  0  0  0
  -30.0393  -13.2575   20.4563 N   0  0  0  0  0  0
  -26.3028  -12.9336   20.3362 N   0  0  0  0  0  0
  -25.9315  -11.6493   20.5745 N   0  0  0  0  0  0
  -22.0511  -12.8228   22.0384 N   0  0  0  0  0  0
  -25.4333  -15.1885   20.4100 N   0  0  0  0  0  0
  -31.8229  -14.6300   20.0856 O   0  0  0  0  0  0
  -21.6638   -6.8873   21.4234 O   0  0  0  0  0  0
  -22.3557  -14.5558   20.6690 O   0  0  0  0  0  0
  -24.6157  -31.8707   23.2163 C   0  0  0  0  0  0
  -25.9059  -32.4830   23.8442 C   0  0  1  0  0  0
  -27.2214  -27.4356   20.0770 C   0  0  0  0  0  0
  -25.5921  -33.8630   24.2363 N   0  0  0  0  0  0
  -23.4008  -30.5006   21.5583 C   0  0  2  0  0  0
  -24.8416  -28.9799   20.1140 C   0  0  0  0  0  0
  -22.7403  -29.4681   22.5007 C   0  0  0  0  0  0
  -18.0271  -28.1373   22.8502 C   0  0  0  0  0  0
  -24.1481  -36.7313   23.2639 C   0  0  0  0  0  0
  -25.9338  -30.8345   21.3726 C   0  0  0  0  0  0
  -26.0071  -29.4728   20.7135 C   0  0  0  0  0  0
  -27.1987  -28.7073   20.6984 C   0  0  0  0  0  0
  -26.0307  -26.9792   19.4524 C   0  0  0  0  0  0
  -24.8480  -27.7296   19.4843 C   0  0  0  0  0  0
  -23.6057  -29.8456   20.1697 C   0  0  0  0  0  0
  -25.4103  -36.3115   24.0342 C   0  0  1  0  0  0
  -20.5862  -28.3661   23.1316 C   0  0  2  0  0  0
  -20.6763  -26.9399   22.5409 C   0  0  0  0  0  0
  -19.5734  -26.6386   21.5211 C   0  0  0  0  0  0
  -18.1914  -26.7922   22.1629 C   0  0  0  0  0  0
  -19.1522  -28.8835   23.2901 C   0  0  0  0  0  0
  -18.9451  -30.1442   23.8906 C   0  0  0  0  0  0
  -17.6457  -30.6583   24.0568 C   0  0  0  0  0  0
  -25.9032  -34.9478   23.5141 C   0  0  0  0  0  0
  -16.5343  -29.9084   23.6334 C   0  0  0  0  0  0
  -16.7262  -28.6498   23.0357 C   0  0  0  0  0  0
  -26.4494  -31.6601   25.0759 C   0  0  0  0  0  0
  -25.3765  -31.3661   26.1499 C   0  0  0  0  0  0
  -27.0368  -30.3062   24.6128 C   0  0  0  0  0  0
  -27.6049  -32.4336   25.7540 C   0  0  0  0  0  0
  -27.5573  -37.1814   24.8469 C   0  0  0  0  0  0
  -21.4133  -29.3038   22.3731 N   0  0  0  0  0  0
  -26.4286  -37.3801   23.9414 N   0  0  0  0  0  0
  -24.6686  -31.0813   22.1070 N   0  0  0  0  0  0
  -23.4180  -28.8203   23.3031 O   0  0  0  0  0  0
  -28.3771  -26.6668   20.1065 O   0  0  0  0  0  0
  -26.5578  -34.8921   22.4694 O   0  0  0  0  0  0
  -23.5349  -32.1465   23.7558 O   0  0  0  0  0  0
  -29.3554  -17.5648   22.0691 C   0  0  0  0  0  0
  -29.9091  -17.0505   19.7671 C   0  0  0  0  0  0
  -28.9702  -18.8773   21.7096 C   0  0  0  0  0  0
  -29.8410  -16.6280   21.1196 C   0  0  0  0  0  0
  -29.0959  -19.2848   20.3540 C   0  0  0  0  0  0
  -29.5509  -18.3584   19.3953 C   0  0  0  0  0  0
  -27.4045  -20.6358   22.6073 C   0  0  0  0  0  0
  -28.3623  -19.7071   22.7693 C   0  0  0  0  0  0
  -30.3751  -15.0055   22.9674 C   0  0  0  0  0  0
  -29.2667  -24.2711   20.1898 C   0  0  0  0  0  0
  -28.7402  -22.8628   19.8232 C   0  0  0  0  0  0
  -28.1925  -25.2852   19.7613 C   0  0  0  0  0  0
  -29.5429  -21.6360   20.2785 C   0  0  0  0  0  0
  -30.2314  -15.2971   21.5328 N   0  0  0  0  0  0
  -28.7251  -20.5286   19.9020 O   0  0  0  0  0  0
  -29.6433  -18.7282   18.0942 F   0  0  0  0  0  0
  -31.4581  -12.3952   19.1002 H   0  0  0  0  0  0
  -30.3099  -11.2799   19.7778 H   0  0  0  0  0  0
  -29.7220  -11.8231   17.3985 H   0  0  0  0  0  0
  -29.6551  -13.5248   17.7846 H   0  0  0  0  0  0
  -27.8154  -11.3246   18.7897 H   0  0  0  0  0  0
  -27.3570  -12.6733   17.7848 H   0  0  0  0  0  0
  -27.7178  -14.2604   19.6012 H   0  0  0  0  0  0
  -28.6651  -11.9195   21.3208 H   0  0  0  0  0  0
  -28.4382  -13.5467   21.8714 H   0  0  0  0  0  0
  -25.2743   -9.5700   22.4765 H   0  0  0  0  0  0
  -23.9987   -7.4651   22.7490 H   0  0  0  0  0  0
  -21.0839   -8.8762   19.8950 H   0  0  0  0  0  0
  -22.3677  -10.9668   19.6159 H   0  0  0  0  0  0
  -21.1997   -7.6144   23.9702 H   0  0  0  0  0  0
  -21.1492   -6.0526   25.9074 H   0  0  0  0  0  0
  -22.0597   -2.7605   23.2847 H   0  0  0  0  0  0
  -22.4114  -11.9859   22.4724 H   0  0  0  0  0  0
  -21.1140  -13.1267   22.2610 H   0  0  0  0  0  0
  -24.6740  -15.8498   20.5300 H   0  0  0  0  0  0
  -26.2982  -15.6263   20.1193 H   0  0  0  0  0  0
  -26.7126  -32.5546   23.1206 H   0  0  0  0  0  0
  -25.0098  -33.9800   25.0527 H   0  0  0  0  0  0
  -22.6890  -31.3187   21.4267 H   0  0  0  0  0  0
  -23.3751  -35.9637   23.3302 H   0  0  0  0  0  0
  -24.3569  -36.8936   22.2055 H   0  0  0  0  0  0
  -23.7224  -37.6509   23.6663 H   0  0  0  0  0  0
  -26.0500  -31.6035   20.6079 H   0  0  0  0  0  0
  -26.8210  -30.8814   21.9928 H   0  0  0  0  0  0
  -28.0936  -29.0816   21.1761 H   0  0  0  0  0  0
  -25.9719  -26.0388   18.9258 H   0  0  0  0  0  0
  -23.9542  -27.3466   19.0115 H   0  0  0  0  0  0
  -23.7119  -30.6253   19.4150 H   0  0  0  0  0  0
  -22.7285  -29.2672   19.8732 H   0  0  0  0  0  0
  -25.1275  -36.1984   25.0835 H   0  0  0  0  0  0
  -20.9954  -28.3228   24.1438 H   0  0  0  0  0  0
  -20.5686  -26.2263   23.3588 H   0  0  0  0  0  0
  -21.6629  -26.7454   22.1190 H   0  0  0  0  0  0
  -19.6890  -25.6308   21.1218 H   0  0  0  0  0  0
  -19.6665  -27.3214   20.6755 H   0  0  0  0  0  0
  -17.4184  -26.6686   21.4024 H   0  0  0  0  0  0
  -18.0303  -26.0054   22.9012 H   0  0  0  0  0  0
  -19.7930  -30.7257   24.2267 H   0  0  0  0  0  0
  -17.5016  -31.6265   24.5171 H   0  0  0  0  0  0
  -15.5343  -30.2989   23.7658 H   0  0  0  0  0  0
  -15.8660  -28.0820   22.7071 H   0  0  0  0  0  0
  -24.5952  -30.6998   25.7825 H   0  0  0  0  0  0
  -24.8940  -32.2792   26.4987 H   0  0  0  0  0  0
  -25.8137  -30.8805   27.0233 H   0  0  0  0  0  0
  -26.2933  -29.6779   24.1204 H   0  0  0  0  0  0
  -27.4194  -29.7328   25.4583 H   0  0  0  0  0  0
  -27.8739  -30.4416   23.9274 H   0  0  0  0  0  0
  -27.2652  -33.3639   26.2111 H   0  0  0  0  0  0
  -28.3873  -32.6887   25.0381 H   0  0  0  0  0  0
  -28.0700  -31.8464   26.5468 H   0  0  0  0  0  0
  -28.2582  -38.0121   24.7537 H   0  0  0  0  0  0
  -28.1080  -36.2650   24.6290 H   0  0  0  0  0  0
  -27.2280  -37.1457   25.8867 H   0  0  0  0  0  0
  -20.9282  -29.8777   21.6976 H   0  0  0  0  0  0
  -26.0175  -38.2877   24.1431 H   0  0  0  0  0  0
  -29.2389  -17.2824   23.1049 H   0  0  0  0  0  0
  -30.2501  -16.3939   18.9813 H   0  0  0  0  0  0
  -27.0345  -21.2012   23.4505 H   0  0  0  0  0  0
  -26.9681  -20.8477   21.6422 H   0  0  0  0  0  0
  -28.7447  -19.5491   23.7686 H   0  0  0  0  0  0
  -31.0349  -15.7329   23.4423 H   0  0  0  0  0  0
  -30.7958  -14.0168   23.1634 H   0  0  0  0  0  0
  -29.4062  -15.0423   23.4663 H   0  0  0  0  0  0
  -30.2153  -24.4756   19.6932 H   0  0  0  0  0  0
  -29.4377  -24.3424   21.2645 H   0  0  0  0  0  0
  -28.6097  -22.8063   18.7417 H   0  0  0  0  0  0
  -27.7398  -22.7540   20.2452 H   0  0  0  0  0  0
  -27.2777  -24.9321   20.2406 H   0  0  0  0  0  0
  -28.0539  -25.2129   18.6810 H   0  0  0  0  0  0
  -29.7269  -21.6681   21.3524 H   0  0  0  0  0  0
  -30.5078  -21.5882   19.7724 H   0  0  0  0  0  0
  1 25  1  0  0  0
  1 30  2  0  0  0
  1 84  1  0  0  0
  2  3  1  0  0  0
  2 25  1  0  0  0
  2 87  1  0  0  0
  2 88  1  0  0  0
  3  4  1  0  0  0
  3 89  1  0  0  0
  3 90  1  0  0  0
  4  5  1  0  0  0
  4 91  1  0  0  0
  4 92  1  0  0  0
  5  6  1  0  0  0
  5 26  1  0  0  0
  5 93  1  0  0  0
  6 25  1  0  0  0
  6 94  1  0  0  0
  6 95  1  0  0  0
  7  8  2  0  0  0
  7 26  1  0  0  0
  7 29  1  0  0  0
  8  9  1  0  0  0
  8 22  1  0  0  0
  9 10  1  0  0  0
  9 27  2  0  0  0
 10 11  2  0  0  0
 10 15  1  0  0  0
 11 12  1  0  0  0
 11 96  1  0  0  0
 12 13  2  0  0  0
 12 97  1  0  0  0
 13 14  1  0  0  0
 13 31  1  0  0  0
 14 15  2  0  0  0
 14 98  1  0  0  0
 15 99  1  0  0  0
 16 17  2  0  0  0
 16 21  1  0  0  0
 16 31  1  0  0  0
 17 18  1  0  0  0
 17100  1  0  0  0
 18 19  2  0  0  0
 18101  1  0  0  0
 19 20  1  0  0  0
 19 24  1  0  0  0
 20 21  2  0  0  0
 20102  1  0  0  0
 21 23  1  0  0  0
 22 28  1  0  0  0
 22 32  2  0  0  0
 26 27  1  0  0  0
 28103  1  0  0  0
 28104  1  0  0  0
 29105  1  0  0  0
 29106  1  0  0  0
 33 34  1  0  0  0
 33 66  1  0  0  0
 33 70  2  0  0  0
 34 36  1  0  0  0
 34 59  1  0  0  0
 34107  1  0  0  0
 35 44  2  0  0  0
 35 45  1  0  0  0
 35 68  1  0  0  0
 36 56  1  0  0  0
 36108  1  0  0  0
 37 39  1  0  0  0
 37 47  1  0  0  0
 37 66  1  0  0  0
 37109  1  0  0  0
 38 43  2  0  0  0
 38 46  1  0  0  0
 38 47  1  0  0  0
 39 64  1  0  0  0
 39 67  2  0  0  0
 40 52  1  0  0  0
 40 53  2  0  0  0
 40 58  1  0  0  0
 41110  1  0  0  0
 41111  1  0  0  0
 41112  1  0  0  0
 41 48  1  0  0  0
 42 43  1  0  0  0
 42 66  1  0  0  0
 42113  1  0  0  0
 42114  1  0  0  0
 43 44  1  0  0  0
 44115  1  0  0  0
 45 46  2  0  0  0
 45116  1  0  0  0
 46117  1  0  0  0
 47118  1  0  0  0
 47119  1  0  0  0
 48 56  1  0  0  0
 48 65  1  0  0  0
 48120  1  0  0  0
 49 50  1  0  0  0
 49 53  1  0  0  0
 49 64  1  0  0  0
 49121  1  0  0  0
 50 51  1  0  0  0
 50122  1  0  0  0
 50123  1  0  0  0
 51 52  1  0  0  0
 51124  1  0  0  0
 51125  1  0  0  0
 52126  1  0  0  0
 52127  1  0  0  0
 53 54  1  0  0  0
 54 55  2  0  0  0
 54128  1  0  0  0
 55 57  1  0  0  0
 55129  1  0  0  0
 56 69  2  0  0  0
 57 58  2  0  0  0
 57130  1  0  0  0
 58131  1  0  0  0
 59 60  1  0  0  0
 59 61  1  0  0  0
 59 62  1  0  0  0
 60132  1  0  0  0
 60133  1  0  0  0
 60134  1  0  0  0
 61135  1  0  0  0
 61136  1  0  0  0
 61137  1  0  0  0
 62138  1  0  0  0
 62139  1  0  0  0
 62140  1  0  0  0
 63 65  1  0  0  0
 63141  1  0  0  0
 63142  1  0  0  0
 63143  1  0  0  0
 64144  1  0  0  0
 65145  1  0  0  0
 68 82  1  0  0  0
 71 73  2  0  0  0
 71 74  1  0  0  0
 71146  1  0  0  0
 72 74  2  0  0  0
 72 76  1  0  0  0
 72147  1  0  0  0
 73 75  1  0  0  0
 73 78  1  0  0  0
 74 84  1  0  0  0
 75 76  2  0  0  0
 75 85  1  0  0  0
 76 86  1  0  0  0
 77 78  2  0  0  0
 77148  1  0  0  0
 77149  1  0  0  0
 78150  1  0  0  0
 79 84  1  0  0  0
 79151  1  0  0  0
 79152  1  0  0  0
 79153  1  0  0  0
 80 81  1  0  0  0
 80 82  1  0  0  0
 80154  1  0  0  0
 80155  1  0  0  0
 81 83  1  0  0  0
 81156  1  0  0  0
 81157  1  0  0  0
 82158  1  0  0  0
 82159  1  0  0  0
 83 85  1  0  0  0
 83160  1  0  0  0
 83161  1  0  0  0
M  ISO  4   1 100  68 101  82 101  84 100
M  END
> <chiral flag>
0

> <version>
0

> <s_m_source_file>
/data/baiqing/PycharmProjects/Reinvent-master-3.2/result/LINK_invent/BTK/process_docking_weight1_custom_product_contain_oxygen_bond_distance_aromatic_linkinvent_7_9_3/rearranged_h_0109.sdf

> <i_m_source_file_index>
31

> <r_mmod_Potential_Energy-OPLS-2005>
186.386581420898

> <r_mmod_Stretch_Energy-OPLS-2005>
40.2953987121582

> <r_mmod_Bend_Energy-OPLS-2005>
112.423927307129

> <r_mmod_Torsional_Energy-OPLS-2005>
304.658325195312

> <r_mmod_Improper_Torsional_Energy-OPLS-2005>
2.71382164955139

> <r_mmod_Van_der_Waal_Energy-OPLS-2005>
176.073287963867

> <r_mmod_Electrostatic_Energy-OPLS-2005>
-274.53759765625

> <r_mmod_Solvation_Energy-OPLS-2005>
-185.936126708984

> <b_mmod_Minimization_Converged-OPLS-2005>
0

> <r_mmod_RMS_Derivative-OPLS-2005>
0.876539707183838

$$$$
31
                    3D
 Structure written by MMmdl.
158167  0  0  1  0            999 V2000
  -30.6612  -14.5748   20.5064 C   0  0  0  0  0  0
  -30.4268  -12.3453   19.4598 C   0  0  0  0  0  0
  -29.4994  -12.4858   18.2340 C   0  0  0  0  0  0
  -28.0215  -12.3468   18.6453 C   0  0  0  0  0  0
  -27.6575  -13.2105   19.8811 C   0  0  2  0  0  0
  -28.7032  -13.0494   21.0106 C   0  0  0  0  0  0
  -25.2575  -13.8155   20.5737 C   0  0  0  0  0  0
  -24.1829  -13.0430   20.9214 C   0  0  0  0  0  0
  -24.6386  -11.6894   20.8781 C   0  0  0  0  0  0
  -23.9046  -10.4288   21.0415 C   0  0  0  0  0  0
  -24.3599   -9.4189   21.9184 C   0  0  0  0  0  0
  -23.6267   -8.2228   22.0744 C   0  0  0  0  0  0
  -22.4257   -8.0277   21.3522 C   0  0  0  0  0  0
  -21.9896   -9.0256   20.4641 C   0  0  0  0  0  0
  -22.7215  -10.2143   20.3055 C   0  0  0  0  0  0
  -21.6851   -6.0730   22.5279 C   0  0  0  0  0  0
  -21.4021   -6.5636   23.8215 C   0  0  0  0  0  0
  -21.3661   -5.6794   24.9177 C   0  0  0  0  0  0
  -21.6039   -4.3053   24.7241 C   0  0  0  0  0  0
  -21.8812   -3.8141   23.4368 C   0  0  0  0  0  0
  -21.9195   -4.6951   22.3418 C   0  0  0  0  0  0
  -22.7857  -13.5240   21.1843 C   0  0  0  0  0  0
  -22.1657   -4.2125   21.0998 F   0  0  0  0  0  0
  -21.5618   -3.4543   25.7754 F   0  0  0  0  0  0
  -30.0278  -13.3636   20.4492 N   0  0  0  0  0  0
  -26.3015  -12.9340   20.3454 N   0  0  0  0  0  0
  -25.9325  -11.6486   20.5864 N   0  0  0  0  0  0
  -22.0504  -12.8242   22.0411 N   0  0  0  0  0  0
  -25.4296  -15.1875   20.4108 N   0  0  0  0  0  0
  -31.7992  -14.7404   20.0542 O   0  0  0  0  0  0
  -21.6625   -6.8874   21.4235 O   0  0  0  0  0  0
  -22.3551  -14.5541   20.6697 O   0  0  0  0  0  0
  -24.6224  -31.8625   23.2048 C   0  0  0  0  0  0
  -25.9080  -32.4799   23.8375 C   0  0  1  0  0  0
  -27.2332  -27.3693   20.1208 C   0  0  0  0  0  0
  -25.5905  -33.8596   24.2300 N   0  0  0  0  0  0
  -23.4165  -30.4848   21.5430 C   0  0  2  0  0  0
  -24.8706  -28.9505   20.1038 C   0  0  0  0  0  0
  -22.7460  -29.4632   22.4915 C   0  0  0  0  0  0
  -18.0289  -28.1388   22.8495 C   0  0  0  0  0  0
  -24.1484  -36.7304   23.2642 C   0  0  0  0  0  0
  -25.9525  -30.8114   21.3699 C   0  0  0  0  0  0
  -26.0336  -29.4438   20.7112 C   0  0  0  0  0  0
  -27.2221  -28.6607   20.7168 C   0  0  0  0  0  0
  -26.0576  -26.9177   19.4853 C   0  0  0  0  0  0
  -24.8807  -27.6913   19.4811 C   0  0  0  0  0  0
  -23.6330  -29.8211   20.1565 C   0  0  0  0  0  0
  -25.4112  -36.3094   24.0333 C   0  0  1  0  0  0
  -20.5888  -28.3688   23.1284 C   0  0  2  0  0  0
  -20.6778  -26.9414   22.5412 C   0  0  0  0  0  0
  -19.5754  -26.6391   21.5218 C   0  0  0  0  0  0
  -18.1938  -26.7931   22.1635 C   0  0  0  0  0  0
  -19.1543  -28.8850   23.2887 C   0  0  0  0  0  0
  -18.9470  -30.1453   23.8900 C   0  0  0  0  0  0
  -17.6472  -30.6592   24.0570 C   0  0  0  0  0  0
  -25.9039  -34.9461   23.5117 C   0  0  0  0  0  0
  -16.5360  -29.9101   23.6328 C   0  0  0  0  0  0
  -16.7279  -28.6518   23.0350 C   0  0  0  0  0  0
  -26.4493  -31.6596   25.0720 C   0  0  0  0  0  0
  -25.3737  -31.3735   26.1450 C   0  0  0  0  0  0
  -27.0344  -30.3031   24.6151 C   0  0  0  0  0  0
  -27.6073  -32.4310   25.7473 C   0  0  0  0  0  0
  -27.5576  -37.1811   24.8475 C   0  0  0  0  0  0
  -21.4177  -29.3048   22.3674 N   0  0  0  0  0  0
  -26.4302  -37.3774   23.9397 N   0  0  0  0  0  0
  -24.6817  -31.0674   22.0976 N   0  0  0  0  0  0
  -23.4201  -28.8170   23.2984 O   0  0  0  0  0  0
  -28.2872  -26.4658   20.2422 O   0  0  0  0  0  0
  -26.5606  -34.8925   22.4681 O   0  0  0  0  0  0
  -23.5396  -32.1387   23.7398 O   0  0  0  0  0  0
  -29.0906  -16.8321   18.9938 C   0  0  0  0  0  0
  -28.7696  -18.0161   18.3053 C   0  0  0  0  0  0
  -30.0304  -18.1624   20.8094 C   0  0  0  0  0  0
  -29.7370  -19.3749   20.0989 C   0  0  0  0  0  0
  -29.7257  -16.8751   20.2566 C   0  0  0  0  0  0
  -29.0931  -19.2719   18.8493 C   0  0  0  0  0  0
  -28.4189  -24.1199   21.2176 C   0  0  0  0  0  0
  -27.9911  -25.4189   21.1208 C   0  0  0  0  0  0
  -27.8271  -23.1995   22.2668 C   0  0  0  0  0  0
  -29.4159  -23.2670   20.4134 C   0  0  0  0  0  0
  -28.5152  -21.8371   22.0931 C   0  0  0  0  0  0
  -30.1860  -20.7952   20.5562 C   0  0  0  0  0  0
  -29.9323  -15.6273   20.9610 N   0  0  0  0  0  0
  -29.0964  -21.8258   20.7354 N   0  3  2  0  0  0
  -28.7932  -20.3990   18.1623 F   0  0  0  0  0  0
  -31.4674  -12.4547   19.1516 H   0  0  0  0  0  0
  -30.3520  -11.3465   19.8924 H   0  0  0  0  0  0
  -29.7443  -11.7248   17.4916 H   0  0  0  0  0  0
  -29.6620  -13.4538   17.7557 H   0  0  0  0  0  0
  -27.8485  -11.2939   18.8730 H   0  0  0  0  0  0
  -27.3674  -12.5903   17.8074 H   0  0  0  0  0  0
  -27.6806  -14.2504   19.5586 H   0  0  0  0  0  0
  -28.7027  -12.0313   21.4028 H   0  0  0  0  0  0
  -28.4556  -13.6903   21.8578 H   0  0  0  0  0  0
  -25.2747   -9.5660   22.4761 H   0  0  0  0  0  0
  -23.9958   -7.4634   22.7478 H   0  0  0  0  0  0
  -21.0808   -8.8787   19.8982 H   0  0  0  0  0  0
  -22.3654  -10.9681   19.6177 H   0  0  0  0  0  0
  -21.2018   -7.6150   23.9721 H   0  0  0  0  0  0
  -21.1475   -6.0525   25.9080 H   0  0  0  0  0  0
  -22.0588   -2.7605   23.2891 H   0  0  0  0  0  0
  -22.4111  -11.9897   22.4783 H   0  0  0  0  0  0
  -21.1145  -13.1284   22.2629 H   0  0  0  0  0  0
  -24.6659  -15.8433   20.5333 H   0  0  0  0  0  0
  -26.2795  -15.6316   20.0894 H   0  0  0  0  0  0
  -26.7144  -32.5492   23.1134 H   0  0  0  0  0  0
  -25.0060  -33.9735   25.0451 H   0  0  0  0  0  0
  -22.7085  -31.3038   21.4001 H   0  0  0  0  0  0
  -23.3720  -35.9668   23.3356 H   0  0  0  0  0  0
  -24.3565  -36.8860   22.2046 H   0  0  0  0  0  0
  -23.7265  -37.6542   23.6614 H   0  0  0  0  0  0
  -26.0737  -31.5777   20.6024 H   0  0  0  0  0  0
  -26.8365  -30.8632   21.9952 H   0  0  0  0  0  0
  -28.1080  -29.0189   21.2222 H   0  0  0  0  0  0
  -26.0400  -25.9342   19.0370 H   0  0  0  0  0  0
  -23.9873  -27.3056   19.0107 H   0  0  0  0  0  0
  -23.7479  -30.5995   19.4013 H   0  0  0  0  0  0
  -22.7579  -29.2444   19.8526 H   0  0  0  0  0  0
  -25.1297  -36.1963   25.0829 H   0  0  0  0  0  0
  -21.0000  -28.3278   24.1398 H   0  0  0  0  0  0
  -20.5690  -26.2305   23.3616 H   0  0  0  0  0  0
  -21.6641  -26.7446   22.1198 H   0  0  0  0  0  0
  -19.6916  -25.6302   21.1248 H   0  0  0  0  0  0
  -19.6703  -27.3199   20.6749 H   0  0  0  0  0  0
  -17.4209  -26.6669   21.4041 H   0  0  0  0  0  0
  -18.0354  -26.0074   22.9035 H   0  0  0  0  0  0
  -19.7942  -30.7266   24.2280 H   0  0  0  0  0  0
  -17.5024  -31.6270   24.5176 H   0  0  0  0  0  0
  -15.5357  -30.3006   23.7638 H   0  0  0  0  0  0
  -15.8683  -28.0836   22.7059 H   0  0  0  0  0  0
  -24.5905  -30.7093   25.7783 H   0  0  0  0  0  0
  -24.8932  -32.2904   26.4868 H   0  0  0  0  0  0
  -25.8058  -30.8917   27.0226 H   0  0  0  0  0  0
  -26.2926  -29.6757   24.1200 H   0  0  0  0  0  0
  -27.4095  -29.7303   25.4640 H   0  0  0  0  0  0
  -27.8758  -30.4339   23.9344 H   0  0  0  0  0  0
  -27.2727  -33.3628   26.2040 H   0  0  0  0  0  0
  -28.3890  -32.6829   25.0295 H   0  0  0  0  0  0
  -28.0728  -31.8423   26.5386 H   0  0  0  0  0  0
  -28.2634  -38.0067   24.7452 H   0  0  0  0  0  0
  -28.1022  -36.2587   24.6388 H   0  0  0  0  0  0
  -27.2274  -37.1573   25.8876 H   0  0  0  0  0  0
  -20.9349  -29.8775   21.6891 H   0  0  0  0  0  0
  -26.0191  -38.2862   24.1358 H   0  0  0  0  0  0
  -28.8333  -15.8885   18.5392 H   0  0  0  0  0  0
  -28.2795  -17.9625   17.3428 H   0  0  0  0  0  0
  -30.5145  -18.2186   21.7740 H   0  0  0  0  0  0
  -27.2503  -25.7431   21.8424 H   0  0  0  0  0  0
  -26.7544  -23.1112   22.0937 H   0  0  0  0  0  0
  -27.9703  -23.5931   23.2738 H   0  0  0  0  0  0
  -30.4200  -23.5073   20.7635 H   0  0  0  0  0  0
  -29.3675  -23.4688   19.3445 H   0  0  0  0  0  0
  -27.8350  -20.9983   22.2465 H   0  0  0  0  0  0
  -29.3079  -21.7491   22.8381 H   0  0  0  0  0  0
  -30.8669  -21.1597   19.7857 H   0  0  0  0  0  0
  -30.7991  -20.7170   21.4552 H   0  0  0  0  0  0
  -29.1380  -15.3377   21.5128 H   0  0  0  0  0  0
  -28.3600  -21.5682   20.0929 H   0  0  0  0  0  0
  1 25  1  0  0  0
  1 30  2  0  0  0
  1 83  1  0  0  0
  2  3  1  0  0  0
  2 25  1  0  0  0
  2 86  1  0  0  0
  2 87  1  0  0  0
  3  4  1  0  0  0
  3 88  1  0  0  0
  3 89  1  0  0  0
  4  5  1  0  0  0
  4 90  1  0  0  0
  4 91  1  0  0  0
  5  6  1  0  0  0
  5 26  1  0  0  0
  5 92  1  0  0  0
  6 25  1  0  0  0
  6 93  1  0  0  0
  6 94  1  0  0  0
  7  8  2  0  0  0
  7 26  1  0  0  0
  7 29  1  0  0  0
  8  9  1  0  0  0
  8 22  1  0  0  0
  9 10  1  0  0  0
  9 27  2  0  0  0
 10 11  2  0  0  0
 10 15  1  0  0  0
 11 12  1  0  0  0
 11 95  1  0  0  0
 12 13  2  0  0  0
 12 96  1  0  0  0
 13 14  1  0  0  0
 13 31  1  0  0  0
 14 15  2  0  0  0
 14 97  1  0  0  0
 15 98  1  0  0  0
 16 17  2  0  0  0
 16 21  1  0  0  0
 16 31  1  0  0  0
 17 18  1  0  0  0
 17 99  1  0  0  0
 18 19  2  0  0  0
 18100  1  0  0  0
 19 20  1  0  0  0
 19 24  1  0  0  0
 20 21  2  0  0  0
 20101  1  0  0  0
 21 23  1  0  0  0
 22 28  1  0  0  0
 22 32  2  0  0  0
 26 27  1  0  0  0
 28102  1  0  0  0
 28103  1  0  0  0
 29104  1  0  0  0
 29105  1  0  0  0
 33 34  1  0  0  0
 33 66  1  0  0  0
 33 70  2  0  0  0
 34 36  1  0  0  0
 34 59  1  0  0  0
 34106  1  0  0  0
 35 44  2  0  0  0
 35 45  1  0  0  0
 35 68  1  0  0  0
 36 56  1  0  0  0
 36107  1  0  0  0
 37 39  1  0  0  0
 37 47  1  0  0  0
 37 66  1  0  0  0
 37108  1  0  0  0
 38 43  2  0  0  0
 38 46  1  0  0  0
 38 47  1  0  0  0
 39 64  1  0  0  0
 39 67  2  0  0  0
 40 52  1  0  0  0
 40 53  2  0  0  0
 40 58  1  0  0  0
 41109  1  0  0  0
 41110  1  0  0  0
 41111  1  0  0  0
 41 48  1  0  0  0
 42 43  1  0  0  0
 42 66  1  0  0  0
 42112  1  0  0  0
 42113  1  0  0  0
 43 44  1  0  0  0
 44114  1  0  0  0
 45 46  2  0  0  0
 45115  1  0  0  0
 46116  1  0  0  0
 47117  1  0  0  0
 47118  1  0  0  0
 48 56  1  0  0  0
 48 65  1  0  0  0
 48119  1  0  0  0
 49 50  1  0  0  0
 49 53  1  0  0  0
 49 64  1  0  0  0
 49120  1  0  0  0
 50 51  1  0  0  0
 50121  1  0  0  0
 50122  1  0  0  0
 51 52  1  0  0  0
 51123  1  0  0  0
 51124  1  0  0  0
 52125  1  0  0  0
 52126  1  0  0  0
 53 54  1  0  0  0
 54 55  2  0  0  0
 54127  1  0  0  0
 55 57  1  0  0  0
 55128  1  0  0  0
 56 69  2  0  0  0
 57 58  2  0  0  0
 57129  1  0  0  0
 58130  1  0  0  0
 59 60  1  0  0  0
 59 61  1  0  0  0
 59 62  1  0  0  0
 60131  1  0  0  0
 60132  1  0  0  0
 60133  1  0  0  0
 61134  1  0  0  0
 61135  1  0  0  0
 61136  1  0  0  0
 62137  1  0  0  0
 62138  1  0  0  0
 62139  1  0  0  0
 63 65  1  0  0  0
 63140  1  0  0  0
 63141  1  0  0  0
 63142  1  0  0  0
 64143  1  0  0  0
 65144  1  0  0  0
 68 78  1  0  0  0
 71 72  2  0  0  0
 71 75  1  0  0  0
 71145  1  0  0  0
 72 76  1  0  0  0
 72146  1  0  0  0
 73 74  1  0  0  0
 73 75  2  0  0  0
 73147  1  0  0  0
 74 76  2  0  0  0
 74 82  1  0  0  0
 75 83  1  0  0  0
 76 85  1  0  0  0
 77 78  2  0  0  0
 77 79  1  0  0  0
 77 80  1  0  0  0
 78148  1  0  0  0
 79 81  1  0  0  0
 79149  1  0  0  0
 79150  1  0  0  0
 80 84  1  0  0  0
 80151  1  0  0  0
 80152  1  0  0  0
 81 84  1  0  0  0
 81153  1  0  0  0
 81154  1  0  0  0
 82155  1  0  0  0
 82156  1  0  0  0
 82 84  1  0  0  0
 83157  1  0  0  0
 84158  1  0  0  0
M  CHG  1  84   1
M  ISO  4   1 100  68 101  78 101  83 100
M  END
> <chiral flag>
0

> <version>
0

> <s_m_source_file>
/data/baiqing/PycharmProjects/Reinvent-master-3.2/result/LINK_invent/BTK/process_docking_weight1_custom_product_contain_oxygen_bond_distance_aromatic_linkinvent_7_9_3/rearranged_h_0109.sdf

> <i_m_source_file_index>
32

> <r_mmod_Potential_Energy-OPLS-2005>
-65.3901596069336

> <r_mmod_Stretch_Energy-OPLS-2005>
57.4078025817871

> <r_mmod_Bend_Energy-OPLS-2005>
152.218292236328

> <r_mmod_Torsional_Energy-OPLS-2005>
295.061401367188

> <r_mmod_Improper_Torsional_Energy-OPLS-2005>
6.8883056640625

> <r_mmod_Van_der_Waal_Energy-OPLS-2005>
135.662536621094

> <r_mmod_Electrostatic_Energy-OPLS-2005>
-322.871185302734

> <r_mmod_Solvation_Energy-OPLS-2005>
-428.771881103516

> <b_mmod_Minimization_Converged-OPLS-2005>
0

> <r_mmod_RMS_Derivative-OPLS-2005>
3.46106648445129

$$$$
32
                    3D
 Structure written by MMmdl.
168177  0  0  1  0            999 V2000
  -30.6593  -14.6282   20.5035 C   0  0  0  0  0  0
  -30.4601  -12.3866   19.4325 C   0  0  0  0  0  0
  -29.5139  -12.4590   18.2142 C   0  0  0  0  0  0
  -28.0375  -12.3028   18.6326 C   0  0  0  0  0  0
  -27.6667  -13.1927   19.8491 C   0  0  2  0  0  0
  -28.7203  -13.0648   20.9717 C   0  0  0  0  0  0
  -25.2667  -13.8109   20.5616 C   0  0  0  0  0  0
  -24.1908  -13.0389   20.9153 C   0  0  0  0  0  0
  -24.6419  -11.6864   20.8675 C   0  0  0  0  0  0
  -23.9061  -10.4268   21.0353 C   0  0  0  0  0  0
  -24.3593   -9.4204   21.9156 C   0  0  0  0  0  0
  -23.6257   -8.2229   22.0749 C   0  0  0  0  0  0
  -22.4226   -8.0259   21.3575 C   0  0  0  0  0  0
  -21.9861   -9.0224   20.4682 C   0  0  0  0  0  0
  -22.7195  -10.2091   20.3074 C   0  0  0  0  0  0
  -21.6824   -6.0723   22.5278 C   0  0  0  0  0  0
  -21.3986   -6.5636   23.8217 C   0  0  0  0  0  0
  -21.3659   -5.6785   24.9187 C   0  0  0  0  0  0
  -21.6057   -4.3053   24.7222 C   0  0  0  0  0  0
  -21.8829   -3.8141   23.4343 C   0  0  0  0  0  0
  -21.9200   -4.6957   22.3408 C   0  0  0  0  0  0
  -22.7941  -13.5229   21.1777 C   0  0  0  0  0  0
  -22.1677   -4.2119   21.0997 F   0  0  0  0  0  0
  -21.5623   -3.4571   25.7757 F   0  0  0  0  0  0
  -30.0355  -13.4165   20.4103 N   0  0  0  0  0  0
  -26.3125  -12.9237   20.3316 N   0  0  0  0  0  0
  -25.9372  -11.6430   20.5720 N   0  0  0  0  0  0
  -22.0538  -12.8290   22.0350 N   0  0  0  0  0  0
  -25.4262  -15.1817   20.4080 N   0  0  0  0  0  0
  -31.8072  -14.7907   20.0723 O   0  0  0  0  0  0
  -21.6626   -6.8835   21.4220 O   0  0  0  0  0  0
  -22.3683  -14.5532   20.6582 O   0  0  0  0  0  0
  -24.6408  -31.8393   23.1790 C   0  0  0  0  0  0
  -25.9160  -32.4669   23.8211 C   0  0  1  0  0  0
  -27.2073  -27.1325   20.1677 C   0  0  0  0  0  0
  -25.5913  -33.8490   24.2146 N   0  0  0  0  0  0
  -23.4487  -30.4538   21.5106 C   0  0  2  0  0  0
  -24.8955  -28.8875   20.0806 C   0  0  0  0  0  0
  -22.7544  -29.4502   22.4655 C   0  0  0  0  0  0
  -18.0219  -28.1919   22.7720 C   0  0  0  0  0  0
  -24.1501  -36.7223   23.2626 C   0  0  0  0  0  0
  -25.9982  -30.7051   21.3858 C   0  0  0  0  0  0
  -26.0637  -29.3207   20.7200 C   0  0  0  0  0  0
  -27.2200  -28.4604   20.7456 C   0  0  0  0  0  0
  -26.0141  -26.7757   19.5117 C   0  0  0  0  0  0
  -24.8910  -27.6268   19.4546 C   0  0  0  0  0  0
  -23.6751  -29.7839   20.1243 C   0  0  0  0  0  0
  -25.4144  -36.3020   24.0308 C   0  0  1  0  0  0
  -20.5723  -28.4218   23.1317 C   0  0  2  0  0  0
  -20.6106  -26.9502   22.6740 C   0  0  0  0  0  0
  -19.6565  -26.7423   21.5108 C   0  0  0  0  0  0
  -18.2191  -26.8678   22.0471 C   0  0  0  0  0  0
  -19.1365  -28.9372   23.2624 C   0  0  0  0  0  0
  -18.9082  -30.1743   23.8998 C   0  0  0  0  0  0
  -17.5948  -30.6505   24.1021 C   0  0  0  0  0  0
  -25.9074  -34.9388   23.5005 C   0  0  0  0  0  0
  -16.4951  -29.9008   23.6395 C   0  0  0  0  0  0
  -16.7066  -28.6895   22.9665 C   0  0  0  0  0  0
  -26.4540  -31.6583   25.0689 C   0  0  0  0  0  0
  -25.3757  -31.3730   26.1386 C   0  0  0  0  0  0
  -27.0371  -30.2978   24.6331 C   0  0  0  0  0  0
  -27.6074  -32.4343   25.7478 C   0  0  0  0  0  0
  -27.5596  -37.1772   24.8471 C   0  0  0  0  0  0
  -21.4280  -29.2717   22.3005 N   0  0  0  0  0  0
  -26.4310  -37.3756   23.9393 N   0  0  0  0  0  0
  -24.7142  -31.0260   22.0782 N   0  0  0  0  0  0
  -23.4126  -28.8488   23.3137 O   0  0  0  0  0  0
  -28.2616  -26.1691   20.3300 O   0  0  0  0  0  0
  -26.5676  -34.8899   22.4622 O   0  0  0  0  0  0
  -23.5546  -32.1236   23.7011 O   0  0  0  0  0  0
  -29.1950  -16.7644   18.9071 C   0  0  0  0  0  0
  -29.4915  -18.2882   20.7791 C   0  0  0  0  0  0
  -28.5627  -17.7991   18.1937 C   0  0  0  0  0  0
  -28.2699  -19.0559   18.8148 C   0  0  0  0  0  0
  -28.9063  -19.4153   20.0504 C   0  0  0  0  0  0
  -29.5796  -16.9322   20.2416 C   0  0  0  0  0  0
  -28.2215  -23.2783   20.2579 C   0  0  0  0  0  0
  -29.0184  -22.1095   20.1207 C   0  0  0  0  0  0
  -26.8842  -22.9213   20.7706 C   0  0  0  0  0  0
  -26.8123  -21.8780   21.8945 C   0  0  0  0  0  0
  -27.5263  -20.5714   21.5076 C   0  0  0  0  0  0
  -28.1796  -17.5034   16.7613 C   0  0  0  0  0  0
  -30.3974  -22.1279   19.4336 C   0  0  0  0  0  0
  -25.7339  -19.2436   18.4095 C   0  0  0  0  0  0
  -27.1244  -19.8996   18.2180 C   0  0  0  0  0  0
  -28.3722  -24.7935   19.6192 C   0  0  0  0  0  0
  -28.6790  -20.7562   20.6133 N   0  0  0  0  0  0
  -29.9274  -15.7006   20.9753 N   0  0  0  0  0  0
  -25.8262  -23.2778   20.2465 O   0  0  0  0  0  0
  -31.4857  -12.5246   19.0847 H   0  0  0  0  0  0
  -30.4427  -11.3976   19.8914 H   0  0  0  0  0  0
  -29.7770  -11.6795   17.4970 H   0  0  0  0  0  0
  -29.6500  -13.4000   17.6834 H   0  0  0  0  0  0
  -27.8762  -11.2540   18.8877 H   0  0  0  0  0  0
  -27.3777  -12.5097   17.7871 H   0  0  0  0  0  0
  -27.6773  -14.2223   19.4932 H   0  0  0  0  0  0
  -28.7454  -12.0442   21.3517 H   0  0  0  0  0  0
  -28.4691  -13.6907   21.8293 H   0  0  0  0  0  0
  -25.2704   -9.5680   22.4805 H   0  0  0  0  0  0
  -23.9961   -7.4628   22.7492 H   0  0  0  0  0  0
  -21.0774   -8.8728   19.9027 H   0  0  0  0  0  0
  -22.3589  -10.9628   19.6244 H   0  0  0  0  0  0
  -21.1960   -7.6148   23.9679 H   0  0  0  0  0  0
  -21.1466   -6.0557   25.9078 H   0  0  0  0  0  0
  -22.0598   -2.7601   23.2874 H   0  0  0  0  0  0
  -22.4059  -12.0004   22.4902 H   0  0  0  0  0  0
  -21.1152  -13.1364   22.2431 H   0  0  0  0  0  0
  -24.6260  -15.7976   20.5149 H   0  0  0  0  0  0
  -26.2635  -15.6430   20.0709 H   0  0  0  0  0  0
  -26.7155  -32.5371   23.0861 H   0  0  0  0  0  0
  -25.0072  -33.9677   25.0303 H   0  0  0  0  0  0
  -22.7601  -31.2842   21.3555 H   0  0  0  0  0  0
  -23.3786  -35.9535   23.3284 H   0  0  0  0  0  0
  -24.3539  -36.8885   22.2034 H   0  0  0  0  0  0
  -23.7224  -37.6404   23.6676 H   0  0  0  0  0  0
  -26.1696  -31.4688   20.6237 H   0  0  0  0  0  0
  -26.8748  -30.7505   22.0301 H   0  0  0  0  0  0
  -28.1001  -28.7719   21.2850 H   0  0  0  0  0  0
  -25.8987  -25.7821   19.1128 H   0  0  0  0  0  0
  -23.9951  -27.2746   18.9522 H   0  0  0  0  0  0
  -23.8185  -30.5518   19.3555 H   0  0  0  0  0  0
  -22.7865  -29.2305   19.8151 H   0  0  0  0  0  0
  -25.1331  -36.1838   25.0815 H   0  0  0  0  0  0
  -21.0120  -28.4619   24.1344 H   0  0  0  0  0  0
  -21.6264  -26.6368   22.4597 H   0  0  0  0  0  0
  -20.2707  -26.3186   23.5037 H   0  0  0  0  0  0
  -19.8162  -25.7897   21.0202 H   0  0  0  0  0  0
  -19.8734  -27.5098   20.7602 H   0  0  0  0  0  0
  -17.4973  -26.7767   21.2303 H   0  0  0  0  0  0
  -18.0087  -26.0551   22.7462 H   0  0  0  0  0  0
  -19.7575  -30.7443   24.2597 H   0  0  0  0  0  0
  -17.4228  -31.5860   24.6144 H   0  0  0  0  0  0
  -15.4832  -30.2406   23.8111 H   0  0  0  0  0  0
  -15.8536  -28.1291   22.5843 H   0  0  0  0  0  0
  -24.5995  -30.7006   25.7692 H   0  0  0  0  0  0
  -24.8871  -32.2867   26.4793 H   0  0  0  0  0  0
  -25.8111  -30.8945   27.0164 H   0  0  0  0  0  0
  -26.2930  -29.6721   24.1372 H   0  0  0  0  0  0
  -27.3886  -29.7320   25.4964 H   0  0  0  0  0  0
  -27.8923  -30.4131   23.9659 H   0  0  0  0  0  0
  -27.2675  -33.3651   26.2027 H   0  0  0  0  0  0
  -28.3942  -32.6894   25.0357 H   0  0  0  0  0  0
  -28.0652  -31.8477   26.5457 H   0  0  0  0  0  0
  -28.2614  -38.0072   24.7560 H   0  0  0  0  0  0
  -28.1100  -36.2613   24.6268 H   0  0  0  0  0  0
  -27.2292  -37.1364   25.8867 H   0  0  0  0  0  0
  -21.0105  -29.6963   21.4791 H   0  0  0  0  0  0
  -26.0163  -38.2825   24.1416 H   0  0  0  0  0  0
  -29.2937  -15.7944   18.4411 H   0  0  0  0  0  0
  -29.8579  -18.4378   21.7828 H   0  0  0  0  0  0
  -25.7792  -21.6775   22.1865 H   0  0  0  0  0  0
  -27.3040  -22.2860   22.7744 H   0  0  0  0  0  0
  -26.7910  -19.9146   21.0229 H   0  0  0  0  0  0
  -27.8578  -20.0445   22.4076 H   0  0  0  0  0  0
  -28.7588  -16.6637   16.3679 H   0  0  0  0  0  0
  -28.4573  -18.3459   16.1260 H   0  0  0  0  0  0
  -27.1175  -17.2644   16.6487 H   0  0  0  0  0  0
  -30.6276  -23.0803   18.9520 H   0  0  0  0  0  0
  -30.4896  -21.3427   18.6725 H   0  0  0  0  0  0
  -31.1785  -21.9676   20.1780 H   0  0  0  0  0  0
  -25.7436  -18.1809   18.1799 H   0  0  0  0  0  0
  -25.0026  -19.6818   17.7238 H   0  0  0  0  0  0
  -25.3032  -19.3692   19.4138 H   0  0  0  0  0  0
  -27.2823  -20.0529   17.1514 H   0  0  0  0  0  0
  -27.0763  -20.9063   18.6305 H   0  0  0  0  0  0
  -27.7769  -24.7994   18.7072 H   0  0  0  0  0  0
  -29.3915  -24.8289   19.2596 H   0  0  0  0  0  0
  -29.1803  -15.3658   21.5605 H   0  0  0  0  0  0
  1 25  1  0  0  0
  1 30  2  0  0  0
  1 88  1  0  0  0
  2  3  1  0  0  0
  2 25  1  0  0  0
  2 90  1  0  0  0
  2 91  1  0  0  0
  3  4  1  0  0  0
  3 92  1  0  0  0
  3 93  1  0  0  0
  4  5  1  0  0  0
  4 94  1  0  0  0
  4 95  1  0  0  0
  5  6  1  0  0  0
  5 26  1  0  0  0
  5 96  1  0  0  0
  6 25  1  0  0  0
  6 97  1  0  0  0
  6 98  1  0  0  0
  7  8  2  0  0  0
  7 26  1  0  0  0
  7 29  1  0  0  0
  8  9  1  0  0  0
  8 22  1  0  0  0
  9 10  1  0  0  0
  9 27  2  0  0  0
 10 11  2  0  0  0
 10 15  1  0  0  0
 11 12  1  0  0  0
 11 99  1  0  0  0
 12 13  2  0  0  0
 12100  1  0  0  0
 13 14  1  0  0  0
 13 31  1  0  0  0
 14 15  2  0  0  0
 14101  1  0  0  0
 15102  1  0  0  0
 16 17  2  0  0  0
 16 21  1  0  0  0
 16 31  1  0  0  0
 17 18  1  0  0  0
 17103  1  0  0  0
 18 19  2  0  0  0
 18104  1  0  0  0
 19 20  1  0  0  0
 19 24  1  0  0  0
 20 21  2  0  0  0
 20105  1  0  0  0
 21 23  1  0  0  0
 22 28  1  0  0  0
 22 32  2  0  0  0
 26 27  1  0  0  0
 28106  1  0  0  0
 28107  1  0  0  0
 29108  1  0  0  0
 29109  1  0  0  0
 33 34  1  0  0  0
 33 66  1  0  0  0
 33 70  2  0  0  0
 34 36  1  0  0  0
 34 59  1  0  0  0
 34110  1  0  0  0
 35 44  2  0  0  0
 35 45  1  0  0  0
 35 68  1  0  0  0
 36 56  1  0  0  0
 36111  1  0  0  0
 37 39  1  0  0  0
 37 47  1  0  0  0
 37 66  1  0  0  0
 37112  1  0  0  0
 38 43  2  0  0  0
 38 46  1  0  0  0
 38 47  1  0  0  0
 39 64  1  0  0  0
 39 67  2  0  0  0
 40 52  1  0  0  0
 40 53  2  0  0  0
 40 58  1  0  0  0
 41113  1  0  0  0
 41114  1  0  0  0
 41115  1  0  0  0
 41 48  1  0  0  0
 42 43  1  0  0  0
 42 66  1  0  0  0
 42116  1  0  0  0
 42117  1  0  0  0
 43 44  1  0  0  0
 44118  1  0  0  0
 45 46  2  0  0  0
 45119  1  0  0  0
 46120  1  0  0  0
 47121  1  0  0  0
 47122  1  0  0  0
 48 56  1  0  0  0
 48 65  1  0  0  0
 48123  1  0  0  0
 49 50  1  0  0  0
 49 53  1  0  0  0
 49 64  1  0  0  0
 49124  1  0  0  0
 50 51  1  0  0  0
 50125  1  0  0  0
 50126  1  0  0  0
 51 52  1  0  0  0
 51127  1  0  0  0
 51128  1  0  0  0
 52129  1  0  0  0
 52130  1  0  0  0
 53 54  1  0  0  0
 54 55  2  0  0  0
 54131  1  0  0  0
 55 57  1  0  0  0
 55132  1  0  0  0
 56 69  2  0  0  0
 57 58  2  0  0  0
 57133  1  0  0  0
 58134  1  0  0  0
 59 60  1  0  0  0
 59 61  1  0  0  0
 59 62  1  0  0  0
 60135  1  0  0  0
 60136  1  0  0  0
 60137  1  0  0  0
 61138  1  0  0  0
 61139  1  0  0  0
 61140  1  0  0  0
 62141  1  0  0  0
 62142  1  0  0  0
 62143  1  0  0  0
 63 65  1  0  0  0
 63144  1  0  0  0
 63145  1  0  0  0
 63146  1  0  0  0
 64147  1  0  0  0
 65148  1  0  0  0
 68 86  1  0  0  0
 71 73  2  0  0  0
 71 76  1  0  0  0
 71149  1  0  0  0
 72 75  1  0  0  0
 72 76  2  0  0  0
 72150  1  0  0  0
 73 74  1  0  0  0
 73 82  1  0  0  0
 74 75  2  0  0  0
 74 85  1  0  0  0
 75 87  1  0  0  0
 76 88  1  0  0  0
 77 78  2  0  0  0
 77 79  1  0  0  0
 77 86  1  0  0  0
 78 83  1  0  0  0
 78 87  1  0  0  0
 79 80  1  0  0  0
 79 89  2  0  0  0
 80 81  1  0  0  0
 80151  1  0  0  0
 80152  1  0  0  0
 81 87  1  0  0  0
 81153  1  0  0  0
 81154  1  0  0  0
 82155  1  0  0  0
 82156  1  0  0  0
 82157  1  0  0  0
 83158  1  0  0  0
 83159  1  0  0  0
 83160  1  0  0  0
 84 85  1  0  0  0
 84161  1  0  0  0
 84162  1  0  0  0
 84163  1  0  0  0
 85164  1  0  0  0
 85165  1  0  0  0
 86166  1  0  0  0
 86167  1  0  0  0
 88168  1  0  0  0
M  ISO  4   1 100  68 101  86 101  88 100
M  END
> <chiral flag>
0

> <version>
0

> <s_m_source_file>
/data/baiqing/PycharmProjects/Reinvent-master-3.2/result/LINK_invent/BTK/process_docking_weight1_custom_product_contain_oxygen_bond_distance_aromatic_linkinvent_7_9_3/rearranged_h_0109.sdf

> <i_m_source_file_index>
33

> <r_mmod_Potential_Energy-OPLS-2005>
442.038360595703

> <r_mmod_Stretch_Energy-OPLS-2005>
191.855606079102

> <r_mmod_Bend_Energy-OPLS-2005>
216.129165649414

> <r_mmod_Torsional_Energy-OPLS-2005>
315.655364990234

> <r_mmod_Improper_Torsional_Energy-OPLS-2005>
14.6517696380615

> <r_mmod_Van_der_Waal_Energy-OPLS-2005>
143.728042602539

> <r_mmod_Electrostatic_Energy-OPLS-2005>
-350.449310302734

> <r_mmod_Solvation_Energy-OPLS-2005>
-214.191131591797

> <b_mmod_Minimization_Converged-OPLS-2005>
0

> <r_mmod_RMS_Derivative-OPLS-2005>
19.4695701599121

$$$$
33
                    3D
 Structure written by MMmdl.
167176  0  0  1  0            999 V2000
  -30.6177  -14.6570   20.4861 C   0  0  0  0  0  0
  -30.4447  -12.4028   19.4476 C   0  0  0  0  0  0
  -29.5089  -12.5042   18.2218 C   0  0  0  0  0  0
  -28.0331  -12.3387   18.6373 C   0  0  0  0  0  0
  -27.6529  -13.2163   19.8587 C   0  0  2  0  0  0
  -28.7010  -13.0853   20.9873 C   0  0  0  0  0  0
  -25.2579  -13.8165   20.5715 C   0  0  0  0  0  0
  -24.1837  -13.0432   20.9195 C   0  0  0  0  0  0
  -24.6396  -11.6903   20.8725 C   0  0  0  0  0  0
  -23.9062  -10.4289   21.0397 C   0  0  0  0  0  0
  -24.3614   -9.4207   21.9178 C   0  0  0  0  0  0
  -23.6290   -8.2241   22.0751 C   0  0  0  0  0  0
  -22.4273   -8.0276   21.3542 C   0  0  0  0  0  0
  -21.9905   -9.0252   20.4648 C   0  0  0  0  0  0
  -22.7231  -10.2131   20.3053 C   0  0  0  0  0  0
  -21.6852   -6.0730   22.5277 C   0  0  0  0  0  0
  -21.4013   -6.5638   23.8211 C   0  0  0  0  0  0
  -21.3659   -5.6790   24.9174 C   0  0  0  0  0  0
  -21.6042   -4.3054   24.7225 C   0  0  0  0  0  0
  -21.8822   -3.8146   23.4348 C   0  0  0  0  0  0
  -21.9196   -4.6959   22.3401 C   0  0  0  0  0  0
  -22.7861  -13.5233   21.1854 C   0  0  0  0  0  0
  -22.1664   -4.2146   21.0981 F   0  0  0  0  0  0
  -21.5630   -3.4536   25.7737 F   0  0  0  0  0  0
  -30.0138  -13.4283   20.4165 N   0  0  0  0  0  0
  -26.2998  -12.9346   20.3307 N   0  0  0  0  0  0
  -25.9327  -11.6501   20.5742 N   0  0  0  0  0  0
  -22.0492  -12.8231   22.0405 N   0  0  0  0  0  0
  -25.4304  -15.1891   20.4219 N   0  0  0  0  0  0
  -31.7979  -14.8155   20.1590 O   0  0  0  0  0  0
  -21.6637   -6.8871   21.4239 O   0  0  0  0  0  0
  -22.3548  -14.5543   20.6703 O   0  0  0  0  0  0
  -24.6278  -31.8595   23.2046 C   0  0  0  0  0  0
  -25.9127  -32.4772   23.8366 C   0  0  1  0  0  0
  -27.2222  -27.3078   20.1096 C   0  0  0  0  0  0
  -25.5947  -33.8574   24.2289 N   0  0  0  0  0  0
  -23.4222  -30.4862   21.5475 C   0  0  2  0  0  0
  -24.8680  -28.9457   20.1135 C   0  0  0  0  0  0
  -22.7490  -29.4624   22.4931 C   0  0  0  0  0  0
  -18.0289  -28.1386   22.8480 C   0  0  0  0  0  0
  -24.1497  -36.7291   23.2635 C   0  0  0  0  0  0
  -25.9673  -30.7872   21.3789 C   0  0  0  0  0  0
  -26.0409  -29.4158   20.7167 C   0  0  0  0  0  0
  -27.2221  -28.6105   20.7035 C   0  0  0  0  0  0
  -26.0166  -26.9001   19.4854 C   0  0  0  0  0  0
  -24.8586  -27.6932   19.4896 C   0  0  0  0  0  0
  -23.6382  -29.8266   20.1621 C   0  0  0  0  0  0
  -25.4116  -36.3079   24.0329 C   0  0  1  0  0  0
  -20.5891  -28.3689   23.1275 C   0  0  2  0  0  0
  -20.6782  -26.9411   22.5403 C   0  0  0  0  0  0
  -19.5763  -26.6383   21.5204 C   0  0  0  0  0  0
  -18.1940  -26.7934   22.1611 C   0  0  0  0  0  0
  -19.1542  -28.8856   23.2877 C   0  0  0  0  0  0
  -18.9457  -30.1458   23.8892 C   0  0  0  0  0  0
  -17.6455  -30.6585   24.0556 C   0  0  0  0  0  0
  -25.9048  -34.9447   23.5102 C   0  0  0  0  0  0
  -16.5345  -29.9073   23.6336 C   0  0  0  0  0  0
  -16.7277  -28.6495   23.0354 C   0  0  0  0  0  0
  -26.4510  -31.6583   25.0736 C   0  0  0  0  0  0
  -25.3744  -31.3720   26.1459 C   0  0  0  0  0  0
  -27.0333  -30.2998   24.6199 C   0  0  0  0  0  0
  -27.6080  -32.4307   25.7499 C   0  0  0  0  0  0
  -27.5586  -37.1797   24.8455 C   0  0  0  0  0  0
  -21.4200  -29.3044   22.3674 N   0  0  0  0  0  0
  -26.4290  -37.3774   23.9409 N   0  0  0  0  0  0
  -24.6912  -31.0603   22.1002 N   0  0  0  0  0  0
  -23.4209  -28.8158   23.3003 O   0  0  0  0  0  0
  -28.3334  -26.4394   20.1485 O   0  0  0  0  0  0
  -26.5602  -34.8912   22.4659 O   0  0  0  0  0  0
  -23.5443  -32.1383   23.7378 O   0  0  0  0  0  0
  -30.9807  -17.9109   21.1354 C   0  0  0  0  0  0
  -28.9213  -19.3299   19.8985 C   0  0  0  0  0  0
  -31.0200  -19.3418   21.0967 C   0  0  0  0  0  0
  -29.9756  -20.1002   20.4591 C   0  0  0  0  0  0
  -29.9168  -17.1581   20.5811 C   0  0  0  0  0  0
  -28.8700  -17.8969   19.9663 C   0  0  0  0  0  0
  -29.1820  -23.8818   20.0385 C   0  0  0  0  0  0
  -29.0548  -22.5629   20.4608 C   0  0  0  0  0  0
  -30.4438  -24.2713   19.3650 C   0  0  0  0  0  0
  -32.1722  -21.1495   22.4420 C   0  0  0  0  0  0
  -32.1530  -19.9550   21.8255 C   0  0  0  0  0  0
  -31.6156  -23.2974   19.4540 C   0  0  0  0  0  0
  -31.1396  -21.8426   19.3301 C   0  0  0  0  0  0
  -27.8071  -22.1136   21.2113 C   0  0  0  0  0  0
  -26.8385  -17.8282   18.6800 C   0  0  0  0  0  0
  -28.0475  -24.9778   20.0748 C   0  0  0  0  0  0
  -30.0389  -21.5347   20.2518 N   0  0  0  0  0  0
  -29.7732  -15.7084   20.7207 N   0  0  0  0  0  0
  -30.6037  -25.3293   18.7479 O   0  0  0  0  0  0
  -27.8308  -17.1512   19.4438 O   0  0  0  0  0  0
  -31.4842  -12.5382   19.1429 H   0  0  0  0  0  0
  -30.3900  -11.4095   19.8959 H   0  0  0  0  0  0
  -29.7748  -11.7482   17.4818 H   0  0  0  0  0  0
  -29.6446  -13.4713   17.7347 H   0  0  0  0  0  0
  -27.8764  -11.2863   18.8770 H   0  0  0  0  0  0
  -27.3749  -12.5582   17.7956 H   0  0  0  0  0  0
  -27.6646  -14.2473   19.5051 H   0  0  0  0  0  0
  -28.7173  -12.0689   21.3829 H   0  0  0  0  0  0
  -28.4492  -13.7288   21.8317 H   0  0  0  0  0  0
  -25.2756   -9.5687   22.4751 H   0  0  0  0  0  0
  -24.0000   -7.4629   22.7471 H   0  0  0  0  0  0
  -21.0831   -8.8773   19.8956 H   0  0  0  0  0  0
  -22.3686  -10.9669   19.6164 H   0  0  0  0  0  0
  -21.2001   -7.6146   23.9713 H   0  0  0  0  0  0
  -21.1478   -6.0521   25.9078 H   0  0  0  0  0  0
  -22.0602   -2.7610   23.2845 H   0  0  0  0  0  0
  -22.4098  -11.9891   22.4799 H   0  0  0  0  0  0
  -21.1112  -13.1272   22.2611 H   0  0  0  0  0  0
  -24.6665  -15.8414   20.5597 H   0  0  0  0  0  0
  -26.2873  -15.6401   20.1241 H   0  0  0  0  0  0
  -26.7196  -32.5436   23.1116 H   0  0  0  0  0  0
  -25.0138  -33.9712   25.0466 H   0  0  0  0  0  0
  -22.7168  -31.3074   21.4059 H   0  0  0  0  0  0
  -23.3758  -35.9623   23.3275 H   0  0  0  0  0  0
  -24.3596  -36.8925   22.2052 H   0  0  0  0  0  0
  -23.7248  -37.6489   23.6663 H   0  0  0  0  0  0
  -26.1029  -31.5534   20.6141 H   0  0  0  0  0  0
  -26.8458  -30.8318   22.0113 H   0  0  0  0  0  0
  -28.1216  -28.9684   21.1845 H   0  0  0  0  0  0
  -25.9156  -25.9518   18.9847 H   0  0  0  0  0  0
  -23.9598  -27.3275   19.0121 H   0  0  0  0  0  0
  -23.7613  -30.6037   19.4067 H   0  0  0  0  0  0
  -22.7589  -29.2569   19.8565 H   0  0  0  0  0  0
  -25.1304  -36.1923   25.0822 H   0  0  0  0  0  0
  -20.9984  -28.3254   24.1395 H   0  0  0  0  0  0
  -20.5683  -26.2296   23.3597 H   0  0  0  0  0  0
  -21.6653  -26.7442   22.1200 H   0  0  0  0  0  0
  -19.6923  -25.6288   21.1246 H   0  0  0  0  0  0
  -19.6718  -27.3180   20.6721 H   0  0  0  0  0  0
  -17.4220  -26.6684   21.4002 H   0  0  0  0  0  0
  -18.0337  -26.0069   22.9000 H   0  0  0  0  0  0
  -19.7929  -30.7282   24.2260 H   0  0  0  0  0  0
  -17.5003  -31.6263   24.5158 H   0  0  0  0  0  0
  -15.5345  -30.2966   23.7673 H   0  0  0  0  0  0
  -15.8680  -28.0809   22.7074 H   0  0  0  0  0  0
  -24.5950  -30.7030   25.7793 H   0  0  0  0  0  0
  -24.8894  -32.2877   26.4853 H   0  0  0  0  0  0
  -25.8075  -30.8936   27.0253 H   0  0  0  0  0  0
  -26.2891  -29.6755   24.1238 H   0  0  0  0  0  0
  -27.4019  -29.7263   25.4714 H   0  0  0  0  0  0
  -27.8788  -30.4253   23.9429 H   0  0  0  0  0  0
  -27.2703  -33.3606   26.2087 H   0  0  0  0  0  0
  -28.3892  -32.6854   25.0325 H   0  0  0  0  0  0
  -28.0754  -31.8420   26.5403 H   0  0  0  0  0  0
  -28.2591  -38.0107   24.7521 H   0  0  0  0  0  0
  -28.1099  -36.2637   24.6259 H   0  0  0  0  0  0
  -27.2313  -37.1428   25.8860 H   0  0  0  0  0  0
  -20.9376  -29.8773   21.6889 H   0  0  0  0  0  0
  -26.0169  -38.2851   24.1408 H   0  0  0  0  0  0
  -31.7715  -17.3787   21.6438 H   0  0  0  0  0  0
  -28.1416  -19.8797   19.3961 H   0  0  0  0  0  0
  -33.0668  -21.5033   22.9346 H   0  0  0  0  0  0
  -31.3059  -21.7946   22.4738 H   0  0  0  0  0  0
  -33.0641  -19.3731   21.8457 H   0  0  0  0  0  0
  -32.1145  -23.4468   20.4112 H   0  0  0  0  0  0
  -32.3440  -23.5223   18.6748 H   0  0  0  0  0  0
  -31.9940  -21.1806   19.4695 H   0  0  0  0  0  0
  -30.7905  -21.6642   18.3121 H   0  0  0  0  0  0
  -26.9435  -22.0962   20.5464 H   0  0  0  0  0  0
  -27.5940  -22.8028   22.0291 H   0  0  0  0  0  0
  -27.9034  -21.1319   21.6722 H   0  0  0  0  0  0
  -26.1481  -17.0990   18.2552 H   0  0  0  0  0  0
  -27.2791  -18.3805   17.8483 H   0  0  0  0  0  0
  -26.2565  -18.5115   19.3001 H   0  0  0  0  0  0
  -27.3365  -24.7374   20.8642 H   0  0  0  0  0  0
  -27.5505  -24.7718   19.1295 H   0  0  0  0  0  0
  -28.8148  -15.4086   20.8103 H   0  0  0  0  0  0
  1 25  1  0  0  0
  1 30  2  0  0  0
  1 88  1  0  0  0
  2  3  1  0  0  0
  2 25  1  0  0  0
  2 91  1  0  0  0
  2 92  1  0  0  0
  3  4  1  0  0  0
  3 93  1  0  0  0
  3 94  1  0  0  0
  4  5  1  0  0  0
  4 95  1  0  0  0
  4 96  1  0  0  0
  5  6  1  0  0  0
  5 26  1  0  0  0
  5 97  1  0  0  0
  6 25  1  0  0  0
  6 98  1  0  0  0
  6 99  1  0  0  0
  7  8  2  0  0  0
  7 26  1  0  0  0
  7 29  1  0  0  0
  8  9  1  0  0  0
  8 22  1  0  0  0
  9 10  1  0  0  0
  9 27  2  0  0  0
 10 11  2  0  0  0
 10 15  1  0  0  0
 11 12  1  0  0  0
 11100  1  0  0  0
 12 13  2  0  0  0
 12101  1  0  0  0
 13 14  1  0  0  0
 13 31  1  0  0  0
 14 15  2  0  0  0
 14102  1  0  0  0
 15103  1  0  0  0
 16 17  2  0  0  0
 16 21  1  0  0  0
 16 31  1  0  0  0
 17 18  1  0  0  0
 17104  1  0  0  0
 18 19  2  0  0  0
 18105  1  0  0  0
 19 20  1  0  0  0
 19 24  1  0  0  0
 20 21  2  0  0  0
 20106  1  0  0  0
 21 23  1  0  0  0
 22 28  1  0  0  0
 22 32  2  0  0  0
 26 27  1  0  0  0
 28107  1  0  0  0
 28108  1  0  0  0
 29109  1  0  0  0
 29110  1  0  0  0
 33 34  1  0  0  0
 33 66  1  0  0  0
 33 70  2  0  0  0
 34 36  1  0  0  0
 34 59  1  0  0  0
 34111  1  0  0  0
 35 44  2  0  0  0
 35 45  1  0  0  0
 35 68  1  0  0  0
 36 56  1  0  0  0
 36112  1  0  0  0
 37 39  1  0  0  0
 37 47  1  0  0  0
 37 66  1  0  0  0
 37113  1  0  0  0
 38 43  2  0  0  0
 38 46  1  0  0  0
 38 47  1  0  0  0
 39 64  1  0  0  0
 39 67  2  0  0  0
 40 52  1  0  0  0
 40 53  2  0  0  0
 40 58  1  0  0  0
 41114  1  0  0  0
 41115  1  0  0  0
 41116  1  0  0  0
 41 48  1  0  0  0
 42 43  1  0  0  0
 42 66  1  0  0  0
 42117  1  0  0  0
 42118  1  0  0  0
 43 44  1  0  0  0
 44119  1  0  0  0
 45 46  2  0  0  0
 45120  1  0  0  0
 46121  1  0  0  0
 47122  1  0  0  0
 47123  1  0  0  0
 48 56  1  0  0  0
 48 65  1  0  0  0
 48124  1  0  0  0
 49 50  1  0  0  0
 49 53  1  0  0  0
 49 64  1  0  0  0
 49125  1  0  0  0
 50 51  1  0  0  0
 50126  1  0  0  0
 50127  1  0  0  0
 51 52  1  0  0  0
 51128  1  0  0  0
 51129  1  0  0  0
 52130  1  0  0  0
 52131  1  0  0  0
 53 54  1  0  0  0
 54 55  2  0  0  0
 54132  1  0  0  0
 55 57  1  0  0  0
 55133  1  0  0  0
 56 69  2  0  0  0
 57 58  2  0  0  0
 57134  1  0  0  0
 58135  1  0  0  0
 59 60  1  0  0  0
 59 61  1  0  0  0
 59 62  1  0  0  0
 60136  1  0  0  0
 60137  1  0  0  0
 60138  1  0  0  0
 61139  1  0  0  0
 61140  1  0  0  0
 61141  1  0  0  0
 62142  1  0  0  0
 62143  1  0  0  0
 62144  1  0  0  0
 63 65  1  0  0  0
 63145  1  0  0  0
 63146  1  0  0  0
 63147  1  0  0  0
 64148  1  0  0  0
 65149  1  0  0  0
 68 86  1  0  0  0
 71 73  2  0  0  0
 71 75  1  0  0  0
 71150  1  0  0  0
 72 74  2  0  0  0
 72 76  1  0  0  0
 72151  1  0  0  0
 73 74  1  0  0  0
 73 81  1  0  0  0
 74 87  1  0  0  0
 75 76  2  0  0  0
 75 88  1  0  0  0
 76 90  1  0  0  0
 77 78  2  0  0  0
 77 79  1  0  0  0
 77 86  1  0  0  0
 78 84  1  0  0  0
 78 87  1  0  0  0
 79 82  1  0  0  0
 79 89  2  0  0  0
 80 81  2  0  0  0
 80152  1  0  0  0
 80153  1  0  0  0
 81154  1  0  0  0
 82 83  1  0  0  0
 82155  1  0  0  0
 82156  1  0  0  0
 83 87  1  0  0  0
 83157  1  0  0  0
 83158  1  0  0  0
 84159  1  0  0  0
 84160  1  0  0  0
 84161  1  0  0  0
 85 90  1  0  0  0
 85162  1  0  0  0
 85163  1  0  0  0
 85164  1  0  0  0
 86165  1  0  0  0
 86166  1  0  0  0
 88167  1  0  0  0
M  ISO  4   1 100  68 101  86 101  88 100
M  END
> <chiral flag>
0

> <version>
0

> <s_m_source_file>
/data/baiqing/PycharmProjects/Reinvent-master-3.2/result/LINK_invent/BTK/process_docking_weight1_custom_product_contain_oxygen_bond_distance_aromatic_linkinvent_7_9_3/rearranged_h_0109.sdf

> <i_m_source_file_index>
34

> <r_mmod_Potential_Energy-OPLS-2005>
106.433959960938

> <r_mmod_Stretch_Energy-OPLS-2005>
93.8427658081055

> <r_mmod_Bend_Energy-OPLS-2005>
153.424560546875

> <r_mmod_Torsional_Energy-OPLS-2005>
238.540451049805

> <r_mmod_Improper_Torsional_Energy-OPLS-2005>
7.71401214599609

> <r_mmod_Van_der_Waal_Energy-OPLS-2005>
169.970642089844

> <r_mmod_Electrostatic_Energy-OPLS-2005>
-393.821624755859

> <r_mmod_Solvation_Energy-OPLS-2005>
-218.688110351562

> <b_mmod_Minimization_Converged-OPLS-2005>
0

> <r_mmod_RMS_Derivative-OPLS-2005>
1.28090667724609

$$$$
34
                    3D
 Structure written by MMmdl.
152160  0  0  1  0            999 V2000
  -30.5952  -14.7731   20.4756 C   0  0  0  0  0  0
  -30.4187  -12.4836   19.4573 C   0  0  0  0  0  0
  -29.5061  -12.5753   18.2154 C   0  0  0  0  0  0
  -28.0240  -12.4090   18.6089 C   0  0  0  0  0  0
  -27.6341  -13.2558   19.8510 C   0  0  2  0  0  0
  -28.6790  -13.1747   20.9817 C   0  0  0  0  0  0
  -25.2459  -13.8203   20.5748 C   0  0  0  0  0  0
  -24.1790  -13.0419   20.9200 C   0  0  0  0  0  0
  -24.6410  -11.6905   20.8713 C   0  0  0  0  0  0
  -23.9085  -10.4281   21.0376 C   0  0  0  0  0  0
  -24.3641   -9.4216   21.9163 C   0  0  0  0  0  0
  -23.6304   -8.2260   22.0755 C   0  0  0  0  0  0
  -22.4277   -8.0294   21.3555 C   0  0  0  0  0  0
  -21.9918   -9.0266   20.4640 C   0  0  0  0  0  0
  -22.7258  -10.2121   20.3031 C   0  0  0  0  0  0
  -21.6858   -6.0735   22.5282 C   0  0  0  0  0  0
  -21.4048   -6.5644   23.8219 C   0  0  0  0  0  0
  -21.3666   -5.6795   24.9175 C   0  0  0  0  0  0
  -21.6030   -4.3055   24.7231 C   0  0  0  0  0  0
  -21.8808   -3.8146   23.4349 C   0  0  0  0  0  0
  -21.9205   -4.6960   22.3410 C   0  0  0  0  0  0
  -22.7798  -13.5177   21.1897 C   0  0  0  0  0  0
  -22.1665   -4.2149   21.0983 F   0  0  0  0  0  0
  -21.5621   -3.4547   25.7739 F   0  0  0  0  0  0
  -29.9744  -13.5408   20.3980 N   0  0  0  0  0  0
  -26.2902  -12.9479   20.3251 N   0  0  0  0  0  0
  -25.9358  -11.6579   20.5652 N   0  0  0  0  0  0
  -22.0486  -12.8161   22.0412 N   0  0  0  0  0  0
  -25.4081  -15.1965   20.4329 N   0  0  0  0  0  0
  -31.7930  -14.8646   20.1941 O   0  0  0  0  0  0
  -21.6651   -6.8890   21.4234 O   0  0  0  0  0  0
  -22.3476  -14.5510   20.6740 O   0  0  0  0  0  0
  -24.6320  -31.8618   23.2038 C   0  0  0  0  0  0
  -25.9154  -32.4807   23.8377 C   0  0  1  0  0  0
  -27.1881  -27.2516   20.1260 C   0  0  0  0  0  0
  -25.5943  -33.8598   24.2317 N   0  0  0  0  0  0
  -23.4222  -30.4961   21.5463 C   0  0  2  0  0  0
  -24.8573  -28.9392   20.1004 C   0  0  0  0  0  0
  -22.7495  -29.4789   22.4997 C   0  0  0  0  0  0
  -18.0285  -28.1394   22.8546 C   0  0  0  0  0  0
  -24.1447  -36.7293   23.2646 C   0  0  0  0  0  0
  -25.9654  -30.7726   21.3739 C   0  0  0  0  0  0
  -26.0273  -29.3895   20.7263 C   0  0  0  0  0  0
  -27.1877  -28.5530   20.7377 C   0  0  0  0  0  0
  -25.9925  -26.8724   19.4729 C   0  0  0  0  0  0
  -24.8475  -27.6937   19.4595 C   0  0  0  0  0  0
  -23.6239  -29.8198   20.1622 C   0  0  0  0  0  0
  -25.4084  -36.3108   24.0344 C   0  0  1  0  0  0
  -20.5894  -28.3881   23.1271 C   0  0  2  0  0  0
  -20.6985  -26.9831   22.4888 C   0  0  0  0  0  0
  -19.5725  -26.6857   21.4956 C   0  0  0  0  0  0
  -18.2049  -26.7948   22.1721 C   0  0  0  0  0  0
  -19.1502  -28.8930   23.2901 C   0  0  0  0  0  0
  -18.9402  -30.1516   23.8906 C   0  0  0  0  0  0
  -17.6385  -30.6627   24.0489 C   0  0  0  0  0  0
  -25.9028  -34.9475   23.5123 C   0  0  0  0  0  0
  -16.5288  -29.9108   23.6186 C   0  0  0  0  0  0
  -16.7258  -28.6494   23.0303 C   0  0  0  0  0  0
  -26.4466  -31.6621   25.0776 C   0  0  0  0  0  0
  -25.3672  -31.3766   26.1499 C   0  0  0  0  0  0
  -27.0279  -30.3053   24.6202 C   0  0  0  0  0  0
  -27.6019  -32.4349   25.7565 C   0  0  0  0  0  0
  -27.5555  -37.1804   24.8468 C   0  0  0  0  0  0
  -21.4167  -29.3503   22.3978 N   0  0  0  0  0  0
  -26.4263  -37.3823   23.9420 N   0  0  0  0  0  0
  -24.6946  -31.0604   22.0974 N   0  0  0  0  0  0
  -23.4267  -28.8076   23.2832 O   0  0  0  0  0  0
  -28.2900  -26.3695   20.2228 O   0  0  0  0  0  0
  -26.5621  -34.8933   22.4700 O   0  0  0  0  0  0
  -23.5482  -32.1440   23.7340 O   0  0  0  0  0  0
  -29.4398  -19.9843   20.3672 C   0  0  0  0  0  0
  -28.3086  -18.5036   21.9216 C   0  0  0  0  0  0
  -27.7358  -20.9092   21.8184 C   0  0  0  0  0  0
  -29.2940  -18.6399   20.9211 C   0  0  0  0  0  0
  -28.6611  -21.1514   20.7720 C   0  0  0  0  0  0
  -27.5658  -19.6178   22.3797 C   0  0  0  0  0  0
  -28.3097  -23.6421   20.5112 C   0  0  0  0  0  0
  -30.2526  -17.3904   20.5838 C   0  0  0  0  0  0
  -28.3260  -24.9892   19.6208 C   0  0  0  0  0  0
  -28.7788  -22.4614   20.1255 N   0  0  0  0  0  0
  -26.6462  -19.4494   23.4138 N   0  0  0  0  0  0
  -29.8196  -15.9177   20.6507 N   0  0  0  0  0  0
  -31.4627  -12.6039   19.1647 H   0  0  0  0  0  0
  -30.3420  -11.4939   19.9154 H   0  0  0  0  0  0
  -29.7879  -11.8388   17.4649 H   0  0  0  0  0  0
  -29.6476  -13.5494   17.7430 H   0  0  0  0  0  0
  -27.8336  -11.3514   18.7912 H   0  0  0  0  0  0
  -27.3897  -12.6923   17.7667 H   0  0  0  0  0  0
  -27.6214  -14.2897   19.5075 H   0  0  0  0  0  0
  -28.7125  -12.1703   21.4114 H   0  0  0  0  0  0
  -28.4142  -13.8536   21.7945 H   0  0  0  0  0  0
  -25.2790   -9.5694   22.4746 H   0  0  0  0  0  0
  -24.0012   -7.4647   22.7493 H   0  0  0  0  0  0
  -21.0854   -8.8779   19.8960 H   0  0  0  0  0  0
  -22.3724  -10.9661   19.6145 H   0  0  0  0  0  0
  -21.2059   -7.6164   23.9719 H   0  0  0  0  0  0
  -21.1497   -6.0535   25.9073 H   0  0  0  0  0  0
  -22.0579   -2.7615   23.2851 H   0  0  0  0  0  0
  -22.4106  -11.9782   22.4767 H   0  0  0  0  0  0
  -21.1090  -13.1159   22.2642 H   0  0  0  0  0  0
  -24.6404  -15.8383   20.6036 H   0  0  0  0  0  0
  -26.2515  -15.6654   20.1326 H   0  0  0  0  0  0
  -26.7236  -32.5479   23.1132 H   0  0  0  0  0  0
  -25.0026  -33.9737   25.0419 H   0  0  0  0  0  0
  -22.7244  -31.3257   21.4013 H   0  0  0  0  0  0
  -23.3738  -35.9596   23.3312 H   0  0  0  0  0  0
  -24.3509  -36.8924   22.2054 H   0  0  0  0  0  0
  -23.7151  -37.6473   23.6665 H   0  0  0  0  0  0
  -26.0823  -31.5146   20.5826 H   0  0  0  0  0  0
  -26.8606  -30.8485   21.9803 H   0  0  0  0  0  0
  -28.0710  -28.8766   21.2672 H   0  0  0  0  0  0
  -25.8778  -25.9167   18.9878 H   0  0  0  0  0  0
  -23.9539  -27.3561   18.9514 H   0  0  0  0  0  0
  -23.7002  -30.5818   19.3844 H   0  0  0  0  0  0
  -22.7446  -29.2243   19.9077 H   0  0  0  0  0  0
  -25.1249  -36.1958   25.0844 H   0  0  0  0  0  0
  -20.9932  -28.3284   24.1392 H   0  0  0  0  0  0
  -20.6718  -26.2342   23.2811 H   0  0  0  0  0  0
  -21.6615  -26.8588   21.9888 H   0  0  0  0  0  0
  -19.6342  -27.4076   20.6766 H   0  0  0  0  0  0
  -19.7001  -25.6961   21.0607 H   0  0  0  0  0  0
  -17.4201  -26.6501   21.4266 H   0  0  0  0  0  0
  -18.0949  -26.0062   22.9198 H   0  0  0  0  0  0
  -19.7863  -30.7343   24.2302 H   0  0  0  0  0  0
  -17.4910  -31.6361   24.4970 H   0  0  0  0  0  0
  -15.5244  -30.3030   23.7263 H   0  0  0  0  0  0
  -15.8731  -28.0733   22.7006 H   0  0  0  0  0  0
  -24.5927  -30.7003   25.7875 H   0  0  0  0  0  0
  -24.8749  -32.2911   26.4820 H   0  0  0  0  0  0
  -25.8005  -30.9082   27.0348 H   0  0  0  0  0  0
  -26.2846  -29.6873   24.1166 H   0  0  0  0  0  0
  -27.3914  -29.7261   25.4694 H   0  0  0  0  0  0
  -27.8735  -30.4380   23.9462 H   0  0  0  0  0  0
  -27.2658  -33.3702   26.2060 H   0  0  0  0  0  0
  -28.3885  -32.6828   25.0428 H   0  0  0  0  0  0
  -28.0610  -31.8514   26.5556 H   0  0  0  0  0  0
  -28.2594  -38.0089   24.7539 H   0  0  0  0  0  0
  -28.1035  -36.2622   24.6261 H   0  0  0  0  0  0
  -27.2277  -37.1426   25.8878 H   0  0  0  0  0  0
  -20.9236  -29.9746   21.7727 H   0  0  0  0  0  0
  -26.0140  -38.2896   24.1450 H   0  0  0  0  0  0
  -30.1925  -20.1429   19.6078 H   0  0  0  0  0  0
  -28.1524  -17.5321   22.3754 H   0  0  0  0  0  0
  -27.1292  -21.7201   22.2007 H   0  0  0  0  0  0
  -27.8371  -23.7831   21.4892 H   0  0  0  0  0  0
  -30.7076  -17.5617   19.6079 H   0  0  0  0  0  0
  -31.0778  -17.4755   21.2965 H   0  0  0  0  0  0
  -27.6045  -24.8777   18.8159 H   0  0  0  0  0  0
  -29.2664  -24.9606   19.0776 H   0  0  0  0  0  0
  -26.4490  -18.5475   23.8373 H   0  0  0  0  0  0
  -26.1889  -20.2418   23.8539 H   0  0  0  0  0  0
  -28.8261  -15.7633   20.7135 H   0  0  0  0  0  0
  1 25  1  0  0  0
  1 30  2  0  0  0
  1 82  1  0  0  0
  2  3  1  0  0  0
  2 25  1  0  0  0
  2 83  1  0  0  0
  2 84  1  0  0  0
  3  4  1  0  0  0
  3 85  1  0  0  0
  3 86  1  0  0  0
  4  5  1  0  0  0
  4 87  1  0  0  0
  4 88  1  0  0  0
  5  6  1  0  0  0
  5 26  1  0  0  0
  5 89  1  0  0  0
  6 25  1  0  0  0
  6 90  1  0  0  0
  6 91  1  0  0  0
  7  8  2  0  0  0
  7 26  1  0  0  0
  7 29  1  0  0  0
  8  9  1  0  0  0
  8 22  1  0  0  0
  9 10  1  0  0  0
  9 27  2  0  0  0
 10 11  2  0  0  0
 10 15  1  0  0  0
 11 12  1  0  0  0
 11 92  1  0  0  0
 12 13  2  0  0  0
 12 93  1  0  0  0
 13 14  1  0  0  0
 13 31  1  0  0  0
 14 15  2  0  0  0
 14 94  1  0  0  0
 15 95  1  0  0  0
 16 17  2  0  0  0
 16 21  1  0  0  0
 16 31  1  0  0  0
 17 18  1  0  0  0
 17 96  1  0  0  0
 18 19  2  0  0  0
 18 97  1  0  0  0
 19 20  1  0  0  0
 19 24  1  0  0  0
 20 21  2  0  0  0
 20 98  1  0  0  0
 21 23  1  0  0  0
 22 28  1  0  0  0
 22 32  2  0  0  0
 26 27  1  0  0  0
 28 99  1  0  0  0
 28100  1  0  0  0
 29101  1  0  0  0
 29102  1  0  0  0
 33 34  1  0  0  0
 33 66  1  0  0  0
 33 70  2  0  0  0
 34 36  1  0  0  0
 34 59  1  0  0  0
 34103  1  0  0  0
 35 44  2  0  0  0
 35 45  1  0  0  0
 35 68  1  0  0  0
 36 56  1  0  0  0
 36104  1  0  0  0
 37 39  1  0  0  0
 37 47  1  0  0  0
 37 66  1  0  0  0
 37105  1  0  0  0
 38 43  2  0  0  0
 38 46  1  0  0  0
 38 47  1  0  0  0
 39 64  1  0  0  0
 39 67  2  0  0  0
 40 52  1  0  0  0
 40 53  2  0  0  0
 40 58  1  0  0  0
 41106  1  0  0  0
 41107  1  0  0  0
 41108  1  0  0  0
 41 48  1  0  0  0
 42 43  1  0  0  0
 42 66  1  0  0  0
 42109  1  0  0  0
 42110  1  0  0  0
 43 44  1  0  0  0
 44111  1  0  0  0
 45 46  2  0  0  0
 45112  1  0  0  0
 46113  1  0  0  0
 47114  1  0  0  0
 47115  1  0  0  0
 48 56  1  0  0  0
 48 65  1  0  0  0
 48116  1  0  0  0
 49 50  1  0  0  0
 49 53  1  0  0  0
 49 64  1  0  0  0
 49117  1  0  0  0
 50 51  1  0  0  0
 50118  1  0  0  0
 50119  1  0  0  0
 51 52  1  0  0  0
 51120  1  0  0  0
 51121  1  0  0  0
 52122  1  0  0  0
 52123  1  0  0  0
 53 54  1  0  0  0
 54 55  2  0  0  0
 54124  1  0  0  0
 55 57  1  0  0  0
 55125  1  0  0  0
 56 69  2  0  0  0
 57 58  2  0  0  0
 57126  1  0  0  0
 58127  1  0  0  0
 59 60  1  0  0  0
 59 61  1  0  0  0
 59 62  1  0  0  0
 60128  1  0  0  0
 60129  1  0  0  0
 60130  1  0  0  0
 61131  1  0  0  0
 61132  1  0  0  0
 61133  1  0  0  0
 62134  1  0  0  0
 62135  1  0  0  0
 62136  1  0  0  0
 63 65  1  0  0  0
 63137  1  0  0  0
 63138  1  0  0  0
 63139  1  0  0  0
 64140  1  0  0  0
 65141  1  0  0  0
 68 79  1  0  0  0
 71 74  2  0  0  0
 71 75  1  0  0  0
 71142  1  0  0  0
 72 74  1  0  0  0
 72 76  2  0  0  0
 72143  1  0  0  0
 73 75  2  0  0  0
 73 76  1  0  0  0
 73144  1  0  0  0
 74 78  1  0  0  0
 75 80  1  0  0  0
 76 81  1  0  0  0
 77 79  1  0  0  0
 77 80  2  0  0  0
 77145  1  0  0  0
 78 82  1  0  0  0
 78146  1  0  0  0
 78147  1  0  0  0
 79148  1  0  0  0
 79149  1  0  0  0
 81150  1  0  0  0
 81151  1  0  0  0
 82152  1  0  0  0
M  ISO  4   1 100  68 101  79 101  82 100
M  END
> <chiral flag>
0

> <version>
0

> <s_m_source_file>
/data/baiqing/PycharmProjects/Reinvent-master-3.2/result/LINK_invent/BTK/process_docking_weight1_custom_product_contain_oxygen_bond_distance_aromatic_linkinvent_7_9_3/rearranged_h_0109.sdf

> <i_m_source_file_index>
35

> <r_mmod_Potential_Energy-OPLS-2005>
140.268615722656

> <r_mmod_Stretch_Energy-OPLS-2005>
137.46208190918

> <r_mmod_Bend_Energy-OPLS-2005>
190.564559936523

> <r_mmod_Torsional_Energy-OPLS-2005>
202.644577026367

> <r_mmod_Improper_Torsional_Energy-OPLS-2005>
5.6365795135498

> <r_mmod_Van_der_Waal_Energy-OPLS-2005>
139.009902954102

> <r_mmod_Electrostatic_Energy-OPLS-2005>
-404.680877685547

> <r_mmod_Solvation_Energy-OPLS-2005>
-226.885330200195

> <b_mmod_Minimization_Converged-OPLS-2005>
0

> <r_mmod_RMS_Derivative-OPLS-2005>
7.10887479782104

$$$$
35
                    3D
 Structure written by MMmdl.
166175  0  0  1  0            999 V2000
  -30.7028  -14.6527   20.5479 C   0  0  0  0  0  0
  -30.4136  -12.4025   19.4894 C   0  0  0  0  0  0
  -29.5139  -12.5113   18.2385 C   0  0  0  0  0  0
  -28.0352  -12.3542   18.6346 C   0  0  0  0  0  0
  -27.6518  -13.2316   19.8535 C   0  0  2  0  0  0
  -28.6849  -13.1367   20.9930 C   0  0  0  0  0  0
  -25.2607  -13.8240   20.5826 C   0  0  0  0  0  0
  -24.1863  -13.0455   20.9220 C   0  0  0  0  0  0
  -24.6449  -11.6947   20.8726 C   0  0  0  0  0  0
  -23.9132  -10.4324   21.0398 C   0  0  0  0  0  0
  -24.3696   -9.4245   21.9174 C   0  0  0  0  0  0
  -23.6349   -8.2285   22.0744 C   0  0  0  0  0  0
  -22.4316   -8.0333   21.3541 C   0  0  0  0  0  0
  -21.9962   -9.0328   20.4645 C   0  0  0  0  0  0
  -22.7312  -10.2187   20.3057 C   0  0  0  0  0  0
  -21.6878   -6.0759   22.5251 C   0  0  0  0  0  0
  -21.4052   -6.5642   23.8191 C   0  0  0  0  0  0
  -21.3672   -5.6783   24.9144 C   0  0  0  0  0  0
  -21.6037   -4.3053   24.7183 C   0  0  0  0  0  0
  -21.8832   -3.8155   23.4309 C   0  0  0  0  0  0
  -21.9223   -4.6987   22.3370 C   0  0  0  0  0  0
  -22.7889  -13.5233   21.1854 C   0  0  0  0  0  0
  -22.1678   -4.2172   21.0941 F   0  0  0  0  0  0
  -21.5625   -3.4540   25.7697 F   0  0  0  0  0  0
  -30.0139  -13.4601   20.4456 N   0  0  0  0  0  0
  -26.3002  -12.9433   20.3284 N   0  0  0  0  0  0
  -25.9366  -11.6575   20.5687 N   0  0  0  0  0  0
  -22.0551  -12.8207   22.0432 N   0  0  0  0  0  0
  -25.4378  -15.1967   20.4567 N   0  0  0  0  0  0
  -31.7928  -14.7825   19.9852 O   0  0  0  0  0  0
  -21.6679   -6.8930   21.4229 O   0  0  0  0  0  0
  -22.3549  -14.5515   20.6684 O   0  0  0  0  0  0
  -24.6282  -31.8571   23.1982 C   0  0  0  0  0  0
  -25.9117  -32.4762   23.8348 C   0  0  1  0  0  0
  -27.2384  -27.2954   20.1499 C   0  0  0  0  0  0
  -25.5929  -33.8563   24.2268 N   0  0  0  0  0  0
  -23.4247  -30.4781   21.5390 C   0  0  2  0  0  0
  -24.8792  -28.9268   20.1053 C   0  0  0  0  0  0
  -22.7472  -29.4629   22.4896 C   0  0  0  0  0  0
  -18.0299  -28.1401   22.8468 C   0  0  0  0  0  0
  -24.1473  -36.7270   23.2642 C   0  0  0  0  0  0
  -25.9632  -30.7862   21.3682 C   0  0  0  0  0  0
  -26.0428  -29.4074   20.7211 C   0  0  0  0  0  0
  -27.2237  -28.6028   20.7333 C   0  0  0  0  0  0
  -26.0573  -26.8732   19.4988 C   0  0  0  0  0  0
  -24.8924  -27.6690   19.4785 C   0  0  0  0  0  0
  -23.6399  -29.8026   20.1556 C   0  0  0  0  0  0
  -25.4101  -36.3069   24.0332 C   0  0  1  0  0  0
  -20.5882  -28.3707   23.1243 C   0  0  2  0  0  0
  -20.6765  -26.9430   22.5393 C   0  0  0  0  0  0
  -19.5750  -26.6401   21.5179 C   0  0  0  0  0  0
  -18.1927  -26.7940   22.1603 C   0  0  0  0  0  0
  -19.1550  -28.8877   23.2850 C   0  0  0  0  0  0
  -18.9493  -30.1459   23.8885 C   0  0  0  0  0  0
  -17.6496  -30.6609   24.0567 C   0  0  0  0  0  0
  -25.9056  -34.9449   23.5108 C   0  0  0  0  0  0
  -16.5383  -29.9116   23.6312 C   0  0  0  0  0  0
  -16.7278  -28.6527   23.0336 C   0  0  0  0  0  0
  -26.4523  -31.6574   25.0718 C   0  0  0  0  0  0
  -25.3770  -31.3768   26.1464 C   0  0  0  0  0  0
  -27.0334  -30.2983   24.6165 C   0  0  0  0  0  0
  -27.6099  -32.4314   25.7461 C   0  0  0  0  0  0
  -27.5550  -37.1776   24.8469 C   0  0  0  0  0  0
  -21.4185  -29.3056   22.3635 N   0  0  0  0  0  0
  -26.4264  -37.3773   23.9431 N   0  0  0  0  0  0
  -24.6907  -31.0546   22.0940 N   0  0  0  0  0  0
  -23.4166  -28.8185   23.3013 O   0  0  0  0  0  0
  -28.3552  -26.4369   20.1819 O   0  0  0  0  0  0
  -26.5628  -34.8928   22.4673 O   0  0  0  0  0  0
  -23.5431  -32.1397   23.7282 O   0  0  0  0  0  0
  -30.9424  -19.4925   20.9270 C   0  0  0  0  0  0
  -28.8309  -19.0249   19.9141 C   0  0  0  0  0  0
  -31.1412  -18.0921   21.1953 C   0  0  0  0  0  0
  -29.7789  -20.0107   20.2974 C   0  0  0  0  0  0
  -30.1426  -17.1163   20.8529 C   0  0  0  0  0  0
  -28.9976  -17.6308   20.1846 C   0  0  0  0  0  0
  -28.8775  -23.7936   20.0221 C   0  0  0  0  0  0
  -29.1558  -22.5543   20.6036 C   0  0  0  0  0  0
  -29.0879  -23.8941   18.5619 C   0  0  0  0  0  0
  -33.1251  -18.4281   22.6938 C   0  0  0  0  0  0
  -32.3876  -17.6738   21.8624 C   0  0  0  0  0  0
  -29.0359  -22.5857   17.7838 C   0  0  0  0  0  0
  -29.9093  -21.5097   18.4529 C   0  0  0  0  0  0
  -28.9187  -22.3135   22.0879 C   0  0  0  0  0  0
  -30.3009  -15.4893   22.7436 C   0  0  0  0  0  0
  -28.1657  -25.0436   20.6975 C   0  0  0  0  0  0
  -29.6417  -21.3959   19.8915 N   0  0  0  0  0  0
  -30.1877  -15.6965   21.2901 N   0  0  0  0  0  0
  -29.2803  -24.9500   17.9503 O   0  0  0  0  0  0
  -28.0154  -16.7729   19.8135 F   0  0  0  0  0  0
  -31.4678  -12.4634   19.2206 H   0  0  0  0  0  0
  -30.2879  -11.4234   19.9553 H   0  0  0  0  0  0
  -29.7855  -11.7406   17.5194 H   0  0  0  0  0  0
  -29.6692  -13.4702   17.7433 H   0  0  0  0  0  0
  -27.8671  -11.3038   18.8731 H   0  0  0  0  0  0
  -27.3886  -12.5833   17.7848 H   0  0  0  0  0  0
  -27.6621  -14.2597   19.4946 H   0  0  0  0  0  0
  -28.6851  -12.1427   21.4416 H   0  0  0  0  0  0
  -28.3818  -13.8261   21.7773 H   0  0  0  0  0  0
  -25.2856   -9.5700   22.4719 H   0  0  0  0  0  0
  -24.0072   -7.4668   22.7457 H   0  0  0  0  0  0
  -21.0892   -8.8891   19.8934 H   0  0  0  0  0  0
  -22.3829  -10.9754   19.6181 H   0  0  0  0  0  0
  -21.2055   -7.6164   23.9724 H   0  0  0  0  0  0
  -21.1469   -6.0489   25.9045 H   0  0  0  0  0  0
  -22.0602   -2.7629   23.2791 H   0  0  0  0  0  0
  -22.4236  -11.9887   22.4784 H   0  0  0  0  0  0
  -21.1157  -13.1203   22.2638 H   0  0  0  0  0  0
  -24.7091  -15.8592   20.6916 H   0  0  0  0  0  0
  -26.3234  -15.6429   20.2376 H   0  0  0  0  0  0
  -26.7196  -32.5440   23.1114 H   0  0  0  0  0  0
  -25.0016  -33.9700   25.0368 H   0  0  0  0  0  0
  -22.7225  -31.3010   21.3888 H   0  0  0  0  0  0
  -23.3733  -35.9598   23.3301 H   0  0  0  0  0  0
  -24.3573  -36.8879   22.2055 H   0  0  0  0  0  0
  -23.7211  -37.6481   23.6644 H   0  0  0  0  0  0
  -26.0809  -31.5411   20.5901 H   0  0  0  0  0  0
  -26.8480  -30.8490   21.9887 H   0  0  0  0  0  0
  -28.1135  -28.9622   21.2304 H   0  0  0  0  0  0
  -26.0254  -25.9083   19.0112 H   0  0  0  0  0  0
  -24.0086  -27.2988   18.9759 H   0  0  0  0  0  0
  -23.7384  -30.5716   19.3873 H   0  0  0  0  0  0
  -22.7639  -29.2178   19.8660 H   0  0  0  0  0  0
  -25.1258  -36.1922   25.0817 H   0  0  0  0  0  0
  -20.9991  -28.3287   24.1345 H   0  0  0  0  0  0
  -20.5580  -26.2351   23.3604 H   0  0  0  0  0  0
  -21.6645  -26.7403   22.1240 H   0  0  0  0  0  0
  -19.6909  -25.6301   21.1218 H   0  0  0  0  0  0
  -19.6687  -27.3185   20.6686 H   0  0  0  0  0  0
  -17.4188  -26.6651   21.4015 H   0  0  0  0  0  0
  -18.0373  -26.0090   22.9026 H   0  0  0  0  0  0
  -19.7986  -30.7262   24.2239 H   0  0  0  0  0  0
  -17.5085  -31.6269   24.5204 H   0  0  0  0  0  0
  -15.5388  -30.3055   23.7648 H   0  0  0  0  0  0
  -15.8667  -28.0866   22.7063 H   0  0  0  0  0  0
  -24.5977  -30.7039   25.7857 H   0  0  0  0  0  0
  -24.8941  -32.2967   26.4780 H   0  0  0  0  0  0
  -25.8142  -30.9086   27.0292 H   0  0  0  0  0  0
  -26.2889  -29.6756   24.1195 H   0  0  0  0  0  0
  -27.4021  -29.7217   25.4659 H   0  0  0  0  0  0
  -27.8762  -30.4234   23.9360 H   0  0  0  0  0  0
  -27.2713  -33.3623   26.2017 H   0  0  0  0  0  0
  -28.3915  -32.6866   25.0288 H   0  0  0  0  0  0
  -28.0763  -31.8467   26.5401 H   0  0  0  0  0  0
  -28.2600  -38.0047   24.7500 H   0  0  0  0  0  0
  -28.1013  -36.2586   24.6290 H   0  0  0  0  0  0
  -27.2278  -37.1402   25.8879 H   0  0  0  0  0  0
  -20.9375  -29.8830   21.6874 H   0  0  0  0  0  0
  -26.0132  -38.2830   24.1511 H   0  0  0  0  0  0
  -31.7310  -20.1887   21.1740 H   0  0  0  0  0  0
  -27.9461  -19.3488   19.3903 H   0  0  0  0  0  0
  -34.0334  -18.0521   23.1417 H   0  0  0  0  0  0
  -32.8355  -19.4334   22.9537 H   0  0  0  0  0  0
  -32.7400  -16.6761   21.6392 H   0  0  0  0  0  0
  -29.3325  -22.7432   16.7484 H   0  0  0  0  0  0
  -27.9948  -22.2610   17.7722 H   0  0  0  0  0  0
  -30.9660  -21.7417   18.3079 H   0  0  0  0  0  0
  -29.7348  -20.5666   17.9327 H   0  0  0  0  0  0
  -27.8496  -22.2276   22.2961 H   0  0  0  0  0  0
  -29.3221  -23.1386   22.6785 H   0  0  0  0  0  0
  -29.4046  -21.4086   22.4562 H   0  0  0  0  0  0
  -29.7560  -16.2503   23.3005 H   0  0  0  0  0  0
  -31.3431  -15.5272   23.0603 H   0  0  0  0  0  0
  -29.9291  -14.5190   23.0734 H   0  0  0  0  0  0
  -28.4010  -25.0592   21.7621 H   0  0  0  0  0  0
  -27.1105  -24.7840   20.6585 H   0  0  0  0  0  0
  1 25  1  0  0  0
  1 30  2  0  0  0
  1 88  1  0  0  0
  2  3  1  0  0  0
  2 25  1  0  0  0
  2 91  1  0  0  0
  2 92  1  0  0  0
  3  4  1  0  0  0
  3 93  1  0  0  0
  3 94  1  0  0  0
  4  5  1  0  0  0
  4 95  1  0  0  0
  4 96  1  0  0  0
  5  6  1  0  0  0
  5 26  1  0  0  0
  5 97  1  0  0  0
  6 25  1  0  0  0
  6 98  1  0  0  0
  6 99  1  0  0  0
  7  8  2  0  0  0
  7 26  1  0  0  0
  7 29  1  0  0  0
  8  9  1  0  0  0
  8 22  1  0  0  0
  9 10  1  0  0  0
  9 27  2  0  0  0
 10 11  2  0  0  0
 10 15  1  0  0  0
 11 12  1  0  0  0
 11100  1  0  0  0
 12 13  2  0  0  0
 12101  1  0  0  0
 13 14  1  0  0  0
 13 31  1  0  0  0
 14 15  2  0  0  0
 14102  1  0  0  0
 15103  1  0  0  0
 16 17  2  0  0  0
 16 21  1  0  0  0
 16 31  1  0  0  0
 17 18  1  0  0  0
 17104  1  0  0  0
 18 19  2  0  0  0
 18105  1  0  0  0
 19 20  1  0  0  0
 19 24  1  0  0  0
 20 21  2  0  0  0
 20106  1  0  0  0
 21 23  1  0  0  0
 22 28  1  0  0  0
 22 32  2  0  0  0
 26 27  1  0  0  0
 28107  1  0  0  0
 28108  1  0  0  0
 29109  1  0  0  0
 29110  1  0  0  0
 33 34  1  0  0  0
 33 66  1  0  0  0
 33 70  2  0  0  0
 34 36  1  0  0  0
 34 59  1  0  0  0
 34111  1  0  0  0
 35 44  2  0  0  0
 35 45  1  0  0  0
 35 68  1  0  0  0
 36 56  1  0  0  0
 36112  1  0  0  0
 37 39  1  0  0  0
 37 47  1  0  0  0
 37 66  1  0  0  0
 37113  1  0  0  0
 38 43  2  0  0  0
 38 46  1  0  0  0
 38 47  1  0  0  0
 39 64  1  0  0  0
 39 67  2  0  0  0
 40 52  1  0  0  0
 40 53  2  0  0  0
 40 58  1  0  0  0
 41114  1  0  0  0
 41115  1  0  0  0
 41116  1  0  0  0
 41 48  1  0  0  0
 42 43  1  0  0  0
 42 66  1  0  0  0
 42117  1  0  0  0
 42118  1  0  0  0
 43 44  1  0  0  0
 44119  1  0  0  0
 45 46  2  0  0  0
 45120  1  0  0  0
 46121  1  0  0  0
 47122  1  0  0  0
 47123  1  0  0  0
 48 56  1  0  0  0
 48 65  1  0  0  0
 48124  1  0  0  0
 49 50  1  0  0  0
 49 53  1  0  0  0
 49 64  1  0  0  0
 49125  1  0  0  0
 50 51  1  0  0  0
 50126  1  0  0  0
 50127  1  0  0  0
 51 52  1  0  0  0
 51128  1  0  0  0
 51129  1  0  0  0
 52130  1  0  0  0
 52131  1  0  0  0
 53 54  1  0  0  0
 54 55  2  0  0  0
 54132  1  0  0  0
 55 57  1  0  0  0
 55133  1  0  0  0
 56 69  2  0  0  0
 57 58  2  0  0  0
 57134  1  0  0  0
 58135  1  0  0  0
 59 60  1  0  0  0
 59 61  1  0  0  0
 59 62  1  0  0  0
 60136  1  0  0  0
 60137  1  0  0  0
 60138  1  0  0  0
 61139  1  0  0  0
 61140  1  0  0  0
 61141  1  0  0  0
 62142  1  0  0  0
 62143  1  0  0  0
 62144  1  0  0  0
 63 65  1  0  0  0
 63145  1  0  0  0
 63146  1  0  0  0
 63147  1  0  0  0
 64148  1  0  0  0
 65149  1  0  0  0
 68 86  1  0  0  0
 71 73  2  0  0  0
 71 74  1  0  0  0
 71150  1  0  0  0
 72 74  2  0  0  0
 72 76  1  0  0  0
 72151  1  0  0  0
 73 75  1  0  0  0
 73 81  1  0  0  0
 74 87  1  0  0  0
 75 76  2  0  0  0
 75 88  1  0  0  0
 76 90  1  0  0  0
 77 78  2  0  0  0
 77 79  1  0  0  0
 77 86  1  0  0  0
 78 84  1  0  0  0
 78 87  1  0  0  0
 79 82  1  0  0  0
 79 89  2  0  0  0
 80 81  2  0  0  0
 80152  1  0  0  0
 80153  1  0  0  0
 81154  1  0  0  0
 82 83  1  0  0  0
 82155  1  0  0  0
 82156  1  0  0  0
 83 87  1  0  0  0
 83157  1  0  0  0
 83158  1  0  0  0
 84159  1  0  0  0
 84160  1  0  0  0
 84161  1  0  0  0
 85 88  1  0  0  0
 85162  1  0  0  0
 85163  1  0  0  0
 85164  1  0  0  0
 86165  1  0  0  0
 86166  1  0  0  0
M  ISO  4   1 100  68 101  86 101  88 100
M  END
> <chiral flag>
0

> <version>
0

> <s_m_source_file>
/data/baiqing/PycharmProjects/Reinvent-master-3.2/result/LINK_invent/BTK/process_docking_weight1_custom_product_contain_oxygen_bond_distance_aromatic_linkinvent_7_9_3/rearranged_h_0109.sdf

> <i_m_source_file_index>
36

> <r_mmod_Potential_Energy-OPLS-2005>
301.459136962891

> <r_mmod_Stretch_Energy-OPLS-2005>
108.558448791504

> <r_mmod_Bend_Energy-OPLS-2005>
148.893524169922

> <r_mmod_Torsional_Energy-OPLS-2005>
348.856689453125

> <r_mmod_Improper_Torsional_Energy-OPLS-2005>
5.83791875839233

> <r_mmod_Van_der_Waal_Energy-OPLS-2005>
157.768814086914

> <r_mmod_Electrostatic_Energy-OPLS-2005>
-325.3896484375

> <r_mmod_Solvation_Energy-OPLS-2005>
-199.261047363281

> <b_mmod_Minimization_Converged-OPLS-2005>
0

> <r_mmod_RMS_Derivative-OPLS-2005>
4.91376781463623

$$$$
36
                    3D
 Structure written by MMmdl.
171180  0  0  1  0            999 V2000
  -30.7140  -14.4911   20.5702 C   0  0  0  0  0  0
  -30.4188  -12.3291   19.4106 C   0  0  0  0  0  0
  -29.4854  -12.5063   18.1976 C   0  0  0  0  0  0
  -28.0129  -12.3455   18.6255 C   0  0  0  0  0  0
  -27.6536  -13.2060   19.8643 C   0  0  2  0  0  0
  -28.7017  -13.0213   20.9847 C   0  0  0  0  0  0
  -25.2537  -13.8145   20.5678 C   0  0  0  0  0  0
  -24.1790  -13.0415   20.9187 C   0  0  0  0  0  0
  -24.6349  -11.6897   20.8733 C   0  0  0  0  0  0
  -23.9032  -10.4266   21.0394 C   0  0  0  0  0  0
  -24.3591   -9.4186   21.9171 C   0  0  0  0  0  0
  -23.6260   -8.2226   22.0753 C   0  0  0  0  0  0
  -22.4247   -8.0248   21.3548 C   0  0  0  0  0  0
  -21.9872   -9.0216   20.4655 C   0  0  0  0  0  0
  -22.7199  -10.2096   20.3047 C   0  0  0  0  0  0
  -21.6855   -6.0696   22.5265 C   0  0  0  0  0  0
  -21.4006   -6.5612   23.8189 C   0  0  0  0  0  0
  -21.3659   -5.6780   24.9164 C   0  0  0  0  0  0
  -21.6072   -4.3047   24.7237 C   0  0  0  0  0  0
  -21.8822   -3.8116   23.4363 C   0  0  0  0  0  0
  -21.9184   -4.6919   22.3407 C   0  0  0  0  0  0
  -22.7829  -13.5217   21.1862 C   0  0  0  0  0  0
  -22.1667   -4.2102   21.0990 F   0  0  0  0  0  0
  -21.5643   -3.4542   25.7756 F   0  0  0  0  0  0
  -30.0245  -13.3259   20.4193 N   0  0  0  0  0  0
  -26.2972  -12.9325   20.3329 N   0  0  0  0  0  0
  -25.9279  -11.6489   20.5767 N   0  0  0  0  0  0
  -22.0487  -12.8184   22.0429 N   0  0  0  0  0  0
  -25.4214  -15.1842   20.4068 N   0  0  0  0  0  0
  -31.8479  -14.6607   20.1216 O   0  0  0  0  0  0
  -21.6635   -6.8832   21.4226 O   0  0  0  0  0  0
  -22.3501  -14.5504   20.6705 O   0  0  0  0  0  0
  -24.6166  -31.8692   23.2116 C   0  0  0  0  0  0
  -25.9057  -32.4815   23.8397 C   0  0  1  0  0  0
  -27.2183  -27.4282   20.0771 C   0  0  0  0  0  0
  -25.5897  -33.8614   24.2341 N   0  0  0  0  0  0
  -23.4024  -30.4964   21.5518 C   0  0  2  0  0  0
  -24.8421  -28.9633   20.1127 C   0  0  0  0  0  0
  -22.7417  -29.4673   22.4983 C   0  0  0  0  0  0
  -18.0270  -28.1387   22.8475 C   0  0  0  0  0  0
  -24.1491  -36.7318   23.2639 C   0  0  0  0  0  0
  -25.9325  -30.8283   21.3662 C   0  0  0  0  0  0
  -26.0055  -29.4640   20.7112 C   0  0  0  0  0  0
  -27.1955  -28.7002   20.6955 C   0  0  0  0  0  0
  -26.0379  -26.9530   19.4591 C   0  0  0  0  0  0
  -24.8534  -27.7074   19.4847 C   0  0  0  0  0  0
  -23.6114  -29.8371   20.1629 C   0  0  0  0  0  0
  -25.4105  -36.3110   24.0346 C   0  0  1  0  0  0
  -20.5859  -28.3689   23.1308 C   0  0  2  0  0  0
  -20.6764  -26.9431   22.5406 C   0  0  0  0  0  0
  -19.5744  -26.6401   21.5202 C   0  0  0  0  0  0
  -18.1922  -26.7924   22.1612 C   0  0  0  0  0  0
  -19.1522  -28.8848   23.2883 C   0  0  0  0  0  0
  -18.9445  -30.1440   23.8916 C   0  0  0  0  0  0
  -17.6452  -30.6594   24.0557 C   0  0  0  0  0  0
  -25.9018  -34.9469   23.5147 C   0  0  0  0  0  0
  -16.5343  -29.9100   23.6311 C   0  0  0  0  0  0
  -16.7258  -28.6509   23.0340 C   0  0  0  0  0  0
  -26.4466  -31.6568   25.0723 C   0  0  0  0  0  0
  -25.3736  -31.3678   26.1480 C   0  0  0  0  0  0
  -27.0318  -30.3027   24.6081 C   0  0  0  0  0  0
  -27.6054  -32.4278   25.7470 C   0  0  0  0  0  0
  -27.5579  -37.1823   24.8469 C   0  0  0  0  0  0
  -21.4140  -29.3060   22.3718 N   0  0  0  0  0  0
  -26.4299  -37.3791   23.9404 N   0  0  0  0  0  0
  -24.6687  -31.0789   22.1019 N   0  0  0  0  0  0
  -23.4197  -28.8217   23.3023 O   0  0  0  0  0  0
  -28.3991  -26.7100   20.0773 O   0  0  0  0  0  0
  -26.5587  -34.8924   22.4709 O   0  0  0  0  0  0
  -23.5352  -32.1449   23.7500 O   0  0  0  0  0  0
  -30.2083  -18.4018   21.7806 C   0  0  0  0  0  0
  -30.2706  -19.7654   22.1329 C   0  0  0  0  0  0
  -28.5881  -20.2782   20.4899 C   0  0  0  0  0  0
  -29.3224  -17.9425   20.7828 C   0  0  0  0  0  0
  -28.5288  -18.9110   20.1008 C   0  0  0  0  0  0
  -29.4327  -20.7375   21.5280 C   0  0  0  0  0  0
  -29.2062  -25.3020   22.3159 C   0  0  0  0  0  0
  -29.0496  -24.5908   21.1768 C   0  0  0  0  0  0
  -29.8310  -24.8042   23.5271 C   0  0  0  0  0  0
  -29.3406  -23.4761   24.0611 C   0  0  0  0  0  0
  -29.9624  -22.3135   23.3000 C   0  0  0  0  0  0
  -29.5390  -23.1438   20.8931 C   0  0  1  0  0  0
  -30.9653  -23.1815   20.3239 C   0  0  0  0  0  0
  -26.7177  -19.5631   18.3345 C   0  0  0  0  0  0
  -27.6164  -18.4749   18.9492 C   0  0  0  0  0  0
  -29.1966  -16.4362   20.4653 C   0  0  0  0  0  0
  -28.3590  -25.2698   19.9925 C   0  0  0  0  0  0
  -29.4127  -22.1043   21.9517 N   0  0  0  0  0  0
  -30.0856  -15.5067   21.1909 N   0  0  0  0  0  0
  -30.7072  -25.4279   24.1310 O   0  0  0  0  0  0
  -31.4605  -12.4296   19.1010 H   0  0  0  0  0  0
  -30.3270  -11.3231   19.8224 H   0  0  0  0  0  0
  -29.7325  -11.7803   17.4207 H   0  0  0  0  0  0
  -29.6326  -13.4944   17.7571 H   0  0  0  0  0  0
  -27.8493  -11.2920   18.8565 H   0  0  0  0  0  0
  -27.3506  -12.5877   17.7938 H   0  0  0  0  0  0
  -27.6834  -14.2427   19.5363 H   0  0  0  0  0  0
  -28.6885  -11.9970   21.3588 H   0  0  0  0  0  0
  -28.4661  -13.6538   21.8393 H   0  0  0  0  0  0
  -25.2749   -9.5674   22.4727 H   0  0  0  0  0  0
  -23.9984   -7.4633   22.7472 H   0  0  0  0  0  0
  -21.0810   -8.8716   19.8968 H   0  0  0  0  0  0
  -22.3646  -10.9618   19.6141 H   0  0  0  0  0  0
  -21.1986   -7.6122   23.9676 H   0  0  0  0  0  0
  -21.1495   -6.0523   25.9066 H   0  0  0  0  0  0
  -22.0598   -2.7574   23.2888 H   0  0  0  0  0  0
  -22.4135  -11.9859   22.4810 H   0  0  0  0  0  0
  -21.1097  -13.1176   22.2661 H   0  0  0  0  0  0
  -24.6524  -15.8361   20.5144 H   0  0  0  0  0  0
  -26.2694  -15.6177   20.0709 H   0  0  0  0  0  0
  -26.7144  -32.5522   23.1160 H   0  0  0  0  0  0
  -25.0068  -33.9760   25.0499 H   0  0  0  0  0  0
  -22.6927  -31.3156   21.4162 H   0  0  0  0  0  0
  -23.3745  -35.9662   23.3307 H   0  0  0  0  0  0
  -24.3583  -36.8918   22.2051 H   0  0  0  0  0  0
  -23.7259  -37.6539   23.6640 H   0  0  0  0  0  0
  -26.0502  -31.5943   20.5985 H   0  0  0  0  0  0
  -26.8186  -30.8777   21.9849 H   0  0  0  0  0  0
  -28.0927  -29.0794   21.1666 H   0  0  0  0  0  0
  -26.0041  -26.0137   18.9276 H   0  0  0  0  0  0
  -23.9626  -27.3266   19.0026 H   0  0  0  0  0  0
  -23.7266  -30.6163   19.4066 H   0  0  0  0  0  0
  -22.7327  -29.2650   19.8606 H   0  0  0  0  0  0
  -25.1276  -36.1980   25.0843 H   0  0  0  0  0  0
  -20.9925  -28.3252   24.1439 H   0  0  0  0  0  0
  -20.5672  -26.2302   23.3592 H   0  0  0  0  0  0
  -21.6634  -26.7490   22.1195 H   0  0  0  0  0  0
  -19.6916  -25.6315   21.1223 H   0  0  0  0  0  0
  -19.6678  -27.3218   20.6738 H   0  0  0  0  0  0
  -17.4187  -26.6653   21.4022 H   0  0  0  0  0  0
  -18.0337  -26.0083   22.9031 H   0  0  0  0  0  0
  -19.7927  -30.7231   24.2323 H   0  0  0  0  0  0
  -17.5017  -31.6271   24.5160 H   0  0  0  0  0  0
  -15.5346  -30.3011   23.7626 H   0  0  0  0  0  0
  -15.8649  -28.0830   22.7068 H   0  0  0  0  0  0
  -24.5905  -30.7018   25.7825 H   0  0  0  0  0  0
  -24.8926  -32.2842   26.4931 H   0  0  0  0  0  0
  -25.8088  -30.8853   27.0243 H   0  0  0  0  0  0
  -26.2883  -29.6776   24.1136 H   0  0  0  0  0  0
  -27.4125  -29.7251   25.4508 H   0  0  0  0  0  0
  -27.8676  -30.4358   23.9212 H   0  0  0  0  0  0
  -27.2689  -33.3567   26.2073 H   0  0  0  0  0  0
  -28.3835  -32.6852   25.0275 H   0  0  0  0  0  0
  -28.0755  -31.8394   26.5353 H   0  0  0  0  0  0
  -28.2614  -38.0105   24.7490 H   0  0  0  0  0  0
  -28.1058  -36.2638   24.6316 H   0  0  0  0  0  0
  -27.2292  -37.1485   25.8873 H   0  0  0  0  0  0
  -20.9327  -29.8819   21.6956 H   0  0  0  0  0  0
  -26.0190  -38.2879   24.1393 H   0  0  0  0  0  0
  -30.8494  -17.7139   22.3113 H   0  0  0  0  0  0
  -30.9785  -20.0292   22.9037 H   0  0  0  0  0  0
  -27.9501  -20.9943   19.9997 H   0  0  0  0  0  0
  -28.8377  -26.3146   22.3763 H   0  0  0  0  0  0
  -28.2528  -23.4362   24.0052 H   0  0  0  0  0  0
  -29.6012  -23.4135   25.1175 H   0  0  0  0  0  0
  -29.7772  -21.4439   23.9300 H   0  0  0  0  0  0
  -31.0460  -22.4301   23.2447 H   0  0  0  0  0  0
  -28.8942  -22.8298   20.0739 H   0  0  0  0  0  0
  -31.0294  -23.8542   19.4665 H   0  0  0  0  0  0
  -31.2834  -22.1999   19.9732 H   0  0  0  0  0  0
  -31.6821  -23.5317   21.0666 H   0  0  0  0  0  0
  -26.1234  -19.1587   17.5142 H   0  0  0  0  0  0
  -27.3049  -20.3830   17.9193 H   0  0  0  0  0  0
  -26.0224  -19.9747   19.0668 H   0  0  0  0  0  0
  -26.9795  -17.6610   19.2932 H   0  0  0  0  0  0
  -28.2472  -18.0666   18.1575 H   0  0  0  0  0  0
  -29.3224  -16.3035   19.3877 H   0  0  0  0  0  0
  -28.1739  -16.1508   20.7099 H   0  0  0  0  0  0
  -27.3634  -24.8351   19.9508 H   0  0  0  0  0  0
  -28.8611  -24.9894   19.0664 H   0  0  0  0  0  0
  -30.7349  -16.0329   21.7534 H   0  0  0  0  0  0
  1 25  1  0  0  0
  1 30  2  0  0  0
  1 89  1  0  0  0
  2  3  1  0  0  0
  2 25  1  0  0  0
  2 91  1  0  0  0
  2 92  1  0  0  0
  3  4  1  0  0  0
  3 93  1  0  0  0
  3 94  1  0  0  0
  4  5  1  0  0  0
  4 95  1  0  0  0
  4 96  1  0  0  0
  5  6  1  0  0  0
  5 26  1  0  0  0
  5 97  1  0  0  0
  6 25  1  0  0  0
  6 98  1  0  0  0
  6 99  1  0  0  0
  7  8  2  0  0  0
  7 26  1  0  0  0
  7 29  1  0  0  0
  8  9  1  0  0  0
  8 22  1  0  0  0
  9 10  1  0  0  0
  9 27  2  0  0  0
 10 11  2  0  0  0
 10 15  1  0  0  0
 11 12  1  0  0  0
 11100  1  0  0  0
 12 13  2  0  0  0
 12101  1  0  0  0
 13 14  1  0  0  0
 13 31  1  0  0  0
 14 15  2  0  0  0
 14102  1  0  0  0
 15103  1  0  0  0
 16 17  2  0  0  0
 16 21  1  0  0  0
 16 31  1  0  0  0
 17 18  1  0  0  0
 17104  1  0  0  0
 18 19  2  0  0  0
 18105  1  0  0  0
 19 20  1  0  0  0
 19 24  1  0  0  0
 20 21  2  0  0  0
 20106  1  0  0  0
 21 23  1  0  0  0
 22 28  1  0  0  0
 22 32  2  0  0  0
 26 27  1  0  0  0
 28107  1  0  0  0
 28108  1  0  0  0
 29109  1  0  0  0
 29110  1  0  0  0
 33 34  1  0  0  0
 33 66  1  0  0  0
 33 70  2  0  0  0
 34 36  1  0  0  0
 34 59  1  0  0  0
 34111  1  0  0  0
 35 44  2  0  0  0
 35 45  1  0  0  0
 35 68  1  0  0  0
 36 56  1  0  0  0
 36112  1  0  0  0
 37 39  1  0  0  0
 37 47  1  0  0  0
 37 66  1  0  0  0
 37113  1  0  0  0
 38 43  2  0  0  0
 38 46  1  0  0  0
 38 47  1  0  0  0
 39 64  1  0  0  0
 39 67  2  0  0  0
 40 52  1  0  0  0
 40 53  2  0  0  0
 40 58  1  0  0  0
 41114  1  0  0  0
 41115  1  0  0  0
 41116  1  0  0  0
 41 48  1  0  0  0
 42 43  1  0  0  0
 42 66  1  0  0  0
 42117  1  0  0  0
 42118  1  0  0  0
 43 44  1  0  0  0
 44119  1  0  0  0
 45 46  2  0  0  0
 45120  1  0  0  0
 46121  1  0  0  0
 47122  1  0  0  0
 47123  1  0  0  0
 48 56  1  0  0  0
 48 65  1  0  0  0
 48124  1  0  0  0
 49 50  1  0  0  0
 49 53  1  0  0  0
 49 64  1  0  0  0
 49125  1  0  0  0
 50 51  1  0  0  0
 50126  1  0  0  0
 50127  1  0  0  0
 51 52  1  0  0  0
 51128  1  0  0  0
 51129  1  0  0  0
 52130  1  0  0  0
 52131  1  0  0  0
 53 54  1  0  0  0
 54 55  2  0  0  0
 54132  1  0  0  0
 55 57  1  0  0  0
 55133  1  0  0  0
 56 69  2  0  0  0
 57 58  2  0  0  0
 57134  1  0  0  0
 58135  1  0  0  0
 59 60  1  0  0  0
 59 61  1  0  0  0
 59 62  1  0  0  0
 60136  1  0  0  0
 60137  1  0  0  0
 60138  1  0  0  0
 61139  1  0  0  0
 61140  1  0  0  0
 61141  1  0  0  0
 62142  1  0  0  0
 62143  1  0  0  0
 62144  1  0  0  0
 63 65  1  0  0  0
 63145  1  0  0  0
 63146  1  0  0  0
 63147  1  0  0  0
 64148  1  0  0  0
 65149  1  0  0  0
 68 87  1  0  0  0
 71 72  2  0  0  0
 71 74  1  0  0  0
 71150  1  0  0  0
 72 76  1  0  0  0
 72151  1  0  0  0
 73 75  1  0  0  0
 73 76  2  0  0  0
 73152  1  0  0  0
 74 75  2  0  0  0
 74 86  1  0  0  0
 75 85  1  0  0  0
 76 88  1  0  0  0
 77 78  2  0  0  0
 77 79  1  0  0  0
 77153  1  0  0  0
 78 82  1  0  0  0
 78 87  1  0  0  0
 79 80  1  0  0  0
 79 90  2  0  0  0
 80 81  1  0  0  0
 80154  1  0  0  0
 80155  1  0  0  0
 81 88  1  0  0  0
 81156  1  0  0  0
 81157  1  0  0  0
 82 83  1  0  0  0
 82 88  1  0  0  0
 82158  1  0  0  0
 83159  1  0  0  0
 83160  1  0  0  0
 83161  1  0  0  0
 84 85  1  0  0  0
 84162  1  0  0  0
 84163  1  0  0  0
 84164  1  0  0  0
 85165  1  0  0  0
 85166  1  0  0  0
 86 89  1  0  0  0
 86167  1  0  0  0
 86168  1  0  0  0
 87169  1  0  0  0
 87170  1  0  0  0
 89171  1  0  0  0
M  ISO  4   1 100  68 101  87 101  89 100
M  END
> <chiral flag>
0

> <version>
0

> <s_m_source_file>
/data/baiqing/PycharmProjects/Reinvent-master-3.2/result/LINK_invent/BTK/process_docking_weight1_custom_product_contain_oxygen_bond_distance_aromatic_linkinvent_7_9_3/rearranged_h_0109.sdf

> <i_m_source_file_index>
37

> <r_mmod_Potential_Energy-OPLS-2005>
-33.6952972412109

> <r_mmod_Stretch_Energy-OPLS-2005>
48.8640441894531

> <r_mmod_Bend_Energy-OPLS-2005>
136.389755249023

> <r_mmod_Torsional_Energy-OPLS-2005>
273.477630615234

> <r_mmod_Improper_Torsional_Energy-OPLS-2005>
8.94639301300049

> <r_mmod_Van_der_Waal_Energy-OPLS-2005>
171.695129394531

> <r_mmod_Electrostatic_Energy-OPLS-2005>
-463.787078857422

> <r_mmod_Solvation_Energy-OPLS-2005>
-225.035766601562

> <b_mmod_Minimization_Converged-OPLS-2005>
0

> <r_mmod_RMS_Derivative-OPLS-2005>
3.45902061462402

$$$$
37
                    3D
 Structure written by MMmdl.
151159  0  0  1  0            999 V2000
  -30.5303  -15.0201   20.3826 C   0  0  0  0  0  0
  -30.4361  -12.6333   19.5065 C   0  0  0  0  0  0
  -29.5234  -12.5339   18.2622 C   0  0  0  0  0  0
  -28.0590  -12.3115   18.6820 C   0  0  0  0  0  0
  -27.6239  -13.2572   19.8316 C   0  0  2  0  0  0
  -28.6653  -13.3281   20.9681 C   0  0  0  0  0  0
  -25.2441  -13.8234   20.5721 C   0  0  0  0  0  0
  -24.1768  -13.0445   20.9239 C   0  0  0  0  0  0
  -24.6397  -11.6933   20.8758 C   0  0  0  0  0  0
  -23.9085  -10.4297   21.0410 C   0  0  0  0  0  0
  -24.3632   -9.4208   21.9185 C   0  0  0  0  0  0
  -23.6299   -8.2245   22.0754 C   0  0  0  0  0  0
  -22.4279   -8.0286   21.3547 C   0  0  0  0  0  0
  -21.9920   -9.0263   20.4650 C   0  0  0  0  0  0
  -22.7256  -10.2139   20.3060 C   0  0  0  0  0  0
  -21.6856   -6.0738   22.5277 C   0  0  0  0  0  0
  -21.4018   -6.5641   23.8212 C   0  0  0  0  0  0
  -21.3659   -5.6793   24.9172 C   0  0  0  0  0  0
  -21.6042   -4.3055   24.7223 C   0  0  0  0  0  0
  -21.8819   -3.8148   23.4345 C   0  0  0  0  0  0
  -21.9194   -4.6966   22.3400 C   0  0  0  0  0  0
  -22.7787  -13.5207   21.1887 C   0  0  0  0  0  0
  -22.1662   -4.2151   21.0979 F   0  0  0  0  0  0
  -21.5627   -3.4539   25.7738 F   0  0  0  0  0  0
  -29.9312  -13.7540   20.3587 N   0  0  0  0  0  0
  -26.2864  -12.9479   20.3228 N   0  0  0  0  0  0
  -25.9331  -11.6601   20.5734 N   0  0  0  0  0  0
  -22.0442  -12.8194   22.0444 N   0  0  0  0  0  0
  -25.4095  -15.1964   20.4149 N   0  0  0  0  0  0
  -31.7501  -15.0219   20.1883 O   0  0  0  0  0  0
  -21.6643   -6.8881   21.4239 O   0  0  0  0  0  0
  -22.3466  -14.5508   20.6727 O   0  0  0  0  0  0
  -24.6490  -31.8394   23.1846 C   0  0  0  0  0  0
  -25.9240  -32.4670   23.8252 C   0  0  1  0  0  0
  -27.2101  -27.0792   20.1650 C   0  0  0  0  0  0
  -25.5964  -33.8477   24.2164 N   0  0  0  0  0  0
  -23.4552  -30.4582   21.5313 C   0  0  2  0  0  0
  -24.9047  -28.8758   20.1129 C   0  0  0  0  0  0
  -22.7595  -29.4527   22.4838 C   0  0  0  0  0  0
  -18.0313  -28.1403   22.8473 C   0  0  0  0  0  0
  -24.1494  -36.7247   23.2643 C   0  0  0  0  0  0
  -26.0160  -30.6943   21.3940 C   0  0  0  0  0  0
  -26.0850  -29.2999   20.7371 C   0  0  0  0  0  0
  -27.2399  -28.4200   20.7427 C   0  0  0  0  0  0
  -26.0081  -26.7779   19.4879 C   0  0  0  0  0  0
  -24.8829  -27.6302   19.4700 C   0  0  0  0  0  0
  -23.6853  -29.7860   20.1522 C   0  0  0  0  0  0
  -25.4128  -36.3016   24.0310 C   0  0  1  0  0  0
  -20.5928  -28.3735   23.1220 C   0  0  2  0  0  0
  -20.6796  -26.9432   22.5402 C   0  0  0  0  0  0
  -19.5768  -26.6382   21.5214 C   0  0  0  0  0  0
  -18.1950  -26.7939   22.1624 C   0  0  0  0  0  0
  -19.1570  -28.8888   23.2837 C   0  0  0  0  0  0
  -18.9483  -30.1482   23.8866 C   0  0  0  0  0  0
  -17.6478  -30.6595   24.0559 C   0  0  0  0  0  0
  -25.9081  -34.9393   23.5048 C   0  0  0  0  0  0
  -16.5369  -29.9084   23.6339 C   0  0  0  0  0  0
  -16.7296  -28.6506   23.0354 C   0  0  0  0  0  0
  -26.4534  -31.6561   25.0722 C   0  0  0  0  0  0
  -25.3698  -31.3772   26.1403 C   0  0  0  0  0  0
  -27.0412  -30.2945   24.6362 C   0  0  0  0  0  0
  -27.6049  -32.4344   25.7514 C   0  0  0  0  0  0
  -27.5575  -37.1783   24.8464 C   0  0  0  0  0  0
  -21.4281  -29.3052   22.3585 N   0  0  0  0  0  0
  -26.4288  -37.3734   23.9402 N   0  0  0  0  0  0
  -24.7268  -31.0200   22.0910 N   0  0  0  0  0  0
  -23.4212  -28.8079   23.3012 O   0  0  0  0  0  0
  -28.2392  -26.0499   20.2038 O   0  0  0  0  0  0
  -26.5670  -34.8899   22.4630 O   0  0  0  0  0  0
  -23.5597  -32.1296   23.7033 O   0  0  0  0  0  0
  -30.3738  -20.5225   19.0713 C   0  0  0  0  0  0
  -31.0380  -19.4077   18.5236 C   0  0  0  0  0  0
  -29.2473  -18.9706   20.5422 C   0  0  0  0  0  0
  -29.4058  -20.3998   20.0817 C   0  0  0  0  0  0
  -30.8233  -18.0680   18.9346 C   0  0  0  0  0  0
  -29.9603  -17.7417   20.0288 C   0  0  0  0  0  0
  -28.6670  -21.7907   20.4916 C   0  0  0  0  0  0
  -28.7712  -23.1682   20.0889 C   0  0  0  0  0  0
  -31.5169  -17.0245   18.0732 C   0  0  0  0  0  0
  -27.8935  -24.5320   20.4883 C   0  0  0  0  0  0
  -29.7662  -16.2453   20.4589 N   0  0  0  0  0  0
  -31.4683  -12.7914   19.1907 H   0  0  0  0  0  0
  -30.4379  -11.6950   20.0634 H   0  0  0  0  0  0
  -29.8543  -11.7232   17.6118 H   0  0  0  0  0  0
  -29.6027  -13.4503   17.6751 H   0  0  0  0  0  0
  -27.9661  -11.2743   19.0058 H   0  0  0  0  0  0
  -27.3953  -12.4234   17.8240 H   0  0  0  0  0  0
  -27.5742  -14.2500   19.3834 H   0  0  0  0  0  0
  -28.7702  -12.3656   21.4710 H   0  0  0  0  0  0
  -28.3542  -14.0447   21.7298 H   0  0  0  0  0  0
  -25.2777   -9.5683   22.4762 H   0  0  0  0  0  0
  -24.0009   -7.4636   22.7474 H   0  0  0  0  0  0
  -21.0850   -8.8785   19.8958 H   0  0  0  0  0  0
  -22.3711  -10.9680   19.6172 H   0  0  0  0  0  0
  -21.2012   -7.6151   23.9714 H   0  0  0  0  0  0
  -21.1480   -6.0525   25.9075 H   0  0  0  0  0  0
  -22.0597   -2.7610   23.2845 H   0  0  0  0  0  0
  -22.4072  -11.9867   22.4843 H   0  0  0  0  0  0
  -21.1056  -13.1209   22.2649 H   0  0  0  0  0  0
  -24.6389  -15.8464   20.5273 H   0  0  0  0  0  0
  -26.2476  -15.6372   20.0582 H   0  0  0  0  0  0
  -26.7307  -32.5256   23.0975 H   0  0  0  0  0  0
  -25.0074  -33.9582   25.0287 H   0  0  0  0  0  0
  -22.7608  -31.2861   21.3737 H   0  0  0  0  0  0
  -23.3760  -35.9576   23.3295 H   0  0  0  0  0  0
  -24.3573  -36.8895   22.2060 H   0  0  0  0  0  0
  -23.7252  -37.6439   23.6693 H   0  0  0  0  0  0
  -26.1814  -31.4457   20.6207 H   0  0  0  0  0  0
  -26.8825  -30.7432   22.0416 H   0  0  0  0  0  0
  -28.1386  -28.7411   21.2505 H   0  0  0  0  0  0
  -25.9097  -25.8378   18.9665 H   0  0  0  0  0  0
  -23.9874  -27.3053   18.9582 H   0  0  0  0  0  0
  -23.8289  -30.5599   19.3973 H   0  0  0  0  0  0
  -22.7982  -29.2331   19.8382 H   0  0  0  0  0  0
  -25.1322  -36.1833   25.0803 H   0  0  0  0  0  0
  -21.0021  -28.3333   24.1342 H   0  0  0  0  0  0
  -20.5691  -26.2349   23.3627 H   0  0  0  0  0  0
  -21.6660  -26.7429   22.1200 H   0  0  0  0  0  0
  -19.6927  -25.6283   21.1266 H   0  0  0  0  0  0
  -19.6707  -27.3173   20.6729 H   0  0  0  0  0  0
  -17.4217  -26.6681   21.4030 H   0  0  0  0  0  0
  -18.0349  -26.0091   22.9031 H   0  0  0  0  0  0
  -19.7957  -30.7310   24.2219 H   0  0  0  0  0  0
  -17.5028  -31.6271   24.5168 H   0  0  0  0  0  0
  -15.5367  -30.2973   23.7685 H   0  0  0  0  0  0
  -15.8697  -28.0816   22.7081 H   0  0  0  0  0  0
  -24.5879  -30.7121   25.7717 H   0  0  0  0  0  0
  -24.8887  -32.2963   26.4758 H   0  0  0  0  0  0
  -25.7960  -30.8983   27.0228 H   0  0  0  0  0  0
  -26.3051  -29.6652   24.1348 H   0  0  0  0  0  0
  -27.3967  -29.7268   25.4971 H   0  0  0  0  0  0
  -27.8983  -30.4159   23.9735 H   0  0  0  0  0  0
  -27.2626  -33.3663   26.2026 H   0  0  0  0  0  0
  -28.3894  -32.6879   25.0371 H   0  0  0  0  0  0
  -28.0682  -31.8517   26.5487 H   0  0  0  0  0  0
  -28.2587  -38.0083   24.7500 H   0  0  0  0  0  0
  -28.1076  -36.2611   24.6306 H   0  0  0  0  0  0
  -27.2288  -37.1446   25.8866 H   0  0  0  0  0  0
  -20.9503  -29.8756   21.6747 H   0  0  0  0  0  0
  -26.0151  -38.2802   24.1396 H   0  0  0  0  0  0
  -30.5962  -21.4962   18.6588 H   0  0  0  0  0  0
  -31.7244  -19.6004   17.7105 H   0  0  0  0  0  0
  -28.5224  -18.8083   21.3269 H   0  0  0  0  0  0
  -27.8950  -21.6211   21.2296 H   0  0  0  0  0  0
  -29.5296  -23.3879   19.3521 H   0  0  0  0  0  0
  -31.7388  -17.4193   17.0811 H   0  0  0  0  0  0
  -30.8890  -16.1498   17.9094 H   0  0  0  0  0  0
  -32.4674  -16.7277   18.5149 H   0  0  0  0  0  0
  -27.7307  -24.4679   21.5645 H   0  0  0  0  0  0
  -26.9123  -24.3276   20.0669 H   0  0  0  0  0  0
  -28.8371  -16.0612   20.8072 H   0  0  0  0  0  0
  1 25  1  0  0  0
  1 30  2  0  0  0
  1 81  1  0  0  0
  2  3  1  0  0  0
  2 25  1  0  0  0
  2 82  1  0  0  0
  2 83  1  0  0  0
  3  4  1  0  0  0
  3 84  1  0  0  0
  3 85  1  0  0  0
  4  5  1  0  0  0
  4 86  1  0  0  0
  4 87  1  0  0  0
  5  6  1  0  0  0
  5 26  1  0  0  0
  5 88  1  0  0  0
  6 25  1  0  0  0
  6 89  1  0  0  0
  6 90  1  0  0  0
  7  8  2  0  0  0
  7 26  1  0  0  0
  7 29  1  0  0  0
  8  9  1  0  0  0
  8 22  1  0  0  0
  9 10  1  0  0  0
  9 27  2  0  0  0
 10 11  2  0  0  0
 10 15  1  0  0  0
 11 12  1  0  0  0
 11 91  1  0  0  0
 12 13  2  0  0  0
 12 92  1  0  0  0
 13 14  1  0  0  0
 13 31  1  0  0  0
 14 15  2  0  0  0
 14 93  1  0  0  0
 15 94  1  0  0  0
 16 17  2  0  0  0
 16 21  1  0  0  0
 16 31  1  0  0  0
 17 18  1  0  0  0
 17 95  1  0  0  0
 18 19  2  0  0  0
 18 96  1  0  0  0
 19 20  1  0  0  0
 19 24  1  0  0  0
 20 21  2  0  0  0
 20 97  1  0  0  0
 21 23  1  0  0  0
 22 28  1  0  0  0
 22 32  2  0  0  0
 26 27  1  0  0  0
 28 98  1  0  0  0
 28 99  1  0  0  0
 29100  1  0  0  0
 29101  1  0  0  0
 33 34  1  0  0  0
 33 66  1  0  0  0
 33 70  2  0  0  0
 34 36  1  0  0  0
 34 59  1  0  0  0
 34102  1  0  0  0
 35 44  2  0  0  0
 35 45  1  0  0  0
 35 68  1  0  0  0
 36 56  1  0  0  0
 36103  1  0  0  0
 37 39  1  0  0  0
 37 47  1  0  0  0
 37 66  1  0  0  0
 37104  1  0  0  0
 38 43  2  0  0  0
 38 46  1  0  0  0
 38 47  1  0  0  0
 39 64  1  0  0  0
 39 67  2  0  0  0
 40 52  1  0  0  0
 40 53  2  0  0  0
 40 58  1  0  0  0
 41105  1  0  0  0
 41106  1  0  0  0
 41107  1  0  0  0
 41 48  1  0  0  0
 42 43  1  0  0  0
 42 66  1  0  0  0
 42108  1  0  0  0
 42109  1  0  0  0
 43 44  1  0  0  0
 44110  1  0  0  0
 45 46  2  0  0  0
 45111  1  0  0  0
 46112  1  0  0  0
 47113  1  0  0  0
 47114  1  0  0  0
 48 56  1  0  0  0
 48 65  1  0  0  0
 48115  1  0  0  0
 49 50  1  0  0  0
 49 53  1  0  0  0
 49 64  1  0  0  0
 49116  1  0  0  0
 50 51  1  0  0  0
 50117  1  0  0  0
 50118  1  0  0  0
 51 52  1  0  0  0
 51119  1  0  0  0
 51120  1  0  0  0
 52121  1  0  0  0
 52122  1  0  0  0
 53 54  1  0  0  0
 54 55  2  0  0  0
 54123  1  0  0  0
 55 57  1  0  0  0
 55124  1  0  0  0
 56 69  2  0  0  0
 57 58  2  0  0  0
 57125  1  0  0  0
 58126  1  0  0  0
 59 60  1  0  0  0
 59 61  1  0  0  0
 59 62  1  0  0  0
 60127  1  0  0  0
 60128  1  0  0  0
 60129  1  0  0  0
 61130  1  0  0  0
 61131  1  0  0  0
 61132  1  0  0  0
 62133  1  0  0  0
 62134  1  0  0  0
 62135  1  0  0  0
 63 65  1  0  0  0
 63136  1  0  0  0
 63137  1  0  0  0
 63138  1  0  0  0
 64139  1  0  0  0
 65140  1  0  0  0
 68 80  1  0  0  0
 71 72  2  0  0  0
 71 74  1  0  0  0
 71141  1  0  0  0
 72 75  1  0  0  0
 72142  1  0  0  0
 73 74  2  0  0  0
 73 76  1  0  0  0
 73143  1  0  0  0
 74 77  1  0  0  0
 75 76  2  0  0  0
 75 79  1  0  0  0
 76 81  1  0  0  0
 77 78  2  0  0  0
 77144  1  0  0  0
 78 80  1  0  0  0
 78145  1  0  0  0
 79146  1  0  0  0
 79147  1  0  0  0
 79148  1  0  0  0
 80149  1  0  0  0
 80150  1  0  0  0
 81151  1  0  0  0
M  ISO  4   1 100  68 101  80 101  81 100
M  END
> <chiral flag>
0

> <version>
0

> <s_m_source_file>
/data/baiqing/PycharmProjects/Reinvent-master-3.2/result/LINK_invent/BTK/process_docking_weight1_custom_product_contain_oxygen_bond_distance_aromatic_linkinvent_7_9_3/rearranged_h_0109.sdf

> <i_m_source_file_index>
38

> <r_mmod_Potential_Energy-OPLS-2005>
638.435302734375

> <r_mmod_Stretch_Energy-OPLS-2005>
322.438598632812

> <r_mmod_Bend_Energy-OPLS-2005>
262.934051513672

> <r_mmod_Torsional_Energy-OPLS-2005>
243.794143676758

> <r_mmod_Improper_Torsional_Energy-OPLS-2005>
4.23120641708374

> <r_mmod_Van_der_Waal_Energy-OPLS-2005>
139.681350708008

> <r_mmod_Electrostatic_Energy-OPLS-2005>
-375.69482421875

> <r_mmod_Solvation_Energy-OPLS-2005>
-205.498428344727

> <b_mmod_Minimization_Converged-OPLS-2005>
0

> <r_mmod_RMS_Derivative-OPLS-2005>
0.500337719917297

$$$$
38
                    3D
 Structure written by MMmdl.
165174  0  0  1  0            999 V2000
  -30.6861  -14.7505   20.3942 C   0  0  0  0  0  0
  -30.4293  -12.4613   19.4124 C   0  0  0  0  0  0
  -29.4772  -12.4466   18.1946 C   0  0  0  0  0  0
  -28.0183  -12.2862   18.6450 C   0  0  0  0  0  0
  -27.6389  -13.2270   19.8181 C   0  0  2  0  0  0
  -28.7078  -13.2376   20.9344 C   0  0  0  0  0  0
  -25.2609  -13.8184   20.5673 C   0  0  0  0  0  0
  -24.1907  -13.0416   20.9168 C   0  0  0  0  0  0
  -24.6469  -11.6906   20.8727 C   0  0  0  0  0  0
  -23.9107  -10.4299   21.0379 C   0  0  0  0  0  0
  -24.3653   -9.4232   21.9164 C   0  0  0  0  0  0
  -23.6335   -8.2263   22.0761 C   0  0  0  0  0  0
  -22.4306   -8.0315   21.3558 C   0  0  0  0  0  0
  -21.9942   -9.0263   20.4641 C   0  0  0  0  0  0
  -22.7262  -10.2152   20.3036 C   0  0  0  0  0  0
  -21.6873   -6.0783   22.5267 C   0  0  0  0  0  0
  -21.4030   -6.5661   23.8221 C   0  0  0  0  0  0
  -21.3653   -5.6798   24.9161 C   0  0  0  0  0  0
  -21.6045   -4.3062   24.7199 C   0  0  0  0  0  0
  -21.8815   -3.8180   23.4305 C   0  0  0  0  0  0
  -21.9212   -4.7006   22.3388 C   0  0  0  0  0  0
  -22.7923  -13.5232   21.1768 C   0  0  0  0  0  0
  -22.1685   -4.2208   21.0960 F   0  0  0  0  0  0
  -21.5606   -3.4524   25.7699 F   0  0  0  0  0  0
  -29.9909  -13.5619   20.3022 N   0  0  0  0  0  0
  -26.3013  -12.9375   20.3231 N   0  0  0  0  0  0
  -25.9405  -11.6519   20.5768 N   0  0  0  0  0  0
  -22.0545  -12.8266   22.0332 N   0  0  0  0  0  0
  -25.4222  -15.1916   20.4112 N   0  0  0  0  0  0
  -31.9166  -14.7249   20.3973 O   0  0  0  0  0  0
  -21.6663   -6.8914   21.4254 O   0  0  0  0  0  0
  -22.3617  -14.5498   20.6569 O   0  0  0  0  0  0
  -24.6252  -31.8644   23.2055 C   0  0  0  0  0  0
  -25.9095  -32.4829   23.8412 C   0  0  1  0  0  0
  -27.2262  -27.3355   20.1065 C   0  0  0  0  0  0
  -25.5914  -33.8628   24.2348 N   0  0  0  0  0  0
  -23.4180  -30.4908   21.5479 C   0  0  2  0  0  0
  -24.8630  -28.9499   20.1138 C   0  0  0  0  0  0
  -22.7466  -29.4643   22.4907 C   0  0  0  0  0  0
  -18.0289  -28.1382   22.8467 C   0  0  0  0  0  0
  -24.1474  -36.7336   23.2623 C   0  0  0  0  0  0
  -25.9579  -30.8075   21.3664 C   0  0  0  0  0  0
  -26.0326  -29.4321   20.7119 C   0  0  0  0  0  0
  -27.2137  -28.6355   20.6978 C   0  0  0  0  0  0
  -26.0233  -26.8986   19.4990 C   0  0  0  0  0  0
  -24.8590  -27.6866   19.5068 C   0  0  0  0  0  0
  -23.6343  -29.8334   20.1612 C   0  0  0  0  0  0
  -25.4084  -36.3118   24.0341 C   0  0  1  0  0  0
  -20.5891  -28.3685   23.1284 C   0  0  2  0  0  0
  -20.6780  -26.9406   22.5417 C   0  0  0  0  0  0
  -19.5762  -26.6374   21.5211 C   0  0  0  0  0  0
  -18.1931  -26.7927   22.1608 C   0  0  0  0  0  0
  -19.1535  -28.8840   23.2882 C   0  0  0  0  0  0
  -18.9458  -30.1439   23.8911 C   0  0  0  0  0  0
  -17.6459  -30.6575   24.0572 C   0  0  0  0  0  0
  -25.9018  -34.9479   23.5136 C   0  0  0  0  0  0
  -16.5358  -29.9084   23.6306 C   0  0  0  0  0  0
  -16.7280  -28.6503   23.0315 C   0  0  0  0  0  0
  -26.4474  -31.6605   25.0761 C   0  0  0  0  0  0
  -25.3720  -31.3776   26.1511 C   0  0  0  0  0  0
  -27.0274  -30.3026   24.6156 C   0  0  0  0  0  0
  -27.6045  -32.4313   25.7542 C   0  0  0  0  0  0
  -27.5583  -37.1808   24.8440 C   0  0  0  0  0  0
  -21.4166  -29.3076   22.3689 N   0  0  0  0  0  0
  -26.4270  -37.3807   23.9422 N   0  0  0  0  0  0
  -24.6875  -31.0688   22.0990 N   0  0  0  0  0  0
  -23.4204  -28.8132   23.2937 O   0  0  0  0  0  0
  -28.3794  -26.5410   20.1852 O   0  0  0  0  0  0
  -26.5559  -34.8922   22.4689 O   0  0  0  0  0  0
  -23.5422  -32.1406   23.7389 O   0  0  0  0  0  0
  -29.6729  -19.1906   21.8403 C   0  0  0  0  0  0
  -29.6694  -18.3129   19.2476 C   0  0  0  0  0  0
  -29.9268  -17.7975   21.5572 C   0  0  0  0  0  0
  -29.4394  -20.2038   20.8499 C   0  0  0  0  0  0
  -29.9060  -17.2824   20.2202 C   0  0  0  0  0  0
  -29.5152  -19.6971   19.5283 C   0  0  0  0  0  0
  -29.0199  -24.0032   20.4361 C   0  0  0  0  0  0
  -28.6671  -22.6694   20.3361 C   0  0  0  0  0  0
  -29.9761  -24.3405   21.4979 C   0  0  0  0  0  0
  -29.8035  -23.5179   22.7671 C   0  0  0  0  0  0
  -29.7197  -21.9974   22.4891 C   0  0  0  0  0  0
  -30.2757  -16.9029   22.7289 C   0  0  0  0  0  0
  -27.5394  -22.2591   19.3993 C   0  0  0  0  0  0
  -30.4026  -15.7796   18.3080 C   0  0  0  0  0  0
  -28.4874  -25.2034   19.5698 C   0  0  0  0  0  0
  -29.2139  -21.6162   21.1554 N   0  0  0  0  0  0
  -30.1189  -15.8607   19.7612 N   0  0  0  0  0  0
  -30.8391  -25.2240   21.4275 O   0  0  0  0  0  0
  -29.4795  -20.5422   18.4702 F   0  0  0  0  0  0
  -31.4571  -12.6048   19.0694 H   0  0  0  0  0  0
  -30.4117  -11.5024   19.9337 H   0  0  0  0  0  0
  -29.7456  -11.6520   17.4940 H   0  0  0  0  0  0
  -29.5521  -13.3614   17.6149 H   0  0  0  0  0  0
  -27.8924  -11.2456   18.9407 H   0  0  0  0  0  0
  -27.3437  -12.4457   17.8007 H   0  0  0  0  0  0
  -27.6067  -14.2268   19.3865 H   0  0  0  0  0  0
  -28.7638  -12.2767   21.4445 H   0  0  0  0  0  0
  -28.4626  -13.9846   21.6924 H   0  0  0  0  0  0
  -25.2795   -9.5742   22.4725 H   0  0  0  0  0  0
  -24.0056   -7.4689   22.7478 H   0  0  0  0  0  0
  -21.0877   -8.8762   19.8964 H   0  0  0  0  0  0
  -22.3689  -10.9684   19.6160 H   0  0  0  0  0  0
  -21.2027   -7.6167   23.9726 H   0  0  0  0  0  0
  -21.1471   -6.0527   25.9072 H   0  0  0  0  0  0
  -22.0603   -2.7640   23.2764 H   0  0  0  0  0  0
  -22.4199  -12.0025   22.4864 H   0  0  0  0  0  0
  -21.1114  -13.1302   22.2309 H   0  0  0  0  0  0
  -24.6408  -15.8268   20.5315 H   0  0  0  0  0  0
  -26.2745  -15.6586   20.1263 H   0  0  0  0  0  0
  -26.7184  -32.5509   23.1187 H   0  0  0  0  0  0
  -25.0142  -33.9832   25.0545 H   0  0  0  0  0  0
  -22.7133  -31.3132   21.4035 H   0  0  0  0  0  0
  -23.3744  -35.9662   23.3246 H   0  0  0  0  0  0
  -24.3589  -36.8992   22.2052 H   0  0  0  0  0  0
  -23.7216  -37.6524   23.6658 H   0  0  0  0  0  0
  -26.0651  -31.5712   20.5930 H   0  0  0  0  0  0
  -26.8516  -30.8741   21.9756 H   0  0  0  0  0  0
  -28.1164  -29.0027   21.1659 H   0  0  0  0  0  0
  -25.9171  -25.9364   19.0295 H   0  0  0  0  0  0
  -23.9527  -27.3080   19.0546 H   0  0  0  0  0  0
  -23.7704  -30.6182   19.4160 H   0  0  0  0  0  0
  -22.7519  -29.2789   19.8358 H   0  0  0  0  0  0
  -25.1239  -36.2000   25.0838 H   0  0  0  0  0  0
  -20.9999  -28.3269   24.1396 H   0  0  0  0  0  0
  -20.5661  -26.2289   23.3610 H   0  0  0  0  0  0
  -21.6641  -26.7424   22.1213 H   0  0  0  0  0  0
  -19.6928  -25.6271   21.1249 H   0  0  0  0  0  0
  -19.6719  -27.3170   20.6730 H   0  0  0  0  0  0
  -17.4201  -26.6667   21.4013 H   0  0  0  0  0  0
  -18.0330  -26.0074   22.9008 H   0  0  0  0  0  0
  -19.7939  -30.7258   24.2273 H   0  0  0  0  0  0
  -17.5018  -31.6250   24.5186 H   0  0  0  0  0  0
  -15.5353  -30.3013   23.7613 H   0  0  0  0  0  0
  -15.8669  -28.0866   22.6993 H   0  0  0  0  0  0
  -24.5889  -30.7106   25.7899 H   0  0  0  0  0  0
  -24.8908  -32.2953   26.4901 H   0  0  0  0  0  0
  -25.8064  -30.9021   27.0312 H   0  0  0  0  0  0
  -26.2834  -29.6853   24.1115 H   0  0  0  0  0  0
  -27.3900  -29.7213   25.4640 H   0  0  0  0  0  0
  -27.8729  -30.4305   23.9398 H   0  0  0  0  0  0
  -27.2662  -33.3606   26.2145 H   0  0  0  0  0  0
  -28.3868  -32.6894   25.0390 H   0  0  0  0  0  0
  -28.0688  -31.8416   26.5455 H   0  0  0  0  0  0
  -28.2523  -38.0172   24.7552 H   0  0  0  0  0  0
  -28.1143  -36.2704   24.6148 H   0  0  0  0  0  0
  -27.2326  -37.1334   25.8844 H   0  0  0  0  0  0
  -20.9283  -29.8944   21.7056 H   0  0  0  0  0  0
  -26.0158  -38.2869   24.1490 H   0  0  0  0  0  0
  -29.6865  -19.4859   22.8778 H   0  0  0  0  0  0
  -29.6275  -18.0982   18.1937 H   0  0  0  0  0  0
  -28.8526  -23.8452   23.1880 H   0  0  0  0  0  0
  -30.5702  -23.7469   23.5054 H   0  0  0  0  0  0
  -29.0443  -21.5851   23.2416 H   0  0  0  0  0  0
  -30.7002  -21.5525   22.6613 H   0  0  0  0  0  0
  -30.2557  -17.4507   23.6728 H   0  0  0  0  0  0
  -31.2929  -16.5245   22.6071 H   0  0  0  0  0  0
  -29.5898  -16.0609   22.8050 H   0  0  0  0  0  0
  -26.6311  -22.7953   19.6774 H   0  0  0  0  0  0
  -27.2964  -21.1981   19.4427 H   0  0  0  0  0  0
  -27.7891  -22.5166   18.3676 H   0  0  0  0  0  0
  -29.4763  -15.8220   17.7301 H   0  0  0  0  0  0
  -30.9555  -14.8958   17.9867 H   0  0  0  0  0  0
  -31.0666  -16.5802   17.9823 H   0  0  0  0  0  0
  -27.5956  -24.8707   19.0599 H   0  0  0  0  0  0
  -29.2167  -25.3331   18.7670 H   0  0  0  0  0  0
  1 25  1  0  0  0
  1 30  2  0  0  0
  1 87  1  0  0  0
  2  3  1  0  0  0
  2 25  1  0  0  0
  2 90  1  0  0  0
  2 91  1  0  0  0
  3  4  1  0  0  0
  3 92  1  0  0  0
  3 93  1  0  0  0
  4  5  1  0  0  0
  4 94  1  0  0  0
  4 95  1  0  0  0
  5  6  1  0  0  0
  5 26  1  0  0  0
  5 96  1  0  0  0
  6 25  1  0  0  0
  6 97  1  0  0  0
  6 98  1  0  0  0
  7  8  2  0  0  0
  7 26  1  0  0  0
  7 29  1  0  0  0
  8  9  1  0  0  0
  8 22  1  0  0  0
  9 10  1  0  0  0
  9 27  2  0  0  0
 10 11  2  0  0  0
 10 15  1  0  0  0
 11 12  1  0  0  0
 11 99  1  0  0  0
 12 13  2  0  0  0
 12100  1  0  0  0
 13 14  1  0  0  0
 13 31  1  0  0  0
 14 15  2  0  0  0
 14101  1  0  0  0
 15102  1  0  0  0
 16 17  2  0  0  0
 16 21  1  0  0  0
 16 31  1  0  0  0
 17 18  1  0  0  0
 17103  1  0  0  0
 18 19  2  0  0  0
 18104  1  0  0  0
 19 20  1  0  0  0
 19 24  1  0  0  0
 20 21  2  0  0  0
 20105  1  0  0  0
 21 23  1  0  0  0
 22 28  1  0  0  0
 22 32  2  0  0  0
 26 27  1  0  0  0
 28106  1  0  0  0
 28107  1  0  0  0
 29108  1  0  0  0
 29109  1  0  0  0
 33 34  1  0  0  0
 33 66  1  0  0  0
 33 70  2  0  0  0
 34 36  1  0  0  0
 34 59  1  0  0  0
 34110  1  0  0  0
 35 44  2  0  0  0
 35 45  1  0  0  0
 35 68  1  0  0  0
 36 56  1  0  0  0
 36111  1  0  0  0
 37 39  1  0  0  0
 37 47  1  0  0  0
 37 66  1  0  0  0
 37112  1  0  0  0
 38 43  2  0  0  0
 38 46  1  0  0  0
 38 47  1  0  0  0
 39 64  1  0  0  0
 39 67  2  0  0  0
 40 52  1  0  0  0
 40 53  2  0  0  0
 40 58  1  0  0  0
 41113  1  0  0  0
 41114  1  0  0  0
 41115  1  0  0  0
 41 48  1  0  0  0
 42 43  1  0  0  0
 42 66  1  0  0  0
 42116  1  0  0  0
 42117  1  0  0  0
 43 44  1  0  0  0
 44118  1  0  0  0
 45 46  2  0  0  0
 45119  1  0  0  0
 46120  1  0  0  0
 47121  1  0  0  0
 47122  1  0  0  0
 48 56  1  0  0  0
 48 65  1  0  0  0
 48123  1  0  0  0
 49 50  1  0  0  0
 49 53  1  0  0  0
 49 64  1  0  0  0
 49124  1  0  0  0
 50 51  1  0  0  0
 50125  1  0  0  0
 50126  1  0  0  0
 51 52  1  0  0  0
 51127  1  0  0  0
 51128  1  0  0  0
 52129  1  0  0  0
 52130  1  0  0  0
 53 54  1  0  0  0
 54 55  2  0  0  0
 54131  1  0  0  0
 55 57  1  0  0  0
 55132  1  0  0  0
 56 69  2  0  0  0
 57 58  2  0  0  0
 57133  1  0  0  0
 58134  1  0  0  0
 59 60  1  0  0  0
 59 61  1  0  0  0
 59 62  1  0  0  0
 60135  1  0  0  0
 60136  1  0  0  0
 60137  1  0  0  0
 61138  1  0  0  0
 61139  1  0  0  0
 61140  1  0  0  0
 62141  1  0  0  0
 62142  1  0  0  0
 62143  1  0  0  0
 63 65  1  0  0  0
 63144  1  0  0  0
 63145  1  0  0  0
 63146  1  0  0  0
 64147  1  0  0  0
 65148  1  0  0  0
 68 85  1  0  0  0
 71 73  2  0  0  0
 71 74  1  0  0  0
 71149  1  0  0  0
 72 75  2  0  0  0
 72 76  1  0  0  0
 72150  1  0  0  0
 73 75  1  0  0  0
 73 82  1  0  0  0
 74 76  2  0  0  0
 74 86  1  0  0  0
 75 87  1  0  0  0
 76 89  1  0  0  0
 77 78  2  0  0  0
 77 79  1  0  0  0
 77 85  1  0  0  0
 78 83  1  0  0  0
 78 86  1  0  0  0
 79 80  1  0  0  0
 79 88  2  0  0  0
 80 81  1  0  0  0
 80151  1  0  0  0
 80152  1  0  0  0
 81 86  1  0  0  0
 81153  1  0  0  0
 81154  1  0  0  0
 82155  1  0  0  0
 82156  1  0  0  0
 82157  1  0  0  0
 83158  1  0  0  0
 83159  1  0  0  0
 83160  1  0  0  0
 84 87  1  0  0  0
 84161  1  0  0  0
 84162  1  0  0  0
 84163  1  0  0  0
 85164  1  0  0  0
 85165  1  0  0  0
M  ISO  4   1 100  68 101  85 101  87 100
M  END
> <chiral flag>
0

> <version>
0

> <s_m_source_file>
/data/baiqing/PycharmProjects/Reinvent-master-3.2/result/LINK_invent/BTK/process_docking_weight1_custom_product_contain_oxygen_bond_distance_aromatic_linkinvent_7_9_3/rearranged_h_0109.sdf

> <i_m_source_file_index>
39

> <r_mmod_Potential_Energy-OPLS-2005>
434.176544189453

> <r_mmod_Stretch_Energy-OPLS-2005>
112.408279418945

> <r_mmod_Bend_Energy-OPLS-2005>
197.397262573242

> <r_mmod_Torsional_Energy-OPLS-2005>
284.713439941406

> <r_mmod_Improper_Torsional_Energy-OPLS-2005>
30.7880687713623

> <r_mmod_Van_der_Waal_Energy-OPLS-2005>
191.619384765625

> <r_mmod_Electrostatic_Energy-OPLS-2005>
-263.946716308594

> <r_mmod_Solvation_Energy-OPLS-2005>
-207.399566650391

> <b_mmod_Minimization_Converged-OPLS-2005>
0

> <r_mmod_RMS_Derivative-OPLS-2005>
4.7204065322876

$$$$
39
                    3D
 Structure written by MMmdl.
155163  0  0  1  0            999 V2000
  -30.6962  -14.5411   20.6240 C   0  0  0  0  0  0
  -30.4290  -12.3706   19.4335 C   0  0  0  0  0  0
  -29.5000  -12.5442   18.2156 C   0  0  0  0  0  0
  -28.0212  -12.3906   18.6251 C   0  0  0  0  0  0
  -27.6661  -13.2137   19.8950 C   0  0  2  0  0  0
  -28.7153  -12.9730   21.0041 C   0  0  0  0  0  0
  -25.2561  -13.8124   20.5650 C   0  0  0  0  0  0
  -24.1803  -13.0394   20.9067 C   0  0  0  0  0  0
  -24.6392  -11.6878   20.8678 C   0  0  0  0  0  0
  -23.9058  -10.4267   21.0364 C   0  0  0  0  0  0
  -24.3611   -9.4189   21.9154 C   0  0  0  0  0  0
  -23.6277   -8.2234   22.0748 C   0  0  0  0  0  0
  -22.4258   -8.0271   21.3546 C   0  0  0  0  0  0
  -21.9893   -9.0229   20.4635 C   0  0  0  0  0  0
  -22.7225  -10.2100   20.3022 C   0  0  0  0  0  0
  -21.6852   -6.0730   22.5278 C   0  0  0  0  0  0
  -21.4016   -6.5633   23.8213 C   0  0  0  0  0  0
  -21.3659   -5.6784   24.9174 C   0  0  0  0  0  0
  -21.6051   -4.3052   24.7223 C   0  0  0  0  0  0
  -21.8819   -3.8139   23.4346 C   0  0  0  0  0  0
  -21.9193   -4.6956   22.3400 C   0  0  0  0  0  0
  -22.7837  -13.5200   21.1767 C   0  0  0  0  0  0
  -22.1658   -4.2140   21.0979 F   0  0  0  0  0  0
  -21.5625   -3.4536   25.7736 F   0  0  0  0  0  0
  -30.0271  -13.3517   20.4632 N   0  0  0  0  0  0
  -26.3063  -12.9333   20.3506 N   0  0  0  0  0  0
  -25.9350  -11.6482   20.5810 N   0  0  0  0  0  0
  -22.0503  -12.8182   22.0331 N   0  0  0  0  0  0
  -25.4293  -15.1819   20.4108 N   0  0  0  0  0  0
  -31.7381  -14.7779   20.0000 O   0  0  0  0  0  0
  -21.6637   -6.8862   21.4239 O   0  0  0  0  0  0
  -22.3525  -14.5538   20.6677 O   0  0  0  0  0  0
  -24.6226  -31.8615   23.2025 C   0  0  0  0  0  0
  -25.9089  -32.4778   23.8342 C   0  0  1  0  0  0
  -27.2362  -27.3654   20.0944 C   0  0  0  0  0  0
  -25.5922  -33.8581   24.2280 N   0  0  0  0  0  0
  -23.4150  -30.4841   21.5424 C   0  0  2  0  0  0
  -24.8601  -28.9398   20.1070 C   0  0  0  0  0  0
  -22.7465  -29.4625   22.4927 C   0  0  0  0  0  0
  -18.0292  -28.1393   22.8514 C   0  0  0  0  0  0
  -24.1476  -36.7280   23.2638 C   0  0  0  0  0  0
  -25.9501  -30.8043   21.3650 C   0  0  0  0  0  0
  -26.0224  -29.4333   20.7100 C   0  0  0  0  0  0
  -27.2092  -28.6528   20.7015 C   0  0  0  0  0  0
  -26.0470  -26.8998   19.4888 C   0  0  0  0  0  0
  -24.8695  -27.6751   19.4941 C   0  0  0  0  0  0
  -23.6288  -29.8187   20.1559 C   0  0  0  0  0  0
  -25.4094  -36.3073   24.0340 C   0  0  1  0  0  0
  -20.5895  -28.3675   23.1302 C   0  0  2  0  0  0
  -20.6775  -26.9398   22.5423 C   0  0  0  0  0  0
  -19.5745  -26.6388   21.5233 C   0  0  0  0  0  0
  -18.1926  -26.7944   22.1645 C   0  0  0  0  0  0
  -19.1552  -28.8860   23.2903 C   0  0  0  0  0  0
  -18.9468  -30.1466   23.8901 C   0  0  0  0  0  0
  -17.6468  -30.6598   24.0582 C   0  0  0  0  0  0
  -25.9044  -34.9453   23.5113 C   0  0  0  0  0  0
  -16.5358  -29.9104   23.6330 C   0  0  0  0  0  0
  -16.7281  -28.6521   23.0355 C   0  0  0  0  0  0
  -26.4505  -31.6591   25.0709 C   0  0  0  0  0  0
  -25.3767  -31.3733   26.1465 C   0  0  0  0  0  0
  -27.0347  -30.3028   24.6123 C   0  0  0  0  0  0
  -27.6045  -32.4342   25.7490 C   0  0  0  0  0  0
  -27.5571  -37.1779   24.8465 C   0  0  0  0  0  0
  -21.4186  -29.3029   22.3696 N   0  0  0  0  0  0
  -26.4258  -37.3779   23.9437 N   0  0  0  0  0  0
  -24.6806  -31.0674   22.0932 N   0  0  0  0  0  0
  -23.4215  -28.8167   23.2990 O   0  0  0  0  0  0
  -28.4014  -26.5994   20.1443 O   0  0  0  0  0  0
  -26.5612  -34.8938   22.4672 O   0  0  0  0  0  0
  -23.5409  -32.1381   23.7395 O   0  0  0  0  0  0
  -27.1064  -17.7289   21.9793 C   0  0  0  0  0  0
  -27.5027  -18.9338   21.3892 C   0  0  0  0  0  0
  -29.6666  -17.9417   20.8891 C   0  0  0  0  0  0
  -29.2897  -16.6876   21.4939 C   0  0  0  0  0  0
  -27.9856  -16.6384   22.0722 C   0  0  0  0  0  0
  -28.8030  -19.0959   20.8605 C   0  0  0  0  0  0
  -28.8836  -22.8730   20.0278 C   0  0  0  0  0  0
  -28.1619  -24.0353   20.0089 C   0  0  0  0  0  0
  -30.2709  -15.5348   21.7391 C   0  0  0  0  0  0
  -28.3961  -21.5247   20.6149 C   0  0  0  0  0  0
  -28.5683  -25.3828   19.3556 C   0  0  0  0  0  0
  -30.7875  -15.4031   22.8923 N   0  0  0  0  0  0
  -27.5096  -15.5547   22.8086 N   0  0  0  0  0  0
  -29.2229  -20.3416   20.3543 O   0  0  0  0  0  0
  -31.4728  -12.4818   19.1363 H   0  0  0  0  0  0
  -30.3499  -11.3567   19.8297 H   0  0  0  0  0  0
  -29.7547  -11.8217   17.4389 H   0  0  0  0  0  0
  -29.6584  -13.5316   17.7795 H   0  0  0  0  0  0
  -27.8352  -11.3308   18.8036 H   0  0  0  0  0  0
  -27.3710  -12.6766   17.7972 H   0  0  0  0  0  0
  -27.7119  -14.2682   19.6220 H   0  0  0  0  0  0
  -28.7196  -11.9188   21.2861 H   0  0  0  0  0  0
  -28.4773  -13.4887   21.9245 H   0  0  0  0  0  0
  -25.2764   -9.5678   22.4718 H   0  0  0  0  0  0
  -23.9986   -7.4644   22.7487 H   0  0  0  0  0  0
  -21.0820   -8.8735   19.8952 H   0  0  0  0  0  0
  -22.3678  -10.9622   19.6121 H   0  0  0  0  0  0
  -21.2007   -7.6142   23.9704 H   0  0  0  0  0  0
  -21.1484   -6.0523   25.9075 H   0  0  0  0  0  0
  -22.0597   -2.7602   23.2847 H   0  0  0  0  0  0
  -22.4140  -11.9816   22.4647 H   0  0  0  0  0  0
  -21.1136  -13.1209   22.2600 H   0  0  0  0  0  0
  -24.6726  -15.7668   20.7438 H   0  0  0  0  0  0
  -26.3266  -15.5152   20.7539 H   0  0  0  0  0  0
  -26.7168  -32.5478   23.1105 H   0  0  0  0  0  0
  -25.0107  -33.9715   25.0459 H   0  0  0  0  0  0
  -22.7071  -31.3035   21.3992 H   0  0  0  0  0  0
  -23.3746  -35.9603   23.3295 H   0  0  0  0  0  0
  -24.3577  -36.8908   22.2054 H   0  0  0  0  0  0
  -23.7233  -37.6479   23.6670 H   0  0  0  0  0  0
  -26.0789  -31.5684   20.5966 H   0  0  0  0  0  0
  -26.8317  -30.8517   21.9920 H   0  0  0  0  0  0
  -28.1047  -29.0321   21.1729 H   0  0  0  0  0  0
  -26.0010  -25.9241   19.0278 H   0  0  0  0  0  0
  -23.9732  -27.2855   19.0296 H   0  0  0  0  0  0
  -23.7524  -30.5984   19.4023 H   0  0  0  0  0  0
  -22.7496  -29.2493   19.8495 H   0  0  0  0  0  0
  -25.1271  -36.1893   25.0830 H   0  0  0  0  0  0
  -20.9984  -28.3229   24.1426 H   0  0  0  0  0  0
  -20.5686  -26.2276   23.3620 H   0  0  0  0  0  0
  -21.6638  -26.7434   22.1200 H   0  0  0  0  0  0
  -19.6896  -25.6299   21.1261 H   0  0  0  0  0  0
  -19.6692  -27.3220   20.6784 H   0  0  0  0  0  0
  -17.4203  -26.6734   21.4036 H   0  0  0  0  0  0
  -18.0285  -26.0081   22.9028 H   0  0  0  0  0  0
  -19.7946  -30.7299   24.2242 H   0  0  0  0  0  0
  -17.5030  -31.6271   24.5203 H   0  0  0  0  0  0
  -15.5362  -30.3024   23.7639 H   0  0  0  0  0  0
  -15.8687  -28.0857   22.7035 H   0  0  0  0  0  0
  -24.5928  -30.7074   25.7853 H   0  0  0  0  0  0
  -24.8970  -32.2905   26.4885 H   0  0  0  0  0  0
  -25.8130  -30.8949   27.0243 H   0  0  0  0  0  0
  -26.2902  -29.6790   24.1159 H   0  0  0  0  0  0
  -27.4104  -29.7261   25.4587 H   0  0  0  0  0  0
  -27.8760  -30.4350   23.9312 H   0  0  0  0  0  0
  -27.2610  -33.3639   26.2035 H   0  0  0  0  0  0
  -28.3877  -32.6906   25.0343 H   0  0  0  0  0  0
  -28.0698  -31.8497   26.5436 H   0  0  0  0  0  0
  -28.2550  -38.0113   24.7547 H   0  0  0  0  0  0
  -28.1098  -36.2643   24.6215 H   0  0  0  0  0  0
  -27.2310  -37.1346   25.8873 H   0  0  0  0  0  0
  -20.9341  -29.8760   21.6930 H   0  0  0  0  0  0
  -26.0133  -38.2839   24.1481 H   0  0  0  0  0  0
  -26.1151  -17.6733   22.4089 H   0  0  0  0  0  0
  -26.7733  -19.7284   21.3891 H   0  0  0  0  0  0
  -30.6684  -18.0415   20.4978 H   0  0  0  0  0  0
  -29.8722  -22.8595   19.5912 H   0  0  0  0  0  0
  -27.1772  -24.0316   20.4540 H   0  0  0  0  0  0
  -27.4008  -21.3795   20.1953 H   0  0  0  0  0  0
  -28.2837  -21.6496   21.6933 H   0  0  0  0  0  0
  -28.0645  -25.4784   18.3934 H   0  0  0  0  0  0
  -29.6274  -25.3177   19.1041 H   0  0  0  0  0  0
  -30.4445  -16.1197   23.5214 H   0  0  0  0  0  0
  -26.7180  -15.7234   23.4207 H   0  0  0  0  0  0
  -28.1968  -14.9567   23.2564 H   0  0  0  0  0  0
  1 25  1  0  0  0
  1 30  2  0  0  0
  1 79  1  0  0  0
  2  3  1  0  0  0
  2 25  1  0  0  0
  2 85  1  0  0  0
  2 86  1  0  0  0
  3  4  1  0  0  0
  3 87  1  0  0  0
  3 88  1  0  0  0
  4  5  1  0  0  0
  4 89  1  0  0  0
  4 90  1  0  0  0
  5  6  1  0  0  0
  5 26  1  0  0  0
  5 91  1  0  0  0
  6 25  1  0  0  0
  6 92  1  0  0  0
  6 93  1  0  0  0
  7  8  2  0  0  0
  7 26  1  0  0  0
  7 29  1  0  0  0
  8  9  1  0  0  0
  8 22  1  0  0  0
  9 10  1  0  0  0
  9 27  2  0  0  0
 10 11  2  0  0  0
 10 15  1  0  0  0
 11 12  1  0  0  0
 11 94  1  0  0  0
 12 13  2  0  0  0
 12 95  1  0  0  0
 13 14  1  0  0  0
 13 31  1  0  0  0
 14 15  2  0  0  0
 14 96  1  0  0  0
 15 97  1  0  0  0
 16 17  2  0  0  0
 16 21  1  0  0  0
 16 31  1  0  0  0
 17 18  1  0  0  0
 17 98  1  0  0  0
 18 19  2  0  0  0
 18 99  1  0  0  0
 19 20  1  0  0  0
 19 24  1  0  0  0
 20 21  2  0  0  0
 20100  1  0  0  0
 21 23  1  0  0  0
 22 28  1  0  0  0
 22 32  2  0  0  0
 26 27  1  0  0  0
 28101  1  0  0  0
 28102  1  0  0  0
 29103  1  0  0  0
 29104  1  0  0  0
 33 34  1  0  0  0
 33 66  1  0  0  0
 33 70  2  0  0  0
 34 36  1  0  0  0
 34 59  1  0  0  0
 34105  1  0  0  0
 35 44  2  0  0  0
 35 45  1  0  0  0
 35 68  1  0  0  0
 36 56  1  0  0  0
 36106  1  0  0  0
 37 39  1  0  0  0
 37 47  1  0  0  0
 37 66  1  0  0  0
 37107  1  0  0  0
 38 43  2  0  0  0
 38 46  1  0  0  0
 38 47  1  0  0  0
 39 64  1  0  0  0
 39 67  2  0  0  0
 40 52  1  0  0  0
 40 53  2  0  0  0
 40 58  1  0  0  0
 41108  1  0  0  0
 41109  1  0  0  0
 41110  1  0  0  0
 41 48  1  0  0  0
 42 43  1  0  0  0
 42 66  1  0  0  0
 42111  1  0  0  0
 42112  1  0  0  0
 43 44  1  0  0  0
 44113  1  0  0  0
 45 46  2  0  0  0
 45114  1  0  0  0
 46115  1  0  0  0
 47116  1  0  0  0
 47117  1  0  0  0
 48 56  1  0  0  0
 48 65  1  0  0  0
 48118  1  0  0  0
 49 50  1  0  0  0
 49 53  1  0  0  0
 49 64  1  0  0  0
 49119  1  0  0  0
 50 51  1  0  0  0
 50120  1  0  0  0
 50121  1  0  0  0
 51 52  1  0  0  0
 51122  1  0  0  0
 51123  1  0  0  0
 52124  1  0  0  0
 52125  1  0  0  0
 53 54  1  0  0  0
 54 55  2  0  0  0
 54126  1  0  0  0
 55 57  1  0  0  0
 55127  1  0  0  0
 56 69  2  0  0  0
 57 58  2  0  0  0
 57128  1  0  0  0
 58129  1  0  0  0
 59 60  1  0  0  0
 59 61  1  0  0  0
 59 62  1  0  0  0
 60130  1  0  0  0
 60131  1  0  0  0
 60132  1  0  0  0
 61133  1  0  0  0
 61134  1  0  0  0
 61135  1  0  0  0
 62136  1  0  0  0
 62137  1  0  0  0
 62138  1  0  0  0
 63 65  1  0  0  0
 63139  1  0  0  0
 63140  1  0  0  0
 63141  1  0  0  0
 64142  1  0  0  0
 65143  1  0  0  0
 68 81  1  0  0  0
 71 72  2  0  0  0
 71 75  1  0  0  0
 71144  1  0  0  0
 72 76  1  0  0  0
 72145  1  0  0  0
 73 74  1  0  0  0
 73 76  2  0  0  0
 73146  1  0  0  0
 74 75  2  0  0  0
 74 79  1  0  0  0
 75 83  1  0  0  0
 76 84  1  0  0  0
 77 78  2  0  0  0
 77 80  1  0  0  0
 77147  1  0  0  0
 78 81  1  0  0  0
 78148  1  0  0  0
 79 82  2  0  0  0
 80 84  1  0  0  0
 80149  1  0  0  0
 80150  1  0  0  0
 81151  1  0  0  0
 81152  1  0  0  0
 82153  1  0  0  0
 83154  1  0  0  0
 83155  1  0  0  0
M  ISO  4   1 100  68 101  79 100  81 101
M  END
> <chiral flag>
0

> <version>
0

> <s_m_source_file>
/data/baiqing/PycharmProjects/Reinvent-master-3.2/result/LINK_invent/BTK/process_docking_weight1_custom_product_contain_oxygen_bond_distance_aromatic_linkinvent_7_9_3/rearranged_h_0109.sdf

> <i_m_source_file_index>
40

> <r_mmod_Potential_Energy-OPLS-2005>
206.820922851562

> <r_mmod_Stretch_Energy-OPLS-2005>
73.0884628295898

> <r_mmod_Bend_Energy-OPLS-2005>
139.715255737305

> <r_mmod_Torsional_Energy-OPLS-2005>
240.348175048828

> <r_mmod_Improper_Torsional_Energy-OPLS-2005>
13.9669504165649

> <r_mmod_Van_der_Waal_Energy-OPLS-2005>
148.347183227539

> <r_mmod_Electrostatic_Energy-OPLS-2005>
-227.210098266602

> <r_mmod_Solvation_Energy-OPLS-2005>
-206.476043701172

> <b_mmod_Minimization_Converged-OPLS-2005>
0

> <r_mmod_RMS_Derivative-OPLS-2005>
2.10421228408813

$$$$
40
                    3D
 Structure written by MMmdl.
169178  0  0  1  0            999 V2000
  -30.6786  -14.6328   20.4651 C   0  0  0  0  0  0
  -30.4112  -12.3833   19.4636 C   0  0  0  0  0  0
  -29.4953  -12.4874   18.2267 C   0  0  0  0  0  0
  -28.0185  -12.3432   18.6376 C   0  0  0  0  0  0
  -27.6415  -13.2306   19.8551 C   0  0  2  0  0  0
  -28.6887  -13.1401   20.9883 C   0  0  0  0  0  0
  -25.2503  -13.8217   20.5711 C   0  0  0  0  0  0
  -24.1804  -13.0454   20.9219 C   0  0  0  0  0  0
  -24.6396  -11.6931   20.8772 C   0  0  0  0  0  0
  -23.9072  -10.4306   21.0416 C   0  0  0  0  0  0
  -24.3627   -9.4215   21.9184 C   0  0  0  0  0  0
  -23.6297   -8.2250   22.0759 C   0  0  0  0  0  0
  -22.4280   -8.0289   21.3549 C   0  0  0  0  0  0
  -21.9918   -9.0257   20.4649 C   0  0  0  0  0  0
  -22.7254  -10.2131   20.3053 C   0  0  0  0  0  0
  -21.6855   -6.0745   22.5280 C   0  0  0  0  0  0
  -21.4014   -6.5645   23.8217 C   0  0  0  0  0  0
  -21.3664   -5.6797   24.9179 C   0  0  0  0  0  0
  -21.6043   -4.3059   24.7230 C   0  0  0  0  0  0
  -21.8824   -3.8158   23.4350 C   0  0  0  0  0  0
  -21.9195   -4.6970   22.3408 C   0  0  0  0  0  0
  -22.7825  -13.5220   21.1873 C   0  0  0  0  0  0
  -22.1660   -4.2158   21.0986 F   0  0  0  0  0  0
  -21.5630   -3.4537   25.7738 F   0  0  0  0  0  0
  -29.9985  -13.4460   20.4042 N   0  0  0  0  0  0
  -26.2936  -12.9417   20.3327 N   0  0  0  0  0  0
  -25.9324  -11.6561   20.5784 N   0  0  0  0  0  0
  -22.0487  -12.8194   22.0429 N   0  0  0  0  0  0
  -25.4185  -15.1943   20.4128 N   0  0  0  0  0  0
  -31.8700  -14.6817   20.1513 O   0  0  0  0  0  0
  -21.6653   -6.8878   21.4241 O   0  0  0  0  0  0
  -22.3504  -14.5528   20.6725 O   0  0  0  0  0  0
  -24.6257  -31.8605   23.2028 C   0  0  0  0  0  0
  -25.9118  -32.4783   23.8353 C   0  0  1  0  0  0
  -27.2135  -27.3245   20.1194 C   0  0  0  0  0  0
  -25.5949  -33.8581   24.2284 N   0  0  0  0  0  0
  -23.4185  -30.4879   21.5424 C   0  0  2  0  0  0
  -24.8627  -28.9447   20.1085 C   0  0  0  0  0  0
  -22.7482  -29.4643   22.4899 C   0  0  0  0  0  0
  -18.0293  -28.1373   22.8492 C   0  0  0  0  0  0
  -24.1492  -36.7291   23.2641 C   0  0  0  0  0  0
  -25.9589  -30.7950   21.3727 C   0  0  0  0  0  0
  -26.0312  -29.4228   20.7158 C   0  0  0  0  0  0
  -27.2127  -28.6253   20.7084 C   0  0  0  0  0  0
  -26.0287  -26.9013   19.4808 C   0  0  0  0  0  0
  -24.8645  -27.6906   19.4794 C   0  0  0  0  0  0
  -23.6329  -29.8274   20.1562 C   0  0  0  0  0  0
  -25.4111  -36.3077   24.0329 C   0  0  1  0  0  0
  -20.5896  -28.3685   23.1267 C   0  0  2  0  0  0
  -20.6774  -26.9412   22.5395 C   0  0  0  0  0  0
  -19.5751  -26.6377   21.5201 C   0  0  0  0  0  0
  -18.1928  -26.7920   22.1615 C   0  0  0  0  0  0
  -19.1548  -28.8844   23.2880 C   0  0  0  0  0  0
  -18.9472  -30.1445   23.8907 C   0  0  0  0  0  0
  -17.6473  -30.6580   24.0571 C   0  0  0  0  0  0
  -25.9055  -34.9454   23.5097 C   0  0  0  0  0  0
  -16.5363  -29.9076   23.6340 C   0  0  0  0  0  0
  -16.7280  -28.6490   23.0361 C   0  0  0  0  0  0
  -26.4499  -31.6585   25.0724 C   0  0  0  0  0  0
  -25.3746  -31.3713   26.1462 C   0  0  0  0  0  0
  -27.0334  -30.3012   24.6157 C   0  0  0  0  0  0
  -27.6056  -32.4319   25.7500 C   0  0  0  0  0  0
  -27.5576  -37.1796   24.8470 C   0  0  0  0  0  0
  -21.4193  -29.3052   22.3661 N   0  0  0  0  0  0
  -26.4280  -37.3775   23.9424 N   0  0  0  0  0  0
  -24.6862  -31.0649   22.0960 N   0  0  0  0  0  0
  -23.4220  -28.8174   23.2963 O   0  0  0  0  0  0
  -28.3274  -26.4780   20.1415 O   0  0  0  0  0  0
  -26.5612  -34.8924   22.4660 O   0  0  0  0  0  0
  -23.5423  -32.1386   23.7366 O   0  0  0  0  0  0
  -30.6101  -19.6093   19.6499 C   0  0  0  0  0  0
  -30.2934  -20.9785   19.8468 C   0  0  0  0  0  0
  -28.9558  -18.9531   21.2642 C   0  0  0  0  0  0
  -29.9903  -18.5611   20.3766 C   0  0  0  0  0  0
  -28.6202  -20.3375   21.4762 C   0  0  0  0  0  0
  -29.3396  -21.3896   20.8080 C   0  0  0  0  0  0
  -29.9545  -23.1323   22.3431 C   0  0  0  0  0  0
  -25.3828  -20.0968   23.7330 C   0  0  0  0  0  0
  -30.6338  -24.4875   22.2538 C   0  0  0  0  0  0
  -30.6030  -24.7417   20.7561 C   0  0  0  0  0  0
  -29.3174  -24.0287   20.3155 C   0  0  2  0  0  0
  -24.7667  -19.0750   24.6762 C   0  0  0  0  0  0
  -27.5166  -20.7158   22.4684 C   0  0  0  0  0  0
  -30.5998  -17.1202   20.2087 C   0  0  0  0  0  0
  -26.4988  -19.6088   22.8061 C   0  0  0  0  0  0
  -28.1096  -25.0565   20.5067 C   0  0  0  0  0  0
  -29.2818  -22.8073   21.2127 N   0  0  0  0  0  0
  -29.9807  -15.8077   20.6112 N   0  0  0  0  0  0
  -30.0664  -22.4398   23.3593 O   0  0  0  0  0  0
  -24.9892  -21.2658   23.7263 O   0  0  0  0  0  0
  -31.4573  -12.4652   19.1660 H   0  0  0  0  0  0
  -30.3156  -11.4030   19.9331 H   0  0  0  0  0  0
  -29.7536  -11.7170   17.4994 H   0  0  0  0  0  0
  -29.6504  -13.4460   17.7292 H   0  0  0  0  0  0
  -27.8465  -11.2932   18.8761 H   0  0  0  0  0  0
  -27.3676  -12.5699   17.7925 H   0  0  0  0  0  0
  -27.6435  -14.2572   19.4917 H   0  0  0  0  0  0
  -28.6970  -12.1430   21.4309 H   0  0  0  0  0  0
  -28.4486  -13.8327   21.7968 H   0  0  0  0  0  0
  -25.2761   -9.5696   22.4772 H   0  0  0  0  0  0
  -24.0013   -7.4641   22.7474 H   0  0  0  0  0  0
  -21.0852   -8.8766   19.8944 H   0  0  0  0  0  0
  -22.3702  -10.9669   19.6172 H   0  0  0  0  0  0
  -21.1993   -7.6151   23.9714 H   0  0  0  0  0  0
  -21.1481   -6.0534   25.9080 H   0  0  0  0  0  0
  -22.0594   -2.7617   23.2855 H   0  0  0  0  0  0
  -22.4092  -11.9829   22.4765 H   0  0  0  0  0  0
  -21.1108  -13.1218   22.2646 H   0  0  0  0  0  0
  -24.6481  -15.8464   20.5120 H   0  0  0  0  0  0
  -26.2663  -15.6348   20.0794 H   0  0  0  0  0  0
  -26.7188  -32.5451   23.1097 H   0  0  0  0  0  0
  -25.0141  -33.9720   25.0459 H   0  0  0  0  0  0
  -22.7127  -31.3085   21.4010 H   0  0  0  0  0  0
  -23.3754  -35.9629   23.3305 H   0  0  0  0  0  0
  -24.3589  -36.8906   22.2061 H   0  0  0  0  0  0
  -23.7233  -37.6487   23.6655 H   0  0  0  0  0  0
  -26.0907  -31.5581   20.6048 H   0  0  0  0  0  0
  -26.8398  -30.8404   22.0010 H   0  0  0  0  0  0
  -28.1112  -28.9899   21.1851 H   0  0  0  0  0  0
  -25.9853  -25.9537   18.9666 H   0  0  0  0  0  0
  -23.9750  -27.3264   18.9847 H   0  0  0  0  0  0
  -23.7579  -30.6070   19.4041 H   0  0  0  0  0  0
  -22.7523  -29.2604   19.8498 H   0  0  0  0  0  0
  -25.1280  -36.1921   25.0816 H   0  0  0  0  0  0
  -21.0002  -28.3250   24.1380 H   0  0  0  0  0  0
  -20.5654  -26.2305   23.3590 H   0  0  0  0  0  0
  -21.6639  -26.7414   22.1203 H   0  0  0  0  0  0
  -19.6917  -25.6282   21.1231 H   0  0  0  0  0  0
  -19.6685  -27.3189   20.6736 H   0  0  0  0  0  0
  -17.4199  -26.6689   21.4015 H   0  0  0  0  0  0
  -18.0333  -26.0034   22.8991 H   0  0  0  0  0  0
  -19.7948  -30.7256   24.2276 H   0  0  0  0  0  0
  -17.5030  -31.6268   24.5158 H   0  0  0  0  0  0
  -15.5362  -30.2986   23.7654 H   0  0  0  0  0  0
  -15.8678  -28.0812   22.7076 H   0  0  0  0  0  0
  -24.5938  -30.7036   25.7813 H   0  0  0  0  0  0
  -24.8921  -32.2874   26.4886 H   0  0  0  0  0  0
  -25.8090  -30.8911   27.0243 H   0  0  0  0  0  0
  -26.2889  -29.6768   24.1204 H   0  0  0  0  0  0
  -27.4073  -29.7257   25.4637 H   0  0  0  0  0  0
  -27.8744  -30.4313   23.9342 H   0  0  0  0  0  0
  -27.2665  -33.3628   26.2063 H   0  0  0  0  0  0
  -28.3877  -32.6863   25.0339 H   0  0  0  0  0  0
  -28.0715  -31.8455   26.5430 H   0  0  0  0  0  0
  -28.2576  -38.0111   24.7521 H   0  0  0  0  0  0
  -28.1071  -36.2631   24.6259 H   0  0  0  0  0  0
  -27.2307  -37.1419   25.8877 H   0  0  0  0  0  0
  -20.9344  -29.8810   21.6912 H   0  0  0  0  0  0
  -26.0157  -38.2849   24.1428 H   0  0  0  0  0  0
  -31.4075  -19.3699   18.9593 H   0  0  0  0  0  0
  -30.8713  -21.7199   19.3132 H   0  0  0  0  0  0
  -28.4550  -18.1767   21.8219 H   0  0  0  0  0  0
  -31.6513  -24.4655   22.6447 H   0  0  0  0  0  0
  -30.0540  -25.2254   22.8085 H   0  0  0  0  0  0
  -31.4701  -24.2788   20.2816 H   0  0  0  0  0  0
  -30.6368  -25.8029   20.5073 H   0  0  0  0  0  0
  -29.3895  -23.7402   19.2666 H   0  0  0  0  0  0
  -24.5693  -18.1416   24.1513 H   0  0  0  0  0  0
  -23.8277  -19.4479   25.0850 H   0  0  0  0  0  0
  -25.4491  -18.8729   25.5012 H   0  0  0  0  0  0
  -26.9853  -21.5773   22.0602 H   0  0  0  0  0  0
  -27.9787  -21.0470   23.3967 H   0  0  0  0  0  0
  -31.5638  -17.1773   20.7175 H   0  0  0  0  0  0
  -30.8422  -17.0247   19.1473 H   0  0  0  0  0  0
  -26.0401  -19.2249   21.8950 H   0  0  0  0  0  0
  -26.9959  -18.7720   23.2959 H   0  0  0  0  0  0
  -27.8129  -25.0614   21.5564 H   0  0  0  0  0  0
  -27.2590  -24.6293   19.9811 H   0  0  0  0  0  0
  -28.9878  -15.7693   20.7853 H   0  0  0  0  0  0
  1 25  1  0  0  0
  1 30  2  0  0  0
  1 88  1  0  0  0
  2  3  1  0  0  0
  2 25  1  0  0  0
  2 91  1  0  0  0
  2 92  1  0  0  0
  3  4  1  0  0  0
  3 93  1  0  0  0
  3 94  1  0  0  0
  4  5  1  0  0  0
  4 95  1  0  0  0
  4 96  1  0  0  0
  5  6  1  0  0  0
  5 26  1  0  0  0
  5 97  1  0  0  0
  6 25  1  0  0  0
  6 98  1  0  0  0
  6 99  1  0  0  0
  7  8  2  0  0  0
  7 26  1  0  0  0
  7 29  1  0  0  0
  8  9  1  0  0  0
  8 22  1  0  0  0
  9 10  1  0  0  0
  9 27  2  0  0  0
 10 11  2  0  0  0
 10 15  1  0  0  0
 11 12  1  0  0  0
 11100  1  0  0  0
 12 13  2  0  0  0
 12101  1  0  0  0
 13 14  1  0  0  0
 13 31  1  0  0  0
 14 15  2  0  0  0
 14102  1  0  0  0
 15103  1  0  0  0
 16 17  2  0  0  0
 16 21  1  0  0  0
 16 31  1  0  0  0
 17 18  1  0  0  0
 17104  1  0  0  0
 18 19  2  0  0  0
 18105  1  0  0  0
 19 20  1  0  0  0
 19 24  1  0  0  0
 20 21  2  0  0  0
 20106  1  0  0  0
 21 23  1  0  0  0
 22 28  1  0  0  0
 22 32  2  0  0  0
 26 27  1  0  0  0
 28107  1  0  0  0
 28108  1  0  0  0
 29109  1  0  0  0
 29110  1  0  0  0
 33 34  1  0  0  0
 33 66  1  0  0  0
 33 70  2  0  0  0
 34 36  1  0  0  0
 34 59  1  0  0  0
 34111  1  0  0  0
 35 44  2  0  0  0
 35 45  1  0  0  0
 35 68  1  0  0  0
 36 56  1  0  0  0
 36112  1  0  0  0
 37 39  1  0  0  0
 37 47  1  0  0  0
 37 66  1  0  0  0
 37113  1  0  0  0
 38 43  2  0  0  0
 38 46  1  0  0  0
 38 47  1  0  0  0
 39 64  1  0  0  0
 39 67  2  0  0  0
 40 52  1  0  0  0
 40 53  2  0  0  0
 40 58  1  0  0  0
 41114  1  0  0  0
 41115  1  0  0  0
 41116  1  0  0  0
 41 48  1  0  0  0
 42 43  1  0  0  0
 42 66  1  0  0  0
 42117  1  0  0  0
 42118  1  0  0  0
 43 44  1  0  0  0
 44119  1  0  0  0
 45 46  2  0  0  0
 45120  1  0  0  0
 46121  1  0  0  0
 47122  1  0  0  0
 47123  1  0  0  0
 48 56  1  0  0  0
 48 65  1  0  0  0
 48124  1  0  0  0
 49 50  1  0  0  0
 49 53  1  0  0  0
 49 64  1  0  0  0
 49125  1  0  0  0
 50 51  1  0  0  0
 50126  1  0  0  0
 50127  1  0  0  0
 51 52  1  0  0  0
 51128  1  0  0  0
 51129  1  0  0  0
 52130  1  0  0  0
 52131  1  0  0  0
 53 54  1  0  0  0
 54 55  2  0  0  0
 54132  1  0  0  0
 55 57  1  0  0  0
 55133  1  0  0  0
 56 69  2  0  0  0
 57 58  2  0  0  0
 57134  1  0  0  0
 58135  1  0  0  0
 59 60  1  0  0  0
 59 61  1  0  0  0
 59 62  1  0  0  0
 60136  1  0  0  0
 60137  1  0  0  0
 60138  1  0  0  0
 61139  1  0  0  0
 61140  1  0  0  0
 61141  1  0  0  0
 62142  1  0  0  0
 62143  1  0  0  0
 62144  1  0  0  0
 63 65  1  0  0  0
 63145  1  0  0  0
 63146  1  0  0  0
 63147  1  0  0  0
 64148  1  0  0  0
 65149  1  0  0  0
 68 86  1  0  0  0
 71 72  2  0  0  0
 71 74  1  0  0  0
 71150  1  0  0  0
 72 76  1  0  0  0
 72151  1  0  0  0
 73 74  2  0  0  0
 73 75  1  0  0  0
 73152  1  0  0  0
 74 84  1  0  0  0
 75 76  2  0  0  0
 75 83  1  0  0  0
 76 87  1  0  0  0
 77 79  1  0  0  0
 77 87  1  0  0  0
 77 89  2  0  0  0
 78 82  1  0  0  0
 78 85  1  0  0  0
 78 90  2  0  0  0
 79 80  1  0  0  0
 79153  1  0  0  0
 79154  1  0  0  0
 80 81  1  0  0  0
 80155  1  0  0  0
 80156  1  0  0  0
 81 86  1  0  0  0
 81 87  1  0  0  0
 81157  1  0  0  0
 82158  1  0  0  0
 82159  1  0  0  0
 82160  1  0  0  0
 83 85  1  0  0  0
 83161  1  0  0  0
 83162  1  0  0  0
 84 88  1  0  0  0
 84163  1  0  0  0
 84164  1  0  0  0
 85165  1  0  0  0
 85166  1  0  0  0
 86167  1  0  0  0
 86168  1  0  0  0
 88169  1  0  0  0
M  ISO  4   1 100  68 101  86 101  88 100
M  END
> <chiral flag>
0

> <version>
0

> <s_m_source_file>
/data/baiqing/PycharmProjects/Reinvent-master-3.2/result/LINK_invent/BTK/process_docking_weight1_custom_product_contain_oxygen_bond_distance_aromatic_linkinvent_7_9_3/rearranged_h_0109.sdf

> <i_m_source_file_index>
41

> <r_mmod_Potential_Energy-OPLS-2005>
111.932594299316

> <r_mmod_Stretch_Energy-OPLS-2005>
85.806999206543

> <r_mmod_Bend_Energy-OPLS-2005>
190.712326049805

> <r_mmod_Torsional_Energy-OPLS-2005>
312.159881591797

> <r_mmod_Improper_Torsional_Energy-OPLS-2005>
10.4515151977539

> <r_mmod_Van_der_Waal_Energy-OPLS-2005>
146.943481445312

> <r_mmod_Electrostatic_Energy-OPLS-2005>
-447.443725585938

> <r_mmod_Solvation_Energy-OPLS-2005>
-237.026519775391

> <b_mmod_Minimization_Converged-OPLS-2005>
0

> <r_mmod_RMS_Derivative-OPLS-2005>
2.13171434402466

$$$$
41
                    3D
 Structure written by MMmdl.
156164  0  0  1  0            999 V2000
  -30.5871  -14.7056   20.5089 C   0  0  0  0  0  0
  -30.4397  -12.4321   19.4585 C   0  0  0  0  0  0
  -29.5099  -12.5284   18.2267 C   0  0  0  0  0  0
  -28.0320  -12.3512   18.6317 C   0  0  0  0  0  0
  -27.6488  -13.2197   19.8582 C   0  0  2  0  0  0
  -28.6940  -13.1003   20.9896 C   0  0  0  0  0  0
  -25.2541  -13.8166   20.5678 C   0  0  0  0  0  0
  -24.1814  -13.0428   20.9184 C   0  0  0  0  0  0
  -24.6394  -11.6900   20.8737 C   0  0  0  0  0  0
  -23.9049  -10.4290   21.0405 C   0  0  0  0  0  0
  -24.3610   -9.4206   21.9180 C   0  0  0  0  0  0
  -23.6292   -8.2239   22.0746 C   0  0  0  0  0  0
  -22.4277   -8.0275   21.3535 C   0  0  0  0  0  0
  -21.9911   -9.0247   20.4636 C   0  0  0  0  0  0
  -22.7224  -10.2134   20.3050 C   0  0  0  0  0  0
  -21.6856   -6.0725   22.5272 C   0  0  0  0  0  0
  -21.4019   -6.5630   23.8204 C   0  0  0  0  0  0
  -21.3669   -5.6790   24.9171 C   0  0  0  0  0  0
  -21.6048   -4.3050   24.7223 C   0  0  0  0  0  0
  -21.8823   -3.8137   23.4343 C   0  0  0  0  0  0
  -21.9199   -4.6954   22.3398 C   0  0  0  0  0  0
  -22.7839  -13.5217   21.1852 C   0  0  0  0  0  0
  -22.1665   -4.2135   21.0977 F   0  0  0  0  0  0
  -21.5638   -3.4534   25.7741 F   0  0  0  0  0  0
  -30.0046  -13.4597   20.4308 N   0  0  0  0  0  0
  -26.2969  -12.9351   20.3295 N   0  0  0  0  0  0
  -25.9323  -11.6502   20.5750 N   0  0  0  0  0  0
  -22.0498  -12.8204   22.0411 N   0  0  0  0  0  0
  -25.4264  -15.1897   20.4113 N   0  0  0  0  0  0
  -31.7328  -14.8616   20.0727 O   0  0  0  0  0  0
  -21.6646   -6.8871   21.4235 O   0  0  0  0  0  0
  -22.3520  -14.5520   20.6709 O   0  0  0  0  0  0
  -24.6312  -31.8552   23.1951 C   0  0  0  0  0  0
  -25.9129  -32.4752   23.8326 C   0  0  1  0  0  0
  -27.2343  -27.2785   20.1221 C   0  0  0  0  0  0
  -25.5918  -33.8553   24.2245 N   0  0  0  0  0  0
  -23.4273  -30.4735   21.5385 C   0  0  2  0  0  0
  -24.8754  -28.9150   20.1099 C   0  0  0  0  0  0
  -22.7502  -29.4593   22.4918 C   0  0  0  0  0  0
  -18.0290  -28.1373   22.8490 C   0  0  0  0  0  0
  -24.1490  -36.7299   23.2635 C   0  0  0  0  0  0
  -25.9694  -30.7714   21.3708 C   0  0  0  0  0  0
  -26.0435  -29.3936   20.7154 C   0  0  0  0  0  0
  -27.2223  -28.5864   20.7103 C   0  0  0  0  0  0
  -26.0396  -26.8501   19.5015 C   0  0  0  0  0  0
  -24.8780  -27.6521   19.4943 C   0  0  0  0  0  0
  -23.6443  -29.7998   20.1564 C   0  0  0  0  0  0
  -25.4110  -36.3075   24.0331 C   0  0  1  0  0  0
  -20.5897  -28.3675   23.1276 C   0  0  2  0  0  0
  -20.6776  -26.9399   22.5403 C   0  0  0  0  0  0
  -19.5751  -26.6368   21.5202 C   0  0  0  0  0  0
  -18.1928  -26.7924   22.1613 C   0  0  0  0  0  0
  -19.1549  -28.8846   23.2874 C   0  0  0  0  0  0
  -18.9456  -30.1449   23.8885 C   0  0  0  0  0  0
  -17.6453  -30.6576   24.0557 C   0  0  0  0  0  0
  -25.9047  -34.9438   23.5100 C   0  0  0  0  0  0
  -16.5347  -29.9065   23.6329 C   0  0  0  0  0  0
  -16.7276  -28.6487   23.0351 C   0  0  0  0  0  0
  -26.4490  -31.6581   25.0729 C   0  0  0  0  0  0
  -25.3702  -31.3722   26.1442 C   0  0  0  0  0  0
  -27.0343  -30.3004   24.6221 C   0  0  0  0  0  0
  -27.6049  -32.4320   25.7494 C   0  0  0  0  0  0
  -27.5593  -37.1791   24.8453 C   0  0  0  0  0  0
  -21.4211  -29.3032   22.3671 N   0  0  0  0  0  0
  -26.4287  -37.3779   23.9419 N   0  0  0  0  0  0
  -24.6956  -31.0527   22.0912 N   0  0  0  0  0  0
  -23.4206  -28.8150   23.3033 O   0  0  0  0  0  0
  -28.3701  -26.4477   20.2050 O   0  0  0  0  0  0
  -26.5628  -34.8926   22.4674 O   0  0  0  0  0  0
  -23.5466  -32.1361   23.7256 O   0  0  0  0  0  0
  -31.7209  -19.3106   21.7271 C   0  0  0  0  0  0
  -30.8673  -20.3097   21.2199 C   0  0  0  0  0  0
  -29.3567  -18.5634   20.5095 C   0  0  0  0  0  0
  -31.4108  -17.9269   21.6768 C   0  0  0  0  0  0
  -30.2227  -17.5012   21.0071 C   0  0  0  0  0  0
  -29.6370  -19.9842   20.6233 C   0  0  0  0  0  0
  -33.2709  -17.2866   23.2781 C   0  0  0  0  0  0
  -32.2804  -16.9809   22.4195 C   0  0  0  0  0  0
  -29.7450  -15.9726   21.0375 C   0  0  0  0  0  0
  -28.3799  -23.7079   20.4277 C   0  0  0  0  0  0
  -28.4969  -25.0880   19.5957 C   0  0  0  0  0  0
  -29.0951  -22.3811   19.8365 C   0  0  0  0  0  0
  -28.7092  -21.0051   20.2736 O   0  0  0  0  0  0
  -31.4784  -12.5655   19.1554 H   0  0  0  0  0  0
  -30.3843  -11.4380   19.9038 H   0  0  0  0  0  0
  -29.7845  -11.7843   17.4778 H   0  0  0  0  0  0
  -29.6406  -13.5023   17.7524 H   0  0  0  0  0  0
  -27.8682  -11.2956   18.8530 H   0  0  0  0  0  0
  -27.3800  -12.5876   17.7904 H   0  0  0  0  0  0
  -27.6548  -14.2491   19.5035 H   0  0  0  0  0  0
  -28.7157  -12.0841   21.3874 H   0  0  0  0  0  0
  -28.4240  -13.7394   21.8303 H   0  0  0  0  0  0
  -25.2774   -9.5690   22.4734 H   0  0  0  0  0  0
  -24.0014   -7.4632   22.7464 H   0  0  0  0  0  0
  -21.0850   -8.8761   19.8934 H   0  0  0  0  0  0
  -22.3691  -10.9668   19.6155 H   0  0  0  0  0  0
  -21.2006   -7.6140   23.9701 H   0  0  0  0  0  0
  -21.1493   -6.0523   25.9077 H   0  0  0  0  0  0
  -22.0597   -2.7593   23.2849 H   0  0  0  0  0  0
  -22.4153  -11.9869   22.4783 H   0  0  0  0  0  0
  -21.1109  -13.1204   22.2621 H   0  0  0  0  0  0
  -24.6622  -15.8466   20.5228 H   0  0  0  0  0  0
  -26.2809  -15.6283   20.0933 H   0  0  0  0  0  0
  -26.7207  -32.5403   23.1078 H   0  0  0  0  0  0
  -25.0057  -33.9678   25.0392 H   0  0  0  0  0  0
  -22.7242  -31.2947   21.3890 H   0  0  0  0  0  0
  -23.3763  -35.9618   23.3258 H   0  0  0  0  0  0
  -24.3583  -36.8964   22.2057 H   0  0  0  0  0  0
  -23.7232  -37.6484   23.6691 H   0  0  0  0  0  0
  -26.1058  -31.5283   20.5967 H   0  0  0  0  0  0
  -26.8479  -30.8223   22.0023 H   0  0  0  0  0  0
  -28.1219  -28.9480   21.1883 H   0  0  0  0  0  0
  -25.9700  -25.8754   19.0439 H   0  0  0  0  0  0
  -23.9811  -27.2764   19.0213 H   0  0  0  0  0  0
  -23.7662  -30.5710   19.3945 H   0  0  0  0  0  0
  -22.7632  -29.2288   19.8574 H   0  0  0  0  0  0
  -25.1285  -36.1909   25.0827 H   0  0  0  0  0  0
  -20.9981  -28.3243   24.1400 H   0  0  0  0  0  0
  -20.5652  -26.2285   23.3599 H   0  0  0  0  0  0
  -21.6643  -26.7404   22.1211 H   0  0  0  0  0  0
  -19.6905  -25.6266   21.1251 H   0  0  0  0  0  0
  -19.6703  -27.3161   20.6718 H   0  0  0  0  0  0
  -17.4203  -26.6671   21.4014 H   0  0  0  0  0  0
  -18.0332  -26.0053   22.8998 H   0  0  0  0  0  0
  -19.7923  -30.7279   24.2253 H   0  0  0  0  0  0
  -17.4994  -31.6256   24.5149 H   0  0  0  0  0  0
  -15.5345  -30.2955   23.7659 H   0  0  0  0  0  0
  -15.8674  -28.0795   22.7073 H   0  0  0  0  0  0
  -24.5873  -30.7083   25.7753 H   0  0  0  0  0  0
  -24.8891  -32.2880   26.4891 H   0  0  0  0  0  0
  -25.8002  -30.8871   27.0211 H   0  0  0  0  0  0
  -26.2928  -29.6735   24.1254 H   0  0  0  0  0  0
  -27.4031  -29.7295   25.4750 H   0  0  0  0  0  0
  -27.8805  -30.4296   23.9466 H   0  0  0  0  0  0
  -27.2684  -33.3642   26.2054 H   0  0  0  0  0  0
  -28.3868  -32.6839   25.0311 H   0  0  0  0  0  0
  -28.0717  -31.8449   26.5415 H   0  0  0  0  0  0
  -28.2556  -38.0143   24.7566 H   0  0  0  0  0  0
  -28.1144  -36.2673   24.6182 H   0  0  0  0  0  0
  -27.2326  -37.1326   25.8857 H   0  0  0  0  0  0
  -20.9397  -29.8764   21.6880 H   0  0  0  0  0  0
  -26.0166  -38.2852   24.1427 H   0  0  0  0  0  0
  -32.6196  -19.6524   22.2171 H   0  0  0  0  0  0
  -31.1503  -21.3401   21.3734 H   0  0  0  0  0  0
  -28.4103  -18.2821   20.0705 H   0  0  0  0  0  0
  -33.8382  -16.4973   23.7529 H   0  0  0  0  0  0
  -33.5450  -18.2975   23.5393 H   0  0  0  0  0  0
  -32.1169  -15.9297   22.2685 H   0  0  0  0  0  0
  -28.7885  -15.9450   20.5206 H   0  0  0  0  0  0
  -29.5149  -15.7650   22.0817 H   0  0  0  0  0  0
  -27.3190  -23.4958   20.5709 H   0  0  0  0  0  0
  -28.7779  -23.8768   21.4281 H   0  0  0  0  0  0
  -27.8914  -25.0129   18.6935 H   0  0  0  0  0  0
  -29.5143  -25.0923   19.2063 H   0  0  0  0  0  0
  -30.1742  -22.5212   19.8807 H   0  0  0  0  0  0
  -28.8826  -22.3763   18.7676 H   0  0  0  0  0  0
  1 25  1  0  0  0
  1 30  2  0  0  0
  1 79  1  0  0  0
  2  3  1  0  0  0
  2 25  1  0  0  0
  2 84  1  0  0  0
  2 85  1  0  0  0
  3  4  1  0  0  0
  3 86  1  0  0  0
  3 87  1  0  0  0
  4  5  1  0  0  0
  4 88  1  0  0  0
  4 89  1  0  0  0
  5  6  1  0  0  0
  5 26  1  0  0  0
  5 90  1  0  0  0
  6 25  1  0  0  0
  6 91  1  0  0  0
  6 92  1  0  0  0
  7  8  2  0  0  0
  7 26  1  0  0  0
  7 29  1  0  0  0
  8  9  1  0  0  0
  8 22  1  0  0  0
  9 10  1  0  0  0
  9 27  2  0  0  0
 10 11  2  0  0  0
 10 15  1  0  0  0
 11 12  1  0  0  0
 11 93  1  0  0  0
 12 13  2  0  0  0
 12 94  1  0  0  0
 13 14  1  0  0  0
 13 31  1  0  0  0
 14 15  2  0  0  0
 14 95  1  0  0  0
 15 96  1  0  0  0
 16 17  2  0  0  0
 16 21  1  0  0  0
 16 31  1  0  0  0
 17 18  1  0  0  0
 17 97  1  0  0  0
 18 19  2  0  0  0
 18 98  1  0  0  0
 19 20  1  0  0  0
 19 24  1  0  0  0
 20 21  2  0  0  0
 20 99  1  0  0  0
 21 23  1  0  0  0
 22 28  1  0  0  0
 22 32  2  0  0  0
 26 27  1  0  0  0
 28100  1  0  0  0
 28101  1  0  0  0
 29102  1  0  0  0
 29103  1  0  0  0
 33 34  1  0  0  0
 33 66  1  0  0  0
 33 70  2  0  0  0
 34 36  1  0  0  0
 34 59  1  0  0  0
 34104  1  0  0  0
 35 44  2  0  0  0
 35 45  1  0  0  0
 35 68  1  0  0  0
 36 56  1  0  0  0
 36105  1  0  0  0
 37 39  1  0  0  0
 37 47  1  0  0  0
 37 66  1  0  0  0
 37106  1  0  0  0
 38 43  2  0  0  0
 38 46  1  0  0  0
 38 47  1  0  0  0
 39 64  1  0  0  0
 39 67  2  0  0  0
 40 52  1  0  0  0
 40 53  2  0  0  0
 40 58  1  0  0  0
 41107  1  0  0  0
 41108  1  0  0  0
 41109  1  0  0  0
 41 48  1  0  0  0
 42 43  1  0  0  0
 42 66  1  0  0  0
 42110  1  0  0  0
 42111  1  0  0  0
 43 44  1  0  0  0
 44112  1  0  0  0
 45 46  2  0  0  0
 45113  1  0  0  0
 46114  1  0  0  0
 47115  1  0  0  0
 47116  1  0  0  0
 48 56  1  0  0  0
 48 65  1  0  0  0
 48117  1  0  0  0
 49 50  1  0  0  0
 49 53  1  0  0  0
 49 64  1  0  0  0
 49118  1  0  0  0
 50 51  1  0  0  0
 50119  1  0  0  0
 50120  1  0  0  0
 51 52  1  0  0  0
 51121  1  0  0  0
 51122  1  0  0  0
 52123  1  0  0  0
 52124  1  0  0  0
 53 54  1  0  0  0
 54 55  2  0  0  0
 54125  1  0  0  0
 55 57  1  0  0  0
 55126  1  0  0  0
 56 69  2  0  0  0
 57 58  2  0  0  0
 57127  1  0  0  0
 58128  1  0  0  0
 59 60  1  0  0  0
 59 61  1  0  0  0
 59 62  1  0  0  0
 60129  1  0  0  0
 60130  1  0  0  0
 60131  1  0  0  0
 61132  1  0  0  0
 61133  1  0  0  0
 61134  1  0  0  0
 62135  1  0  0  0
 62136  1  0  0  0
 62137  1  0  0  0
 63 65  1  0  0  0
 63138  1  0  0  0
 63139  1  0  0  0
 63140  1  0  0  0
 64141  1  0  0  0
 65142  1  0  0  0
 68 81  1  0  0  0
 71 72  2  0  0  0
 71 74  1  0  0  0
 71143  1  0  0  0
 72 76  1  0  0  0
 72144  1  0  0  0
 73 75  1  0  0  0
 73 76  2  0  0  0
 73145  1  0  0  0
 74 75  2  0  0  0
 74 78  1  0  0  0
 75 79  1  0  0  0
 76 83  1  0  0  0
 77 78  2  0  0  0
 77146  1  0  0  0
 77147  1  0  0  0
 78148  1  0  0  0
 79149  1  0  0  0
 79150  1  0  0  0
 80 81  1  0  0  0
 80 82  1  0  0  0
 80151  1  0  0  0
 80152  1  0  0  0
 81153  1  0  0  0
 81154  1  0  0  0
 82 83  1  0  0  0
 82155  1  0  0  0
 82156  1  0  0  0
M  ISO  4   1 100  68 101  79 100  81 101
M  END
> <chiral flag>
0

> <version>
0

> <s_m_source_file>
/data/baiqing/PycharmProjects/Reinvent-master-3.2/result/LINK_invent/BTK/process_docking_weight1_custom_product_contain_oxygen_bond_distance_aromatic_linkinvent_7_9_3/rearranged_h_0109.sdf

> <i_m_source_file_index>
42

> <r_mmod_Potential_Energy-OPLS-2005>
198.841003417969

> <r_mmod_Stretch_Energy-OPLS-2005>
122.006828308105

> <r_mmod_Bend_Energy-OPLS-2005>
194.757598876953

> <r_mmod_Torsional_Energy-OPLS-2005>
185.464370727539

> <r_mmod_Improper_Torsional_Energy-OPLS-2005>
4.7990403175354

> <r_mmod_Van_der_Waal_Energy-OPLS-2005>
146.182037353516

> <r_mmod_Electrostatic_Energy-OPLS-2005>
-316.077453613281

> <r_mmod_Solvation_Energy-OPLS-2005>
-205.761077880859

> <b_mmod_Minimization_Converged-OPLS-2005>
0

> <r_mmod_RMS_Derivative-OPLS-2005>
2.10968780517578

$$$$
42
                    3D
 Structure written by MMmdl.
165173  0  0  1  0            999 V2000
  -30.7131  -14.4585   20.5963 C   0  0  0  0  0  0
  -30.4217  -12.3067   19.4270 C   0  0  0  0  0  0
  -29.4963  -12.5083   18.2077 C   0  0  0  0  0  0
  -28.0142  -12.3739   18.6124 C   0  0  0  0  0  0
  -27.6605  -13.2009   19.8767 C   0  0  2  0  0  0
  -28.6962  -12.9553   20.9936 C   0  0  0  0  0  0
  -25.2591  -13.8143   20.5665 C   0  0  0  0  0  0
  -24.1832  -13.0428   20.9147 C   0  0  0  0  0  0
  -24.6377  -11.6892   20.8716 C   0  0  0  0  0  0
  -23.9044  -10.4286   21.0398 C   0  0  0  0  0  0
  -24.3603   -9.4205   21.9177 C   0  0  0  0  0  0
  -23.6283   -8.2241   22.0754 C   0  0  0  0  0  0
  -22.4266   -8.0276   21.3546 C   0  0  0  0  0  0
  -21.9893   -9.0244   20.4646 C   0  0  0  0  0  0
  -22.7216  -10.2125   20.3051 C   0  0  0  0  0  0
  -21.6852   -6.0728   22.5276 C   0  0  0  0  0  0
  -21.4014   -6.5635   23.8207 C   0  0  0  0  0  0
  -21.3659   -5.6790   24.9171 C   0  0  0  0  0  0
  -21.6047   -4.3053   24.7223 C   0  0  0  0  0  0
  -21.8820   -3.8142   23.4345 C   0  0  0  0  0  0
  -21.9192   -4.6957   22.3400 C   0  0  0  0  0  0
  -22.7865  -13.5240   21.1824 C   0  0  0  0  0  0
  -22.1663   -4.2143   21.0977 F   0  0  0  0  0  0
  -21.5628   -3.4537   25.7737 F   0  0  0  0  0  0
  -30.0317  -13.2811   20.4615 N   0  0  0  0  0  0
  -26.3013  -12.9297   20.3354 N   0  0  0  0  0  0
  -25.9299  -11.6463   20.5738 N   0  0  0  0  0  0
  -22.0515  -12.8237   22.0393 N   0  0  0  0  0  0
  -25.4340  -15.1864   20.4100 N   0  0  0  0  0  0
  -31.8134  -14.6614   20.0705 O   0  0  0  0  0  0
  -21.6637   -6.8869   21.4238 O   0  0  0  0  0  0
  -22.3552  -14.5552   20.6682 O   0  0  0  0  0  0
  -24.6135  -31.8692   23.2102 C   0  0  0  0  0  0
  -25.9031  -32.4831   23.8396 C   0  0  1  0  0  0
  -27.2339  -27.4451   20.0992 C   0  0  0  0  0  0
  -25.5893  -33.8629   24.2332 N   0  0  0  0  0  0
  -23.4009  -30.4921   21.5515 C   0  0  2  0  0  0
  -24.8474  -28.9560   20.1163 C   0  0  0  0  0  0
  -22.7406  -29.4672   22.5008 C   0  0  0  0  0  0
  -18.0273  -28.1375   22.8499 C   0  0  0  0  0  0
  -24.1484  -36.7313   23.2644 C   0  0  0  0  0  0
  -25.9282  -30.8381   21.3611 C   0  0  0  0  0  0
  -26.0071  -29.4732   20.7085 C   0  0  0  0  0  0
  -27.2064  -28.7271   20.6917 C   0  0  0  0  0  0
  -26.0600  -26.9347   19.5069 C   0  0  0  0  0  0
  -24.8681  -27.6859   19.5120 C   0  0  0  0  0  0
  -23.6084  -29.8219   20.1668 C   0  0  0  0  0  0
  -25.4106  -36.3114   24.0343 C   0  0  1  0  0  0
  -20.5863  -28.3666   23.1325 C   0  0  2  0  0  0
  -20.6768  -26.9405   22.5422 C   0  0  0  0  0  0
  -19.5747  -26.6387   21.5216 C   0  0  0  0  0  0
  -18.1921  -26.7926   22.1619 C   0  0  0  0  0  0
  -19.1520  -28.8834   23.2911 C   0  0  0  0  0  0
  -18.9449  -30.1438   23.8924 C   0  0  0  0  0  0
  -17.6454  -30.6587   24.0564 C   0  0  0  0  0  0
  -25.9027  -34.9482   23.5132 C   0  0  0  0  0  0
  -16.5342  -29.9091   23.6325 C   0  0  0  0  0  0
  -16.7260  -28.6500   23.0356 C   0  0  0  0  0  0
  -26.4467  -31.6610   25.0718 C   0  0  0  0  0  0
  -25.3740  -31.3698   26.1471 C   0  0  0  0  0  0
  -27.0308  -30.3059   24.6085 C   0  0  0  0  0  0
  -27.6051  -32.4331   25.7468 C   0  0  0  0  0  0
  -27.5583  -37.1807   24.8469 C   0  0  0  0  0  0
  -21.4135  -29.3033   22.3729 N   0  0  0  0  0  0
  -26.4297  -37.3794   23.9408 N   0  0  0  0  0  0
  -24.6658  -31.0803   22.0995 N   0  0  0  0  0  0
  -23.4175  -28.8225   23.3055 O   0  0  0  0  0  0
  -28.3967  -26.7110   20.0825 O   0  0  0  0  0  0
  -26.5593  -34.8935   22.4697 O   0  0  0  0  0  0
  -23.5331  -32.1436   23.7502 O   0  0  0  0  0  0
  -29.4190  -16.6637   19.0787 C   0  0  0  0  0  0
  -28.9918  -19.0409   18.7971 C   0  0  0  0  0  0
  -29.6609  -16.8246   20.4687 C   0  0  0  0  0  0
  -29.0929  -17.7518   18.2475 C   0  0  0  0  0  0
  -29.1967  -19.2573   20.1798 C   0  0  0  0  0  0
  -29.5121  -18.1420   21.0123 C   0  0  0  0  0  0
  -30.0083  -15.6145   21.3193 C   0  0  0  0  0  0
  -28.5492  -18.7444   23.0814 C   0  0  0  0  0  0
  -28.8593  -17.5398   16.7581 C   0  0  0  0  0  0
  -28.5138  -24.2310   19.9530 C   0  0  0  0  0  0
  -28.7230  -22.9340   20.7758 C   0  0  0  0  0  0
  -28.3650  -25.4905   20.8361 C   0  0  0  0  0  0
  -28.8231  -21.6509   19.9239 C   0  0  0  0  0  0
  -29.7824  -15.5627   22.5673 N   0  0  0  0  0  0
  -27.4326  -17.3563   16.4658 N   0  3  0  0  0  0
  -29.7116  -18.3520   22.3576 O   0  0  0  0  0  0
  -29.1177  -20.5190   20.7528 O   0  0  0  0  0  0
  -31.4670  -12.4041   19.1281 H   0  0  0  0  0  0
  -30.3228  -11.2915   19.8146 H   0  0  0  0  0  0
  -29.7358  -11.7797   17.4321 H   0  0  0  0  0  0
  -29.6728  -13.4895   17.7657 H   0  0  0  0  0  0
  -27.8175  -11.3171   18.7969 H   0  0  0  0  0  0
  -27.3677  -12.6603   17.7820 H   0  0  0  0  0  0
  -27.7092  -14.2526   19.5985 H   0  0  0  0  0  0
  -28.6752  -11.9082   21.2994 H   0  0  0  0  0  0
  -28.4306  -13.5077   21.8926 H   0  0  0  0  0  0
  -25.2750   -9.5684   22.4746 H   0  0  0  0  0  0
  -23.9996   -7.4633   22.7475 H   0  0  0  0  0  0
  -21.0824   -8.8754   19.8955 H   0  0  0  0  0  0
  -22.3669  -10.9660   19.6161 H   0  0  0  0  0  0
  -21.2009   -7.6145   23.9707 H   0  0  0  0  0  0
  -21.1482   -6.0522   25.9072 H   0  0  0  0  0  0
  -22.0602   -2.7605   23.2846 H   0  0  0  0  0  0
  -22.4133  -11.9895   22.4772 H   0  0  0  0  0  0
  -21.1141  -13.1272   22.2616 H   0  0  0  0  0  0
  -24.6730  -15.8436   20.5436 H   0  0  0  0  0  0
  -26.3072  -15.6347   20.1688 H   0  0  0  0  0  0
  -26.7102  -32.5544   23.1165 H   0  0  0  0  0  0
  -25.0050  -33.9796   25.0482 H   0  0  0  0  0  0
  -22.6887  -31.3084   21.4131 H   0  0  0  0  0  0
  -23.3745  -35.9646   23.3315 H   0  0  0  0  0  0
  -24.3572  -36.8910   22.2054 H   0  0  0  0  0  0
  -23.7235  -37.6521   23.6648 H   0  0  0  0  0  0
  -26.0381  -31.6055   20.5936 H   0  0  0  0  0  0
  -26.8165  -30.8915   21.9785 H   0  0  0  0  0  0
  -28.1049  -29.1254   21.1422 H   0  0  0  0  0  0
  -26.0683  -25.9611   19.0382 H   0  0  0  0  0  0
  -23.9770  -27.2811   19.0522 H   0  0  0  0  0  0
  -23.7139  -30.5965   19.4064 H   0  0  0  0  0  0
  -22.7322  -29.2405   19.8743 H   0  0  0  0  0  0
  -25.1281  -36.1981   25.0836 H   0  0  0  0  0  0
  -20.9949  -28.3238   24.1445 H   0  0  0  0  0  0
  -20.5675  -26.2279   23.3608 H   0  0  0  0  0  0
  -21.6645  -26.7466   22.1212 H   0  0  0  0  0  0
  -19.6913  -25.6301   21.1237 H   0  0  0  0  0  0
  -19.6686  -27.3207   20.6757 H   0  0  0  0  0  0
  -17.4201  -26.6686   21.4009 H   0  0  0  0  0  0
  -18.0303  -26.0057   22.9000 H   0  0  0  0  0  0
  -19.7928  -30.7237   24.2317 H   0  0  0  0  0  0
  -17.5016  -31.6274   24.5158 H   0  0  0  0  0  0
  -15.5344  -30.3002   23.7642 H   0  0  0  0  0  0
  -15.8656  -28.0825   22.7073 H   0  0  0  0  0  0
  -24.5936  -30.7017   25.7809 H   0  0  0  0  0  0
  -24.8903  -32.2842   26.4919 H   0  0  0  0  0  0
  -25.8109  -30.8880   27.0229 H   0  0  0  0  0  0
  -26.2847  -29.6791   24.1185 H   0  0  0  0  0  0
  -27.4138  -29.7321   25.4534 H   0  0  0  0  0  0
  -27.8651  -30.4386   23.9191 H   0  0  0  0  0  0
  -27.2688  -33.3628   26.2072 H   0  0  0  0  0  0
  -28.3840  -32.6897   25.0275 H   0  0  0  0  0  0
  -28.0746  -31.8441   26.5353 H   0  0  0  0  0  0
  -28.2619  -38.0091   24.7517 H   0  0  0  0  0  0
  -28.1065  -36.2625   24.6296 H   0  0  0  0  0  0
  -27.2305  -37.1465   25.8876 H   0  0  0  0  0  0
  -20.9291  -29.8740   21.6941 H   0  0  0  0  0  0
  -26.0187  -38.2876   24.1401 H   0  0  0  0  0  0
  -29.4850  -15.6890   18.6184 H   0  0  0  0  0  0
  -28.7557  -19.8572   18.1306 H   0  0  0  0  0  0
  -28.7210  -18.5894   24.1464 H   0  0  0  0  0  0
  -27.6800  -18.1483   22.7981 H   0  0  0  0  0  0
  -28.3098  -19.7982   22.9443 H   0  0  0  0  0  0
  -29.4185  -16.6694   16.4114 H   0  0  0  0  0  0
  -29.2398  -18.3959   16.1985 H   0  0  0  0  0  0
  -27.6319  -24.1270   19.3207 H   0  0  0  0  0  0
  -29.3594  -24.3662   19.2779 H   0  0  0  0  0  0
  -27.9053  -22.8212   21.4886 H   0  0  0  0  0  0
  -29.6329  -23.0331   21.3691 H   0  0  0  0  0  0
  -29.1970  -25.5326   21.5400 H   0  0  0  0  0  0
  -27.4641  -25.4111   21.4488 H   0  0  0  0  0  0
  -29.6073  -21.7696   19.1746 H   0  0  0  0  0  0
  -27.8775  -21.4997   19.4000 H   0  0  0  0  0  0
  -29.3657  -16.4322   22.8801 H   0  0  0  0  0  0
  -27.0725  -16.5500   16.9402 H   0  0  0  0  0  0
  -27.3055  -17.2279   15.4782 H   0  0  0  0  0  0
  -26.9108  -18.1646   16.7493 H   0  0  0  0  0  0
  1 25  1  0  0  0
  1 30  2  0  0  0
  1 77  1  0  0  0
  2  3  1  0  0  0
  2 25  1  0  0  0
  2 88  1  0  0  0
  2 89  1  0  0  0
  3  4  1  0  0  0
  3 90  1  0  0  0
  3 91  1  0  0  0
  4  5  1  0  0  0
  4 92  1  0  0  0
  4 93  1  0  0  0
  5  6  1  0  0  0
  5 26  1  0  0  0
  5 94  1  0  0  0
  6 25  1  0  0  0
  6 95  1  0  0  0
  6 96  1  0  0  0
  7  8  2  0  0  0
  7 26  1  0  0  0
  7 29  1  0  0  0
  8  9  1  0  0  0
  8 22  1  0  0  0
  9 10  1  0  0  0
  9 27  2  0  0  0
 10 11  2  0  0  0
 10 15  1  0  0  0
 11 12  1  0  0  0
 11 97  1  0  0  0
 12 13  2  0  0  0
 12 98  1  0  0  0
 13 14  1  0  0  0
 13 31  1  0  0  0
 14 15  2  0  0  0
 14 99  1  0  0  0
 15100  1  0  0  0
 16 17  2  0  0  0
 16 21  1  0  0  0
 16 31  1  0  0  0
 17 18  1  0  0  0
 17101  1  0  0  0
 18 19  2  0  0  0
 18102  1  0  0  0
 19 20  1  0  0  0
 19 24  1  0  0  0
 20 21  2  0  0  0
 20103  1  0  0  0
 21 23  1  0  0  0
 22 28  1  0  0  0
 22 32  2  0  0  0
 26 27  1  0  0  0
 28104  1  0  0  0
 28105  1  0  0  0
 29106  1  0  0  0
 29107  1  0  0  0
 33 34  1  0  0  0
 33 66  1  0  0  0
 33 70  2  0  0  0
 34 36  1  0  0  0
 34 59  1  0  0  0
 34108  1  0  0  0
 35 44  2  0  0  0
 35 45  1  0  0  0
 35 68  1  0  0  0
 36 56  1  0  0  0
 36109  1  0  0  0
 37 39  1  0  0  0
 37 47  1  0  0  0
 37 66  1  0  0  0
 37110  1  0  0  0
 38 43  2  0  0  0
 38 46  1  0  0  0
 38 47  1  0  0  0
 39 64  1  0  0  0
 39 67  2  0  0  0
 40 52  1  0  0  0
 40 53  2  0  0  0
 40 58  1  0  0  0
 41111  1  0  0  0
 41112  1  0  0  0
 41113  1  0  0  0
 41 48  1  0  0  0
 42 43  1  0  0  0
 42 66  1  0  0  0
 42114  1  0  0  0
 42115  1  0  0  0
 43 44  1  0  0  0
 44116  1  0  0  0
 45 46  2  0  0  0
 45117  1  0  0  0
 46118  1  0  0  0
 47119  1  0  0  0
 47120  1  0  0  0
 48 56  1  0  0  0
 48 65  1  0  0  0
 48121  1  0  0  0
 49 50  1  0  0  0
 49 53  1  0  0  0
 49 64  1  0  0  0
 49122  1  0  0  0
 50 51  1  0  0  0
 50123  1  0  0  0
 50124  1  0  0  0
 51 52  1  0  0  0
 51125  1  0  0  0
 51126  1  0  0  0
 52127  1  0  0  0
 52128  1  0  0  0
 53 54  1  0  0  0
 54 55  2  0  0  0
 54129  1  0  0  0
 55 57  1  0  0  0
 55130  1  0  0  0
 56 69  2  0  0  0
 57 58  2  0  0  0
 57131  1  0  0  0
 58132  1  0  0  0
 59 60  1  0  0  0
 59 61  1  0  0  0
 59 62  1  0  0  0
 60133  1  0  0  0
 60134  1  0  0  0
 60135  1  0  0  0
 61136  1  0  0  0
 61137  1  0  0  0
 61138  1  0  0  0
 62139  1  0  0  0
 62140  1  0  0  0
 62141  1  0  0  0
 63 65  1  0  0  0
 63142  1  0  0  0
 63143  1  0  0  0
 63144  1  0  0  0
 64145  1  0  0  0
 65146  1  0  0  0
 68 82  1  0  0  0
 71 73  2  0  0  0
 71 74  1  0  0  0
 71147  1  0  0  0
 72 74  2  0  0  0
 72 75  1  0  0  0
 72148  1  0  0  0
 73 76  1  0  0  0
 73 77  1  0  0  0
 74 79  1  0  0  0
 75 76  2  0  0  0
 75 87  1  0  0  0
 76 86  1  0  0  0
 77 84  2  0  0  0
 78 86  1  0  0  0
 78149  1  0  0  0
 78150  1  0  0  0
 78151  1  0  0  0
 79 85  1  0  0  0
 79152  1  0  0  0
 79153  1  0  0  0
 80 81  1  0  0  0
 80 82  1  0  0  0
 80154  1  0  0  0
 80155  1  0  0  0
 81 83  1  0  0  0
 81156  1  0  0  0
 81157  1  0  0  0
 82158  1  0  0  0
 82159  1  0  0  0
 83 87  1  0  0  0
 83160  1  0  0  0
 83161  1  0  0  0
 84162  1  0  0  0
 85163  1  0  0  0
 85164  1  0  0  0
 85165  1  0  0  0
M  CHG  1  85   1
M  ISO  4   1 100  68 101  77 100  82 101
M  END
> <chiral flag>
0

> <version>
0

> <s_m_source_file>
/data/baiqing/PycharmProjects/Reinvent-master-3.2/result/LINK_invent/BTK/process_docking_weight1_custom_product_contain_oxygen_bond_distance_aromatic_linkinvent_7_9_3/rearranged_h_0109.sdf

> <i_m_source_file_index>
43

> <r_mmod_Potential_Energy-OPLS-2005>
-157.347412109375

> <r_mmod_Stretch_Energy-OPLS-2005>
46.0377044677734

> <r_mmod_Bend_Energy-OPLS-2005>
101.977081298828

> <r_mmod_Torsional_Energy-OPLS-2005>
247.011367797852

> <r_mmod_Improper_Torsional_Energy-OPLS-2005>
2.99844408035278

> <r_mmod_Van_der_Waal_Energy-OPLS-2005>
156.730163574219

> <r_mmod_Electrostatic_Energy-OPLS-2005>
-186.461029052734

> <r_mmod_Solvation_Energy-OPLS-2005>
-535.833312988281

> <b_mmod_Minimization_Converged-OPLS-2005>
0

> <r_mmod_RMS_Derivative-OPLS-2005>
0.914559721946716

$$$$
43
                    3D
 Structure written by MMmdl.
153161  0  0  1  0            999 V2000
  -30.7249  -14.4666   20.5926 C   0  0  0  0  0  0
  -30.4152  -12.3158   19.4186 C   0  0  0  0  0  0
  -29.4917  -12.5164   18.2018 C   0  0  0  0  0  0
  -28.0137  -12.3720   18.6150 C   0  0  0  0  0  0
  -27.6592  -13.2127   19.8712 C   0  0  2  0  0  0
  -28.6999  -13.0061   20.9937 C   0  0  0  0  0  0
  -25.2572  -13.8174   20.5687 C   0  0  0  0  0  0
  -24.1829  -13.0446   20.9180 C   0  0  0  0  0  0
  -24.6387  -11.6912   20.8718 C   0  0  0  0  0  0
  -23.9053  -10.4294   21.0392 C   0  0  0  0  0  0
  -24.3605   -9.4208   21.9172 C   0  0  0  0  0  0
  -23.6289   -8.2241   22.0744 C   0  0  0  0  0  0
  -22.4267   -8.0277   21.3546 C   0  0  0  0  0  0
  -21.9903   -9.0248   20.4647 C   0  0  0  0  0  0
  -22.7224  -10.2130   20.3043 C   0  0  0  0  0  0
  -21.6856   -6.0726   22.5283 C   0  0  0  0  0  0
  -21.4016   -6.5627   23.8214 C   0  0  0  0  0  0
  -21.3658   -5.6782   24.9177 C   0  0  0  0  0  0
  -21.6045   -4.3049   24.7225 C   0  0  0  0  0  0
  -21.8821   -3.8139   23.4350 C   0  0  0  0  0  0
  -21.9196   -4.6954   22.3407 C   0  0  0  0  0  0
  -22.7852  -13.5243   21.1850 C   0  0  0  0  0  0
  -22.1666   -4.2141   21.0984 F   0  0  0  0  0  0
  -21.5624   -3.4529   25.7739 F   0  0  0  0  0  0
  -30.0299  -13.3066   20.4380 N   0  0  0  0  0  0
  -26.3009  -12.9359   20.3345 N   0  0  0  0  0  0
  -25.9314  -11.6508   20.5730 N   0  0  0  0  0  0
  -22.0484  -12.8231   22.0403 N   0  0  0  0  0  0
  -25.4301  -15.1889   20.4095 N   0  0  0  0  0  0
  -31.8411  -14.6392   20.0956 O   0  0  0  0  0  0
  -21.6642   -6.8865   21.4241 O   0  0  0  0  0  0
  -22.3541  -14.5554   20.6709 O   0  0  0  0  0  0
  -24.6163  -31.8676   23.2092 C   0  0  0  0  0  0
  -25.9053  -32.4815   23.8397 C   0  0  1  0  0  0
  -27.2281  -27.4259   20.1015 C   0  0  0  0  0  0
  -25.5907  -33.8613   24.2333 N   0  0  0  0  0  0
  -23.4049  -30.4910   21.5503 C   0  0  2  0  0  0
  -24.8524  -28.9581   20.1112 C   0  0  0  0  0  0
  -22.7430  -29.4649   22.4987 C   0  0  0  0  0  0
  -18.0278  -28.1373   22.8491 C   0  0  0  0  0  0
  -24.1491  -36.7302   23.2637 C   0  0  0  0  0  0
  -25.9349  -30.8323   21.3628 C   0  0  0  0  0  0
  -26.0136  -29.4670   20.7076 C   0  0  0  0  0  0
  -27.2095  -28.7094   20.6960 C   0  0  0  0  0  0
  -26.0548  -26.9373   19.4903 C   0  0  0  0  0  0
  -24.8687  -27.6943   19.4961 C   0  0  0  0  0  0
  -23.6139  -29.8240   20.1640 C   0  0  0  0  0  0
  -25.4105  -36.3104   24.0344 C   0  0  1  0  0  0
  -20.5868  -28.3658   23.1317 C   0  0  2  0  0  0
  -20.6765  -26.9391   22.5417 C   0  0  0  0  0  0
  -19.5747  -26.6381   21.5208 C   0  0  0  0  0  0
  -18.1922  -26.7924   22.1613 C   0  0  0  0  0  0
  -19.1525  -28.8835   23.2900 C   0  0  0  0  0  0
  -18.9452  -30.1443   23.8901 C   0  0  0  0  0  0
  -17.6453  -30.6580   24.0554 C   0  0  0  0  0  0
  -25.9032  -34.9467   23.5132 C   0  0  0  0  0  0
  -16.5343  -29.9077   23.6322 C   0  0  0  0  0  0
  -16.7265  -28.6493   23.0345 C   0  0  0  0  0  0
  -26.4475  -31.6585   25.0721 C   0  0  0  0  0  0
  -25.3743  -31.3711   26.1483 C   0  0  0  0  0  0
  -27.0271  -30.3018   24.6085 C   0  0  0  0  0  0
  -27.6086  -32.4274   25.7458 C   0  0  0  0  0  0
  -27.5587  -37.1798   24.8458 C   0  0  0  0  0  0
  -21.4156  -29.3026   22.3731 N   0  0  0  0  0  0
  -26.4289  -37.3788   23.9420 N   0  0  0  0  0  0
  -24.6701  -31.0779   22.0988 N   0  0  0  0  0  0
  -23.4203  -28.8181   23.3020 O   0  0  0  0  0  0
  -28.3570  -26.6365   20.1262 O   0  0  0  0  0  0
  -26.5585  -34.8924   22.4689 O   0  0  0  0  0  0
  -23.5348  -32.1425   23.7481 O   0  0  0  0  0  0
  -28.7487  -18.4239   21.9649 C   0  0  0  0  0  0
  -29.9315  -18.0051   21.3892 C   0  0  0  0  0  0
  -29.2693  -20.3343   20.8243 C   0  0  0  0  0  0
  -28.7600  -24.1648   20.2328 C   0  0  0  0  0  0
  -27.8841  -17.6631   22.9240 C   0  0  0  0  0  0
  -30.7254  -16.7395   21.6425 C   0  0  0  0  0  0
  -28.3579  -22.8002   20.8398 C   0  0  0  0  0  0
  -28.1794  -25.4302   20.9036 C   0  0  0  0  0  0
  -28.3931  -19.7451   21.6387 N   0  0  0  0  0  0
  -29.1990  -21.6683   20.4268 N   0  0  0  0  0  0
  -30.1004  -15.4617   21.2533 N   0  0  0  0  0  0
  -29.5268  -24.2241   19.2630 O   0  0  0  0  0  0
  -30.5878  -19.2648   20.3545 S   0  0  0  0  0  0
  -31.4601  -12.4062   19.1169 H   0  0  0  0  0  0
  -30.3068  -11.3061   19.8174 H   0  0  0  0  0  0
  -29.7355  -11.7957   17.4195 H   0  0  0  0  0  0
  -29.6600  -13.5043   17.7692 H   0  0  0  0  0  0
  -27.8269  -11.3160   18.8104 H   0  0  0  0  0  0
  -27.3631  -12.6463   17.7833 H   0  0  0  0  0  0
  -27.7003  -14.2606   19.5719 H   0  0  0  0  0  0
  -28.6765  -11.9743   21.3476 H   0  0  0  0  0  0
  -28.4582  -13.6180   21.8632 H   0  0  0  0  0  0
  -25.2749   -9.5690   22.4744 H   0  0  0  0  0  0
  -24.0007   -7.4630   22.7453 H   0  0  0  0  0  0
  -21.0841   -8.8758   19.8955 H   0  0  0  0  0  0
  -22.3681  -10.9657   19.6143 H   0  0  0  0  0  0
  -21.2009   -7.6135   23.9713 H   0  0  0  0  0  0
  -21.1474   -6.0511   25.9078 H   0  0  0  0  0  0
  -22.0598   -2.7604   23.2855 H   0  0  0  0  0  0
  -22.4088  -11.9890   22.4799 H   0  0  0  0  0  0
  -21.1093  -13.1257   22.2573 H   0  0  0  0  0  0
  -24.6632  -15.8443   20.5123 H   0  0  0  0  0  0
  -26.2827  -15.6258   20.0831 H   0  0  0  0  0  0
  -26.7132  -32.5528   23.1168 H   0  0  0  0  0  0
  -25.0099  -33.9776   25.0508 H   0  0  0  0  0  0
  -22.6929  -31.3074   21.4117 H   0  0  0  0  0  0
  -23.3772  -35.9612   23.3268 H   0  0  0  0  0  0
  -24.3599  -36.8942   22.2057 H   0  0  0  0  0  0
  -23.7219  -37.6491   23.6665 H   0  0  0  0  0  0
  -26.0513  -31.6003   20.5965 H   0  0  0  0  0  0
  -26.8208  -30.8837   21.9836 H   0  0  0  0  0  0
  -28.1055  -29.0939   21.1624 H   0  0  0  0  0  0
  -26.0561  -25.9645   19.0185 H   0  0  0  0  0  0
  -23.9767  -27.2991   19.0300 H   0  0  0  0  0  0
  -23.7216  -30.5986   19.4038 H   0  0  0  0  0  0
  -22.7388  -29.2420   19.8703 H   0  0  0  0  0  0
  -25.1277  -36.1960   25.0837 H   0  0  0  0  0  0
  -20.9966  -28.3222   24.1435 H   0  0  0  0  0  0
  -20.5667  -26.2262   23.3602 H   0  0  0  0  0  0
  -21.6640  -26.7438   22.1212 H   0  0  0  0  0  0
  -19.6904  -25.6291   21.1231 H   0  0  0  0  0  0
  -19.6687  -27.3198   20.6739 H   0  0  0  0  0  0
  -17.4201  -26.6700   21.3999 H   0  0  0  0  0  0
  -18.0304  -26.0052   22.8996 H   0  0  0  0  0  0
  -19.7930  -30.7260   24.2276 H   0  0  0  0  0  0
  -17.5005  -31.6262   24.5155 H   0  0  0  0  0  0
  -15.5341  -30.2971   23.7637 H   0  0  0  0  0  0
  -15.8673  -28.0800   22.7054 H   0  0  0  0  0  0
  -24.5878  -30.7105   25.7822 H   0  0  0  0  0  0
  -24.8975  -32.2871   26.4978 H   0  0  0  0  0  0
  -25.8088  -30.8833   27.0216 H   0  0  0  0  0  0
  -26.2784  -29.6800   24.1161 H   0  0  0  0  0  0
  -27.4060  -29.7244   25.4529 H   0  0  0  0  0  0
  -27.8628  -30.4326   23.9205 H   0  0  0  0  0  0
  -27.2768  -33.3606   26.2019 H   0  0  0  0  0  0
  -28.3891  -32.6763   25.0257 H   0  0  0  0  0  0
  -28.0750  -31.8386   26.5366 H   0  0  0  0  0  0
  -28.2592  -38.0109   24.7534 H   0  0  0  0  0  0
  -28.1092  -36.2642   24.6230 H   0  0  0  0  0  0
  -27.2320  -37.1404   25.8865 H   0  0  0  0  0  0
  -20.9321  -29.8745   21.6951 H   0  0  0  0  0  0
  -26.0177  -38.2867   24.1422 H   0  0  0  0  0  0
  -28.2547  -16.6541   23.0995 H   0  0  0  0  0  0
  -26.8637  -17.5717   22.5510 H   0  0  0  0  0  0
  -27.8382  -18.1617   23.8926 H   0  0  0  0  0  0
  -30.9316  -16.6732   22.7114 H   0  0  0  0  0  0
  -31.7091  -16.8490   21.1815 H   0  0  0  0  0  0
  -27.3222  -22.5936   20.5663 H   0  0  0  0  0  0
  -28.3847  -22.8840   21.9271 H   0  0  0  0  0  0
  -28.6801  -25.5641   21.8623 H   0  0  0  0  0  0
  -27.1296  -25.2413   21.1322 H   0  0  0  0  0  0
  -29.9191  -21.9508   19.7660 H   0  0  0  0  0  0
  -29.1738  -15.2649   21.5990 H   0  0  0  0  0  0
  1 25  1  0  0  0
  1 30  2  0  0  0
  1 81  1  0  0  0
  2  3  1  0  0  0
  2 25  1  0  0  0
  2 84  1  0  0  0
  2 85  1  0  0  0
  3  4  1  0  0  0
  3 86  1  0  0  0
  3 87  1  0  0  0
  4  5  1  0  0  0
  4 88  1  0  0  0
  4 89  1  0  0  0
  5  6  1  0  0  0
  5 26  1  0  0  0
  5 90  1  0  0  0
  6 25  1  0  0  0
  6 91  1  0  0  0
  6 92  1  0  0  0
  7  8  2  0  0  0
  7 26  1  0  0  0
  7 29  1  0  0  0
  8  9  1  0  0  0
  8 22  1  0  0  0
  9 10  1  0  0  0
  9 27  2  0  0  0
 10 11  2  0  0  0
 10 15  1  0  0  0
 11 12  1  0  0  0
 11 93  1  0  0  0
 12 13  2  0  0  0
 12 94  1  0  0  0
 13 14  1  0  0  0
 13 31  1  0  0  0
 14 15  2  0  0  0
 14 95  1  0  0  0
 15 96  1  0  0  0
 16 17  2  0  0  0
 16 21  1  0  0  0
 16 31  1  0  0  0
 17 18  1  0  0  0
 17 97  1  0  0  0
 18 19  2  0  0  0
 18 98  1  0  0  0
 19 20  1  0  0  0
 19 24  1  0  0  0
 20 21  2  0  0  0
 20 99  1  0  0  0
 21 23  1  0  0  0
 22 28  1  0  0  0
 22 32  2  0  0  0
 26 27  1  0  0  0
 28100  1  0  0  0
 28101  1  0  0  0
 29102  1  0  0  0
 29103  1  0  0  0
 33 34  1  0  0  0
 33 66  1  0  0  0
 33 70  2  0  0  0
 34 36  1  0  0  0
 34 59  1  0  0  0
 34104  1  0  0  0
 35 44  2  0  0  0
 35 45  1  0  0  0
 35 68  1  0  0  0
 36 56  1  0  0  0
 36105  1  0  0  0
 37 39  1  0  0  0
 37 47  1  0  0  0
 37 66  1  0  0  0
 37106  1  0  0  0
 38 43  2  0  0  0
 38 46  1  0  0  0
 38 47  1  0  0  0
 39 64  1  0  0  0
 39 67  2  0  0  0
 40 52  1  0  0  0
 40 53  2  0  0  0
 40 58  1  0  0  0
 41107  1  0  0  0
 41108  1  0  0  0
 41109  1  0  0  0
 41 48  1  0  0  0
 42 43  1  0  0  0
 42 66  1  0  0  0
 42110  1  0  0  0
 42111  1  0  0  0
 43 44  1  0  0  0
 44112  1  0  0  0
 45 46  2  0  0  0
 45113  1  0  0  0
 46114  1  0  0  0
 47115  1  0  0  0
 47116  1  0  0  0
 48 56  1  0  0  0
 48 65  1  0  0  0
 48117  1  0  0  0
 49 50  1  0  0  0
 49 53  1  0  0  0
 49 64  1  0  0  0
 49118  1  0  0  0
 50 51  1  0  0  0
 50119  1  0  0  0
 50120  1  0  0  0
 51 52  1  0  0  0
 51121  1  0  0  0
 51122  1  0  0  0
 52123  1  0  0  0
 52124  1  0  0  0
 53 54  1  0  0  0
 54 55  2  0  0  0
 54125  1  0  0  0
 55 57  1  0  0  0
 55126  1  0  0  0
 56 69  2  0  0  0
 57 58  2  0  0  0
 57127  1  0  0  0
 58128  1  0  0  0
 59 60  1  0  0  0
 59 61  1  0  0  0
 59 62  1  0  0  0
 60129  1  0  0  0
 60130  1  0  0  0
 60131  1  0  0  0
 61132  1  0  0  0
 61133  1  0  0  0
 61134  1  0  0  0
 62135  1  0  0  0
 62136  1  0  0  0
 62137  1  0  0  0
 63 65  1  0  0  0
 63138  1  0  0  0
 63139  1  0  0  0
 63140  1  0  0  0
 64141  1  0  0  0
 65142  1  0  0  0
 68 78  1  0  0  0
 71 72  2  0  0  0
 71 75  1  0  0  0
 71 79  1  0  0  0
 72 76  1  0  0  0
 72 83  1  0  0  0
 73 79  2  0  0  0
 73 80  1  0  0  0
 73 83  1  0  0  0
 74 77  1  0  0  0
 74 78  1  0  0  0
 74 82  2  0  0  0
 75143  1  0  0  0
 75144  1  0  0  0
 75145  1  0  0  0
 76 81  1  0  0  0
 76146  1  0  0  0
 76147  1  0  0  0
 77 80  1  0  0  0
 77148  1  0  0  0
 77149  1  0  0  0
 78150  1  0  0  0
 78151  1  0  0  0
 80152  1  0  0  0
 81153  1  0  0  0
M  ISO  4   1 100  68 101  78 101  81 100
M  END
> <chiral flag>
0

> <version>
0

> <s_m_source_file>
/data/baiqing/PycharmProjects/Reinvent-master-3.2/result/LINK_invent/BTK/process_docking_weight1_custom_product_contain_oxygen_bond_distance_aromatic_linkinvent_7_9_3/rearranged_h_0109.sdf

> <i_m_source_file_index>
44

> <r_mmod_Potential_Energy-OPLS-2005>
-187.750534057617

> <r_mmod_Stretch_Energy-OPLS-2005>
37.0063362121582

> <r_mmod_Bend_Energy-OPLS-2005>
92.9535140991211

> <r_mmod_Torsional_Energy-OPLS-2005>
209.030212402344

> <r_mmod_Improper_Torsional_Energy-OPLS-2005>
2.89953136444092

> <r_mmod_Van_der_Waal_Energy-OPLS-2005>
122.553611755371

> <r_mmod_Electrostatic_Energy-OPLS-2005>
-422.238494873047

> <r_mmod_Solvation_Energy-OPLS-2005>
-244.270751953125

> <b_mmod_Minimization_Converged-OPLS-2005>
0

> <r_mmod_RMS_Derivative-OPLS-2005>
1.3255318403244

$$$$
44
                    3D
 Structure written by MMmdl.
162170  0  0  1  0            999 V2000
  -30.7093  -14.4769   20.6054 C   0  0  0  0  0  0
  -30.4156  -12.3255   19.4205 C   0  0  0  0  0  0
  -29.4856  -12.5080   18.2048 C   0  0  0  0  0  0
  -28.0109  -12.3625   18.6234 C   0  0  0  0  0  0
  -27.6556  -13.2097   19.8741 C   0  0  2  0  0  0
  -28.6962  -13.0003   20.9959 C   0  0  0  0  0  0
  -25.2550  -13.8168   20.5673 C   0  0  0  0  0  0
  -24.1806  -13.0439   20.9158 C   0  0  0  0  0  0
  -24.6363  -11.6903   20.8723 C   0  0  0  0  0  0
  -23.9039  -10.4294   21.0400 C   0  0  0  0  0  0
  -24.3588   -9.4207   21.9189 C   0  0  0  0  0  0
  -23.6262   -8.2248   22.0771 C   0  0  0  0  0  0
  -22.4250   -8.0275   21.3548 C   0  0  0  0  0  0
  -21.9885   -9.0240   20.4651 C   0  0  0  0  0  0
  -22.7208  -10.2123   20.3057 C   0  0  0  0  0  0
  -21.6846   -6.0723   22.5281 C   0  0  0  0  0  0
  -21.4006   -6.5633   23.8208 C   0  0  0  0  0  0
  -21.3660   -5.6786   24.9174 C   0  0  0  0  0  0
  -21.6049   -4.3049   24.7234 C   0  0  0  0  0  0
  -21.8820   -3.8132   23.4350 C   0  0  0  0  0  0
  -21.9186   -4.6946   22.3401 C   0  0  0  0  0  0
  -22.7833  -13.5240   21.1825 C   0  0  0  0  0  0
  -22.1657   -4.2131   21.0982 F   0  0  0  0  0  0
  -21.5632   -3.4531   25.7739 F   0  0  0  0  0  0
  -30.0212  -13.3129   20.4399 N   0  0  0  0  0  0
  -26.2986  -12.9345   20.3352 N   0  0  0  0  0  0
  -25.9289  -11.6502   20.5767 N   0  0  0  0  0  0
  -22.0485  -12.8239   22.0380 N   0  0  0  0  0  0
  -25.4291  -15.1891   20.4096 N   0  0  0  0  0  0
  -31.8277  -14.6508   20.1117 O   0  0  0  0  0  0
  -21.6631   -6.8857   21.4238 O   0  0  0  0  0  0
  -22.3526  -14.5553   20.6680 O   0  0  0  0  0  0
  -24.6153  -31.8673   23.2103 C   0  0  0  0  0  0
  -25.9059  -32.4810   23.8390 C   0  0  1  0  0  0
  -27.2305  -27.4261   20.0811 C   0  0  0  0  0  0
  -25.5942  -33.8606   24.2346 N   0  0  0  0  0  0
  -23.4006  -30.4936   21.5537 C   0  0  2  0  0  0
  -24.8409  -28.9548   20.1160 C   0  0  0  0  0  0
  -22.7391  -29.4659   22.5000 C   0  0  0  0  0  0
  -18.0263  -28.1381   22.8492 C   0  0  0  0  0  0
  -24.1485  -36.7293   23.2644 C   0  0  0  0  0  0
  -25.9280  -30.8314   21.3601 C   0  0  0  0  0  0
  -26.0029  -29.4639   20.7065 C   0  0  0  0  0  0
  -27.1963  -28.7050   20.6878 C   0  0  0  0  0  0
  -26.0435  -26.9313   19.4913 C   0  0  0  0  0  0
  -24.8548  -27.6869   19.5110 C   0  0  0  0  0  0
  -23.6067  -29.8278   20.1666 C   0  0  0  0  0  0
  -25.4115  -36.3097   24.0336 C   0  0  1  0  0  0
  -20.5848  -28.3671   23.1317 C   0  0  2  0  0  0
  -20.6761  -26.9415   22.5413 C   0  0  0  0  0  0
  -19.5739  -26.6400   21.5207 C   0  0  0  0  0  0
  -18.1910  -26.7932   22.1610 C   0  0  0  0  0  0
  -19.1509  -28.8846   23.2896 C   0  0  0  0  0  0
  -18.9449  -30.1450   23.8909 C   0  0  0  0  0  0
  -17.6455  -30.6601   24.0558 C   0  0  0  0  0  0
  -25.9042  -34.9462   23.5133 C   0  0  0  0  0  0
  -16.5340  -29.9099   23.6330 C   0  0  0  0  0  0
  -16.7257  -28.6506   23.0360 C   0  0  0  0  0  0
  -26.4520  -31.6579   25.0699 C   0  0  0  0  0  0
  -25.3833  -31.3573   26.1468 C   0  0  0  0  0  0
  -27.0395  -30.3054   24.6032 C   0  0  0  0  0  0
  -27.6068  -32.4308   25.7497 C   0  0  0  0  0  0
  -27.5576  -37.1808   24.8483 C   0  0  0  0  0  0
  -21.4120  -29.3029   22.3726 N   0  0  0  0  0  0
  -26.4292  -37.3793   23.9420 N   0  0  0  0  0  0
  -24.6668  -31.0784   22.1004 N   0  0  0  0  0  0
  -23.4155  -28.8213   23.3058 O   0  0  0  0  0  0
  -28.4236  -26.7224   20.0931 O   0  0  0  0  0  0
  -26.5572  -34.8909   22.4678 O   0  0  0  0  0  0
  -23.5357  -32.1413   23.7524 O   0  0  0  0  0  0
  -29.0678  -20.0984   22.6784 C   0  0  0  0  0  0
  -28.9016  -19.8655   20.2794 C   0  0  0  0  0  0
  -29.6426  -18.8135   22.7891 C   0  0  0  0  0  0
  -29.8951  -18.0407   21.6202 C   0  0  0  0  0  0
  -28.7300  -20.6630   21.4363 C   0  0  0  0  0  0
  -29.4667  -18.5593   20.3683 C   0  0  0  0  0  0
  -28.5311  -22.8981   20.6506 C   0  0  0  0  0  0
  -28.0671  -24.3490   20.7652 C   0  0  0  0  0  0
  -31.3707  -18.7765   24.6590 C   0  0  0  0  0  0
  -28.6368  -17.8099   18.2690 C   0  0  0  0  0  0
  -29.9752  -18.3386   24.1974 C   0  0  0  0  0  0
  -30.7269  -16.7368   21.6733 C   0  0  0  0  0  0
  -28.4863  -25.3434   19.6576 C   0  0  0  0  0  0
  -28.1905  -21.9631   21.4622 N   0  0  0  0  0  0
  -30.0838  -15.4667   21.2782 N   0  0  0  0  0  0
  -27.3814  -24.7361   21.7211 O   0  0  0  0  0  0
  -29.6570  -17.7687   19.2579 O   0  0  0  0  0  0
  -31.4584  -12.4267   19.1145 H   0  0  0  0  0  0
  -30.3244  -11.3166   19.8262 H   0  0  0  0  0  0
  -29.7269  -11.7784   17.4308 H   0  0  0  0  0  0
  -29.6467  -13.4924   17.7616 H   0  0  0  0  0  0
  -27.8298  -11.3071   18.8299 H   0  0  0  0  0  0
  -27.3547  -12.6233   17.7920 H   0  0  0  0  0  0
  -27.6981  -14.2569   19.5711 H   0  0  0  0  0  0
  -28.6809  -11.9641   21.3371 H   0  0  0  0  0  0
  -28.4522  -13.6001   21.8727 H   0  0  0  0  0  0
  -25.2733   -9.5690   22.4763 H   0  0  0  0  0  0
  -23.9962   -7.4655   22.7515 H   0  0  0  0  0  0
  -21.0819   -8.8751   19.8959 H   0  0  0  0  0  0
  -22.3658  -10.9655   19.6162 H   0  0  0  0  0  0
  -21.2006   -7.6141   23.9702 H   0  0  0  0  0  0
  -21.1482   -6.0517   25.9069 H   0  0  0  0  0  0
  -22.0599   -2.7588   23.2859 H   0  0  0  0  0  0
  -22.4100  -11.9872   22.4724 H   0  0  0  0  0  0
  -21.1114  -13.1284   22.2633 H   0  0  0  0  0  0
  -24.6679  -15.8480   20.5340 H   0  0  0  0  0  0
  -26.2918  -15.6287   20.1170 H   0  0  0  0  0  0
  -26.7127  -32.5528   23.1143 H   0  0  0  0  0  0
  -25.0177  -33.9781   25.0554 H   0  0  0  0  0  0
  -22.6878  -31.3094   21.4201 H   0  0  0  0  0  0
  -23.3754  -35.9616   23.3288 H   0  0  0  0  0  0
  -24.3571  -36.8948   22.2064 H   0  0  0  0  0  0
  -23.7227  -37.6484   23.6682 H   0  0  0  0  0  0
  -26.0388  -31.5992   20.5928 H   0  0  0  0  0  0
  -26.8158  -30.8846   21.9778 H   0  0  0  0  0  0
  -28.0945  -29.0967   21.1458 H   0  0  0  0  0  0
  -26.0055  -25.9641   19.0149 H   0  0  0  0  0  0
  -23.9576  -27.2845   19.0605 H   0  0  0  0  0  0
  -23.7213  -30.6071   19.4119 H   0  0  0  0  0  0
  -22.7250  -29.2567   19.8688 H   0  0  0  0  0  0
  -25.1297  -36.1955   25.0828 H   0  0  0  0  0  0
  -20.9924  -28.3244   24.1436 H   0  0  0  0  0  0
  -20.5694  -26.2272   23.3585 H   0  0  0  0  0  0
  -21.6634  -26.7491   22.1206 H   0  0  0  0  0  0
  -19.6912  -25.6307   21.1239 H   0  0  0  0  0  0
  -19.6692  -27.3189   20.6709 H   0  0  0  0  0  0
  -17.4198  -26.6682   21.3997 H   0  0  0  0  0  0
  -18.0294  -26.0064   22.8994 H   0  0  0  0  0  0
  -19.7927  -30.7248   24.2296 H   0  0  0  0  0  0
  -17.5024  -31.6283   24.5161 H   0  0  0  0  0  0
  -15.5343  -30.3016   23.7674 H   0  0  0  0  0  0
  -15.8632  -28.0839   22.7086 H   0  0  0  0  0  0
  -24.6062  -30.6863   25.7809 H   0  0  0  0  0  0
  -24.8954  -32.2660   26.4983 H   0  0  0  0  0  0
  -25.8264  -30.8737   27.0185 H   0  0  0  0  0  0
  -26.2907  -29.6720   24.1256 H   0  0  0  0  0  0
  -27.4420  -29.7378   25.4438 H   0  0  0  0  0  0
  -27.8625  -30.4442   23.9007 H   0  0  0  0  0  0
  -27.2682  -33.3633   26.2026 H   0  0  0  0  0  0
  -28.3909  -32.6821   25.0339 H   0  0  0  0  0  0
  -28.0687  -31.8455   26.5462 H   0  0  0  0  0  0
  -28.2596  -38.0106   24.7552 H   0  0  0  0  0  0
  -28.1073  -36.2636   24.6306 H   0  0  0  0  0  0
  -27.2276  -37.1467   25.8881 H   0  0  0  0  0  0
  -20.9266  -29.8732   21.6934 H   0  0  0  0  0  0
  -26.0166  -38.2873   24.1423 H   0  0  0  0  0  0
  -28.9026  -20.6804   23.5753 H   0  0  0  0  0  0
  -28.6144  -20.2692   19.3199 H   0  0  0  0  0  0
  -29.2178  -22.6839   19.8266 H   0  0  0  0  0  0
  -31.5334  -18.4959   25.6997 H   0  0  0  0  0  0
  -31.4894  -19.8593   24.5902 H   0  0  0  0  0  0
  -32.1585  -18.3149   24.0644 H   0  0  0  0  0  0
  -28.7955  -16.9909   17.5666 H   0  0  0  0  0  0
  -28.6551  -18.7404   17.7012 H   0  0  0  0  0  0
  -27.6463  -17.6773   18.7110 H   0  0  0  0  0  0
  -29.8478  -17.2604   24.2871 H   0  0  0  0  0  0
  -29.2375  -18.7609   24.8819 H   0  0  0  0  0  0
  -31.1589  -16.5810   22.6592 H   0  0  0  0  0  0
  -31.5929  -16.9275   21.0368 H   0  0  0  0  0  0
  -27.9018  -25.1732   18.7550 H   0  0  0  0  0  0
  -29.5211  -25.1336   19.3885 H   0  0  0  0  0  0
  -29.1447  -15.2940   21.6012 H   0  0  0  0  0  0
  1 25  1  0  0  0
  1 30  2  0  0  0
  1 85  1  0  0  0
  2  3  1  0  0  0
  2 25  1  0  0  0
  2 88  1  0  0  0
  2 89  1  0  0  0
  3  4  1  0  0  0
  3 90  1  0  0  0
  3 91  1  0  0  0
  4  5  1  0  0  0
  4 92  1  0  0  0
  4 93  1  0  0  0
  5  6  1  0  0  0
  5 26  1  0  0  0
  5 94  1  0  0  0
  6 25  1  0  0  0
  6 95  1  0  0  0
  6 96  1  0  0  0
  7  8  2  0  0  0
  7 26  1  0  0  0
  7 29  1  0  0  0
  8  9  1  0  0  0
  8 22  1  0  0  0
  9 10  1  0  0  0
  9 27  2  0  0  0
 10 11  2  0  0  0
 10 15  1  0  0  0
 11 12  1  0  0  0
 11 97  1  0  0  0
 12 13  2  0  0  0
 12 98  1  0  0  0
 13 14  1  0  0  0
 13 31  1  0  0  0
 14 15  2  0  0  0
 14 99  1  0  0  0
 15100  1  0  0  0
 16 17  2  0  0  0
 16 21  1  0  0  0
 16 31  1  0  0  0
 17 18  1  0  0  0
 17101  1  0  0  0
 18 19  2  0  0  0
 18102  1  0  0  0
 19 20  1  0  0  0
 19 24  1  0  0  0
 20 21  2  0  0  0
 20103  1  0  0  0
 21 23  1  0  0  0
 22 28  1  0  0  0
 22 32  2  0  0  0
 26 27  1  0  0  0
 28104  1  0  0  0
 28105  1  0  0  0
 29106  1  0  0  0
 29107  1  0  0  0
 33 34  1  0  0  0
 33 66  1  0  0  0
 33 70  2  0  0  0
 34 36  1  0  0  0
 34 59  1  0  0  0
 34108  1  0  0  0
 35 44  2  0  0  0
 35 45  1  0  0  0
 35 68  1  0  0  0
 36 56  1  0  0  0
 36109  1  0  0  0
 37 39  1  0  0  0
 37 47  1  0  0  0
 37 66  1  0  0  0
 37110  1  0  0  0
 38 43  2  0  0  0
 38 46  1  0  0  0
 38 47  1  0  0  0
 39 64  1  0  0  0
 39 67  2  0  0  0
 40 52  1  0  0  0
 40 53  2  0  0  0
 40 58  1  0  0  0
 41111  1  0  0  0
 41112  1  0  0  0
 41113  1  0  0  0
 41 48  1  0  0  0
 42 43  1  0  0  0
 42 66  1  0  0  0
 42114  1  0  0  0
 42115  1  0  0  0
 43 44  1  0  0  0
 44116  1  0  0  0
 45 46  2  0  0  0
 45117  1  0  0  0
 46118  1  0  0  0
 47119  1  0  0  0
 47120  1  0  0  0
 48 56  1  0  0  0
 48 65  1  0  0  0
 48121  1  0  0  0
 49 50  1  0  0  0
 49 53  1  0  0  0
 49 64  1  0  0  0
 49122  1  0  0  0
 50 51  1  0  0  0
 50123  1  0  0  0
 50124  1  0  0  0
 51 52  1  0  0  0
 51125  1  0  0  0
 51126  1  0  0  0
 52127  1  0  0  0
 52128  1  0  0  0
 53 54  1  0  0  0
 54 55  2  0  0  0
 54129  1  0  0  0
 55 57  1  0  0  0
 55130  1  0  0  0
 56 69  2  0  0  0
 57 58  2  0  0  0
 57131  1  0  0  0
 58132  1  0  0  0
 59 60  1  0  0  0
 59 61  1  0  0  0
 59 62  1  0  0  0
 60133  1  0  0  0
 60134  1  0  0  0
 60135  1  0  0  0
 61136  1  0  0  0
 61137  1  0  0  0
 61138  1  0  0  0
 62139  1  0  0  0
 62140  1  0  0  0
 62141  1  0  0  0
 63 65  1  0  0  0
 63142  1  0  0  0
 63143  1  0  0  0
 63144  1  0  0  0
 64145  1  0  0  0
 65146  1  0  0  0
 68 83  1  0  0  0
 71 73  2  0  0  0
 71 75  1  0  0  0
 71147  1  0  0  0
 72 75  2  0  0  0
 72 76  1  0  0  0
 72148  1  0  0  0
 73 74  1  0  0  0
 73 81  1  0  0  0
 74 76  2  0  0  0
 74 82  1  0  0  0
 75 84  1  0  0  0
 76 87  1  0  0  0
 77 78  1  0  0  0
 77 84  2  0  0  0
 77149  1  0  0  0
 78 83  1  0  0  0
 78 86  2  0  0  0
 79 81  1  0  0  0
 79150  1  0  0  0
 79151  1  0  0  0
 79152  1  0  0  0
 80 87  1  0  0  0
 80153  1  0  0  0
 80154  1  0  0  0
 80155  1  0  0  0
 81156  1  0  0  0
 81157  1  0  0  0
 82 85  1  0  0  0
 82158  1  0  0  0
 82159  1  0  0  0
 83160  1  0  0  0
 83161  1  0  0  0
 85162  1  0  0  0
M  ISO  4   1 100  68 101  83 101  85 100
M  END
> <chiral flag>
0

> <version>
0

> <s_m_source_file>
/data/baiqing/PycharmProjects/Reinvent-master-3.2/result/LINK_invent/BTK/process_docking_weight1_custom_product_contain_oxygen_bond_distance_aromatic_linkinvent_7_9_3/rearranged_h_0109.sdf

> <i_m_source_file_index>
45

> <r_mmod_Potential_Energy-OPLS-2005>
-32.60009765625

> <r_mmod_Stretch_Energy-OPLS-2005>
44.690731048584

> <r_mmod_Bend_Energy-OPLS-2005>
122.960136413574

> <r_mmod_Torsional_Energy-OPLS-2005>
216.051361083984

> <r_mmod_Improper_Torsional_Energy-OPLS-2005>
2.47251296043396

> <r_mmod_Van_der_Waal_Energy-OPLS-2005>
154.582504272461

> <r_mmod_Electrostatic_Energy-OPLS-2005>
-336.783447265625

> <r_mmod_Solvation_Energy-OPLS-2005>
-249.778106689453

> <b_mmod_Minimization_Converged-OPLS-2005>
0

> <r_mmod_RMS_Derivative-OPLS-2005>
2.71603608131409

$$$$
45
                    3D
 Structure written by MMmdl.
164173  0  0  1  0            999 V2000
  -30.6206  -14.6072   20.5753 C   0  0  0  0  0  0
  -30.4541  -12.3903   19.4311 C   0  0  0  0  0  0
  -29.5099  -12.5264   18.2151 C   0  0  0  0  0  0
  -28.0340  -12.3534   18.6306 C   0  0  0  0  0  0
  -27.6636  -13.2032   19.8742 C   0  0  2  0  0  0
  -28.7133  -13.0100   20.9926 C   0  0  0  0  0  0
  -25.2618  -13.8132   20.5704 C   0  0  0  0  0  0
  -24.1869  -13.0402   20.9199 C   0  0  0  0  0  0
  -24.6424  -11.6878   20.8739 C   0  0  0  0  0  0
  -23.9078  -10.4276   21.0406 C   0  0  0  0  0  0
  -24.3618   -9.4187   21.9184 C   0  0  0  0  0  0
  -23.6287   -8.2230   22.0761 C   0  0  0  0  0  0
  -22.4267   -8.0286   21.3551 C   0  0  0  0  0  0
  -21.9919   -9.0253   20.4640 C   0  0  0  0  0  0
  -22.7252  -10.2127   20.3055 C   0  0  0  0  0  0
  -21.6840   -6.0745   22.5283 C   0  0  0  0  0  0
  -21.4009   -6.5648   23.8218 C   0  0  0  0  0  0
  -21.3658   -5.6804   24.9182 C   0  0  0  0  0  0
  -21.6049   -4.3066   24.7225 C   0  0  0  0  0  0
  -21.8818   -3.8153   23.4343 C   0  0  0  0  0  0
  -21.9192   -4.6976   22.3403 C   0  0  0  0  0  0
  -22.7892  -13.5206   21.1856 C   0  0  0  0  0  0
  -22.1654   -4.2163   21.0976 F   0  0  0  0  0  0
  -21.5635   -3.4547   25.7733 F   0  0  0  0  0  0
  -30.0279  -13.3773   20.4414 N   0  0  0  0  0  0
  -26.3057  -12.9296   20.3368 N   0  0  0  0  0  0
  -25.9353  -11.6453   20.5774 N   0  0  0  0  0  0
  -22.0528  -12.8198   22.0412 N   0  0  0  0  0  0
  -25.4312  -15.1856   20.4147 N   0  0  0  0  0  0
  -31.7429  -14.8231   20.1065 O   0  0  0  0  0  0
  -21.6620   -6.8890   21.4247 O   0  0  0  0  0  0
  -22.3568  -14.5516   20.6714 O   0  0  0  0  0  0
  -24.6265  -31.8625   23.2051 C   0  0  0  0  0  0
  -25.9114  -32.4800   23.8383 C   0  0  1  0  0  0
  -27.2295  -27.3287   20.1100 C   0  0  0  0  0  0
  -25.5933  -33.8602   24.2303 N   0  0  0  0  0  0
  -23.4207  -30.4850   21.5493 C   0  0  2  0  0  0
  -24.8675  -28.9435   20.1139 C   0  0  0  0  0  0
  -22.7484  -29.4623   22.4965 C   0  0  0  0  0  0
  -18.0296  -28.1397   22.8504 C   0  0  0  0  0  0
  -24.1490  -36.7269   23.2647 C   0  0  0  0  0  0
  -25.9628  -30.7906   21.3820 C   0  0  0  0  0  0
  -26.0366  -29.4215   20.7191 C   0  0  0  0  0  0
  -27.2195  -28.6249   20.7088 C   0  0  0  0  0  0
  -26.0332  -26.9034   19.4834 C   0  0  0  0  0  0
  -24.8671  -27.6884   19.4891 C   0  0  0  0  0  0
  -23.6353  -29.8217   20.1642 C   0  0  0  0  0  0
  -25.4127  -36.3097   24.0338 C   0  0  1  0  0  0
  -20.5891  -28.3694   23.1298 C   0  0  2  0  0  0
  -20.6788  -26.9420   22.5422 C   0  0  0  0  0  0
  -19.5754  -26.6382   21.5238 C   0  0  0  0  0  0
  -18.1924  -26.7942   22.1634 C   0  0  0  0  0  0
  -19.1545  -28.8871   23.2886 C   0  0  0  0  0  0
  -18.9465  -30.1477   23.8888 C   0  0  0  0  0  0
  -17.6463  -30.6605   24.0570 C   0  0  0  0  0  0
  -25.9060  -34.9466   23.5116 C   0  0  0  0  0  0
  -16.5351  -29.9098   23.6347 C   0  0  0  0  0  0
  -16.7282  -28.6515   23.0370 C   0  0  0  0  0  0
  -26.4491  -31.6622   25.0761 C   0  0  0  0  0  0
  -25.3708  -31.3742   26.1468 C   0  0  0  0  0  0
  -27.0373  -30.3059   24.6236 C   0  0  0  0  0  0
  -27.6037  -32.4373   25.7535 C   0  0  0  0  0  0
  -27.5594  -37.1796   24.8474 C   0  0  0  0  0  0
  -21.4202  -29.3033   22.3686 N   0  0  0  0  0  0
  -26.4306  -37.3796   23.9423 N   0  0  0  0  0  0
  -24.6883  -31.0614   22.1023 N   0  0  0  0  0  0
  -23.4201  -28.8161   23.3053 O   0  0  0  0  0  0
  -28.3554  -26.4899   20.1595 O   0  0  0  0  0  0
  -26.5622  -34.8923   22.4678 O   0  0  0  0  0  0
  -23.5419  -32.1422   23.7362 O   0  0  0  0  0  0
  -29.4935  -19.4215   19.7851 C   0  0  0  0  0  0
  -30.6876  -19.5206   21.8591 C   0  0  0  0  0  0
  -29.4865  -17.9854   19.8347 C   0  0  0  0  0  0
  -30.0627  -17.2973   20.9515 C   0  0  0  0  0  0
  -30.0655  -20.2346   20.8003 C   0  0  0  0  0  0
  -30.6870  -18.1036   21.9353 C   0  0  0  0  0  0
  -29.2791  -23.9897   20.2419 C   0  0  0  0  0  0
  -29.0705  -22.6289   20.4256 C   0  0  0  0  0  0
  -30.6781  -24.4894   20.2891 C   0  0  0  0  0  0
  -28.1987  -17.7053   17.6760 C   0  0  0  0  0  0
  -28.8534  -17.2119   18.7426 C   0  0  0  0  0  0
  -31.8019  -23.4556   20.3242 C   0  0  0  0  0  0
  -31.4166  -22.2021   21.1209 C   0  0  0  0  0  0
  -27.6621  -22.0437   20.3639 C   0  0  0  0  0  0
  -29.8212  -15.7755   21.2703 C   0  0  0  0  0  0
  -28.1575  -25.0454   19.9021 C   0  0  0  0  0  0
  -30.0984  -21.6815   20.7421 N   0  0  0  0  0  0
  -30.9964  -25.6811   20.2628 O   0  0  0  0  0  0
  -31.2572  -17.5149   23.0145 F   0  0  0  0  0  0
  -31.4895  -12.5406   19.1201 H   0  0  0  0  0  0
  -30.4106  -11.3822   19.8452 H   0  0  0  0  0  0
  -29.7697  -11.7921   17.4517 H   0  0  0  0  0  0
  -29.6483  -13.5066   17.7562 H   0  0  0  0  0  0
  -27.8697  -11.2969   18.8453 H   0  0  0  0  0  0
  -27.3777  -12.5976   17.7953 H   0  0  0  0  0  0
  -27.6907  -14.2440   19.5562 H   0  0  0  0  0  0
  -28.7281  -11.9693   21.3192 H   0  0  0  0  0  0
  -28.4593  -13.5824   21.8856 H   0  0  0  0  0  0
  -25.2769   -9.5647   22.4750 H   0  0  0  0  0  0
  -23.9987   -7.4628   22.7486 H   0  0  0  0  0  0
  -21.0868   -8.8778   19.8935 H   0  0  0  0  0  0
  -22.3728  -10.9672   19.6167 H   0  0  0  0  0  0
  -21.1983   -7.6156   23.9717 H   0  0  0  0  0  0
  -21.1493   -6.0537   25.9088 H   0  0  0  0  0  0
  -22.0598   -2.7612   23.2845 H   0  0  0  0  0  0
  -22.4139  -11.9852   22.4776 H   0  0  0  0  0  0
  -21.1156  -13.1254   22.2633 H   0  0  0  0  0  0
  -24.6598  -15.8358   20.5215 H   0  0  0  0  0  0
  -26.2789  -15.6319   20.0885 H   0  0  0  0  0  0
  -26.7178  -32.5474   23.1129 H   0  0  0  0  0  0
  -25.0128  -33.9761   25.0484 H   0  0  0  0  0  0
  -22.7138  -31.3053   21.4082 H   0  0  0  0  0  0
  -23.3790  -35.9558   23.3303 H   0  0  0  0  0  0
  -24.3571  -36.8898   22.2059 H   0  0  0  0  0  0
  -23.7183  -37.6441   23.6675 H   0  0  0  0  0  0
  -26.1050  -31.5580   20.6195 H   0  0  0  0  0  0
  -26.8384  -30.8293   22.0195 H   0  0  0  0  0  0
  -28.1161  -28.9841   21.1937 H   0  0  0  0  0  0
  -25.9616  -25.9470   18.9881 H   0  0  0  0  0  0
  -23.9702  -27.3161   19.0125 H   0  0  0  0  0  0
  -23.7539  -30.5992   19.4085 H   0  0  0  0  0  0
  -22.7544  -29.2505   19.8633 H   0  0  0  0  0  0
  -25.1301  -36.1961   25.0829 H   0  0  0  0  0  0
  -20.9990  -28.3277   24.1423 H   0  0  0  0  0  0
  -20.5743  -26.2296   23.3616 H   0  0  0  0  0  0
  -21.6646  -26.7479   22.1189 H   0  0  0  0  0  0
  -19.6905  -25.6293   21.1272 H   0  0  0  0  0  0
  -19.6686  -27.3194   20.6770 H   0  0  0  0  0  0
  -17.4208  -26.6747   21.4014 H   0  0  0  0  0  0
  -18.0270  -26.0081   22.9014 H   0  0  0  0  0  0
  -19.7936  -30.7308   24.2240 H   0  0  0  0  0  0
  -17.5015  -31.6289   24.5170 H   0  0  0  0  0  0
  -15.5350  -30.2995   23.7677 H   0  0  0  0  0  0
  -15.8685  -28.0831   22.7090 H   0  0  0  0  0  0
  -24.5862  -30.7136   25.7758 H   0  0  0  0  0  0
  -24.8923  -32.2911   26.4926 H   0  0  0  0  0  0
  -25.8002  -30.8865   27.0230 H   0  0  0  0  0  0
  -26.2982  -29.6785   24.1243 H   0  0  0  0  0  0
  -27.4063  -29.7334   25.4756 H   0  0  0  0  0  0
  -27.8844  -30.4367   23.9498 H   0  0  0  0  0  0
  -27.2632  -33.3655   26.2141 H   0  0  0  0  0  0
  -28.3831  -32.6979   25.0362 H   0  0  0  0  0  0
  -28.0742  -31.8505   26.5434 H   0  0  0  0  0  0
  -28.2603  -38.0107   24.7582 H   0  0  0  0  0  0
  -28.1101  -36.2642   24.6252 H   0  0  0  0  0  0
  -27.2306  -37.1393   25.8873 H   0  0  0  0  0  0
  -20.9394  -29.8724   21.6862 H   0  0  0  0  0  0
  -26.0189  -38.2864   24.1454 H   0  0  0  0  0  0
  -29.0525  -19.9357   18.9462 H   0  0  0  0  0  0
  -31.1561  -20.0590   22.6689 H   0  0  0  0  0  0
  -27.7861  -17.0373   16.9327 H   0  0  0  0  0  0
  -28.0525  -18.7622   17.5060 H   0  0  0  0  0  0
  -28.9390  -16.1370   18.7970 H   0  0  0  0  0  0
  -32.6998  -23.9030   20.7495 H   0  0  0  0  0  0
  -32.0383  -23.1808   19.2967 H   0  0  0  0  0  0
  -31.4179  -22.4292   22.1881 H   0  0  0  0  0  0
  -32.1965  -21.4558   20.9591 H   0  0  0  0  0  0
  -26.9613  -22.6371   20.9504 H   0  0  0  0  0  0
  -27.5919  -21.0348   20.7677 H   0  0  0  0  0  0
  -27.3076  -22.0187   19.3331 H   0  0  0  0  0  0
  -28.7564  -15.6329   21.1019 H   0  0  0  0  0  0
  -29.9440  -15.6220   22.3422 H   0  0  0  0  0  0
  -27.2629  -24.7387   20.4403 H   0  0  0  0  0  0
  -27.9488  -24.9232   18.8376 H   0  0  0  0  0  0
  1 25  1  0  0  0
  1 30  2  0  0  0
  1 85  1  0  0  0
  2  3  1  0  0  0
  2 25  1  0  0  0
  2 90  1  0  0  0
  2 91  1  0  0  0
  3  4  1  0  0  0
  3 92  1  0  0  0
  3 93  1  0  0  0
  4  5  1  0  0  0
  4 94  1  0  0  0
  4 95  1  0  0  0
  5  6  1  0  0  0
  5 26  1  0  0  0
  5 96  1  0  0  0
  6 25  1  0  0  0
  6 97  1  0  0  0
  6 98  1  0  0  0
  7  8  2  0  0  0
  7 26  1  0  0  0
  7 29  1  0  0  0
  8  9  1  0  0  0
  8 22  1  0  0  0
  9 10  1  0  0  0
  9 27  2  0  0  0
 10 11  2  0  0  0
 10 15  1  0  0  0
 11 12  1  0  0  0
 11 99  1  0  0  0
 12 13  2  0  0  0
 12100  1  0  0  0
 13 14  1  0  0  0
 13 31  1  0  0  0
 14 15  2  0  0  0
 14101  1  0  0  0
 15102  1  0  0  0
 16 17  2  0  0  0
 16 21  1  0  0  0
 16 31  1  0  0  0
 17 18  1  0  0  0
 17103  1  0  0  0
 18 19  2  0  0  0
 18104  1  0  0  0
 19 20  1  0  0  0
 19 24  1  0  0  0
 20 21  2  0  0  0
 20105  1  0  0  0
 21 23  1  0  0  0
 22 28  1  0  0  0
 22 32  2  0  0  0
 26 27  1  0  0  0
 28106  1  0  0  0
 28107  1  0  0  0
 29108  1  0  0  0
 29109  1  0  0  0
 33 34  1  0  0  0
 33 66  1  0  0  0
 33 70  2  0  0  0
 34 36  1  0  0  0
 34 59  1  0  0  0
 34110  1  0  0  0
 35 44  2  0  0  0
 35 45  1  0  0  0
 35 68  1  0  0  0
 36 56  1  0  0  0
 36111  1  0  0  0
 37 39  1  0  0  0
 37 47  1  0  0  0
 37 66  1  0  0  0
 37112  1  0  0  0
 38 43  2  0  0  0
 38 46  1  0  0  0
 38 47  1  0  0  0
 39 64  1  0  0  0
 39 67  2  0  0  0
 40 52  1  0  0  0
 40 53  2  0  0  0
 40 58  1  0  0  0
 41113  1  0  0  0
 41114  1  0  0  0
 41115  1  0  0  0
 41 48  1  0  0  0
 42 43  1  0  0  0
 42 66  1  0  0  0
 42116  1  0  0  0
 42117  1  0  0  0
 43 44  1  0  0  0
 44118  1  0  0  0
 45 46  2  0  0  0
 45119  1  0  0  0
 46120  1  0  0  0
 47121  1  0  0  0
 47122  1  0  0  0
 48 56  1  0  0  0
 48 65  1  0  0  0
 48123  1  0  0  0
 49 50  1  0  0  0
 49 53  1  0  0  0
 49 64  1  0  0  0
 49124  1  0  0  0
 50 51  1  0  0  0
 50125  1  0  0  0
 50126  1  0  0  0
 51 52  1  0  0  0
 51127  1  0  0  0
 51128  1  0  0  0
 52129  1  0  0  0
 52130  1  0  0  0
 53 54  1  0  0  0
 54 55  2  0  0  0
 54131  1  0  0  0
 55 57  1  0  0  0
 55132  1  0  0  0
 56 69  2  0  0  0
 57 58  2  0  0  0
 57133  1  0  0  0
 58134  1  0  0  0
 59 60  1  0  0  0
 59 61  1  0  0  0
 59 62  1  0  0  0
 60135  1  0  0  0
 60136  1  0  0  0
 60137  1  0  0  0
 61138  1  0  0  0
 61139  1  0  0  0
 61140  1  0  0  0
 62141  1  0  0  0
 62142  1  0  0  0
 62143  1  0  0  0
 63 65  1  0  0  0
 63144  1  0  0  0
 63145  1  0  0  0
 63146  1  0  0  0
 64147  1  0  0  0
 65148  1  0  0  0
 68 86  1  0  0  0
 71 73  2  0  0  0
 71 75  1  0  0  0
 71149  1  0  0  0
 72 75  2  0  0  0
 72 76  1  0  0  0
 72150  1  0  0  0
 73 74  1  0  0  0
 73 81  1  0  0  0
 74 76  2  0  0  0
 74 85  1  0  0  0
 75 87  1  0  0  0
 76 89  1  0  0  0
 77 78  2  0  0  0
 77 79  1  0  0  0
 77 86  1  0  0  0
 78 84  1  0  0  0
 78 87  1  0  0  0
 79 82  1  0  0  0
 79 88  2  0  0  0
 80 81  2  0  0  0
 80151  1  0  0  0
 80152  1  0  0  0
 81153  1  0  0  0
 82 83  1  0  0  0
 82154  1  0  0  0
 82155  1  0  0  0
 83 87  1  0  0  0
 83156  1  0  0  0
 83157  1  0  0  0
 84158  1  0  0  0
 84159  1  0  0  0
 84160  1  0  0  0
 85161  1  0  0  0
 85162  1  0  0  0
 86163  1  0  0  0
 86164  1  0  0  0
M  ISO  4   1 100  68 101  85 100  86 101
M  END
> <chiral flag>
0

> <version>
0

> <s_m_source_file>
/data/baiqing/PycharmProjects/Reinvent-master-3.2/result/LINK_invent/BTK/process_docking_weight1_custom_product_contain_oxygen_bond_distance_aromatic_linkinvent_7_9_3/rearranged_h_0109.sdf

> <i_m_source_file_index>
46

> <r_mmod_Potential_Energy-OPLS-2005>
79.2325668334961

> <r_mmod_Stretch_Energy-OPLS-2005>
86.5435638427734

> <r_mmod_Bend_Energy-OPLS-2005>
140.343307495117

> <r_mmod_Torsional_Energy-OPLS-2005>
167.695205688477

> <r_mmod_Improper_Torsional_Energy-OPLS-2005>
4.06913280487061

> <r_mmod_Van_der_Waal_Energy-OPLS-2005>
172.107528686523

> <r_mmod_Electrostatic_Energy-OPLS-2005>
-318.382537841797

> <r_mmod_Solvation_Energy-OPLS-2005>
-213.982940673828

> <b_mmod_Minimization_Converged-OPLS-2005>
0

> <r_mmod_RMS_Derivative-OPLS-2005>
2.07637166976929

$$$$
46
                    3D
 Structure written by MMmdl.
159167  0  0  1  0            999 V2000
  -30.6736  -14.5578   20.6384 C   0  0  0  0  0  0
  -30.4447  -12.3931   19.4181 C   0  0  0  0  0  0
  -29.4990  -12.5524   18.2080 C   0  0  0  0  0  0
  -28.0219  -12.3903   18.6221 C   0  0  0  0  0  0
  -27.6683  -13.2099   19.8923 C   0  0  2  0  0  0
  -28.7206  -12.9515   20.9954 C   0  0  0  0  0  0
  -25.2551  -13.8123   20.5556 C   0  0  0  0  0  0
  -24.1831  -13.0413   20.9143 C   0  0  0  0  0  0
  -24.6417  -11.6891   20.8754 C   0  0  0  0  0  0
  -23.9076  -10.4282   21.0416 C   0  0  0  0  0  0
  -24.3620   -9.4196   21.9192 C   0  0  0  0  0  0
  -23.6290   -8.2235   22.0759 C   0  0  0  0  0  0
  -22.4272   -8.0281   21.3546 C   0  0  0  0  0  0
  -21.9914   -9.0256   20.4647 C   0  0  0  0  0  0
  -22.7250  -10.2133   20.3059 C   0  0  0  0  0  0
  -21.6851   -6.0735   22.5275 C   0  0  0  0  0  0
  -21.4014   -6.5638   23.8209 C   0  0  0  0  0  0
  -21.3657   -5.6790   24.9171 C   0  0  0  0  0  0
  -21.6045   -4.3053   24.7222 C   0  0  0  0  0  0
  -21.8819   -3.8145   23.4343 C   0  0  0  0  0  0
  -21.9193   -4.6963   22.3399 C   0  0  0  0  0  0
  -22.7857  -13.5221   21.1809 C   0  0  0  0  0  0
  -22.1660   -4.2148   21.0977 F   0  0  0  0  0  0
  -21.5631   -3.4538   25.7736 F   0  0  0  0  0  0
  -30.0318  -13.3533   20.4639 N   0  0  0  0  0  0
  -26.3068  -12.9329   20.3464 N   0  0  0  0  0  0
  -25.9367  -11.6486   20.5853 N   0  0  0  0  0  0
  -22.0508  -12.8224   22.0385 N   0  0  0  0  0  0
  -25.4143  -15.1805   20.3689 N   0  0  0  0  0  0
  -31.7150  -14.8255   20.0264 O   0  0  0  0  0  0
  -21.6636   -6.8878   21.4238 O   0  0  0  0  0  0
  -22.3530  -14.5526   20.6670 O   0  0  0  0  0  0
  -24.6220  -31.8624   23.2038 C   0  0  0  0  0  0
  -25.9082  -32.4792   23.8357 C   0  0  1  0  0  0
  -27.2371  -27.3594   20.1056 C   0  0  0  0  0  0
  -25.5916  -33.8589   24.2287 N   0  0  0  0  0  0
  -23.4141  -30.4847   21.5456 C   0  0  2  0  0  0
  -24.8627  -28.9422   20.1137 C   0  0  0  0  0  0
  -22.7452  -29.4632   22.4950 C   0  0  0  0  0  0
  -18.0283  -28.1370   22.8490 C   0  0  0  0  0  0
  -24.1489  -36.7300   23.2636 C   0  0  0  0  0  0
  -25.9518  -30.8053   21.3681 C   0  0  0  0  0  0
  -26.0291  -29.4356   20.7105 C   0  0  0  0  0  0
  -27.2195  -28.6566   20.6935 C   0  0  0  0  0  0
  -26.0437  -26.9024   19.4991 C   0  0  0  0  0  0
  -24.8698  -27.6793   19.5010 C   0  0  0  0  0  0
  -23.6271  -29.8165   20.1618 C   0  0  0  0  0  0
  -25.4114  -36.3092   24.0328 C   0  0  1  0  0  0
  -20.5882  -28.3670   23.1291 C   0  0  2  0  0  0
  -20.6770  -26.9395   22.5407 C   0  0  0  0  0  0
  -19.5749  -26.6379   21.5202 C   0  0  0  0  0  0
  -18.1930  -26.7917   22.1618 C   0  0  0  0  0  0
  -19.1535  -28.8835   23.2892 C   0  0  0  0  0  0
  -18.9461  -30.1439   23.8907 C   0  0  0  0  0  0
  -17.6462  -30.6581   24.0557 C   0  0  0  0  0  0
  -25.9043  -34.9458   23.5107 C   0  0  0  0  0  0
  -16.5352  -29.9079   23.6328 C   0  0  0  0  0  0
  -16.7271  -28.6493   23.0356 C   0  0  0  0  0  0
  -26.4480  -31.6589   25.0713 C   0  0  0  0  0  0
  -25.3722  -31.3720   26.1447 C   0  0  0  0  0  0
  -27.0302  -30.3016   24.6132 C   0  0  0  0  0  0
  -27.6053  -32.4312   25.7477 C   0  0  0  0  0  0
  -27.5583  -37.1800   24.8465 C   0  0  0  0  0  0
  -21.4170  -29.3035   22.3693 N   0  0  0  0  0  0
  -26.4299  -37.3782   23.9406 N   0  0  0  0  0  0
  -24.6810  -31.0662   22.0968 N   0  0  0  0  0  0
  -23.4192  -28.8175   23.3016 O   0  0  0  0  0  0
  -28.3851  -26.5634   20.1298 O   0  0  0  0  0  0
  -26.5604  -34.8918   22.4667 O   0  0  0  0  0  0
  -23.5391  -32.1409   23.7388 O   0  0  0  0  0  0
  -27.5105  -18.3618   21.6671 C   0  0  0  0  0  0
  -28.1893  -19.4279   21.0660 C   0  0  0  0  0  0
  -30.1297  -17.9818   20.8136 C   0  0  0  0  0  0
  -28.1233  -17.1072   21.8899 C   0  0  0  0  0  0
  -29.4564  -16.8612   21.4162 C   0  0  0  0  0  0
  -29.5265  -19.2794   20.6620 C   0  0  0  0  0  0
  -26.3777  -16.4261   23.5878 C   0  0  0  0  0  0
  -27.3621  -16.1406   22.7169 C   0  0  0  0  0  0
  -30.1638  -15.5330   21.7450 C   0  0  0  0  0  0
  -29.4507  -22.7606   20.8384 C   0  0  0  0  0  0
  -29.5344  -24.2841   20.3952 C   0  0  0  0  0  0
  -29.6130  -21.6248   19.7610 C   0  0  0  0  0  0
  -28.2215  -25.1048   20.1232 C   0  0  0  0  0  0
  -30.3511  -15.2208   22.9615 N   0  0  0  0  0  0
  -30.2526  -20.3721   20.1788 O   0  0  0  0  0  0
  -31.4798  -12.5403   19.1058 H   0  0  0  0  0  0
  -30.4029  -11.3728   19.8032 H   0  0  0  0  0  0
  -29.7517  -11.8274   17.4332 H   0  0  0  0  0  0
  -29.6449  -13.5381   17.7630 H   0  0  0  0  0  0
  -27.8407  -11.3302   18.8046 H   0  0  0  0  0  0
  -27.3673  -12.6729   17.7968 H   0  0  0  0  0  0
  -27.7182  -14.2655   19.6235 H   0  0  0  0  0  0
  -28.7374  -11.8888   21.2428 H   0  0  0  0  0  0
  -28.4797  -13.4283   21.9360 H   0  0  0  0  0  0
  -25.2768   -9.5667   22.4765 H   0  0  0  0  0  0
  -23.9995   -7.4626   22.7481 H   0  0  0  0  0  0
  -21.0845   -8.8779   19.8949 H   0  0  0  0  0  0
  -22.3715  -10.9672   19.6165 H   0  0  0  0  0  0
  -21.2004   -7.6146   23.9710 H   0  0  0  0  0  0
  -21.1479   -6.0522   25.9073 H   0  0  0  0  0  0
  -22.0601   -2.7608   23.2842 H   0  0  0  0  0  0
  -22.4132  -11.9889   22.4768 H   0  0  0  0  0  0
  -21.1128  -13.1249   22.2598 H   0  0  0  0  0  0
  -24.6557  -15.8356   20.5165 H   0  0  0  0  0  0
  -26.2854  -15.6333   20.1266 H   0  0  0  0  0  0
  -26.7143  -32.5475   23.1104 H   0  0  0  0  0  0
  -25.0081  -33.9737   25.0442 H   0  0  0  0  0  0
  -22.7051  -31.3029   21.4015 H   0  0  0  0  0  0
  -23.3751  -35.9632   23.3311 H   0  0  0  0  0  0
  -24.3587  -36.8911   22.2050 H   0  0  0  0  0  0
  -23.7242  -37.6504   23.6649 H   0  0  0  0  0  0
  -26.0752  -31.5705   20.6008 H   0  0  0  0  0  0
  -26.8349  -30.8557   21.9935 H   0  0  0  0  0  0
  -28.1202  -29.0361   21.1566 H   0  0  0  0  0  0
  -25.9949  -25.9387   19.0163 H   0  0  0  0  0  0
  -23.9749  -27.2945   19.0313 H   0  0  0  0  0  0
  -23.7389  -30.5914   19.4025 H   0  0  0  0  0  0
  -22.7495  -29.2390   19.8649 H   0  0  0  0  0  0
  -25.1288  -36.1955   25.0821 H   0  0  0  0  0  0
  -20.9972  -28.3242   24.1414 H   0  0  0  0  0  0
  -20.5666  -26.2272   23.3599 H   0  0  0  0  0  0
  -21.6640  -26.7426   22.1198 H   0  0  0  0  0  0
  -19.6909  -25.6292   21.1229 H   0  0  0  0  0  0
  -19.6695  -27.3192   20.6735 H   0  0  0  0  0  0
  -17.4196  -26.6667   21.4024 H   0  0  0  0  0  0
  -18.0343  -26.0049   22.9007 H   0  0  0  0  0  0
  -19.7936  -30.7251   24.2286 H   0  0  0  0  0  0
  -17.5018  -31.6267   24.5146 H   0  0  0  0  0  0
  -15.5353  -30.2982   23.7645 H   0  0  0  0  0  0
  -15.8672  -28.0810   22.7069 H   0  0  0  0  0  0
  -24.5919  -30.7033   25.7792 H   0  0  0  0  0  0
  -24.8876  -32.2874   26.4846 H   0  0  0  0  0  0
  -25.8059  -30.8935   27.0238 H   0  0  0  0  0  0
  -26.2850  -29.6794   24.1158 H   0  0  0  0  0  0
  -27.4015  -29.7247   25.4612 H   0  0  0  0  0  0
  -27.8717  -30.4305   23.9321 H   0  0  0  0  0  0
  -27.2677  -33.3621   26.2046 H   0  0  0  0  0  0
  -28.3866  -32.6865   25.0300 H   0  0  0  0  0  0
  -28.0713  -31.8438   26.5396 H   0  0  0  0  0  0
  -28.2597  -38.0099   24.7516 H   0  0  0  0  0  0
  -28.1081  -36.2632   24.6288 H   0  0  0  0  0  0
  -27.2303  -37.1450   25.8867 H   0  0  0  0  0  0
  -20.9335  -29.8762   21.6917 H   0  0  0  0  0  0
  -26.0188  -38.2859   24.1417 H   0  0  0  0  0  0
  -26.4978  -18.5442   21.9942 H   0  0  0  0  0  0
  -27.6708  -20.3705   20.9756 H   0  0  0  0  0  0
  -31.1612  -17.8586   20.5151 H   0  0  0  0  0  0
  -25.8789  -15.6311   24.1235 H   0  0  0  0  0  0
  -26.0480  -17.4338   23.7936 H   0  0  0  0  0  0
  -27.5912  -15.1011   22.6030 H   0  0  0  0  0  0
  -30.2733  -22.6119   21.5387 H   0  0  0  0  0  0
  -28.5527  -22.5922   21.4326 H   0  0  0  0  0  0
  -30.2109  -24.3867   19.5460 H   0  0  0  0  0  0
  -30.0380  -24.8044   21.2112 H   0  0  0  0  0  0
  -30.2672  -22.0147   18.9812 H   0  0  0  0  0  0
  -28.6671  -21.4359   19.2523 H   0  0  0  0  0  0
  -27.4848  -24.8421   20.8843 H   0  0  0  0  0  0
  -27.8203  -24.7792   19.1632 H   0  0  0  0  0  0
  -29.9791  -15.9362   23.5751 H   0  0  0  0  0  0
  1 25  1  0  0  0
  1 30  2  0  0  0
  1 79  1  0  0  0
  2  3  1  0  0  0
  2 25  1  0  0  0
  2 86  1  0  0  0
  2 87  1  0  0  0
  3  4  1  0  0  0
  3 88  1  0  0  0
  3 89  1  0  0  0
  4  5  1  0  0  0
  4 90  1  0  0  0
  4 91  1  0  0  0
  5  6  1  0  0  0
  5 26  1  0  0  0
  5 92  1  0  0  0
  6 25  1  0  0  0
  6 93  1  0  0  0
  6 94  1  0  0  0
  7  8  2  0  0  0
  7 26  1  0  0  0
  7 29  1  0  0  0
  8  9  1  0  0  0
  8 22  1  0  0  0
  9 10  1  0  0  0
  9 27  2  0  0  0
 10 11  2  0  0  0
 10 15  1  0  0  0
 11 12  1  0  0  0
 11 95  1  0  0  0
 12 13  2  0  0  0
 12 96  1  0  0  0
 13 14  1  0  0  0
 13 31  1  0  0  0
 14 15  2  0  0  0
 14 97  1  0  0  0
 15 98  1  0  0  0
 16 17  2  0  0  0
 16 21  1  0  0  0
 16 31  1  0  0  0
 17 18  1  0  0  0
 17 99  1  0  0  0
 18 19  2  0  0  0
 18100  1  0  0  0
 19 20  1  0  0  0
 19 24  1  0  0  0
 20 21  2  0  0  0
 20101  1  0  0  0
 21 23  1  0  0  0
 22 28  1  0  0  0
 22 32  2  0  0  0
 26 27  1  0  0  0
 28102  1  0  0  0
 28103  1  0  0  0
 29104  1  0  0  0
 29105  1  0  0  0
 33 34  1  0  0  0
 33 66  1  0  0  0
 33 70  2  0  0  0
 34 36  1  0  0  0
 34 59  1  0  0  0
 34106  1  0  0  0
 35 44  2  0  0  0
 35 45  1  0  0  0
 35 68  1  0  0  0
 36 56  1  0  0  0
 36107  1  0  0  0
 37 39  1  0  0  0
 37 47  1  0  0  0
 37 66  1  0  0  0
 37108  1  0  0  0
 38 43  2  0  0  0
 38 46  1  0  0  0
 38 47  1  0  0  0
 39 64  1  0  0  0
 39 67  2  0  0  0
 40 52  1  0  0  0
 40 53  2  0  0  0
 40 58  1  0  0  0
 41109  1  0  0  0
 41110  1  0  0  0
 41111  1  0  0  0
 41 48  1  0  0  0
 42 43  1  0  0  0
 42 66  1  0  0  0
 42112  1  0  0  0
 42113  1  0  0  0
 43 44  1  0  0  0
 44114  1  0  0  0
 45 46  2  0  0  0
 45115  1  0  0  0
 46116  1  0  0  0
 47117  1  0  0  0
 47118  1  0  0  0
 48 56  1  0  0  0
 48 65  1  0  0  0
 48119  1  0  0  0
 49 50  1  0  0  0
 49 53  1  0  0  0
 49 64  1  0  0  0
 49120  1  0  0  0
 50 51  1  0  0  0
 50121  1  0  0  0
 50122  1  0  0  0
 51 52  1  0  0  0
 51123  1  0  0  0
 51124  1  0  0  0
 52125  1  0  0  0
 52126  1  0  0  0
 53 54  1  0  0  0
 54 55  2  0  0  0
 54127  1  0  0  0
 55 57  1  0  0  0
 55128  1  0  0  0
 56 69  2  0  0  0
 57 58  2  0  0  0
 57129  1  0  0  0
 58130  1  0  0  0
 59 60  1  0  0  0
 59 61  1  0  0  0
 59 62  1  0  0  0
 60131  1  0  0  0
 60132  1  0  0  0
 60133  1  0  0  0
 61134  1  0  0  0
 61135  1  0  0  0
 61136  1  0  0  0
 62137  1  0  0  0
 62138  1  0  0  0
 62139  1  0  0  0
 63 65  1  0  0  0
 63140  1  0  0  0
 63141  1  0  0  0
 63142  1  0  0  0
 64143  1  0  0  0
 65144  1  0  0  0
 68 83  1  0  0  0
 71 72  2  0  0  0
 71 74  1  0  0  0
 71145  1  0  0  0
 72 76  1  0  0  0
 72146  1  0  0  0
 73 75  1  0  0  0
 73 76  2  0  0  0
 73147  1  0  0  0
 74 75  2  0  0  0
 74 78  1  0  0  0
 75 79  1  0  0  0
 76 85  1  0  0  0
 77 78  2  0  0  0
 77148  1  0  0  0
 77149  1  0  0  0
 78150  1  0  0  0
 79 84  2  0  0  0
 80 81  1  0  0  0
 80 82  1  0  0  0
 80151  1  0  0  0
 80152  1  0  0  0
 81 83  1  0  0  0
 81153  1  0  0  0
 81154  1  0  0  0
 82 85  1  0  0  0
 82155  1  0  0  0
 82156  1  0  0  0
 83157  1  0  0  0
 83158  1  0  0  0
 84159  1  0  0  0
M  ISO  4   1 100  68 101  79 100  83 101
M  END
> <chiral flag>
0

> <version>
0

> <s_m_source_file>
/data/baiqing/PycharmProjects/Reinvent-master-3.2/result/LINK_invent/BTK/process_docking_weight1_custom_product_contain_oxygen_bond_distance_aromatic_linkinvent_7_9_3/rearranged_h_0109.sdf

> <i_m_source_file_index>
47

> <r_mmod_Potential_Energy-OPLS-2005>
226.487197875977

> <r_mmod_Stretch_Energy-OPLS-2005>
79.2768096923828

> <r_mmod_Bend_Energy-OPLS-2005>
150.229614257812

> <r_mmod_Torsional_Energy-OPLS-2005>
245.273147583008

> <r_mmod_Improper_Torsional_Energy-OPLS-2005>
4.38636541366577

> <r_mmod_Van_der_Waal_Energy-OPLS-2005>
149.810470581055

> <r_mmod_Electrostatic_Energy-OPLS-2005>
-235.932235717773

> <r_mmod_Solvation_Energy-OPLS-2005>
-195.095397949219

> <b_mmod_Minimization_Converged-OPLS-2005>
0

> <r_mmod_RMS_Derivative-OPLS-2005>
0.812779188156128

$$$$
47
                    3D
 Structure written by MMmdl.
160169  0  0  1  0            999 V2000
  -30.6509  -14.6166   20.4037 C   0  0  0  0  0  0
  -30.4218  -12.3580   19.4437 C   0  0  0  0  0  0
  -29.4925  -12.4609   18.2174 C   0  0  0  0  0  0
  -28.0165  -12.3255   18.6389 C   0  0  0  0  0  0
  -27.6459  -13.2187   19.8538 C   0  0  2  0  0  0
  -28.6998  -13.1105   20.9797 C   0  0  0  0  0  0
  -25.2536  -13.8203   20.5708 C   0  0  0  0  0  0
  -24.1816  -13.0452   20.9233 C   0  0  0  0  0  0
  -24.6408  -11.6919   20.8818 C   0  0  0  0  0  0
  -23.9092  -10.4297   21.0452 C   0  0  0  0  0  0
  -24.3648   -9.4193   21.9206 C   0  0  0  0  0  0
  -23.6298   -8.2242   22.0759 C   0  0  0  0  0  0
  -22.4279   -8.0296   21.3549 C   0  0  0  0  0  0
  -21.9935   -9.0291   20.4657 C   0  0  0  0  0  0
  -22.7284  -10.2155   20.3072 C   0  0  0  0  0  0
  -21.6846   -6.0745   22.5274 C   0  0  0  0  0  0
  -21.4022   -6.5648   23.8208 C   0  0  0  0  0  0
  -21.3646   -5.6795   24.9169 C   0  0  0  0  0  0
  -21.6040   -4.3055   24.7219 C   0  0  0  0  0  0
  -21.8821   -3.8151   23.4336 C   0  0  0  0  0  0
  -21.9189   -4.6973   22.3395 C   0  0  0  0  0  0
  -22.7831  -13.5226   21.1868 C   0  0  0  0  0  0
  -22.1649   -4.2167   21.0967 F   0  0  0  0  0  0
  -21.5622   -3.4528   25.7726 F   0  0  0  0  0  0
  -30.0056  -13.4141   20.3828 N   0  0  0  0  0  0
  -26.2965  -12.9385   20.3338 N   0  0  0  0  0  0
  -25.9339  -11.6544   20.5844 N   0  0  0  0  0  0
  -22.0481  -12.8214   22.0415 N   0  0  0  0  0  0
  -25.4208  -15.1925   20.4088 N   0  0  0  0  0  0
  -31.8541  -14.6808   20.1407 O   0  0  0  0  0  0
  -21.6622   -6.8906   21.4241 O   0  0  0  0  0  0
  -22.3500  -14.5534   20.6702 O   0  0  0  0  0  0
  -24.6205  -31.8679   23.2079 C   0  0  0  0  0  0
  -25.9082  -32.4829   23.8401 C   0  0  1  0  0  0
  -27.2344  -27.3669   20.1151 C   0  0  0  0  0  0
  -25.5942  -33.8621   24.2335 N   0  0  0  0  0  0
  -23.4134  -30.4936   21.5452 C   0  0  2  0  0  0
  -24.8673  -28.9380   20.1248 C   0  0  0  0  0  0
  -22.7438  -29.4706   22.4928 C   0  0  0  0  0  0
  -18.0279  -28.1434   22.8512 C   0  0  0  0  0  0
  -24.1440  -36.7308   23.2633 C   0  0  0  0  0  0
  -25.9470  -30.8071   21.3758 C   0  0  0  0  0  0
  -26.0286  -29.4302   20.7323 C   0  0  0  0  0  0
  -27.2211  -28.6500   20.7298 C   0  0  0  0  0  0
  -26.0551  -26.9074   19.5010 C   0  0  0  0  0  0
  -24.8771  -27.6771   19.5041 C   0  0  0  0  0  0
  -23.6366  -29.8234   20.1613 C   0  0  0  0  0  0
  -25.4083  -36.3121   24.0330 C   0  0  1  0  0  0
  -20.5880  -28.3779   23.1278 C   0  0  2  0  0  0
  -20.6757  -26.9513   22.5415 C   0  0  0  0  0  0
  -19.5741  -26.6462   21.5213 C   0  0  0  0  0  0
  -18.1937  -26.7987   22.1635 C   0  0  0  0  0  0
  -19.1533  -28.8921   23.2886 C   0  0  0  0  0  0
  -18.9458  -30.1487   23.8965 C   0  0  0  0  0  0
  -17.6473  -30.6644   24.0614 C   0  0  0  0  0  0
  -25.9026  -34.9484   23.5129 C   0  0  0  0  0  0
  -16.5364  -29.9166   23.6334 C   0  0  0  0  0  0
  -16.7276  -28.6557   23.0403 C   0  0  0  0  0  0
  -26.4489  -31.6618   25.0735 C   0  0  0  0  0  0
  -25.3735  -31.3766   26.1479 C   0  0  0  0  0  0
  -27.0286  -30.3040   24.6142 C   0  0  0  0  0  0
  -27.6063  -32.4325   25.7527 C   0  0  0  0  0  0
  -27.5554  -37.1814   24.8475 C   0  0  0  0  0  0
  -21.4171  -29.3114   22.3655 N   0  0  0  0  0  0
  -26.4266  -37.3815   23.9397 N   0  0  0  0  0  0
  -24.6775  -31.0719   22.1005 N   0  0  0  0  0  0
  -23.4162  -28.8246   23.3010 O   0  0  0  0  0  0
  -28.3497  -26.5438   20.0304 O   0  0  0  0  0  0
  -26.5556  -34.8939   22.4662 O   0  0  0  0  0  0
  -23.5387  -32.1475   23.7444 O   0  0  0  0  0  0
  -29.3578  -18.2064   19.9348 C   0  0  0  0  0  0
  -31.1249  -19.8733   20.1586 C   0  0  0  0  0  0
  -31.5628  -17.5495   20.7288 C   0  0  0  0  0  0
  -29.7730  -19.5844   19.8821 C   0  0  0  0  0  0
  -30.2547  -17.1556   20.3515 C   0  0  0  0  0  0
  -32.0028  -18.8819   20.6172 C   0  0  0  0  0  0
  -28.6111  -24.2306   20.9276 C   0  0  0  0  0  0
  -28.5322  -25.5953   21.0230 C   0  0  0  0  0  0
  -28.8835  -20.7563   19.4455 C   0  0  0  0  0  0
  -28.8851  -23.3627   22.1324 C   0  0  0  0  0  0
  -28.4611  -23.2755   19.7355 C   0  0  0  0  0  0
  -29.1674  -21.9400   21.6204 C   0  0  0  0  0  0
  -33.7313  -18.8754   22.2224 C   0  0  0  0  0  0
  -28.9058  -21.9178   20.1772 N   0  0  0  0  0  0
  -29.8645  -15.7448   20.4244 N   0  0  0  0  0  0
  -28.2391  -20.6566   18.3958 O   0  0  0  0  0  0
  -33.2836  -19.2592   20.9287 O   0  0  0  0  0  0
  -31.4641  -12.4589   19.1340 H   0  0  0  0  0  0
  -30.3448  -11.3750   19.9111 H   0  0  0  0  0  0
  -29.7401  -11.6837   17.4949 H   0  0  0  0  0  0
  -29.6454  -13.4151   17.7098 H   0  0  0  0  0  0
  -27.8479  -11.2765   18.8855 H   0  0  0  0  0  0
  -27.3615  -12.5428   17.7945 H   0  0  0  0  0  0
  -27.6521  -14.2466   19.4887 H   0  0  0  0  0  0
  -28.7082  -12.1093   21.4156 H   0  0  0  0  0  0
  -28.4749  -13.7970   21.7983 H   0  0  0  0  0  0
  -25.2809   -9.5613   22.4781 H   0  0  0  0  0  0
  -23.9991   -7.4608   22.7465 H   0  0  0  0  0  0
  -21.0872   -8.8838   19.8957 H   0  0  0  0  0  0
  -22.3789  -10.9708   19.6172 H   0  0  0  0  0  0
  -21.2027   -7.6155   23.9724 H   0  0  0  0  0  0
  -21.1455   -6.0516   25.9072 H   0  0  0  0  0  0
  -22.0617   -2.7616   23.2824 H   0  0  0  0  0  0
  -22.4093  -11.9876   22.4833 H   0  0  0  0  0  0
  -21.1095  -13.1227   22.2635 H   0  0  0  0  0  0
  -24.6618  -15.8510   20.5535 H   0  0  0  0  0  0
  -26.2542  -15.6309   20.0419 H   0  0  0  0  0  0
  -26.7187  -32.5541   23.1178 H   0  0  0  0  0  0
  -25.0083  -33.9770   25.0499 H   0  0  0  0  0  0
  -22.7087  -31.3140   21.3967 H   0  0  0  0  0  0
  -23.3694  -35.9649   23.3331 H   0  0  0  0  0  0
  -24.3523  -36.8904   22.2050 H   0  0  0  0  0  0
  -23.7212  -37.6523   23.6626 H   0  0  0  0  0  0
  -26.0557  -31.5620   20.5964 H   0  0  0  0  0  0
  -26.8344  -30.8767   21.9925 H   0  0  0  0  0  0
  -28.1196  -29.0188   21.2063 H   0  0  0  0  0  0
  -26.0620  -25.9412   19.0173 H   0  0  0  0  0  0
  -23.9911  -27.2950   19.0161 H   0  0  0  0  0  0
  -23.7729  -30.5967   19.4050 H   0  0  0  0  0  0
  -22.7633  -29.2559   19.8465 H   0  0  0  0  0  0
  -25.1255  -36.2001   25.0828 H   0  0  0  0  0  0
  -20.9972  -28.3387   24.1396 H   0  0  0  0  0  0
  -20.5680  -26.2437   23.3641 H   0  0  0  0  0  0
  -21.6627  -26.7558   22.1229 H   0  0  0  0  0  0
  -19.6908  -25.6358   21.1279 H   0  0  0  0  0  0
  -19.6629  -27.3229   20.6697 H   0  0  0  0  0  0
  -17.4187  -26.6766   21.4056 H   0  0  0  0  0  0
  -18.0349  -26.0093   22.9000 H   0  0  0  0  0  0
  -19.7942  -30.7257   24.2426 H   0  0  0  0  0  0
  -17.5047  -31.6331   24.5191 H   0  0  0  0  0  0
  -15.5382  -30.3131   23.7591 H   0  0  0  0  0  0
  -15.8659  -28.0880   22.7163 H   0  0  0  0  0  0
  -24.5888  -30.7126   25.7827 H   0  0  0  0  0  0
  -24.8945  -32.2933   26.4944 H   0  0  0  0  0  0
  -25.8093  -30.8937   27.0241 H   0  0  0  0  0  0
  -26.2832  -29.6858   24.1109 H   0  0  0  0  0  0
  -27.3913  -29.7262   25.4658 H   0  0  0  0  0  0
  -27.8744  -30.4278   23.9365 H   0  0  0  0  0  0
  -27.2673  -33.3614   26.2137 H   0  0  0  0  0  0
  -28.3880  -32.6939   25.0369 H   0  0  0  0  0  0
  -28.0682  -31.8402   26.5442 H   0  0  0  0  0  0
  -28.2606  -38.0074   24.7479 H   0  0  0  0  0  0
  -28.1003  -36.2611   24.6335 H   0  0  0  0  0  0
  -27.2269  -37.1550   25.8880 H   0  0  0  0  0  0
  -20.9393  -29.8878   21.6862 H   0  0  0  0  0  0
  -26.0161  -38.2879   24.1436 H   0  0  0  0  0  0
  -28.3434  -17.9605   19.6460 H   0  0  0  0  0  0
  -31.4910  -20.8865   20.0554 H   0  0  0  0  0  0
  -32.2722  -16.8215   21.0875 H   0  0  0  0  0  0
  -28.6778  -26.0934   21.9713 H   0  0  0  0  0  0
  -28.0062  -23.3610   22.7807 H   0  0  0  0  0  0
  -29.7227  -23.7497   22.7139 H   0  0  0  0  0  0
  -29.0403  -23.6344   18.8819 H   0  0  0  0  0  0
  -27.4108  -23.2406   19.4423 H   0  0  0  0  0  0
  -28.5055  -21.2173   22.1045 H   0  0  0  0  0  0
  -30.1921  -21.6500   21.8546 H   0  0  0  0  0  0
  -34.7584  -19.2083   22.3607 H   0  0  0  0  0  0
  -33.7174  -17.7987   22.3893 H   0  0  0  0  0  0
  -33.1252  -19.3518   22.9916 H   0  0  0  0  0  0
  -28.8747  -15.5538   20.4217 H   0  0  0  0  0  0
  1 25  1  0  0  0
  1 30  2  0  0  0
  1 85  1  0  0  0
  2  3  1  0  0  0
  2 25  1  0  0  0
  2 88  1  0  0  0
  2 89  1  0  0  0
  3  4  1  0  0  0
  3 90  1  0  0  0
  3 91  1  0  0  0
  4  5  1  0  0  0
  4 92  1  0  0  0
  4 93  1  0  0  0
  5  6  1  0  0  0
  5 26  1  0  0  0
  5 94  1  0  0  0
  6 25  1  0  0  0
  6 95  1  0  0  0
  6 96  1  0  0  0
  7  8  2  0  0  0
  7 26  1  0  0  0
  7 29  1  0  0  0
  8  9  1  0  0  0
  8 22  1  0  0  0
  9 10  1  0  0  0
  9 27  2  0  0  0
 10 11  2  0  0  0
 10 15  1  0  0  0
 11 12  1  0  0  0
 11 97  1  0  0  0
 12 13  2  0  0  0
 12 98  1  0  0  0
 13 14  1  0  0  0
 13 31  1  0  0  0
 14 15  2  0  0  0
 14 99  1  0  0  0
 15100  1  0  0  0
 16 17  2  0  0  0
 16 21  1  0  0  0
 16 31  1  0  0  0
 17 18  1  0  0  0
 17101  1  0  0  0
 18 19  2  0  0  0
 18102  1  0  0  0
 19 20  1  0  0  0
 19 24  1  0  0  0
 20 21  2  0  0  0
 20103  1  0  0  0
 21 23  1  0  0  0
 22 28  1  0  0  0
 22 32  2  0  0  0
 26 27  1  0  0  0
 28104  1  0  0  0
 28105  1  0  0  0
 29106  1  0  0  0
 29107  1  0  0  0
 33 34  1  0  0  0
 33 66  1  0  0  0
 33 70  2  0  0  0
 34 36  1  0  0  0
 34 59  1  0  0  0
 34108  1  0  0  0
 35 44  2  0  0  0
 35 45  1  0  0  0
 35 68  1  0  0  0
 36 56  1  0  0  0
 36109  1  0  0  0
 37 39  1  0  0  0
 37 47  1  0  0  0
 37 66  1  0  0  0
 37110  1  0  0  0
 38 43  2  0  0  0
 38 46  1  0  0  0
 38 47  1  0  0  0
 39 64  1  0  0  0
 39 67  2  0  0  0
 40 52  1  0  0  0
 40 53  2  0  0  0
 40 58  1  0  0  0
 41111  1  0  0  0
 41112  1  0  0  0
 41113  1  0  0  0
 41 48  1  0  0  0
 42 43  1  0  0  0
 42 66  1  0  0  0
 42114  1  0  0  0
 42115  1  0  0  0
 43 44  1  0  0  0
 44116  1  0  0  0
 45 46  2  0  0  0
 45117  1  0  0  0
 46118  1  0  0  0
 47119  1  0  0  0
 47120  1  0  0  0
 48 56  1  0  0  0
 48 65  1  0  0  0
 48121  1  0  0  0
 49 50  1  0  0  0
 49 53  1  0  0  0
 49 64  1  0  0  0
 49122  1  0  0  0
 50 51  1  0  0  0
 50123  1  0  0  0
 50124  1  0  0  0
 51 52  1  0  0  0
 51125  1  0  0  0
 51126  1  0  0  0
 52127  1  0  0  0
 52128  1  0  0  0
 53 54  1  0  0  0
 54 55  2  0  0  0
 54129  1  0  0  0
 55 57  1  0  0  0
 55130  1  0  0  0
 56 69  2  0  0  0
 57 58  2  0  0  0
 57131  1  0  0  0
 58132  1  0  0  0
 59 60  1  0  0  0
 59 61  1  0  0  0
 59 62  1  0  0  0
 60133  1  0  0  0
 60134  1  0  0  0
 60135  1  0  0  0
 61136  1  0  0  0
 61137  1  0  0  0
 61138  1  0  0  0
 62139  1  0  0  0
 62140  1  0  0  0
 62141  1  0  0  0
 63 65  1  0  0  0
 63142  1  0  0  0
 63143  1  0  0  0
 63144  1  0  0  0
 64145  1  0  0  0
 65146  1  0  0  0
 68 78  1  0  0  0
 71 74  2  0  0  0
 71 75  1  0  0  0
 71147  1  0  0  0
 72 74  1  0  0  0
 72 76  2  0  0  0
 72148  1  0  0  0
 73 75  2  0  0  0
 73 76  1  0  0  0
 73149  1  0  0  0
 74 79  1  0  0  0
 75 85  1  0  0  0
 76 87  1  0  0  0
 77 78  2  0  0  0
 77 80  1  0  0  0
 77 81  1  0  0  0
 78150  1  0  0  0
 79 84  1  0  0  0
 79 86  2  0  0  0
 80 82  1  0  0  0
 80151  1  0  0  0
 80152  1  0  0  0
 81 84  1  0  0  0
 81153  1  0  0  0
 81154  1  0  0  0
 82 84  1  0  0  0
 82155  1  0  0  0
 82156  1  0  0  0
 83 87  1  0  0  0
 83157  1  0  0  0
 83158  1  0  0  0
 83159  1  0  0  0
 85160  1  0  0  0
M  ISO  4   1 100  68 101  78 101  85 100
M  END
> <chiral flag>
0

> <version>
0

> <s_m_source_file>
/data/baiqing/PycharmProjects/Reinvent-master-3.2/result/LINK_invent/BTK/process_docking_weight1_custom_product_contain_oxygen_bond_distance_aromatic_linkinvent_7_9_3/rearranged_h_0109.sdf

> <i_m_source_file_index>
48

> <r_mmod_Potential_Energy-OPLS-2005>
138.808258056641

> <r_mmod_Stretch_Energy-OPLS-2005>
63.4764633178711

> <r_mmod_Bend_Energy-OPLS-2005>
142.985015869141

> <r_mmod_Torsional_Energy-OPLS-2005>
333.356750488281

> <r_mmod_Improper_Torsional_Energy-OPLS-2005>
8.75081157684326

> <r_mmod_Van_der_Waal_Energy-OPLS-2005>
146.479415893555

> <r_mmod_Electrostatic_Energy-OPLS-2005>
-365.925262451172

> <r_mmod_Solvation_Energy-OPLS-2005>
-231.882202148438

> <b_mmod_Minimization_Converged-OPLS-2005>
0

> <r_mmod_RMS_Derivative-OPLS-2005>
5.48873424530029

$$$$
48
                    3D
 Structure written by MMmdl.
163171  0  0  1  0            999 V2000
  -30.7057  -14.5149   20.4436 C   0  0  0  0  0  0
  -30.4195  -12.3004   19.4315 C   0  0  0  0  0  0
  -29.4840  -12.4215   18.2093 C   0  0  0  0  0  0
  -28.0060  -12.3237   18.6280 C   0  0  0  0  0  0
  -27.6524  -13.2110   19.8524 C   0  0  2  0  0  0
  -28.7041  -13.0728   20.9765 C   0  0  0  0  0  0
  -25.2576  -13.8190   20.5693 C   0  0  0  0  0  0
  -24.1839  -13.0455   20.9201 C   0  0  0  0  0  0
  -24.6403  -11.6922   20.8763 C   0  0  0  0  0  0
  -23.9077  -10.4295   21.0411 C   0  0  0  0  0  0
  -24.3632   -9.4208   21.9183 C   0  0  0  0  0  0
  -23.6306   -8.2244   22.0750 C   0  0  0  0  0  0
  -22.4290   -8.0283   21.3537 C   0  0  0  0  0  0
  -21.9922   -9.0259   20.4642 C   0  0  0  0  0  0
  -22.7253  -10.2140   20.3053 C   0  0  0  0  0  0
  -21.6854   -6.0738   22.5271 C   0  0  0  0  0  0
  -21.4015   -6.5637   23.8210 C   0  0  0  0  0  0
  -21.3664   -5.6791   24.9171 C   0  0  0  0  0  0
  -21.6049   -4.3054   24.7222 C   0  0  0  0  0  0
  -21.8823   -3.8149   23.4342 C   0  0  0  0  0  0
  -21.9198   -4.6963   22.3401 C   0  0  0  0  0  0
  -22.7858  -13.5244   21.1847 C   0  0  0  0  0  0
  -22.1663   -4.2151   21.0972 F   0  0  0  0  0  0
  -21.5633   -3.4538   25.7732 F   0  0  0  0  0  0
  -30.0272  -13.3385   20.3957 N   0  0  0  0  0  0
  -26.2999  -12.9366   20.3330 N   0  0  0  0  0  0
  -25.9328  -11.6528   20.5809 N   0  0  0  0  0  0
  -22.0504  -12.8226   22.0397 N   0  0  0  0  0  0
  -25.4293  -15.1909   20.4072 N   0  0  0  0  0  0
  -31.9171  -14.5874   20.2376 O   0  0  0  0  0  0
  -21.6648   -6.8881   21.4235 O   0  0  0  0  0  0
  -22.3537  -14.5546   20.6690 O   0  0  0  0  0  0
  -24.6130  -31.8679   23.2096 C   0  0  0  0  0  0
  -25.9012  -32.4834   23.8399 C   0  0  1  0  0  0
  -27.2351  -27.4380   20.1095 C   0  0  0  0  0  0
  -25.5864  -33.8634   24.2323 N   0  0  0  0  0  0
  -23.4033  -30.4898   21.5494 C   0  0  2  0  0  0
  -24.8529  -28.9565   20.1151 C   0  0  0  0  0  0
  -22.7414  -29.4648   22.4981 C   0  0  0  0  0  0
  -18.0266  -28.1394   22.8481 C   0  0  0  0  0  0
  -24.1481  -36.7321   23.2640 C   0  0  0  0  0  0
  -25.9312  -30.8375   21.3617 C   0  0  0  0  0  0
  -26.0126  -29.4725   20.7087 C   0  0  0  0  0  0
  -27.2113  -28.7232   20.6967 C   0  0  0  0  0  0
  -26.0634  -26.9393   19.5019 C   0  0  0  0  0  0
  -24.8727  -27.6894   19.5068 C   0  0  0  0  0  0
  -23.6134  -29.8200   20.1647 C   0  0  0  0  0  0
  -25.4107  -36.3132   24.0338 C   0  0  1  0  0  0
  -20.5857  -28.3671   23.1314 C   0  0  2  0  0  0
  -20.6752  -26.9405   22.5420 C   0  0  0  0  0  0
  -19.5734  -26.6389   21.5211 C   0  0  0  0  0  0
  -18.1912  -26.7936   22.1623 C   0  0  0  0  0  0
  -19.1517  -28.8848   23.2897 C   0  0  0  0  0  0
  -18.9449  -30.1455   23.8910 C   0  0  0  0  0  0
  -17.6454  -30.6597   24.0571 C   0  0  0  0  0  0
  -25.9029  -34.9493   23.5138 C   0  0  0  0  0  0
  -16.5341  -29.9105   23.6331 C   0  0  0  0  0  0
  -16.7254  -28.6526   23.0334 C   0  0  0  0  0  0
  -26.4437  -31.6621   25.0732 C   0  0  0  0  0  0
  -25.3694  -31.3736   26.1477 C   0  0  0  0  0  0
  -27.0262  -30.3065   24.6111 C   0  0  0  0  0  0
  -27.6019  -32.4336   25.7491 C   0  0  0  0  0  0
  -27.5587  -37.1819   24.8463 C   0  0  0  0  0  0
  -21.4140  -29.3038   22.3728 N   0  0  0  0  0  0
  -26.4301  -37.3812   23.9405 N   0  0  0  0  0  0
  -24.6673  -31.0791   22.0991 N   0  0  0  0  0  0
  -23.4184  -28.8186   23.3021 O   0  0  0  0  0  0
  -28.3801  -26.6737   20.1254 O   0  0  0  0  0  0
  -26.5609  -34.8938   22.4710 O   0  0  0  0  0  0
  -23.5322  -32.1419   23.7496 O   0  0  0  0  0  0
  -30.9269  -19.5685   19.0743 C   0  0  0  0  0  0
  -31.3531  -18.4641   18.3256 C   0  0  0  0  0  0
  -30.9769  -17.1572   18.7108 C   0  0  0  0  0  0
  -29.8267  -18.0930   20.6707 C   0  0  0  0  0  0
  -30.2789  -16.9463   19.9442 C   0  0  0  0  0  0
  -30.1134  -19.4169   20.2194 C   0  0  0  0  0  0
  -32.1909  -18.7249   17.0812 C   0  0  0  0  0  0
  -31.2862  -16.0280   17.7343 C   0  0  0  0  0  0
  -29.0019  -17.8985   21.9362 C   0  0  0  0  0  0
  -29.0625  -24.2977   20.2145 C   0  0  0  0  0  0
  -28.9753  -22.9488   20.9799 C   0  0  0  0  0  0
  -28.2635  -25.4453   20.8664 C   0  0  0  0  0  0
  -29.7310  -21.8114   20.2612 C   0  0  0  0  0  0
  -29.9342  -15.6267   20.4314 N   0  0  0  0  0  0
  -29.5971  -20.5226   20.8907 O   0  0  0  0  0  0
  -31.4600  -12.3952   19.1155 H   0  0  0  0  0  0
  -30.3326  -11.3133   19.8867 H   0  0  0  0  0  0
  -29.7137  -11.6357   17.4887 H   0  0  0  0  0  0
  -29.6468  -13.3557   17.6818 H   0  0  0  0  0  0
  -27.8053  -11.2765   18.8576 H   0  0  0  0  0  0
  -27.3609  -12.5750   17.7854 H   0  0  0  0  0  0
  -27.6696  -14.2417   19.4993 H   0  0  0  0  0  0
  -28.6824  -12.0693   21.4032 H   0  0  0  0  0  0
  -28.4892  -13.7594   21.7969 H   0  0  0  0  0  0
  -25.2775   -9.5684   22.4759 H   0  0  0  0  0  0
  -24.0015   -7.4637   22.7463 H   0  0  0  0  0  0
  -21.0857   -8.8788   19.8945 H   0  0  0  0  0  0
  -22.3718  -10.9686   19.6167 H   0  0  0  0  0  0
  -21.1996   -7.6144   23.9714 H   0  0  0  0  0  0
  -21.1483   -6.0514   25.9074 H   0  0  0  0  0  0
  -22.0601   -2.7609   23.2842 H   0  0  0  0  0  0
  -22.4132  -11.9896   22.4792 H   0  0  0  0  0  0
  -21.1115  -13.1234   22.2589 H   0  0  0  0  0  0
  -24.6601  -15.8446   20.5059 H   0  0  0  0  0  0
  -26.2725  -15.6275   20.0573 H   0  0  0  0  0  0
  -26.7091  -32.5554   23.1176 H   0  0  0  0  0  0
  -24.9973  -33.9795   25.0438 H   0  0  0  0  0  0
  -22.6923  -31.3064   21.4074 H   0  0  0  0  0  0
  -23.3754  -35.9643   23.3320 H   0  0  0  0  0  0
  -24.3572  -36.8919   22.2050 H   0  0  0  0  0  0
  -23.7218  -37.6525   23.6641 H   0  0  0  0  0  0
  -26.0416  -31.6064   20.5958 H   0  0  0  0  0  0
  -26.8194  -30.8920   21.9799 H   0  0  0  0  0  0
  -28.1088  -29.1175   21.1534 H   0  0  0  0  0  0
  -26.0711  -25.9657   19.0322 H   0  0  0  0  0  0
  -23.9821  -27.2856   19.0455 H   0  0  0  0  0  0
  -23.7198  -30.5922   19.4021 H   0  0  0  0  0  0
  -22.7393  -29.2360   19.8709 H   0  0  0  0  0  0
  -25.1291  -36.2010   25.0835 H   0  0  0  0  0  0
  -20.9936  -28.3231   24.1437 H   0  0  0  0  0  0
  -20.5637  -26.2277   23.3606 H   0  0  0  0  0  0
  -21.6625  -26.7441   22.1218 H   0  0  0  0  0  0
  -19.6893  -25.6301   21.1234 H   0  0  0  0  0  0
  -19.6684  -27.3203   20.6742 H   0  0  0  0  0  0
  -17.4178  -26.6664   21.4035 H   0  0  0  0  0  0
  -18.0332  -26.0089   22.9033 H   0  0  0  0  0  0
  -19.7932  -30.7266   24.2278 H   0  0  0  0  0  0
  -17.5018  -31.6276   24.5175 H   0  0  0  0  0  0
  -15.5345  -30.3018   23.7665 H   0  0  0  0  0  0
  -15.8644  -28.0870   22.7027 H   0  0  0  0  0  0
  -24.5842  -30.7116   25.7808 H   0  0  0  0  0  0
  -24.8905  -32.2894   26.4954 H   0  0  0  0  0  0
  -25.8024  -30.8870   27.0224 H   0  0  0  0  0  0
  -26.2817  -29.6861   24.1105 H   0  0  0  0  0  0
  -27.3965  -29.7277   25.4583 H   0  0  0  0  0  0
  -27.8680  -30.4396   23.9309 H   0  0  0  0  0  0
  -27.2640  -33.3617   26.2120 H   0  0  0  0  0  0
  -28.3799  -32.6932   25.0297 H   0  0  0  0  0  0
  -28.0717  -31.8425   26.5364 H   0  0  0  0  0  0
  -28.2619  -38.0106   24.7528 H   0  0  0  0  0  0
  -28.1076  -36.2647   24.6283 H   0  0  0  0  0  0
  -27.2304  -37.1458   25.8864 H   0  0  0  0  0  0
  -20.9300  -29.8779   21.6968 H   0  0  0  0  0  0
  -26.0205  -38.2893   24.1419 H   0  0  0  0  0  0
  -31.2190  -20.5430   18.7133 H   0  0  0  0  0  0
  -32.6110  -19.7317   17.0847 H   0  0  0  0  0  0
  -31.5824  -18.6237   16.1823 H   0  0  0  0  0  0
  -33.0289  -18.0300   17.0164 H   0  0  0  0  0  0
  -31.2133  -16.3513   16.6968 H   0  0  0  0  0  0
  -30.5621  -15.2300   17.8262 H   0  0  0  0  0  0
  -32.2882  -15.6310   17.8946 H   0  0  0  0  0  0
  -29.4758  -17.1765   22.6014 H   0  0  0  0  0  0
  -28.0077  -17.5317   21.6820 H   0  0  0  0  0  0
  -28.8818  -18.8218   22.5014 H   0  0  0  0  0  0
  -28.6990  -24.1553   19.1960 H   0  0  0  0  0  0
  -30.1072  -24.5966   20.1229 H   0  0  0  0  0  0
  -27.9291  -22.6661   21.0998 H   0  0  0  0  0  0
  -29.3793  -23.0720   21.9858 H   0  0  0  0  0  0
  -28.6368  -25.6237   21.8757 H   0  0  0  0  0  0
  -27.2266  -25.1255   20.9853 H   0  0  0  0  0  0
  -30.7862  -22.0843   20.2102 H   0  0  0  0  0  0
  -29.3529  -21.7526   19.2386 H   0  0  0  0  0  0
  -28.9797  -15.4944   20.7242 H   0  0  0  0  0  0
  1 25  1  0  0  0
  1 30  2  0  0  0
  1 84  1  0  0  0
  2  3  1  0  0  0
  2 25  1  0  0  0
  2 86  1  0  0  0
  2 87  1  0  0  0
  3  4  1  0  0  0
  3 88  1  0  0  0
  3 89  1  0  0  0
  4  5  1  0  0  0
  4 90  1  0  0  0
  4 91  1  0  0  0
  5  6  1  0  0  0
  5 26  1  0  0  0
  5 92  1  0  0  0
  6 25  1  0  0  0
  6 93  1  0  0  0
  6 94  1  0  0  0
  7  8  2  0  0  0
  7 26  1  0  0  0
  7 29  1  0  0  0
  8  9  1  0  0  0
  8 22  1  0  0  0
  9 10  1  0  0  0
  9 27  2  0  0  0
 10 11  2  0  0  0
 10 15  1  0  0  0
 11 12  1  0  0  0
 11 95  1  0  0  0
 12 13  2  0  0  0
 12 96  1  0  0  0
 13 14  1  0  0  0
 13 31  1  0  0  0
 14 15  2  0  0  0
 14 97  1  0  0  0
 15 98  1  0  0  0
 16 17  2  0  0  0
 16 21  1  0  0  0
 16 31  1  0  0  0
 17 18  1  0  0  0
 17 99  1  0  0  0
 18 19  2  0  0  0
 18100  1  0  0  0
 19 20  1  0  0  0
 19 24  1  0  0  0
 20 21  2  0  0  0
 20101  1  0  0  0
 21 23  1  0  0  0
 22 28  1  0  0  0
 22 32  2  0  0  0
 26 27  1  0  0  0
 28102  1  0  0  0
 28103  1  0  0  0
 29104  1  0  0  0
 29105  1  0  0  0
 33 34  1  0  0  0
 33 66  1  0  0  0
 33 70  2  0  0  0
 34 36  1  0  0  0
 34 59  1  0  0  0
 34106  1  0  0  0
 35 44  2  0  0  0
 35 45  1  0  0  0
 35 68  1  0  0  0
 36 56  1  0  0  0
 36107  1  0  0  0
 37 39  1  0  0  0
 37 47  1  0  0  0
 37 66  1  0  0  0
 37108  1  0  0  0
 38 43  2  0  0  0
 38 46  1  0  0  0
 38 47  1  0  0  0
 39 64  1  0  0  0
 39 67  2  0  0  0
 40 52  1  0  0  0
 40 53  2  0  0  0
 40 58  1  0  0  0
 41109  1  0  0  0
 41110  1  0  0  0
 41111  1  0  0  0
 41 48  1  0  0  0
 42 43  1  0  0  0
 42 66  1  0  0  0
 42112  1  0  0  0
 42113  1  0  0  0
 43 44  1  0  0  0
 44114  1  0  0  0
 45 46  2  0  0  0
 45115  1  0  0  0
 46116  1  0  0  0
 47117  1  0  0  0
 47118  1  0  0  0
 48 56  1  0  0  0
 48 65  1  0  0  0
 48119  1  0  0  0
 49 50  1  0  0  0
 49 53  1  0  0  0
 49 64  1  0  0  0
 49120  1  0  0  0
 50 51  1  0  0  0
 50121  1  0  0  0
 50122  1  0  0  0
 51 52  1  0  0  0
 51123  1  0  0  0
 51124  1  0  0  0
 52125  1  0  0  0
 52126  1  0  0  0
 53 54  1  0  0  0
 54 55  2  0  0  0
 54127  1  0  0  0
 55 57  1  0  0  0
 55128  1  0  0  0
 56 69  2  0  0  0
 57 58  2  0  0  0
 57129  1  0  0  0
 58130  1  0  0  0
 59 60  1  0  0  0
 59 61  1  0  0  0
 59 62  1  0  0  0
 60131  1  0  0  0
 60132  1  0  0  0
 60133  1  0  0  0
 61134  1  0  0  0
 61135  1  0  0  0
 61136  1  0  0  0
 62137  1  0  0  0
 62138  1  0  0  0
 62139  1  0  0  0
 63 65  1  0  0  0
 63140  1  0  0  0
 63141  1  0  0  0
 63142  1  0  0  0
 64143  1  0  0  0
 65144  1  0  0  0
 68 82  1  0  0  0
 71 72  2  0  0  0
 71 76  1  0  0  0
 71145  1  0  0  0
 72 73  1  0  0  0
 72 77  1  0  0  0
 73 75  2  0  0  0
 73 78  1  0  0  0
 74 75  1  0  0  0
 74 76  2  0  0  0
 74 79  1  0  0  0
 75 84  1  0  0  0
 76 85  1  0  0  0
 77146  1  0  0  0
 77147  1  0  0  0
 77148  1  0  0  0
 78149  1  0  0  0
 78150  1  0  0  0
 78151  1  0  0  0
 79152  1  0  0  0
 79153  1  0  0  0
 79154  1  0  0  0
 80 81  1  0  0  0
 80 82  1  0  0  0
 80155  1  0  0  0
 80156  1  0  0  0
 81 83  1  0  0  0
 81157  1  0  0  0
 81158  1  0  0  0
 82159  1  0  0  0
 82160  1  0  0  0
 83 85  1  0  0  0
 83161  1  0  0  0
 83162  1  0  0  0
 84163  1  0  0  0
M  ISO  4   1 100  68 101  82 101  84 100
M  END
> <chiral flag>
0

> <version>
0

> <s_m_source_file>
/data/baiqing/PycharmProjects/Reinvent-master-3.2/result/LINK_invent/BTK/process_docking_weight1_custom_product_contain_oxygen_bond_distance_aromatic_linkinvent_7_9_3/rearranged_h_0109.sdf

> <i_m_source_file_index>
49

> <r_mmod_Potential_Energy-OPLS-2005>
-7.6697301864624

> <r_mmod_Stretch_Energy-OPLS-2005>
44.5941505432129

> <r_mmod_Bend_Energy-OPLS-2005>
96.6913375854492

> <r_mmod_Torsional_Energy-OPLS-2005>
262.966186523438

> <r_mmod_Improper_Torsional_Energy-OPLS-2005>
7.57095527648926

> <r_mmod_Van_der_Waal_Energy-OPLS-2005>
170.029266357422

> <r_mmod_Electrostatic_Energy-OPLS-2005>
-411.480987548828

> <r_mmod_Solvation_Energy-OPLS-2005>
-205.880142211914

> <b_mmod_Minimization_Converged-OPLS-2005>
0

> <r_mmod_RMS_Derivative-OPLS-2005>
1.22666764259338

$$$$
49
                    3D
 Structure written by MMmdl.
161169  0  0  1  0            999 V2000
  -30.7639  -14.4572   20.5257 C   0  0  0  0  0  0
  -30.3967  -12.2884   19.4439 C   0  0  0  0  0  0
  -29.4873  -12.4845   18.2156 C   0  0  0  0  0  0
  -28.0091  -12.3615   18.6259 C   0  0  0  0  0  0
  -27.6545  -13.2223   19.8692 C   0  0  2  0  0  0
  -28.6987  -13.0625   21.0000 C   0  0  0  0  0  0
  -25.2538  -13.8203   20.5703 C   0  0  0  0  0  0
  -24.1810  -13.0460   20.9196 C   0  0  0  0  0  0
  -24.6393  -11.6929   20.8754 C   0  0  0  0  0  0
  -23.9068  -10.4302   21.0408 C   0  0  0  0  0  0
  -24.3616   -9.4214   21.9183 C   0  0  0  0  0  0
  -23.6297   -8.2248   22.0754 C   0  0  0  0  0  0
  -22.4281   -8.0282   21.3544 C   0  0  0  0  0  0
  -21.9914   -9.0252   20.4643 C   0  0  0  0  0  0
  -22.7239  -10.2133   20.3056 C   0  0  0  0  0  0
  -21.6847   -6.0735   22.5280 C   0  0  0  0  0  0
  -21.4012   -6.5639   23.8210 C   0  0  0  0  0  0
  -21.3661   -5.6796   24.9174 C   0  0  0  0  0  0
  -21.6045   -4.3059   24.7223 C   0  0  0  0  0  0
  -21.8819   -3.8149   23.4344 C   0  0  0  0  0  0
  -21.9191   -4.6966   22.3405 C   0  0  0  0  0  0
  -22.7823  -13.5231   21.1854 C   0  0  0  0  0  0
  -22.1656   -4.2152   21.0981 F   0  0  0  0  0  0
  -21.5633   -3.4545   25.7734 F   0  0  0  0  0  0
  -30.0281  -13.3181   20.4310 N   0  0  0  0  0  0
  -26.2986  -12.9410   20.3371 N   0  0  0  0  0  0
  -25.9328  -11.6554   20.5797 N   0  0  0  0  0  0
  -22.0474  -12.8211   22.0400 N   0  0  0  0  0  0
  -25.4253  -15.1924   20.4099 N   0  0  0  0  0  0
  -31.9218  -14.5133   20.1075 O   0  0  0  0  0  0
  -21.6640   -6.8881   21.4241 O   0  0  0  0  0  0
  -22.3506  -14.5537   20.6708 O   0  0  0  0  0  0
  -24.6125  -31.8707   23.2123 C   0  0  0  0  0  0
  -25.9023  -32.4847   23.8415 C   0  0  1  0  0  0
  -27.2215  -27.4381   20.0999 C   0  0  0  0  0  0
  -25.5876  -33.8644   24.2339 N   0  0  0  0  0  0
  -23.4002  -30.4967   21.5530 C   0  0  2  0  0  0
  -24.8479  -28.9752   20.1058 C   0  0  0  0  0  0
  -22.7408  -29.4662   22.4983 C   0  0  0  0  0  0
  -18.0266  -28.1376   22.8472 C   0  0  0  0  0  0
  -24.1494  -36.7317   23.2635 C   0  0  0  0  0  0
  -25.9324  -30.8394   21.3659 C   0  0  0  0  0  0
  -26.0096  -29.4791   20.7044 C   0  0  0  0  0  0
  -27.2044  -28.7210   20.6938 C   0  0  0  0  0  0
  -26.0449  -26.9615   19.4742 C   0  0  0  0  0  0
  -24.8617  -27.7181   19.4830 C   0  0  0  0  0  0
  -23.6068  -29.8363   20.1645 C   0  0  0  0  0  0
  -25.4113  -36.3133   24.0343 C   0  0  1  0  0  0
  -20.5855  -28.3647   23.1314 C   0  0  2  0  0  0
  -20.6777  -26.9380   22.5411 C   0  0  0  0  0  0
  -19.5768  -26.6379   21.5197 C   0  0  0  0  0  0
  -18.1930  -26.7914   22.1599 C   0  0  0  0  0  0
  -19.1517  -28.8824   23.2884 C   0  0  0  0  0  0
  -18.9458  -30.1425   23.8894 C   0  0  0  0  0  0
  -17.6461  -30.6576   24.0560 C   0  0  0  0  0  0
  -25.9030  -34.9490   23.5141 C   0  0  0  0  0  0
  -16.5346  -29.9078   23.6329 C   0  0  0  0  0  0
  -16.7258  -28.6500   23.0335 C   0  0  0  0  0  0
  -26.4447  -31.6618   25.0730 C   0  0  0  0  0  0
  -25.3692  -31.3729   26.1457 C   0  0  0  0  0  0
  -27.0294  -30.3076   24.6096 C   0  0  0  0  0  0
  -27.6036  -32.4321   25.7471 C   0  0  0  0  0  0
  -27.5600  -37.1804   24.8458 C   0  0  0  0  0  0
  -21.4139  -29.3025   22.3732 N   0  0  0  0  0  0
  -26.4307  -37.3810   23.9409 N   0  0  0  0  0  0
  -24.6668  -31.0815   22.1022 N   0  0  0  0  0  0
  -23.4199  -28.8195   23.3003 O   0  0  0  0  0  0
  -28.3499  -26.6451   20.1778 O   0  0  0  0  0  0
  -26.5612  -34.8933   22.4711 O   0  0  0  0  0  0
  -23.5314  -32.1461   23.7504 O   0  0  0  0  0  0
  -30.1865  -19.9879   22.6296 C   0  0  0  0  0  0
  -29.8074  -19.1753   19.9870 C   0  0  0  0  0  0
  -30.4069  -18.6363   22.2839 C   0  0  0  0  0  0
  -30.2363  -18.2253   20.9422 C   0  0  0  0  0  0
  -29.6324  -20.5464   20.3183 C   0  0  0  0  0  0
  -29.8257  -20.9544   21.6661 C   0  0  0  0  0  0
  -30.9251  -17.6772   23.3429 C   0  0  0  0  0  0
  -29.1683  -21.1202   18.0207 C   0  0  0  0  0  0
  -30.7570  -16.8790   20.4335 C   0  0  0  0  0  0
  -29.2170  -24.4474   21.0648 C   0  0  0  0  0  0
  -28.0495  -25.2713   20.4935 C   0  0  0  0  0  0
  -28.7120  -23.1131   21.6663 C   0  0  0  0  0  0
  -30.1361  -15.6058   20.8564 N   0  0  0  0  0  0
  -29.3645  -21.5149   19.3726 O   0  0  0  0  0  0
  -29.7870  -22.2710   22.0909 O   0  0  0  0  0  0
  -31.4459  -12.3321   19.1455 H   0  0  0  0  0  0
  -30.2568  -11.2950   19.8714 H   0  0  0  0  0  0
  -29.7244  -11.7439   17.4503 H   0  0  0  0  0  0
  -29.6696  -13.4618   17.7656 H   0  0  0  0  0  0
  -27.8141  -11.3094   18.8340 H   0  0  0  0  0  0
  -27.3635  -12.6291   17.7892 H   0  0  0  0  0  0
  -27.6830  -14.2627   19.5435 H   0  0  0  0  0  0
  -28.6649  -12.0529   21.4120 H   0  0  0  0  0  0
  -28.4805  -13.7369   21.8301 H   0  0  0  0  0  0
  -25.2761   -9.5686   22.4756 H   0  0  0  0  0  0
  -24.0004   -7.4635   22.7472 H   0  0  0  0  0  0
  -21.0852   -8.8767   19.8943 H   0  0  0  0  0  0
  -22.3701  -10.9671   19.6160 H   0  0  0  0  0  0
  -21.2002   -7.6144   23.9713 H   0  0  0  0  0  0
  -21.1483   -6.0526   25.9077 H   0  0  0  0  0  0
  -22.0599   -2.7611   23.2845 H   0  0  0  0  0  0
  -22.4091  -11.9861   22.4780 H   0  0  0  0  0  0
  -21.1083  -13.1210   22.2611 H   0  0  0  0  0  0
  -24.6638  -15.8526   20.5258 H   0  0  0  0  0  0
  -26.2806  -15.6289   20.0909 H   0  0  0  0  0  0
  -26.7096  -32.5581   23.1184 H   0  0  0  0  0  0
  -25.0007  -33.9804   25.0476 H   0  0  0  0  0  0
  -22.6878  -31.3142   21.4193 H   0  0  0  0  0  0
  -23.3766  -35.9638   23.3305 H   0  0  0  0  0  0
  -24.3585  -36.8927   22.2048 H   0  0  0  0  0  0
  -23.7227  -37.6512   23.6646 H   0  0  0  0  0  0
  -26.0456  -31.6100   20.6023 H   0  0  0  0  0  0
  -26.8197  -30.8886   21.9866 H   0  0  0  0  0  0
  -28.0973  -29.0957   21.1746 H   0  0  0  0  0  0
  -26.0210  -26.0002   18.9834 H   0  0  0  0  0  0
  -23.9716  -27.3276   19.0087 H   0  0  0  0  0  0
  -23.7075  -30.6176   19.4106 H   0  0  0  0  0  0
  -22.7323  -29.2532   19.8697 H   0  0  0  0  0  0
  -25.1282  -36.2008   25.0839 H   0  0  0  0  0  0
  -20.9940  -28.3223   24.1440 H   0  0  0  0  0  0
  -20.5696  -26.2242   23.3590 H   0  0  0  0  0  0
  -21.6654  -26.7453   22.1194 H   0  0  0  0  0  0
  -19.6949  -25.6296   21.1216 H   0  0  0  0  0  0
  -19.6738  -27.3214   20.6740 H   0  0  0  0  0  0
  -17.4207  -26.6642   21.3990 H   0  0  0  0  0  0
  -18.0327  -26.0058   22.9001 H   0  0  0  0  0  0
  -19.7943  -30.7218   24.2291 H   0  0  0  0  0  0
  -17.5029  -31.6268   24.5144 H   0  0  0  0  0  0
  -15.5346  -30.2986   23.7663 H   0  0  0  0  0  0
  -15.8654  -28.0830   22.7048 H   0  0  0  0  0  0
  -24.5854  -30.7098   25.7772 H   0  0  0  0  0  0
  -24.8862  -32.2883   26.4894 H   0  0  0  0  0  0
  -25.7981  -30.8886   27.0239 H   0  0  0  0  0  0
  -26.2860  -29.6824   24.1135 H   0  0  0  0  0  0
  -27.4088  -29.7310   25.4542 H   0  0  0  0  0  0
  -27.8677  -30.4429   23.9255 H   0  0  0  0  0  0
  -27.2700  -33.3633   26.2064 H   0  0  0  0  0  0
  -28.3820  -32.6862   25.0265 H   0  0  0  0  0  0
  -28.0736  -31.8430   26.5362 H   0  0  0  0  0  0
  -28.2589  -38.0130   24.7548 H   0  0  0  0  0  0
  -28.1123  -36.2660   24.6228 H   0  0  0  0  0  0
  -27.2316  -37.1378   25.8858 H   0  0  0  0  0  0
  -20.9280  -29.8734   21.6956 H   0  0  0  0  0  0
  -26.0211  -38.2892   24.1424 H   0  0  0  0  0  0
  -30.3529  -20.3101   23.6480 H   0  0  0  0  0  0
  -29.7116  -18.8438   18.9650 H   0  0  0  0  0  0
  -30.8672  -18.1150   24.3404 H   0  0  0  0  0  0
  -31.9693  -17.4294   23.1499 H   0  0  0  0  0  0
  -30.3484  -16.7531   23.3545 H   0  0  0  0  0  0
  -28.9505  -22.0000   17.4149 H   0  0  0  0  0  0
  -28.3243  -20.4361   17.9231 H   0  0  0  0  0  0
  -30.0613  -20.6529   17.6030 H   0  0  0  0  0  0
  -31.8135  -16.8755   20.7105 H   0  0  0  0  0  0
  -30.7570  -16.8935   19.3419 H   0  0  0  0  0  0
  -29.7370  -25.0199   21.8324 H   0  0  0  0  0  0
  -29.9427  -24.2534   20.2752 H   0  0  0  0  0  0
  -27.2412  -25.2465   21.2287 H   0  0  0  0  0  0
  -27.6829  -24.7578   19.6034 H   0  0  0  0  0  0
  -28.0217  -22.6167   20.9857 H   0  0  0  0  0  0
  -28.1149  -23.3354   22.5515 H   0  0  0  0  0  0
  -29.1710  -15.5905   21.1489 H   0  0  0  0  0  0
  1 25  1  0  0  0
  1 30  2  0  0  0
  1 83  1  0  0  0
  2  3  1  0  0  0
  2 25  1  0  0  0
  2 86  1  0  0  0
  2 87  1  0  0  0
  3  4  1  0  0  0
  3 88  1  0  0  0
  3 89  1  0  0  0
  4  5  1  0  0  0
  4 90  1  0  0  0
  4 91  1  0  0  0
  5  6  1  0  0  0
  5 26  1  0  0  0
  5 92  1  0  0  0
  6 25  1  0  0  0
  6 93  1  0  0  0
  6 94  1  0  0  0
  7  8  2  0  0  0
  7 26  1  0  0  0
  7 29  1  0  0  0
  8  9  1  0  0  0
  8 22  1  0  0  0
  9 10  1  0  0  0
  9 27  2  0  0  0
 10 11  2  0  0  0
 10 15  1  0  0  0
 11 12  1  0  0  0
 11 95  1  0  0  0
 12 13  2  0  0  0
 12 96  1  0  0  0
 13 14  1  0  0  0
 13 31  1  0  0  0
 14 15  2  0  0  0
 14 97  1  0  0  0
 15 98  1  0  0  0
 16 17  2  0  0  0
 16 21  1  0  0  0
 16 31  1  0  0  0
 17 18  1  0  0  0
 17 99  1  0  0  0
 18 19  2  0  0  0
 18100  1  0  0  0
 19 20  1  0  0  0
 19 24  1  0  0  0
 20 21  2  0  0  0
 20101  1  0  0  0
 21 23  1  0  0  0
 22 28  1  0  0  0
 22 32  2  0  0  0
 26 27  1  0  0  0
 28102  1  0  0  0
 28103  1  0  0  0
 29104  1  0  0  0
 29105  1  0  0  0
 33 34  1  0  0  0
 33 66  1  0  0  0
 33 70  2  0  0  0
 34 36  1  0  0  0
 34 59  1  0  0  0
 34106  1  0  0  0
 35 44  2  0  0  0
 35 45  1  0  0  0
 35 68  1  0  0  0
 36 56  1  0  0  0
 36107  1  0  0  0
 37 39  1  0  0  0
 37 47  1  0  0  0
 37 66  1  0  0  0
 37108  1  0  0  0
 38 43  2  0  0  0
 38 46  1  0  0  0
 38 47  1  0  0  0
 39 64  1  0  0  0
 39 67  2  0  0  0
 40 52  1  0  0  0
 40 53  2  0  0  0
 40 58  1  0  0  0
 41109  1  0  0  0
 41110  1  0  0  0
 41111  1  0  0  0
 41 48  1  0  0  0
 42 43  1  0  0  0
 42 66  1  0  0  0
 42112  1  0  0  0
 42113  1  0  0  0
 43 44  1  0  0  0
 44114  1  0  0  0
 45 46  2  0  0  0
 45115  1  0  0  0
 46116  1  0  0  0
 47117  1  0  0  0
 47118  1  0  0  0
 48 56  1  0  0  0
 48 65  1  0  0  0
 48119  1  0  0  0
 49 50  1  0  0  0
 49 53  1  0  0  0
 49 64  1  0  0  0
 49120  1  0  0  0
 50 51  1  0  0  0
 50121  1  0  0  0
 50122  1  0  0  0
 51 52  1  0  0  0
 51123  1  0  0  0
 51124  1  0  0  0
 52125  1  0  0  0
 52126  1  0  0  0
 53 54  1  0  0  0
 54 55  2  0  0  0
 54127  1  0  0  0
 55 57  1  0  0  0
 55128  1  0  0  0
 56 69  2  0  0  0
 57 58  2  0  0  0
 57129  1  0  0  0
 58130  1  0  0  0
 59 60  1  0  0  0
 59 61  1  0  0  0
 59 62  1  0  0  0
 60131  1  0  0  0
 60132  1  0  0  0
 60133  1  0  0  0
 61134  1  0  0  0
 61135  1  0  0  0
 61136  1  0  0  0
 62137  1  0  0  0
 62138  1  0  0  0
 62139  1  0  0  0
 63 65  1  0  0  0
 63140  1  0  0  0
 63141  1  0  0  0
 63142  1  0  0  0
 64143  1  0  0  0
 65144  1  0  0  0
 68 81  1  0  0  0
 71 73  2  0  0  0
 71 76  1  0  0  0
 71145  1  0  0  0
 72 74  2  0  0  0
 72 75  1  0  0  0
 72146  1  0  0  0
 73 74  1  0  0  0
 73 77  1  0  0  0
 74 79  1  0  0  0
 75 76  2  0  0  0
 75 84  1  0  0  0
 76 85  1  0  0  0
 77147  1  0  0  0
 77148  1  0  0  0
 77149  1  0  0  0
 78 84  1  0  0  0
 78150  1  0  0  0
 78151  1  0  0  0
 78152  1  0  0  0
 79 83  1  0  0  0
 79153  1  0  0  0
 79154  1  0  0  0
 80 81  1  0  0  0
 80 82  1  0  0  0
 80155  1  0  0  0
 80156  1  0  0  0
 81157  1  0  0  0
 81158  1  0  0  0
 82 85  1  0  0  0
 82159  1  0  0  0
 82160  1  0  0  0
 83161  1  0  0  0
M  ISO  4   1 100  68 101  81 101  83 100
M  END
> <chiral flag>
0

> <version>
0

> <s_m_source_file>
/data/baiqing/PycharmProjects/Reinvent-master-3.2/result/LINK_invent/BTK/process_docking_weight1_custom_product_contain_oxygen_bond_distance_aromatic_linkinvent_7_9_3/rearranged_h_0109.sdf

> <i_m_source_file_index>
50

> <r_mmod_Potential_Energy-OPLS-2005>
-36.2252731323242

> <r_mmod_Stretch_Energy-OPLS-2005>
38.8104705810547

> <r_mmod_Bend_Energy-OPLS-2005>
119.207405090332

> <r_mmod_Torsional_Energy-OPLS-2005>
241.493881225586

> <r_mmod_Improper_Torsional_Energy-OPLS-2005>
8.48283290863037

> <r_mmod_Van_der_Waal_Energy-OPLS-2005>
173.528350830078

> <r_mmod_Electrostatic_Energy-OPLS-2005>
-427.418914794922

> <r_mmod_Solvation_Energy-OPLS-2005>
-212.588745117188

> <b_mmod_Minimization_Converged-OPLS-2005>
0

> <r_mmod_RMS_Derivative-OPLS-2005>
2.32089996337891

$$$$
50
                    3D
 Structure written by MMmdl.
169178  0  0  1  0            999 V2000
  -30.6075  -14.6943   20.5538 C   0  0  0  0  0  0
  -30.4519  -12.4507   19.4550 C   0  0  0  0  0  0
  -29.5092  -12.5533   18.2320 C   0  0  0  0  0  0
  -28.0288  -12.3798   18.6314 C   0  0  0  0  0  0
  -27.6568  -13.2094   19.8867 C   0  0  2  0  0  0
  -28.7066  -12.9911   20.9945 C   0  0  0  0  0  0
  -25.2548  -13.8173   20.5718 C   0  0  0  0  0  0
  -24.1798  -13.0427   20.9152 C   0  0  0  0  0  0
  -24.6365  -11.6906   20.8738 C   0  0  0  0  0  0
  -23.9048  -10.4284   21.0405 C   0  0  0  0  0  0
  -24.3600   -9.4209   21.9190 C   0  0  0  0  0  0
  -23.6262   -8.2254   22.0774 C   0  0  0  0  0  0
  -22.4257   -8.0273   21.3537 C   0  0  0  0  0  0
  -21.9874   -9.0274   20.4671 C   0  0  0  0  0  0
  -22.7222  -10.2149   20.3061 C   0  0  0  0  0  0
  -21.6862   -6.0713   22.5260 C   0  0  0  0  0  0
  -21.4052   -6.5625   23.8200 C   0  0  0  0  0  0
  -21.3664   -5.6781   24.9164 C   0  0  0  0  0  0
  -21.6040   -4.3038   24.7217 C   0  0  0  0  0  0
  -21.8817   -3.8116   23.4342 C   0  0  0  0  0  0
  -21.9204   -4.6937   22.3399 C   0  0  0  0  0  0
  -22.7829  -13.5239   21.1794 C   0  0  0  0  0  0
  -22.1641   -4.2116   21.0975 F   0  0  0  0  0  0
  -21.5626   -3.4524   25.7734 F   0  0  0  0  0  0
  -30.0068  -13.4451   20.4628 N   0  0  0  0  0  0
  -26.2978  -12.9331   20.3451 N   0  0  0  0  0  0
  -25.9286  -11.6482   20.5790 N   0  0  0  0  0  0
  -22.0454  -12.8300   22.0402 N   0  0  0  0  0  0
  -25.4208  -15.1900   20.4173 N   0  0  0  0  0  0
  -31.7330  -14.8710   20.0693 O   0  0  0  0  0  0
  -21.6640   -6.8857   21.4214 O   0  0  0  0  0  0
  -22.3529  -14.5510   20.6575 O   0  0  0  0  0  0
  -24.6264  -31.8561   23.1961 C   0  0  0  0  0  0
  -25.9128  -32.4750   23.8252 C   0  0  1  0  0  0
  -27.2298  -27.3106   20.1426 C   0  0  0  0  0  0
  -25.5952  -33.8531   24.2217 N   0  0  0  0  0  0
  -23.4181  -30.4808   21.5345 C   0  0  2  0  0  0
  -24.8703  -28.9218   20.1175 C   0  0  0  0  0  0
  -22.7426  -29.4643   22.4845 C   0  0  0  0  0  0
  -18.0296  -28.1362   22.8498 C   0  0  0  0  0  0
  -24.1485  -36.7292   23.2631 C   0  0  0  0  0  0
  -25.9550  -30.7858   21.3711 C   0  0  0  0  0  0
  -26.0329  -29.4002   20.7407 C   0  0  0  0  0  0
  -27.2149  -28.6023   20.7538 C   0  0  0  0  0  0
  -26.0547  -26.8850   19.4933 C   0  0  0  0  0  0
  -24.8829  -27.6661   19.4881 C   0  0  0  0  0  0
  -23.6388  -29.8045   20.1537 C   0  0  0  0  0  0
  -25.4109  -36.3055   24.0314 C   0  0  1  0  0  0
  -20.5888  -28.3699   23.1231 C   0  0  2  0  0  0
  -20.6779  -26.9426   22.5375 C   0  0  0  0  0  0
  -19.5766  -26.6391   21.5172 C   0  0  0  0  0  0
  -18.1947  -26.7910   22.1600 C   0  0  0  0  0  0
  -19.1544  -28.8849   23.2873 C   0  0  0  0  0  0
  -18.9472  -30.1450   23.8896 C   0  0  0  0  0  0
  -17.6482  -30.6588   24.0571 C   0  0  0  0  0  0
  -25.9047  -34.9430   23.5074 C   0  0  0  0  0  0
  -16.5374  -29.9085   23.6347 C   0  0  0  0  0  0
  -16.7286  -28.6487   23.0394 C   0  0  0  0  0  0
  -26.4508  -31.6535   25.0603 C   0  0  0  0  0  0
  -25.3777  -31.3698   26.1373 C   0  0  0  0  0  0
  -27.0310  -30.2932   24.6054 C   0  0  0  0  0  0
  -27.6019  -32.4266   25.7441 C   0  0  0  0  0  0
  -27.5562  -37.1795   24.8457 C   0  0  0  0  0  0
  -21.4134  -29.3049   22.3573 N   0  0  0  0  0  0
  -26.4268  -37.3776   23.9418 N   0  0  0  0  0  0
  -24.6847  -31.0583   22.0918 N   0  0  0  0  0  0
  -23.4159  -28.8219   23.2950 O   0  0  0  0  0  0
  -28.3426  -26.4772   20.0030 O   0  0  0  0  0  0
  -26.5600  -34.8943   22.4619 O   0  0  0  0  0  0
  -23.5426  -32.1338   23.7308 O   0  0  0  0  0  0
  -28.9754  -19.5089   19.9432 C   0  0  0  0  0  0
  -30.5207  -19.7068   21.7524 C   0  0  0  0  0  0
  -30.0186  -17.4176   20.8624 C   0  0  0  0  0  0
  -29.1820  -18.0911   19.9111 C   0  0  0  0  0  0
  -30.7606  -18.2958   21.7231 C   0  0  0  0  0  0
  -29.5760  -20.3519   20.9095 C   0  0  0  0  0  0
  -28.4944  -24.0830   21.1873 C   0  0  0  0  0  0
  -29.2460  -22.9854   20.7592 C   0  0  0  0  0  0
  -27.3298  -23.7981   22.0819 C   0  0  0  0  0  0
  -29.8216  -15.9178   21.2239 C   0  0  0  0  0  0
  -26.9361  -22.3375   22.3050 C   0  0  0  0  0  0
  -28.1967  -21.4940   22.4362 C   0  0  0  0  0  0
  -28.3826  -17.3083   18.8856 C   0  0  0  0  0  0
  -31.7629  -17.7331   22.7261 C   0  0  0  0  0  0
  -29.9861  -23.5525   18.3975 C   0  0  0  0  0  0
  -28.8389  -25.6316   21.0946 C   0  0  0  0  0  0
  -30.4314  -23.1292   19.8060 C   0  0  0  0  0  0
  -28.9577  -15.7478   22.1344 N   0  0  0  0  0  0
  -29.0146  -21.6407   21.2316 N   0  0  0  0  0  0
  -26.6762  -24.6627   22.6703 O   0  0  0  0  0  0
  -31.4837  -12.6091   19.1387 H   0  0  0  0  0  0
  -30.4398  -11.4431   19.8740 H   0  0  0  0  0  0
  -29.7830  -11.8110   17.4830 H   0  0  0  0  0  0
  -29.6451  -13.5294   17.7622 H   0  0  0  0  0  0
  -27.8522  -11.3213   18.8216 H   0  0  0  0  0  0
  -27.3804  -12.6476   17.7938 H   0  0  0  0  0  0
  -27.6945  -14.2558   19.5952 H   0  0  0  0  0  0
  -28.7601  -11.9292   21.2421 H   0  0  0  0  0  0
  -28.4184  -13.4396   21.9383 H   0  0  0  0  0  0
  -25.2747   -9.5696   22.4755 H   0  0  0  0  0  0
  -23.9971   -7.4665   22.7512 H   0  0  0  0  0  0
  -21.0795   -8.8814   19.8996 H   0  0  0  0  0  0
  -22.3678  -10.9686   19.6165 H   0  0  0  0  0  0
  -21.2062   -7.6133   23.9689 H   0  0  0  0  0  0
  -21.1477   -6.0513   25.9066 H   0  0  0  0  0  0
  -22.0589   -2.7572   23.2857 H   0  0  0  0  0  0
  -22.4021  -12.0000   22.4896 H   0  0  0  0  0  0
  -21.1068  -13.1382   22.2539 H   0  0  0  0  0  0
  -24.6559  -15.8443   20.5474 H   0  0  0  0  0  0
  -26.3049  -15.6423   20.2275 H   0  0  0  0  0  0
  -26.7172  -32.5431   23.0972 H   0  0  0  0  0  0
  -25.0110  -33.9607   25.0386 H   0  0  0  0  0  0
  -22.7158  -31.3028   21.3842 H   0  0  0  0  0  0
  -23.3710  -35.9660   23.3287 H   0  0  0  0  0  0
  -24.3557  -36.8919   22.2039 H   0  0  0  0  0  0
  -23.7303  -37.6520   23.6659 H   0  0  0  0  0  0
  -26.0729  -31.5438   20.5940 H   0  0  0  0  0  0
  -26.8392  -30.8445   21.9928 H   0  0  0  0  0  0
  -28.1083  -28.9764   21.2310 H   0  0  0  0  0  0
  -26.0502  -25.9339   18.9781 H   0  0  0  0  0  0
  -24.0022  -27.3006   18.9808 H   0  0  0  0  0  0
  -23.7579  -30.5739   19.3887 H   0  0  0  0  0  0
  -22.7598  -29.2308   19.8545 H   0  0  0  0  0  0
  -25.1307  -36.1834   25.0802 H   0  0  0  0  0  0
  -20.9997  -28.3300   24.1347 H   0  0  0  0  0  0
  -20.5615  -26.2338   23.3579 H   0  0  0  0  0  0
  -21.6648  -26.7440   22.1213 H   0  0  0  0  0  0
  -19.6938  -25.6299   21.1210 H   0  0  0  0  0  0
  -19.6681  -27.3171   20.6671 H   0  0  0  0  0  0
  -17.4203  -26.6663   21.4015 H   0  0  0  0  0  0
  -18.0401  -26.0019   22.8962 H   0  0  0  0  0  0
  -19.7971  -30.7269   24.2207 H   0  0  0  0  0  0
  -17.5072  -31.6260   24.5158 H   0  0  0  0  0  0
  -15.5381  -30.3017   23.7656 H   0  0  0  0  0  0
  -15.8686  -28.0811   22.7131 H   0  0  0  0  0  0
  -24.5989  -30.6983   25.7770 H   0  0  0  0  0  0
  -24.8945  -32.2869   26.4734 H   0  0  0  0  0  0
  -25.8169  -30.8973   27.0176 H   0  0  0  0  0  0
  -26.2833  -29.6675   24.1173 H   0  0  0  0  0  0
  -27.4079  -29.7207   25.4538 H   0  0  0  0  0  0
  -27.8695  -30.4138   23.9196 H   0  0  0  0  0  0
  -27.2572  -33.3592   26.1936 H   0  0  0  0  0  0
  -28.3930  -32.6769   25.0358 H   0  0  0  0  0  0
  -28.0574  -31.8430   26.5456 H   0  0  0  0  0  0
  -28.2570  -38.0101   24.7494 H   0  0  0  0  0  0
  -28.1065  -36.2618   24.6286 H   0  0  0  0  0  0
  -27.2265  -37.1474   25.8861 H   0  0  0  0  0  0
  -20.9277  -29.8731   21.6770 H   0  0  0  0  0  0
  -26.0108  -38.2829   24.1464 H   0  0  0  0  0  0
  -28.2437  -19.9461   19.2816 H   0  0  0  0  0  0
  -31.0083  -20.2910   22.5201 H   0  0  0  0  0  0
  -26.3387  -21.9795   21.4653 H   0  0  0  0  0  0
  -26.3269  -22.2595   23.2050 H   0  0  0  0  0  0
  -27.9261  -20.4558   22.6415 H   0  0  0  0  0  0
  -28.7764  -21.8361   23.2979 H   0  0  0  0  0  0
  -27.6251  -17.9305   18.4079 H   0  0  0  0  0  0
  -27.8559  -16.4769   19.3468 H   0  0  0  0  0  0
  -29.0407  -16.9302   18.1037 H   0  0  0  0  0  0
  -31.2459  -17.2445   23.5530 H   0  0  0  0  0  0
  -32.4050  -18.5097   23.1440 H   0  0  0  0  0  0
  -32.4266  -17.0068   22.2531 H   0  0  0  0  0  0
  -30.8200  -23.5376   17.6983 H   0  0  0  0  0  0
  -29.5808  -24.5652   18.3907 H   0  0  0  0  0  0
  -29.2225  -22.8819   18.0039 H   0  0  0  0  0  0
  -29.9244  -25.7071   21.0427 H   0  0  0  0  0  0
  -28.5880  -26.1118   22.0433 H   0  0  0  0  0  0
  -30.9727  -22.1885   19.7035 H   0  0  0  0  0  0
  -31.1630  -23.8329   20.2031 H   0  0  0  0  0  0
  -28.5657  -16.6339   22.4337 H   0  0  0  0  0  0
  1 25  1  0  0  0
  1 30  2  0  0  0
  1 80  1  0  0  0
  2  3  1  0  0  0
  2 25  1  0  0  0
  2 91  1  0  0  0
  2 92  1  0  0  0
  3  4  1  0  0  0
  3 93  1  0  0  0
  3 94  1  0  0  0
  4  5  1  0  0  0
  4 95  1  0  0  0
  4 96  1  0  0  0
  5  6  1  0  0  0
  5 26  1  0  0  0
  5 97  1  0  0  0
  6 25  1  0  0  0
  6 98  1  0  0  0
  6 99  1  0  0  0
  7  8  2  0  0  0
  7 26  1  0  0  0
  7 29  1  0  0  0
  8  9  1  0  0  0
  8 22  1  0  0  0
  9 10  1  0  0  0
  9 27  2  0  0  0
 10 11  2  0  0  0
 10 15  1  0  0  0
 11 12  1  0  0  0
 11100  1  0  0  0
 12 13  2  0  0  0
 12101  1  0  0  0
 13 14  1  0  0  0
 13 31  1  0  0  0
 14 15  2  0  0  0
 14102  1  0  0  0
 15103  1  0  0  0
 16 17  2  0  0  0
 16 21  1  0  0  0
 16 31  1  0  0  0
 17 18  1  0  0  0
 17104  1  0  0  0
 18 19  2  0  0  0
 18105  1  0  0  0
 19 20  1  0  0  0
 19 24  1  0  0  0
 20 21  2  0  0  0
 20106  1  0  0  0
 21 23  1  0  0  0
 22 28  1  0  0  0
 22 32  2  0  0  0
 26 27  1  0  0  0
 28107  1  0  0  0
 28108  1  0  0  0
 29109  1  0  0  0
 29110  1  0  0  0
 33 34  1  0  0  0
 33 66  1  0  0  0
 33 70  2  0  0  0
 34 36  1  0  0  0
 34 59  1  0  0  0
 34111  1  0  0  0
 35 44  2  0  0  0
 35 45  1  0  0  0
 35 68  1  0  0  0
 36 56  1  0  0  0
 36112  1  0  0  0
 37 39  1  0  0  0
 37 47  1  0  0  0
 37 66  1  0  0  0
 37113  1  0  0  0
 38 43  2  0  0  0
 38 46  1  0  0  0
 38 47  1  0  0  0
 39 64  1  0  0  0
 39 67  2  0  0  0
 40 52  1  0  0  0
 40 53  2  0  0  0
 40 58  1  0  0  0
 41114  1  0  0  0
 41115  1  0  0  0
 41116  1  0  0  0
 41 48  1  0  0  0
 42 43  1  0  0  0
 42 66  1  0  0  0
 42117  1  0  0  0
 42118  1  0  0  0
 43 44  1  0  0  0
 44119  1  0  0  0
 45 46  2  0  0  0
 45120  1  0  0  0
 46121  1  0  0  0
 47122  1  0  0  0
 47123  1  0  0  0
 48 56  1  0  0  0
 48 65  1  0  0  0
 48124  1  0  0  0
 49 50  1  0  0  0
 49 53  1  0  0  0
 49 64  1  0  0  0
 49125  1  0  0  0
 50 51  1  0  0  0
 50126  1  0  0  0
 50127  1  0  0  0
 51 52  1  0  0  0
 51128  1  0  0  0
 51129  1  0  0  0
 52130  1  0  0  0
 52131  1  0  0  0
 53 54  1  0  0  0
 54 55  2  0  0  0
 54132  1  0  0  0
 55 57  1  0  0  0
 55133  1  0  0  0
 56 69  2  0  0  0
 57 58  2  0  0  0
 57134  1  0  0  0
 58135  1  0  0  0
 59 60  1  0  0  0
 59 61  1  0  0  0
 59 62  1  0  0  0
 60136  1  0  0  0
 60137  1  0  0  0
 60138  1  0  0  0
 61139  1  0  0  0
 61140  1  0  0  0
 61141  1  0  0  0
 62142  1  0  0  0
 62143  1  0  0  0
 62144  1  0  0  0
 63 65  1  0  0  0
 63145  1  0  0  0
 63146  1  0  0  0
 63147  1  0  0  0
 64148  1  0  0  0
 65149  1  0  0  0
 68 86  1  0  0  0
 71 74  2  0  0  0
 71 76  1  0  0  0
 71150  1  0  0  0
 72 75  1  0  0  0
 72 76  2  0  0  0
 72151  1  0  0  0
 73 74  1  0  0  0
 73 75  2  0  0  0
 73 80  1  0  0  0
 74 83  1  0  0  0
 75 84  1  0  0  0
 76 89  1  0  0  0
 77 78  2  0  0  0
 77 79  1  0  0  0
 77 86  1  0  0  0
 78 87  1  0  0  0
 78 89  1  0  0  0
 79 81  1  0  0  0
 79 90  2  0  0  0
 80 88  2  0  0  0
 81 82  1  0  0  0
 81152  1  0  0  0
 81153  1  0  0  0
 82 89  1  0  0  0
 82154  1  0  0  0
 82155  1  0  0  0
 83156  1  0  0  0
 83157  1  0  0  0
 83158  1  0  0  0
 84159  1  0  0  0
 84160  1  0  0  0
 84161  1  0  0  0
 85 87  1  0  0  0
 85162  1  0  0  0
 85163  1  0  0  0
 85164  1  0  0  0
 86165  1  0  0  0
 86166  1  0  0  0
 87167  1  0  0  0
 87168  1  0  0  0
 88169  1  0  0  0
M  ISO  4   1 100  68 101  80 100  86 101
M  END
> <chiral flag>
0

> <version>
0

> <s_m_source_file>
/data/baiqing/PycharmProjects/Reinvent-master-3.2/result/LINK_invent/BTK/process_docking_weight1_custom_product_contain_oxygen_bond_distance_aromatic_linkinvent_7_9_3/rearranged_h_0109.sdf

> <i_m_source_file_index>
51

> <r_mmod_Potential_Energy-OPLS-2005>
399.387084960938

> <r_mmod_Stretch_Energy-OPLS-2005>
111.826141357422

> <r_mmod_Bend_Energy-OPLS-2005>
187.577011108398

> <r_mmod_Torsional_Energy-OPLS-2005>
286.636871337891

> <r_mmod_Improper_Torsional_Energy-OPLS-2005>
10.2935333251953

> <r_mmod_Van_der_Waal_Energy-OPLS-2005>
154.298294067383

> <r_mmod_Electrostatic_Energy-OPLS-2005>
-204.963516235352

> <r_mmod_Solvation_Energy-OPLS-2005>
-200.057769775391

> <b_mmod_Minimization_Converged-OPLS-2005>
0

> <r_mmod_RMS_Derivative-OPLS-2005>
5.52246713638306

$$$$
51
                    3D
 Structure written by MMmdl.
165174  0  0  1  0            999 V2000
  -30.7781  -14.3794   20.6885 C   0  0  0  0  0  0
  -30.4164  -12.3033   19.3980 C   0  0  0  0  0  0
  -29.4826  -12.5249   18.1946 C   0  0  0  0  0  0
  -28.0089  -12.3765   18.6141 C   0  0  0  0  0  0
  -27.6651  -13.2061   19.8783 C   0  0  2  0  0  0
  -28.7047  -12.9657   20.9952 C   0  0  0  0  0  0
  -25.2600  -13.8165   20.5683 C   0  0  0  0  0  0
  -24.1848  -13.0443   20.9170 C   0  0  0  0  0  0
  -24.6397  -11.6910   20.8730 C   0  0  0  0  0  0
  -23.9063  -10.4297   21.0404 C   0  0  0  0  0  0
  -24.3611   -9.4214   21.9188 C   0  0  0  0  0  0
  -23.6286   -8.2248   22.0757 C   0  0  0  0  0  0
  -22.4273   -8.0282   21.3543 C   0  0  0  0  0  0
  -21.9910   -9.0257   20.4645 C   0  0  0  0  0  0
  -22.7235  -10.2138   20.3054 C   0  0  0  0  0  0
  -21.6850   -6.0739   22.5279 C   0  0  0  0  0  0
  -21.4009   -6.5639   23.8215 C   0  0  0  0  0  0
  -21.3658   -5.6792   24.9176 C   0  0  0  0  0  0
  -21.6046   -4.3056   24.7226 C   0  0  0  0  0  0
  -21.8819   -3.8148   23.4346 C   0  0  0  0  0  0
  -21.9192   -4.6967   22.3402 C   0  0  0  0  0  0
  -22.7867  -13.5239   21.1836 C   0  0  0  0  0  0
  -22.1662   -4.2153   21.0980 F   0  0  0  0  0  0
  -21.5632   -3.4537   25.7738 F   0  0  0  0  0  0
  -30.0465  -13.2570   20.4553 N   0  0  0  0  0  0
  -26.3042  -12.9335   20.3383 N   0  0  0  0  0  0
  -25.9324  -11.6494   20.5764 N   0  0  0  0  0  0
  -22.0506  -12.8232   22.0386 N   0  0  0  0  0  0
  -25.4340  -15.1882   20.4101 N   0  0  0  0  0  0
  -31.8009  -14.6603   20.0565 O   0  0  0  0  0  0
  -21.6637   -6.8881   21.4242 O   0  0  0  0  0  0
  -22.3553  -14.5551   20.6689 O   0  0  0  0  0  0
  -24.6148  -31.8698   23.2134 C   0  0  0  0  0  0
  -25.9049  -32.4828   23.8418 C   0  0  1  0  0  0
  -27.2283  -27.4289   20.0789 C   0  0  0  0  0  0
  -25.5909  -33.8628   24.2341 N   0  0  0  0  0  0
  -23.4013  -30.4973   21.5552 C   0  0  2  0  0  0
  -24.8436  -28.9712   20.1135 C   0  0  0  0  0  0
  -22.7414  -29.4667   22.4996 C   0  0  0  0  0  0
  -18.0275  -28.1370   22.8494 C   0  0  0  0  0  0
  -24.1482  -36.7311   23.2636 C   0  0  0  0  0  0
  -25.9339  -30.8285   21.3728 C   0  0  0  0  0  0
  -26.0061  -29.4648   20.7172 C   0  0  0  0  0  0
  -27.1961  -28.6982   20.7060 C   0  0  0  0  0  0
  -26.0409  -26.9675   19.4540 C   0  0  0  0  0  0
  -24.8562  -27.7199   19.4829 C   0  0  0  0  0  0
  -23.6076  -29.8386   20.1670 C   0  0  0  0  0  0
  -25.4103  -36.3114   24.0335 C   0  0  1  0  0  0
  -20.5864  -28.3658   23.1315 C   0  0  2  0  0  0
  -20.6761  -26.9391   22.5419 C   0  0  0  0  0  0
  -19.5738  -26.6380   21.5210 C   0  0  0  0  0  0
  -18.1916  -26.7920   22.1618 C   0  0  0  0  0  0
  -19.1525  -28.8831   23.2901 C   0  0  0  0  0  0
  -18.9455  -30.1440   23.8906 C   0  0  0  0  0  0
  -17.6458  -30.6577   24.0567 C   0  0  0  0  0  0
  -25.9041  -34.9479   23.5136 C   0  0  0  0  0  0
  -16.5349  -29.9083   23.6325 C   0  0  0  0  0  0
  -16.7266  -28.6500   23.0345 C   0  0  0  0  0  0
  -26.4468  -31.6603   25.0747 C   0  0  0  0  0  0
  -25.3730  -31.3701   26.1491 C   0  0  0  0  0  0
  -27.0301  -30.3047   24.6127 C   0  0  0  0  0  0
  -27.6038  -32.4319   25.7516 C   0  0  0  0  0  0
  -27.5582  -37.1807   24.8460 C   0  0  0  0  0  0
  -21.4142  -29.3032   22.3728 N   0  0  0  0  0  0
  -26.4287  -37.3804   23.9413 N   0  0  0  0  0  0
  -24.6682  -31.0796   22.1045 N   0  0  0  0  0  0
  -23.4192  -28.8196   23.3023 O   0  0  0  0  0  0
  -28.4016  -26.6884   20.1079 O   0  0  0  0  0  0
  -26.5604  -34.8927   22.4697 O   0  0  0  0  0  0
  -23.5340  -32.1461   23.7522 O   0  0  0  0  0  0
  -31.6959  -18.2908   20.9796 C   0  0  0  0  0  0
  -31.4401  -19.6213   20.5901 C   0  0  0  0  0  0
  -29.6352  -18.2740   22.2641 C   0  0  0  0  0  0
  -30.8038  -17.6142   21.8344 C   0  0  0  0  0  0
  -29.3701  -19.6081   21.8773 C   0  0  0  0  0  0
  -30.2881  -20.3066   21.0446 C   0  0  0  0  0  0
  -29.2491  -23.8723   21.3283 C   0  0  0  0  0  0
  -29.5931  -23.2688   18.8855 C   0  0  0  0  0  0
  -30.1564  -22.6788   21.6905 C   0  0  0  0  0  0
  -30.4743  -22.0926   19.3397 C   0  0  0  0  0  0
  -29.5182  -24.4335   19.9072 C   0  0  0  0  0  0
  -28.0787  -20.2500   22.3633 C   0  0  0  0  0  0
  -31.1312  -16.2128   22.3376 C   0  0  0  0  0  0
  -28.3986  -25.4037   19.4658 C   0  0  0  0  0  0
  -30.0513  -21.6456   20.6624 N   0  0  0  0  0  0
  -30.3630  -15.1363   21.7125 N   0  0  0  0  0  0
  -31.4582  -12.4051   19.0889 H   0  0  0  0  0  0
  -30.3204  -11.2835   19.7735 H   0  0  0  0  0  0
  -29.7168  -11.8155   17.3997 H   0  0  0  0  0  0
  -29.6484  -13.5194   17.7776 H   0  0  0  0  0  0
  -27.8210  -11.3188   18.8017 H   0  0  0  0  0  0
  -27.3523  -12.6596   17.7904 H   0  0  0  0  0  0
  -27.7185  -14.2580   19.5959 H   0  0  0  0  0  0
  -28.6707  -11.9263   21.3253 H   0  0  0  0  0  0
  -28.4486  -13.5559   21.8753 H   0  0  0  0  0  0
  -25.2756   -9.5694   22.4765 H   0  0  0  0  0  0
  -23.9998   -7.4644   22.7481 H   0  0  0  0  0  0
  -21.0843   -8.8776   19.8948 H   0  0  0  0  0  0
  -22.3696  -10.9678   19.6164 H   0  0  0  0  0  0
  -21.1996   -7.6148   23.9718 H   0  0  0  0  0  0
  -21.1480   -6.0522   25.9079 H   0  0  0  0  0  0
  -22.0599   -2.7611   23.2844 H   0  0  0  0  0  0
  -22.4113  -11.9880   22.4761 H   0  0  0  0  0  0
  -21.1129  -13.1262   22.2594 H   0  0  0  0  0  0
  -24.6738  -15.8501   20.5236 H   0  0  0  0  0  0
  -26.2986  -15.6254   20.1149 H   0  0  0  0  0  0
  -26.7110  -32.5542   23.1174 H   0  0  0  0  0  0
  -25.0058  -33.9796   25.0484 H   0  0  0  0  0  0
  -22.6892  -31.3144   21.4223 H   0  0  0  0  0  0
  -23.3750  -35.9638   23.3297 H   0  0  0  0  0  0
  -24.3577  -36.8943   22.2053 H   0  0  0  0  0  0
  -23.7227  -37.6508   23.6661 H   0  0  0  0  0  0
  -26.0529  -31.5939   20.6046 H   0  0  0  0  0  0
  -26.8199  -30.8764   21.9939 H   0  0  0  0  0  0
  -28.0907  -29.0754   21.1816 H   0  0  0  0  0  0
  -25.9823  -26.0315   18.9219 H   0  0  0  0  0  0
  -23.9655  -27.3368   19.0036 H   0  0  0  0  0  0
  -23.7162  -30.6181   19.4119 H   0  0  0  0  0  0
  -22.7302  -29.2614   19.8688 H   0  0  0  0  0  0
  -25.1267  -36.1987   25.0829 H   0  0  0  0  0  0
  -20.9954  -28.3225   24.1435 H   0  0  0  0  0  0
  -20.5653  -26.2264   23.3604 H   0  0  0  0  0  0
  -21.6636  -26.7420   22.1224 H   0  0  0  0  0  0
  -19.6897  -25.6297   21.1225 H   0  0  0  0  0  0
  -19.6677  -27.3203   20.6751 H   0  0  0  0  0  0
  -17.4188  -26.6688   21.4015 H   0  0  0  0  0  0
  -18.0298  -26.0049   22.8996 H   0  0  0  0  0  0
  -19.7930  -30.7253   24.2279 H   0  0  0  0  0  0
  -17.5013  -31.6254   24.5175 H   0  0  0  0  0  0
  -15.5353  -30.2991   23.7636 H   0  0  0  0  0  0
  -15.8666  -28.0827   22.7045 H   0  0  0  0  0  0
  -24.5922  -30.7022   25.7835 H   0  0  0  0  0  0
  -24.8888  -32.2848   26.4917 H   0  0  0  0  0  0
  -25.8083  -30.8897   27.0266 H   0  0  0  0  0  0
  -26.2850  -29.6827   24.1149 H   0  0  0  0  0  0
  -27.4038  -29.7265   25.4589 H   0  0  0  0  0  0
  -27.8702  -30.4367   23.9304 H   0  0  0  0  0  0
  -27.2647  -33.3606   26.2115 H   0  0  0  0  0  0
  -28.3837  -32.6904   25.0341 H   0  0  0  0  0  0
  -28.0715  -31.8432   26.5421 H   0  0  0  0  0  0
  -28.2584  -38.0119   24.7536 H   0  0  0  0  0  0
  -28.1092  -36.2654   24.6244 H   0  0  0  0  0  0
  -27.2304  -37.1418   25.8863 H   0  0  0  0  0  0
  -20.9299  -29.8788   21.6982 H   0  0  0  0  0  0
  -26.0176  -38.2878   24.1439 H   0  0  0  0  0  0
  -32.5945  -17.7985   20.6344 H   0  0  0  0  0  0
  -32.1580  -20.1138   19.9501 H   0  0  0  0  0  0
  -28.9437  -17.7553   22.9140 H   0  0  0  0  0  0
  -29.3674  -24.6650   22.0685 H   0  0  0  0  0  0
  -28.2112  -23.5449   21.4038 H   0  0  0  0  0  0
  -28.5877  -22.8888   18.6975 H   0  0  0  0  0  0
  -29.9551  -23.6418   17.9259 H   0  0  0  0  0  0
  -29.8996  -22.2919   22.6769 H   0  0  0  0  0  0
  -31.1941  -23.0110   21.7557 H   0  0  0  0  0  0
  -31.5217  -22.3980   19.3713 H   0  0  0  0  0  0
  -30.4006  -21.2784   18.6164 H   0  0  0  0  0  0
  -30.4766  -24.9540   19.9043 H   0  0  0  0  0  0
  -27.3292  -19.4937   22.5972 H   0  0  0  0  0  0
  -27.6511  -20.9082   21.6069 H   0  0  0  0  0  0
  -28.2581  -20.8333   23.2659 H   0  0  0  0  0  0
  -30.9322  -16.1842   23.4098 H   0  0  0  0  0  0
  -32.2030  -16.0260   22.2417 H   0  0  0  0  0  0
  -27.4744  -24.8616   19.6606 H   0  0  0  0  0  0
  -28.4531  -25.5741   18.3894 H   0  0  0  0  0  0
  -29.5210  -14.8403   22.1825 H   0  0  0  0  0  0
  1 25  1  0  0  0
  1 30  2  0  0  0
  1 86  1  0  0  0
  2  3  1  0  0  0
  2 25  1  0  0  0
  2 87  1  0  0  0
  2 88  1  0  0  0
  3  4  1  0  0  0
  3 89  1  0  0  0
  3 90  1  0  0  0
  4  5  1  0  0  0
  4 91  1  0  0  0
  4 92  1  0  0  0
  5  6  1  0  0  0
  5 26  1  0  0  0
  5 93  1  0  0  0
  6 25  1  0  0  0
  6 94  1  0  0  0
  6 95  1  0  0  0
  7  8  2  0  0  0
  7 26  1  0  0  0
  7 29  1  0  0  0
  8  9  1  0  0  0
  8 22  1  0  0  0
  9 10  1  0  0  0
  9 27  2  0  0  0
 10 11  2  0  0  0
 10 15  1  0  0  0
 11 12  1  0  0  0
 11 96  1  0  0  0
 12 13  2  0  0  0
 12 97  1  0  0  0
 13 14  1  0  0  0
 13 31  1  0  0  0
 14 15  2  0  0  0
 14 98  1  0  0  0
 15 99  1  0  0  0
 16 17  2  0  0  0
 16 21  1  0  0  0
 16 31  1  0  0  0
 17 18  1  0  0  0
 17100  1  0  0  0
 18 19  2  0  0  0
 18101  1  0  0  0
 19 20  1  0  0  0
 19 24  1  0  0  0
 20 21  2  0  0  0
 20102  1  0  0  0
 21 23  1  0  0  0
 22 28  1  0  0  0
 22 32  2  0  0  0
 26 27  1  0  0  0
 28103  1  0  0  0
 28104  1  0  0  0
 29105  1  0  0  0
 29106  1  0  0  0
 33 34  1  0  0  0
 33 66  1  0  0  0
 33 70  2  0  0  0
 34 36  1  0  0  0
 34 59  1  0  0  0
 34107  1  0  0  0
 35 44  2  0  0  0
 35 45  1  0  0  0
 35 68  1  0  0  0
 36 56  1  0  0  0
 36108  1  0  0  0
 37 39  1  0  0  0
 37 47  1  0  0  0
 37 66  1  0  0  0
 37109  1  0  0  0
 38 43  2  0  0  0
 38 46  1  0  0  0
 38 47  1  0  0  0
 39 64  1  0  0  0
 39 67  2  0  0  0
 40 52  1  0  0  0
 40 53  2  0  0  0
 40 58  1  0  0  0
 41110  1  0  0  0
 41111  1  0  0  0
 41112  1  0  0  0
 41 48  1  0  0  0
 42 43  1  0  0  0
 42 66  1  0  0  0
 42113  1  0  0  0
 42114  1  0  0  0
 43 44  1  0  0  0
 44115  1  0  0  0
 45 46  2  0  0  0
 45116  1  0  0  0
 46117  1  0  0  0
 47118  1  0  0  0
 47119  1  0  0  0
 48 56  1  0  0  0
 48 65  1  0  0  0
 48120  1  0  0  0
 49 50  1  0  0  0
 49 53  1  0  0  0
 49 64  1  0  0  0
 49121  1  0  0  0
 50 51  1  0  0  0
 50122  1  0  0  0
 50123  1  0  0  0
 51 52  1  0  0  0
 51124  1  0  0  0
 51125  1  0  0  0
 52126  1  0  0  0
 52127  1  0  0  0
 53 54  1  0  0  0
 54 55  2  0  0  0
 54128  1  0  0  0
 55 57  1  0  0  0
 55129  1  0  0  0
 56 69  2  0  0  0
 57 58  2  0  0  0
 57130  1  0  0  0
 58131  1  0  0  0
 59 60  1  0  0  0
 59 61  1  0  0  0
 59 62  1  0  0  0
 60132  1  0  0  0
 60133  1  0  0  0
 60134  1  0  0  0
 61135  1  0  0  0
 61136  1  0  0  0
 61137  1  0  0  0
 62138  1  0  0  0
 62139  1  0  0  0
 62140  1  0  0  0
 63 65  1  0  0  0
 63141  1  0  0  0
 63142  1  0  0  0
 63143  1  0  0  0
 64144  1  0  0  0
 65145  1  0  0  0
 68 84  1  0  0  0
 71 72  2  0  0  0
 71 74  1  0  0  0
 71146  1  0  0  0
 72 76  1  0  0  0
 72147  1  0  0  0
 73 74  2  0  0  0
 73 75  1  0  0  0
 73148  1  0  0  0
 74 83  1  0  0  0
 75 76  2  0  0  0
 75 82  1  0  0  0
 76 85  1  0  0  0
 77 79  1  0  0  0
 77 81  1  0  0  0
 77149  1  0  0  0
 77150  1  0  0  0
 78 80  1  0  0  0
 78 81  1  0  0  0
 78151  1  0  0  0
 78152  1  0  0  0
 79 85  1  0  0  0
 79153  1  0  0  0
 79154  1  0  0  0
 80 85  1  0  0  0
 80155  1  0  0  0
 80156  1  0  0  0
 81 84  1  0  0  0
 81157  1  0  0  0
 82158  1  0  0  0
 82159  1  0  0  0
 82160  1  0  0  0
 83 86  1  0  0  0
 83161  1  0  0  0
 83162  1  0  0  0
 84163  1  0  0  0
 84164  1  0  0  0
 86165  1  0  0  0
M  ISO  4   1 100  68 101  84 101  86 100
M  END
> <chiral flag>
0

> <version>
0

> <s_m_source_file>
/data/baiqing/PycharmProjects/Reinvent-master-3.2/result/LINK_invent/BTK/process_docking_weight1_custom_product_contain_oxygen_bond_distance_aromatic_linkinvent_7_9_3/rearranged_h_0109.sdf

> <i_m_source_file_index>
52

> <r_mmod_Potential_Energy-OPLS-2005>
-106.324417114258

> <r_mmod_Stretch_Energy-OPLS-2005>
37.4228477478027

> <r_mmod_Bend_Energy-OPLS-2005>
106.024375915527

> <r_mmod_Torsional_Energy-OPLS-2005>
232.846786499023

> <r_mmod_Improper_Torsional_Energy-OPLS-2005>
5.08602523803711

> <r_mmod_Van_der_Waal_Energy-OPLS-2005>
168.969924926758

> <r_mmod_Electrostatic_Energy-OPLS-2005>
-451.771057128906

> <r_mmod_Solvation_Energy-OPLS-2005>
-214.969451904297

> <b_mmod_Minimization_Converged-OPLS-2005>
0

> <r_mmod_RMS_Derivative-OPLS-2005>
0.767343938350677

$$$$
52
                    3D
 Structure written by MMmdl.
159167  0  0  1  0            999 V2000
  -30.5465  -14.0562   21.0981 C   0  0  0  0  0  0
  -30.6907  -12.6979   18.9541 C   0  0  0  0  0  0
  -29.5800  -13.0023   17.8768 C   0  0  0  0  0  0
  -28.0490  -13.0439   18.3135 C   0  0  0  0  0  0
  -27.6837  -13.6020   19.8367 C   0  0  2  0  0  0
  -28.9518  -12.5286   20.3015 C   0  0  0  0  0  0
  -26.3105  -14.1508   20.1062 C   0  0  0  0  0  0
  -24.6843  -13.5396   20.9666 C   0  0  0  0  0  0
  -24.3708  -12.0619   21.1005 C   0  0  0  0  0  0
  -23.6819  -10.7030   21.2136 C   0  0  0  0  0  0
  -24.2196   -9.6415   22.0095 C   0  0  0  0  0  0
  -23.6071   -8.3621   22.0895 C   0  0  0  0  0  0
  -22.4319   -8.0957   21.3517 C   0  0  0  0  0  0
  -21.9726   -9.0888   20.4640 C   0  0  0  0  0  0
  -22.5973  -10.3559   20.3797 C   0  0  0  0  0  0
  -21.7162   -6.0946   22.5132 C   0  0  0  0  0  0
  -21.4229   -6.5810   23.8080 C   0  0  0  0  0  0
  -21.3724   -5.6937   24.9044 C   0  0  0  0  0  0
  -21.6029   -4.3180   24.7122 C   0  0  0  0  0  0
  -21.8775   -3.8273   23.4242 C   0  0  0  0  0  0
  -21.9284   -4.7112   22.3307 C   0  0  0  0  0  0
  -23.0451  -13.9571   21.2072 C   0  0  0  0  0  0
  -22.1722   -4.2234   21.0908 F   0  0  0  0  0  0
  -21.5572   -3.4656   25.7639 F   0  0  0  0  0  0
  -30.1936  -13.0963   20.2505 N   0  0  0  0  0  0
  -25.5191  -13.5107   20.8268 N   0  0  0  0  0  0
  -25.0963  -12.4648   21.9363 N   0  0  0  0  0  0
  -22.2651  -13.2410   22.0567 N   0  0  0  0  0  0
  -26.7290  -15.4773   19.1381 N   0  0  0  0  0  0
  -31.5117  -14.7688   20.7560 O   0  0  0  0  0  0
  -21.7261   -6.9089   21.4012 O   0  0  0  0  0  0
  -22.4331  -14.8503   20.6328 O   0  0  0  0  0  0
  -24.6974  -31.7841   23.1527 C   0  0  0  0  0  0
  -25.9535  -32.4340   23.8032 C   0  0  1  0  0  0
  -26.7148  -26.3771   20.3037 C   0  0  0  0  0  0
  -25.6070  -33.8196   24.1858 N   0  0  0  0  0  0
  -23.5035  -30.4211   21.5143 C   0  0  2  0  0  0
  -24.8725  -28.7484   20.0790 C   0  0  0  0  0  0
  -22.7725  -29.4303   22.4620 C   0  0  0  0  0  0
  -18.0347  -28.1417   22.8455 C   0  0  0  0  0  0
  -24.1503  -36.7102   23.2646 C   0  0  0  0  0  0
  -26.0858  -30.3953   21.4637 C   0  0  0  0  0  0
  -26.0494  -28.9487   20.8034 C   0  0  0  0  0  0
  -26.9873  -27.7748   20.8906 C   0  0  0  0  0  0
  -25.6537  -26.4963   19.4062 C   0  0  0  0  0  0
  -24.7467  -27.5751   19.3300 C   0  0  0  0  0  0
  -23.7400  -29.7753   20.1241 C   0  0  0  0  0  0
  -25.4159  -36.2825   24.0264 C   0  0  1  0  0  0
  -20.5973  -28.3784   23.1094 C   0  0  2  0  0  0
  -20.6800  -26.9429   22.5384 C   0  0  0  0  0  0
  -19.5765  -26.6359   21.5208 C   0  0  0  0  0  0
  -18.1958  -26.7949   22.1620 C   0  0  0  0  0  0
  -19.1610  -28.8929   23.2768 C   0  0  0  0  0  0
  -18.9514  -30.1510   23.8826 C   0  0  0  0  0  0
  -17.6497  -30.6593   24.0558 C   0  0  0  0  0  0
  -25.9167  -34.9222   23.4897 C   0  0  0  0  0  0
  -16.5390  -29.9071   23.6347 C   0  0  0  0  0  0
  -16.7328  -28.6494   23.0368 C   0  0  0  0  0  0
  -26.4640  -31.6494   25.0761 C   0  0  0  0  0  0
  -25.3630  -31.3890   26.1329 C   0  0  0  0  0  0
  -27.0615  -30.2796   24.6889 C   0  0  0  0  0  0
  -27.6067  -32.4426   25.7544 C   0  0  0  0  0  0
  -27.5570  -37.1704   24.8455 C   0  0  0  0  0  0
  -21.4378  -29.3018   22.3378 N   0  0  0  0  0  0
  -26.4259  -37.3617   23.9418 N   0  0  0  0  0  0
  -24.7933  -30.9122   22.0897 N   0  0  0  0  0  0
  -23.4150  -28.7837   23.2936 O   0  0  0  0  0  0
  -27.1935  -24.8761   20.4773 O   0  0  0  0  0  0
  -26.5822  -34.8830   22.4526 O   0  0  0  0  0  0
  -23.5999  -32.1071   23.6419 O   0  0  0  0  0  0
  -26.4091  -15.1907   22.1097 C   0  0  0  0  0  0
  -24.4798  -14.6568   18.9529 C   0  0  0  0  0  0
  -27.3131  -13.2666   22.0770 C   0  0  0  0  0  0
  -25.3239  -12.6175   18.7656 C   0  0  0  0  0  0
  -26.6450  -11.7091   20.3222 C   0  0  0  0  0  0
  -25.0736  -15.9851   20.6948 C   0  0  0  0  0  0
  -28.6755  -13.4427   22.8736 C   0  0  0  0  0  0
  -25.2549  -19.4193   20.4924 C   0  0  0  0  0  0
  -24.8848  -11.7676   17.5940 C   0  0  0  0  0  0
  -27.0041  -10.2224   20.2656 C   0  0  0  0  0  0
  -26.2952  -21.1162   20.5851 C   0  0  0  0  0  0
  -26.3491  -23.1996   20.3287 C   0  0  0  0  0  0
  -24.9910  -17.7950   20.5223 N   0  0  0  0  0  0
  -29.8362  -14.0542   22.3203 N   0  0  0  0  0  0
  -28.6444  -13.2204   24.0857 O   0  0  0  0  0  0
  -24.1107  -19.8274   20.2789 O   0  0  0  0  0  0
  -31.6109  -13.2305   18.7058 H   0  0  0  0  0  0
  -30.9648  -11.6402   18.9587 H   0  0  0  0  0  0
  -29.7059  -12.3422   17.0170 H   0  0  0  0  0  0
  -29.8048  -13.9971   17.4903 H   0  0  0  0  0  0
  -27.6799  -12.0400   18.1055 H   0  0  0  0  0  0
  -27.5341  -13.6414   17.5606 H   0  0  0  0  0  0
  -28.3640  -14.4570   20.1264 H   0  0  0  0  0  0
  -28.9821  -11.5929   19.7360 H   0  0  0  0  0  0
  -28.9430  -11.8539   21.1558 H   0  0  0  0  0  0
  -25.1060   -9.8327   22.5982 H   0  0  0  0  0  0
  -24.0328   -7.6090   22.7379 H   0  0  0  0  0  0
  -21.1101   -8.8851   19.8449 H   0  0  0  0  0  0
  -22.2057  -11.0925   19.6920 H   0  0  0  0  0  0
  -21.2330   -7.6335   23.9617 H   0  0  0  0  0  0
  -21.1547   -6.0685   25.8942 H   0  0  0  0  0  0
  -22.0443   -2.7722   23.2721 H   0  0  0  0  0  0
  -22.6750  -12.5034   22.6130 H   0  0  0  0  0  0
  -21.2934  -13.4827   22.1846 H   0  0  0  0  0  0
  -26.0404  -16.1621   18.8532 H   0  0  0  0  0  0
  -27.6119  -15.5735   18.6555 H   0  0  0  0  0  0
  -26.7587  -32.4651   23.0687 H   0  0  0  0  0  0
  -25.0131  -33.9215   24.9955 H   0  0  0  0  0  0
  -22.8398  -31.2745   21.3573 H   0  0  0  0  0  0
  -23.3801  -35.9390   23.3201 H   0  0  0  0  0  0
  -24.3578  -36.8889   22.2084 H   0  0  0  0  0  0
  -23.7216  -37.6224   23.6808 H   0  0  0  0  0  0
  -26.3583  -31.0935   20.6722 H   0  0  0  0  0  0
  -26.9275  -30.4134   22.1427 H   0  0  0  0  0  0
  -27.8394  -27.8749   21.5475 H   0  0  0  0  0  0
  -25.3896  -25.6152   18.8398 H   0  0  0  0  0  0
  -23.8783  -27.4490   18.6971 H   0  0  0  0  0  0
  -23.9781  -30.5564   19.4011 H   0  0  0  0  0  0
  -22.8170  -29.3174   19.7663 H   0  0  0  0  0  0
  -25.1362  -36.1563   25.0754 H   0  0  0  0  0  0
  -21.0108  -28.3463   24.1196 H   0  0  0  0  0  0
  -20.5660  -26.2419   23.3667 H   0  0  0  0  0  0
  -21.6656  -26.7355   22.1185 H   0  0  0  0  0  0
  -19.6893  -25.6247   21.1284 H   0  0  0  0  0  0
  -19.6702  -27.3138   20.6712 H   0  0  0  0  0  0
  -17.4215  -26.6722   21.4032 H   0  0  0  0  0  0
  -18.0332  -26.0119   22.9041 H   0  0  0  0  0  0
  -19.7995  -30.7354   24.2151 H   0  0  0  0  0  0
  -17.5048  -31.6269   24.5172 H   0  0  0  0  0  0
  -15.5385  -30.2941   23.7710 H   0  0  0  0  0  0
  -15.8741  -28.0790   22.7096 H   0  0  0  0  0  0
  -24.5853  -30.7200   25.7611 H   0  0  0  0  0  0
  -24.8781  -32.3140   26.4464 H   0  0  0  0  0  0
  -25.7736  -30.9230   27.0296 H   0  0  0  0  0  0
  -26.3342  -29.6274   24.2044 H   0  0  0  0  0  0
  -27.4053  -29.7429   25.5741 H   0  0  0  0  0  0
  -27.9345  -30.3843   24.0443 H   0  0  0  0  0  0
  -27.2596  -33.3835   26.1827 H   0  0  0  0  0  0
  -28.3998  -32.6819   25.0441 H   0  0  0  0  0  0
  -28.0611  -31.8772   26.5689 H   0  0  0  0  0  0
  -28.2489  -38.0090   24.7581 H   0  0  0  0  0  0
  -28.1167  -36.2619   24.6182 H   0  0  0  0  0  0
  -27.2308  -37.1215   25.8858 H   0  0  0  0  0  0
  -20.9644  -29.8770   21.6554 H   0  0  0  0  0  0
  -26.0066  -38.2649   24.1458 H   0  0  0  0  0  0
  -26.8270  -15.8942   22.8148 H   0  0  0  0  0  0
  -23.8708  -15.0555   18.1543 H   0  0  0  0  0  0
  -23.8243  -11.9163   17.3951 H   0  0  0  0  0  0
  -25.0493  -10.7106   17.8031 H   0  0  0  0  0  0
  -25.4425  -12.0372   16.6977 H   0  0  0  0  0  0
  -27.4547   -9.8943   21.2018 H   0  0  0  0  0  0
  -27.6736   -9.9770   19.4436 H   0  0  0  0  0  0
  -26.1065   -9.6306   20.0978 H   0  0  0  0  0  0
  -25.7458  -21.2883   21.5121 H   0  0  0  0  0  0
  -25.8383  -21.1843   19.5992 H   0  0  0  0  0  0
  -25.3900  -23.4639   20.7759 H   0  0  0  0  0  0
  -26.1385  -23.2634   19.2599 H   0  0  0  0  0  0
  -24.0393  -17.8940   20.1954 H   0  0  0  0  0  0
  -30.3602  -14.5410   23.0284 H   0  0  0  0  0  0
  1 25  1  0  0  0
  1 30  2  0  0  0
  1 84  1  0  0  0
  2  3  1  0  0  0
  2 25  1  0  0  0
  2 87  1  0  0  0
  2 88  1  0  0  0
  3  4  1  0  0  0
  3 89  1  0  0  0
  3 90  1  0  0  0
  4  5  1  0  0  0
  4 91  1  0  0  0
  4 92  1  0  0  0
  5  6  1  0  0  0
  5 26  1  0  0  0
  5 93  1  0  0  0
  6 25  1  0  0  0
  6 94  1  0  0  0
  6 95  1  0  0  0
  7  8  2  0  0  0
  7 26  1  0  0  0
  7 29  1  0  0  0
  8  9  1  0  0  0
  8 22  1  0  0  0
  9 10  1  0  0  0
  9 27  2  0  0  0
 10 11  2  0  0  0
 10 15  1  0  0  0
 11 12  1  0  0  0
 11 96  1  0  0  0
 12 13  2  0  0  0
 12 97  1  0  0  0
 13 14  1  0  0  0
 13 31  1  0  0  0
 14 15  2  0  0  0
 14 98  1  0  0  0
 15 99  1  0  0  0
 16 17  2  0  0  0
 16 21  1  0  0  0
 16 31  1  0  0  0
 17 18  1  0  0  0
 17100  1  0  0  0
 18 19  2  0  0  0
 18101  1  0  0  0
 19 20  1  0  0  0
 19 24  1  0  0  0
 20 21  2  0  0  0
 20102  1  0  0  0
 21 23  1  0  0  0
 22 28  1  0  0  0
 22 32  2  0  0  0
 26 27  1  0  0  0
 28103  1  0  0  0
 28104  1  0  0  0
 29105  1  0  0  0
 29106  1  0  0  0
 33 34  1  0  0  0
 33 66  1  0  0  0
 33 70  2  0  0  0
 34 36  1  0  0  0
 34 59  1  0  0  0
 34107  1  0  0  0
 35 44  2  0  0  0
 35 45  1  0  0  0
 35 68  1  0  0  0
 36 56  1  0  0  0
 36108  1  0  0  0
 37 39  1  0  0  0
 37 47  1  0  0  0
 37 66  1  0  0  0
 37109  1  0  0  0
 38 43  2  0  0  0
 38 46  1  0  0  0
 38 47  1  0  0  0
 39 64  1  0  0  0
 39 67  2  0  0  0
 40 52  1  0  0  0
 40 53  2  0  0  0
 40 58  1  0  0  0
 41110  1  0  0  0
 41111  1  0  0  0
 41112  1  0  0  0
 41 48  1  0  0  0
 42 43  1  0  0  0
 42 66  1  0  0  0
 42113  1  0  0  0
 42114  1  0  0  0
 43 44  1  0  0  0
 44115  1  0  0  0
 45 46  2  0  0  0
 45116  1  0  0  0
 46117  1  0  0  0
 47118  1  0  0  0
 47119  1  0  0  0
 48 56  1  0  0  0
 48 65  1  0  0  0
 48120  1  0  0  0
 49 50  1  0  0  0
 49 53  1  0  0  0
 49 64  1  0  0  0
 49121  1  0  0  0
 50 51  1  0  0  0
 50122  1  0  0  0
 50123  1  0  0  0
 51 52  1  0  0  0
 51124  1  0  0  0
 51125  1  0  0  0
 52126  1  0  0  0
 52127  1  0  0  0
 53 54  1  0  0  0
 54 55  2  0  0  0
 54128  1  0  0  0
 55 57  1  0  0  0
 55129  1  0  0  0
 56 69  2  0  0  0
 57 58  2  0  0  0
 57130  1  0  0  0
 58131  1  0  0  0
 59 60  1  0  0  0
 59 61  1  0  0  0
 59 62  1  0  0  0
 60132  1  0  0  0
 60133  1  0  0  0
 60134  1  0  0  0
 61135  1  0  0  0
 61136  1  0  0  0
 61137  1  0  0  0
 62138  1  0  0  0
 62139  1  0  0  0
 62140  1  0  0  0
 63 65  1  0  0  0
 63141  1  0  0  0
 63142  1  0  0  0
 63143  1  0  0  0
 64144  1  0  0  0
 65145  1  0  0  0
 68 82  1  0  0  0
 71 73  2  0  0  0
 71 76  1  0  0  0
 71146  1  0  0  0
 72 74  1  0  0  0
 72 76  2  0  0  0
 72147  1  0  0  0
 73 75  1  0  0  0
 73 77  1  0  0  0
 74 75  2  0  0  0
 74 79  1  0  0  0
 75 80  1  0  0  0
 76 83  1  0  0  0
 77 84  1  0  0  0
 77 85  2  0  0  0
 78 81  1  0  0  0
 78 83  1  0  0  0
 78 86  2  0  0  0
 79148  1  0  0  0
 79149  1  0  0  0
 79150  1  0  0  0
 80151  1  0  0  0
 80152  1  0  0  0
 80153  1  0  0  0
 81 82  1  0  0  0
 81154  1  0  0  0
 81155  1  0  0  0
 82156  1  0  0  0
 82157  1  0  0  0
 83158  1  0  0  0
 84159  1  0  0  0
M  ISO  4   1 100  68 101  82 101  84 100
M  END
> <chiral flag>
0

> <version>
0

> <s_m_source_file>
/data/baiqing/PycharmProjects/Reinvent-master-3.2/result/LINK_invent/BTK/process_docking_weight1_custom_product_contain_oxygen_bond_distance_aromatic_linkinvent_7_9_3/rearranged_h_0109.sdf

> <i_m_source_file_index>
53

> <r_mmod_Potential_Energy-OPLS-2005>
22832.896484375

> <r_mmod_Stretch_Energy-OPLS-2005>
12376.8720703125

> <r_mmod_Bend_Energy-OPLS-2005>
3572.66162109375

> <r_mmod_Torsional_Energy-OPLS-2005>
518.602111816406

> <r_mmod_Improper_Torsional_Energy-OPLS-2005>
34.110050201416

> <r_mmod_Van_der_Waal_Energy-OPLS-2005>
4764.20068359375

> <r_mmod_Electrostatic_Energy-OPLS-2005>
-540.442016601562

> <r_mmod_Solvation_Energy-OPLS-2005>
-210.46076965332

> <b_mmod_Minimization_Converged-OPLS-2005>
0

> <r_mmod_RMS_Derivative-OPLS-2005>
2.93011164665222

$$$$
53
                    3D
 Structure written by MMmdl.
173183  0  0  1  0            999 V2000
  -30.6726  -14.7309   20.4302 C   0  0  0  0  0  0
  -30.4342  -12.4722   19.4563 C   0  0  0  0  0  0
  -29.4967  -12.4742   18.2365 C   0  0  0  0  0  0
  -28.0329  -12.3025   18.6841 C   0  0  0  0  0  0
  -27.6397  -13.2379   19.8604 C   0  0  2  0  0  0
  -28.6980  -13.2411   20.9806 C   0  0  0  0  0  0
  -25.2543  -13.8234   20.5822 C   0  0  0  0  0  0
  -24.1796  -13.0446   20.9246 C   0  0  0  0  0  0
  -24.6426  -11.6942   20.8814 C   0  0  0  0  0  0
  -23.9123  -10.4306   21.0433 C   0  0  0  0  0  0
  -24.3674   -9.4202   21.9188 C   0  0  0  0  0  0
  -23.6326   -8.2241   22.0735 C   0  0  0  0  0  0
  -22.4309   -8.0309   21.3519 C   0  0  0  0  0  0
  -21.9968   -9.0304   20.4620 C   0  0  0  0  0  0
  -22.7318  -10.2165   20.3057 C   0  0  0  0  0  0
  -21.6864   -6.0745   22.5246 C   0  0  0  0  0  0
  -21.4008   -6.5625   23.8186 C   0  0  0  0  0  0
  -21.3667   -5.6772   24.9141 C   0  0  0  0  0  0
  -21.6066   -4.3045   24.7178 C   0  0  0  0  0  0
  -21.8831   -3.8140   23.4296 C   0  0  0  0  0  0
  -21.9190   -4.6967   22.3355 C   0  0  0  0  0  0
  -22.7828  -13.5231   21.1845 C   0  0  0  0  0  0
  -22.1668   -4.2162   21.0941 F   0  0  0  0  0  0
  -21.5653   -3.4528   25.7688 F   0  0  0  0  0  0
  -29.9673  -13.5635   20.3303 N   0  0  0  0  0  0
  -26.2985  -12.9445   20.3523 N   0  0  0  0  0  0
  -25.9375  -11.6591   20.5937 N   0  0  0  0  0  0
  -22.0461  -12.8185   22.0377 N   0  0  0  0  0  0
  -25.4268  -15.1932   20.4201 N   0  0  0  0  0  0
  -31.8946  -14.6410   20.5645 O   0  0  0  0  0  0
  -21.6653   -6.8911   21.4221 O   0  0  0  0  0  0
  -22.3508  -14.5538   20.6701 O   0  0  0  0  0  0
  -24.6338  -31.8533   23.2105 C   0  0  0  0  0  0
  -25.9134  -32.4788   23.8440 C   0  0  1  0  0  0
  -27.2121  -27.2875   20.1084 C   0  0  0  0  0  0
  -25.5886  -33.8597   24.2350 N   0  0  0  0  0  0
  -23.4285  -30.4737   21.5632 C   0  0  2  0  0  0
  -24.8667  -28.9390   20.0915 C   0  0  0  0  0  0
  -22.7513  -29.4546   22.5078 C   0  0  0  0  0  0
  -18.0257  -28.1390   22.8440 C   0  0  0  0  0  0
  -24.1481  -36.7349   23.2661 C   0  0  0  0  0  0
  -25.9639  -30.7782   21.3655 C   0  0  0  0  0  0
  -26.0332  -29.4007   20.7115 C   0  0  0  0  0  0
  -27.2043  -28.5876   20.7103 C   0  0  0  0  0  0
  -26.0357  -26.9012   19.4279 C   0  0  0  0  0  0
  -24.8783  -27.7041   19.4221 C   0  0  0  0  0  0
  -23.6283  -29.8095   20.1736 C   0  0  0  0  0  0
  -25.4090  -36.3173   24.0403 C   0  0  1  0  0  0
  -20.5852  -28.3694   23.1307 C   0  0  2  0  0  0
  -20.6769  -26.9437   22.5422 C   0  0  0  0  0  0
  -19.5762  -26.6406   21.5203 C   0  0  0  0  0  0
  -18.1928  -26.7917   22.1598 C   0  0  0  0  0  0
  -19.1503  -28.8861   23.2854 C   0  0  0  0  0  0
  -18.9429  -30.1443   23.8908 C   0  0  0  0  0  0
  -17.6444  -30.6604   24.0548 C   0  0  0  0  0  0
  -25.9032  -34.9489   23.5202 C   0  0  0  0  0  0
  -16.5333  -29.9101   23.6312 C   0  0  0  0  0  0
  -16.7248  -28.6507   23.0342 C   0  0  0  0  0  0
  -26.4485  -31.6599   25.0803 C   0  0  0  0  0  0
  -25.3759  -31.3694   26.1573 C   0  0  0  0  0  0
  -27.0298  -30.3055   24.6118 C   0  0  0  0  0  0
  -27.6110  -32.4276   25.7543 C   0  0  0  0  0  0
  -27.5588  -37.1846   24.8477 C   0  0  0  0  0  0
  -21.4244  -29.3017   22.3739 N   0  0  0  0  0  0
  -26.4291  -37.3851   23.9442 N   0  0  0  0  0  0
  -24.6999  -31.0448   22.1102 N   0  0  0  0  0  0
  -23.4165  -28.8084   23.3220 O   0  0  0  0  0  0
  -28.3121  -26.4186   20.2409 O   0  0  0  0  0  0
  -26.5646  -34.8948   22.4790 O   0  0  0  0  0  0
  -23.5498  -32.1354   23.7389 O   0  0  0  0  0  0
  -29.7103  -19.2033   21.5763 C   0  0  0  0  0  0
  -28.1567  -19.0835   19.7616 C   0  0  0  0  0  0
  -30.0977  -17.8412   21.3470 C   0  0  0  0  0  0
  -28.5144  -17.7147   19.5577 C   0  0  0  0  0  0
  -28.7902  -19.8936   20.7371 C   0  0  0  0  0  0
  -29.5671  -17.0758   20.2682 C   0  0  0  0  0  0
  -28.1038  -23.6978   20.3947 C   0  0  0  0  0  0
  -28.7931  -22.4853   20.2801 C   0  0  0  0  0  0
  -26.9079  -23.7035   21.2744 C   0  0  0  0  0  0
  -30.5683  -21.5107   18.8016 C   0  0  0  0  0  0
  -30.0644  -22.5046   19.5577 C   0  0  0  0  0  0
  -26.7395  -22.6093   22.3298 C   0  0  0  0  0  0
  -31.6469  -17.6057   16.6381 C   0  0  0  0  0  0
  -32.8666  -17.4505   17.5519 C   0  0  0  0  0  0
  -30.5071  -16.7811   17.2674 C   0  0  0  0  0  0
  -32.2999  -17.0213   18.8936 C   0  0  0  0  0  0
  -27.4424  -21.2703   22.0645 C   0  0  0  0  0  0
  -31.0894  -16.1236   18.5453 C   0  0  0  0  0  0
  -28.4016  -25.0685   19.6061 C   0  0  0  0  0  0
  -28.3983  -21.2708   20.9580 N   0  0  0  0  0  0
  -30.1945  -15.8431   19.7273 N   0  0  0  0  0  0
  -26.0316  -24.5674   21.2407 O   0  0  0  0  0  0
  -31.4657  -12.6277   19.1249 H   0  0  0  0  0  0
  -30.4179  -11.5199   19.9878 H   0  0  0  0  0  0
  -29.7806  -11.6756   17.5536 H   0  0  0  0  0  0
  -29.6010  -13.4122   17.6878 H   0  0  0  0  0  0
  -27.9073  -11.2633   18.9946 H   0  0  0  0  0  0
  -27.3598  -12.4566   17.8409 H   0  0  0  0  0  0
  -27.6188  -14.2481   19.4516 H   0  0  0  0  0  0
  -28.7609  -12.2832   21.5007 H   0  0  0  0  0  0
  -28.4624  -13.9957   21.7344 H   0  0  0  0  0  0
  -25.2817   -9.5631   22.4785 H   0  0  0  0  0  0
  -24.0004   -7.4610   22.7458 H   0  0  0  0  0  0
  -21.0900   -8.8855   19.8915 H   0  0  0  0  0  0
  -22.3815  -10.9728   19.6176 H   0  0  0  0  0  0
  -21.1992   -7.6135   23.9678 H   0  0  0  0  0  0
  -21.1504   -6.0504   25.9050 H   0  0  0  0  0  0
  -22.0611   -2.7607   23.2775 H   0  0  0  0  0  0
  -22.4117  -11.9839   22.4715 H   0  0  0  0  0  0
  -21.1073  -13.1145   22.2599 H   0  0  0  0  0  0
  -24.6730  -15.8581   20.5533 H   0  0  0  0  0  0
  -26.2915  -15.6257   20.1180 H   0  0  0  0  0  0
  -26.7189  -32.5394   23.1200 H   0  0  0  0  0  0
  -24.9901  -33.9714   25.0402 H   0  0  0  0  0  0
  -22.7291  -31.3027   21.4328 H   0  0  0  0  0  0
  -23.3786  -35.9643   23.3303 H   0  0  0  0  0  0
  -24.3614  -36.8952   22.2088 H   0  0  0  0  0  0
  -23.7156  -37.6544   23.6607 H   0  0  0  0  0  0
  -26.0345  -31.5196   20.5682 H   0  0  0  0  0  0
  -26.8765  -30.8801   21.9443 H   0  0  0  0  0  0
  -28.0965  -28.9397   21.2069 H   0  0  0  0  0  0
  -25.9586  -25.9469   18.9307 H   0  0  0  0  0  0
  -23.9990  -27.3482   18.9021 H   0  0  0  0  0  0
  -23.7203  -30.5950   19.4260 H   0  0  0  0  0  0
  -22.7502  -29.2296   19.8830 H   0  0  0  0  0  0
  -25.1239  -36.2144   25.0910 H   0  0  0  0  0  0
  -20.9845  -28.3272   24.1468 H   0  0  0  0  0  0
  -20.5669  -26.2339   23.3628 H   0  0  0  0  0  0
  -21.6644  -26.7502   22.1212 H   0  0  0  0  0  0
  -19.6984  -25.6322   21.1228 H   0  0  0  0  0  0
  -19.6702  -27.3223   20.6727 H   0  0  0  0  0  0
  -17.4201  -26.6613   21.4006 H   0  0  0  0  0  0
  -18.0372  -26.0077   22.9018 H   0  0  0  0  0  0
  -19.7921  -30.7215   24.2328 H   0  0  0  0  0  0
  -17.5028  -31.6289   24.5151 H   0  0  0  0  0  0
  -15.5338  -30.3038   23.7653 H   0  0  0  0  0  0
  -15.8625  -28.0847   22.7082 H   0  0  0  0  0  0
  -24.6027  -30.6901   25.7940 H   0  0  0  0  0  0
  -24.8811  -32.2814   26.4943 H   0  0  0  0  0  0
  -25.8155  -30.9009   27.0399 H   0  0  0  0  0  0
  -26.2851  -29.6914   24.1029 H   0  0  0  0  0  0
  -27.3982  -29.7176   25.4535 H   0  0  0  0  0  0
  -27.8708  -30.4454   23.9328 H   0  0  0  0  0  0
  -27.2818  -33.3640   26.2072 H   0  0  0  0  0  0
  -28.3927  -32.6686   25.0327 H   0  0  0  0  0  0
  -28.0746  -31.8408   26.5491 H   0  0  0  0  0  0
  -28.2631  -38.0121   24.7531 H   0  0  0  0  0  0
  -28.1048  -36.2657   24.6271 H   0  0  0  0  0  0
  -27.2324  -37.1513   25.8887 H   0  0  0  0  0  0
  -20.9539  -29.8681   21.6821 H   0  0  0  0  0  0
  -26.0244  -38.2961   24.1424 H   0  0  0  0  0  0
  -30.1657  -19.7377   22.3975 H   0  0  0  0  0  0
  -27.3985  -19.5172   19.1257 H   0  0  0  0  0  0
  -30.8700  -17.4216   21.9748 H   0  0  0  0  0  0
  -28.0220  -17.1869   18.7556 H   0  0  0  0  0  0
  -31.5476  -21.5807   18.3547 H   0  0  0  0  0  0
  -30.0269  -20.6022   18.6060 H   0  0  0  0  0  0
  -30.6975  -23.3729   19.6729 H   0  0  0  0  0  0
  -25.6707  -22.4243   22.4525 H   0  0  0  0  0  0
  -27.1006  -23.0105   23.2768 H   0  0  0  0  0  0
  -31.8703  -17.2788   15.6227 H   0  0  0  0  0  0
  -31.3497  -18.6548   16.5734 H   0  0  0  0  0  0
  -33.4635  -18.3589   17.6419 H   0  0  0  0  0  0
  -33.5286  -16.6692   17.1757 H   0  0  0  0  0  0
  -30.1306  -16.0260   16.5759 H   0  0  0  0  0  0
  -29.6952  -17.4762   17.4300 H   0  0  0  0  0  0
  -31.9937  -17.9089   19.4437 H   0  0  0  0  0  0
  -33.0650  -16.5251   19.4907 H   0  0  0  0  0  0
  -26.6912  -20.4892   21.9183 H   0  0  0  0  0  0
  -27.9740  -20.9919   22.9763 H   0  0  0  0  0  0
  -31.4866  -15.1765   18.1648 H   0  0  0  0  0  0
  -27.8749  -25.0686   18.6512 H   0  0  0  0  0  0
  -29.4362  -25.0366   19.2759 H   0  0  0  0  0  0
  1 25  1  0  0  0
  1 30  2  0  0  0
  1 91  1  0  0  0
  2  3  1  0  0  0
  2 25  1  0  0  0
  2 93  1  0  0  0
  2 94  1  0  0  0
  3  4  1  0  0  0
  3 95  1  0  0  0
  3 96  1  0  0  0
  4  5  1  0  0  0
  4 97  1  0  0  0
  4 98  1  0  0  0
  5  6  1  0  0  0
  5 26  1  0  0  0
  5 99  1  0  0  0
  6 25  1  0  0  0
  6100  1  0  0  0
  6101  1  0  0  0
  7  8  2  0  0  0
  7 26  1  0  0  0
  7 29  1  0  0  0
  8  9  1  0  0  0
  8 22  1  0  0  0
  9 10  1  0  0  0
  9 27  2  0  0  0
 10 11  2  0  0  0
 10 15  1  0  0  0
 11 12  1  0  0  0
 11102  1  0  0  0
 12 13  2  0  0  0
 12103  1  0  0  0
 13 14  1  0  0  0
 13 31  1  0  0  0
 14 15  2  0  0  0
 14104  1  0  0  0
 15105  1  0  0  0
 16 17  2  0  0  0
 16 21  1  0  0  0
 16 31  1  0  0  0
 17 18  1  0  0  0
 17106  1  0  0  0
 18 19  2  0  0  0
 18107  1  0  0  0
 19 20  1  0  0  0
 19 24  1  0  0  0
 20 21  2  0  0  0
 20108  1  0  0  0
 21 23  1  0  0  0
 22 28  1  0  0  0
 22 32  2  0  0  0
 26 27  1  0  0  0
 28109  1  0  0  0
 28110  1  0  0  0
 29111  1  0  0  0
 29112  1  0  0  0
 33 34  1  0  0  0
 33 66  1  0  0  0
 33 70  2  0  0  0
 34 36  1  0  0  0
 34 59  1  0  0  0
 34113  1  0  0  0
 35 44  2  0  0  0
 35 45  1  0  0  0
 35 68  1  0  0  0
 36 56  1  0  0  0
 36114  1  0  0  0
 37 39  1  0  0  0
 37 47  1  0  0  0
 37 66  1  0  0  0
 37115  1  0  0  0
 38 43  2  0  0  0
 38 46  1  0  0  0
 38 47  1  0  0  0
 39 64  1  0  0  0
 39 67  2  0  0  0
 40 52  1  0  0  0
 40 53  2  0  0  0
 40 58  1  0  0  0
 41116  1  0  0  0
 41117  1  0  0  0
 41118  1  0  0  0
 41 48  1  0  0  0
 42 43  1  0  0  0
 42 66  1  0  0  0
 42119  1  0  0  0
 42120  1  0  0  0
 43 44  1  0  0  0
 44121  1  0  0  0
 45 46  2  0  0  0
 45122  1  0  0  0
 46123  1  0  0  0
 47124  1  0  0  0
 47125  1  0  0  0
 48 56  1  0  0  0
 48 65  1  0  0  0
 48126  1  0  0  0
 49 50  1  0  0  0
 49 53  1  0  0  0
 49 64  1  0  0  0
 49127  1  0  0  0
 50 51  1  0  0  0
 50128  1  0  0  0
 50129  1  0  0  0
 51 52  1  0  0  0
 51130  1  0  0  0
 51131  1  0  0  0
 52132  1  0  0  0
 52133  1  0  0  0
 53 54  1  0  0  0
 54 55  2  0  0  0
 54134  1  0  0  0
 55 57  1  0  0  0
 55135  1  0  0  0
 56 69  2  0  0  0
 57 58  2  0  0  0
 57136  1  0  0  0
 58137  1  0  0  0
 59 60  1  0  0  0
 59 61  1  0  0  0
 59 62  1  0  0  0
 60138  1  0  0  0
 60139  1  0  0  0
 60140  1  0  0  0
 61141  1  0  0  0
 61142  1  0  0  0
 61143  1  0  0  0
 62144  1  0  0  0
 62145  1  0  0  0
 62146  1  0  0  0
 63 65  1  0  0  0
 63147  1  0  0  0
 63148  1  0  0  0
 63149  1  0  0  0
 64150  1  0  0  0
 65151  1  0  0  0
 68 89  1  0  0  0
 71 73  2  0  0  0
 71 75  1  0  0  0
 71152  1  0  0  0
 72 74  1  0  0  0
 72 75  2  0  0  0
 72153  1  0  0  0
 73 76  1  0  0  0
 73154  1  0  0  0
 74 76  2  0  0  0
 74155  1  0  0  0
 75 90  1  0  0  0
 76 91  1  0  0  0
 77 78  2  0  0  0
 77 79  1  0  0  0
 77 89  1  0  0  0
 78 81  1  0  0  0
 78 90  1  0  0  0
 79 82  1  0  0  0
 79 92  2  0  0  0
 80 81  2  0  0  0
 80156  1  0  0  0
 80157  1  0  0  0
 81158  1  0  0  0
 82 87  1  0  0  0
 82159  1  0  0  0
 82160  1  0  0  0
 83 84  1  0  0  0
 83 85  1  0  0  0
 83161  1  0  0  0
 83162  1  0  0  0
 84 86  1  0  0  0
 84163  1  0  0  0
 84164  1  0  0  0
 85 88  1  0  0  0
 85165  1  0  0  0
 85166  1  0  0  0
 86 88  1  0  0  0
 86167  1  0  0  0
 86168  1  0  0  0
 87 90  1  0  0  0
 87169  1  0  0  0
 87170  1  0  0  0
 88 91  1  0  0  0
 88171  1  0  0  0
 89172  1  0  0  0
 89173  1  0  0  0
M  ISO  4   1 100  68 101  89 101  91 100
M  END
> <chiral flag>
0

> <version>
0

> <s_m_source_file>
/data/baiqing/PycharmProjects/Reinvent-master-3.2/result/LINK_invent/BTK/process_docking_weight1_custom_product_contain_oxygen_bond_distance_aromatic_linkinvent_7_9_3/rearranged_h_0109.sdf

> <i_m_source_file_index>
54

> <r_mmod_Potential_Energy-OPLS-2005>
570.341613769531

> <r_mmod_Stretch_Energy-OPLS-2005>
117.118934631348

> <r_mmod_Bend_Energy-OPLS-2005>
224.256881713867

> <r_mmod_Torsional_Energy-OPLS-2005>
409.036437988281

> <r_mmod_Improper_Torsional_Energy-OPLS-2005>
32.5067329406738

> <r_mmod_Van_der_Waal_Energy-OPLS-2005>
163.694198608398

> <r_mmod_Electrostatic_Energy-OPLS-2005>
-288.929748535156

> <r_mmod_Solvation_Energy-OPLS-2005>
-201.542678833008

> <b_mmod_Minimization_Converged-OPLS-2005>
0

> <r_mmod_RMS_Derivative-OPLS-2005>
6.33649969100952

$$$$
54
                    3D
 Structure written by MMmdl.
166175  0  0  1  0            999 V2000
  -30.6232  -14.6563   20.4977 C   0  0  0  0  0  0
  -30.4405  -12.4056   19.4497 C   0  0  0  0  0  0
  -29.5098  -12.5163   18.2218 C   0  0  0  0  0  0
  -28.0320  -12.3495   18.6316 C   0  0  0  0  0  0
  -27.6514  -13.2187   19.8612 C   0  0  2  0  0  0
  -28.6987  -13.0837   20.9891 C   0  0  0  0  0  0
  -25.2537  -13.8145   20.5706 C   0  0  0  0  0  0
  -24.1811  -13.0405   20.9196 C   0  0  0  0  0  0
  -24.6398  -11.6885   20.8729 C   0  0  0  0  0  0
  -23.9072  -10.4272   21.0383 C   0  0  0  0  0  0
  -24.3620   -9.4196   21.9169 C   0  0  0  0  0  0
  -23.6295   -8.2237   22.0749 C   0  0  0  0  0  0
  -22.4276   -8.0272   21.3540 C   0  0  0  0  0  0
  -21.9911   -9.0239   20.4639 C   0  0  0  0  0  0
  -22.7238  -10.2118   20.3042 C   0  0  0  0  0  0
  -21.6854   -6.0733   22.5279 C   0  0  0  0  0  0
  -21.4010   -6.5639   23.8210 C   0  0  0  0  0  0
  -21.3665   -5.6792   24.9174 C   0  0  0  0  0  0
  -21.6042   -4.3053   24.7226 C   0  0  0  0  0  0
  -21.8819   -3.8150   23.4346 C   0  0  0  0  0  0
  -21.9193   -4.6964   22.3401 C   0  0  0  0  0  0
  -22.7833  -13.5201   21.1862 C   0  0  0  0  0  0
  -22.1657   -4.2154   21.0974 F   0  0  0  0  0  0
  -21.5639   -3.4540   25.7737 F   0  0  0  0  0  0
  -30.0121  -13.4304   20.4220 N   0  0  0  0  0  0
  -26.2981  -12.9343   20.3317 N   0  0  0  0  0  0
  -25.9326  -11.6492   20.5745 N   0  0  0  0  0  0
  -22.0467  -12.8198   22.0412 N   0  0  0  0  0  0
  -25.4210  -15.1868   20.4176 N   0  0  0  0  0  0
  -31.7931  -14.8123   20.1363 O   0  0  0  0  0  0
  -21.6638   -6.8870   21.4237 O   0  0  0  0  0  0
  -22.3517  -14.5507   20.6703 O   0  0  0  0  0  0
  -24.6280  -31.8610   23.2044 C   0  0  0  0  0  0
  -25.9124  -32.4790   23.8367 C   0  0  1  0  0  0
  -27.2180  -27.3142   20.1081 C   0  0  0  0  0  0
  -25.5937  -33.8591   24.2292 N   0  0  0  0  0  0
  -23.4204  -30.4866   21.5488 C   0  0  2  0  0  0
  -24.8638  -28.9459   20.1126 C   0  0  0  0  0  0
  -22.7478  -29.4632   22.4954 C   0  0  0  0  0  0
  -18.0289  -28.1392   22.8493 C   0  0  0  0  0  0
  -24.1489  -36.7288   23.2639 C   0  0  0  0  0  0
  -25.9637  -30.7900   21.3762 C   0  0  0  0  0  0
  -26.0363  -29.4183   20.7156 C   0  0  0  0  0  0
  -27.2171  -28.6152   20.7027 C   0  0  0  0  0  0
  -26.0161  -26.8993   19.4843 C   0  0  0  0  0  0
  -24.8561  -27.6916   19.4902 C   0  0  0  0  0  0
  -23.6332  -29.8269   20.1632 C   0  0  0  0  0  0
  -25.4119  -36.3092   24.0329 C   0  0  1  0  0  0
  -20.5887  -28.3691   23.1295 C   0  0  2  0  0  0
  -20.6780  -26.9414   22.5421 C   0  0  0  0  0  0
  -19.5755  -26.6388   21.5221 C   0  0  0  0  0  0
  -18.1928  -26.7941   22.1618 C   0  0  0  0  0  0
  -19.1537  -28.8859   23.2888 C   0  0  0  0  0  0
  -18.9457  -30.1459   23.8910 C   0  0  0  0  0  0
  -17.6458  -30.6593   24.0567 C   0  0  0  0  0  0
  -25.9055  -34.9459   23.5111 C   0  0  0  0  0  0
  -16.5349  -29.9090   23.6334 C   0  0  0  0  0  0
  -16.7272  -28.6506   23.0362 C   0  0  0  0  0  0
  -26.4503  -31.6603   25.0742 C   0  0  0  0  0  0
  -25.3720  -31.3733   26.1451 C   0  0  0  0  0  0
  -27.0348  -30.3032   24.6195 C   0  0  0  0  0  0
  -27.6059  -32.4340   25.7519 C   0  0  0  0  0  0
  -27.5588  -37.1806   24.8465 C   0  0  0  0  0  0
  -21.4192  -29.3044   22.3692 N   0  0  0  0  0  0
  -26.4299  -37.3788   23.9409 N   0  0  0  0  0  0
  -24.6896  -31.0617   22.0998 N   0  0  0  0  0  0
  -23.4197  -28.8161   23.3027 O   0  0  0  0  0  0
  -28.3302  -26.4528   20.1555 O   0  0  0  0  0  0
  -26.5622  -34.8925   22.4675 O   0  0  0  0  0  0
  -23.5439  -32.1408   23.7372 O   0  0  0  0  0  0
  -30.7790  -19.3638   21.5174 C   0  0  0  0  0  0
  -29.1701  -19.3399   19.7505 C   0  0  0  0  0  0
  -30.7887  -17.9316   21.5811 C   0  0  0  0  0  0
  -29.1641  -17.9094   19.7816 C   0  0  0  0  0  0
  -29.9658  -20.1238   20.6247 C   0  0  0  0  0  0
  -29.9726  -17.1648   20.6950 C   0  0  0  0  0  0
  -29.2011  -23.9112   20.1625 C   0  0  0  0  0  0
  -28.9841  -22.5598   20.4119 C   0  0  0  0  0  0
  -30.6016  -24.3642   19.9716 C   0  0  0  0  0  0
  -32.6873  -17.7830   23.2373 C   0  0  0  0  0  0
  -31.6524  -17.2454   22.5672 C   0  0  0  0  0  0
  -31.6799  -23.2917   19.8467 C   0  0  0  0  0  0
  -31.3913  -22.0755   20.7376 C   0  0  0  0  0  0
  -28.2554  -17.1821   18.8051 C   0  0  0  0  0  0
  -27.5657  -22.0331   20.6010 C   0  0  0  0  0  0
  -28.0773  -25.0009   19.9485 C   0  0  0  0  0  0
  -30.0196  -21.5757   20.5788 N   0  0  0  0  0  0
  -29.8044  -15.7108   20.8117 N   0  0  0  0  0  0
  -30.9469  -25.5447   19.8671 O   0  0  0  0  0  0
  -31.4814  -12.5350   19.1462 H   0  0  0  0  0  0
  -30.3788  -11.4113   19.8945 H   0  0  0  0  0  0
  -29.7789  -11.7668   17.4768 H   0  0  0  0  0  0
  -29.6502  -13.4861   17.7415 H   0  0  0  0  0  0
  -27.8708  -11.2955   18.8584 H   0  0  0  0  0  0
  -27.3801  -12.5801   17.7887 H   0  0  0  0  0  0
  -27.6621  -14.2528   19.5185 H   0  0  0  0  0  0
  -28.7134  -12.0633   21.3756 H   0  0  0  0  0  0
  -28.4444  -13.7202   21.8378 H   0  0  0  0  0  0
  -25.2761   -9.5682   22.4746 H   0  0  0  0  0  0
  -24.0007   -7.4635   22.7472 H   0  0  0  0  0  0
  -21.0847   -8.8742   19.8946 H   0  0  0  0  0  0
  -22.3684  -10.9651   19.6154 H   0  0  0  0  0  0
  -21.1984   -7.6145   23.9718 H   0  0  0  0  0  0
  -21.1498   -6.0520   25.9075 H   0  0  0  0  0  0
  -22.0597   -2.7615   23.2847 H   0  0  0  0  0  0
  -22.4073  -11.9871   22.4821 H   0  0  0  0  0  0
  -21.1079  -13.1221   22.2591 H   0  0  0  0  0  0
  -24.6523  -15.8383   20.5313 H   0  0  0  0  0  0
  -26.2715  -15.6313   20.1014 H   0  0  0  0  0  0
  -26.7191  -32.5456   23.1112 H   0  0  0  0  0  0
  -25.0095  -33.9740   25.0445 H   0  0  0  0  0  0
  -22.7147  -31.3080   21.4092 H   0  0  0  0  0  0
  -23.3769  -35.9603   23.3298 H   0  0  0  0  0  0
  -24.3580  -36.8918   22.2056 H   0  0  0  0  0  0
  -23.7220  -37.6478   23.6665 H   0  0  0  0  0  0
  -26.0953  -31.5555   20.6103 H   0  0  0  0  0  0
  -26.8440  -30.8371   22.0059 H   0  0  0  0  0  0
  -28.1170  -28.9733   21.1824 H   0  0  0  0  0  0
  -25.9277  -25.9439   18.9915 H   0  0  0  0  0  0
  -23.9563  -27.3240   19.0167 H   0  0  0  0  0  0
  -23.7551  -30.6059   19.4101 H   0  0  0  0  0  0
  -22.7522  -29.2597   19.8577 H   0  0  0  0  0  0
  -25.1304  -36.1949   25.0823 H   0  0  0  0  0  0
  -20.9974  -28.3263   24.1414 H   0  0  0  0  0  0
  -20.5687  -26.2295   23.3616 H   0  0  0  0  0  0
  -21.6647  -26.7453   22.1208 H   0  0  0  0  0  0
  -19.6917  -25.6291   21.1258 H   0  0  0  0  0  0
  -19.6710  -27.3196   20.6750 H   0  0  0  0  0  0
  -17.4208  -26.6712   21.4006 H   0  0  0  0  0  0
  -18.0311  -26.0075   22.9002 H   0  0  0  0  0  0
  -19.7927  -30.7279   24.2289 H   0  0  0  0  0  0
  -17.5003  -31.6278   24.5161 H   0  0  0  0  0  0
  -15.5351  -30.2989   23.7660 H   0  0  0  0  0  0
  -15.8672  -28.0824   22.7085 H   0  0  0  0  0  0
  -24.5918  -30.7065   25.7765 H   0  0  0  0  0  0
  -24.8885  -32.2891   26.4860 H   0  0  0  0  0  0
  -25.8029  -30.8919   27.0237 H   0  0  0  0  0  0
  -26.2923  -29.6791   24.1207 H   0  0  0  0  0  0
  -27.4033  -29.7289   25.4706 H   0  0  0  0  0  0
  -27.8800  -30.4338   23.9434 H   0  0  0  0  0  0
  -27.2668  -33.3628   26.2121 H   0  0  0  0  0  0
  -28.3860  -32.6921   25.0343 H   0  0  0  0  0  0
  -28.0739  -31.8451   26.5420 H   0  0  0  0  0  0
  -28.2606  -38.0106   24.7523 H   0  0  0  0  0  0
  -28.1090  -36.2639   24.6281 H   0  0  0  0  0  0
  -27.2306  -37.1444   25.8869 H   0  0  0  0  0  0
  -20.9371  -29.8767   21.6907 H   0  0  0  0  0  0
  -26.0184  -38.2863   24.1422 H   0  0  0  0  0  0
  -31.3931  -19.9093   22.2162 H   0  0  0  0  0  0
  -28.5503  -19.8518   19.0291 H   0  0  0  0  0  0
  -33.2444  -17.1876   23.9469 H   0  0  0  0  0  0
  -33.0091  -18.8036   23.1013 H   0  0  0  0  0  0
  -31.4185  -16.2134   22.7816 H   0  0  0  0  0  0
  -32.6499  -23.7202   20.0993 H   0  0  0  0  0  0
  -31.7282  -22.9857   18.8017 H   0  0  0  0  0  0
  -31.5507  -22.3425   21.7831 H   0  0  0  0  0  0
  -32.1292  -21.3107   20.4927 H   0  0  0  0  0  0
  -27.9985  -17.8156   17.9556 H   0  0  0  0  0  0
  -27.3284  -16.8938   19.2983 H   0  0  0  0  0  0
  -28.7340  -16.2868   18.4066 H   0  0  0  0  0  0
  -27.0189  -22.6525   21.3117 H   0  0  0  0  0  0
  -27.5241  -21.0241   21.0063 H   0  0  0  0  0  0
  -27.0265  -22.0401   19.6535 H   0  0  0  0  0  0
  -27.2260  -24.7255   20.5700 H   0  0  0  0  0  0
  -27.7698  -24.8624   18.9116 H   0  0  0  0  0  0
  -28.8594  -15.4181   21.0031 H   0  0  0  0  0  0
  1 25  1  0  0  0
  1 30  2  0  0  0
  1 88  1  0  0  0
  2  3  1  0  0  0
  2 25  1  0  0  0
  2 90  1  0  0  0
  2 91  1  0  0  0
  3  4  1  0  0  0
  3 92  1  0  0  0
  3 93  1  0  0  0
  4  5  1  0  0  0
  4 94  1  0  0  0
  4 95  1  0  0  0
  5  6  1  0  0  0
  5 26  1  0  0  0
  5 96  1  0  0  0
  6 25  1  0  0  0
  6 97  1  0  0  0
  6 98  1  0  0  0
  7  8  2  0  0  0
  7 26  1  0  0  0
  7 29  1  0  0  0
  8  9  1  0  0  0
  8 22  1  0  0  0
  9 10  1  0  0  0
  9 27  2  0  0  0
 10 11  2  0  0  0
 10 15  1  0  0  0
 11 12  1  0  0  0
 11 99  1  0  0  0
 12 13  2  0  0  0
 12100  1  0  0  0
 13 14  1  0  0  0
 13 31  1  0  0  0
 14 15  2  0  0  0
 14101  1  0  0  0
 15102  1  0  0  0
 16 17  2  0  0  0
 16 21  1  0  0  0
 16 31  1  0  0  0
 17 18  1  0  0  0
 17103  1  0  0  0
 18 19  2  0  0  0
 18104  1  0  0  0
 19 20  1  0  0  0
 19 24  1  0  0  0
 20 21  2  0  0  0
 20105  1  0  0  0
 21 23  1  0  0  0
 22 28  1  0  0  0
 22 32  2  0  0  0
 26 27  1  0  0  0
 28106  1  0  0  0
 28107  1  0  0  0
 29108  1  0  0  0
 29109  1  0  0  0
 33 34  1  0  0  0
 33 66  1  0  0  0
 33 70  2  0  0  0
 34 36  1  0  0  0
 34 59  1  0  0  0
 34110  1  0  0  0
 35 44  2  0  0  0
 35 45  1  0  0  0
 35 68  1  0  0  0
 36 56  1  0  0  0
 36111  1  0  0  0
 37 39  1  0  0  0
 37 47  1  0  0  0
 37 66  1  0  0  0
 37112  1  0  0  0
 38 43  2  0  0  0
 38 46  1  0  0  0
 38 47  1  0  0  0
 39 64  1  0  0  0
 39 67  2  0  0  0
 40 52  1  0  0  0
 40 53  2  0  0  0
 40 58  1  0  0  0
 41113  1  0  0  0
 41114  1  0  0  0
 41115  1  0  0  0
 41 48  1  0  0  0
 42 43  1  0  0  0
 42 66  1  0  0  0
 42116  1  0  0  0
 42117  1  0  0  0
 43 44  1  0  0  0
 44118  1  0  0  0
 45 46  2  0  0  0
 45119  1  0  0  0
 46120  1  0  0  0
 47121  1  0  0  0
 47122  1  0  0  0
 48 56  1  0  0  0
 48 65  1  0  0  0
 48123  1  0  0  0
 49 50  1  0  0  0
 49 53  1  0  0  0
 49 64  1  0  0  0
 49124  1  0  0  0
 50 51  1  0  0  0
 50125  1  0  0  0
 50126  1  0  0  0
 51 52  1  0  0  0
 51127  1  0  0  0
 51128  1  0  0  0
 52129  1  0  0  0
 52130  1  0  0  0
 53 54  1  0  0  0
 54 55  2  0  0  0
 54131  1  0  0  0
 55 57  1  0  0  0
 55132  1  0  0  0
 56 69  2  0  0  0
 57 58  2  0  0  0
 57133  1  0  0  0
 58134  1  0  0  0
 59 60  1  0  0  0
 59 61  1  0  0  0
 59 62  1  0  0  0
 60135  1  0  0  0
 60136  1  0  0  0
 60137  1  0  0  0
 61138  1  0  0  0
 61139  1  0  0  0
 61140  1  0  0  0
 62141  1  0  0  0
 62142  1  0  0  0
 62143  1  0  0  0
 63 65  1  0  0  0
 63144  1  0  0  0
 63145  1  0  0  0
 63146  1  0  0  0
 64147  1  0  0  0
 65148  1  0  0  0
 68 86  1  0  0  0
 71 73  2  0  0  0
 71 75  1  0  0  0
 71149  1  0  0  0
 72 74  1  0  0  0
 72 75  2  0  0  0
 72150  1  0  0  0
 73 76  1  0  0  0
 73 81  1  0  0  0
 74 76  2  0  0  0
 74 84  1  0  0  0
 75 87  1  0  0  0
 76 88  1  0  0  0
 77 78  2  0  0  0
 77 79  1  0  0  0
 77 86  1  0  0  0
 78 85  1  0  0  0
 78 87  1  0  0  0
 79 82  1  0  0  0
 79 89  2  0  0  0
 80 81  2  0  0  0
 80151  1  0  0  0
 80152  1  0  0  0
 81153  1  0  0  0
 82 83  1  0  0  0
 82154  1  0  0  0
 82155  1  0  0  0
 83 87  1  0  0  0
 83156  1  0  0  0
 83157  1  0  0  0
 84158  1  0  0  0
 84159  1  0  0  0
 84160  1  0  0  0
 85161  1  0  0  0
 85162  1  0  0  0
 85163  1  0  0  0
 86164  1  0  0  0
 86165  1  0  0  0
 88166  1  0  0  0
M  ISO  4   1 100  68 101  86 101  88 100
M  END
> <chiral flag>
0

> <version>
0

> <s_m_source_file>
/data/baiqing/PycharmProjects/Reinvent-master-3.2/result/LINK_invent/BTK/process_docking_weight1_custom_product_contain_oxygen_bond_distance_aromatic_linkinvent_7_9_3/rearranged_h_0109.sdf

> <i_m_source_file_index>
55

> <r_mmod_Potential_Energy-OPLS-2005>
80.0478897094727

> <r_mmod_Stretch_Energy-OPLS-2005>
93.7238006591797

> <r_mmod_Bend_Energy-OPLS-2005>
140.058258056641

> <r_mmod_Torsional_Energy-OPLS-2005>
226.59944152832

> <r_mmod_Improper_Torsional_Energy-OPLS-2005>
5.64654493331909

> <r_mmod_Van_der_Waal_Energy-OPLS-2005>
171.311019897461

> <r_mmod_Electrostatic_Energy-OPLS-2005>
-381.196807861328

> <r_mmod_Solvation_Energy-OPLS-2005>
-229.149688720703

> <b_mmod_Minimization_Converged-OPLS-2005>
0

> <r_mmod_RMS_Derivative-OPLS-2005>
1.31812846660614

$$$$
55
                    3D
 Structure written by MMmdl.
158166  0  0  1  0            999 V2000
  -30.6941  -14.5153   20.5938 C   0  0  0  0  0  0
  -30.4170  -12.3473   19.4335 C   0  0  0  0  0  0
  -29.4934  -12.5528   18.2145 C   0  0  0  0  0  0
  -28.0156  -12.3901   18.6166 C   0  0  0  0  0  0
  -27.6581  -13.2127   19.8820 C   0  0  2  0  0  0
  -28.6952  -12.9834   21.0023 C   0  0  0  0  0  0
  -25.2568  -13.8151   20.5703 C   0  0  0  0  0  0
  -24.1827  -13.0463   20.9162 C   0  0  0  0  0  0
  -24.6378  -11.6897   20.8717 C   0  0  0  0  0  0
  -23.9037  -10.4312   21.0378 C   0  0  0  0  0  0
  -24.3584   -9.4243   21.9173 C   0  0  0  0  0  0
  -23.6280   -8.2277   22.0764 C   0  0  0  0  0  0
  -22.4259   -8.0287   21.3551 C   0  0  0  0  0  0
  -21.9884   -9.0250   20.4649 C   0  0  0  0  0  0
  -22.7185  -10.2150   20.3057 C   0  0  0  0  0  0
  -21.6860   -6.0736   22.5277 C   0  0  0  0  0  0
  -21.4005   -6.5625   23.8215 C   0  0  0  0  0  0
  -21.3668   -5.6780   24.9187 C   0  0  0  0  0  0
  -21.6045   -4.3048   24.7228 C   0  0  0  0  0  0
  -21.8809   -3.8137   23.4345 C   0  0  0  0  0  0
  -21.9187   -4.6963   22.3395 C   0  0  0  0  0  0
  -22.7860  -13.5242   21.1842 C   0  0  0  0  0  0
  -22.1659   -4.2149   21.0966 F   0  0  0  0  0  0
  -21.5636   -3.4528   25.7738 F   0  0  0  0  0  0
  -30.0255  -13.3236   20.4678 N   0  0  0  0  0  0
  -26.2997  -12.9350   20.3370 N   0  0  0  0  0  0
  -25.9293  -11.6483   20.5722 N   0  0  0  0  0  0
  -22.0532  -12.8260   22.0422 N   0  0  0  0  0  0
  -25.4334  -15.1888   20.4115 N   0  0  0  0  0  0
  -31.7789  -14.7221   20.0393 O   0  0  0  0  0  0
  -21.6629   -6.8876   21.4233 O   0  0  0  0  0  0
  -22.3577  -14.5584   20.6718 O   0  0  0  0  0  0
  -24.6151  -31.8626   23.2129 C   0  0  0  0  0  0
  -25.9030  -32.4777   23.8460 C   0  0  1  0  0  0
  -27.2288  -27.3860   20.1151 C   0  0  0  0  0  0
  -25.5876  -33.8592   24.2328 N   0  0  0  0  0  0
  -23.4072  -30.4831   21.5518 C   0  0  2  0  0  0
  -24.8579  -28.9442   20.1164 C   0  0  0  0  0  0
  -22.7450  -29.4596   22.5012 C   0  0  0  0  0  0
  -18.0263  -28.1306   22.8507 C   0  0  0  0  0  0
  -24.1477  -36.7330   23.2663 C   0  0  0  0  0  0
  -25.9432  -30.8088   21.3815 C   0  0  0  0  0  0
  -26.0211  -29.4455   20.7176 C   0  0  0  0  0  0
  -27.2111  -28.6757   20.7087 C   0  0  0  0  0  0
  -26.0498  -26.9113   19.5002 C   0  0  0  0  0  0
  -24.8701  -27.6809   19.5026 C   0  0  0  0  0  0
  -23.6221  -29.8164   20.1687 C   0  0  0  0  0  0
  -25.4103  -36.3099   24.0327 C   0  0  1  0  0  0
  -20.5861  -28.3602   23.1327 C   0  0  2  0  0  0
  -20.6736  -26.9328   22.5438 C   0  0  0  0  0  0
  -19.5711  -26.6320   21.5215 C   0  0  0  0  0  0
  -18.1882  -26.7873   22.1616 C   0  0  0  0  0  0
  -19.1506  -28.8776   23.2910 C   0  0  0  0  0  0
  -18.9455  -30.1382   23.8901 C   0  0  0  0  0  0
  -17.6467  -30.6550   24.0531 C   0  0  0  0  0  0
  -25.9014  -34.9446   23.5117 C   0  0  0  0  0  0
  -16.5361  -29.9027   23.6336 C   0  0  0  0  0  0
  -16.7257  -28.6426   23.0405 C   0  0  0  0  0  0
  -26.4467  -31.6640   25.0826 C   0  0  0  0  0  0
  -25.3740  -31.3690   26.1575 C   0  0  0  0  0  0
  -27.0405  -30.3121   24.6271 C   0  0  0  0  0  0
  -27.5984  -32.4462   25.7583 C   0  0  0  0  0  0
  -27.5557  -37.1811   24.8483 C   0  0  0  0  0  0
  -21.4164  -29.2987   22.3773 N   0  0  0  0  0  0
  -26.4311  -37.3761   23.9365 N   0  0  0  0  0  0
  -24.6711  -31.0698   22.1044 N   0  0  0  0  0  0
  -23.4226  -28.8120   23.3014 O   0  0  0  0  0  0
  -28.3664  -26.5950   20.1145 O   0  0  0  0  0  0
  -26.5635  -34.8902   22.4722 O   0  0  0  0  0  0
  -23.5321  -32.1417   23.7471 O   0  0  0  0  0  0
  -29.4123  -18.1864   21.2701 C   0  0  0  0  0  0
  -29.0384  -19.0067   20.1590 C   0  0  0  0  0  0
  -29.7449  -16.9354   20.7982 C   0  0  0  0  0  0
  -29.1691  -18.1859   19.0596 C   0  0  0  0  0  0
  -30.0547  -15.6368   21.4488 C   0  0  0  0  0  0
  -27.9082  -17.2544   17.0396 C   0  0  0  0  0  0
  -28.8903  -18.3181   17.5907 C   0  0  0  0  0  0
  -28.7897  -24.0608   19.9474 C   0  0  0  0  0  0
  -28.6976  -22.7027   20.7256 C   0  0  0  0  0  0
  -28.2335  -25.2923   20.7493 C   0  0  0  0  0  0
  -29.4004  -21.4303   20.1211 C   0  0  0  0  0  0
  -29.8304  -15.4929   22.6896 N   0  0  0  0  0  0
  -29.6299  -16.9481   19.4368 O   0  0  0  0  0  0
  -28.5149  -20.2916   20.2280 O   0  0  0  0  0  0
  -31.4612  -12.4443   19.1357 H   0  0  0  0  0  0
  -30.3154  -11.3312   19.8213 H   0  0  0  0  0  0
  -29.7466  -11.8514   17.4191 H   0  0  0  0  0  0
  -29.6474  -13.5535   17.8043 H   0  0  0  0  0  0
  -27.8285  -11.3299   18.7980 H   0  0  0  0  0  0
  -27.3673  -12.6791   17.7892 H   0  0  0  0  0  0
  -27.7049  -14.2649   19.6018 H   0  0  0  0  0  0
  -28.6857  -11.9381   21.3174 H   0  0  0  0  0  0
  -28.4166  -13.5414   21.8940 H   0  0  0  0  0  0
  -25.2715   -9.5757   22.4754 H   0  0  0  0  0  0
  -23.9980   -7.4693   22.7503 H   0  0  0  0  0  0
  -21.0805   -8.8774   19.8956 H   0  0  0  0  0  0
  -22.3604  -10.9705   19.6198 H   0  0  0  0  0  0
  -21.1992   -7.6144   23.9706 H   0  0  0  0  0  0
  -21.1499   -6.0517   25.9078 H   0  0  0  0  0  0
  -22.0575   -2.7595   23.2831 H   0  0  0  0  0  0
  -22.4138  -11.9866   22.4747 H   0  0  0  0  0  0
  -21.1202  -13.1353   22.2717 H   0  0  0  0  0  0
  -24.6689  -15.8468   20.5064 H   0  0  0  0  0  0
  -26.2934  -15.6204   20.1034 H   0  0  0  0  0  0
  -26.7073  -32.5465   23.1203 H   0  0  0  0  0  0
  -24.9965  -33.9761   25.0443 H   0  0  0  0  0  0
  -22.6950  -31.2981   21.4108 H   0  0  0  0  0  0
  -23.3733  -35.9678   23.3338 H   0  0  0  0  0  0
  -24.3543  -36.8985   22.2083 H   0  0  0  0  0  0
  -23.7264  -37.6518   23.6751 H   0  0  0  0  0  0
  -26.0859  -31.5851   20.6291 H   0  0  0  0  0  0
  -26.8193  -30.8461   22.0182 H   0  0  0  0  0  0
  -28.1085  -29.0559   21.1809 H   0  0  0  0  0  0
  -26.0479  -25.9419   19.0235 H   0  0  0  0  0  0
  -23.9753  -27.2932   19.0329 H   0  0  0  0  0  0
  -23.7305  -30.5931   19.4095 H   0  0  0  0  0  0
  -22.7491  -29.2331   19.8703 H   0  0  0  0  0  0
  -25.1283  -36.1985   25.0830 H   0  0  0  0  0  0
  -20.9891  -28.3128   24.1461 H   0  0  0  0  0  0
  -20.5565  -26.2191   23.3612 H   0  0  0  0  0  0
  -21.6597  -26.7290   22.1260 H   0  0  0  0  0  0
  -19.6840  -25.6215   21.1274 H   0  0  0  0  0  0
  -19.6645  -27.3070   20.6692 H   0  0  0  0  0  0
  -17.4164  -26.6666   21.4014 H   0  0  0  0  0  0
  -18.0209  -25.9988   22.8945 H   0  0  0  0  0  0
  -19.7935  -30.7177   24.2295 H   0  0  0  0  0  0
  -17.5051  -31.6237   24.5101 H   0  0  0  0  0  0
  -15.5355  -30.2950   23.7656 H   0  0  0  0  0  0
  -15.8661  -28.0717   22.7182 H   0  0  0  0  0  0
  -24.5999  -30.6910   25.7958 H   0  0  0  0  0  0
  -24.8821  -32.2778   26.5043 H   0  0  0  0  0  0
  -25.8166  -30.8939   27.0343 H   0  0  0  0  0  0
  -26.2993  -29.6794   24.1368 H   0  0  0  0  0  0
  -27.4228  -29.7448   25.4774 H   0  0  0  0  0  0
  -27.8796  -30.4504   23.9452 H   0  0  0  0  0  0
  -27.2536  -33.3765   26.2130 H   0  0  0  0  0  0
  -28.3780  -32.7041   25.0399 H   0  0  0  0  0  0
  -28.0696  -31.8673   26.5533 H   0  0  0  0  0  0
  -28.2618  -38.0066   24.7479 H   0  0  0  0  0  0
  -28.1015  -36.2588   24.6405 H   0  0  0  0  0  0
  -27.2269  -37.1603   25.8894 H   0  0  0  0  0  0
  -20.9359  -29.8821   21.7087 H   0  0  0  0  0  0
  -26.0206  -38.2853   24.1320 H   0  0  0  0  0  0
  -29.3788  -18.4663   22.3142 H   0  0  0  0  0  0
  -27.7448  -17.3766   15.9672 H   0  0  0  0  0  0
  -26.9328  -17.3213   17.5218 H   0  0  0  0  0  0
  -28.2760  -16.2374   17.1843 H   0  0  0  0  0  0
  -29.8302  -18.2483   17.0393 H   0  0  0  0  0  0
  -28.4993  -19.3175   17.3891 H   0  0  0  0  0  0
  -28.2423  -23.9661   19.0085 H   0  0  0  0  0  0
  -29.8270  -24.2433   19.6743 H   0  0  0  0  0  0
  -27.6416  -22.4740   20.8758 H   0  0  0  0  0  0
  -29.0877  -22.8537   21.7351 H   0  0  0  0  0  0
  -28.7752  -25.3600   21.6960 H   0  0  0  0  0  0
  -27.2016  -25.0897   21.0472 H   0  0  0  0  0  0
  -30.3461  -21.2554   20.6497 H   0  0  0  0  0  0
  -29.6614  -21.5803   19.0672 H   0  0  0  0  0  0
  -29.4154  -16.3382   23.0664 H   0  0  0  0  0  0
  1 25  1  0  0  0
  1 30  2  0  0  0
  1 75  1  0  0  0
  2  3  1  0  0  0
  2 25  1  0  0  0
  2 85  1  0  0  0
  2 86  1  0  0  0
  3  4  1  0  0  0
  3 87  1  0  0  0
  3 88  1  0  0  0
  4  5  1  0  0  0
  4 89  1  0  0  0
  4 90  1  0  0  0
  5  6  1  0  0  0
  5 26  1  0  0  0
  5 91  1  0  0  0
  6 25  1  0  0  0
  6 92  1  0  0  0
  6 93  1  0  0  0
  7  8  2  0  0  0
  7 26  1  0  0  0
  7 29  1  0  0  0
  8  9  1  0  0  0
  8 22  1  0  0  0
  9 10  1  0  0  0
  9 27  2  0  0  0
 10 11  2  0  0  0
 10 15  1  0  0  0
 11 12  1  0  0  0
 11 94  1  0  0  0
 12 13  2  0  0  0
 12 95  1  0  0  0
 13 14  1  0  0  0
 13 31  1  0  0  0
 14 15  2  0  0  0
 14 96  1  0  0  0
 15 97  1  0  0  0
 16 17  2  0  0  0
 16 21  1  0  0  0
 16 31  1  0  0  0
 17 18  1  0  0  0
 17 98  1  0  0  0
 18 19  2  0  0  0
 18 99  1  0  0  0
 19 20  1  0  0  0
 19 24  1  0  0  0
 20 21  2  0  0  0
 20100  1  0  0  0
 21 23  1  0  0  0
 22 28  1  0  0  0
 22 32  2  0  0  0
 26 27  1  0  0  0
 28101  1  0  0  0
 28102  1  0  0  0
 29103  1  0  0  0
 29104  1  0  0  0
 33 34  1  0  0  0
 33 66  1  0  0  0
 33 70  2  0  0  0
 34 36  1  0  0  0
 34 59  1  0  0  0
 34105  1  0  0  0
 35 44  2  0  0  0
 35 45  1  0  0  0
 35 68  1  0  0  0
 36 56  1  0  0  0
 36106  1  0  0  0
 37 39  1  0  0  0
 37 47  1  0  0  0
 37 66  1  0  0  0
 37107  1  0  0  0
 38 43  2  0  0  0
 38 46  1  0  0  0
 38 47  1  0  0  0
 39 64  1  0  0  0
 39 67  2  0  0  0
 40 52  1  0  0  0
 40 53  2  0  0  0
 40 58  1  0  0  0
 41108  1  0  0  0
 41109  1  0  0  0
 41110  1  0  0  0
 41 48  1  0  0  0
 42 43  1  0  0  0
 42 66  1  0  0  0
 42111  1  0  0  0
 42112  1  0  0  0
 43 44  1  0  0  0
 44113  1  0  0  0
 45 46  2  0  0  0
 45114  1  0  0  0
 46115  1  0  0  0
 47116  1  0  0  0
 47117  1  0  0  0
 48 56  1  0  0  0
 48 65  1  0  0  0
 48118  1  0  0  0
 49 50  1  0  0  0
 49 53  1  0  0  0
 49 64  1  0  0  0
 49119  1  0  0  0
 50 51  1  0  0  0
 50120  1  0  0  0
 50121  1  0  0  0
 51 52  1  0  0  0
 51122  1  0  0  0
 51123  1  0  0  0
 52124  1  0  0  0
 52125  1  0  0  0
 53 54  1  0  0  0
 54 55  2  0  0  0
 54126  1  0  0  0
 55 57  1  0  0  0
 55127  1  0  0  0
 56 69  2  0  0  0
 57 58  2  0  0  0
 57128  1  0  0  0
 58129  1  0  0  0
 59 60  1  0  0  0
 59 61  1  0  0  0
 59 62  1  0  0  0
 60130  1  0  0  0
 60131  1  0  0  0
 60132  1  0  0  0
 61133  1  0  0  0
 61134  1  0  0  0
 61135  1  0  0  0
 62136  1  0  0  0
 62137  1  0  0  0
 62138  1  0  0  0
 63 65  1  0  0  0
 63139  1  0  0  0
 63140  1  0  0  0
 63141  1  0  0  0
 64142  1  0  0  0
 65143  1  0  0  0
 68 80  1  0  0  0
 71 72  1  0  0  0
 71 73  2  0  0  0
 71144  1  0  0  0
 72 74  2  0  0  0
 72 84  1  0  0  0
 73 75  1  0  0  0
 73 83  1  0  0  0
 74 77  1  0  0  0
 74 83  1  0  0  0
 75 82  2  0  0  0
 76 77  1  0  0  0
 76145  1  0  0  0
 76146  1  0  0  0
 76147  1  0  0  0
 77148  1  0  0  0
 77149  1  0  0  0
 78 79  1  0  0  0
 78 80  1  0  0  0
 78150  1  0  0  0
 78151  1  0  0  0
 79 81  1  0  0  0
 79152  1  0  0  0
 79153  1  0  0  0
 80154  1  0  0  0
 80155  1  0  0  0
 81 84  1  0  0  0
 81156  1  0  0  0
 81157  1  0  0  0
 82158  1  0  0  0
M  ISO  4   1 100  68 101  75 100  80 101
M  END
> <chiral flag>
0

> <version>
0

> <s_m_source_file>
/data/baiqing/PycharmProjects/Reinvent-master-3.2/result/LINK_invent/BTK/process_docking_weight1_custom_product_contain_oxygen_bond_distance_aromatic_linkinvent_7_9_3/rearranged_h_0109.sdf

> <i_m_source_file_index>
56

> <r_mmod_Potential_Energy-OPLS-2005>
127.481246948242

> <r_mmod_Stretch_Energy-OPLS-2005>
53.0674629211426

> <r_mmod_Bend_Energy-OPLS-2005>
114.657783508301

> <r_mmod_Torsional_Energy-OPLS-2005>
251.42253112793

> <r_mmod_Improper_Torsional_Energy-OPLS-2005>
3.30830216407776

> <r_mmod_Van_der_Waal_Energy-OPLS-2005>
114.792709350586

> <r_mmod_Electrostatic_Energy-OPLS-2005>
-233.2041015625

> <r_mmod_Solvation_Energy-OPLS-2005>
-195.862640380859

> <b_mmod_Minimization_Converged-OPLS-2005>
0

> <r_mmod_RMS_Derivative-OPLS-2005>
6.15662527084351

$$$$
56
                    3D
 Structure written by MMmdl.
156165  0  0  1  0            999 V2000
  -30.5507  -14.8741   20.4320 C   0  0  0  0  0  0
  -30.4472  -12.5389   19.4775 C   0  0  0  0  0  0
  -29.5186  -12.5178   18.2412 C   0  0  0  0  0  0
  -28.0484  -12.3172   18.6598 C   0  0  0  0  0  0
  -27.6351  -13.2361   19.8392 C   0  0  2  0  0  0
  -28.6826  -13.2214   20.9729 C   0  0  0  0  0  0
  -25.2484  -13.8191   20.5681 C   0  0  0  0  0  0
  -24.1793  -13.0429   20.9226 C   0  0  0  0  0  0
  -24.6395  -11.6911   20.8755 C   0  0  0  0  0  0
  -23.9072  -10.4288   21.0412 C   0  0  0  0  0  0
  -24.3620   -9.4202   21.9187 C   0  0  0  0  0  0
  -23.6292   -8.2239   22.0753 C   0  0  0  0  0  0
  -22.4275   -8.0279   21.3545 C   0  0  0  0  0  0
  -21.9909   -9.0255   20.4651 C   0  0  0  0  0  0
  -22.7242  -10.2130   20.3063 C   0  0  0  0  0  0
  -21.6852   -6.0733   22.5277 C   0  0  0  0  0  0
  -21.4015   -6.5636   23.8210 C   0  0  0  0  0  0
  -21.3660   -5.6790   24.9174 C   0  0  0  0  0  0
  -21.6043   -4.3054   24.7224 C   0  0  0  0  0  0
  -21.8819   -3.8147   23.4345 C   0  0  0  0  0  0
  -21.9192   -4.6961   22.3401 C   0  0  0  0  0  0
  -22.7814  -13.5211   21.1879 C   0  0  0  0  0  0
  -22.1662   -4.2150   21.0977 F   0  0  0  0  0  0
  -21.5627   -3.4537   25.7736 F   0  0  0  0  0  0
  -29.9666  -13.6171   20.3783 N   0  0  0  0  0  0
  -26.2909  -12.9405   20.3238 N   0  0  0  0  0  0
  -25.9324  -11.6544   20.5739 N   0  0  0  0  0  0
  -22.0463  -12.8204   22.0441 N   0  0  0  0  0  0
  -25.4128  -15.1917   20.4049 N   0  0  0  0  0  0
  -31.7603  -14.9735   20.1971 O   0  0  0  0  0  0
  -21.6640   -6.8875   21.4239 O   0  0  0  0  0  0
  -22.3502  -14.5516   20.6720 O   0  0  0  0  0  0
  -24.6419  -31.8487   23.1938 C   0  0  0  0  0  0
  -25.9205  -32.4720   23.8311 C   0  0  1  0  0  0
  -27.2171  -27.1723   20.1244 C   0  0  0  0  0  0
  -25.5964  -33.8522   24.2228 N   0  0  0  0  0  0
  -23.4429  -30.4733   21.5396 C   0  0  2  0  0  0
  -24.8893  -28.9144   20.1098 C   0  0  0  0  0  0
  -22.7568  -29.4571   22.4873 C   0  0  0  0  0  0
  -18.0308  -28.1394   22.8473 C   0  0  0  0  0  0
  -24.1488  -36.7262   23.2638 C   0  0  0  0  0  0
  -25.9998  -30.7329   21.3886 C   0  0  0  0  0  0
  -26.0703  -29.3505   20.7236 C   0  0  0  0  0  0
  -27.2340  -28.4951   20.7189 C   0  0  0  0  0  0
  -25.9910  -26.8264   19.5018 C   0  0  0  0  0  0
  -24.8600  -27.6625   19.4874 C   0  0  0  0  0  0
  -23.6674  -29.8142   20.1553 C   0  0  0  0  0  0
  -25.4116  -36.3042   24.0320 C   0  0  1  0  0  0
  -20.5921  -28.3717   23.1235 C   0  0  2  0  0  0
  -20.6794  -26.9424   22.5393 C   0  0  0  0  0  0
  -19.5764  -26.6381   21.5203 C   0  0  0  0  0  0
  -18.1949  -26.7931   22.1623 C   0  0  0  0  0  0
  -19.1565  -28.8874   23.2848 C   0  0  0  0  0  0
  -18.9480  -30.1470   23.8875 C   0  0  0  0  0  0
  -17.6475  -30.6588   24.0559 C   0  0  0  0  0  0
  -25.9069  -34.9419   23.5079 C   0  0  0  0  0  0
  -16.5366  -29.9079   23.6332 C   0  0  0  0  0  0
  -16.7292  -28.6501   23.0347 C   0  0  0  0  0  0
  -26.4529  -31.6568   25.0737 C   0  0  0  0  0  0
  -25.3725  -31.3764   26.1445 C   0  0  0  0  0  0
  -27.0378  -30.2962   24.6296 C   0  0  0  0  0  0
  -27.6070  -32.4324   25.7516 C   0  0  0  0  0  0
  -27.5576  -37.1786   24.8461 C   0  0  0  0  0  0
  -21.4264  -29.3050   22.3617 N   0  0  0  0  0  0
  -26.4281  -37.3753   23.9413 N   0  0  0  0  0  0
  -24.7149  -31.0379   22.0958 N   0  0  0  0  0  0
  -23.4226  -28.8105   23.3000 O   0  0  0  0  0  0
  -28.2650  -26.1839   20.1999 O   0  0  0  0  0  0
  -26.5646  -34.8910   22.4650 O   0  0  0  0  0  0
  -23.5543  -32.1347   23.7172 O   0  0  0  0  0  0
  -28.9695  -18.4210   20.0754 C   0  0  0  0  0  0
  -29.5298  -19.7422   20.4072 C   0  0  0  0  0  0
  -29.8604  -17.4203   20.5080 C   0  0  0  0  0  0
  -28.4823  -23.5531   19.6035 C   0  0  0  0  0  0
  -28.1479  -24.9270   19.4898 C   0  0  0  0  0  0
  -30.6969  -22.8860   20.6405 C   0  0  0  0  0  0
  -28.0356  -22.6276   18.4782 C   0  0  0  0  0  0
  -28.0165  -21.1674   18.9935 C   0  0  0  0  0  0
  -29.2062  -22.5129   20.5804 C   0  0  2  0  0  0
  -31.1108  -23.8932   21.7033 C   0  0  0  0  0  0
  -30.6861  -19.5276   21.0412 N   0  0  0  0  0  0
  -30.8915  -18.1564   21.0729 N   0  0  0  0  0  0
  -28.9689  -21.0719   20.0895 N   0  0  0  0  0  0
  -29.7033  -15.9993   20.4806 N   0  0  0  0  0  0
  -31.5432  -22.4489   19.8550 O   0  0  0  0  0  0
  -31.4806  -12.7003   19.1661 H   0  0  0  0  0  0
  -30.4335  -11.5761   19.9904 H   0  0  0  0  0  0
  -29.8225  -11.7278   17.5531 H   0  0  0  0  0  0
  -29.6182  -13.4557   17.6924 H   0  0  0  0  0  0
  -27.9294  -11.2725   18.9491 H   0  0  0  0  0  0
  -27.3873  -12.4734   17.8066 H   0  0  0  0  0  0
  -27.6086  -14.2454   19.4284 H   0  0  0  0  0  0
  -28.7525  -12.2328   21.4288 H   0  0  0  0  0  0
  -28.3969  -13.9086   21.7712 H   0  0  0  0  0  0
  -25.2764   -9.5673   22.4763 H   0  0  0  0  0  0
  -24.0001   -7.4627   22.7468 H   0  0  0  0  0  0
  -21.0839   -8.8773   19.8958 H   0  0  0  0  0  0
  -22.3699  -10.9668   19.6175 H   0  0  0  0  0  0
  -21.2010   -7.6143   23.9710 H   0  0  0  0  0  0
  -21.1483   -6.0524   25.9076 H   0  0  0  0  0  0
  -22.0597   -2.7609   23.2848 H   0  0  0  0  0  0
  -22.4082  -11.9871   22.4836 H   0  0  0  0  0  0
  -21.1081  -13.1226   22.2645 H   0  0  0  0  0  0
  -24.6308  -15.8315   20.4951 H   0  0  0  0  0  0
  -26.2328  -15.6296   20.0080 H   0  0  0  0  0  0
  -26.7274  -32.5336   23.1046 H   0  0  0  0  0  0
  -25.0100  -33.9644   25.0369 H   0  0  0  0  0  0
  -22.7437  -31.2992   21.3926 H   0  0  0  0  0  0
  -23.3757  -35.9585   23.3278 H   0  0  0  0  0  0
  -24.3582  -36.8912   22.2058 H   0  0  0  0  0  0
  -23.7237  -37.6450   23.6686 H   0  0  0  0  0  0
  -26.1548  -31.4922   20.6208 H   0  0  0  0  0  0
  -26.8708  -30.7769   22.0310 H   0  0  0  0  0  0
  -28.1323  -28.8233   21.2223 H   0  0  0  0  0  0
  -25.8374  -25.8587   19.0511 H   0  0  0  0  0  0
  -23.9523  -27.3146   19.0133 H   0  0  0  0  0  0
  -23.8069  -30.5943   19.4056 H   0  0  0  0  0  0
  -22.7812  -29.2609   19.8393 H   0  0  0  0  0  0
  -25.1296  -36.1873   25.0811 H   0  0  0  0  0  0
  -21.0006  -28.3298   24.1358 H   0  0  0  0  0  0
  -20.5682  -26.2330   23.3610 H   0  0  0  0  0  0
  -21.6663  -26.7435   22.1196 H   0  0  0  0  0  0
  -19.6925  -25.6287   21.1248 H   0  0  0  0  0  0
  -19.6691  -27.3180   20.6724 H   0  0  0  0  0  0
  -17.4209  -26.6662   21.4038 H   0  0  0  0  0  0
  -18.0363  -26.0085   22.9036 H   0  0  0  0  0  0
  -19.7955  -30.7291   24.2238 H   0  0  0  0  0  0
  -17.5026  -31.6264   24.5169 H   0  0  0  0  0  0
  -15.5364  -30.2966   23.7673 H   0  0  0  0  0  0
  -15.8697  -28.0811   22.7068 H   0  0  0  0  0  0
  -24.5859  -30.7168   25.7763 H   0  0  0  0  0  0
  -24.8974  -32.2957   26.4875 H   0  0  0  0  0  0
  -25.8006  -30.8909   27.0223 H   0  0  0  0  0  0
  -26.2983  -29.6701   24.1291 H   0  0  0  0  0  0
  -27.3981  -29.7248   25.4860 H   0  0  0  0  0  0
  -27.8903  -30.4199   23.9616 H   0  0  0  0  0  0
  -27.2671  -33.3634   26.2067 H   0  0  0  0  0  0
  -28.3896  -32.6869   25.0356 H   0  0  0  0  0  0
  -28.0722  -31.8468   26.5457 H   0  0  0  0  0  0
  -28.2575  -38.0099   24.7512 H   0  0  0  0  0  0
  -28.1091  -36.2630   24.6269 H   0  0  0  0  0  0
  -27.2305  -37.1414   25.8867 H   0  0  0  0  0  0
  -20.9469  -29.8774   21.6813 H   0  0  0  0  0  0
  -26.0149  -38.2819   24.1420 H   0  0  0  0  0  0
  -28.0271  -18.2405   19.5788 H   0  0  0  0  0  0
  -27.6912  -25.1544   18.5382 H   0  0  0  0  0  0
  -28.7692  -22.7126   17.6751 H   0  0  0  0  0  0
  -27.0691  -22.9192   18.0637 H   0  0  0  0  0  0
  -28.2483  -20.4676   18.1884 H   0  0  0  0  0  0
  -27.0260  -20.9129   19.3742 H   0  0  0  0  0  0
  -28.7705  -22.6155   21.5746 H   0  0  0  0  0  0
  -30.4975  -23.7792   22.5963 H   0  0  0  0  0  0
  -30.9863  -24.9078   21.3259 H   0  0  0  0  0  0
  -32.1541  -23.7489   21.9826 H   0  0  0  0  0  0
  -31.7138  -17.7449   21.5064 H   0  0  0  0  0  0
  -28.7379  -15.7138   20.4678 H   0  0  0  0  0  0
  1 25  1  0  0  0
  1 30  2  0  0  0
  1 84  1  0  0  0
  2  3  1  0  0  0
  2 25  1  0  0  0
  2 86  1  0  0  0
  2 87  1  0  0  0
  3  4  1  0  0  0
  3 88  1  0  0  0
  3 89  1  0  0  0
  4  5  1  0  0  0
  4 90  1  0  0  0
  4 91  1  0  0  0
  5  6  1  0  0  0
  5 26  1  0  0  0
  5 92  1  0  0  0
  6 25  1  0  0  0
  6 93  1  0  0  0
  6 94  1  0  0  0
  7  8  2  0  0  0
  7 26  1  0  0  0
  7 29  1  0  0  0
  8  9  1  0  0  0
  8 22  1  0  0  0
  9 10  1  0  0  0
  9 27  2  0  0  0
 10 11  2  0  0  0
 10 15  1  0  0  0
 11 12  1  0  0  0
 11 95  1  0  0  0
 12 13  2  0  0  0
 12 96  1  0  0  0
 13 14  1  0  0  0
 13 31  1  0  0  0
 14 15  2  0  0  0
 14 97  1  0  0  0
 15 98  1  0  0  0
 16 17  2  0  0  0
 16 21  1  0  0  0
 16 31  1  0  0  0
 17 18  1  0  0  0
 17 99  1  0  0  0
 18 19  2  0  0  0
 18100  1  0  0  0
 19 20  1  0  0  0
 19 24  1  0  0  0
 20 21  2  0  0  0
 20101  1  0  0  0
 21 23  1  0  0  0
 22 28  1  0  0  0
 22 32  2  0  0  0
 26 27  1  0  0  0
 28102  1  0  0  0
 28103  1  0  0  0
 29104  1  0  0  0
 29105  1  0  0  0
 33 34  1  0  0  0
 33 66  1  0  0  0
 33 70  2  0  0  0
 34 36  1  0  0  0
 34 59  1  0  0  0
 34106  1  0  0  0
 35 44  2  0  0  0
 35 45  1  0  0  0
 35 68  1  0  0  0
 36 56  1  0  0  0
 36107  1  0  0  0
 37 39  1  0  0  0
 37 47  1  0  0  0
 37 66  1  0  0  0
 37108  1  0  0  0
 38 43  2  0  0  0
 38 46  1  0  0  0
 38 47  1  0  0  0
 39 64  1  0  0  0
 39 67  2  0  0  0
 40 52  1  0  0  0
 40 53  2  0  0  0
 40 58  1  0  0  0
 41109  1  0  0  0
 41110  1  0  0  0
 41111  1  0  0  0
 41 48  1  0  0  0
 42 43  1  0  0  0
 42 66  1  0  0  0
 42112  1  0  0  0
 42113  1  0  0  0
 43 44  1  0  0  0
 44114  1  0  0  0
 45 46  2  0  0  0
 45115  1  0  0  0
 46116  1  0  0  0
 47117  1  0  0  0
 47118  1  0  0  0
 48 56  1  0  0  0
 48 65  1  0  0  0
 48119  1  0  0  0
 49 50  1  0  0  0
 49 53  1  0  0  0
 49 64  1  0  0  0
 49120  1  0  0  0
 50 51  1  0  0  0
 50121  1  0  0  0
 50122  1  0  0  0
 51 52  1  0  0  0
 51123  1  0  0  0
 51124  1  0  0  0
 52125  1  0  0  0
 52126  1  0  0  0
 53 54  1  0  0  0
 54 55  2  0  0  0
 54127  1  0  0  0
 55 57  1  0  0  0
 55128  1  0  0  0
 56 69  2  0  0  0
 57 58  2  0  0  0
 57129  1  0  0  0
 58130  1  0  0  0
 59 60  1  0  0  0
 59 61  1  0  0  0
 59 62  1  0  0  0
 60131  1  0  0  0
 60132  1  0  0  0
 60133  1  0  0  0
 61134  1  0  0  0
 61135  1  0  0  0
 61136  1  0  0  0
 62137  1  0  0  0
 62138  1  0  0  0
 62139  1  0  0  0
 63 65  1  0  0  0
 63140  1  0  0  0
 63141  1  0  0  0
 63142  1  0  0  0
 64143  1  0  0  0
 65144  1  0  0  0
 68 75  1  0  0  0
 71 72  1  0  0  0
 71 73  2  0  0  0
 71145  1  0  0  0
 72 81  2  0  0  0
 72 83  1  0  0  0
 73 82  1  0  0  0
 73 84  1  0  0  0
 74 75  2  0  0  0
 74 77  1  0  0  0
 74 79  1  0  0  0
 75146  1  0  0  0
 76 80  1  0  0  0
 76 85  2  0  0  0
 76 79  1  0  0  0
 77 78  1  0  0  0
 77147  1  0  0  0
 77148  1  0  0  0
 78 83  1  0  0  0
 78149  1  0  0  0
 78150  1  0  0  0
 79 83  1  0  0  0
 79151  1  0  0  0
 80152  1  0  0  0
 80153  1  0  0  0
 80154  1  0  0  0
 81 82  1  0  0  0
 82155  1  0  0  0
 84156  1  0  0  0
M  ISO  4   1 100  68 101  75 101  84 100
M  END
> <chiral flag>
0

> <version>
0

> <s_m_source_file>
/data/baiqing/PycharmProjects/Reinvent-master-3.2/result/LINK_invent/BTK/process_docking_weight1_custom_product_contain_oxygen_bond_distance_aromatic_linkinvent_7_9_3/rearranged_h_0109.sdf

> <i_m_source_file_index>
57

> <r_mmod_Potential_Energy-OPLS-2005>
299.458465576172

> <r_mmod_Stretch_Energy-OPLS-2005>
164.269714355469

> <r_mmod_Bend_Energy-OPLS-2005>
322.881774902344

> <r_mmod_Torsional_Energy-OPLS-2005>
224.706420898438

> <r_mmod_Improper_Torsional_Energy-OPLS-2005>
7.48215007781982

> <r_mmod_Van_der_Waal_Energy-OPLS-2005>
114.147651672363

> <r_mmod_Electrostatic_Energy-OPLS-2005>
-419.356903076172

> <r_mmod_Solvation_Energy-OPLS-2005>
-271.279205322266

> <b_mmod_Minimization_Converged-OPLS-2005>
0

> <r_mmod_RMS_Derivative-OPLS-2005>
0.722172558307648

$$$$
57
                    3D
 Structure written by MMmdl.
162170  0  0  1  0            999 V2000
  -30.7510  -14.4472   20.5893 C   0  0  0  0  0  0
  -30.4080  -12.3020   19.4211 C   0  0  0  0  0  0
  -29.4844  -12.4907   18.2036 C   0  0  0  0  0  0
  -28.0087  -12.3531   18.6237 C   0  0  0  0  0  0
  -27.6546  -13.2101   19.8688 C   0  0  2  0  0  0
  -28.6988  -13.0238   20.9924 C   0  0  0  0  0  0
  -25.2561  -13.8159   20.5699 C   0  0  0  0  0  0
  -24.1818  -13.0440   20.9209 C   0  0  0  0  0  0
  -24.6368  -11.6906   20.8749 C   0  0  0  0  0  0
  -23.9024  -10.4292   21.0401 C   0  0  0  0  0  0
  -24.3577   -9.4207   21.9181 C   0  0  0  0  0  0
  -23.6269   -8.2233   22.0748 C   0  0  0  0  0  0
  -22.4252   -8.0260   21.3538 C   0  0  0  0  0  0
  -21.9879   -9.0229   20.4637 C   0  0  0  0  0  0
  -22.7191  -10.2120   20.3057 C   0  0  0  0  0  0
  -21.6855   -6.0713   22.5268 C   0  0  0  0  0  0
  -21.4010   -6.5622   23.8196 C   0  0  0  0  0  0
  -21.3666   -5.6782   24.9166 C   0  0  0  0  0  0
  -21.6048   -4.3045   24.7219 C   0  0  0  0  0  0
  -21.8826   -3.8129   23.4346 C   0  0  0  0  0  0
  -21.9198   -4.6942   22.3397 C   0  0  0  0  0  0
  -22.7842  -13.5239   21.1860 C   0  0  0  0  0  0
  -22.1666   -4.2123   21.0978 F   0  0  0  0  0  0
  -21.5636   -3.4536   25.7740 F   0  0  0  0  0  0
  -30.0240  -13.3092   20.4230 N   0  0  0  0  0  0
  -26.2984  -12.9337   20.3366 N   0  0  0  0  0  0
  -25.9297  -11.6491   20.5782 N   0  0  0  0  0  0
  -22.0479  -12.8235   22.0417 N   0  0  0  0  0  0
  -25.4306  -15.1860   20.4053 N   0  0  0  0  0  0
  -31.8994  -14.5435   20.1443 O   0  0  0  0  0  0
  -21.6638   -6.8848   21.4224 O   0  0  0  0  0  0
  -22.3536  -14.5547   20.6705 O   0  0  0  0  0  0
  -24.6125  -31.8697   23.2119 C   0  0  0  0  0  0
  -25.9026  -32.4827   23.8408 C   0  0  1  0  0  0
  -27.2291  -27.4504   20.0956 C   0  0  0  0  0  0
  -25.5895  -33.8621   24.2339 N   0  0  0  0  0  0
  -23.3991  -30.4926   21.5518 C   0  0  2  0  0  0
  -24.8461  -28.9600   20.1165 C   0  0  0  0  0  0
  -22.7408  -29.4659   22.5014 C   0  0  0  0  0  0
  -18.0271  -28.1369   22.8493 C   0  0  0  0  0  0
  -24.1489  -36.7320   23.2637 C   0  0  0  0  0  0
  -25.9243  -30.8397   21.3617 C   0  0  0  0  0  0
  -26.0031  -29.4710   20.7196 C   0  0  0  0  0  0
  -27.1986  -28.7187   20.7183 C   0  0  0  0  0  0
  -26.0641  -26.9536   19.4802 C   0  0  0  0  0  0
  -24.8691  -27.6975   19.4991 C   0  0  0  0  0  0
  -23.6061  -29.8239   20.1659 C   0  0  0  0  0  0
  -25.4105  -36.3114   24.0341 C   0  0  1  0  0  0
  -20.5859  -28.3644   23.1340 C   0  0  2  0  0  0
  -20.6762  -26.9390   22.5425 C   0  0  0  0  0  0
  -19.5746  -26.6382   21.5220 C   0  0  0  0  0  0
  -18.1919  -26.7915   22.1629 C   0  0  0  0  0  0
  -19.1519  -28.8825   23.2907 C   0  0  0  0  0  0
  -18.9452  -30.1429   23.8921 C   0  0  0  0  0  0
  -17.6457  -30.6579   24.0564 C   0  0  0  0  0  0
  -25.9031  -34.9476   23.5135 C   0  0  0  0  0  0
  -16.5346  -29.9082   23.6324 C   0  0  0  0  0  0
  -16.7262  -28.6499   23.0344 C   0  0  0  0  0  0
  -26.4469  -31.6588   25.0715 C   0  0  0  0  0  0
  -25.3740  -31.3676   26.1467 C   0  0  0  0  0  0
  -27.0293  -30.3049   24.6033 C   0  0  0  0  0  0
  -27.6071  -32.4278   25.7469 C   0  0  0  0  0  0
  -27.5581  -37.1805   24.8465 C   0  0  0  0  0  0
  -21.4138  -29.3021   22.3756 N   0  0  0  0  0  0
  -26.4295  -37.3796   23.9412 N   0  0  0  0  0  0
  -24.6634  -31.0815   22.1011 N   0  0  0  0  0  0
  -23.4192  -28.8197   23.3040 O   0  0  0  0  0  0
  -28.3702  -26.6899   20.0364 O   0  0  0  0  0  0
  -26.5599  -34.8931   22.4699 O   0  0  0  0  0  0
  -23.5327  -32.1441   23.7535 O   0  0  0  0  0  0
  -28.4884  -18.0524   21.3150 C   0  0  0  0  0  0
  -30.6137  -19.1089   20.7818 C   0  0  0  0  0  0
  -29.8921  -17.9582   21.1681 C   0  0  0  0  0  0
  -27.8066  -19.2740   21.0582 C   0  0  0  0  0  0
  -29.9556  -20.3230   20.5322 C   0  0  0  0  0  0
  -28.5569  -20.4237   20.6811 C   0  0  0  0  0  0
  -25.5262  -18.4562   21.7581 C   0  0  0  0  0  0
  -26.3387  -19.3627   21.1884 C   0  0  0  0  0  0
  -30.6640  -16.6883   21.4244 C   0  0  0  0  0  0
  -28.9048  -24.6225   21.2377 C   0  0  0  0  0  0
  -27.5351  -23.9101   21.2512 C   0  0  0  0  0  0
  -28.8209  -26.1650   21.2827 C   0  0  0  0  0  0
  -27.6009  -22.3993   21.5698 C   0  0  0  0  0  0
  -30.6887  -21.4402   20.1366 N   0  0  0  0  0  0
  -30.0887  -15.5161   21.0807 N   0  0  0  0  0  0
  -31.8182  -16.7832   21.8606 O   0  0  0  0  0  0
  -27.9776  -21.6484   20.4180 O   0  0  0  0  0  0
  -31.4527  -12.3762   19.1153 H   0  0  0  0  0  0
  -30.2942  -11.2995   19.8372 H   0  0  0  0  0  0
  -29.7210  -11.7549   17.4340 H   0  0  0  0  0  0
  -29.6558  -13.4712   17.7552 H   0  0  0  0  0  0
  -27.8277  -11.2997   18.8395 H   0  0  0  0  0  0
  -27.3514  -12.6061   17.7911 H   0  0  0  0  0  0
  -27.6891  -14.2526   19.5511 H   0  0  0  0  0  0
  -28.6753  -11.9997   21.3690 H   0  0  0  0  0  0
  -28.4690  -13.6582   21.8500 H   0  0  0  0  0  0
  -25.2718   -9.5698   22.4754 H   0  0  0  0  0  0
  -23.9981   -7.4634   22.7472 H   0  0  0  0  0  0
  -21.0812   -8.8726   19.8947 H   0  0  0  0  0  0
  -22.3626  -10.9648   19.6165 H   0  0  0  0  0  0
  -21.1990   -7.6130   23.9685 H   0  0  0  0  0  0
  -21.1490   -6.0519   25.9066 H   0  0  0  0  0  0
  -22.0600   -2.7589   23.2856 H   0  0  0  0  0  0
  -22.4089  -11.9903   22.4821 H   0  0  0  0  0  0
  -21.1088  -13.1255   22.2596 H   0  0  0  0  0  0
  -24.6613  -15.8397   20.4957 H   0  0  0  0  0  0
  -26.2657  -15.6124   20.0270 H   0  0  0  0  0  0
  -26.7089  -32.5572   23.1173 H   0  0  0  0  0  0
  -25.0042  -33.9779   25.0482 H   0  0  0  0  0  0
  -22.6876  -31.3092   21.4134 H   0  0  0  0  0  0
  -23.3751  -35.9657   23.3305 H   0  0  0  0  0  0
  -24.3593  -36.8936   22.2055 H   0  0  0  0  0  0
  -23.7242  -37.6526   23.6646 H   0  0  0  0  0  0
  -26.0240  -31.6011   20.5865 H   0  0  0  0  0  0
  -26.8175  -30.9042   21.9704 H   0  0  0  0  0  0
  -28.0936  -29.1101   21.1810 H   0  0  0  0  0  0
  -26.0826  -25.9891   18.9914 H   0  0  0  0  0  0
  -23.9792  -27.3005   19.0308 H   0  0  0  0  0  0
  -23.7096  -30.5977   19.4046 H   0  0  0  0  0  0
  -22.7316  -29.2393   19.8741 H   0  0  0  0  0  0
  -25.1270  -36.1990   25.0833 H   0  0  0  0  0  0
  -20.9933  -28.3201   24.1469 H   0  0  0  0  0  0
  -20.5682  -26.2253   23.3605 H   0  0  0  0  0  0
  -21.6628  -26.7445   22.1208 H   0  0  0  0  0  0
  -19.6920  -25.6303   21.1226 H   0  0  0  0  0  0
  -19.6689  -27.3218   20.6773 H   0  0  0  0  0  0
  -17.4190  -26.6672   21.4023 H   0  0  0  0  0  0
  -18.0308  -26.0049   22.9019 H   0  0  0  0  0  0
  -19.7932  -30.7222   24.2317 H   0  0  0  0  0  0
  -17.5020  -31.6269   24.5146 H   0  0  0  0  0  0
  -15.5348  -30.2993   23.7634 H   0  0  0  0  0  0
  -15.8663  -28.0825   22.7049 H   0  0  0  0  0  0
  -24.5925  -30.7010   25.7797 H   0  0  0  0  0  0
  -24.8916  -32.2826   26.4920 H   0  0  0  0  0  0
  -25.8105  -30.8843   27.0219 H   0  0  0  0  0  0
  -26.2814  -29.6812   24.1124 H   0  0  0  0  0  0
  -27.4144  -29.7275   25.4448 H   0  0  0  0  0  0
  -27.8612  -30.4404   23.9116 H   0  0  0  0  0  0
  -27.2722  -33.3579   26.2070 H   0  0  0  0  0  0
  -28.3872  -32.6819   25.0276 H   0  0  0  0  0  0
  -28.0734  -31.8365   26.5361 H   0  0  0  0  0  0
  -28.2585  -38.0109   24.7512 H   0  0  0  0  0  0
  -28.1078  -36.2642   24.6272 H   0  0  0  0  0  0
  -27.2297  -37.1431   25.8865 H   0  0  0  0  0  0
  -20.9305  -29.8752   21.6981 H   0  0  0  0  0  0
  -26.0193  -38.2878   24.1418 H   0  0  0  0  0  0
  -27.9371  -17.1748   21.6180 H   0  0  0  0  0  0
  -31.6877  -19.0519   20.6660 H   0  0  0  0  0  0
  -24.4589  -18.6227   21.7866 H   0  0  0  0  0  0
  -25.8871  -17.5429   22.2068 H   0  0  0  0  0  0
  -25.8757  -20.2421   20.7636 H   0  0  0  0  0  0
  -29.4867  -24.3057   20.3716 H   0  0  0  0  0  0
  -29.4705  -24.2992   22.1121 H   0  0  0  0  0  0
  -27.0161  -24.0700   20.3058 H   0  0  0  0  0  0
  -26.9150  -24.3847   22.0124 H   0  0  0  0  0  0
  -29.8131  -26.5755   21.4739 H   0  0  0  0  0  0
  -28.1962  -26.4765   22.1220 H   0  0  0  0  0  0
  -26.6138  -22.0683   21.8944 H   0  0  0  0  0  0
  -28.2775  -22.2178   22.4073 H   0  0  0  0  0  0
  -31.6473  -21.5171   20.4594 H   0  0  0  0  0  0
  -30.1868  -22.3213   20.1741 H   0  0  0  0  0  0
  -29.0857  -15.4762   21.0634 H   0  0  0  0  0  0
  1 25  1  0  0  0
  1 30  2  0  0  0
  1 85  1  0  0  0
  2  3  1  0  0  0
  2 25  1  0  0  0
  2 88  1  0  0  0
  2 89  1  0  0  0
  3  4  1  0  0  0
  3 90  1  0  0  0
  3 91  1  0  0  0
  4  5  1  0  0  0
  4 92  1  0  0  0
  4 93  1  0  0  0
  5  6  1  0  0  0
  5 26  1  0  0  0
  5 94  1  0  0  0
  6 25  1  0  0  0
  6 95  1  0  0  0
  6 96  1  0  0  0
  7  8  2  0  0  0
  7 26  1  0  0  0
  7 29  1  0  0  0
  8  9  1  0  0  0
  8 22  1  0  0  0
  9 10  1  0  0  0
  9 27  2  0  0  0
 10 11  2  0  0  0
 10 15  1  0  0  0
 11 12  1  0  0  0
 11 97  1  0  0  0
 12 13  2  0  0  0
 12 98  1  0  0  0
 13 14  1  0  0  0
 13 31  1  0  0  0
 14 15  2  0  0  0
 14 99  1  0  0  0
 15100  1  0  0  0
 16 17  2  0  0  0
 16 21  1  0  0  0
 16 31  1  0  0  0
 17 18  1  0  0  0
 17101  1  0  0  0
 18 19  2  0  0  0
 18102  1  0  0  0
 19 20  1  0  0  0
 19 24  1  0  0  0
 20 21  2  0  0  0
 20103  1  0  0  0
 21 23  1  0  0  0
 22 28  1  0  0  0
 22 32  2  0  0  0
 26 27  1  0  0  0
 28104  1  0  0  0
 28105  1  0  0  0
 29106  1  0  0  0
 29107  1  0  0  0
 33 34  1  0  0  0
 33 66  1  0  0  0
 33 70  2  0  0  0
 34 36  1  0  0  0
 34 59  1  0  0  0
 34108  1  0  0  0
 35 44  2  0  0  0
 35 45  1  0  0  0
 35 68  1  0  0  0
 36 56  1  0  0  0
 36109  1  0  0  0
 37 39  1  0  0  0
 37 47  1  0  0  0
 37 66  1  0  0  0
 37110  1  0  0  0
 38 43  2  0  0  0
 38 46  1  0  0  0
 38 47  1  0  0  0
 39 64  1  0  0  0
 39 67  2  0  0  0
 40 52  1  0  0  0
 40 53  2  0  0  0
 40 58  1  0  0  0
 41111  1  0  0  0
 41112  1  0  0  0
 41113  1  0  0  0
 41 48  1  0  0  0
 42 43  1  0  0  0
 42 66  1  0  0  0
 42114  1  0  0  0
 42115  1  0  0  0
 43 44  1  0  0  0
 44116  1  0  0  0
 45 46  2  0  0  0
 45117  1  0  0  0
 46118  1  0  0  0
 47119  1  0  0  0
 47120  1  0  0  0
 48 56  1  0  0  0
 48 65  1  0  0  0
 48121  1  0  0  0
 49 50  1  0  0  0
 49 53  1  0  0  0
 49 64  1  0  0  0
 49122  1  0  0  0
 50 51  1  0  0  0
 50123  1  0  0  0
 50124  1  0  0  0
 51 52  1  0  0  0
 51125  1  0  0  0
 51126  1  0  0  0
 52127  1  0  0  0
 52128  1  0  0  0
 53 54  1  0  0  0
 54 55  2  0  0  0
 54129  1  0  0  0
 55 57  1  0  0  0
 55130  1  0  0  0
 56 69  2  0  0  0
 57 58  2  0  0  0
 57131  1  0  0  0
 58132  1  0  0  0
 59 60  1  0  0  0
 59 61  1  0  0  0
 59 62  1  0  0  0
 60133  1  0  0  0
 60134  1  0  0  0
 60135  1  0  0  0
 61136  1  0  0  0
 61137  1  0  0  0
 61138  1  0  0  0
 62139  1  0  0  0
 62140  1  0  0  0
 62141  1  0  0  0
 63 65  1  0  0  0
 63142  1  0  0  0
 63143  1  0  0  0
 63144  1  0  0  0
 64145  1  0  0  0
 65146  1  0  0  0
 68 82  1  0  0  0
 71 73  2  0  0  0
 71 74  1  0  0  0
 71147  1  0  0  0
 72 73  1  0  0  0
 72 75  2  0  0  0
 72148  1  0  0  0
 73 79  1  0  0  0
 74 76  2  0  0  0
 74 78  1  0  0  0
 75 76  1  0  0  0
 75 84  1  0  0  0
 76 87  1  0  0  0
 77 78  2  0  0  0
 77149  1  0  0  0
 77150  1  0  0  0
 78151  1  0  0  0
 79 85  1  0  0  0
 79 86  2  0  0  0
 80 81  1  0  0  0
 80 82  1  0  0  0
 80152  1  0  0  0
 80153  1  0  0  0
 81 83  1  0  0  0
 81154  1  0  0  0
 81155  1  0  0  0
 82156  1  0  0  0
 82157  1  0  0  0
 83 87  1  0  0  0
 83158  1  0  0  0
 83159  1  0  0  0
 84160  1  0  0  0
 84161  1  0  0  0
 85162  1  0  0  0
M  ISO  4   1 100  68 101  82 101  85 100
M  END
> <chiral flag>
0

> <version>
0

> <s_m_source_file>
/data/baiqing/PycharmProjects/Reinvent-master-3.2/result/LINK_invent/BTK/process_docking_weight1_custom_product_contain_oxygen_bond_distance_aromatic_linkinvent_7_9_3/rearranged_h_0109.sdf

> <i_m_source_file_index>
58

> <r_mmod_Potential_Energy-OPLS-2005>
-130.477920532227

> <r_mmod_Stretch_Energy-OPLS-2005>
35.6787757873535

> <r_mmod_Bend_Energy-OPLS-2005>
95.9581985473633

> <r_mmod_Torsional_Energy-OPLS-2005>
298.821411132812

> <r_mmod_Improper_Torsional_Energy-OPLS-2005>
8.95260143280029

> <r_mmod_Van_der_Waal_Energy-OPLS-2005>
154.336959838867

> <r_mmod_Electrostatic_Energy-OPLS-2005>
-511.431488037109

> <r_mmod_Solvation_Energy-OPLS-2005>
-227.075256347656

> <b_mmod_Minimization_Converged-OPLS-2005>
0

> <r_mmod_RMS_Derivative-OPLS-2005>
1.55759084224701

$$$$
58
                    3D
 Structure written by MMmdl.
157165  0  0  1  0            999 V2000
  -30.7175  -14.5304   20.4890 C   0  0  0  0  0  0
  -30.4092  -12.3064   19.4509 C   0  0  0  0  0  0
  -29.4864  -12.4273   18.2198 C   0  0  0  0  0  0
  -28.0176  -12.2236   18.6431 C   0  0  0  0  0  0
  -27.6234  -13.1409   19.8230 C   0  0  2  0  0  0
  -28.6748  -13.0885   20.9616 C   0  0  0  0  0  0
  -25.2552  -13.7953   20.5646 C   0  0  0  0  0  0
  -24.1766  -13.0329   20.9206 C   0  0  0  0  0  0
  -24.6254  -11.6765   20.8825 C   0  0  0  0  0  0
  -23.8930  -10.4200   21.0499 C   0  0  0  0  0  0
  -24.3513   -9.4110   21.9256 C   0  0  0  0  0  0
  -23.6206   -8.2148   22.0776 C   0  0  0  0  0  0
  -22.4204   -8.0207   21.3543 C   0  0  0  0  0  0
  -21.9826   -9.0189   20.4651 C   0  0  0  0  0  0
  -22.7139  -10.2060   20.3093 C   0  0  0  0  0  0
  -21.6801   -6.0695   22.5287 C   0  0  0  0  0  0
  -21.3969   -6.5614   23.8219 C   0  0  0  0  0  0
  -21.3651   -5.6772   24.9197 C   0  0  0  0  0  0
  -21.6052   -4.3043   24.7245 C   0  0  0  0  0  0
  -21.8817   -3.8111   23.4375 C   0  0  0  0  0  0
  -21.9170   -4.6927   22.3412 C   0  0  0  0  0  0
  -22.7803  -13.5198   21.1898 C   0  0  0  0  0  0
  -22.1641   -4.2103   21.0988 F   0  0  0  0  0  0
  -21.5645   -3.4543   25.7774 F   0  0  0  0  0  0
  -30.0107  -13.3608   20.3988 N   0  0  0  0  0  0
  -26.2817  -12.8944   20.3185 N   0  0  0  0  0  0
  -25.9128  -11.6203   20.5789 N   0  0  0  0  0  0
  -22.0421  -12.8236   22.0458 N   0  0  0  0  0  0
  -25.4446  -15.1652   20.4031 N   0  0  0  0  0  0
  -31.9075  -14.6132   20.1813 O   0  0  0  0  0  0
  -21.6568   -6.8823   21.4235 O   0  0  0  0  0  0
  -22.3536  -14.5538   20.6745 O   0  0  0  0  0  0
  -24.6189  -31.8636   23.2064 C   0  0  0  0  0  0
  -25.9075  -32.4781   23.8335 C   0  0  1  0  0  0
  -27.2163  -27.3999   20.0903 C   0  0  0  0  0  0
  -25.5937  -33.8575   24.2285 N   0  0  0  0  0  0
  -23.4035  -30.4938   21.5447 C   0  0  2  0  0  0
  -24.8424  -28.9585   20.1025 C   0  0  0  0  0  0
  -22.7400  -29.4693   22.4928 C   0  0  0  0  0  0
  -18.0285  -28.1361   22.8487 C   0  0  0  0  0  0
  -24.1466  -36.7285   23.2643 C   0  0  0  0  0  0
  -25.9359  -30.8145   21.3633 C   0  0  0  0  0  0
  -26.0002  -29.4461   20.7171 C   0  0  0  0  0  0
  -27.1838  -28.6693   20.7169 C   0  0  0  0  0  0
  -26.0442  -26.9518   19.4317 C   0  0  0  0  0  0
  -24.8617  -27.7146   19.4533 C   0  0  0  0  0  0
  -23.6065  -29.8298   20.1561 C   0  0  0  0  0  0
  -25.4083  -36.3063   24.0333 C   0  0  1  0  0  0
  -20.5875  -28.3668   23.1270 C   0  0  2  0  0  0
  -20.6749  -26.9389   22.5391 C   0  0  0  0  0  0
  -19.5739  -26.6375   21.5179 C   0  0  0  0  0  0
  -18.1921  -26.7913   22.1592 C   0  0  0  0  0  0
  -19.1534  -28.8825   23.2897 C   0  0  0  0  0  0
  -18.9469  -30.1423   23.8915 C   0  0  0  0  0  0
  -17.6473  -30.6573   24.0567 C   0  0  0  0  0  0
  -25.9025  -34.9454   23.5101 C   0  0  0  0  0  0
  -16.5363  -29.9069   23.6342 C   0  0  0  0  0  0
  -16.7276  -28.6484   23.0369 C   0  0  0  0  0  0
  -26.4494  -31.6576   25.0684 C   0  0  0  0  0  0
  -25.3792  -31.3696   26.1467 C   0  0  0  0  0  0
  -27.0318  -30.3008   24.6070 C   0  0  0  0  0  0
  -27.6068  -32.4307   25.7451 C   0  0  0  0  0  0
  -27.5556  -37.1778   24.8478 C   0  0  0  0  0  0
  -21.4133  -29.3058   22.3670 N   0  0  0  0  0  0
  -26.4252  -37.3772   23.9443 N   0  0  0  0  0  0
  -24.6711  -31.0729   22.0957 N   0  0  0  0  0  0
  -23.4160  -28.8205   23.2961 O   0  0  0  0  0  0
  -28.3955  -26.6714   20.1393 O   0  0  0  0  0  0
  -26.5583  -34.8926   22.4657 O   0  0  0  0  0  0
  -23.5385  -32.1399   23.7459 O   0  0  0  0  0  0
  -31.5534  -18.2714   23.1110 C   0  0  0  0  0  0
  -31.1374  -19.5065   22.5744 C   0  0  0  0  0  0
  -30.0229  -18.3089   20.7995 C   0  0  0  0  0  0
  -30.4143  -17.0386   21.3185 C   0  0  0  0  0  0
  -31.1870  -17.0361   22.5221 C   0  0  0  0  0  0
  -30.3439  -19.5320   21.4123 C   0  0  0  0  0  0
  -29.8980  -15.8384   20.5584 C   0  0  0  0  0  0
  -29.1124  -22.9093   20.5695 C   0  0  0  0  0  0
  -29.0429  -24.4072   20.9682 C   0  0  0  0  0  0
  -29.9522  -21.9492   21.4474 C   0  0  0  0  0  0
  -28.3999  -25.2574   19.8407 C   0  0  0  0  0  0
  -28.8556  -15.9831   19.8507 N   0  0  0  0  0  0
  -31.5929  -15.8776   23.1981 N   0  0  0  0  0  0
  -29.8457  -20.6722   20.8111 O   0  0  0  0  0  0
  -31.4569  -12.3731   19.1556 H   0  0  0  0  0  0
  -30.2907  -11.3261   19.9147 H   0  0  0  0  0  0
  -29.7605  -11.6753   17.4785 H   0  0  0  0  0  0
  -29.6166  -13.3981   17.7382 H   0  0  0  0  0  0
  -27.9046  -11.1807   18.9406 H   0  0  0  0  0  0
  -27.3466  -12.3684   17.7950 H   0  0  0  0  0  0
  -27.5603  -14.1095   19.3562 H   0  0  0  0  0  0
  -28.6657  -12.1074   21.4364 H   0  0  0  0  0  0
  -28.4166  -13.7994   21.7486 H   0  0  0  0  0  0
  -25.2654   -9.5573   22.4837 H   0  0  0  0  0  0
  -23.9911   -7.4515   22.7465 H   0  0  0  0  0  0
  -21.0774   -8.8701   19.8932 H   0  0  0  0  0  0
  -22.3639  -10.9619   19.6197 H   0  0  0  0  0  0
  -21.1931   -7.6122   23.9715 H   0  0  0  0  0  0
  -21.1488   -6.0508   25.9096 H   0  0  0  0  0  0
  -22.0603   -2.7572   23.2892 H   0  0  0  0  0  0
  -22.3957  -11.9850   22.4849 H   0  0  0  0  0  0
  -21.1063  -13.1312   22.2679 H   0  0  0  0  0  0
  -24.6906  -15.8388   20.4904 H   0  0  0  0  0  0
  -26.3305  -15.5904   20.1473 H   0  0  0  0  0  0
  -26.7161  -32.5442   23.1087 H   0  0  0  0  0  0
  -25.0134  -33.9726   25.0466 H   0  0  0  0  0  0
  -22.6989  -31.3169   21.4060 H   0  0  0  0  0  0
  -23.3719  -35.9631   23.3303 H   0  0  0  0  0  0
  -24.3574  -36.8879   22.2060 H   0  0  0  0  0  0
  -23.7222  -37.6494   23.6656 H   0  0  0  0  0  0
  -26.0518  -31.5686   20.5837 H   0  0  0  0  0  0
  -26.8285  -30.8686   21.9733 H   0  0  0  0  0  0
  -28.0713  -29.0328   21.2125 H   0  0  0  0  0  0
  -26.0048  -26.0324   18.8672 H   0  0  0  0  0  0
  -23.9783  -27.3547   18.9419 H   0  0  0  0  0  0
  -23.7084  -30.6053   19.3949 H   0  0  0  0  0  0
  -22.7283  -29.2510   19.8633 H   0  0  0  0  0  0
  -25.1249  -36.1907   25.0822 H   0  0  0  0  0  0
  -21.0005  -28.3236   24.1374 H   0  0  0  0  0  0
  -20.5584  -26.2290   23.3592 H   0  0  0  0  0  0
  -21.6626  -26.7376   22.1213 H   0  0  0  0  0  0
  -19.6889  -25.6295   21.1190 H   0  0  0  0  0  0
  -19.6664  -27.3206   20.6732 H   0  0  0  0  0  0
  -17.4177  -26.6688   21.4001 H   0  0  0  0  0  0
  -18.0322  -26.0030   22.8964 H   0  0  0  0  0  0
  -19.7958  -30.7228   24.2267 H   0  0  0  0  0  0
  -17.5047  -31.6251   24.5172 H   0  0  0  0  0  0
  -15.5369  -30.2988   23.7661 H   0  0  0  0  0  0
  -15.8665  -28.0802   22.7104 H   0  0  0  0  0  0
  -24.5995  -30.6963   25.7870 H   0  0  0  0  0  0
  -24.8957  -32.2861   26.4876 H   0  0  0  0  0  0
  -25.8202  -30.8945   27.0239 H   0  0  0  0  0  0
  -26.2816  -29.6738   24.1226 H   0  0  0  0  0  0
  -27.4193  -29.7275   25.4500 H   0  0  0  0  0  0
  -27.8614  -30.4296   23.9111 H   0  0  0  0  0  0
  -27.2663  -33.3606   26.2014 H   0  0  0  0  0  0
  -28.3889  -32.6857   25.0292 H   0  0  0  0  0  0
  -28.0719  -31.8435   26.5373 H   0  0  0  0  0  0
  -28.2587  -38.0067   24.7519 H   0  0  0  0  0  0
  -28.1016  -36.2594   24.6271 H   0  0  0  0  0  0
  -27.2290  -37.1400   25.8887 H   0  0  0  0  0  0
  -20.9261  -29.8795   21.6922 H   0  0  0  0  0  0
  -26.0111  -38.2829   24.1489 H   0  0  0  0  0  0
  -32.1528  -18.2926   24.0109 H   0  0  0  0  0  0
  -31.4306  -20.4217   23.0657 H   0  0  0  0  0  0
  -29.4238  -18.3728   19.9004 H   0  0  0  0  0  0
  -29.5050  -22.8423   19.5544 H   0  0  0  0  0  0
  -28.0946  -22.5222   20.5134 H   0  0  0  0  0  0
  -30.0400  -24.7884   21.1918 H   0  0  0  0  0  0
  -28.4576  -24.5134   21.8827 H   0  0  0  0  0  0
  -29.5725  -21.9139   22.4696 H   0  0  0  0  0  0
  -30.9979  -22.2623   21.4839 H   0  0  0  0  0  0
  -27.4206  -24.8240   19.6516 H   0  0  0  0  0  0
  -28.9684  -25.1178   18.9188 H   0  0  0  0  0  0
  -28.6979  -15.1401   19.3119 H   0  0  0  0  0  0
  -31.9470  -15.9646   24.1468 H   0  0  0  0  0  0
  -31.1187  -14.9938   23.0502 H   0  0  0  0  0  0
  1 25  1  0  0  0
  1 30  2  0  0  0
  1 77  1  0  0  0
  2  3  1  0  0  0
  2 25  1  0  0  0
  2 85  1  0  0  0
  2 86  1  0  0  0
  3  4  1  0  0  0
  3 87  1  0  0  0
  3 88  1  0  0  0
  4  5  1  0  0  0
  4 89  1  0  0  0
  4 90  1  0  0  0
  5  6  1  0  0  0
  5 26  1  0  0  0
  5 91  1  0  0  0
  6 25  1  0  0  0
  6 92  1  0  0  0
  6 93  1  0  0  0
  7  8  2  0  0  0
  7 26  1  0  0  0
  7 29  1  0  0  0
  8  9  1  0  0  0
  8 22  1  0  0  0
  9 10  1  0  0  0
  9 27  2  0  0  0
 10 11  2  0  0  0
 10 15  1  0  0  0
 11 12  1  0  0  0
 11 94  1  0  0  0
 12 13  2  0  0  0
 12 95  1  0  0  0
 13 14  1  0  0  0
 13 31  1  0  0  0
 14 15  2  0  0  0
 14 96  1  0  0  0
 15 97  1  0  0  0
 16 17  2  0  0  0
 16 21  1  0  0  0
 16 31  1  0  0  0
 17 18  1  0  0  0
 17 98  1  0  0  0
 18 19  2  0  0  0
 18 99  1  0  0  0
 19 20  1  0  0  0
 19 24  1  0  0  0
 20 21  2  0  0  0
 20100  1  0  0  0
 21 23  1  0  0  0
 22 28  1  0  0  0
 22 32  2  0  0  0
 26 27  1  0  0  0
 28101  1  0  0  0
 28102  1  0  0  0
 29103  1  0  0  0
 29104  1  0  0  0
 33 34  1  0  0  0
 33 66  1  0  0  0
 33 70  2  0  0  0
 34 36  1  0  0  0
 34 59  1  0  0  0
 34105  1  0  0  0
 35 44  2  0  0  0
 35 45  1  0  0  0
 35 68  1  0  0  0
 36 56  1  0  0  0
 36106  1  0  0  0
 37 39  1  0  0  0
 37 47  1  0  0  0
 37 66  1  0  0  0
 37107  1  0  0  0
 38 43  2  0  0  0
 38 46  1  0  0  0
 38 47  1  0  0  0
 39 64  1  0  0  0
 39 67  2  0  0  0
 40 52  1  0  0  0
 40 53  2  0  0  0
 40 58  1  0  0  0
 41108  1  0  0  0
 41109  1  0  0  0
 41110  1  0  0  0
 41 48  1  0  0  0
 42 43  1  0  0  0
 42 66  1  0  0  0
 42111  1  0  0  0
 42112  1  0  0  0
 43 44  1  0  0  0
 44113  1  0  0  0
 45 46  2  0  0  0
 45114  1  0  0  0
 46115  1  0  0  0
 47116  1  0  0  0
 47117  1  0  0  0
 48 56  1  0  0  0
 48 65  1  0  0  0
 48118  1  0  0  0
 49 50  1  0  0  0
 49 53  1  0  0  0
 49 64  1  0  0  0
 49119  1  0  0  0
 50 51  1  0  0  0
 50120  1  0  0  0
 50121  1  0  0  0
 51 52  1  0  0  0
 51122  1  0  0  0
 51123  1  0  0  0
 52124  1  0  0  0
 52125  1  0  0  0
 53 54  1  0  0  0
 54 55  2  0  0  0
 54126  1  0  0  0
 55 57  1  0  0  0
 55127  1  0  0  0
 56 69  2  0  0  0
 57 58  2  0  0  0
 57128  1  0  0  0
 58129  1  0  0  0
 59 60  1  0  0  0
 59 61  1  0  0  0
 59 62  1  0  0  0
 60130  1  0  0  0
 60131  1  0  0  0
 60132  1  0  0  0
 61133  1  0  0  0
 61134  1  0  0  0
 61135  1  0  0  0
 62136  1  0  0  0
 62137  1  0  0  0
 62138  1  0  0  0
 63 65  1  0  0  0
 63139  1  0  0  0
 63140  1  0  0  0
 63141  1  0  0  0
 64142  1  0  0  0
 65143  1  0  0  0
 68 81  1  0  0  0
 71 72  2  0  0  0
 71 75  1  0  0  0
 71144  1  0  0  0
 72 76  1  0  0  0
 72145  1  0  0  0
 73 74  1  0  0  0
 73 76  2  0  0  0
 73146  1  0  0  0
 74 75  2  0  0  0
 74 77  1  0  0  0
 75 83  1  0  0  0
 76 84  1  0  0  0
 77 82  2  0  0  0
 78 79  1  0  0  0
 78 80  1  0  0  0
 78147  1  0  0  0
 78148  1  0  0  0
 79 81  1  0  0  0
 79149  1  0  0  0
 79150  1  0  0  0
 80 84  1  0  0  0
 80151  1  0  0  0
 80152  1  0  0  0
 81153  1  0  0  0
 81154  1  0  0  0
 82155  1  0  0  0
 83156  1  0  0  0
 83157  1  0  0  0
M  ISO  4   1 100  68 101  77 100  81 101
M  END
> <chiral flag>
0

> <version>
0

> <s_m_source_file>
/data/baiqing/PycharmProjects/Reinvent-master-3.2/result/LINK_invent/BTK/process_docking_weight1_custom_product_contain_oxygen_bond_distance_aromatic_linkinvent_7_9_3/rearranged_h_0109.sdf

> <i_m_source_file_index>
59

> <r_mmod_Potential_Energy-OPLS-2005>
172.251586914062

> <r_mmod_Stretch_Energy-OPLS-2005>
47.1577339172363

> <r_mmod_Bend_Energy-OPLS-2005>
143.449172973633

> <r_mmod_Torsional_Energy-OPLS-2005>
208.498352050781

> <r_mmod_Improper_Torsional_Energy-OPLS-2005>
14.5609312057495

> <r_mmod_Van_der_Waal_Energy-OPLS-2005>
178.037200927734

> <r_mmod_Electrostatic_Energy-OPLS-2005>
-245.374160766602

> <r_mmod_Solvation_Energy-OPLS-2005>
-208.010864257812

> <b_mmod_Minimization_Converged-OPLS-2005>
0

> <r_mmod_RMS_Derivative-OPLS-2005>
4.22738695144653

$$$$
59
                    3D
 Structure written by MMmdl.
161170  0  0  1  0            999 V2000
  -30.7372  -14.4372   20.5698 C   0  0  0  0  0  0
  -30.3930  -12.2966   19.3995 C   0  0  0  0  0  0
  -29.4643  -12.4878   18.1869 C   0  0  0  0  0  0
  -27.9872  -12.3674   18.6038 C   0  0  0  0  0  0
  -27.6422  -13.2157   19.8549 C   0  0  2  0  0  0
  -28.6861  -13.0305   20.9755 C   0  0  0  0  0  0
  -25.2502  -13.8185   20.5696 C   0  0  0  0  0  0
  -24.1744  -13.0434   20.9141 C   0  0  0  0  0  0
  -24.6318  -11.6913   20.8699 C   0  0  0  0  0  0
  -23.9008  -10.4299   21.0383 C   0  0  0  0  0  0
  -24.3597   -9.4224   21.9154 C   0  0  0  0  0  0
  -23.6284   -8.2240   22.0744 C   0  0  0  0  0  0
  -22.4266   -8.0270   21.3525 C   0  0  0  0  0  0
  -21.9883   -9.0230   20.4622 C   0  0  0  0  0  0
  -22.7192  -10.2120   20.3020 C   0  0  0  0  0  0
  -21.6866   -6.0720   22.5266 C   0  0  0  0  0  0
  -21.4018   -6.5634   23.8191 C   0  0  0  0  0  0
  -21.3650   -5.6797   24.9158 C   0  0  0  0  0  0
  -21.6049   -4.3054   24.7223 C   0  0  0  0  0  0
  -21.8821   -3.8145   23.4339 C   0  0  0  0  0  0
  -21.9200   -4.6951   22.3399 C   0  0  0  0  0  0
  -22.7778  -13.5222   21.1843 C   0  0  0  0  0  0
  -22.1671   -4.2136   21.0968 F   0  0  0  0  0  0
  -21.5625   -3.4535   25.7732 F   0  0  0  0  0  0
  -30.0131  -13.3006   20.4028 N   0  0  0  0  0  0
  -26.2915  -12.9371   20.3329 N   0  0  0  0  0  0
  -25.9239  -11.6523   20.5727 N   0  0  0  0  0  0
  -22.0481  -12.8175   22.0439 N   0  0  0  0  0  0
  -25.4272  -15.1906   20.4264 N   0  0  0  0  0  0
  -31.9034  -14.5297   20.1781 O   0  0  0  0  0  0
  -21.6644   -6.8851   21.4225 O   0  0  0  0  0  0
  -22.3427  -14.5532   20.6744 O   0  0  0  0  0  0
  -24.6141  -31.8676   23.2035 C   0  0  0  0  0  0
  -25.9049  -32.4799   23.8327 C   0  0  1  0  0  0
  -27.2202  -27.4113   20.0933 C   0  0  0  0  0  0
  -25.5903  -33.8610   24.2301 N   0  0  0  0  0  0
  -23.4027  -30.4873   21.5498 C   0  0  2  0  0  0
  -24.8445  -28.9408   20.1175 C   0  0  0  0  0  0
  -22.7402  -29.4664   22.4988 C   0  0  0  0  0  0
  -18.0253  -28.1376   22.8512 C   0  0  0  0  0  0
  -24.1463  -36.7303   23.2637 C   0  0  0  0  0  0
  -25.9332  -30.8117   21.3713 C   0  0  0  0  0  0
  -26.0043  -29.4444   20.7212 C   0  0  0  0  0  0
  -27.1980  -28.6853   20.7077 C   0  0  0  0  0  0
  -26.0481  -26.9203   19.4842 C   0  0  0  0  0  0
  -24.8611  -27.6777   19.4980 C   0  0  0  0  0  0
  -23.6122  -29.8157   20.1647 C   0  0  0  0  0  0
  -25.4090  -36.3115   24.0339 C   0  0  1  0  0  0
  -20.5835  -28.3696   23.1336 C   0  0  2  0  0  0
  -20.6772  -26.9431   22.5448 C   0  0  0  0  0  0
  -19.5739  -26.6397   21.5247 C   0  0  0  0  0  0
  -18.1893  -26.7923   22.1644 C   0  0  0  0  0  0
  -19.1504  -28.8853   23.2912 C   0  0  0  0  0  0
  -18.9437  -30.1449   23.8923 C   0  0  0  0  0  0
  -17.6447  -30.6589   24.0575 C   0  0  0  0  0  0
  -25.9041  -34.9475   23.5118 C   0  0  0  0  0  0
  -16.5329  -29.9106   23.6340 C   0  0  0  0  0  0
  -16.7238  -28.6510   23.0360 C   0  0  0  0  0  0
  -26.4458  -31.6553   25.0635 C   0  0  0  0  0  0
  -25.3723  -31.3633   26.1369 C   0  0  0  0  0  0
  -27.0311  -30.3002   24.6041 C   0  0  0  0  0  0
  -27.6040  -32.4254   25.7383 C   0  0  0  0  0  0
  -27.5563  -37.1785   24.8467 C   0  0  0  0  0  0
  -21.4119  -29.3058   22.3747 N   0  0  0  0  0  0
  -26.4294  -37.3808   23.9418 N   0  0  0  0  0  0
  -24.6668  -31.0707   22.0994 N   0  0  0  0  0  0
  -23.4149  -28.8224   23.3067 O   0  0  0  0  0  0
  -28.3776  -26.6642   20.0484 O   0  0  0  0  0  0
  -26.5599  -34.8946   22.4674 O   0  0  0  0  0  0
  -23.5345  -32.1482   23.7428 O   0  0  0  0  0  0
  -30.5196  -19.1932   21.2010 C   0  0  0  0  0  0
  -29.9083  -20.4179   20.8690 C   0  0  0  0  0  0
  -27.8781  -19.2262   20.2721 C   0  0  0  0  0  0
  -29.8266  -17.9642   21.0761 C   0  0  0  0  0  0
  -28.5881  -20.4447   20.3751 C   0  0  0  0  0  0
  -28.4820  -17.9958   20.6230 C   0  0  0  0  0  0
  -28.2822  -24.0860   19.9481 C   0  0  0  0  0  0
  -28.0326  -22.8713   20.5259 C   0  0  0  0  0  0
  -28.5560  -24.1111   18.4881 C   0  0  0  0  0  0
  -30.5748  -16.6822   21.3819 C   0  0  0  0  0  0
  -28.0835  -22.9069   17.6706 C   0  0  0  0  0  0
  -28.3560  -21.5892   18.3986 C   0  0  0  0  0  0
  -27.6871  -22.7415   22.0084 C   0  0  0  0  0  0
  -28.3451  -25.4070   20.7593 C   0  0  0  0  0  0
  -28.0676  -21.6419   19.8369 N   0  0  0  0  0  0
  -30.0402  -15.5183   20.9644 N   0  0  0  0  0  0
  -29.1309  -25.0308   17.8983 O   0  0  0  0  0  0
  -31.6673  -16.7542   21.9605 O   0  0  0  0  0  0
  -27.7675  -16.8510   20.4698 F   0  0  0  0  0  0
  -31.4334  -12.3857   19.0836 H   0  0  0  0  0  0
  -30.2912  -11.2938   19.8167 H   0  0  0  0  0  0
  -29.6924  -11.7522   17.4148 H   0  0  0  0  0  0
  -29.6364  -13.4669   17.7394 H   0  0  0  0  0  0
  -27.7775  -11.3131   18.7948 H   0  0  0  0  0  0
  -27.3405  -12.6530   17.7742 H   0  0  0  0  0  0
  -27.6693  -14.2578   19.5378 H   0  0  0  0  0  0
  -28.6487  -12.0136   21.3696 H   0  0  0  0  0  0
  -28.4536  -13.6871   21.8171 H   0  0  0  0  0  0
  -25.2729   -9.5721   22.4716 H   0  0  0  0  0  0
  -24.0015   -7.4634   22.7453 H   0  0  0  0  0  0
  -21.0811   -8.8705   19.8919 H   0  0  0  0  0  0
  -22.3618  -10.9641   19.6119 H   0  0  0  0  0  0
  -21.2013   -7.6135   23.9686 H   0  0  0  0  0  0
  -21.1471   -6.0521   25.9051 H   0  0  0  0  0  0
  -22.0616   -2.7601   23.2840 H   0  0  0  0  0  0
  -22.4169  -11.9814   22.4720 H   0  0  0  0  0  0
  -21.1092  -13.1158   22.2733 H   0  0  0  0  0  0
  -24.6787  -15.8598   20.5604 H   0  0  0  0  0  0
  -26.3244  -15.6395   20.2708 H   0  0  0  0  0  0
  -26.7079  -32.5472   23.1034 H   0  0  0  0  0  0
  -25.0095  -33.9785   25.0478 H   0  0  0  0  0  0
  -22.6918  -31.3026   21.4064 H   0  0  0  0  0  0
  -23.3735  -35.9622   23.3324 H   0  0  0  0  0  0
  -24.3558  -36.8905   22.2053 H   0  0  0  0  0  0
  -23.7200  -37.6503   23.6646 H   0  0  0  0  0  0
  -26.0664  -31.5755   20.6009 H   0  0  0  0  0  0
  -26.8139  -30.8551   22.0001 H   0  0  0  0  0  0
  -28.0933  -29.0628   21.1852 H   0  0  0  0  0  0
  -26.0551  -25.9616   18.9826 H   0  0  0  0  0  0
  -23.9691  -27.2908   19.0234 H   0  0  0  0  0  0
  -23.7247  -30.5909   19.4043 H   0  0  0  0  0  0
  -22.7328  -29.2435   19.8687 H   0  0  0  0  0  0
  -25.1255  -36.1984   25.0838 H   0  0  0  0  0  0
  -20.9918  -28.3282   24.1465 H   0  0  0  0  0  0
  -20.5744  -26.2282   23.3641 H   0  0  0  0  0  0
  -21.6631  -26.7516   22.1195 H   0  0  0  0  0  0
  -19.6929  -25.6322   21.1247 H   0  0  0  0  0  0
  -19.6674  -27.3239   20.6810 H   0  0  0  0  0  0
  -17.4189  -26.6692   21.4018 H   0  0  0  0  0  0
  -18.0277  -26.0032   22.9022 H   0  0  0  0  0  0
  -19.7934  -30.7252   24.2284 H   0  0  0  0  0  0
  -17.5022  -31.6274   24.5167 H   0  0  0  0  0  0
  -15.5347  -30.3026   23.7648 H   0  0  0  0  0  0
  -15.8641  -28.0853   22.7077 H   0  0  0  0  0  0
  -24.5951  -30.6918   25.7672 H   0  0  0  0  0  0
  -24.8826  -32.2786   26.4743 H   0  0  0  0  0  0
  -25.8076  -30.8849   27.0165 H   0  0  0  0  0  0
  -26.2875  -29.6674   24.1196 H   0  0  0  0  0  0
  -27.4201  -29.7288   25.4471 H   0  0  0  0  0  0
  -27.8639  -30.4276   23.9117 H   0  0  0  0  0  0
  -27.2701  -33.3591   26.1926 H   0  0  0  0  0  0
  -28.3855  -32.6758   25.0183 H   0  0  0  0  0  0
  -28.0708  -31.8384   26.5311 H   0  0  0  0  0  0
  -28.2585  -38.0073   24.7540 H   0  0  0  0  0  0
  -28.1044  -36.2615   24.6264 H   0  0  0  0  0  0
  -27.2289  -37.1416   25.8868 H   0  0  0  0  0  0
  -20.9255  -29.8759   21.6954 H   0  0  0  0  0  0
  -26.0168  -38.2873   24.1434 H   0  0  0  0  0  0
  -31.5543  -19.2060   21.5102 H   0  0  0  0  0  0
  -30.4897  -21.3284   20.9332 H   0  0  0  0  0  0
  -26.8725  -19.2187   19.8828 H   0  0  0  0  0  0
  -28.5646  -22.8815   16.6932 H   0  0  0  0  0  0
  -27.0168  -23.0047   17.4843 H   0  0  0  0  0  0
  -29.4042  -21.3248   18.2466 H   0  0  0  0  0  0
  -27.7720  -20.7986   17.9273 H   0  0  0  0  0  0
  -26.8675  -23.4098   22.2733 H   0  0  0  0  0  0
  -28.5482  -22.9891   22.6319 H   0  0  0  0  0  0
  -27.3560  -21.7381   22.2856 H   0  0  0  0  0  0
  -27.5523  -25.4247   21.5106 H   0  0  0  0  0  0
  -29.2802  -25.3668   21.3192 H   0  0  0  0  0  0
  -29.0443  -15.5119   20.8042 H   0  0  0  0  0  0
  1 25  1  0  0  0
  1 30  2  0  0  0
  1 86  1  0  0  0
  2  3  1  0  0  0
  2 25  1  0  0  0
  2 90  1  0  0  0
  2 91  1  0  0  0
  3  4  1  0  0  0
  3 92  1  0  0  0
  3 93  1  0  0  0
  4  5  1  0  0  0
  4 94  1  0  0  0
  4 95  1  0  0  0
  5  6  1  0  0  0
  5 26  1  0  0  0
  5 96  1  0  0  0
  6 25  1  0  0  0
  6 97  1  0  0  0
  6 98  1  0  0  0
  7  8  2  0  0  0
  7 26  1  0  0  0
  7 29  1  0  0  0
  8  9  1  0  0  0
  8 22  1  0  0  0
  9 10  1  0  0  0
  9 27  2  0  0  0
 10 11  2  0  0  0
 10 15  1  0  0  0
 11 12  1  0  0  0
 11 99  1  0  0  0
 12 13  2  0  0  0
 12100  1  0  0  0
 13 14  1  0  0  0
 13 31  1  0  0  0
 14 15  2  0  0  0
 14101  1  0  0  0
 15102  1  0  0  0
 16 17  2  0  0  0
 16 21  1  0  0  0
 16 31  1  0  0  0
 17 18  1  0  0  0
 17103  1  0  0  0
 18 19  2  0  0  0
 18104  1  0  0  0
 19 20  1  0  0  0
 19 24  1  0  0  0
 20 21  2  0  0  0
 20105  1  0  0  0
 21 23  1  0  0  0
 22 28  1  0  0  0
 22 32  2  0  0  0
 26 27  1  0  0  0
 28106  1  0  0  0
 28107  1  0  0  0
 29108  1  0  0  0
 29109  1  0  0  0
 33 34  1  0  0  0
 33 66  1  0  0  0
 33 70  2  0  0  0
 34 36  1  0  0  0
 34 59  1  0  0  0
 34110  1  0  0  0
 35 44  2  0  0  0
 35 45  1  0  0  0
 35 68  1  0  0  0
 36 56  1  0  0  0
 36111  1  0  0  0
 37 39  1  0  0  0
 37 47  1  0  0  0
 37 66  1  0  0  0
 37112  1  0  0  0
 38 43  2  0  0  0
 38 46  1  0  0  0
 38 47  1  0  0  0
 39 64  1  0  0  0
 39 67  2  0  0  0
 40 52  1  0  0  0
 40 53  2  0  0  0
 40 58  1  0  0  0
 41113  1  0  0  0
 41114  1  0  0  0
 41115  1  0  0  0
 41 48  1  0  0  0
 42 43  1  0  0  0
 42 66  1  0  0  0
 42116  1  0  0  0
 42117  1  0  0  0
 43 44  1  0  0  0
 44118  1  0  0  0
 45 46  2  0  0  0
 45119  1  0  0  0
 46120  1  0  0  0
 47121  1  0  0  0
 47122  1  0  0  0
 48 56  1  0  0  0
 48 65  1  0  0  0
 48123  1  0  0  0
 49 50  1  0  0  0
 49 53  1  0  0  0
 49 64  1  0  0  0
 49124  1  0  0  0
 50 51  1  0  0  0
 50125  1  0  0  0
 50126  1  0  0  0
 51 52  1  0  0  0
 51127  1  0  0  0
 51128  1  0  0  0
 52129  1  0  0  0
 52130  1  0  0  0
 53 54  1  0  0  0
 54 55  2  0  0  0
 54131  1  0  0  0
 55 57  1  0  0  0
 55132  1  0  0  0
 56 69  2  0  0  0
 57 58  2  0  0  0
 57133  1  0  0  0
 58134  1  0  0  0
 59 60  1  0  0  0
 59 61  1  0  0  0
 59 62  1  0  0  0
 60135  1  0  0  0
 60136  1  0  0  0
 60137  1  0  0  0
 61138  1  0  0  0
 61139  1  0  0  0
 61140  1  0  0  0
 62141  1  0  0  0
 62142  1  0  0  0
 62143  1  0  0  0
 63 65  1  0  0  0
 63144  1  0  0  0
 63145  1  0  0  0
 63146  1  0  0  0
 64147  1  0  0  0
 65148  1  0  0  0
 68 84  1  0  0  0
 71 72  2  0  0  0
 71 74  1  0  0  0
 71149  1  0  0  0
 72 75  1  0  0  0
 72150  1  0  0  0
 73 75  2  0  0  0
 73 76  1  0  0  0
 73151  1  0  0  0
 74 76  2  0  0  0
 74 80  1  0  0  0
 75 85  1  0  0  0
 76 89  1  0  0  0
 77 78  2  0  0  0
 77 79  1  0  0  0
 77 84  1  0  0  0
 78 83  1  0  0  0
 78 85  1  0  0  0
 79 81  1  0  0  0
 79 87  2  0  0  0
 80 86  1  0  0  0
 80 88  2  0  0  0
 81 82  1  0  0  0
 81152  1  0  0  0
 81153  1  0  0  0
 82 85  1  0  0  0
 82154  1  0  0  0
 82155  1  0  0  0
 83156  1  0  0  0
 83157  1  0  0  0
 83158  1  0  0  0
 84159  1  0  0  0
 84160  1  0  0  0
 86161  1  0  0  0
M  ISO  4   1 100  68 101  84 101  86 100
M  END
> <chiral flag>
0

> <version>
0

> <s_m_source_file>
/data/baiqing/PycharmProjects/Reinvent-master-3.2/result/LINK_invent/BTK/process_docking_weight1_custom_product_contain_oxygen_bond_distance_aromatic_linkinvent_7_9_3/rearranged_h_0109.sdf

> <i_m_source_file_index>
60

> <r_mmod_Potential_Energy-OPLS-2005>
-18.1745433807373

> <r_mmod_Stretch_Energy-OPLS-2005>
42.7473907470703

> <r_mmod_Bend_Energy-OPLS-2005>
100.137313842773

> <r_mmod_Torsional_Energy-OPLS-2005>
271.079193115234

> <r_mmod_Improper_Torsional_Energy-OPLS-2005>
9.42148208618164

> <r_mmod_Van_der_Waal_Energy-OPLS-2005>
180.938140869141

> <r_mmod_Electrostatic_Energy-OPLS-2005>
-416.548461914062

> <r_mmod_Solvation_Energy-OPLS-2005>
-224.711761474609

> <b_mmod_Minimization_Converged-OPLS-2005>
0

> <r_mmod_RMS_Derivative-OPLS-2005>
5.25663805007935

$$$$
60
                    3D
 Structure written by MMmdl.
163172  0  0  1  0            999 V2000
  -30.6338  -14.7088   20.3818 C   0  0  0  0  0  0
  -30.4309  -12.4186   19.4358 C   0  0  0  0  0  0
  -29.4884  -12.4317   18.2133 C   0  0  0  0  0  0
  -28.0114  -12.3273   18.6406 C   0  0  0  0  0  0
  -27.6393  -13.2260   19.8524 C   0  0  2  0  0  0
  -28.7032  -13.1585   20.9681 C   0  0  0  0  0  0
  -25.2473  -13.8153   20.5647 C   0  0  0  0  0  0
  -24.1784  -13.0430   20.9209 C   0  0  0  0  0  0
  -24.6387  -11.6909   20.8809 C   0  0  0  0  0  0
  -23.9072  -10.4284   21.0468 C   0  0  0  0  0  0
  -24.3596   -9.4187   21.9245 C   0  0  0  0  0  0
  -23.6246   -8.2243   22.0785 C   0  0  0  0  0  0
  -22.4244   -8.0298   21.3558 C   0  0  0  0  0  0
  -21.9911   -9.0274   20.4640 C   0  0  0  0  0  0
  -22.7269  -10.2140   20.3076 C   0  0  0  0  0  0
  -21.6839   -6.0735   22.5274 C   0  0  0  0  0  0
  -21.4029   -6.5631   23.8214 C   0  0  0  0  0  0
  -21.3653   -5.6785   24.9165 C   0  0  0  0  0  0
  -21.6024   -4.3047   24.7218 C   0  0  0  0  0  0
  -21.8824   -3.8146   23.4343 C   0  0  0  0  0  0
  -21.9186   -4.6960   22.3400 C   0  0  0  0  0  0
  -22.7803  -13.5206   21.1837 C   0  0  0  0  0  0
  -22.1650   -4.2158   21.0976 F   0  0  0  0  0  0
  -21.5592   -3.4519   25.7727 F   0  0  0  0  0  0
  -29.9914  -13.4936   20.3487 N   0  0  0  0  0  0
  -26.2949  -12.9369   20.3393 N   0  0  0  0  0  0
  -25.9323  -11.6526   20.5875 N   0  0  0  0  0  0
  -22.0436  -12.8184   22.0357 N   0  0  0  0  0  0
  -25.4092  -15.1848   20.3843 N   0  0  0  0  0  0
  -31.8629  -14.7461   20.2853 O   0  0  0  0  0  0
  -21.6608   -6.8899   21.4251 O   0  0  0  0  0  0
  -22.3533  -14.5562   20.6732 O   0  0  0  0  0  0
  -24.6266  -31.8608   23.2021 C   0  0  0  0  0  0
  -25.9108  -32.4784   23.8371 C   0  0  1  0  0  0
  -27.2189  -27.3053   20.1208 C   0  0  0  0  0  0
  -25.5922  -33.8594   24.2297 N   0  0  0  0  0  0
  -23.4190  -30.4844   21.5470 C   0  0  2  0  0  0
  -24.8620  -28.9364   20.1123 C   0  0  0  0  0  0
  -22.7464  -29.4636   22.4961 C   0  0  0  0  0  0
  -18.0277  -28.1372   22.8487 C   0  0  0  0  0  0
  -24.1472  -36.7284   23.2636 C   0  0  0  0  0  0
  -25.9594  -30.7893   21.3684 C   0  0  0  0  0  0
  -26.0319  -29.4147   20.7131 C   0  0  0  0  0  0
  -27.2098  -28.6099   20.7079 C   0  0  0  0  0  0
  -26.0204  -26.8756   19.5060 C   0  0  0  0  0  0
  -24.8585  -27.6732   19.5021 C   0  0  0  0  0  0
  -23.6301  -29.8182   20.1634 C   0  0  0  0  0  0
  -25.4099  -36.3099   24.0334 C   0  0  1  0  0  0
  -20.5876  -28.3678   23.1291 C   0  0  2  0  0  0
  -20.6774  -26.9409   22.5395 C   0  0  0  0  0  0
  -19.5743  -26.6381   21.5202 C   0  0  0  0  0  0
  -18.1920  -26.7919   22.1613 C   0  0  0  0  0  0
  -19.1529  -28.8846   23.2878 C   0  0  0  0  0  0
  -18.9453  -30.1452   23.8890 C   0  0  0  0  0  0
  -17.6456  -30.6578   24.0562 C   0  0  0  0  0  0
  -25.9038  -34.9467   23.5123 C   0  0  0  0  0  0
  -16.5347  -29.9070   23.6345 C   0  0  0  0  0  0
  -16.7272  -28.6489   23.0370 C   0  0  0  0  0  0
  -26.4487  -31.6582   25.0739 C   0  0  0  0  0  0
  -25.3708  -31.3667   26.1450 C   0  0  0  0  0  0
  -27.0373  -30.3054   24.6140 C   0  0  0  0  0  0
  -27.6047  -32.4332   25.7507 C   0  0  0  0  0  0
  -27.5567  -37.1801   24.8472 C   0  0  0  0  0  0
  -21.4176  -29.3038   22.3690 N   0  0  0  0  0  0
  -26.4276  -37.3790   23.9410 N   0  0  0  0  0  0
  -24.6882  -31.0610   22.0970 N   0  0  0  0  0  0
  -23.4187  -28.8189   23.3053 O   0  0  0  0  0  0
  -28.3513  -26.4757   20.2071 O   0  0  0  0  0  0
  -26.5587  -34.8917   22.4678 O   0  0  0  0  0  0
  -23.5438  -32.1428   23.7348 O   0  0  0  0  0  0
  -30.3001  -19.5722   20.6243 C   0  0  0  0  0  0
  -28.3741  -17.5641   20.6364 C   0  0  0  0  0  0
  -30.6809  -18.1999   20.3986 C   0  0  0  0  0  0
  -28.9566  -19.9923   20.8319 C   0  0  0  0  0  0
  -29.7068  -17.1450   20.4042 C   0  0  0  0  0  0
  -28.0073  -18.9224   20.8431 C   0  0  0  0  0  0
  -28.8000  -22.5618   20.3373 C   0  0  0  0  0  0
  -28.2728  -23.8198   20.5859 C   0  0  0  0  0  0
  -27.4739  -23.9575   21.8258 C   0  0  0  0  0  0
  -33.1352  -18.5580   20.7160 C   0  0  0  0  0  0
  -32.1035  -17.9020   20.1573 C   0  0  0  0  0  0
  -27.6762  -22.8780   22.8905 C   0  0  0  0  0  0
  -27.6732  -21.4770   22.2563 C   0  0  0  0  0  0
  -29.8607  -15.8129   18.3945 C   0  0  0  0  0  0
  -28.4103  -25.0923   19.6571 C   0  0  0  0  0  0
  -28.5831  -21.3698   21.1069 N   0  0  0  0  0  0
  -29.9156  -15.7855   19.8677 N   0  0  0  0  0  0
  -26.6582  -24.8579   22.0385 O   0  0  0  0  0  0
  -26.6887  -19.1847   21.0084 F   0  0  0  0  0  0
  -31.4608  -12.5551   19.1021 H   0  0  0  0  0  0
  -30.4027  -11.4497   19.9353 H   0  0  0  0  0  0
  -29.7363  -11.6092   17.5427 H   0  0  0  0  0  0
  -29.6397  -13.3241   17.6149 H   0  0  0  0  0  0
  -27.8271  -11.2810   18.8866 H   0  0  0  0  0  0
  -27.3641  -12.5531   17.7936 H   0  0  0  0  0  0
  -27.6204  -14.2514   19.4888 H   0  0  0  0  0  0
  -28.7411  -12.1603   21.4082 H   0  0  0  0  0  0
  -28.4706  -13.8526   21.7778 H   0  0  0  0  0  0
  -25.2734   -9.5624   22.4839 H   0  0  0  0  0  0
  -23.9914   -7.4624   22.7513 H   0  0  0  0  0  0
  -21.0858   -8.8832   19.8907 H   0  0  0  0  0  0
  -22.3797  -10.9686   19.6165 H   0  0  0  0  0  0
  -21.2075   -7.6142   23.9731 H   0  0  0  0  0  0
  -21.1445   -6.0507   25.9071 H   0  0  0  0  0  0
  -22.0611   -2.7606   23.2834 H   0  0  0  0  0  0
  -22.3975  -11.9745   22.4620 H   0  0  0  0  0  0
  -21.1102  -13.1288   22.2631 H   0  0  0  0  0  0
  -24.6237  -15.8256   20.4188 H   0  0  0  0  0  0
  -26.2316  -15.5862   19.9573 H   0  0  0  0  0  0
  -26.7175  -32.5462   23.1120 H   0  0  0  0  0  0
  -25.0173  -33.9751   25.0518 H   0  0  0  0  0  0
  -22.7136  -31.3072   21.4055 H   0  0  0  0  0  0
  -23.3752  -35.9594   23.3304 H   0  0  0  0  0  0
  -24.3565  -36.8915   22.2049 H   0  0  0  0  0  0
  -23.7205  -37.6478   23.6656 H   0  0  0  0  0  0
  -26.0817  -31.5467   20.5931 H   0  0  0  0  0  0
  -26.8441  -30.8477   21.9889 H   0  0  0  0  0  0
  -28.1076  -28.9768   21.1860 H   0  0  0  0  0  0
  -25.9314  -25.9002   19.0557 H   0  0  0  0  0  0
  -23.9524  -27.2950   19.0478 H   0  0  0  0  0  0
  -23.7441  -30.5961   19.4076 H   0  0  0  0  0  0
  -22.7485  -29.2486   19.8631 H   0  0  0  0  0  0
  -25.1269  -36.1956   25.0823 H   0  0  0  0  0  0
  -20.9957  -28.3232   24.1419 H   0  0  0  0  0  0
  -20.5707  -26.2273   23.3571 H   0  0  0  0  0  0
  -21.6643  -26.7458   22.1175 H   0  0  0  0  0  0
  -19.6911  -25.6292   21.1236 H   0  0  0  0  0  0
  -19.6695  -27.3185   20.6726 H   0  0  0  0  0  0
  -17.4200  -26.6691   21.3998 H   0  0  0  0  0  0
  -18.0320  -26.0036   22.8990 H   0  0  0  0  0  0
  -19.7930  -30.7271   24.2251 H   0  0  0  0  0  0
  -17.5013  -31.6258   24.5155 H   0  0  0  0  0  0
  -15.5353  -30.2972   23.7678 H   0  0  0  0  0  0
  -15.8669  -28.0806   22.7109 H   0  0  0  0  0  0
  -24.5966  -30.6917   25.7781 H   0  0  0  0  0  0
  -24.8773  -32.2790   26.4817 H   0  0  0  0  0  0
  -25.8055  -30.8932   27.0266 H   0  0  0  0  0  0
  -26.2978  -29.6782   24.1166 H   0  0  0  0  0  0
  -27.4156  -29.7313   25.4599 H   0  0  0  0  0  0
  -27.8770  -30.4427   23.9332 H   0  0  0  0  0  0
  -27.2702  -33.3704   26.1967 H   0  0  0  0  0  0
  -28.3909  -32.6780   25.0353 H   0  0  0  0  0  0
  -28.0624  -31.8515   26.5508 H   0  0  0  0  0  0
  -28.2581  -38.0107   24.7558 H   0  0  0  0  0  0
  -28.1091  -36.2646   24.6284 H   0  0  0  0  0  0
  -27.2288  -37.1437   25.8880 H   0  0  0  0  0  0
  -20.9341  -29.8774   21.6911 H   0  0  0  0  0  0
  -26.0169  -38.2870   24.1423 H   0  0  0  0  0  0
  -31.0635  -20.3380   20.6256 H   0  0  0  0  0  0
  -27.5844  -16.8328   20.5907 H   0  0  0  0  0  0
  -29.3953  -22.3927   19.4499 H   0  0  0  0  0  0
  -34.1559  -18.2977   20.4701 H   0  0  0  0  0  0
  -32.9901  -19.3573   21.4292 H   0  0  0  0  0  0
  -32.3185  -17.1132   19.4503 H   0  0  0  0  0  0
  -26.9012  -22.9483   23.6539 H   0  0  0  0  0  0
  -28.6303  -23.0601   23.3855 H   0  0  0  0  0  0
  -26.6551  -21.2630   21.9305 H   0  0  0  0  0  0
  -27.9317  -20.7405   23.0190 H   0  0  0  0  0  0
  -28.9262  -15.3853   18.0316 H   0  0  0  0  0  0
  -30.6897  -15.2793   17.9252 H   0  0  0  0  0  0
  -29.9042  -16.8266   17.9949 H   0  0  0  0  0  0
  -27.7477  -24.9614   18.8058 H   0  0  0  0  0  0
  -29.4006  -25.0142   19.2077 H   0  0  0  0  0  0
  1 25  1  0  0  0
  1 30  2  0  0  0
  1 87  1  0  0  0
  2  3  1  0  0  0
  2 25  1  0  0  0
  2 90  1  0  0  0
  2 91  1  0  0  0
  3  4  1  0  0  0
  3 92  1  0  0  0
  3 93  1  0  0  0
  4  5  1  0  0  0
  4 94  1  0  0  0
  4 95  1  0  0  0
  5  6  1  0  0  0
  5 26  1  0  0  0
  5 96  1  0  0  0
  6 25  1  0  0  0
  6 97  1  0  0  0
  6 98  1  0  0  0
  7  8  2  0  0  0
  7 26  1  0  0  0
  7 29  1  0  0  0
  8  9  1  0  0  0
  8 22  1  0  0  0
  9 10  1  0  0  0
  9 27  2  0  0  0
 10 11  2  0  0  0
 10 15  1  0  0  0
 11 12  1  0  0  0
 11 99  1  0  0  0
 12 13  2  0  0  0
 12100  1  0  0  0
 13 14  1  0  0  0
 13 31  1  0  0  0
 14 15  2  0  0  0
 14101  1  0  0  0
 15102  1  0  0  0
 16 17  2  0  0  0
 16 21  1  0  0  0
 16 31  1  0  0  0
 17 18  1  0  0  0
 17103  1  0  0  0
 18 19  2  0  0  0
 18104  1  0  0  0
 19 20  1  0  0  0
 19 24  1  0  0  0
 20 21  2  0  0  0
 20105  1  0  0  0
 21 23  1  0  0  0
 22 28  1  0  0  0
 22 32  2  0  0  0
 26 27  1  0  0  0
 28106  1  0  0  0
 28107  1  0  0  0
 29108  1  0  0  0
 29109  1  0  0  0
 33 34  1  0  0  0
 33 66  1  0  0  0
 33 70  2  0  0  0
 34 36  1  0  0  0
 34 59  1  0  0  0
 34110  1  0  0  0
 35 44  2  0  0  0
 35 45  1  0  0  0
 35 68  1  0  0  0
 36 56  1  0  0  0
 36111  1  0  0  0
 37 39  1  0  0  0
 37 47  1  0  0  0
 37 66  1  0  0  0
 37112  1  0  0  0
 38 43  2  0  0  0
 38 46  1  0  0  0
 38 47  1  0  0  0
 39 64  1  0  0  0
 39 67  2  0  0  0
 40 52  1  0  0  0
 40 53  2  0  0  0
 40 58  1  0  0  0
 41113  1  0  0  0
 41114  1  0  0  0
 41115  1  0  0  0
 41 48  1  0  0  0
 42 43  1  0  0  0
 42 66  1  0  0  0
 42116  1  0  0  0
 42117  1  0  0  0
 43 44  1  0  0  0
 44118  1  0  0  0
 45 46  2  0  0  0
 45119  1  0  0  0
 46120  1  0  0  0
 47121  1  0  0  0
 47122  1  0  0  0
 48 56  1  0  0  0
 48 65  1  0  0  0
 48123  1  0  0  0
 49 50  1  0  0  0
 49 53  1  0  0  0
 49 64  1  0  0  0
 49124  1  0  0  0
 50 51  1  0  0  0
 50125  1  0  0  0
 50126  1  0  0  0
 51 52  1  0  0  0
 51127  1  0  0  0
 51128  1  0  0  0
 52129  1  0  0  0
 52130  1  0  0  0
 53 54  1  0  0  0
 54 55  2  0  0  0
 54131  1  0  0  0
 55 57  1  0  0  0
 55132  1  0  0  0
 56 69  2  0  0  0
 57 58  2  0  0  0
 57133  1  0  0  0
 58134  1  0  0  0
 59 60  1  0  0  0
 59 61  1  0  0  0
 59 62  1  0  0  0
 60135  1  0  0  0
 60136  1  0  0  0
 60137  1  0  0  0
 61138  1  0  0  0
 61139  1  0  0  0
 61140  1  0  0  0
 62141  1  0  0  0
 62142  1  0  0  0
 62143  1  0  0  0
 63 65  1  0  0  0
 63144  1  0  0  0
 63145  1  0  0  0
 63146  1  0  0  0
 64147  1  0  0  0
 65148  1  0  0  0
 68 85  1  0  0  0
 71 73  2  0  0  0
 71 74  1  0  0  0
 71149  1  0  0  0
 72 75  2  0  0  0
 72 76  1  0  0  0
 72150  1  0  0  0
 73 75  1  0  0  0
 73 81  1  0  0  0
 74 76  2  0  0  0
 74 86  1  0  0  0
 75 87  1  0  0  0
 76 89  1  0  0  0
 77 78  2  0  0  0
 77 86  1  0  0  0
 77151  1  0  0  0
 78 79  1  0  0  0
 78 85  1  0  0  0
 79 82  1  0  0  0
 79 88  2  0  0  0
 80 81  2  0  0  0
 80152  1  0  0  0
 80153  1  0  0  0
 81154  1  0  0  0
 82 83  1  0  0  0
 82155  1  0  0  0
 82156  1  0  0  0
 83 86  1  0  0  0
 83157  1  0  0  0
 83158  1  0  0  0
 84 87  1  0  0  0
 84159  1  0  0  0
 84160  1  0  0  0
 84161  1  0  0  0
 85162  1  0  0  0
 85163  1  0  0  0
M  ISO  4   1 100  68 101  85 101  87 100
M  END
> <chiral flag>
0

> <version>
0

> <s_m_source_file>
/data/baiqing/PycharmProjects/Reinvent-master-3.2/result/LINK_invent/BTK/process_docking_weight1_custom_product_contain_oxygen_bond_distance_aromatic_linkinvent_7_9_3/rearranged_h_0109.sdf

> <i_m_source_file_index>
61

> <r_mmod_Potential_Energy-OPLS-2005>
396.78125

> <r_mmod_Stretch_Energy-OPLS-2005>
99.6768951416016

> <r_mmod_Bend_Energy-OPLS-2005>
166.288635253906

> <r_mmod_Torsional_Energy-OPLS-2005>
343.041107177734

> <r_mmod_Improper_Torsional_Energy-OPLS-2005>
30.4564380645752

> <r_mmod_Van_der_Waal_Energy-OPLS-2005>
157.684753417969

> <r_mmod_Electrostatic_Energy-OPLS-2005>
-266.245910644531

> <r_mmod_Solvation_Energy-OPLS-2005>
-208.614471435547

> <b_mmod_Minimization_Converged-OPLS-2005>
0

> <r_mmod_RMS_Derivative-OPLS-2005>
3.4360089302063

$$$$
61
                    3D
 Structure written by MMmdl.
171180  0  0  1  0            999 V2000
  -30.7319  -14.4342   20.6331 C   0  0  0  0  0  0
  -30.4158  -12.3125   19.4041 C   0  0  0  0  0  0
  -29.4828  -12.5156   18.1952 C   0  0  0  0  0  0
  -28.0067  -12.3700   18.6134 C   0  0  0  0  0  0
  -27.6586  -13.2063   19.8730 C   0  0  2  0  0  0
  -28.6996  -12.9764   20.9893 C   0  0  0  0  0  0
  -25.2574  -13.8168   20.5685 C   0  0  0  0  0  0
  -24.1821  -13.0443   20.9169 C   0  0  0  0  0  0
  -24.6372  -11.6908   20.8727 C   0  0  0  0  0  0
  -23.9040  -10.4295   21.0399 C   0  0  0  0  0  0
  -24.3600   -9.4215   21.9178 C   0  0  0  0  0  0
  -23.6284   -8.2244   22.0752 C   0  0  0  0  0  0
  -22.4267   -8.0278   21.3542 C   0  0  0  0  0  0
  -21.9896   -9.0247   20.4641 C   0  0  0  0  0  0
  -22.7217  -10.2127   20.3050 C   0  0  0  0  0  0
  -21.6852   -6.0733   22.5278 C   0  0  0  0  0  0
  -21.4011   -6.5638   23.8210 C   0  0  0  0  0  0
  -21.3658   -5.6795   24.9176 C   0  0  0  0  0  0
  -21.6046   -4.3054   24.7225 C   0  0  0  0  0  0
  -21.8818   -3.8142   23.4346 C   0  0  0  0  0  0
  -21.9192   -4.6960   22.3401 C   0  0  0  0  0  0
  -22.7846  -13.5241   21.1848 C   0  0  0  0  0  0
  -22.1662   -4.2144   21.0977 F   0  0  0  0  0  0
  -21.5630   -3.4538   25.7739 F   0  0  0  0  0  0
  -30.0310  -13.2853   20.4380 N   0  0  0  0  0  0
  -26.3001  -12.9331   20.3367 N   0  0  0  0  0  0
  -25.9296  -11.6491   20.5758 N   0  0  0  0  0  0
  -22.0493  -12.8222   22.0404 N   0  0  0  0  0  0
  -25.4319  -15.1889   20.4109 N   0  0  0  0  0  0
  -31.8230  -14.6492   20.1005 O   0  0  0  0  0  0
  -21.6640   -6.8872   21.4241 O   0  0  0  0  0  0
  -22.3531  -14.5559   20.6720 O   0  0  0  0  0  0
  -24.6176  -31.8679   23.2104 C   0  0  0  0  0  0
  -25.9063  -32.4827   23.8396 C   0  0  1  0  0  0
  -27.2233  -27.4133   20.0921 C   0  0  0  0  0  0
  -25.5917  -33.8626   24.2323 N   0  0  0  0  0  0
  -23.4044  -30.4949   21.5513 C   0  0  2  0  0  0
  -24.8477  -28.9644   20.1117 C   0  0  0  0  0  0
  -22.7432  -29.4670   22.4979 C   0  0  0  0  0  0
  -18.0274  -28.1384   22.8498 C   0  0  0  0  0  0
  -24.1485  -36.7293   23.2643 C   0  0  0  0  0  0
  -25.9384  -30.8254   21.3691 C   0  0  0  0  0  0
  -26.0116  -29.4616   20.7109 C   0  0  0  0  0  0
  -27.2027  -28.6943   20.6973 C   0  0  0  0  0  0
  -26.0380  -26.9465   19.4743 C   0  0  0  0  0  0
  -24.8578  -27.7070   19.4896 C   0  0  0  0  0  0
  -23.6116  -29.8323   20.1641 C   0  0  0  0  0  0
  -25.4110  -36.3107   24.0340 C   0  0  1  0  0  0
  -20.5874  -28.3671   23.1311 C   0  0  2  0  0  0
  -20.6772  -26.9403   22.5417 C   0  0  0  0  0  0
  -19.5739  -26.6382   21.5223 C   0  0  0  0  0  0
  -18.1911  -26.7934   22.1628 C   0  0  0  0  0  0
  -19.1530  -28.8842   23.2900 C   0  0  0  0  0  0
  -18.9461  -30.1453   23.8908 C   0  0  0  0  0  0
  -17.6463  -30.6592   24.0575 C   0  0  0  0  0  0
  -25.9037  -34.9480   23.5120 C   0  0  0  0  0  0
  -16.5350  -29.9095   23.6344 C   0  0  0  0  0  0
  -16.7266  -28.6514   23.0360 C   0  0  0  0  0  0
  -26.4477  -31.6624   25.0740 C   0  0  0  0  0  0
  -25.3737  -31.3741   26.1489 C   0  0  0  0  0  0
  -27.0329  -30.3068   24.6127 C   0  0  0  0  0  0
  -27.6040  -32.4365   25.7499 C   0  0  0  0  0  0
  -27.5580  -37.1800   24.8466 C   0  0  0  0  0  0
  -21.4157  -29.3048   22.3731 N   0  0  0  0  0  0
  -26.4283  -37.3803   23.9414 N   0  0  0  0  0  0
  -24.6716  -31.0780   22.1005 N   0  0  0  0  0  0
  -23.4205  -28.8201   23.3010 O   0  0  0  0  0  0
  -28.3787  -26.6482   20.1307 O   0  0  0  0  0  0
  -26.5600  -34.8936   22.4683 O   0  0  0  0  0  0
  -23.5364  -32.1432   23.7491 O   0  0  0  0  0  0
  -29.3414  -20.0202   21.6143 C   0  0  0  0  0  0
  -31.4242  -19.8688   20.3946 C   0  0  0  0  0  0
  -29.4290  -18.6447   21.9536 C   0  0  0  0  0  0
  -30.5597  -17.8816   21.5502 C   0  0  0  0  0  0
  -30.3497  -20.6630   20.8579 C   0  0  0  0  0  0
  -31.5342  -18.5079   20.7397 C   0  0  0  0  0  0
  -29.3644  -24.2882   20.3785 C   0  0  0  0  0  0
  -29.3199  -22.9233   20.2305 C   0  0  0  0  0  0
  -30.5415  -24.8960   21.0612 C   0  0  0  0  0  0
  -31.4389  -23.9572   21.8550 C   0  0  0  0  0  0
  -31.6449  -22.6478   21.0926 C   0  0  0  0  0  0
  -28.5273  -18.3129   24.3037 C   0  0  0  0  0  0
  -28.6131  -21.5345   18.1915 C   0  0  0  0  0  0
  -28.3206  -18.0453   22.8080 C   0  0  0  0  0  0
  -30.8387  -16.4665   22.0864 C   0  0  0  0  0  0
  -28.2373  -25.2282   19.8943 C   0  0  0  0  0  0
  -28.1686  -22.2249   19.4907 C   0  0  0  0  0  0
  -30.3682  -22.0710   20.6550 N   0  0  0  0  0  0
  -30.1546  -15.3375   21.4423 N   0  0  0  0  0  0
  -30.8520  -26.0904   21.0219 O   0  0  0  0  0  0
  -32.6251  -17.8179   20.3276 F   0  0  0  0  0  0
  -31.4589  -12.4153   19.0984 H   0  0  0  0  0  0
  -30.3209  -11.2977   19.7944 H   0  0  0  0  0  0
  -29.7207  -11.7971   17.4096 H   0  0  0  0  0  0
  -29.6462  -13.5054   17.7657 H   0  0  0  0  0  0
  -27.8201  -11.3126   18.8073 H   0  0  0  0  0  0
  -27.3520  -12.6465   17.7867 H   0  0  0  0  0  0
  -27.7064  -14.2563   19.5823 H   0  0  0  0  0  0
  -28.6774  -11.9373   21.3188 H   0  0  0  0  0  0
  -28.4501  -13.5609   21.8751 H   0  0  0  0  0  0
  -25.2747   -9.5698   22.4753 H   0  0  0  0  0  0
  -23.9996   -7.4639   22.7469 H   0  0  0  0  0  0
  -21.0833   -8.8753   19.8948 H   0  0  0  0  0  0
  -22.3675  -10.9661   19.6154 H   0  0  0  0  0  0
  -21.2002   -7.6144   23.9712 H   0  0  0  0  0  0
  -21.1483   -6.0525   25.9078 H   0  0  0  0  0  0
  -22.0596   -2.7604   23.2848 H   0  0  0  0  0  0
  -22.4105  -11.9866   22.4763 H   0  0  0  0  0  0
  -21.1118  -13.1249   22.2643 H   0  0  0  0  0  0
  -24.6680  -15.8471   20.5195 H   0  0  0  0  0  0
  -26.2897  -15.6259   20.0975 H   0  0  0  0  0  0
  -26.7143  -32.5520   23.1159 H   0  0  0  0  0  0
  -25.0130  -33.9805   25.0514 H   0  0  0  0  0  0
  -22.6926  -31.3116   21.4139 H   0  0  0  0  0  0
  -23.3766  -35.9608   23.3312 H   0  0  0  0  0  0
  -24.3575  -36.8903   22.2054 H   0  0  0  0  0  0
  -23.7215  -37.6488   23.6657 H   0  0  0  0  0  0
  -26.0621  -31.5923   20.6038 H   0  0  0  0  0  0
  -26.8230  -30.8700   21.9923 H   0  0  0  0  0  0
  -28.1002  -29.0715   21.1676 H   0  0  0  0  0  0
  -25.9957  -25.9922   18.9701 H   0  0  0  0  0  0
  -23.9660  -27.3200   19.0170 H   0  0  0  0  0  0
  -23.7200  -30.6095   19.4069 H   0  0  0  0  0  0
  -22.7347  -29.2545   19.8669 H   0  0  0  0  0  0
  -25.1284  -36.1970   25.0832 H   0  0  0  0  0  0
  -20.9957  -28.3237   24.1435 H   0  0  0  0  0  0
  -20.5692  -26.2275   23.3606 H   0  0  0  0  0  0
  -21.6635  -26.7450   22.1187 H   0  0  0  0  0  0
  -19.6896  -25.6296   21.1245 H   0  0  0  0  0  0
  -19.6680  -27.3210   20.6772 H   0  0  0  0  0  0
  -17.4188  -26.6720   21.4015 H   0  0  0  0  0  0
  -18.0274  -26.0053   22.8992 H   0  0  0  0  0  0
  -19.7945  -30.7270   24.2259 H   0  0  0  0  0  0
  -17.5026  -31.6280   24.5170 H   0  0  0  0  0  0
  -15.5356  -30.3010   23.7666 H   0  0  0  0  0  0
  -15.8662  -28.0846   22.7061 H   0  0  0  0  0  0
  -24.5892  -30.7107   25.7831 H   0  0  0  0  0  0
  -24.8947  -32.2911   26.4949 H   0  0  0  0  0  0
  -25.8080  -30.8905   27.0246 H   0  0  0  0  0  0
  -26.2892  -29.6821   24.1173 H   0  0  0  0  0  0
  -27.4105  -29.7318   25.4589 H   0  0  0  0  0  0
  -27.8716  -30.4403   23.9290 H   0  0  0  0  0  0
  -27.2637  -33.3663   26.2077 H   0  0  0  0  0  0
  -28.3847  -32.6947   25.0331 H   0  0  0  0  0  0
  -28.0709  -31.8498   26.5418 H   0  0  0  0  0  0
  -28.2595  -38.0104   24.7538 H   0  0  0  0  0  0
  -28.1082  -36.2639   24.6264 H   0  0  0  0  0  0
  -27.2297  -37.1405   25.8869 H   0  0  0  0  0  0
  -20.9314  -29.8795   21.6981 H   0  0  0  0  0  0
  -26.0175  -38.2876   24.1440 H   0  0  0  0  0  0
  -28.5136  -20.6003   21.9952 H   0  0  0  0  0  0
  -32.2104  -20.3116   19.8023 H   0  0  0  0  0  0
  -30.9640  -23.7633   22.8166 H   0  0  0  0  0  0
  -32.3978  -24.4341   22.0561 H   0  0  0  0  0  0
  -32.1971  -21.9666   21.7431 H   0  0  0  0  0  0
  -32.2739  -22.8235   20.2187 H   0  0  0  0  0  0
  -27.7083  -17.8934   24.8884 H   0  0  0  0  0  0
  -28.5668  -19.3824   24.5116 H   0  0  0  0  0  0
  -29.4546  -17.8701   24.6671 H   0  0  0  0  0  0
  -27.7545  -21.1147   17.6669 H   0  0  0  0  0  0
  -29.3091  -20.7172   18.3739 H   0  0  0  0  0  0
  -29.0985  -22.2400   17.5172 H   0  0  0  0  0  0
  -28.2297  -16.9744   22.6273 H   0  0  0  0  0  0
  -27.3662  -18.4701   22.4935 H   0  0  0  0  0  0
  -30.5689  -16.4418   23.1419 H   0  0  0  0  0  0
  -31.9163  -16.2935   22.0911 H   0  0  0  0  0  0
  -27.3397  -24.8740   20.4059 H   0  0  0  0  0  0
  -28.1014  -25.0705   18.8232 H   0  0  0  0  0  0
  -27.3731  -22.9216   19.2341 H   0  0  0  0  0  0
  -27.6803  -21.5051   20.1451 H   0  0  0  0  0  0
  -29.2403  -15.0970   21.7922 H   0  0  0  0  0  0
  1 25  1  0  0  0
  1 30  2  0  0  0
  1 89  1  0  0  0
  2  3  1  0  0  0
  2 25  1  0  0  0
  2 92  1  0  0  0
  2 93  1  0  0  0
  3  4  1  0  0  0
  3 94  1  0  0  0
  3 95  1  0  0  0
  4  5  1  0  0  0
  4 96  1  0  0  0
  4 97  1  0  0  0
  5  6  1  0  0  0
  5 26  1  0  0  0
  5 98  1  0  0  0
  6 25  1  0  0  0
  6 99  1  0  0  0
  6100  1  0  0  0
  7  8  2  0  0  0
  7 26  1  0  0  0
  7 29  1  0  0  0
  8  9  1  0  0  0
  8 22  1  0  0  0
  9 10  1  0  0  0
  9 27  2  0  0  0
 10 11  2  0  0  0
 10 15  1  0  0  0
 11 12  1  0  0  0
 11101  1  0  0  0
 12 13  2  0  0  0
 12102  1  0  0  0
 13 14  1  0  0  0
 13 31  1  0  0  0
 14 15  2  0  0  0
 14103  1  0  0  0
 15104  1  0  0  0
 16 17  2  0  0  0
 16 21  1  0  0  0
 16 31  1  0  0  0
 17 18  1  0  0  0
 17105  1  0  0  0
 18 19  2  0  0  0
 18106  1  0  0  0
 19 20  1  0  0  0
 19 24  1  0  0  0
 20 21  2  0  0  0
 20107  1  0  0  0
 21 23  1  0  0  0
 22 28  1  0  0  0
 22 32  2  0  0  0
 26 27  1  0  0  0
 28108  1  0  0  0
 28109  1  0  0  0
 29110  1  0  0  0
 29111  1  0  0  0
 33 34  1  0  0  0
 33 66  1  0  0  0
 33 70  2  0  0  0
 34 36  1  0  0  0
 34 59  1  0  0  0
 34112  1  0  0  0
 35 44  2  0  0  0
 35 45  1  0  0  0
 35 68  1  0  0  0
 36 56  1  0  0  0
 36113  1  0  0  0
 37 39  1  0  0  0
 37 47  1  0  0  0
 37 66  1  0  0  0
 37114  1  0  0  0
 38 43  2  0  0  0
 38 46  1  0  0  0
 38 47  1  0  0  0
 39 64  1  0  0  0
 39 67  2  0  0  0
 40 52  1  0  0  0
 40 53  2  0  0  0
 40 58  1  0  0  0
 41115  1  0  0  0
 41116  1  0  0  0
 41117  1  0  0  0
 41 48  1  0  0  0
 42 43  1  0  0  0
 42 66  1  0  0  0
 42118  1  0  0  0
 42119  1  0  0  0
 43 44  1  0  0  0
 44120  1  0  0  0
 45 46  2  0  0  0
 45121  1  0  0  0
 46122  1  0  0  0
 47123  1  0  0  0
 47124  1  0  0  0
 48 56  1  0  0  0
 48 65  1  0  0  0
 48125  1  0  0  0
 49 50  1  0  0  0
 49 53  1  0  0  0
 49 64  1  0  0  0
 49126  1  0  0  0
 50 51  1  0  0  0
 50127  1  0  0  0
 50128  1  0  0  0
 51 52  1  0  0  0
 51129  1  0  0  0
 51130  1  0  0  0
 52131  1  0  0  0
 52132  1  0  0  0
 53 54  1  0  0  0
 54 55  2  0  0  0
 54133  1  0  0  0
 55 57  1  0  0  0
 55134  1  0  0  0
 56 69  2  0  0  0
 57 58  2  0  0  0
 57135  1  0  0  0
 58136  1  0  0  0
 59 60  1  0  0  0
 59 61  1  0  0  0
 59 62  1  0  0  0
 60137  1  0  0  0
 60138  1  0  0  0
 60139  1  0  0  0
 61140  1  0  0  0
 61141  1  0  0  0
 61142  1  0  0  0
 62143  1  0  0  0
 62144  1  0  0  0
 62145  1  0  0  0
 63 65  1  0  0  0
 63146  1  0  0  0
 63147  1  0  0  0
 63148  1  0  0  0
 64149  1  0  0  0
 65150  1  0  0  0
 68 86  1  0  0  0
 71 73  2  0  0  0
 71 75  1  0  0  0
 71151  1  0  0  0
 72 75  2  0  0  0
 72 76  1  0  0  0
 72152  1  0  0  0
 73 74  1  0  0  0
 73 84  1  0  0  0
 74 76  2  0  0  0
 74 85  1  0  0  0
 75 88  1  0  0  0
 76 91  1  0  0  0
 77 78  2  0  0  0
 77 79  1  0  0  0
 77 86  1  0  0  0
 78 87  1  0  0  0
 78 88  1  0  0  0
 79 80  1  0  0  0
 79 90  2  0  0  0
 80 81  1  0  0  0
 80153  1  0  0  0
 80154  1  0  0  0
 81 88  1  0  0  0
 81155  1  0  0  0
 81156  1  0  0  0
 82 84  1  0  0  0
 82157  1  0  0  0
 82158  1  0  0  0
 82159  1  0  0  0
 83 87  1  0  0  0
 83160  1  0  0  0
 83161  1  0  0  0
 83162  1  0  0  0
 84163  1  0  0  0
 84164  1  0  0  0
 85 89  1  0  0  0
 85165  1  0  0  0
 85166  1  0  0  0
 86167  1  0  0  0
 86168  1  0  0  0
 87169  1  0  0  0
 87170  1  0  0  0
 89171  1  0  0  0
M  ISO  4   1 100  68 101  86 101  89 100
M  END
> <chiral flag>
0

> <version>
0

> <s_m_source_file>
/data/baiqing/PycharmProjects/Reinvent-master-3.2/result/LINK_invent/BTK/process_docking_weight1_custom_product_contain_oxygen_bond_distance_aromatic_linkinvent_7_9_3/rearranged_h_0109.sdf

> <i_m_source_file_index>
62

> <r_mmod_Potential_Energy-OPLS-2005>
-50.2100563049316

> <r_mmod_Stretch_Energy-OPLS-2005>
48.6819915771484

> <r_mmod_Bend_Energy-OPLS-2005>
107.948257446289

> <r_mmod_Torsional_Energy-OPLS-2005>
197.985870361328

> <r_mmod_Improper_Torsional_Energy-OPLS-2005>
3.34184885025024

> <r_mmod_Van_der_Waal_Energy-OPLS-2005>
181.332412719727

> <r_mmod_Electrostatic_Energy-OPLS-2005>
-378.237152099609

> <r_mmod_Solvation_Energy-OPLS-2005>
-224.400619506836

> <b_mmod_Minimization_Converged-OPLS-2005>
0

> <r_mmod_RMS_Derivative-OPLS-2005>
1.35730707645416

$$$$
62
                    3D
 Structure written by MMmdl.
155163  0  0  1  0            999 V2000
  -30.6241  -14.7048   20.4713 C   0  0  0  0  0  0
  -30.4373  -12.4128   19.4890 C   0  0  0  0  0  0
  -29.5194  -12.4272   18.2421 C   0  0  0  0  0  0
  -28.0236  -12.3474   18.6211 C   0  0  0  0  0  0
  -27.6450  -13.2197   19.8502 C   0  0  2  0  0  0
  -28.6858  -13.0929   20.9803 C   0  0  0  0  0  0
  -25.2562  -13.8165   20.5660 C   0  0  0  0  0  0
  -24.1827  -13.0424   20.9178 C   0  0  0  0  0  0
  -24.6389  -11.6901   20.8696 C   0  0  0  0  0  0
  -23.9052  -10.4285   21.0360 C   0  0  0  0  0  0
  -24.3606   -9.4212   21.9150 C   0  0  0  0  0  0
  -23.6278   -8.2248   22.0749 C   0  0  0  0  0  0
  -22.4262   -8.0273   21.3547 C   0  0  0  0  0  0
  -21.9891   -9.0228   20.4639 C   0  0  0  0  0  0
  -22.7214  -10.2116   20.3026 C   0  0  0  0  0  0
  -21.6850   -6.0731   22.5284 C   0  0  0  0  0  0
  -21.4015   -6.5635   23.8212 C   0  0  0  0  0  0
  -21.3668   -5.6791   24.9178 C   0  0  0  0  0  0
  -21.6045   -4.3049   24.7227 C   0  0  0  0  0  0
  -21.8815   -3.8146   23.4342 C   0  0  0  0  0  0
  -21.9190   -4.6964   22.3404 C   0  0  0  0  0  0
  -22.7866  -13.5219   21.1849 C   0  0  0  0  0  0
  -22.1661   -4.2158   21.0974 F   0  0  0  0  0  0
  -21.5626   -3.4527   25.7729 F   0  0  0  0  0  0
  -29.9936  -13.4745   20.4240 N   0  0  0  0  0  0
  -26.2956  -12.9340   20.3246 N   0  0  0  0  0  0
  -25.9314  -11.6502   20.5711 N   0  0  0  0  0  0
  -22.0511  -12.8221   22.0420 N   0  0  0  0  0  0
  -25.4279  -15.1880   20.4101 N   0  0  0  0  0  0
  -31.7876  -14.8161   20.0679 O   0  0  0  0  0  0
  -21.6629   -6.8875   21.4246 O   0  0  0  0  0  0
  -22.3550  -14.5517   20.6698 O   0  0  0  0  0  0
  -24.6272  -31.8577   23.1996 C   0  0  0  0  0  0
  -25.9120  -32.4769   23.8320 C   0  0  1  0  0  0
  -27.2146  -27.2938   20.1092 C   0  0  0  0  0  0
  -25.5923  -33.8568   24.2238 N   0  0  0  0  0  0
  -23.4193  -30.4828   21.5435 C   0  0  2  0  0  0
  -24.8636  -28.9369   20.1090 C   0  0  0  0  0  0
  -22.7472  -29.4602   22.4919 C   0  0  0  0  0  0
  -18.0275  -28.1389   22.8487 C   0  0  0  0  0  0
  -24.1487  -36.7305   23.2636 C   0  0  0  0  0  0
  -25.9639  -30.7774   21.3769 C   0  0  0  0  0  0
  -26.0338  -29.4027   20.7213 C   0  0  0  0  0  0
  -27.2082  -28.5878   20.7222 C   0  0  0  0  0  0
  -26.0254  -26.9058   19.4439 C   0  0  0  0  0  0
  -24.8625  -27.6945   19.4623 C   0  0  0  0  0  0
  -23.6330  -29.8175   20.1593 C   0  0  0  0  0  0
  -25.4115  -36.3074   24.0319 C   0  0  1  0  0  0
  -20.5879  -28.3666   23.1258 C   0  0  2  0  0  0
  -20.6752  -26.9393   22.5373 C   0  0  0  0  0  0
  -19.5722  -26.6388   21.5166 C   0  0  0  0  0  0
  -18.1918  -26.7936   22.1608 C   0  0  0  0  0  0
  -19.1537  -28.8837   23.2878 C   0  0  0  0  0  0
  -18.9482  -30.1434   23.8918 C   0  0  0  0  0  0
  -17.6486  -30.6577   24.0600 C   0  0  0  0  0  0
  -25.9056  -34.9443   23.5073 C   0  0  0  0  0  0
  -16.5372  -29.9097   23.6352 C   0  0  0  0  0  0
  -16.7266  -28.6520   23.0355 C   0  0  0  0  0  0
  -26.4486  -31.6584   25.0710 C   0  0  0  0  0  0
  -25.3715  -31.3746   26.1434 C   0  0  0  0  0  0
  -27.0313  -30.2993   24.6178 C   0  0  0  0  0  0
  -27.6022  -32.4329   25.7503 C   0  0  0  0  0  0
  -27.5575  -37.1811   24.8461 C   0  0  0  0  0  0
  -21.4179  -29.3038   22.3683 N   0  0  0  0  0  0
  -26.4291  -37.3779   23.9402 N   0  0  0  0  0  0
  -24.6887  -31.0566   22.0956 N   0  0  0  0  0  0
  -23.4209  -28.8132   23.2982 O   0  0  0  0  0  0
  -28.3233  -26.4247   20.1873 O   0  0  0  0  0  0
  -26.5632  -34.8920   22.4646 O   0  0  0  0  0  0
  -23.5432  -32.1395   23.7314 O   0  0  0  0  0  0
  -29.5457  -18.5404   17.9266 C   0  0  0  0  0  0
  -29.3647  -19.7755   18.5663 C   0  0  0  0  0  0
  -29.6261  -18.6420   20.6871 C   0  0  0  0  0  0
  -29.7753  -17.3267   20.0706 C   0  0  0  0  0  0
  -29.7315  -17.3357   18.6398 C   0  0  0  0  0  0
  -29.4168  -19.8843   19.9702 C   0  0  0  0  0  0
  -29.8274  -16.0153   20.9305 C   0  0  0  0  0  0
  -29.8135  -16.0842   17.7835 C   0  0  0  0  0  0
  -28.9503  -23.8121   20.5300 C   0  0  0  0  0  0
  -28.8987  -22.3653   19.8420 C   0  0  0  0  0  0
  -28.1998  -24.9971   19.7640 C   0  0  0  0  0  0
  -29.2425  -16.0338   22.0564 N   0  0  0  0  0  0
  -29.2766  -21.1473   20.6074 O   0  0  0  0  0  0
  -31.4787  -12.5304   19.1859 H   0  0  0  0  0  0
  -30.3893  -11.4419   19.9846 H   0  0  0  0  0  0
  -29.7685  -11.5823   17.5978 H   0  0  0  0  0  0
  -29.7198  -13.3092   17.6411 H   0  0  0  0  0  0
  -27.7939  -11.3009   18.8237 H   0  0  0  0  0  0
  -27.4049  -12.6210   17.7648 H   0  0  0  0  0  0
  -27.6523  -14.2527   19.5086 H   0  0  0  0  0  0
  -28.7213  -12.0661   21.3463 H   0  0  0  0  0  0
  -28.4021  -13.6838   21.8481 H   0  0  0  0  0  0
  -25.2755   -9.5688   22.4722 H   0  0  0  0  0  0
  -23.9986   -7.4643   22.7478 H   0  0  0  0  0  0
  -21.0824   -8.8719   19.8943 H   0  0  0  0  0  0
  -22.3650  -10.9631   19.6125 H   0  0  0  0  0  0
  -21.2009   -7.6146   23.9725 H   0  0  0  0  0  0
  -21.1501   -6.0518   25.9083 H   0  0  0  0  0  0
  -22.0589   -2.7611   23.2829 H   0  0  0  0  0  0
  -22.4114  -11.9880   22.4815 H   0  0  0  0  0  0
  -21.1121  -13.1245   22.2597 H   0  0  0  0  0  0
  -24.6679  -15.8449   20.5468 H   0  0  0  0  0  0
  -26.2931  -15.6332   20.1315 H   0  0  0  0  0  0
  -26.7185  -32.5410   23.1065 H   0  0  0  0  0  0
  -25.0065  -33.9704   25.0373 H   0  0  0  0  0  0
  -22.7139  -31.3030   21.3995 H   0  0  0  0  0  0
  -23.3736  -35.9649   23.3302 H   0  0  0  0  0  0
  -24.3565  -36.8918   22.2043 H   0  0  0  0  0  0
  -23.7247  -37.6512   23.6660 H   0  0  0  0  0  0
  -26.1007  -31.5336   20.6029 H   0  0  0  0  0  0
  -26.8445  -30.8251   22.0058 H   0  0  0  0  0  0
  -28.0991  -28.9325   21.2272 H   0  0  0  0  0  0
  -25.9445  -25.9812   18.8945 H   0  0  0  0  0  0
  -23.9705  -27.3357   18.9653 H   0  0  0  0  0  0
  -23.7501  -30.5906   19.4001 H   0  0  0  0  0  0
  -22.7529  -29.2466   19.8596 H   0  0  0  0  0  0
  -25.1298  -36.1920   25.0816 H   0  0  0  0  0  0
  -20.9969  -28.3203   24.1367 H   0  0  0  0  0  0
  -20.5614  -26.2276   23.3562 H   0  0  0  0  0  0
  -21.6627  -26.7390   22.1184 H   0  0  0  0  0  0
  -19.6854  -25.6291   21.1204 H   0  0  0  0  0  0
  -19.6654  -27.3177   20.6676 H   0  0  0  0  0  0
  -17.4176  -26.6691   21.4013 H   0  0  0  0  0  0
  -18.0324  -26.0072   22.8992 H   0  0  0  0  0  0
  -19.7968  -30.7221   24.2325 H   0  0  0  0  0  0
  -17.5063  -31.6244   24.5228 H   0  0  0  0  0  0
  -15.5383  -30.3021   23.7686 H   0  0  0  0  0  0
  -15.8658  -28.0858   22.7062 H   0  0  0  0  0  0
  -24.5915  -30.7060   25.7789 H   0  0  0  0  0  0
  -24.8910  -32.2925   26.4822 H   0  0  0  0  0  0
  -25.8064  -30.8971   27.0226 H   0  0  0  0  0  0
  -26.2883  -29.6773   24.1188 H   0  0  0  0  0  0
  -27.3953  -29.7228   25.4689 H   0  0  0  0  0  0
  -27.8778  -30.4246   23.9433 H   0  0  0  0  0  0
  -27.2602  -33.3628   26.2064 H   0  0  0  0  0  0
  -28.3874  -32.6885   25.0380 H   0  0  0  0  0  0
  -28.0652  -31.8470   26.5455 H   0  0  0  0  0  0
  -28.2601  -38.0102   24.7501 H   0  0  0  0  0  0
  -28.1062  -36.2629   24.6301 H   0  0  0  0  0  0
  -27.2293  -37.1482   25.8865 H   0  0  0  0  0  0
  -20.9315  -29.8897   21.7050 H   0  0  0  0  0  0
  -26.0161  -38.2854   24.1386 H   0  0  0  0  0  0
  -29.5067  -18.5256   16.8458 H   0  0  0  0  0  0
  -29.1892  -20.6315   17.9345 H   0  0  0  0  0  0
  -29.6550  -18.7030   21.7646 H   0  0  0  0  0  0
  -29.0979  -15.3465   18.1355 H   0  0  0  0  0  0
  -30.8207  -15.6652   17.7846 H   0  0  0  0  0  0
  -29.5608  -16.2824   16.7412 H   0  0  0  0  0  0
  -29.9952  -24.0877   20.6808 H   0  0  0  0  0  0
  -28.5188  -23.7371   21.5274 H   0  0  0  0  0  0
  -29.5400  -22.4483   18.9654 H   0  0  0  0  0  0
  -27.8873  -22.2070   19.4627 H   0  0  0  0  0  0
  -27.1659  -24.6666   19.8040 H   0  0  0  0  0  0
  -28.4866  -24.9642   18.7126 H   0  0  0  0  0  0
  -28.7889  -16.9237   22.2245 H   0  0  0  0  0  0
  1 25  1  0  0  0
  1 30  2  0  0  0
  1 77  1  0  0  0
  2  3  1  0  0  0
  2 25  1  0  0  0
  2 84  1  0  0  0
  2 85  1  0  0  0
  3  4  1  0  0  0
  3 86  1  0  0  0
  3 87  1  0  0  0
  4  5  1  0  0  0
  4 88  1  0  0  0
  4 89  1  0  0  0
  5  6  1  0  0  0
  5 26  1  0  0  0
  5 90  1  0  0  0
  6 25  1  0  0  0
  6 91  1  0  0  0
  6 92  1  0  0  0
  7  8  2  0  0  0
  7 26  1  0  0  0
  7 29  1  0  0  0
  8  9  1  0  0  0
  8 22  1  0  0  0
  9 10  1  0  0  0
  9 27  2  0  0  0
 10 11  2  0  0  0
 10 15  1  0  0  0
 11 12  1  0  0  0
 11 93  1  0  0  0
 12 13  2  0  0  0
 12 94  1  0  0  0
 13 14  1  0  0  0
 13 31  1  0  0  0
 14 15  2  0  0  0
 14 95  1  0  0  0
 15 96  1  0  0  0
 16 17  2  0  0  0
 16 21  1  0  0  0
 16 31  1  0  0  0
 17 18  1  0  0  0
 17 97  1  0  0  0
 18 19  2  0  0  0
 18 98  1  0  0  0
 19 20  1  0  0  0
 19 24  1  0  0  0
 20 21  2  0  0  0
 20 99  1  0  0  0
 21 23  1  0  0  0
 22 28  1  0  0  0
 22 32  2  0  0  0
 26 27  1  0  0  0
 28100  1  0  0  0
 28101  1  0  0  0
 29102  1  0  0  0
 29103  1  0  0  0
 33 34  1  0  0  0
 33 66  1  0  0  0
 33 70  2  0  0  0
 34 36  1  0  0  0
 34 59  1  0  0  0
 34104  1  0  0  0
 35 44  2  0  0  0
 35 45  1  0  0  0
 35 68  1  0  0  0
 36 56  1  0  0  0
 36105  1  0  0  0
 37 39  1  0  0  0
 37 47  1  0  0  0
 37 66  1  0  0  0
 37106  1  0  0  0
 38 43  2  0  0  0
 38 46  1  0  0  0
 38 47  1  0  0  0
 39 64  1  0  0  0
 39 67  2  0  0  0
 40 52  1  0  0  0
 40 53  2  0  0  0
 40 58  1  0  0  0
 41107  1  0  0  0
 41108  1  0  0  0
 41109  1  0  0  0
 41 48  1  0  0  0
 42 43  1  0  0  0
 42 66  1  0  0  0
 42110  1  0  0  0
 42111  1  0  0  0
 43 44  1  0  0  0
 44112  1  0  0  0
 45 46  2  0  0  0
 45113  1  0  0  0
 46114  1  0  0  0
 47115  1  0  0  0
 47116  1  0  0  0
 48 56  1  0  0  0
 48 65  1  0  0  0
 48117  1  0  0  0
 49 50  1  0  0  0
 49 53  1  0  0  0
 49 64  1  0  0  0
 49118  1  0  0  0
 50 51  1  0  0  0
 50119  1  0  0  0
 50120  1  0  0  0
 51 52  1  0  0  0
 51121  1  0  0  0
 51122  1  0  0  0
 52123  1  0  0  0
 52124  1  0  0  0
 53 54  1  0  0  0
 54 55  2  0  0  0
 54125  1  0  0  0
 55 57  1  0  0  0
 55126  1  0  0  0
 56 69  2  0  0  0
 57 58  2  0  0  0
 57127  1  0  0  0
 58128  1  0  0  0
 59 60  1  0  0  0
 59 61  1  0  0  0
 59 62  1  0  0  0
 60129  1  0  0  0
 60130  1  0  0  0
 60131  1  0  0  0
 61132  1  0  0  0
 61133  1  0  0  0
 61134  1  0  0  0
 62135  1  0  0  0
 62136  1  0  0  0
 62137  1  0  0  0
 63 65  1  0  0  0
 63138  1  0  0  0
 63139  1  0  0  0
 63140  1  0  0  0
 64141  1  0  0  0
 65142  1  0  0  0
 68 81  1  0  0  0
 71 72  2  0  0  0
 71 75  1  0  0  0
 71143  1  0  0  0
 72 76  1  0  0  0
 72144  1  0  0  0
 73 74  1  0  0  0
 73 76  2  0  0  0
 73145  1  0  0  0
 74 75  2  0  0  0
 74 77  1  0  0  0
 75 78  1  0  0  0
 76 83  1  0  0  0
 77 82  2  0  0  0
 78146  1  0  0  0
 78147  1  0  0  0
 78148  1  0  0  0
 79 80  1  0  0  0
 79 81  1  0  0  0
 79149  1  0  0  0
 79150  1  0  0  0
 80 83  1  0  0  0
 80151  1  0  0  0
 80152  1  0  0  0
 81153  1  0  0  0
 81154  1  0  0  0
 82155  1  0  0  0
M  ISO  4   1 100  68 101  77 100  81 101
M  END
> <chiral flag>
0

> <version>
0

> <s_m_source_file>
/data/baiqing/PycharmProjects/Reinvent-master-3.2/result/LINK_invent/BTK/process_docking_weight1_custom_product_contain_oxygen_bond_distance_aromatic_linkinvent_7_9_3/rearranged_h_0109.sdf

> <i_m_source_file_index>
63

> <r_mmod_Potential_Energy-OPLS-2005>
296.688140869141

> <r_mmod_Stretch_Energy-OPLS-2005>
120.586608886719

> <r_mmod_Bend_Energy-OPLS-2005>
170.097946166992

> <r_mmod_Torsional_Energy-OPLS-2005>
207.297302246094

> <r_mmod_Improper_Torsional_Energy-OPLS-2005>
3.07505345344543

> <r_mmod_Van_der_Waal_Energy-OPLS-2005>
159.025283813477

> <r_mmod_Electrostatic_Energy-OPLS-2005>
-228.255645751953

> <r_mmod_Solvation_Energy-OPLS-2005>
-201.976898193359

> <b_mmod_Minimization_Converged-OPLS-2005>
0

> <r_mmod_RMS_Derivative-OPLS-2005>
2.96665072441101

$$$$
63
                    3D
 Structure written by MMmdl.
161169  0  0  1  0            999 V2000
  -30.7464  -14.4436   20.6292 C   0  0  0  0  0  0
  -30.4208  -12.3027   19.4151 C   0  0  0  0  0  0
  -29.4933  -12.5165   18.2021 C   0  0  0  0  0  0
  -28.0155  -12.3824   18.6148 C   0  0  0  0  0  0
  -27.6689  -13.2103   19.8819 C   0  0  2  0  0  0
  -28.7158  -12.9830   20.9987 C   0  0  0  0  0  0
  -25.2615  -13.8144   20.5648 C   0  0  0  0  0  0
  -24.1857  -13.0434   20.9168 C   0  0  0  0  0  0
  -24.6419  -11.6894   20.8734 C   0  0  0  0  0  0
  -23.9068  -10.4287   21.0405 C   0  0  0  0  0  0
  -24.3614   -9.4192   21.9189 C   0  0  0  0  0  0
  -23.6279   -8.2242   22.0769 C   0  0  0  0  0  0
  -22.4267   -8.0276   21.3534 C   0  0  0  0  0  0
  -21.9900   -9.0250   20.4647 C   0  0  0  0  0  0
  -22.7246  -10.2131   20.3056 C   0  0  0  0  0  0
  -21.6866   -6.0724   22.5289 C   0  0  0  0  0  0
  -21.4018   -6.5634   23.8219 C   0  0  0  0  0  0
  -21.3668   -5.6795   24.9182 C   0  0  0  0  0  0
  -21.6054   -4.3056   24.7246 C   0  0  0  0  0  0
  -21.8816   -3.8141   23.4372 C   0  0  0  0  0  0
  -21.9203   -4.6953   22.3417 C   0  0  0  0  0  0
  -22.7872  -13.5242   21.1821 C   0  0  0  0  0  0
  -22.1675   -4.2128   21.1000 F   0  0  0  0  0  0
  -21.5618   -3.4551   25.7762 F   0  0  0  0  0  0
  -30.0494  -13.2833   20.4487 N   0  0  0  0  0  0
  -26.3080  -12.9342   20.3417 N   0  0  0  0  0  0
  -25.9359  -11.6489   20.5793 N   0  0  0  0  0  0
  -22.0489  -12.8263   22.0382 N   0  0  0  0  0  0
  -25.4320  -15.1851   20.3974 N   0  0  0  0  0  0
  -31.8134  -14.6351   20.0359 O   0  0  0  0  0  0
  -21.6633   -6.8866   21.4250 O   0  0  0  0  0  0
  -22.3571  -14.5548   20.6665 O   0  0  0  0  0  0
  -24.6171  -31.8692   23.2116 C   0  0  0  0  0  0
  -25.9091  -32.4813   23.8416 C   0  0  1  0  0  0
  -27.2316  -27.4209   20.0998 C   0  0  0  0  0  0
  -25.5963  -33.8601   24.2359 N   0  0  0  0  0  0
  -23.4045  -30.4976   21.5512 C   0  0  2  0  0  0
  -24.8514  -28.9669   20.1138 C   0  0  0  0  0  0
  -22.7425  -29.4687   22.4962 C   0  0  0  0  0  0
  -18.0270  -28.1396   22.8478 C   0  0  0  0  0  0
  -24.1484  -36.7265   23.2628 C   0  0  0  0  0  0
  -25.9371  -30.8307   21.3683 C   0  0  0  0  0  0
  -26.0148  -29.4660   20.7124 C   0  0  0  0  0  0
  -27.2092  -28.7020   20.6999 C   0  0  0  0  0  0
  -26.0453  -26.9477   19.4883 C   0  0  0  0  0  0
  -24.8645  -27.7082   19.4946 C   0  0  0  0  0  0
  -23.6145  -29.8367   20.1638 C   0  0  0  0  0  0
  -25.4109  -36.3078   24.0335 C   0  0  1  0  0  0
  -20.5861  -28.3683   23.1287 C   0  0  2  0  0  0
  -20.6748  -26.9416   22.5399 C   0  0  0  0  0  0
  -19.5739  -26.6402   21.5184 C   0  0  0  0  0  0
  -18.1918  -26.7940   22.1602 C   0  0  0  0  0  0
  -19.1514  -28.8849   23.2886 C   0  0  0  0  0  0
  -18.9454  -30.1441   23.8943 C   0  0  0  0  0  0
  -17.6457  -30.6608   24.0553 C   0  0  0  0  0  0
  -25.9045  -34.9449   23.5119 C   0  0  0  0  0  0
  -16.5350  -29.9115   23.6318 C   0  0  0  0  0  0
  -16.7254  -28.6514   23.0364 C   0  0  0  0  0  0
  -26.4516  -31.6586   25.0727 C   0  0  0  0  0  0
  -25.3795  -31.3719   26.1504 C   0  0  0  0  0  0
  -27.0330  -30.3031   24.6057 C   0  0  0  0  0  0
  -27.6109  -32.4278   25.7506 C   0  0  0  0  0  0
  -27.5576  -37.1783   24.8478 C   0  0  0  0  0  0
  -21.4140  -29.3061   22.3706 N   0  0  0  0  0  0
  -26.4281  -37.3776   23.9420 N   0  0  0  0  0  0
  -24.6702  -31.0790   22.1035 N   0  0  0  0  0  0
  -23.4196  -28.8222   23.2994 O   0  0  0  0  0  0
  -28.3832  -26.6458   20.1379 O   0  0  0  0  0  0
  -26.5572  -34.8892   22.4664 O   0  0  0  0  0  0
  -23.5371  -32.1446   23.7525 O   0  0  0  0  0  0
  -28.5596  -17.9788   22.1829 C   0  0  0  0  0  0
  -30.2718  -19.4782   21.3343 C   0  0  0  0  0  0
  -28.0453  -20.3267   21.8161 C   0  0  0  0  0  0
  -29.8688  -18.1537   21.6815 C   0  0  0  0  0  0
  -27.6469  -19.0449   22.2429 C   0  0  0  0  0  0
  -29.3760  -20.5793   21.3900 C   0  0  0  0  0  0
  -30.7908  -16.9697   21.5707 C   0  0  0  0  0  0
  -26.1853  -18.1160   24.1289 C   0  0  0  0  0  0
  -26.2333  -18.8072   22.7546 C   0  0  0  0  0  0
  -30.1465  -15.5479   21.5475 C   0  0  0  0  0  0
  -29.3669  -24.3156   20.5681 C   0  0  0  0  0  0
  -28.1486  -25.2290   20.2848 C   0  0  0  0  0  0
  -28.8546  -22.8908   20.9119 C   0  0  0  0  0  0
  -32.0492  -17.1412   21.5512 N   0  0  0  0  0  0
  -29.8342  -21.8450   21.0317 O   0  0  0  0  0  0
  -31.4667  -12.3814   19.1143 H   0  0  0  0  0  0
  -30.3022  -11.2901   19.8048 H   0  0  0  0  0  0
  -29.7243  -11.7938   17.4190 H   0  0  0  0  0  0
  -29.6716  -13.5034   17.7722 H   0  0  0  0  0  0
  -27.8132  -11.3265   18.7940 H   0  0  0  0  0  0
  -27.3691  -12.6755   17.7861 H   0  0  0  0  0  0
  -27.7166  -14.2608   19.5952 H   0  0  0  0  0  0
  -28.6899  -11.9449   21.3351 H   0  0  0  0  0  0
  -28.4745  -13.5727   21.8832 H   0  0  0  0  0  0
  -25.2765   -9.5671   22.4753 H   0  0  0  0  0  0
  -23.9979   -7.4654   22.7516 H   0  0  0  0  0  0
  -21.0817   -8.8803   19.8950 H   0  0  0  0  0  0
  -22.3726  -10.9673   19.6161 H   0  0  0  0  0  0
  -21.1999   -7.6143   23.9723 H   0  0  0  0  0  0
  -21.1501   -6.0515   25.9089 H   0  0  0  0  0  0
  -22.0576   -2.7598   23.2890 H   0  0  0  0  0  0
  -22.4059  -11.9925   22.4822 H   0  0  0  0  0  0
  -21.1115  -13.1334   22.2534 H   0  0  0  0  0  0
  -24.6472  -15.8255   20.4434 H   0  0  0  0  0  0
  -26.2818  -15.6246   20.0693 H   0  0  0  0  0  0
  -26.7167  -32.5532   23.1188 H   0  0  0  0  0  0
  -25.0192  -33.9778   25.0554 H   0  0  0  0  0  0
  -22.6926  -31.3152   21.4201 H   0  0  0  0  0  0
  -23.3730  -35.9614   23.3306 H   0  0  0  0  0  0
  -24.3578  -36.8852   22.2039 H   0  0  0  0  0  0
  -23.7243  -37.6464   23.6640 H   0  0  0  0  0  0
  -26.0521  -31.5970   20.6001 H   0  0  0  0  0  0
  -26.8265  -30.8800   21.9874 H   0  0  0  0  0  0
  -28.1051  -29.0776   21.1761 H   0  0  0  0  0  0
  -26.0020  -25.9890   18.9966 H   0  0  0  0  0  0
  -23.9730  -27.3215   19.0193 H   0  0  0  0  0  0
  -23.7329  -30.6206   19.4148 H   0  0  0  0  0  0
  -22.7367  -29.2622   19.8609 H   0  0  0  0  0  0
  -25.1263  -36.1927   25.0822 H   0  0  0  0  0  0
  -20.9938  -28.3271   24.1402 H   0  0  0  0  0  0
  -20.5597  -26.2304   23.3583 H   0  0  0  0  0  0
  -21.6633  -26.7453   22.1218 H   0  0  0  0  0  0
  -19.6904  -25.6303   21.1230 H   0  0  0  0  0  0
  -19.6699  -27.3194   20.6694 H   0  0  0  0  0  0
  -17.4167  -26.6648   21.4018 H   0  0  0  0  0  0
  -18.0381  -26.0098   22.9028 H   0  0  0  0  0  0
  -19.7935  -30.7217   24.2377 H   0  0  0  0  0  0
  -17.5031  -31.6308   24.5132 H   0  0  0  0  0  0
  -15.5350  -30.3043   23.7623 H   0  0  0  0  0  0
  -15.8641  -28.0833   22.7108 H   0  0  0  0  0  0
  -24.5929  -30.7112   25.7843 H   0  0  0  0  0  0
  -24.9052  -32.2902   26.4980 H   0  0  0  0  0  0
  -25.8160  -30.8858   27.0240 H   0  0  0  0  0  0
  -26.2888  -29.6830   24.1064 H   0  0  0  0  0  0
  -27.4063  -29.7218   25.4484 H   0  0  0  0  0  0
  -27.8731  -30.4319   23.9234 H   0  0  0  0  0  0
  -27.2750  -33.3551   26.2158 H   0  0  0  0  0  0
  -28.3923  -32.6885   25.0354 H   0  0  0  0  0  0
  -28.0785  -31.8340   26.5377 H   0  0  0  0  0  0
  -28.2585  -38.0072   24.7501 H   0  0  0  0  0  0
  -28.1076  -36.2613   24.6332 H   0  0  0  0  0  0
  -27.2310  -37.1450   25.8878 H   0  0  0  0  0  0
  -20.9304  -29.8801   21.6938 H   0  0  0  0  0  0
  -26.0153  -38.2827   24.1461 H   0  0  0  0  0  0
  -28.2257  -17.0158   22.5343 H   0  0  0  0  0  0
  -31.2855  -19.6613   21.0037 H   0  0  0  0  0  0
  -27.3026  -21.1087   21.8483 H   0  0  0  0  0  0
  -26.5464  -17.0875   24.0863 H   0  0  0  0  0  0
  -25.1640  -18.0787   24.5079 H   0  0  0  0  0  0
  -26.7880  -18.6454   24.8671 H   0  0  0  0  0  0
  -25.6900  -18.2087   22.0209 H   0  0  0  0  0  0
  -25.7056  -19.7597   22.8124 H   0  0  0  0  0  0
  -29.1204  -15.6470   21.2015 H   0  0  0  0  0  0
  -30.1146  -15.1707   22.5690 H   0  0  0  0  0  0
  -29.9539  -24.7125   21.3963 H   0  0  0  0  0  0
  -30.0173  -24.2863   19.6929 H   0  0  0  0  0  0
  -27.4282  -25.0954   21.0949 H   0  0  0  0  0  0
  -27.6929  -24.8347   19.3782 H   0  0  0  0  0  0
  -28.1439  -22.5852   20.1419 H   0  0  0  0  0  0
  -28.3030  -22.9770   21.8473 H   0  0  0  0  0  0
  -32.2949  -18.1241   21.5873 H   0  0  0  0  0  0
  1 25  1  0  0  0
  1 30  2  0  0  0
  1 80  1  0  0  0
  2  3  1  0  0  0
  2 25  1  0  0  0
  2 86  1  0  0  0
  2 87  1  0  0  0
  3  4  1  0  0  0
  3 88  1  0  0  0
  3 89  1  0  0  0
  4  5  1  0  0  0
  4 90  1  0  0  0
  4 91  1  0  0  0
  5  6  1  0  0  0
  5 26  1  0  0  0
  5 92  1  0  0  0
  6 25  1  0  0  0
  6 93  1  0  0  0
  6 94  1  0  0  0
  7  8  2  0  0  0
  7 26  1  0  0  0
  7 29  1  0  0  0
  8  9  1  0  0  0
  8 22  1  0  0  0
  9 10  1  0  0  0
  9 27  2  0  0  0
 10 11  2  0  0  0
 10 15  1  0  0  0
 11 12  1  0  0  0
 11 95  1  0  0  0
 12 13  2  0  0  0
 12 96  1  0  0  0
 13 14  1  0  0  0
 13 31  1  0  0  0
 14 15  2  0  0  0
 14 97  1  0  0  0
 15 98  1  0  0  0
 16 17  2  0  0  0
 16 21  1  0  0  0
 16 31  1  0  0  0
 17 18  1  0  0  0
 17 99  1  0  0  0
 18 19  2  0  0  0
 18100  1  0  0  0
 19 20  1  0  0  0
 19 24  1  0  0  0
 20 21  2  0  0  0
 20101  1  0  0  0
 21 23  1  0  0  0
 22 28  1  0  0  0
 22 32  2  0  0  0
 26 27  1  0  0  0
 28102  1  0  0  0
 28103  1  0  0  0
 29104  1  0  0  0
 29105  1  0  0  0
 33 34  1  0  0  0
 33 66  1  0  0  0
 33 70  2  0  0  0
 34 36  1  0  0  0
 34 59  1  0  0  0
 34106  1  0  0  0
 35 44  2  0  0  0
 35 45  1  0  0  0
 35 68  1  0  0  0
 36 56  1  0  0  0
 36107  1  0  0  0
 37 39  1  0  0  0
 37 47  1  0  0  0
 37 66  1  0  0  0
 37108  1  0  0  0
 38 43  2  0  0  0
 38 46  1  0  0  0
 38 47  1  0  0  0
 39 64  1  0  0  0
 39 67  2  0  0  0
 40 52  1  0  0  0
 40 53  2  0  0  0
 40 58  1  0  0  0
 41109  1  0  0  0
 41110  1  0  0  0
 41111  1  0  0  0
 41 48  1  0  0  0
 42 43  1  0  0  0
 42 66  1  0  0  0
 42112  1  0  0  0
 42113  1  0  0  0
 43 44  1  0  0  0
 44114  1  0  0  0
 45 46  2  0  0  0
 45115  1  0  0  0
 46116  1  0  0  0
 47117  1  0  0  0
 47118  1  0  0  0
 48 56  1  0  0  0
 48 65  1  0  0  0
 48119  1  0  0  0
 49 50  1  0  0  0
 49 53  1  0  0  0
 49 64  1  0  0  0
 49120  1  0  0  0
 50 51  1  0  0  0
 50121  1  0  0  0
 50122  1  0  0  0
 51 52  1  0  0  0
 51123  1  0  0  0
 51124  1  0  0  0
 52125  1  0  0  0
 52126  1  0  0  0
 53 54  1  0  0  0
 54 55  2  0  0  0
 54127  1  0  0  0
 55 57  1  0  0  0
 55128  1  0  0  0
 56 69  2  0  0  0
 57 58  2  0  0  0
 57129  1  0  0  0
 58130  1  0  0  0
 59 60  1  0  0  0
 59 61  1  0  0  0
 59 62  1  0  0  0
 60131  1  0  0  0
 60132  1  0  0  0
 60133  1  0  0  0
 61134  1  0  0  0
 61135  1  0  0  0
 61136  1  0  0  0
 62137  1  0  0  0
 62138  1  0  0  0
 62139  1  0  0  0
 63 65  1  0  0  0
 63140  1  0  0  0
 63141  1  0  0  0
 63142  1  0  0  0
 64143  1  0  0  0
 65144  1  0  0  0
 68 82  1  0  0  0
 71 74  2  0  0  0
 71 75  1  0  0  0
 71145  1  0  0  0
 72 74  1  0  0  0
 72 76  2  0  0  0
 72146  1  0  0  0
 73 75  2  0  0  0
 73 76  1  0  0  0
 73147  1  0  0  0
 74 77  1  0  0  0
 75 79  1  0  0  0
 76 85  1  0  0  0
 77 80  1  0  0  0
 77 84  2  0  0  0
 78 79  1  0  0  0
 78148  1  0  0  0
 78149  1  0  0  0
 78150  1  0  0  0
 79151  1  0  0  0
 79152  1  0  0  0
 80153  1  0  0  0
 80154  1  0  0  0
 81 82  1  0  0  0
 81 83  1  0  0  0
 81155  1  0  0  0
 81156  1  0  0  0
 82157  1  0  0  0
 82158  1  0  0  0
 83 85  1  0  0  0
 83159  1  0  0  0
 83160  1  0  0  0
 84161  1  0  0  0
M  ISO  4   1 100  68 101  80 100  82 101
M  END
> <chiral flag>
0

> <version>
0

> <s_m_source_file>
/data/baiqing/PycharmProjects/Reinvent-master-3.2/result/LINK_invent/BTK/process_docking_weight1_custom_product_contain_oxygen_bond_distance_aromatic_linkinvent_7_9_3/rearranged_h_0109.sdf

> <i_m_source_file_index>
64

> <r_mmod_Potential_Energy-OPLS-2005>
-3.02533268928528

> <r_mmod_Stretch_Energy-OPLS-2005>
47.8003120422363

> <r_mmod_Bend_Energy-OPLS-2005>
113.917175292969

> <r_mmod_Torsional_Energy-OPLS-2005>
176.943939208984

> <r_mmod_Improper_Torsional_Energy-OPLS-2005>
2.36112356185913

> <r_mmod_Van_der_Waal_Energy-OPLS-2005>
173.183471679688

> <r_mmod_Electrostatic_Energy-OPLS-2005>
-308.891510009766

> <r_mmod_Solvation_Energy-OPLS-2005>
-220.907592773438

> <b_mmod_Minimization_Converged-OPLS-2005>
0

> <r_mmod_RMS_Derivative-OPLS-2005>
3.78327989578247

$$$$
64
                    3D
 Structure written by MMmdl.
152160  0  0  1  0            999 V2000
  -30.4818  -15.0032   20.3145 C   0  0  0  0  0  0
  -30.4741  -12.6174   19.4875 C   0  0  0  0  0  0
  -29.5453  -12.5499   18.2488 C   0  0  0  0  0  0
  -28.0674  -12.3382   18.6540 C   0  0  0  0  0  0
  -27.6455  -13.2437   19.8483 C   0  0  2  0  0  0
  -28.7042  -13.2147   20.9638 C   0  0  0  0  0  0
  -25.2634  -13.8211   20.5967 C   0  0  0  0  0  0
  -24.1856  -13.0434   20.9193 C   0  0  0  0  0  0
  -24.6414  -11.6924   20.8730 C   0  0  0  0  0  0
  -23.9039  -10.4351   21.0354 C   0  0  0  0  0  0
  -24.3612   -9.4304   21.9137 C   0  0  0  0  0  0
  -23.6291   -8.2314   22.0726 C   0  0  0  0  0  0
  -22.4235   -8.0347   21.3563 C   0  0  0  0  0  0
  -21.9861   -9.0291   20.4627 C   0  0  0  0  0  0
  -22.7170  -10.2204   20.3026 C   0  0  0  0  0  0
  -21.6850   -6.0778   22.5280 C   0  0  0  0  0  0
  -21.4007   -6.5662   23.8228 C   0  0  0  0  0  0
  -21.3678   -5.6783   24.9173 C   0  0  0  0  0  0
  -21.6064   -4.3047   24.7202 C   0  0  0  0  0  0
  -21.8817   -3.8182   23.4306 C   0  0  0  0  0  0
  -21.9187   -4.7002   22.3382 C   0  0  0  0  0  0
  -22.7889  -13.5232   21.1848 C   0  0  0  0  0  0
  -22.1661   -4.2206   21.0952 F   0  0  0  0  0  0
  -21.5684   -3.4533   25.7731 F   0  0  0  0  0  0
  -29.9610  -13.6999   20.3770 N   0  0  0  0  0  0
  -26.3053  -12.9412   20.3385 N   0  0  0  0  0  0
  -25.9380  -11.6537   20.5776 N   0  0  0  0  0  0
  -22.0426  -12.8373   22.0393 N   0  0  0  0  0  0
  -25.4428  -15.1960   20.4947 N   0  0  0  0  0  0
  -31.6799  -15.0985   20.0124 O   0  0  0  0  0  0
  -21.6611   -6.8961   21.4242 O   0  0  0  0  0  0
  -22.3589  -14.5478   20.6600 O   0  0  0  0  0  0
  -24.6497  -31.8352   23.1920 C   0  0  0  0  0  0
  -25.9221  -32.4686   23.8334 C   0  0  1  0  0  0
  -27.2356  -27.1164   20.1151 C   0  0  0  0  0  0
  -25.5960  -33.8485   24.2231 N   0  0  0  0  0  0
  -23.4577  -30.4498   21.5321 C   0  0  2  0  0  0
  -24.9142  -28.8760   20.1139 C   0  0  0  0  0  0
  -22.7571  -29.4441   22.4791 C   0  0  0  0  0  0
  -18.0283  -28.1406   22.8475 C   0  0  0  0  0  0
  -24.1489  -36.7207   23.2627 C   0  0  0  0  0  0
  -26.0198  -30.6967   21.3993 C   0  0  0  0  0  0
  -26.0920  -29.3086   20.7374 C   0  0  0  0  0  0
  -27.2562  -28.4443   20.7205 C   0  0  0  0  0  0
  -26.0223  -26.7877   19.4781 C   0  0  0  0  0  0
  -24.8904  -27.6286   19.4690 C   0  0  0  0  0  0
  -23.6942  -29.7806   20.1551 C   0  0  0  0  0  0
  -25.4111  -36.2971   24.0326 C   0  0  1  0  0  0
  -20.5922  -28.3671   23.1214 C   0  0  2  0  0  0
  -20.6787  -26.9371   22.5356 C   0  0  0  0  0  0
  -19.5742  -26.6350   21.5177 C   0  0  0  0  0  0
  -18.1929  -26.7924   22.1613 C   0  0  0  0  0  0
  -19.1572  -28.8847   23.2854 C   0  0  0  0  0  0
  -18.9486  -30.1478   23.8859 C   0  0  0  0  0  0
  -17.6482  -30.6599   24.0543 C   0  0  0  0  0  0
  -25.9054  -34.9358   23.5043 C   0  0  0  0  0  0
  -16.5369  -29.9092   23.6368 C   0  0  0  0  0  0
  -16.7268  -28.6515   23.0369 C   0  0  0  0  0  0
  -26.4567  -31.6523   25.0733 C   0  0  0  0  0  0
  -25.3786  -31.3709   26.1458 C   0  0  0  0  0  0
  -27.0463  -30.2914   24.6340 C   0  0  0  0  0  0
  -27.6153  -32.4255   25.7464 C   0  0  0  0  0  0
  -27.5582  -37.1754   24.8478 C   0  0  0  0  0  0
  -21.4222  -29.3002   22.3603 N   0  0  0  0  0  0
  -26.4300  -37.3706   23.9411 N   0  0  0  0  0  0
  -24.7283  -31.0194   22.0931 N   0  0  0  0  0  0
  -23.4199  -28.7933   23.2920 O   0  0  0  0  0  0
  -28.2975  -26.1326   20.0585 O   0  0  0  0  0  0
  -26.5638  -34.8825   22.4599 O   0  0  0  0  0  0
  -23.5568  -32.1221   23.7016 O   0  0  0  0  0  0
  -29.2656  -19.1858   20.3094 C   0  0  0  0  0  0
  -29.9526  -17.8797   18.3946 C   0  0  0  0  0  0
  -29.6682  -17.8438   19.7791 C   0  0  0  0  0  0
  -29.1372  -20.4761   19.5590 C   0  0  0  0  0  0
  -29.7507  -19.0489   17.6078 C   0  0  0  0  0  0
  -29.3815  -20.3088   18.1678 C   0  0  0  0  0  0
  -28.7937  -23.5155   19.8198 C   0  0  0  0  0  0
  -28.0829  -24.6802   20.2383 C   0  0  0  0  0  0
  -29.5201  -16.3852   20.4969 C   0  0  0  0  0  0
  -28.5293  -21.9129   20.1614 C   0  0  0  0  0  0
  -28.4977  -16.3090   21.2363 N   0  0  0  0  0  0
  -29.8244  -18.9556   16.2098 N   0  0  0  0  0  0
  -29.2193  -21.3271   17.2743 O   0  0  0  0  0  0
  -31.5017  -12.8158   19.1730 H   0  0  0  0  0  0
  -30.5116  -11.6553   20.0070 H   0  0  0  0  0  0
  -29.8620  -11.7618   17.5701 H   0  0  0  0  0  0
  -29.6427  -13.4928   17.7096 H   0  0  0  0  0  0
  -27.9446  -11.2908   18.9250 H   0  0  0  0  0  0
  -27.4072  -12.5139   17.8007 H   0  0  0  0  0  0
  -27.6265  -14.2661   19.4673 H   0  0  0  0  0  0
  -28.8249  -12.1968   21.3373 H   0  0  0  0  0  0
  -28.4100  -13.8116   21.8215 H   0  0  0  0  0  0
  -25.2753   -9.5822   22.4719 H   0  0  0  0  0  0
  -24.0029   -7.4736   22.7427 H   0  0  0  0  0  0
  -21.0803   -8.8716   19.8972 H   0  0  0  0  0  0
  -22.3518  -10.9714   19.6178 H   0  0  0  0  0  0
  -21.1954   -7.6148   23.9770 H   0  0  0  0  0  0
  -21.1504   -6.0482   25.9103 H   0  0  0  0  0  0
  -22.0570   -2.7616   23.2758 H   0  0  0  0  0  0
  -22.3865  -12.0079   22.5005 H   0  0  0  0  0  0
  -21.1141  -13.1773   22.2482 H   0  0  0  0  0  0
  -24.7296  -15.7790   20.9249 H   0  0  0  0  0  0
  -26.3819  -15.5008   20.7390 H   0  0  0  0  0  0
  -26.7236  -32.5276   23.1029 H   0  0  0  0  0  0
  -25.0322  -33.9654   25.0529 H   0  0  0  0  0  0
  -22.7631  -31.2804   21.3670 H   0  0  0  0  0  0
  -23.3792  -35.9522   23.3239 H   0  0  0  0  0  0
  -24.3598  -36.8849   22.2065 H   0  0  0  0  0  0
  -23.7228  -37.6369   23.6682 H   0  0  0  0  0  0
  -26.1926  -31.4521   20.6289 H   0  0  0  0  0  0
  -26.8886  -30.7470   22.0428 H   0  0  0  0  0  0
  -28.1633  -28.7700   21.2129 H   0  0  0  0  0  0
  -25.9489  -25.8367   18.9729 H   0  0  0  0  0  0
  -23.9969  -27.2986   18.9591 H   0  0  0  0  0  0
  -23.8372  -30.5565   19.3996 H   0  0  0  0  0  0
  -22.8167  -29.2189   19.8291 H   0  0  0  0  0  0
  -25.1293  -36.1855   25.0864 H   0  0  0  0  0  0
  -21.0034  -28.3272   24.1315 H   0  0  0  0  0  0
  -20.5744  -26.2286   23.3577 H   0  0  0  0  0  0
  -21.6657  -26.7395   22.1143 H   0  0  0  0  0  0
  -19.6902  -25.6259   21.1204 H   0  0  0  0  0  0
  -19.6688  -27.3177   20.6722 H   0  0  0  0  0  0
  -17.4197  -26.6645   21.4057 H   0  0  0  0  0  0
  -18.0281  -26.0119   22.9048 H   0  0  0  0  0  0
  -19.7967  -30.7289   24.2219 H   0  0  0  0  0  0
  -17.5031  -31.6266   24.5159 H   0  0  0  0  0  0
  -15.5390  -30.2975   23.7688 H   0  0  0  0  0  0
  -15.8652  -28.0805   22.7094 H   0  0  0  0  0  0
  -24.6057  -30.6933   25.7791 H   0  0  0  0  0  0
  -24.8939  -32.2902   26.4778 H   0  0  0  0  0  0
  -25.8174  -30.9003   27.0297 H   0  0  0  0  0  0
  -26.3118  -29.6601   24.1355 H   0  0  0  0  0  0
  -27.4051  -29.7225   25.4941 H   0  0  0  0  0  0
  -27.9011  -30.4090   23.9676 H   0  0  0  0  0  0
  -27.2844  -33.3638   26.1948 H   0  0  0  0  0  0
  -28.4044  -32.6688   25.0313 H   0  0  0  0  0  0
  -28.0765  -31.8451   26.5472 H   0  0  0  0  0  0
  -28.2553  -38.0091   24.7536 H   0  0  0  0  0  0
  -28.1102  -36.2606   24.6283 H   0  0  0  0  0  0
  -27.2271  -37.1349   25.8873 H   0  0  0  0  0  0
  -20.9449  -29.8748   21.6792 H   0  0  0  0  0  0
  -26.0117  -38.2755   24.1492 H   0  0  0  0  0  0
  -28.9809  -19.2131   21.3521 H   0  0  0  0  0  0
  -30.2125  -16.9508   17.9003 H   0  0  0  0  0  0
  -29.6721  -23.6604   19.2113 H   0  0  0  0  0  0
  -27.2048  -24.5354   20.8526 H   0  0  0  0  0  0
  -28.6997  -21.8515   21.2356 H   0  0  0  0  0  0
  -27.4532  -21.8049   20.0401 H   0  0  0  0  0  0
  -27.9990  -17.1859   21.2171 H   0  0  0  0  0  0
  -30.1072  -18.0419   15.8659 H   0  0  0  0  0  0
  -28.9504  -19.1853   15.7464 H   0  0  0  0  0  0
  -29.4621  -20.9607   16.4210 H   0  0  0  0  0  0
  1 25  1  0  0  0
  1 30  2  0  0  0
  1 79  1  0  0  0
  2  3  1  0  0  0
  2 25  1  0  0  0
  2 84  1  0  0  0
  2 85  1  0  0  0
  3  4  1  0  0  0
  3 86  1  0  0  0
  3 87  1  0  0  0
  4  5  1  0  0  0
  4 88  1  0  0  0
  4 89  1  0  0  0
  5  6  1  0  0  0
  5 26  1  0  0  0
  5 90  1  0  0  0
  6 25  1  0  0  0
  6 91  1  0  0  0
  6 92  1  0  0  0
  7  8  2  0  0  0
  7 26  1  0  0  0
  7 29  1  0  0  0
  8  9  1  0  0  0
  8 22  1  0  0  0
  9 10  1  0  0  0
  9 27  2  0  0  0
 10 11  2  0  0  0
 10 15  1  0  0  0
 11 12  1  0  0  0
 11 93  1  0  0  0
 12 13  2  0  0  0
 12 94  1  0  0  0
 13 14  1  0  0  0
 13 31  1  0  0  0
 14 15  2  0  0  0
 14 95  1  0  0  0
 15 96  1  0  0  0
 16 17  2  0  0  0
 16 21  1  0  0  0
 16 31  1  0  0  0
 17 18  1  0  0  0
 17 97  1  0  0  0
 18 19  2  0  0  0
 18 98  1  0  0  0
 19 20  1  0  0  0
 19 24  1  0  0  0
 20 21  2  0  0  0
 20 99  1  0  0  0
 21 23  1  0  0  0
 22 28  1  0  0  0
 22 32  2  0  0  0
 26 27  1  0  0  0
 28100  1  0  0  0
 28101  1  0  0  0
 29102  1  0  0  0
 29103  1  0  0  0
 33 34  1  0  0  0
 33 66  1  0  0  0
 33 70  2  0  0  0
 34 36  1  0  0  0
 34 59  1  0  0  0
 34104  1  0  0  0
 35 44  2  0  0  0
 35 45  1  0  0  0
 35 68  1  0  0  0
 36 56  1  0  0  0
 36105  1  0  0  0
 37 39  1  0  0  0
 37 47  1  0  0  0
 37 66  1  0  0  0
 37106  1  0  0  0
 38 43  2  0  0  0
 38 46  1  0  0  0
 38 47  1  0  0  0
 39 64  1  0  0  0
 39 67  2  0  0  0
 40 52  1  0  0  0
 40 53  2  0  0  0
 40 58  1  0  0  0
 41107  1  0  0  0
 41108  1  0  0  0
 41109  1  0  0  0
 41 48  1  0  0  0
 42 43  1  0  0  0
 42 66  1  0  0  0
 42110  1  0  0  0
 42111  1  0  0  0
 43 44  1  0  0  0
 44112  1  0  0  0
 45 46  2  0  0  0
 45113  1  0  0  0
 46114  1  0  0  0
 47115  1  0  0  0
 47116  1  0  0  0
 48 56  1  0  0  0
 48 65  1  0  0  0
 48117  1  0  0  0
 49 50  1  0  0  0
 49 53  1  0  0  0
 49 64  1  0  0  0
 49118  1  0  0  0
 50 51  1  0  0  0
 50119  1  0  0  0
 50120  1  0  0  0
 51 52  1  0  0  0
 51121  1  0  0  0
 51122  1  0  0  0
 52123  1  0  0  0
 52124  1  0  0  0
 53 54  1  0  0  0
 54 55  2  0  0  0
 54125  1  0  0  0
 55 57  1  0  0  0
 55126  1  0  0  0
 56 69  2  0  0  0
 57 58  2  0  0  0
 57127  1  0  0  0
 58128  1  0  0  0
 59 60  1  0  0  0
 59 61  1  0  0  0
 59 62  1  0  0  0
 60129  1  0  0  0
 60130  1  0  0  0
 60131  1  0  0  0
 61132  1  0  0  0
 61133  1  0  0  0
 61134  1  0  0  0
 62135  1  0  0  0
 62136  1  0  0  0
 62137  1  0  0  0
 63 65  1  0  0  0
 63138  1  0  0  0
 63139  1  0  0  0
 63140  1  0  0  0
 64141  1  0  0  0
 65142  1  0  0  0
 68 78  1  0  0  0
 71 73  2  0  0  0
 71 74  1  0  0  0
 71143  1  0  0  0
 72 73  1  0  0  0
 72 75  2  0  0  0
 72144  1  0  0  0
 73 79  1  0  0  0
 74 76  2  0  0  0
 74 80  1  0  0  0
 75 76  1  0  0  0
 75 82  1  0  0  0
 76 83  1  0  0  0
 77 78  2  0  0  0
 77 80  1  0  0  0
 77145  1  0  0  0
 78146  1  0  0  0
 79 81  2  0  0  0
 80147  1  0  0  0
 80148  1  0  0  0
 81149  1  0  0  0
 82150  1  0  0  0
 82151  1  0  0  0
 83152  1  0  0  0
M  ISO  4   1 100  68 101  78 101  79 100
M  END
> <chiral flag>
0

> <version>
0

> <s_m_source_file>
/data/baiqing/PycharmProjects/Reinvent-master-3.2/result/LINK_invent/BTK/process_docking_weight1_custom_product_contain_oxygen_bond_distance_aromatic_linkinvent_7_9_3/rearranged_h_0109.sdf

> <i_m_source_file_index>
65

> <r_mmod_Potential_Energy-OPLS-2005>
597.852783203125

> <r_mmod_Stretch_Energy-OPLS-2005>
306.221069335938

> <r_mmod_Bend_Energy-OPLS-2005>
264.963500976562

> <r_mmod_Torsional_Energy-OPLS-2005>
235.407485961914

> <r_mmod_Improper_Torsional_Energy-OPLS-2005>
17.3954830169678

> <r_mmod_Van_der_Waal_Energy-OPLS-2005>
133.727005004883

> <r_mmod_Electrostatic_Energy-OPLS-2005>
-362.870880126953

> <r_mmod_Solvation_Energy-OPLS-2005>
-217.572006225586

> <b_mmod_Minimization_Converged-OPLS-2005>
0

> <r_mmod_RMS_Derivative-OPLS-2005>
10.6468305587769

$$$$
65
                    3D
 Structure written by MMmdl.
158166  0  0  1  0            999 V2000
  -30.6856  -14.5104   20.5812 C   0  0  0  0  0  0
  -30.4312  -12.3406   19.4157 C   0  0  0  0  0  0
  -29.4945  -12.4960   18.1995 C   0  0  0  0  0  0
  -28.0178  -12.3485   18.6214 C   0  0  0  0  0  0
  -27.6589  -13.2025   19.8662 C   0  0  2  0  0  0
  -28.7039  -13.0012   20.9864 C   0  0  0  0  0  0
  -25.2623  -13.8149   20.5743 C   0  0  0  0  0  0
  -24.1855  -13.0432   20.9200 C   0  0  0  0  0  0
  -24.6389  -11.6899   20.8724 C   0  0  0  0  0  0
  -23.9038  -10.4293   21.0409 C   0  0  0  0  0  0
  -24.3594   -9.4204   21.9186 C   0  0  0  0  0  0
  -23.6292   -8.2238   22.0756 C   0  0  0  0  0  0
  -22.4273   -8.0274   21.3550 C   0  0  0  0  0  0
  -21.9911   -9.0234   20.4640 C   0  0  0  0  0  0
  -22.7222  -10.2128   20.3050 C   0  0  0  0  0  0
  -21.6841   -6.0727   22.5291 C   0  0  0  0  0  0
  -21.3992   -6.5628   23.8221 C   0  0  0  0  0  0
  -21.3665   -5.6780   24.9192 C   0  0  0  0  0  0
  -21.6062   -4.3048   24.7232 C   0  0  0  0  0  0
  -21.8820   -3.8132   23.4349 C   0  0  0  0  0  0
  -21.9182   -4.6951   22.3406 C   0  0  0  0  0  0
  -22.7871  -13.5245   21.1861 C   0  0  0  0  0  0
  -22.1651   -4.2136   21.0979 F   0  0  0  0  0  0
  -21.5651   -3.4523   25.7742 F   0  0  0  0  0  0
  -30.0238  -13.3288   20.4284 N   0  0  0  0  0  0
  -26.3010  -12.9308   20.3329 N   0  0  0  0  0  0
  -25.9308  -11.6461   20.5730 N   0  0  0  0  0  0
  -22.0472  -12.8242   22.0390 N   0  0  0  0  0  0
  -25.4408  -15.1886   20.4288 N   0  0  0  0  0  0
  -31.8267  -14.6936   20.1493 O   0  0  0  0  0  0
  -21.6639   -6.8877   21.4256 O   0  0  0  0  0  0
  -22.3575  -14.5554   20.6718 O   0  0  0  0  0  0
  -24.6122  -31.8697   23.2125 C   0  0  0  0  0  0
  -25.8991  -32.4834   23.8426 C   0  0  1  0  0  0
  -27.2078  -27.4080   20.0996 C   0  0  0  0  0  0
  -25.5907  -33.8639   24.2357 N   0  0  0  0  0  0
  -23.4037  -30.5002   21.5508 C   0  0  2  0  0  0
  -24.8462  -28.9817   20.1008 C   0  0  0  0  0  0
  -22.7432  -29.4658   22.4911 C   0  0  0  0  0  0
  -18.0284  -28.1385   22.8484 C   0  0  0  0  0  0
  -24.1501  -36.7296   23.2642 C   0  0  0  0  0  0
  -25.9389  -30.8308   21.3690 C   0  0  0  0  0  0
  -26.0130  -29.4703   20.7014 C   0  0  0  0  0  0
  -27.2006  -28.6955   20.6921 C   0  0  0  0  0  0
  -26.0252  -26.9630   19.4569 C   0  0  0  0  0  0
  -24.8507  -27.7316   19.4676 C   0  0  0  0  0  0
  -23.6136  -29.8537   20.1588 C   0  0  0  0  0  0
  -25.4122  -36.3122   24.0362 C   0  0  1  0  0  0
  -20.5890  -28.3668   23.1292 C   0  0  2  0  0  0
  -20.6794  -26.9400   22.5403 C   0  0  0  0  0  0
  -19.5777  -26.6390   21.5200 C   0  0  0  0  0  0
  -18.1946  -26.7933   22.1596 C   0  0  0  0  0  0
  -19.1542  -28.8833   23.2896 C   0  0  0  0  0  0
  -18.9470  -30.1442   23.8914 C   0  0  0  0  0  0
  -17.6471  -30.6591   24.0555 C   0  0  0  0  0  0
  -25.9045  -34.9491   23.5145 C   0  0  0  0  0  0
  -16.5358  -29.9097   23.6321 C   0  0  0  0  0  0
  -16.7274  -28.6516   23.0342 C   0  0  0  0  0  0
  -26.4460  -31.6596   25.0723 C   0  0  0  0  0  0
  -25.3779  -31.3660   26.1499 C   0  0  0  0  0  0
  -27.0232  -30.3044   24.6024 C   0  0  0  0  0  0
  -27.6036  -32.4326   25.7469 C   0  0  0  0  0  0
  -27.5593  -37.1810   24.8474 C   0  0  0  0  0  0
  -21.4151  -29.3038   22.3679 N   0  0  0  0  0  0
  -26.4304  -37.3807   23.9420 N   0  0  0  0  0  0
  -24.6702  -31.0813   22.1013 N   0  0  0  0  0  0
  -23.4212  -28.8175   23.2923 O   0  0  0  0  0  0
  -28.3126  -26.5730   20.1955 O   0  0  0  0  0  0
  -26.5581  -34.8925   22.4694 O   0  0  0  0  0  0
  -23.5311  -32.1424   23.7539 O   0  0  0  0  0  0
  -27.5074  -18.9329   22.9293 C   0  0  0  0  0  0
  -27.8152  -20.2324   22.4924 C   0  0  0  0  0  0
  -29.7742  -19.3523   21.3824 C   0  0  0  0  0  0
  -28.3135  -17.8152   22.6035 C   0  0  0  0  0  0
  -29.4610  -18.0161   21.7760 C   0  0  0  0  0  0
  -28.9775  -20.4746   21.7293 C   0  0  0  0  0  0
  -27.3291  -16.3605   24.4016 C   0  0  0  0  0  0
  -27.9410  -16.5206   23.2148 C   0  0  0  0  0  0
  -30.4540  -16.9042   21.3341 C   0  0  0  0  0  0
  -29.0407  -24.2088   20.9464 C   0  0  0  0  0  0
  -27.9525  -25.1837   20.4290 C   0  0  0  0  0  0
  -28.4390  -22.8394   21.3916 C   0  0  0  0  0  0
  -29.9701  -15.5273   21.1092 N   0  0  0  0  0  0
  -29.3799  -21.7469   21.3276 O   0  0  0  0  0  0
  -31.4709  -12.4645   19.1081 H   0  0  0  0  0  0
  -30.3565  -11.3320   19.8248 H   0  0  0  0  0  0
  -29.7429  -11.7494   17.4433 H   0  0  0  0  0  0
  -29.6490  -13.4682   17.7303 H   0  0  0  0  0  0
  -27.8471  -11.2929   18.8391 H   0  0  0  0  0  0
  -27.3562  -12.5937   17.7890 H   0  0  0  0  0  0
  -27.6988  -14.2461   19.5512 H   0  0  0  0  0  0
  -28.7028  -11.9655   21.3301 H   0  0  0  0  0  0
  -28.4592  -13.5894   21.8687 H   0  0  0  0  0  0
  -25.2749   -9.5681   22.4742 H   0  0  0  0  0  0
  -23.9996   -7.4624   22.7469 H   0  0  0  0  0  0
  -21.0848   -8.8734   19.8947 H   0  0  0  0  0  0
  -22.3680  -10.9643   19.6136 H   0  0  0  0  0  0
  -21.1961   -7.6134   23.9719 H   0  0  0  0  0  0
  -21.1505   -6.0514   25.9101 H   0  0  0  0  0  0
  -22.0596   -2.7589   23.2844 H   0  0  0  0  0  0
  -22.4034  -11.9885   22.4774 H   0  0  0  0  0  0
  -21.1074  -13.1279   22.2535 H   0  0  0  0  0  0
  -24.6987  -15.8519   20.6229 H   0  0  0  0  0  0
  -26.3128  -15.6318   20.1681 H   0  0  0  0  0  0
  -26.7043  -32.5521   23.1171 H   0  0  0  0  0  0
  -25.0145  -33.9861   25.0563 H   0  0  0  0  0  0
  -22.6898  -31.3162   21.4229 H   0  0  0  0  0  0
  -23.3790  -35.9598   23.3314 H   0  0  0  0  0  0
  -24.3623  -36.8886   22.2054 H   0  0  0  0  0  0
  -23.7206  -37.6497   23.6627 H   0  0  0  0  0  0
  -26.0651  -31.6068   20.6129 H   0  0  0  0  0  0
  -26.8223  -30.8697   21.9928 H   0  0  0  0  0  0
  -28.0953  -29.0655   21.1730 H   0  0  0  0  0  0
  -25.9781  -26.0126   18.9487 H   0  0  0  0  0  0
  -23.9563  -27.3603   18.9821 H   0  0  0  0  0  0
  -23.7331  -30.6426   19.4135 H   0  0  0  0  0  0
  -22.7327  -29.2898   19.8474 H   0  0  0  0  0  0
  -25.1298  -36.2012   25.0862 H   0  0  0  0  0  0
  -21.0017  -28.3230   24.1394 H   0  0  0  0  0  0
  -20.5708  -26.2266   23.3591 H   0  0  0  0  0  0
  -21.6654  -26.7467   22.1167 H   0  0  0  0  0  0
  -19.6951  -25.6308   21.1210 H   0  0  0  0  0  0
  -19.6727  -27.3203   20.6738 H   0  0  0  0  0  0
  -17.4230  -26.6679   21.3981 H   0  0  0  0  0  0
  -18.0344  -26.0074   22.9000 H   0  0  0  0  0  0
  -19.7946  -30.7247   24.2297 H   0  0  0  0  0  0
  -17.5032  -31.6269   24.5158 H   0  0  0  0  0  0
  -15.5355  -30.3007   23.7659 H   0  0  0  0  0  0
  -15.8671  -28.0852   22.7041 H   0  0  0  0  0  0
  -24.5980  -30.6968   25.7864 H   0  0  0  0  0  0
  -24.8932  -32.2778   26.4996 H   0  0  0  0  0  0
  -25.8213  -30.8835   27.0219 H   0  0  0  0  0  0
  -26.2699  -29.6851   24.1127 H   0  0  0  0  0  0
  -27.4080  -29.7230   25.4407 H   0  0  0  0  0  0
  -27.8541  -30.4384   23.9089 H   0  0  0  0  0  0
  -27.2663  -33.3655   26.2012 H   0  0  0  0  0  0
  -28.3848  -32.6846   25.0284 H   0  0  0  0  0  0
  -28.0675  -31.8462   26.5409 H   0  0  0  0  0  0
  -28.2608  -38.0106   24.7535 H   0  0  0  0  0  0
  -28.1100  -36.2646   24.6302 H   0  0  0  0  0  0
  -27.2323  -37.1457   25.8879 H   0  0  0  0  0  0
  -20.9284  -29.8795   21.6957 H   0  0  0  0  0  0
  -26.0206  -38.2892   24.1432 H   0  0  0  0  0  0
  -26.6220  -18.8049   23.5344 H   0  0  0  0  0  0
  -27.1490  -21.0283   22.7859 H   0  0  0  0  0  0
  -30.6638  -19.5301   20.7959 H   0  0  0  0  0  0
  -27.0626  -15.3736   24.7524 H   0  0  0  0  0  0
  -27.0836  -17.1931   25.0450 H   0  0  0  0  0  0
  -28.1265  -15.6222   22.6609 H   0  0  0  0  0  0
  -31.2665  -16.8744   22.0627 H   0  0  0  0  0  0
  -30.9149  -17.2293   20.3989 H   0  0  0  0  0  0
  -29.5818  -24.6592   21.7789 H   0  0  0  0  0  0
  -29.7690  -24.0472   20.1542 H   0  0  0  0  0  0
  -27.1228  -25.1499   21.1399 H   0  0  0  0  0  0
  -27.5858  -24.7526   19.4976 H   0  0  0  0  0  0
  -27.5945  -22.5861   20.7469 H   0  0  0  0  0  0
  -28.0357  -22.9676   22.3988 H   0  0  0  0  0  0
  -29.0112  -15.3315   21.3409 H   0  0  0  0  0  0
  1 25  1  0  0  0
  1 30  2  0  0  0
  1 83  1  0  0  0
  2  3  1  0  0  0
  2 25  1  0  0  0
  2 85  1  0  0  0
  2 86  1  0  0  0
  3  4  1  0  0  0
  3 87  1  0  0  0
  3 88  1  0  0  0
  4  5  1  0  0  0
  4 89  1  0  0  0
  4 90  1  0  0  0
  5  6  1  0  0  0
  5 26  1  0  0  0
  5 91  1  0  0  0
  6 25  1  0  0  0
  6 92  1  0  0  0
  6 93  1  0  0  0
  7  8  2  0  0  0
  7 26  1  0  0  0
  7 29  1  0  0  0
  8  9  1  0  0  0
  8 22  1  0  0  0
  9 10  1  0  0  0
  9 27  2  0  0  0
 10 11  2  0  0  0
 10 15  1  0  0  0
 11 12  1  0  0  0
 11 94  1  0  0  0
 12 13  2  0  0  0
 12 95  1  0  0  0
 13 14  1  0  0  0
 13 31  1  0  0  0
 14 15  2  0  0  0
 14 96  1  0  0  0
 15 97  1  0  0  0
 16 17  2  0  0  0
 16 21  1  0  0  0
 16 31  1  0  0  0
 17 18  1  0  0  0
 17 98  1  0  0  0
 18 19  2  0  0  0
 18 99  1  0  0  0
 19 20  1  0  0  0
 19 24  1  0  0  0
 20 21  2  0  0  0
 20100  1  0  0  0
 21 23  1  0  0  0
 22 28  1  0  0  0
 22 32  2  0  0  0
 26 27  1  0  0  0
 28101  1  0  0  0
 28102  1  0  0  0
 29103  1  0  0  0
 29104  1  0  0  0
 33 34  1  0  0  0
 33 66  1  0  0  0
 33 70  2  0  0  0
 34 36  1  0  0  0
 34 59  1  0  0  0
 34105  1  0  0  0
 35 44  2  0  0  0
 35 45  1  0  0  0
 35 68  1  0  0  0
 36 56  1  0  0  0
 36106  1  0  0  0
 37 39  1  0  0  0
 37 47  1  0  0  0
 37 66  1  0  0  0
 37107  1  0  0  0
 38 43  2  0  0  0
 38 46  1  0  0  0
 38 47  1  0  0  0
 39 64  1  0  0  0
 39 67  2  0  0  0
 40 52  1  0  0  0
 40 53  2  0  0  0
 40 58  1  0  0  0
 41108  1  0  0  0
 41109  1  0  0  0
 41110  1  0  0  0
 41 48  1  0  0  0
 42 43  1  0  0  0
 42 66  1  0  0  0
 42111  1  0  0  0
 42112  1  0  0  0
 43 44  1  0  0  0
 44113  1  0  0  0
 45 46  2  0  0  0
 45114  1  0  0  0
 46115  1  0  0  0
 47116  1  0  0  0
 47117  1  0  0  0
 48 56  1  0  0  0
 48 65  1  0  0  0
 48118  1  0  0  0
 49 50  1  0  0  0
 49 53  1  0  0  0
 49 64  1  0  0  0
 49119  1  0  0  0
 50 51  1  0  0  0
 50120  1  0  0  0
 50121  1  0  0  0
 51 52  1  0  0  0
 51122  1  0  0  0
 51123  1  0  0  0
 52124  1  0  0  0
 52125  1  0  0  0
 53 54  1  0  0  0
 54 55  2  0  0  0
 54126  1  0  0  0
 55 57  1  0  0  0
 55127  1  0  0  0
 56 69  2  0  0  0
 57 58  2  0  0  0
 57128  1  0  0  0
 58129  1  0  0  0
 59 60  1  0  0  0
 59 61  1  0  0  0
 59 62  1  0  0  0
 60130  1  0  0  0
 60131  1  0  0  0
 60132  1  0  0  0
 61133  1  0  0  0
 61134  1  0  0  0
 61135  1  0  0  0
 62136  1  0  0  0
 62137  1  0  0  0
 62138  1  0  0  0
 63 65  1  0  0  0
 63139  1  0  0  0
 63140  1  0  0  0
 63141  1  0  0  0
 64142  1  0  0  0
 65143  1  0  0  0
 68 81  1  0  0  0
 71 72  2  0  0  0
 71 74  1  0  0  0
 71144  1  0  0  0
 72 76  1  0  0  0
 72145  1  0  0  0
 73 75  1  0  0  0
 73 76  2  0  0  0
 73146  1  0  0  0
 74 75  2  0  0  0
 74 78  1  0  0  0
 75 79  1  0  0  0
 76 84  1  0  0  0
 77 78  2  0  0  0
 77147  1  0  0  0
 77148  1  0  0  0
 78149  1  0  0  0
 79 83  1  0  0  0
 79150  1  0  0  0
 79151  1  0  0  0
 80 81  1  0  0  0
 80 82  1  0  0  0
 80152  1  0  0  0
 80153  1  0  0  0
 81154  1  0  0  0
 81155  1  0  0  0
 82 84  1  0  0  0
 82156  1  0  0  0
 82157  1  0  0  0
 83158  1  0  0  0
M  ISO  4   1 100  68 101  81 101  83 100
M  END
> <chiral flag>
0

> <version>
0

> <s_m_source_file>
/data/baiqing/PycharmProjects/Reinvent-master-3.2/result/LINK_invent/BTK/process_docking_weight1_custom_product_contain_oxygen_bond_distance_aromatic_linkinvent_7_9_3/rearranged_h_0109.sdf

> <i_m_source_file_index>
66

> <r_mmod_Potential_Energy-OPLS-2005>
-52.635440826416

> <r_mmod_Stretch_Energy-OPLS-2005>
48.1096839904785

> <r_mmod_Bend_Energy-OPLS-2005>
115.038711547852

> <r_mmod_Torsional_Energy-OPLS-2005>
220.05110168457

> <r_mmod_Improper_Torsional_Energy-OPLS-2005>
3.45088887214661

> <r_mmod_Van_der_Waal_Energy-OPLS-2005>
164.587707519531

> <r_mmod_Electrostatic_Energy-OPLS-2005>
-419.925415039062

> <r_mmod_Solvation_Energy-OPLS-2005>
-208.197906494141

> <b_mmod_Minimization_Converged-OPLS-2005>
0

> <r_mmod_RMS_Derivative-OPLS-2005>
3.83387398719788

$$$$
66
                    3D
 Structure written by MMmdl.
160168  0  0  1  0            999 V2000
  -30.6836  -14.5265   20.3802 C   0  0  0  0  0  0
  -30.4175  -12.2720   19.4467 C   0  0  0  0  0  0
  -29.4892  -12.3442   18.2139 C   0  0  0  0  0  0
  -28.0019  -12.2904   18.6257 C   0  0  0  0  0  0
  -27.6397  -13.1924   19.8387 C   0  0  2  0  0  0
  -28.6964  -13.0877   20.9593 C   0  0  0  0  0  0
  -25.2532  -13.8089   20.5759 C   0  0  0  0  0  0
  -24.1782  -13.0390   20.9206 C   0  0  0  0  0  0
  -24.6327  -11.6858   20.8761 C   0  0  0  0  0  0
  -23.9005  -10.4263   21.0414 C   0  0  0  0  0  0
  -24.3580   -9.4180   21.9183 C   0  0  0  0  0  0
  -23.6258   -8.2215   22.0755 C   0  0  0  0  0  0
  -22.4241   -8.0252   21.3535 C   0  0  0  0  0  0
  -21.9873   -9.0220   20.4638 C   0  0  0  0  0  0
  -22.7189  -10.2106   20.3042 C   0  0  0  0  0  0
  -21.6840   -6.0710   22.5267 C   0  0  0  0  0  0
  -21.4008   -6.5613   23.8203 C   0  0  0  0  0  0
  -21.3655   -5.6769   24.9164 C   0  0  0  0  0  0
  -21.6049   -4.3036   24.7219 C   0  0  0  0  0  0
  -21.8826   -3.8122   23.4343 C   0  0  0  0  0  0
  -21.9194   -4.6937   22.3396 C   0  0  0  0  0  0
  -22.7811  -13.5209   21.1857 C   0  0  0  0  0  0
  -22.1661   -4.2122   21.0969 F   0  0  0  0  0  0
  -21.5639   -3.4528   25.7733 F   0  0  0  0  0  0
  -30.0202  -13.3370   20.3753 N   0  0  0  0  0  0
  -26.2923  -12.9244   20.3292 N   0  0  0  0  0  0
  -25.9240  -11.6429   20.5786 N   0  0  0  0  0  0
  -22.0449  -12.8213   22.0425 N   0  0  0  0  0  0
  -25.4226  -15.1817   20.4352 N   0  0  0  0  0  0
  -31.9098  -14.6116   20.2960 O   0  0  0  0  0  0
  -21.6618   -6.8841   21.4221 O   0  0  0  0  0  0
  -22.3503  -14.5517   20.6682 O   0  0  0  0  0  0
  -24.6123  -31.8683   23.2111 C   0  0  0  0  0  0
  -25.9019  -32.4827   23.8405 C   0  0  1  0  0  0
  -27.2369  -27.4465   20.1111 C   0  0  0  0  0  0
  -25.5893  -33.8624   24.2344 N   0  0  0  0  0  0
  -23.4003  -30.4886   21.5502 C   0  0  2  0  0  0
  -24.8503  -28.9511   20.1193 C   0  0  0  0  0  0
  -22.7395  -29.4649   22.5005 C   0  0  0  0  0  0
  -18.0271  -28.1368   22.8486 C   0  0  0  0  0  0
  -24.1468  -36.7298   23.2642 C   0  0  0  0  0  0
  -25.9262  -30.8393   21.3598 C   0  0  0  0  0  0
  -26.0060  -29.4703   20.7170 C   0  0  0  0  0  0
  -27.2040  -28.7234   20.7117 C   0  0  0  0  0  0
  -26.0713  -26.9354   19.5065 C   0  0  0  0  0  0
  -24.8755  -27.6813   19.5136 C   0  0  0  0  0  0
  -23.6099  -29.8152   20.1664 C   0  0  0  0  0  0
  -25.4095  -36.3110   24.0346 C   0  0  1  0  0  0
  -20.5854  -28.3649   23.1323 C   0  0  2  0  0  0
  -20.6755  -26.9388   22.5421 C   0  0  0  0  0  0
  -19.5741  -26.6382   21.5205 C   0  0  0  0  0  0
  -18.1912  -26.7922   22.1600 C   0  0  0  0  0  0
  -19.1519  -28.8827   23.2898 C   0  0  0  0  0  0
  -18.9445  -30.1436   23.8907 C   0  0  0  0  0  0
  -17.6450  -30.6581   24.0563 C   0  0  0  0  0  0
  -25.9031  -34.9477   23.5144 C   0  0  0  0  0  0
  -16.5343  -29.9082   23.6332 C   0  0  0  0  0  0
  -16.7263  -28.6497   23.0359 C   0  0  0  0  0  0
  -26.4465  -31.6595   25.0719 C   0  0  0  0  0  0
  -25.3753  -31.3662   26.1481 C   0  0  0  0  0  0
  -27.0300  -30.3053   24.6048 C   0  0  0  0  0  0
  -27.6044  -32.4306   25.7494 C   0  0  0  0  0  0
  -27.5578  -37.1795   24.8458 C   0  0  0  0  0  0
  -21.4127  -29.3016   22.3736 N   0  0  0  0  0  0
  -26.4272  -37.3805   23.9430 N   0  0  0  0  0  0
  -24.6646  -31.0798   22.0997 N   0  0  0  0  0  0
  -23.4173  -28.8205   23.3052 O   0  0  0  0  0  0
  -28.4004  -26.7180   20.0765 O   0  0  0  0  0  0
  -26.5584  -34.8923   22.4698 O   0  0  0  0  0  0
  -23.5319  -32.1427   23.7510 O   0  0  0  0  0  0
  -30.2636  -17.3710   21.5313 C   0  0  0  0  0  0
  -28.2642  -19.0437   20.5136 C   0  0  0  0  0  0
  -29.5077  -16.9105   20.4225 C   0  0  0  0  0  0
  -28.4494  -17.7598   19.9582 C   0  0  0  0  0  0
  -30.0568  -18.6534   22.0880 C   0  0  0  0  0  0
  -29.0921  -19.5302   21.5477 C   0  0  0  0  0  0
  -29.9201  -15.6636   19.6774 C   0  0  0  0  0  0
  -27.4961  -17.3844   18.8258 C   0  0  0  0  0  0
  -28.3108  -24.3341   20.6671 C   0  0  0  0  0  0
  -28.7542  -23.2438   21.6722 C   0  0  0  0  0  0
  -28.5648  -25.7797   21.1455 C   0  0  0  0  0  0
  -28.4357  -21.8150   21.1858 C   0  0  0  0  0  0
  -29.7519  -15.5881   18.4220 N   0  0  0  0  0  0
  -30.8463  -19.0895   23.1505 N   0  0  0  0  0  0
  -29.0105  -20.8225   22.0424 O   0  0  0  0  0  0
  -31.4629  -12.3478   19.1451 H   0  0  0  0  0  0
  -30.3168  -11.3027   19.9370 H   0  0  0  0  0  0
  -29.7057  -11.5004   17.5570 H   0  0  0  0  0  0
  -29.6914  -13.2211   17.6061 H   0  0  0  0  0  0
  -27.7859  -11.2494   18.8688 H   0  0  0  0  0  0
  -27.3649  -12.5315   17.7743 H   0  0  0  0  0  0
  -27.6333  -14.2109   19.4665 H   0  0  0  0  0  0
  -28.6776  -12.0951   21.4122 H   0  0  0  0  0  0
  -28.4859  -13.7961   21.7628 H   0  0  0  0  0  0
  -25.2723   -9.5678   22.4751 H   0  0  0  0  0  0
  -23.9980   -7.4610   22.7470 H   0  0  0  0  0  0
  -21.0810   -8.8710   19.8938 H   0  0  0  0  0  0
  -22.3626  -10.9640   19.6150 H   0  0  0  0  0  0
  -21.1998   -7.6121   23.9686 H   0  0  0  0  0  0
  -21.1470   -6.0503   25.9063 H   0  0  0  0  0  0
  -22.0619   -2.7584   23.2832 H   0  0  0  0  0  0
  -22.4051  -11.9874   22.4812 H   0  0  0  0  0  0
  -21.1067  -13.1238   22.2625 H   0  0  0  0  0  0
  -24.6580  -15.8343   20.5672 H   0  0  0  0  0  0
  -26.2971  -15.6335   20.2094 H   0  0  0  0  0  0
  -26.7093  -32.5552   23.1179 H   0  0  0  0  0  0
  -25.0074  -33.9789   25.0508 H   0  0  0  0  0  0
  -22.6874  -31.3035   21.4086 H   0  0  0  0  0  0
  -23.3761  -35.9593   23.3259 H   0  0  0  0  0  0
  -24.3571  -36.8966   22.2065 H   0  0  0  0  0  0
  -23.7172  -37.6466   23.6692 H   0  0  0  0  0  0
  -26.0257  -31.5996   20.5833 H   0  0  0  0  0  0
  -26.8190  -30.9039   21.9700 H   0  0  0  0  0  0
  -28.1007  -29.1206   21.1655 H   0  0  0  0  0  0
  -26.0889  -25.9641   19.0335 H   0  0  0  0  0  0
  -23.9855  -27.2765   19.0524 H   0  0  0  0  0  0
  -23.7147  -30.5865   19.4026 H   0  0  0  0  0  0
  -22.7361  -29.2301   19.8754 H   0  0  0  0  0  0
  -25.1255  -36.1969   25.0837 H   0  0  0  0  0  0
  -20.9932  -28.3212   24.1447 H   0  0  0  0  0  0
  -20.5653  -26.2251   23.3599 H   0  0  0  0  0  0
  -21.6630  -26.7428   22.1233 H   0  0  0  0  0  0
  -19.6907  -25.6300   21.1225 H   0  0  0  0  0  0
  -19.6694  -27.3198   20.6742 H   0  0  0  0  0  0
  -17.4191  -26.6688   21.3986 H   0  0  0  0  0  0
  -18.0290  -26.0056   22.8984 H   0  0  0  0  0  0
  -19.7925  -30.7242   24.2282 H   0  0  0  0  0  0
  -17.5015  -31.6263   24.5164 H   0  0  0  0  0  0
  -15.5348  -30.2992   23.7663 H   0  0  0  0  0  0
  -15.8655  -28.0829   22.7078 H   0  0  0  0  0  0
  -24.5938  -30.6988   25.7828 H   0  0  0  0  0  0
  -24.8923  -32.2799   26.4958 H   0  0  0  0  0  0
  -25.8138  -30.8829   27.0221 H   0  0  0  0  0  0
  -26.2821  -29.6808   24.1148 H   0  0  0  0  0  0
  -27.4158  -29.7284   25.4465 H   0  0  0  0  0  0
  -27.8610  -30.4409   23.9122 H   0  0  0  0  0  0
  -27.2680  -33.3631   26.2038 H   0  0  0  0  0  0
  -28.3881  -32.6816   25.0335 H   0  0  0  0  0  0
  -28.0666  -31.8436   26.5441 H   0  0  0  0  0  0
  -28.2558  -38.0134   24.7586 H   0  0  0  0  0  0
  -28.1113  -36.2669   24.6182 H   0  0  0  0  0  0
  -27.2307  -37.1332   25.8862 H   0  0  0  0  0  0
  -20.9294  -29.8717   21.6936 H   0  0  0  0  0  0
  -26.0152  -38.2864   24.1502 H   0  0  0  0  0  0
  -31.0687  -16.7640   21.9171 H   0  0  0  0  0  0
  -27.4825  -19.6642   20.1008 H   0  0  0  0  0  0
  -26.5550  -17.9306   18.8949 H   0  0  0  0  0  0
  -27.2386  -16.3279   18.8332 H   0  0  0  0  0  0
  -27.9415  -17.6117   17.8568 H   0  0  0  0  0  0
  -27.2519  -24.2138   20.4380 H   0  0  0  0  0  0
  -28.8434  -24.1767   19.7287 H   0  0  0  0  0  0
  -28.2797  -23.4126   22.6394 H   0  0  0  0  0  0
  -29.8289  -23.3329   21.8383 H   0  0  0  0  0  0
  -29.5901  -25.8760   21.5039 H   0  0  0  0  0  0
  -27.9252  -26.0165   21.9984 H   0  0  0  0  0  0
  -28.8220  -21.6964   20.1721 H   0  0  0  0  0  0
  -27.3537  -21.6821   21.1462 H   0  0  0  0  0  0
  -30.1386  -14.7206   18.0721 H   0  0  0  0  0  0
  -31.1649  -18.3924   23.8147 H   0  0  0  0  0  0
  -30.5238  -19.9368   23.6097 H   0  0  0  0  0  0
  1 25  1  0  0  0
  1 30  2  0  0  0
  1 77  1  0  0  0
  2  3  1  0  0  0
  2 25  1  0  0  0
  2 86  1  0  0  0
  2 87  1  0  0  0
  3  4  1  0  0  0
  3 88  1  0  0  0
  3 89  1  0  0  0
  4  5  1  0  0  0
  4 90  1  0  0  0
  4 91  1  0  0  0
  5  6  1  0  0  0
  5 26  1  0  0  0
  5 92  1  0  0  0
  6 25  1  0  0  0
  6 93  1  0  0  0
  6 94  1  0  0  0
  7  8  2  0  0  0
  7 26  1  0  0  0
  7 29  1  0  0  0
  8  9  1  0  0  0
  8 22  1  0  0  0
  9 10  1  0  0  0
  9 27  2  0  0  0
 10 11  2  0  0  0
 10 15  1  0  0  0
 11 12  1  0  0  0
 11 95  1  0  0  0
 12 13  2  0  0  0
 12 96  1  0  0  0
 13 14  1  0  0  0
 13 31  1  0  0  0
 14 15  2  0  0  0
 14 97  1  0  0  0
 15 98  1  0  0  0
 16 17  2  0  0  0
 16 21  1  0  0  0
 16 31  1  0  0  0
 17 18  1  0  0  0
 17 99  1  0  0  0
 18 19  2  0  0  0
 18100  1  0  0  0
 19 20  1  0  0  0
 19 24  1  0  0  0
 20 21  2  0  0  0
 20101  1  0  0  0
 21 23  1  0  0  0
 22 28  1  0  0  0
 22 32  2  0  0  0
 26 27  1  0  0  0
 28102  1  0  0  0
 28103  1  0  0  0
 29104  1  0  0  0
 29105  1  0  0  0
 33 34  1  0  0  0
 33 66  1  0  0  0
 33 70  2  0  0  0
 34 36  1  0  0  0
 34 59  1  0  0  0
 34106  1  0  0  0
 35 44  2  0  0  0
 35 45  1  0  0  0
 35 68  1  0  0  0
 36 56  1  0  0  0
 36107  1  0  0  0
 37 39  1  0  0  0
 37 47  1  0  0  0
 37 66  1  0  0  0
 37108  1  0  0  0
 38 43  2  0  0  0
 38 46  1  0  0  0
 38 47  1  0  0  0
 39 64  1  0  0  0
 39 67  2  0  0  0
 40 52  1  0  0  0
 40 53  2  0  0  0
 40 58  1  0  0  0
 41109  1  0  0  0
 41110  1  0  0  0
 41111  1  0  0  0
 41 48  1  0  0  0
 42 43  1  0  0  0
 42 66  1  0  0  0
 42112  1  0  0  0
 42113  1  0  0  0
 43 44  1  0  0  0
 44114  1  0  0  0
 45 46  2  0  0  0
 45115  1  0  0  0
 46116  1  0  0  0
 47117  1  0  0  0
 47118  1  0  0  0
 48 56  1  0  0  0
 48 65  1  0  0  0
 48119  1  0  0  0
 49 50  1  0  0  0
 49 53  1  0  0  0
 49 64  1  0  0  0
 49120  1  0  0  0
 50 51  1  0  0  0
 50121  1  0  0  0
 50122  1  0  0  0
 51 52  1  0  0  0
 51123  1  0  0  0
 51124  1  0  0  0
 52125  1  0  0  0
 52126  1  0  0  0
 53 54  1  0  0  0
 54 55  2  0  0  0
 54127  1  0  0  0
 55 57  1  0  0  0
 55128  1  0  0  0
 56 69  2  0  0  0
 57 58  2  0  0  0
 57129  1  0  0  0
 58130  1  0  0  0
 59 60  1  0  0  0
 59 61  1  0  0  0
 59 62  1  0  0  0
 60131  1  0  0  0
 60132  1  0  0  0
 60133  1  0  0  0
 61134  1  0  0  0
 61135  1  0  0  0
 61136  1  0  0  0
 62137  1  0  0  0
 62138  1  0  0  0
 62139  1  0  0  0
 63 65  1  0  0  0
 63140  1  0  0  0
 63141  1  0  0  0
 63142  1  0  0  0
 64143  1  0  0  0
 65144  1  0  0  0
 68 81  1  0  0  0
 71 73  2  0  0  0
 71 75  1  0  0  0
 71145  1  0  0  0
 72 74  2  0  0  0
 72 76  1  0  0  0
 72146  1  0  0  0
 73 74  1  0  0  0
 73 77  1  0  0  0
 74 78  1  0  0  0
 75 76  2  0  0  0
 75 84  1  0  0  0
 76 85  1  0  0  0
 77 83  2  0  0  0
 78147  1  0  0  0
 78148  1  0  0  0
 78149  1  0  0  0
 79 80  1  0  0  0
 79 81  1  0  0  0
 79150  1  0  0  0
 79151  1  0  0  0
 80 82  1  0  0  0
 80152  1  0  0  0
 80153  1  0  0  0
 81154  1  0  0  0
 81155  1  0  0  0
 82 85  1  0  0  0
 82156  1  0  0  0
 82157  1  0  0  0
 83158  1  0  0  0
 84159  1  0  0  0
 84160  1  0  0  0
M  ISO  4   1 100  68 101  77 100  81 101
M  END
> <chiral flag>
0

> <version>
0

> <s_m_source_file>
/data/baiqing/PycharmProjects/Reinvent-master-3.2/result/LINK_invent/BTK/process_docking_weight1_custom_product_contain_oxygen_bond_distance_aromatic_linkinvent_7_9_3/rearranged_h_0109.sdf

> <i_m_source_file_index>
67

> <r_mmod_Potential_Energy-OPLS-2005>
189.178253173828

> <r_mmod_Stretch_Energy-OPLS-2005>
42.0953788757324

> <r_mmod_Bend_Energy-OPLS-2005>
105.077049255371

> <r_mmod_Torsional_Energy-OPLS-2005>
291.941772460938

> <r_mmod_Improper_Torsional_Energy-OPLS-2005>
32.1107406616211

> <r_mmod_Van_der_Waal_Energy-OPLS-2005>
160.004257202148

> <r_mmod_Electrostatic_Energy-OPLS-2005>
-271.311584472656

> <r_mmod_Solvation_Energy-OPLS-2005>
-206.825210571289

> <b_mmod_Minimization_Converged-OPLS-2005>
0

> <r_mmod_RMS_Derivative-OPLS-2005>
2.30653381347656

$$$$
67
                    3D
 Structure written by MMmdl.
164172  0  0  1  0            999 V2000
  -30.7173  -14.5191   20.5179 C   0  0  0  0  0  0
  -30.4082  -12.3321   19.4136 C   0  0  0  0  0  0
  -29.4785  -12.4856   18.1951 C   0  0  0  0  0  0
  -28.0027  -12.3362   18.6160 C   0  0  0  0  0  0
  -27.6387  -13.1964   19.8568 C   0  0  2  0  0  0
  -28.6968  -13.0680   20.9756 C   0  0  0  0  0  0
  -25.2514  -13.8115   20.5679 C   0  0  0  0  0  0
  -24.1777  -13.0409   20.9212 C   0  0  0  0  0  0
  -24.6332  -11.6874   20.8784 C   0  0  0  0  0  0
  -23.9015  -10.4267   21.0436 C   0  0  0  0  0  0
  -24.3583   -9.4183   21.9200 C   0  0  0  0  0  0
  -23.6268   -8.2220   22.0760 C   0  0  0  0  0  0
  -22.4254   -8.0256   21.3544 C   0  0  0  0  0  0
  -21.9883   -9.0232   20.4653 C   0  0  0  0  0  0
  -22.7200  -10.2112   20.3075 C   0  0  0  0  0  0
  -21.6836   -6.0713   22.5278 C   0  0  0  0  0  0
  -21.4000   -6.5625   23.8207 C   0  0  0  0  0  0
  -21.3667   -5.6781   24.9174 C   0  0  0  0  0  0
  -21.6061   -4.3046   24.7223 C   0  0  0  0  0  0
  -21.8821   -3.8131   23.4345 C   0  0  0  0  0  0
  -21.9181   -4.6946   22.3398 C   0  0  0  0  0  0
  -22.7811  -13.5230   21.1857 C   0  0  0  0  0  0
  -22.1647   -4.2136   21.0973 F   0  0  0  0  0  0
  -21.5643   -3.4532   25.7736 F   0  0  0  0  0  0
  -30.0099  -13.3600   20.3858 N   0  0  0  0  0  0
  -26.2909  -12.9242   20.3351 N   0  0  0  0  0  0
  -25.9243  -11.6427   20.5803 N   0  0  0  0  0  0
  -22.0434  -12.8245   22.0421 N   0  0  0  0  0  0
  -25.4253  -15.1831   20.4009 N   0  0  0  0  0  0
  -31.9015  -14.6068   20.1928 O   0  0  0  0  0  0
  -21.6624   -6.8855   21.4235 O   0  0  0  0  0  0
  -22.3514  -14.5531   20.6684 O   0  0  0  0  0  0
  -24.6184  -31.8648   23.2056 C   0  0  0  0  0  0
  -25.9063  -32.4808   23.8360 C   0  0  1  0  0  0
  -27.2327  -27.4079   20.0954 C   0  0  0  0  0  0
  -25.5906  -33.8607   24.2291 N   0  0  0  0  0  0
  -23.4057  -30.4896   21.5464 C   0  0  2  0  0  0
  -24.8496  -28.9485   20.1118 C   0  0  0  0  0  0
  -22.7413  -29.4659   22.4960 C   0  0  0  0  0  0
  -18.0272  -28.1386   22.8489 C   0  0  0  0  0  0
  -24.1490  -36.7319   23.2635 C   0  0  0  0  0  0
  -25.9351  -30.8235   21.3605 C   0  0  0  0  0  0
  -26.0099  -29.4549   20.7086 C   0  0  0  0  0  0
  -27.2008  -28.6914   20.6961 C   0  0  0  0  0  0
  -26.0489  -26.9199   19.4947 C   0  0  0  0  0  0
  -24.8645  -27.6818   19.5032 C   0  0  0  0  0  0
  -23.6147  -29.8206   20.1614 C   0  0  0  0  0  0
  -25.4113  -36.3113   24.0336 C   0  0  1  0  0  0
  -20.5866  -28.3672   23.1304 C   0  0  2  0  0  0
  -20.6769  -26.9408   22.5409 C   0  0  0  0  0  0
  -19.5745  -26.6396   21.5209 C   0  0  0  0  0  0
  -18.1924  -26.7931   22.1626 C   0  0  0  0  0  0
  -19.1526  -28.8849   23.2894 C   0  0  0  0  0  0
  -18.9451  -30.1462   23.8896 C   0  0  0  0  0  0
  -17.6451  -30.6590   24.0577 C   0  0  0  0  0  0
  -25.9033  -34.9475   23.5116 C   0  0  0  0  0  0
  -16.5343  -29.9096   23.6327 C   0  0  0  0  0  0
  -16.7262  -28.6522   23.0333 C   0  0  0  0  0  0
  -26.4471  -31.6593   25.0703 C   0  0  0  0  0  0
  -25.3726  -31.3703   26.1446 C   0  0  0  0  0  0
  -27.0290  -30.3032   24.6084 C   0  0  0  0  0  0
  -27.6054  -32.4312   25.7465 C   0  0  0  0  0  0
  -27.5577  -37.1818   24.8459 C   0  0  0  0  0  0
  -21.4136  -29.3046   22.3704 N   0  0  0  0  0  0
  -26.4288  -37.3810   23.9406 N   0  0  0  0  0  0
  -24.6714  -31.0741   22.0962 N   0  0  0  0  0  0
  -23.4177  -28.8206   23.3018 O   0  0  0  0  0  0
  -28.4157  -26.6887   20.1255 O   0  0  0  0  0  0
  -26.5588  -34.8938   22.4673 O   0  0  0  0  0  0
  -23.5376  -32.1398   23.7444 O   0  0  0  0  0  0
  -28.6203  -18.3663   21.2380 C   0  0  0  0  0  0
  -29.3740  -17.9139   20.1310 C   0  0  0  0  0  0
  -29.9876  -18.8874   19.2789 C   0  0  0  0  0  0
  -28.4700  -19.7448   21.5028 C   0  0  0  0  0  0
  -29.7769  -20.2809   19.5144 C   0  0  0  0  0  0
  -29.0362  -20.7137   20.6404 C   0  0  0  0  0  0
  -30.8942  -18.4758   18.1658 C   0  0  0  0  0  0
  -29.4706  -16.4253   19.8568 C   0  0  0  0  0  0
  -32.3440  -18.9149   18.3002 C   0  0  0  0  0  0
  -29.7110  -21.3914   17.4272 C   0  0  0  0  0  0
  -27.8603  -24.2896   20.6870 C   0  0  0  0  0  0
  -28.4656  -25.3132   19.6861 C   0  0  0  0  0  0
  -27.9292  -22.8002   20.2385 C   0  0  0  0  0  0
  -27.7549  -20.1546   22.6259 N   0  0  0  0  0  0
  -30.0412  -15.6524   20.8068 N   0  0  0  0  0  0
  -30.5470  -17.8287   17.1765 O   0  0  0  0  0  0
  -29.0484  -15.9958   18.7816 O   0  0  0  0  0  0
  -30.3239  -21.2543   18.7077 O   0  0  0  0  0  0
  -28.9345  -22.0630   20.9435 O   0  0  0  0  0  0
  -31.4506  -12.4217   19.1024 H   0  0  0  0  0  0
  -30.3057  -11.3368   19.8493 H   0  0  0  0  0  0
  -29.7263  -11.7434   17.4339 H   0  0  0  0  0  0
  -29.6329  -13.4622   17.7321 H   0  0  0  0  0  0
  -27.8263  -11.2810   18.8289 H   0  0  0  0  0  0
  -27.3483  -12.5892   17.7804 H   0  0  0  0  0  0
  -27.6283  -14.2231   19.5158 H   0  0  0  0  0  0
  -28.6928  -12.0616   21.3962 H   0  0  0  0  0  0
  -28.4698  -13.7443   21.8008 H   0  0  0  0  0  0
  -25.2730   -9.5665   22.4767 H   0  0  0  0  0  0
  -23.9985   -7.4613   22.7479 H   0  0  0  0  0  0
  -21.0818   -8.8745   19.8957 H   0  0  0  0  0  0
  -22.3662  -10.9651   19.6188 H   0  0  0  0  0  0
  -21.1982   -7.6132   23.9704 H   0  0  0  0  0  0
  -21.1501   -6.0513   25.9078 H   0  0  0  0  0  0
  -22.0597   -2.7594   23.2843 H   0  0  0  0  0  0
  -22.4017  -11.9904   22.4835 H   0  0  0  0  0  0
  -21.1062  -13.1310   22.2622 H   0  0  0  0  0  0
  -24.6581  -15.8406   20.4891 H   0  0  0  0  0  0
  -26.2700  -15.6030   20.0349 H   0  0  0  0  0  0
  -26.7136  -32.5504   23.1121 H   0  0  0  0  0  0
  -25.0086  -33.9748   25.0456 H   0  0  0  0  0  0
  -22.6978  -31.3092   21.4069 H   0  0  0  0  0  0
  -23.3748  -35.9655   23.3301 H   0  0  0  0  0  0
  -24.3576  -36.8926   22.2045 H   0  0  0  0  0  0
  -23.7247  -37.6536   23.6636 H   0  0  0  0  0  0
  -26.0483  -31.5883   20.5911 H   0  0  0  0  0  0
  -26.8239  -30.8767   21.9779 H   0  0  0  0  0  0
  -28.0976  -29.0809   21.1570 H   0  0  0  0  0  0
  -26.0141  -25.9535   19.0162 H   0  0  0  0  0  0
  -23.9705  -27.2874   19.0388 H   0  0  0  0  0  0
  -23.7291  -30.5953   19.4026 H   0  0  0  0  0  0
  -22.7363  -29.2459   19.8627 H   0  0  0  0  0  0
  -25.1301  -36.1968   25.0832 H   0  0  0  0  0  0
  -20.9965  -28.3243   24.1422 H   0  0  0  0  0  0
  -20.5670  -26.2283   23.3596 H   0  0  0  0  0  0
  -21.6636  -26.7447   22.1202 H   0  0  0  0  0  0
  -19.6896  -25.6309   21.1236 H   0  0  0  0  0  0
  -19.6689  -27.3210   20.6739 H   0  0  0  0  0  0
  -17.4192  -26.6675   21.4035 H   0  0  0  0  0  0
  -18.0325  -26.0082   22.9028 H   0  0  0  0  0  0
  -19.7930  -30.7292   24.2254 H   0  0  0  0  0  0
  -17.5005  -31.6263   24.5191 H   0  0  0  0  0  0
  -15.5343  -30.3000   23.7659 H   0  0  0  0  0  0
  -15.8662  -28.0862   22.7013 H   0  0  0  0  0  0
  -24.5914  -30.7038   25.7771 H   0  0  0  0  0  0
  -24.8902  -32.2856   26.4882 H   0  0  0  0  0  0
  -25.8080  -30.8876   27.0204 H   0  0  0  0  0  0
  -26.2818  -29.6809   24.1144 H   0  0  0  0  0  0
  -27.4053  -29.7272   25.4547 H   0  0  0  0  0  0
  -27.8665  -30.4346   23.9230 H   0  0  0  0  0  0
  -27.2675  -33.3612   26.2053 H   0  0  0  0  0  0
  -28.3853  -32.6864   25.0278 H   0  0  0  0  0  0
  -28.0721  -31.8417   26.5365 H   0  0  0  0  0  0
  -28.2617  -38.0095   24.7513 H   0  0  0  0  0  0
  -28.1060  -36.2640   24.6291 H   0  0  0  0  0  0
  -27.2284  -37.1465   25.8856 H   0  0  0  0  0  0
  -20.9280  -29.8777   21.6944 H   0  0  0  0  0  0
  -26.0180  -38.2893   24.1412 H   0  0  0  0  0  0
  -28.1560  -17.6346   21.8878 H   0  0  0  0  0  0
  -32.5371  -19.2922   19.3041 H   0  0  0  0  0  0
  -32.5650  -19.7044   17.5828 H   0  0  0  0  0  0
  -33.0119  -18.0759   18.1117 H   0  0  0  0  0  0
  -29.7852  -22.4275   17.0950 H   0  0  0  0  0  0
  -28.6523  -21.1244   17.4404 H   0  0  0  0  0  0
  -30.2126  -20.7724   16.6834 H   0  0  0  0  0  0
  -26.8130  -24.5451   20.8462 H   0  0  0  0  0  0
  -28.3331  -24.4011   21.6630 H   0  0  0  0  0  0
  -28.0260  -25.2037   18.6942 H   0  0  0  0  0  0
  -29.5203  -25.0700   19.5533 H   0  0  0  0  0  0
  -28.0832  -22.7399   19.1626 H   0  0  0  0  0  0
  -26.9660  -22.3273   20.4376 H   0  0  0  0  0  0
  -27.0472  -19.5322   23.0015 H   0  0  0  0  0  0
  -27.4896  -21.1329   22.6718 H   0  0  0  0  0  0
  -30.4806  -16.2194   21.5139 H   0  0  0  0  0  0
  1 25  1  0  0  0
  1 30  2  0  0  0
  1 85  1  0  0  0
  2  3  1  0  0  0
  2 25  1  0  0  0
  2 90  1  0  0  0
  2 91  1  0  0  0
  3  4  1  0  0  0
  3 92  1  0  0  0
  3 93  1  0  0  0
  4  5  1  0  0  0
  4 94  1  0  0  0
  4 95  1  0  0  0
  5  6  1  0  0  0
  5 26  1  0  0  0
  5 96  1  0  0  0
  6 25  1  0  0  0
  6 97  1  0  0  0
  6 98  1  0  0  0
  7  8  2  0  0  0
  7 26  1  0  0  0
  7 29  1  0  0  0
  8  9  1  0  0  0
  8 22  1  0  0  0
  9 10  1  0  0  0
  9 27  2  0  0  0
 10 11  2  0  0  0
 10 15  1  0  0  0
 11 12  1  0  0  0
 11 99  1  0  0  0
 12 13  2  0  0  0
 12100  1  0  0  0
 13 14  1  0  0  0
 13 31  1  0  0  0
 14 15  2  0  0  0
 14101  1  0  0  0
 15102  1  0  0  0
 16 17  2  0  0  0
 16 21  1  0  0  0
 16 31  1  0  0  0
 17 18  1  0  0  0
 17103  1  0  0  0
 18 19  2  0  0  0
 18104  1  0  0  0
 19 20  1  0  0  0
 19 24  1  0  0  0
 20 21  2  0  0  0
 20105  1  0  0  0
 21 23  1  0  0  0
 22 28  1  0  0  0
 22 32  2  0  0  0
 26 27  1  0  0  0
 28106  1  0  0  0
 28107  1  0  0  0
 29108  1  0  0  0
 29109  1  0  0  0
 33 34  1  0  0  0
 33 66  1  0  0  0
 33 70  2  0  0  0
 34 36  1  0  0  0
 34 59  1  0  0  0
 34110  1  0  0  0
 35 44  2  0  0  0
 35 45  1  0  0  0
 35 68  1  0  0  0
 36 56  1  0  0  0
 36111  1  0  0  0
 37 39  1  0  0  0
 37 47  1  0  0  0
 37 66  1  0  0  0
 37112  1  0  0  0
 38 43  2  0  0  0
 38 46  1  0  0  0
 38 47  1  0  0  0
 39 64  1  0  0  0
 39 67  2  0  0  0
 40 52  1  0  0  0
 40 53  2  0  0  0
 40 58  1  0  0  0
 41113  1  0  0  0
 41114  1  0  0  0
 41115  1  0  0  0
 41 48  1  0  0  0
 42 43  1  0  0  0
 42 66  1  0  0  0
 42116  1  0  0  0
 42117  1  0  0  0
 43 44  1  0  0  0
 44118  1  0  0  0
 45 46  2  0  0  0
 45119  1  0  0  0
 46120  1  0  0  0
 47121  1  0  0  0
 47122  1  0  0  0
 48 56  1  0  0  0
 48 65  1  0  0  0
 48123  1  0  0  0
 49 50  1  0  0  0
 49 53  1  0  0  0
 49 64  1  0  0  0
 49124  1  0  0  0
 50 51  1  0  0  0
 50125  1  0  0  0
 50126  1  0  0  0
 51 52  1  0  0  0
 51127  1  0  0  0
 51128  1  0  0  0
 52129  1  0  0  0
 52130  1  0  0  0
 53 54  1  0  0  0
 54 55  2  0  0  0
 54131  1  0  0  0
 55 57  1  0  0  0
 55132  1  0  0  0
 56 69  2  0  0  0
 57 58  2  0  0  0
 57133  1  0  0  0
 58134  1  0  0  0
 59 60  1  0  0  0
 59 61  1  0  0  0
 59 62  1  0  0  0
 60135  1  0  0  0
 60136  1  0  0  0
 60137  1  0  0  0
 61138  1  0  0  0
 61139  1  0  0  0
 61140  1  0  0  0
 62141  1  0  0  0
 62142  1  0  0  0
 62143  1  0  0  0
 63 65  1  0  0  0
 63144  1  0  0  0
 63145  1  0  0  0
 63146  1  0  0  0
 64147  1  0  0  0
 65148  1  0  0  0
 68 82  1  0  0  0
 71 72  2  0  0  0
 71 74  1  0  0  0
 71149  1  0  0  0
 72 73  1  0  0  0
 72 78  1  0  0  0
 73 75  2  0  0  0
 73 77  1  0  0  0
 74 76  2  0  0  0
 74 84  1  0  0  0
 75 76  1  0  0  0
 75 88  1  0  0  0
 76 89  1  0  0  0
 77 79  1  0  0  0
 77 86  2  0  0  0
 78 85  1  0  0  0
 78 87  2  0  0  0
 79150  1  0  0  0
 79151  1  0  0  0
 79152  1  0  0  0
 80 88  1  0  0  0
 80153  1  0  0  0
 80154  1  0  0  0
 80155  1  0  0  0
 81 82  1  0  0  0
 81 83  1  0  0  0
 81156  1  0  0  0
 81157  1  0  0  0
 82158  1  0  0  0
 82159  1  0  0  0
 83 89  1  0  0  0
 83160  1  0  0  0
 83161  1  0  0  0
 84162  1  0  0  0
 84163  1  0  0  0
 85164  1  0  0  0
M  ISO  4   1 100  68 101  82 101  85 100
M  END
> <chiral flag>
0

> <version>
0

> <s_m_source_file>
/data/baiqing/PycharmProjects/Reinvent-master-3.2/result/LINK_invent/BTK/process_docking_weight1_custom_product_contain_oxygen_bond_distance_aromatic_linkinvent_7_9_3/rearranged_h_0109.sdf

> <i_m_source_file_index>
68

> <r_mmod_Potential_Energy-OPLS-2005>
-59.4643249511719

> <r_mmod_Stretch_Energy-OPLS-2005>
44.0129280090332

> <r_mmod_Bend_Energy-OPLS-2005>
115.495742797852

> <r_mmod_Torsional_Energy-OPLS-2005>
412.768981933594

> <r_mmod_Improper_Torsional_Energy-OPLS-2005>
12.0476589202881

> <r_mmod_Van_der_Waal_Energy-OPLS-2005>
152.805740356445

> <r_mmod_Electrostatic_Energy-OPLS-2005>
-588.765625

> <r_mmod_Solvation_Energy-OPLS-2005>
-232.420745849609

> <b_mmod_Minimization_Converged-OPLS-2005>
0

> <r_mmod_RMS_Derivative-OPLS-2005>
1.81789970397949

$$$$
68
                    3D
 Structure written by MMmdl.
159168  0  0  1  0            999 V2000
  -30.6296  -14.5702   20.5000 C   0  0  0  0  0  0
  -30.4340  -12.3343   19.4744 C   0  0  0  0  0  0
  -29.5264  -12.4946   18.2356 C   0  0  0  0  0  0
  -28.0339  -12.3730   18.6208 C   0  0  0  0  0  0
  -27.6611  -13.2193   19.8745 C   0  0  2  0  0  0
  -28.6954  -13.0227   21.0106 C   0  0  0  0  0  0
  -25.2585  -13.8170   20.5674 C   0  0  0  0  0  0
  -24.1848  -13.0420   20.9158 C   0  0  0  0  0  0
  -24.6436  -11.6887   20.8692 C   0  0  0  0  0  0
  -23.9103  -10.4285   21.0417 C   0  0  0  0  0  0
  -24.3640   -9.4186   21.9163 C   0  0  0  0  0  0
  -23.6302   -8.2221   22.0740 C   0  0  0  0  0  0
  -22.4280   -8.0282   21.3534 C   0  0  0  0  0  0
  -21.9933   -9.0279   20.4664 C   0  0  0  0  0  0
  -22.7270  -10.2144   20.3079 C   0  0  0  0  0  0
  -21.6849   -6.0774   22.5290 C   0  0  0  0  0  0
  -21.4016   -6.5665   23.8227 C   0  0  0  0  0  0
  -21.3648   -5.6784   24.9168 C   0  0  0  0  0  0
  -21.6041   -4.3058   24.7206 C   0  0  0  0  0  0
  -21.8796   -3.8180   23.4316 C   0  0  0  0  0  0
  -21.9164   -4.7003   22.3393 C   0  0  0  0  0  0
  -22.7864  -13.5220   21.1825 C   0  0  0  0  0  0
  -22.1622   -4.2212   21.0957 F   0  0  0  0  0  0
  -21.5621   -3.4512   25.7704 F   0  0  0  0  0  0
  -30.0273  -13.3429   20.4682 N   0  0  0  0  0  0
  -26.3016  -12.9364   20.3295 N   0  0  0  0  0  0
  -25.9366  -11.6494   20.5707 N   0  0  0  0  0  0
  -22.0500  -12.8251   22.0403 N   0  0  0  0  0  0
  -25.4286  -15.1904   20.4108 N   0  0  0  0  0  0
  -31.7381  -14.7769   20.0016 O   0  0  0  0  0  0
  -21.6605   -6.8910   21.4248 O   0  0  0  0  0  0
  -22.3554  -14.5531   20.6635 O   0  0  0  0  0  0
  -24.6188  -31.8665   23.2122 C   0  0  0  0  0  0
  -25.9076  -32.4805   23.8385 C   0  0  1  0  0  0
  -27.2193  -27.3825   20.0940 C   0  0  0  0  0  0
  -25.5929  -33.8611   24.2297 N   0  0  0  0  0  0
  -23.4060  -30.4952   21.5497 C   0  0  2  0  0  0
  -24.8525  -28.9677   20.1071 C   0  0  0  0  0  0
  -22.7409  -29.4681   22.4938 C   0  0  0  0  0  0
  -18.0288  -28.1405   22.8481 C   0  0  0  0  0  0
  -24.1488  -36.7301   23.2630 C   0  0  0  0  0  0
  -25.9438  -30.8158   21.3798 C   0  0  0  0  0  0
  -26.0172  -29.4527   20.7121 C   0  0  0  0  0  0
  -27.2009  -28.6667   20.7054 C   0  0  0  0  0  0
  -26.0338  -26.9509   19.4483 C   0  0  0  0  0  0
  -24.8570  -27.7178   19.4726 C   0  0  0  0  0  0
  -23.6194  -29.8408   20.1611 C   0  0  0  0  0  0
  -25.4119  -36.3080   24.0321 C   0  0  1  0  0  0
  -20.5859  -28.3702   23.1288 C   0  0  2  0  0  0
  -20.6777  -26.9434   22.5401 C   0  0  0  0  0  0
  -19.5763  -26.6401   21.5198 C   0  0  0  0  0  0
  -18.1940  -26.7943   22.1619 C   0  0  0  0  0  0
  -19.1529  -28.8882   23.2887 C   0  0  0  0  0  0
  -18.9467  -30.1469   23.8905 C   0  0  0  0  0  0
  -17.6470  -30.6602   24.0576 C   0  0  0  0  0  0
  -25.9051  -34.9460   23.5100 C   0  0  0  0  0  0
  -16.5363  -29.9105   23.6337 C   0  0  0  0  0  0
  -16.7279  -28.6539   23.0345 C   0  0  0  0  0  0
  -26.4492  -31.6619   25.0730 C   0  0  0  0  0  0
  -25.3764  -31.3777   26.1480 C   0  0  0  0  0  0
  -27.0346  -30.3024   24.6216 C   0  0  0  0  0  0
  -27.6050  -32.4356   25.7508 C   0  0  0  0  0  0
  -27.5582  -37.1796   24.8465 C   0  0  0  0  0  0
  -21.4146  -29.3050   22.3672 N   0  0  0  0  0  0
  -26.4286  -37.3782   23.9401 N   0  0  0  0  0  0
  -24.6734  -31.0743   22.1042 N   0  0  0  0  0  0
  -23.4177  -28.8222   23.2988 O   0  0  0  0  0  0
  -28.3585  -26.5783   20.1572 O   0  0  0  0  0  0
  -26.5600  -34.8923   22.4646 O   0  0  0  0  0  0
  -23.5376  -32.1466   23.7467 O   0  0  0  0  0  0
  -29.3401  -19.2117   20.8452 C   0  0  0  0  0  0
  -31.0408  -18.5093   19.4252 C   0  0  0  0  0  0
  -29.9417  -18.0977   20.1454 C   0  0  0  0  0  0
  -29.9186  -20.4401   20.5792 C   0  0  0  0  0  0
  -29.0838  -24.0907   20.5420 C   0  0  0  0  0  0
  -28.9150  -22.7455   20.3134 C   0  0  0  0  0  0
  -30.0816  -24.5167   21.5660 C   0  0  0  0  0  0
  -30.8887  -23.4209   22.2731 C   0  0  0  0  0  0
  -30.1149  -22.0950   22.3543 C   0  0  0  0  0  0
  -27.9003  -22.2363   19.2939 C   0  0  0  0  0  0
  -29.3582  -16.6894   20.0492 C   0  0  0  0  0  0
  -28.2212  -25.1617   19.8173 C   0  0  0  0  0  0
  -29.5680  -21.7308   21.0500 N   0  0  0  0  0  0
  -29.8453  -15.5954   20.9214 N   0  0  0  0  0  0
  -30.3286  -25.6911   21.8589 O   0  0  0  0  0  0
  -31.3122  -20.2321   19.5465 S   0  0  0  0  0  0
  -31.4866  -12.4208   19.1976 H   0  0  0  0  0  0
  -30.3170  -11.3321   19.8918 H   0  0  0  0  0  0
  -29.7834  -11.7341   17.4944 H   0  0  0  0  0  0
  -29.7152  -13.4598   17.7655 H   0  0  0  0  0  0
  -27.8324  -11.3204   18.8128 H   0  0  0  0  0  0
  -27.4010  -12.6474   17.7749 H   0  0  0  0  0  0
  -27.6908  -14.2654   19.5664 H   0  0  0  0  0  0
  -28.6741  -11.9958   21.3779 H   0  0  0  0  0  0
  -28.4484  -13.6399   21.8776 H   0  0  0  0  0  0
  -25.2825   -9.5627   22.4698 H   0  0  0  0  0  0
  -24.0015   -7.4622   22.7458 H   0  0  0  0  0  0
  -21.0862   -8.8832   19.9010 H   0  0  0  0  0  0
  -22.3771  -10.9669   19.6170 H   0  0  0  0  0  0
  -21.2058   -7.6179   23.9766 H   0  0  0  0  0  0
  -21.1479   -6.0508   25.9067 H   0  0  0  0  0  0
  -22.0615   -2.7657   23.2771 H   0  0  0  0  0  0
  -22.4045  -11.9917   22.4873 H   0  0  0  0  0  0
  -21.1118  -13.1346   22.2516 H   0  0  0  0  0  0
  -24.6608  -15.8388   20.5428 H   0  0  0  0  0  0
  -26.2713  -15.6427   20.0831 H   0  0  0  0  0  0
  -26.7137  -32.5499   23.1133 H   0  0  0  0  0  0
  -25.0059  -33.9769   25.0430 H   0  0  0  0  0  0
  -22.6980  -31.3157   21.4129 H   0  0  0  0  0  0
  -23.3734  -35.9644   23.3302 H   0  0  0  0  0  0
  -24.3577  -36.8909   22.2037 H   0  0  0  0  0  0
  -23.7265  -37.6518   23.6659 H   0  0  0  0  0  0
  -26.0748  -31.5923   20.6259 H   0  0  0  0  0  0
  -26.8223  -30.8510   22.0106 H   0  0  0  0  0  0
  -28.0949  -29.0316   21.1910 H   0  0  0  0  0  0
  -25.9756  -26.0178   18.9075 H   0  0  0  0  0  0
  -23.9595  -27.3474   18.9941 H   0  0  0  0  0  0
  -23.7356  -30.6236   19.4092 H   0  0  0  0  0  0
  -22.7423  -29.2692   19.8529 H   0  0  0  0  0  0
  -25.1291  -36.1917   25.0815 H   0  0  0  0  0  0
  -20.9978  -28.3276   24.1397 H   0  0  0  0  0  0
  -20.5685  -26.2318   23.3582 H   0  0  0  0  0  0
  -21.6654  -26.7482   22.1187 H   0  0  0  0  0  0
  -19.6920  -25.6314   21.1232 H   0  0  0  0  0  0
  -19.6685  -27.3210   20.6717 H   0  0  0  0  0  0
  -17.4191  -26.6666   21.4035 H   0  0  0  0  0  0
  -18.0373  -26.0090   22.9035 H   0  0  0  0  0  0
  -19.7960  -30.7274   24.2265 H   0  0  0  0  0  0
  -17.5057  -31.6286   24.5174 H   0  0  0  0  0  0
  -15.5382  -30.3028   23.7680 H   0  0  0  0  0  0
  -15.8671  -28.0885   22.7028 H   0  0  0  0  0  0
  -24.5898  -30.7150   25.7834 H   0  0  0  0  0  0
  -24.9012  -32.2980   26.4905 H   0  0  0  0  0  0
  -25.8103  -30.8959   27.0252 H   0  0  0  0  0  0
  -26.2931  -29.6747   24.1239 H   0  0  0  0  0  0
  -27.4018  -29.7288   25.4745 H   0  0  0  0  0  0
  -27.8826  -30.4251   23.9458 H   0  0  0  0  0  0
  -27.2624  -33.3630   26.2102 H   0  0  0  0  0  0
  -28.3866  -32.6956   25.0365 H   0  0  0  0  0  0
  -28.0723  -31.8491   26.5423 H   0  0  0  0  0  0
  -28.2587  -38.0098   24.7503 H   0  0  0  0  0  0
  -28.1070  -36.2626   24.6286 H   0  0  0  0  0  0
  -27.2298  -37.1459   25.8865 H   0  0  0  0  0  0
  -20.9298  -29.8779   21.6889 H   0  0  0  0  0  0
  -26.0155  -38.2839   24.1431 H   0  0  0  0  0  0
  -28.4659  -19.0772   21.4692 H   0  0  0  0  0  0
  -31.6747  -17.9165   18.7736 H   0  0  0  0  0  0
  -31.1575  -23.7558   23.2735 H   0  0  0  0  0  0
  -31.8163  -23.2705   21.7208 H   0  0  0  0  0  0
  -29.2905  -22.1997   23.0610 H   0  0  0  0  0  0
  -30.7604  -21.3061   22.7405 H   0  0  0  0  0  0
  -26.9131  -22.6625   19.4892 H   0  0  0  0  0  0
  -27.7672  -21.1547   19.3192 H   0  0  0  0  0  0
  -28.1989  -22.5090   18.2802 H   0  0  0  0  0  0
  -29.4000  -16.3476   19.0103 H   0  0  0  0  0  0
  -28.2858  -16.7680   20.2521 H   0  0  0  0  0  0
  -27.2157  -24.8269   20.0626 H   0  0  0  0  0  0
  -28.3474  -25.0428   18.7393 H   0  0  0  0  0  0
  -29.1317  -15.3014   21.5700 H   0  0  0  0  0  0
  1 25  1  0  0  0
  1 30  2  0  0  0
  1 84  1  0  0  0
  2  3  1  0  0  0
  2 25  1  0  0  0
  2 87  1  0  0  0
  2 88  1  0  0  0
  3  4  1  0  0  0
  3 89  1  0  0  0
  3 90  1  0  0  0
  4  5  1  0  0  0
  4 91  1  0  0  0
  4 92  1  0  0  0
  5  6  1  0  0  0
  5 26  1  0  0  0
  5 93  1  0  0  0
  6 25  1  0  0  0
  6 94  1  0  0  0
  6 95  1  0  0  0
  7  8  2  0  0  0
  7 26  1  0  0  0
  7 29  1  0  0  0
  8  9  1  0  0  0
  8 22  1  0  0  0
  9 10  1  0  0  0
  9 27  2  0  0  0
 10 11  2  0  0  0
 10 15  1  0  0  0
 11 12  1  0  0  0
 11 96  1  0  0  0
 12 13  2  0  0  0
 12 97  1  0  0  0
 13 14  1  0  0  0
 13 31  1  0  0  0
 14 15  2  0  0  0
 14 98  1  0  0  0
 15 99  1  0  0  0
 16 17  2  0  0  0
 16 21  1  0  0  0
 16 31  1  0  0  0
 17 18  1  0  0  0
 17100  1  0  0  0
 18 19  2  0  0  0
 18101  1  0  0  0
 19 20  1  0  0  0
 19 24  1  0  0  0
 20 21  2  0  0  0
 20102  1  0  0  0
 21 23  1  0  0  0
 22 28  1  0  0  0
 22 32  2  0  0  0
 26 27  1  0  0  0
 28103  1  0  0  0
 28104  1  0  0  0
 29105  1  0  0  0
 29106  1  0  0  0
 33 34  1  0  0  0
 33 66  1  0  0  0
 33 70  2  0  0  0
 34 36  1  0  0  0
 34 59  1  0  0  0
 34107  1  0  0  0
 35 44  2  0  0  0
 35 45  1  0  0  0
 35 68  1  0  0  0
 36 56  1  0  0  0
 36108  1  0  0  0
 37 39  1  0  0  0
 37 47  1  0  0  0
 37 66  1  0  0  0
 37109  1  0  0  0
 38 43  2  0  0  0
 38 46  1  0  0  0
 38 47  1  0  0  0
 39 64  1  0  0  0
 39 67  2  0  0  0
 40 52  1  0  0  0
 40 53  2  0  0  0
 40 58  1  0  0  0
 41110  1  0  0  0
 41111  1  0  0  0
 41112  1  0  0  0
 41 48  1  0  0  0
 42 43  1  0  0  0
 42 66  1  0  0  0
 42113  1  0  0  0
 42114  1  0  0  0
 43 44  1  0  0  0
 44115  1  0  0  0
 45 46  2  0  0  0
 45116  1  0  0  0
 46117  1  0  0  0
 47118  1  0  0  0
 47119  1  0  0  0
 48 56  1  0  0  0
 48 65  1  0  0  0
 48120  1  0  0  0
 49 50  1  0  0  0
 49 53  1  0  0  0
 49 64  1  0  0  0
 49121  1  0  0  0
 50 51  1  0  0  0
 50122  1  0  0  0
 50123  1  0  0  0
 51 52  1  0  0  0
 51124  1  0  0  0
 51125  1  0  0  0
 52126  1  0  0  0
 52127  1  0  0  0
 53 54  1  0  0  0
 54 55  2  0  0  0
 54128  1  0  0  0
 55 57  1  0  0  0
 55129  1  0  0  0
 56 69  2  0  0  0
 57 58  2  0  0  0
 57130  1  0  0  0
 58131  1  0  0  0
 59 60  1  0  0  0
 59 61  1  0  0  0
 59 62  1  0  0  0
 60132  1  0  0  0
 60133  1  0  0  0
 60134  1  0  0  0
 61135  1  0  0  0
 61136  1  0  0  0
 61137  1  0  0  0
 62138  1  0  0  0
 62139  1  0  0  0
 62140  1  0  0  0
 63 65  1  0  0  0
 63141  1  0  0  0
 63142  1  0  0  0
 63143  1  0  0  0
 64144  1  0  0  0
 65145  1  0  0  0
 68 82  1  0  0  0
 71 73  1  0  0  0
 71 74  2  0  0  0
 71146  1  0  0  0
 72 73  2  0  0  0
 72 86  1  0  0  0
 72147  1  0  0  0
 73 81  1  0  0  0
 74 83  1  0  0  0
 74 86  1  0  0  0
 75 76  2  0  0  0
 75 77  1  0  0  0
 75 82  1  0  0  0
 76 80  1  0  0  0
 76 83  1  0  0  0
 77 78  1  0  0  0
 77 85  2  0  0  0
 78 79  1  0  0  0
 78148  1  0  0  0
 78149  1  0  0  0
 79 83  1  0  0  0
 79150  1  0  0  0
 79151  1  0  0  0
 80152  1  0  0  0
 80153  1  0  0  0
 80154  1  0  0  0
 81 84  1  0  0  0
 81155  1  0  0  0
 81156  1  0  0  0
 82157  1  0  0  0
 82158  1  0  0  0
 84159  1  0  0  0
M  ISO  4   1 100  68 101  82 101  84 100
M  END
> <chiral flag>
0

> <version>
0

> <s_m_source_file>
/data/baiqing/PycharmProjects/Reinvent-master-3.2/result/LINK_invent/BTK/process_docking_weight1_custom_product_contain_oxygen_bond_distance_aromatic_linkinvent_7_9_3/rearranged_h_0109.sdf

> <i_m_source_file_index>
69

> <r_mmod_Potential_Energy-OPLS-2005>
-20.4241962432861

> <r_mmod_Stretch_Energy-OPLS-2005>
54.5764503479004

> <r_mmod_Bend_Energy-OPLS-2005>
125.676933288574

> <r_mmod_Torsional_Energy-OPLS-2005>
255.340774536133

> <r_mmod_Improper_Torsional_Energy-OPLS-2005>
9.86205768585205

> <r_mmod_Van_der_Waal_Energy-OPLS-2005>
144.774871826172

> <r_mmod_Electrostatic_Energy-OPLS-2005>
-398.720153808594

> <r_mmod_Solvation_Energy-OPLS-2005>
-242.617889404297

> <b_mmod_Minimization_Converged-OPLS-2005>
0

> <r_mmod_RMS_Derivative-OPLS-2005>
5.7601842880249

$$$$
69
                    3D
 Structure written by MMmdl.
167176  0  0  1  0            999 V2000
  -30.5347  -14.9378   20.3927 C   0  0  0  0  0  0
  -30.4540  -12.5791   19.4946 C   0  0  0  0  0  0
  -29.5362  -12.5617   18.2509 C   0  0  0  0  0  0
  -28.0673  -12.3394   18.6613 C   0  0  0  0  0  0
  -27.6414  -13.2531   19.8420 C   0  0  2  0  0  0
  -28.6859  -13.2536   20.9807 C   0  0  0  0  0  0
  -25.2509  -13.8222   20.5730 C   0  0  0  0  0  0
  -24.1814  -13.0453   20.9240 C   0  0  0  0  0  0
  -24.6426  -11.6944   20.8768 C   0  0  0  0  0  0
  -23.9085  -10.4305   21.0417 C   0  0  0  0  0  0
  -24.3610   -9.4191   21.9187 C   0  0  0  0  0  0
  -23.6300   -8.2223   22.0737 C   0  0  0  0  0  0
  -22.4260   -8.0282   21.3533 C   0  0  0  0  0  0
  -21.9918   -9.0257   20.4618 C   0  0  0  0  0  0
  -22.7257  -10.2136   20.3048 C   0  0  0  0  0  0
  -21.6845   -6.0724   22.5278 C   0  0  0  0  0  0
  -21.4026   -6.5638   23.8213 C   0  0  0  0  0  0
  -21.3686   -5.6789   24.9168 C   0  0  0  0  0  0
  -21.6050   -4.3054   24.7220 C   0  0  0  0  0  0
  -21.8822   -3.8129   23.4343 C   0  0  0  0  0  0
  -21.9187   -4.6957   22.3392 C   0  0  0  0  0  0
  -22.7820  -13.5235   21.1840 C   0  0  0  0  0  0
  -22.1647   -4.2153   21.0971 F   0  0  0  0  0  0
  -21.5624   -3.4522   25.7722 F   0  0  0  0  0  0
  -29.9694  -13.6642   20.3901 N   0  0  0  0  0  0
  -26.2953  -12.9481   20.3244 N   0  0  0  0  0  0
  -25.9368  -11.6600   20.5696 N   0  0  0  0  0  0
  -22.0407  -12.8290   22.0400 N   0  0  0  0  0  0
  -25.4118  -15.1958   20.4176 N   0  0  0  0  0  0
  -31.7308  -15.0327   20.0973 O   0  0  0  0  0  0
  -21.6626   -6.8882   21.4234 O   0  0  0  0  0  0
  -22.3517  -14.5516   20.6621 O   0  0  0  0  0  0
  -24.6417  -31.8428   23.1815 C   0  0  0  0  0  0
  -25.9166  -32.4696   23.8247 C   0  0  1  0  0  0
  -27.2416  -27.1555   20.1390 C   0  0  0  0  0  0
  -25.5887  -33.8504   24.2175 N   0  0  0  0  0  0
  -23.4471  -30.4568   21.5262 C   0  0  2  0  0  0
  -24.8992  -28.8784   20.0994 C   0  0  0  0  0  0
  -22.7550  -29.4537   22.4835 C   0  0  0  0  0  0
  -18.0310  -28.1378   22.8473 C   0  0  0  0  0  0
  -24.1474  -36.7294   23.2651 C   0  0  0  0  0  0
  -25.9966  -30.7220   21.3737 C   0  0  0  0  0  0
  -26.0690  -29.3314   20.7196 C   0  0  0  0  0  0
  -27.2320  -28.4795   20.7321 C   0  0  0  0  0  0
  -26.0498  -26.7917   19.4794 C   0  0  0  0  0  0
  -24.8999  -27.6212   19.4676 C   0  0  0  0  0  0
  -23.6690  -29.7740   20.1481 C   0  0  0  0  0  0
  -25.4097  -36.3052   24.0333 C   0  0  1  0  0  0
  -20.5925  -28.3715   23.1219 C   0  0  2  0  0  0
  -20.6774  -26.9414   22.5401 C   0  0  0  0  0  0
  -19.5752  -26.6359   21.5201 C   0  0  0  0  0  0
  -18.1934  -26.7917   22.1611 C   0  0  0  0  0  0
  -19.1571  -28.8863   23.2838 C   0  0  0  0  0  0
  -18.9481  -30.1450   23.8877 C   0  0  0  0  0  0
  -17.6478  -30.6581   24.0555 C   0  0  0  0  0  0
  -25.9048  -34.9419   23.5082 C   0  0  0  0  0  0
  -16.5367  -29.9074   23.6334 C   0  0  0  0  0  0
  -16.7294  -28.6488   23.0371 C   0  0  0  0  0  0
  -26.4455  -31.6577   25.0717 C   0  0  0  0  0  0
  -25.3626  -31.3800   26.1425 C   0  0  0  0  0  0
  -27.0313  -30.2971   24.6301 C   0  0  0  0  0  0
  -27.5970  -32.4350   25.7519 C   0  0  0  0  0  0
  -27.5572  -37.1797   24.8455 C   0  0  0  0  0  0
  -21.4247  -29.3028   22.3578 N   0  0  0  0  0  0
  -26.4269  -37.3751   23.9416 N   0  0  0  0  0  0
  -24.7151  -31.0275   22.0838 N   0  0  0  0  0  0
  -23.4187  -28.8121   23.3027 O   0  0  0  0  0  0
  -28.3056  -26.2043   20.3171 O   0  0  0  0  0  0
  -26.5662  -34.8925   22.4679 O   0  0  0  0  0  0
  -23.5524  -32.1273   23.7041 O   0  0  0  0  0  0
  -28.8479  -19.9632   20.7873 C   0  0  0  0  0  0
  -28.8706  -18.5209   20.9970 C   0  0  0  0  0  0
  -30.5976  -18.2940   19.4525 C   0  0  0  0  0  0
  -30.5102  -19.7178   19.1360 C   0  0  0  0  0  0
  -29.6714  -20.6975   19.8674 C   0  0  0  0  0  0
  -29.7721  -17.5917   20.3696 C   0  0  0  0  0  0
  -29.4610  -23.2303   17.1536 C   0  0  0  0  0  0
  -30.8267  -23.4094   17.8573 C   0  0  0  0  0  0
  -28.2299  -22.9153   18.0301 C   0  0  0  0  0  0
  -30.9192  -22.8261   19.3083 C   0  0  0  0  0  0
  -28.5134  -23.2362   19.5185 C   0  0  2  0  0  0
  -30.9203  -19.1241   16.6776 C   0  0  0  0  0  0
  -32.8260  -20.0097   18.1017 C   0  0  0  0  0  0
  -28.6564  -24.9658   19.4764 C   0  0  0  0  0  0
  -31.3052  -20.0426   17.8640 C   0  0  0  0  0  0
  -29.6753  -22.2167   19.7975 N   0  0  0  0  0  0
  -29.7039  -16.0725   20.5791 N   0  0  0  0  0  0
  -29.3583  -23.3498   15.9305 O   0  0  0  0  0  0
  -31.4888  -12.7364   19.1877 H   0  0  0  0  0  0
  -30.4341  -11.6193   20.0131 H   0  0  0  0  0  0
  -29.8660  -11.7979   17.5490 H   0  0  0  0  0  0
  -29.6212  -13.5132   17.7231 H   0  0  0  0  0  0
  -27.9647  -11.2959   18.9578 H   0  0  0  0  0  0
  -27.4093  -12.4847   17.8027 H   0  0  0  0  0  0
  -27.6081  -14.2626   19.4314 H   0  0  0  0  0  0
  -28.7656  -12.2698   21.4441 H   0  0  0  0  0  0
  -28.3849  -13.9407   21.7750 H   0  0  0  0  0  0
  -25.2751   -9.5681   22.4748 H   0  0  0  0  0  0
  -24.0001   -7.4629   22.7495 H   0  0  0  0  0  0
  -21.0825   -8.8816   19.8946 H   0  0  0  0  0  0
  -22.3745  -10.9668   19.6141 H   0  0  0  0  0  0
  -21.2026   -7.6146   23.9735 H   0  0  0  0  0  0
  -21.1508   -6.0494   25.9089 H   0  0  0  0  0  0
  -22.0567   -2.7595   23.2814 H   0  0  0  0  0  0
  -22.3970  -12.0049   22.4993 H   0  0  0  0  0  0
  -21.0985  -13.1312   22.2411 H   0  0  0  0  0  0
  -24.6316  -15.8343   20.5369 H   0  0  0  0  0  0
  -26.2412  -15.6415   20.0464 H   0  0  0  0  0  0
  -26.7254  -32.5309   23.0997 H   0  0  0  0  0  0
  -24.9936  -33.9583   25.0262 H   0  0  0  0  0  0
  -22.7503  -31.2824   21.3669 H   0  0  0  0  0  0
  -23.3726  -35.9629   23.3272 H   0  0  0  0  0  0
  -24.3577  -36.8966   22.2072 H   0  0  0  0  0  0
  -23.7226  -37.6484   23.6711 H   0  0  0  0  0  0
  -26.1397  -31.4698   20.5925 H   0  0  0  0  0  0
  -26.8715  -30.7822   22.0097 H   0  0  0  0  0  0
  -28.1194  -28.8147   21.2487 H   0  0  0  0  0  0
  -25.9705  -25.8121   19.0302 H   0  0  0  0  0  0
  -24.0019  -27.2610   18.9836 H   0  0  0  0  0  0
  -23.7890  -30.5398   19.3813 H   0  0  0  0  0  0
  -22.7864  -29.2027   19.8541 H   0  0  0  0  0  0
  -25.1271  -36.1890   25.0820 H   0  0  0  0  0  0
  -21.0027  -28.3315   24.1339 H   0  0  0  0  0  0
  -20.5634  -26.2336   23.3634 H   0  0  0  0  0  0
  -21.6646  -26.7380   22.1236 H   0  0  0  0  0  0
  -19.6902  -25.6252   21.1274 H   0  0  0  0  0  0
  -19.6697  -27.3142   20.6711 H   0  0  0  0  0  0
  -17.4208  -26.6690   21.4006 H   0  0  0  0  0  0
  -18.0310  -26.0058   22.9004 H   0  0  0  0  0  0
  -19.7965  -30.7259   24.2245 H   0  0  0  0  0  0
  -17.5048  -31.6272   24.5138 H   0  0  0  0  0  0
  -15.5370  -30.2974   23.7658 H   0  0  0  0  0  0
  -15.8699  -28.0788   22.7114 H   0  0  0  0  0  0
  -24.5778  -30.7164   25.7774 H   0  0  0  0  0  0
  -24.8838  -32.3004   26.4784 H   0  0  0  0  0  0
  -25.7900  -30.9024   27.0256 H   0  0  0  0  0  0
  -26.2927  -29.6721   24.1268 H   0  0  0  0  0  0
  -27.3867  -29.7252   25.4883 H   0  0  0  0  0  0
  -27.8855  -30.4209   23.9644 H   0  0  0  0  0  0
  -27.2524  -33.3651   26.2059 H   0  0  0  0  0  0
  -28.3801  -32.6919   25.0374 H   0  0  0  0  0  0
  -28.0613  -31.8513   26.5477 H   0  0  0  0  0  0
  -28.2565  -38.0112   24.7503 H   0  0  0  0  0  0
  -28.1089  -36.2647   24.6253 H   0  0  0  0  0  0
  -27.2324  -37.1431   25.8866 H   0  0  0  0  0  0
  -20.9453  -29.8719   21.6743 H   0  0  0  0  0  0
  -26.0154  -38.2834   24.1381 H   0  0  0  0  0  0
  -28.1451  -20.5269   21.3862 H   0  0  0  0  0  0
  -28.1478  -18.1240   21.6929 H   0  0  0  0  0  0
  -31.2934  -17.6832   18.8969 H   0  0  0  0  0  0
  -31.0586  -24.4746   17.8769 H   0  0  0  0  0  0
  -31.6144  -22.9896   17.2314 H   0  0  0  0  0  0
  -27.9854  -21.8621   17.9000 H   0  0  0  0  0  0
  -27.3701  -23.4736   17.6583 H   0  0  0  0  0  0
  -31.1945  -23.6303   19.9970 H   0  0  0  0  0  0
  -31.7515  -22.1393   19.3926 H   0  0  0  0  0  0
  -27.6437  -22.9523   20.1105 H   0  0  0  0  0  0
  -29.8470  -19.1564   16.4879 H   0  0  0  0  0  0
  -31.1870  -18.0796   16.8333 H   0  0  0  0  0  0
  -31.4190  -19.4222   15.7547 H   0  0  0  0  0  0
  -33.1283  -20.6610   18.9194 H   0  0  0  0  0  0
  -33.3737  -20.3252   17.2127 H   0  0  0  0  0  0
  -33.1704  -19.0087   18.3540 H   0  0  0  0  0  0
  -28.2087  -25.2773   18.5342 H   0  0  0  0  0  0
  -29.7052  -25.1856   19.3218 H   0  0  0  0  0  0
  -31.0193  -21.0142   17.5137 H   0  0  0  0  0  0
  -28.7869  -15.7772   20.8821 H   0  0  0  0  0  0
  1 25  1  0  0  0
  1 30  2  0  0  0
  1 87  1  0  0  0
  2  3  1  0  0  0
  2 25  1  0  0  0
  2 89  1  0  0  0
  2 90  1  0  0  0
  3  4  1  0  0  0
  3 91  1  0  0  0
  3 92  1  0  0  0
  4  5  1  0  0  0
  4 93  1  0  0  0
  4 94  1  0  0  0
  5  6  1  0  0  0
  5 26  1  0  0  0
  5 95  1  0  0  0
  6 25  1  0  0  0
  6 96  1  0  0  0
  6 97  1  0  0  0
  7  8  2  0  0  0
  7 26  1  0  0  0
  7 29  1  0  0  0
  8  9  1  0  0  0
  8 22  1  0  0  0
  9 10  1  0  0  0
  9 27  2  0  0  0
 10 11  2  0  0  0
 10 15  1  0  0  0
 11 12  1  0  0  0
 11 98  1  0  0  0
 12 13  2  0  0  0
 12 99  1  0  0  0
 13 14  1  0  0  0
 13 31  1  0  0  0
 14 15  2  0  0  0
 14100  1  0  0  0
 15101  1  0  0  0
 16 17  2  0  0  0
 16 21  1  0  0  0
 16 31  1  0  0  0
 17 18  1  0  0  0
 17102  1  0  0  0
 18 19  2  0  0  0
 18103  1  0  0  0
 19 20  1  0  0  0
 19 24  1  0  0  0
 20 21  2  0  0  0
 20104  1  0  0  0
 21 23  1  0  0  0
 22 28  1  0  0  0
 22 32  2  0  0  0
 26 27  1  0  0  0
 28105  1  0  0  0
 28106  1  0  0  0
 29107  1  0  0  0
 29108  1  0  0  0
 33 34  1  0  0  0
 33 66  1  0  0  0
 33 70  2  0  0  0
 34 36  1  0  0  0
 34 59  1  0  0  0
 34109  1  0  0  0
 35 44  2  0  0  0
 35 45  1  0  0  0
 35 68  1  0  0  0
 36 56  1  0  0  0
 36110  1  0  0  0
 37 39  1  0  0  0
 37 47  1  0  0  0
 37 66  1  0  0  0
 37111  1  0  0  0
 38 43  2  0  0  0
 38 46  1  0  0  0
 38 47  1  0  0  0
 39 64  1  0  0  0
 39 67  2  0  0  0
 40 52  1  0  0  0
 40 53  2  0  0  0
 40 58  1  0  0  0
 41112  1  0  0  0
 41113  1  0  0  0
 41114  1  0  0  0
 41 48  1  0  0  0
 42 43  1  0  0  0
 42 66  1  0  0  0
 42115  1  0  0  0
 42116  1  0  0  0
 43 44  1  0  0  0
 44117  1  0  0  0
 45 46  2  0  0  0
 45118  1  0  0  0
 46119  1  0  0  0
 47120  1  0  0  0
 47121  1  0  0  0
 48 56  1  0  0  0
 48 65  1  0  0  0
 48122  1  0  0  0
 49 50  1  0  0  0
 49 53  1  0  0  0
 49 64  1  0  0  0
 49123  1  0  0  0
 50 51  1  0  0  0
 50124  1  0  0  0
 50125  1  0  0  0
 51 52  1  0  0  0
 51126  1  0  0  0
 51127  1  0  0  0
 52128  1  0  0  0
 52129  1  0  0  0
 53 54  1  0  0  0
 54 55  2  0  0  0
 54130  1  0  0  0
 55 57  1  0  0  0
 55131  1  0  0  0
 56 69  2  0  0  0
 57 58  2  0  0  0
 57132  1  0  0  0
 58133  1  0  0  0
 59 60  1  0  0  0
 59 61  1  0  0  0
 59 62  1  0  0  0
 60134  1  0  0  0
 60135  1  0  0  0
 60136  1  0  0  0
 61137  1  0  0  0
 61138  1  0  0  0
 61139  1  0  0  0
 62140  1  0  0  0
 62141  1  0  0  0
 62142  1  0  0  0
 63 65  1  0  0  0
 63143  1  0  0  0
 63144  1  0  0  0
 63145  1  0  0  0
 64146  1  0  0  0
 65147  1  0  0  0
 68 84  1  0  0  0
 71 72  2  0  0  0
 71 75  1  0  0  0
 71148  1  0  0  0
 72 76  1  0  0  0
 72149  1  0  0  0
 73 74  1  0  0  0
 73 76  2  0  0  0
 73150  1  0  0  0
 74 75  2  0  0  0
 74 85  1  0  0  0
 75 86  1  0  0  0
 76 87  1  0  0  0
 77 78  1  0  0  0
 77 79  1  0  0  0
 77 88  2  0  0  0
 78 80  1  0  0  0
 78151  1  0  0  0
 78152  1  0  0  0
 79 81  1  0  0  0
 79153  1  0  0  0
 79154  1  0  0  0
 80 86  1  0  0  0
 80155  1  0  0  0
 80156  1  0  0  0
 81 84  1  0  0  0
 81 86  1  0  0  0
 81157  1  0  0  0
 82158  1  0  0  0
 82159  1  0  0  0
 82160  1  0  0  0
 82 85  1  0  0  0
 83 85  1  0  0  0
 83161  1  0  0  0
 83162  1  0  0  0
 83163  1  0  0  0
 84164  1  0  0  0
 84165  1  0  0  0
 85166  1  0  0  0
 87167  1  0  0  0
M  ISO  4   1 100  68 101  84 101  87 100
M  END
> <chiral flag>
0

> <version>
0

> <s_m_source_file>
/data/baiqing/PycharmProjects/Reinvent-master-3.2/result/LINK_invent/BTK/process_docking_weight1_custom_product_contain_oxygen_bond_distance_aromatic_linkinvent_7_9_3/rearranged_h_0109.sdf

> <i_m_source_file_index>
70

> <r_mmod_Potential_Energy-OPLS-2005>
588.416931152344

> <r_mmod_Stretch_Energy-OPLS-2005>
266.669494628906

> <r_mmod_Bend_Energy-OPLS-2005>
381.427551269531

> <r_mmod_Torsional_Energy-OPLS-2005>
241.856475830078

> <r_mmod_Improper_Torsional_Energy-OPLS-2005>
7.47957944869995

> <r_mmod_Van_der_Waal_Energy-OPLS-2005>
171.839172363281

> <r_mmod_Electrostatic_Energy-OPLS-2005>
-430.401489257812

> <r_mmod_Solvation_Energy-OPLS-2005>
-235.52751159668

> <b_mmod_Minimization_Converged-OPLS-2005>
0

> <r_mmod_RMS_Derivative-OPLS-2005>
5.08109951019287

$$$$
70
                    3D
 Structure written by MMmdl.
165173  0  0  1  0            999 V2000
  -30.6663  -14.6477   20.2845 C   0  0  0  0  0  0
  -30.4180  -12.3728   19.4192 C   0  0  0  0  0  0
  -29.4803  -12.4339   18.1989 C   0  0  0  0  0  0
  -28.0106  -12.2924   18.6494 C   0  0  0  0  0  0
  -27.6423  -13.1873   19.8685 C   0  0  2  0  0  0
  -28.7187  -13.1549   20.9676 C   0  0  0  0  0  0
  -25.2557  -13.8082   20.5788 C   0  0  0  0  0  0
  -24.1801  -13.0380   20.9243 C   0  0  0  0  0  0
  -24.6349  -11.6850   20.8812 C   0  0  0  0  0  0
  -23.9015  -10.4259   21.0438 C   0  0  0  0  0  0
  -24.3579   -9.4173   21.9199 C   0  0  0  0  0  0
  -23.6270   -8.2196   22.0748 C   0  0  0  0  0  0
  -22.4254   -8.0242   21.3524 C   0  0  0  0  0  0
  -21.9892   -9.0222   20.4631 C   0  0  0  0  0  0
  -22.7207  -10.2111   20.3059 C   0  0  0  0  0  0
  -21.6831   -6.0713   22.5261 C   0  0  0  0  0  0
  -21.4015   -6.5632   23.8192 C   0  0  0  0  0  0
  -21.3658   -5.6791   24.9156 C   0  0  0  0  0  0
  -21.6031   -4.3052   24.7224 C   0  0  0  0  0  0
  -21.8832   -3.8131   23.4357 C   0  0  0  0  0  0
  -21.9195   -4.6942   22.3406 C   0  0  0  0  0  0
  -22.7822  -13.5173   21.1886 C   0  0  0  0  0  0
  -22.1669   -4.2121   21.0987 F   0  0  0  0  0  0
  -21.5635   -3.4561   25.7763 F   0  0  0  0  0  0
  -29.9899  -13.4610   20.3047 N   0  0  0  0  0  0
  -26.2966  -12.9201   20.3522 N   0  0  0  0  0  0
  -25.9282  -11.6387   20.5951 N   0  0  0  0  0  0
  -22.0472  -12.8133   22.0424 N   0  0  0  0  0  0
  -25.4280  -15.1791   20.4217 N   0  0  0  0  0  0
  -31.8863  -14.6449   20.4571 O   0  0  0  0  0  0
  -21.6606   -6.8846   21.4214 O   0  0  0  0  0  0
  -22.3503  -14.5484   20.6753 O   0  0  0  0  0  0
  -24.6190  -31.8649   23.2045 C   0  0  0  0  0  0
  -25.9084  -32.4801   23.8349 C   0  0  1  0  0  0
  -27.2231  -27.3850   20.1206 C   0  0  0  0  0  0
  -25.5931  -33.8588   24.2305 N   0  0  0  0  0  0
  -23.4080  -30.4868   21.5461 C   0  0  2  0  0  0
  -24.8558  -28.9448   20.1118 C   0  0  0  0  0  0
  -22.7414  -29.4656   22.4972 C   0  0  0  0  0  0
  -18.0275  -28.1390   22.8486 C   0  0  0  0  0  0
  -24.1478  -36.7293   23.2632 C   0  0  0  0  0  0
  -25.9388  -30.8182   21.3601 C   0  0  0  0  0  0
  -26.0178  -29.4470   20.7115 C   0  0  0  0  0  0
  -27.2109  -28.6780   20.7061 C   0  0  0  0  0  0
  -26.0467  -26.9093   19.5065 C   0  0  0  0  0  0
  -24.8681  -27.6793   19.4993 C   0  0  0  0  0  0
  -23.6189  -29.8171   20.1602 C   0  0  0  0  0  0
  -25.4100  -36.3089   24.0338 C   0  0  1  0  0  0
  -20.5861  -28.3683   23.1302 C   0  0  2  0  0  0
  -20.6763  -26.9420   22.5406 C   0  0  0  0  0  0
  -19.5751  -26.6405   21.5193 C   0  0  0  0  0  0
  -18.1930  -26.7939   22.1608 C   0  0  0  0  0  0
  -19.1519  -28.8855   23.2897 C   0  0  0  0  0  0
  -18.9455  -30.1455   23.8926 C   0  0  0  0  0  0
  -17.6458  -30.6601   24.0562 C   0  0  0  0  0  0
  -25.9037  -34.9459   23.5115 C   0  0  0  0  0  0
  -16.5350  -29.9101   23.6321 C   0  0  0  0  0  0
  -16.7261  -28.6507   23.0357 C   0  0  0  0  0  0
  -26.4510  -31.6585   25.0680 C   0  0  0  0  0  0
  -25.3790  -31.3731   26.1445 C   0  0  0  0  0  0
  -27.0314  -30.3013   24.6069 C   0  0  0  0  0  0
  -27.6084  -32.4289   25.7465 C   0  0  0  0  0  0
  -27.5586  -37.1799   24.8473 C   0  0  0  0  0  0
  -21.4138  -29.3048   22.3708 N   0  0  0  0  0  0
  -26.4280  -37.3777   23.9426 N   0  0  0  0  0  0
  -24.6735  -31.0715   22.0959 N   0  0  0  0  0  0
  -23.4152  -28.8192   23.3036 O   0  0  0  0  0  0
  -28.3477  -26.5765   20.1461 O   0  0  0  0  0  0
  -26.5571  -34.8920   22.4659 O   0  0  0  0  0  0
  -23.5376  -32.1415   23.7433 O   0  0  0  0  0  0
  -27.1646  -17.8121   18.8306 C   0  0  0  0  0  0
  -29.4887  -17.8258   20.3744 C   0  0  0  0  0  0
  -28.0714  -16.7358   18.7193 C   0  0  0  0  0  0
  -29.2038  -16.6622   19.5901 C   0  0  0  0  0  0
  -27.4392  -18.9419   19.6324 C   0  0  0  0  0  0
  -28.6620  -18.9951   20.3394 C   0  0  0  0  0  0
  -26.6017  -15.3599   17.2154 C   0  0  0  0  0  0
  -27.8159  -15.7398   17.6583 C   0  0  0  0  0  0
  -31.1341  -15.9718   18.3287 C   0  0  0  0  0  0
  -25.5223  -20.1373   18.7966 C   0  0  0  0  0  0
  -28.6411  -24.0213   20.1144 C   0  0  0  0  0  0
  -28.5552  -22.6833   20.9353 C   0  0  0  0  0  0
  -28.1991  -25.3206   20.8721 C   0  0  0  0  0  0
  -29.0815  -21.3965   20.2117 C   0  0  0  0  0  0
  -30.1868  -15.6051   19.3995 N   0  0  0  0  0  0
  -26.5759  -20.0151   19.7443 O   0  0  0  0  0  0
  -29.0283  -20.1692   20.9968 O   0  0  0  0  0  0
  -31.4567  -12.4851   19.0998 H   0  0  0  0  0  0
  -30.3528  -11.4094   19.9258 H   0  0  0  0  0  0
  -29.7310  -11.6439   17.4910 H   0  0  0  0  0  0
  -29.6238  -13.3682   17.6598 H   0  0  0  0  0  0
  -27.8577  -11.2446   18.9116 H   0  0  0  0  0  0
  -27.3329  -12.4894   17.8182 H   0  0  0  0  0  0
  -27.6296  -14.2077   19.5341 H   0  0  0  0  0  0
  -28.7622  -12.1815   21.4566 H   0  0  0  0  0  0
  -28.5079  -13.8933   21.7428 H   0  0  0  0  0  0
  -25.2734   -9.5670   22.4752 H   0  0  0  0  0  0
  -23.9998   -7.4585   22.7459 H   0  0  0  0  0  0
  -21.0830   -8.8731   19.8932 H   0  0  0  0  0  0
  -22.3660  -10.9652   19.6169 H   0  0  0  0  0  0
  -21.2006   -7.6139   23.9706 H   0  0  0  0  0  0
  -21.1460   -6.0514   25.9059 H   0  0  0  0  0  0
  -22.0618   -2.7591   23.2860 H   0  0  0  0  0  0
  -22.4139  -11.9782   22.4748 H   0  0  0  0  0  0
  -21.1104  -13.1147   22.2709 H   0  0  0  0  0  0
  -24.6601  -15.8350   20.5100 H   0  0  0  0  0  0
  -26.2743  -15.6022   20.0628 H   0  0  0  0  0  0
  -26.7142  -32.5538   23.1093 H   0  0  0  0  0  0
  -25.0215  -33.9740   25.0542 H   0  0  0  0  0  0
  -22.6987  -31.3053   21.4022 H   0  0  0  0  0  0
  -23.3743  -35.9626   23.3291 H   0  0  0  0  0  0
  -24.3591  -36.8897   22.2053 H   0  0  0  0  0  0
  -23.7218  -37.6495   23.6621 H   0  0  0  0  0  0
  -26.0485  -31.5759   20.5829 H   0  0  0  0  0  0
  -26.8275  -30.8815   21.9755 H   0  0  0  0  0  0
  -28.1054  -29.0558   21.1803 H   0  0  0  0  0  0
  -26.0405  -25.9292   19.0491 H   0  0  0  0  0  0
  -23.9770  -27.2879   19.0278 H   0  0  0  0  0  0
  -23.7323  -30.5877   19.3965 H   0  0  0  0  0  0
  -22.7398  -29.2425   19.8635 H   0  0  0  0  0  0
  -25.1267  -36.1946   25.0825 H   0  0  0  0  0  0
  -20.9980  -28.3268   24.1413 H   0  0  0  0  0  0
  -20.5672  -26.2303   23.3599 H   0  0  0  0  0  0
  -21.6638  -26.7480   22.1208 H   0  0  0  0  0  0
  -19.6921  -25.6316   21.1231 H   0  0  0  0  0  0
  -19.6691  -27.3205   20.6709 H   0  0  0  0  0  0
  -17.4204  -26.6694   21.4006 H   0  0  0  0  0  0
  -18.0332  -26.0076   22.8997 H   0  0  0  0  0  0
  -19.7936  -30.7247   24.2333 H   0  0  0  0  0  0
  -17.5022  -31.6290   24.5144 H   0  0  0  0  0  0
  -15.5354  -30.3017   23.7642 H   0  0  0  0  0  0
  -15.8652  -28.0827   22.7091 H   0  0  0  0  0  0
  -24.5952  -30.7059   25.7830 H   0  0  0  0  0  0
  -24.8999  -32.2908   26.4864 H   0  0  0  0  0  0
  -25.8184  -30.8948   27.0209 H   0  0  0  0  0  0
  -26.2846  -29.6792   24.1109 H   0  0  0  0  0  0
  -27.4063  -29.7222   25.4524 H   0  0  0  0  0  0
  -27.8683  -30.4310   23.9194 H   0  0  0  0  0  0
  -27.2700  -33.3577   26.2062 H   0  0  0  0  0  0
  -28.3899  -32.6872   25.0307 H   0  0  0  0  0  0
  -28.0723  -31.8394   26.5382 H   0  0  0  0  0  0
  -28.2596  -38.0098   24.7516 H   0  0  0  0  0  0
  -28.1071  -36.2636   24.6267 H   0  0  0  0  0  0
  -27.2320  -37.1434   25.8875 H   0  0  0  0  0  0
  -20.9313  -29.8768   21.6920 H   0  0  0  0  0  0
  -26.0172  -38.2848   24.1422 H   0  0  0  0  0  0
  -26.2753  -17.7959   18.2205 H   0  0  0  0  0  0
  -30.4096  -17.8675   20.9388 H   0  0  0  0  0  0
  -26.5071  -14.6411   16.4162 H   0  0  0  0  0  0
  -25.6855  -15.7438   17.6411 H   0  0  0  0  0  0
  -28.6796  -15.3060   17.1762 H   0  0  0  0  0  0
  -31.6128  -15.0926   17.8913 H   0  0  0  0  0  0
  -31.9167  -16.6229   18.7249 H   0  0  0  0  0  0
  -30.6507  -16.5093   17.5111 H   0  0  0  0  0  0
  -24.7940  -19.3314   18.8924 H   0  0  0  0  0  0
  -25.9110  -20.1537   17.7769 H   0  0  0  0  0  0
  -24.9899  -21.0745   18.9642 H   0  0  0  0  0  0
  -28.0318  -23.9195   19.2164 H   0  0  0  0  0  0
  -29.6670  -24.1542   19.7670 H   0  0  0  0  0  0
  -27.5164  -22.5219   21.2273 H   0  0  0  0  0  0
  -29.1097  -22.8024   21.8668 H   0  0  0  0  0  0
  -28.7997  -25.4158   21.7775 H   0  0  0  0  0  0
  -27.1769  -25.1890   21.2301 H   0  0  0  0  0  0
  -30.1313  -21.5451   19.9582 H   0  0  0  0  0  0
  -28.5772  -21.3042   19.2499 H   0  0  0  0  0  0
  1 25  1  0  0  0
  1 30  2  0  0  0
  1 85  1  0  0  0
  2  3  1  0  0  0
  2 25  1  0  0  0
  2 88  1  0  0  0
  2 89  1  0  0  0
  3  4  1  0  0  0
  3 90  1  0  0  0
  3 91  1  0  0  0
  4  5  1  0  0  0
  4 92  1  0  0  0
  4 93  1  0  0  0
  5  6  1  0  0  0
  5 26  1  0  0  0
  5 94  1  0  0  0
  6 25  1  0  0  0
  6 95  1  0  0  0
  6 96  1  0  0  0
  7  8  2  0  0  0
  7 26  1  0  0  0
  7 29  1  0  0  0
  8  9  1  0  0  0
  8 22  1  0  0  0
  9 10  1  0  0  0
  9 27  2  0  0  0
 10 11  2  0  0  0
 10 15  1  0  0  0
 11 12  1  0  0  0
 11 97  1  0  0  0
 12 13  2  0  0  0
 12 98  1  0  0  0
 13 14  1  0  0  0
 13 31  1  0  0  0
 14 15  2  0  0  0
 14 99  1  0  0  0
 15100  1  0  0  0
 16 17  2  0  0  0
 16 21  1  0  0  0
 16 31  1  0  0  0
 17 18  1  0  0  0
 17101  1  0  0  0
 18 19  2  0  0  0
 18102  1  0  0  0
 19 20  1  0  0  0
 19 24  1  0  0  0
 20 21  2  0  0  0
 20103  1  0  0  0
 21 23  1  0  0  0
 22 28  1  0  0  0
 22 32  2  0  0  0
 26 27  1  0  0  0
 28104  1  0  0  0
 28105  1  0  0  0
 29106  1  0  0  0
 29107  1  0  0  0
 33 34  1  0  0  0
 33 66  1  0  0  0
 33 70  2  0  0  0
 34 36  1  0  0  0
 34 59  1  0  0  0
 34108  1  0  0  0
 35 44  2  0  0  0
 35 45  1  0  0  0
 35 68  1  0  0  0
 36 56  1  0  0  0
 36109  1  0  0  0
 37 39  1  0  0  0
 37 47  1  0  0  0
 37 66  1  0  0  0
 37110  1  0  0  0
 38 43  2  0  0  0
 38 46  1  0  0  0
 38 47  1  0  0  0
 39 64  1  0  0  0
 39 67  2  0  0  0
 40 52  1  0  0  0
 40 53  2  0  0  0
 40 58  1  0  0  0
 41111  1  0  0  0
 41112  1  0  0  0
 41113  1  0  0  0
 41 48  1  0  0  0
 42 43  1  0  0  0
 42 66  1  0  0  0
 42114  1  0  0  0
 42115  1  0  0  0
 43 44  1  0  0  0
 44116  1  0  0  0
 45 46  2  0  0  0
 45117  1  0  0  0
 46118  1  0  0  0
 47119  1  0  0  0
 47120  1  0  0  0
 48 56  1  0  0  0
 48 65  1  0  0  0
 48121  1  0  0  0
 49 50  1  0  0  0
 49 53  1  0  0  0
 49 64  1  0  0  0
 49122  1  0  0  0
 50 51  1  0  0  0
 50123  1  0  0  0
 50124  1  0  0  0
 51 52  1  0  0  0
 51125  1  0  0  0
 51126  1  0  0  0
 52127  1  0  0  0
 52128  1  0  0  0
 53 54  1  0  0  0
 54 55  2  0  0  0
 54129  1  0  0  0
 55 57  1  0  0  0
 55130  1  0  0  0
 56 69  2  0  0  0
 57 58  2  0  0  0
 57131  1  0  0  0
 58132  1  0  0  0
 59 60  1  0  0  0
 59 61  1  0  0  0
 59 62  1  0  0  0
 60133  1  0  0  0
 60134  1  0  0  0
 60135  1  0  0  0
 61136  1  0  0  0
 61137  1  0  0  0
 61138  1  0  0  0
 62139  1  0  0  0
 62140  1  0  0  0
 62141  1  0  0  0
 63 65  1  0  0  0
 63142  1  0  0  0
 63143  1  0  0  0
 63144  1  0  0  0
 64145  1  0  0  0
 65146  1  0  0  0
 68 83  1  0  0  0
 71 73  2  0  0  0
 71 75  1  0  0  0
 71147  1  0  0  0
 72 74  2  0  0  0
 72 76  1  0  0  0
 72148  1  0  0  0
 73 74  1  0  0  0
 73 78  1  0  0  0
 74 85  1  0  0  0
 75 76  2  0  0  0
 75 86  1  0  0  0
 76 87  1  0  0  0
 77 78  2  0  0  0
 77149  1  0  0  0
 77150  1  0  0  0
 78151  1  0  0  0
 79 85  1  0  0  0
 79152  1  0  0  0
 79153  1  0  0  0
 79154  1  0  0  0
 80 86  1  0  0  0
 80155  1  0  0  0
 80156  1  0  0  0
 80157  1  0  0  0
 81 82  1  0  0  0
 81 83  1  0  0  0
 81158  1  0  0  0
 81159  1  0  0  0
 82 84  1  0  0  0
 82160  1  0  0  0
 82161  1  0  0  0
 83162  1  0  0  0
 83163  1  0  0  0
 84 87  1  0  0  0
 84164  1  0  0  0
 84165  1  0  0  0
M  ISO  4   1 100  68 101  83 101  85 100
M  END
> <chiral flag>
0

> <version>
0

> <s_m_source_file>
/data/baiqing/PycharmProjects/Reinvent-master-3.2/result/LINK_invent/BTK/process_docking_weight1_custom_product_contain_oxygen_bond_distance_aromatic_linkinvent_7_9_3/rearranged_h_0109.sdf

> <i_m_source_file_index>
71

> <r_mmod_Potential_Energy-OPLS-2005>
332.461853027344

> <r_mmod_Stretch_Energy-OPLS-2005>
63.7024803161621

> <r_mmod_Bend_Energy-OPLS-2005>
139.875106811523

> <r_mmod_Torsional_Energy-OPLS-2005>
385.222473144531

> <r_mmod_Improper_Torsional_Energy-OPLS-2005>
33.4033088684082

> <r_mmod_Van_der_Waal_Energy-OPLS-2005>
152.724990844727

> <r_mmod_Electrostatic_Energy-OPLS-2005>
-325.476745605469

> <r_mmod_Solvation_Energy-OPLS-2005>
-189.823516845703

> <b_mmod_Minimization_Converged-OPLS-2005>
0

> <r_mmod_RMS_Derivative-OPLS-2005>
3.41965508460999

$$$$
71
                    3D
 Structure written by MMmdl.
155164  0  0  1  0            999 V2000
  -30.5835  -14.8537   20.4223 C   0  0  0  0  0  0
  -30.4535  -12.5166   19.4443 C   0  0  0  0  0  0
  -29.5163  -12.5373   18.2126 C   0  0  0  0  0  0
  -28.0515  -12.3336   18.6460 C   0  0  0  0  0  0
  -27.6596  -13.2263   19.8539 C   0  0  2  0  0  0
  -28.7248  -13.1689   20.9744 C   0  0  0  0  0  0
  -25.2686  -13.8157   20.5790 C   0  0  0  0  0  0
  -24.1931  -13.0467   20.9203 C   0  0  0  0  0  0
  -24.6481  -11.6903   20.8733 C   0  0  0  0  0  0
  -23.9134  -10.4319   21.0412 C   0  0  0  0  0  0
  -24.3681   -9.4211   21.9181 C   0  0  0  0  0  0
  -23.6328   -8.2262   22.0771 C   0  0  0  0  0  0
  -22.4292   -8.0322   21.3572 C   0  0  0  0  0  0
  -21.9956   -9.0304   20.4656 C   0  0  0  0  0  0
  -22.7316  -10.2165   20.3054 C   0  0  0  0  0  0
  -21.6855   -6.0766   22.5295 C   0  0  0  0  0  0
  -21.3988   -6.5648   23.8233 C   0  0  0  0  0  0
  -21.3645   -5.6795   24.9182 C   0  0  0  0  0  0
  -21.6048   -4.3065   24.7224 C   0  0  0  0  0  0
  -21.8827   -3.8166   23.4340 C   0  0  0  0  0  0
  -21.9203   -4.6992   22.3403 C   0  0  0  0  0  0
  -22.7950  -13.5285   21.1847 C   0  0  0  0  0  0
  -22.1683   -4.2188   21.0982 F   0  0  0  0  0  0
  -21.5636   -3.4536   25.7728 F   0  0  0  0  0  0
  -30.0071  -13.5856   20.3842 N   0  0  0  0  0  0
  -26.3113  -12.9364   20.3371 N   0  0  0  0  0  0
  -25.9421  -11.6508   20.5737 N   0  0  0  0  0  0
  -22.0555  -12.8290   22.0339 N   0  0  0  0  0  0
  -25.4457  -15.1910   20.4325 N   0  0  0  0  0  0
  -31.7545  -14.9788   20.0532 O   0  0  0  0  0  0
  -21.6643   -6.8927   21.4259 O   0  0  0  0  0  0
  -22.3667  -14.5654   20.6728 O   0  0  0  0  0  0
  -24.6516  -31.8468   23.1774 C   0  0  0  0  0  0
  -25.9278  -32.4710   23.8196 C   0  0  1  0  0  0
  -27.2969  -27.1650   20.1481 C   0  0  0  0  0  0
  -25.5964  -33.8485   24.2084 N   0  0  0  0  0  0
  -23.4548  -30.4686   21.5161 C   0  0  2  0  0  0
  -24.9257  -28.8650   20.1298 C   0  0  0  0  0  0
  -22.7555  -29.4733   22.4764 C   0  0  0  0  0  0
  -18.0312  -28.1259   22.8582 C   0  0  0  0  0  0
  -24.1497  -36.7275   23.2639 C   0  0  0  0  0  0
  -26.0093  -30.7371   21.3673 C   0  0  0  0  0  0
  -26.0979  -29.3396   20.7264 C   0  0  0  0  0  0
  -27.2745  -28.5014   20.7271 C   0  0  0  0  0  0
  -26.0939  -26.7795   19.5292 C   0  0  0  0  0  0
  -24.9287  -27.5883   19.5396 C   0  0  0  0  0  0
  -23.6927  -29.7623   20.1508 C   0  0  0  0  0  0
  -25.4098  -36.2999   24.0308 C   0  0  1  0  0  0
  -20.5937  -28.3781   23.0964 C   0  0  2  0  0  0
  -20.6852  -26.9486   22.4995 C   0  0  0  0  0  0
  -19.5498  -26.6245   21.5232 C   0  0  0  0  0  0
  -18.2041  -26.7567   22.2307 C   0  0  0  0  0  0
  -19.1546  -28.8880   23.2727 C   0  0  0  0  0  0
  -18.9365  -30.1473   23.8721 C   0  0  0  0  0  0
  -17.6309  -30.6423   24.0532 C   0  0  0  0  0  0
  -25.9045  -34.9405   23.4987 C   0  0  0  0  0  0
  -16.5234  -29.8840   23.6331 C   0  0  0  0  0  0
  -16.7261  -28.6255   23.0427 C   0  0  0  0  0  0
  -26.4520  -31.6593   25.0682 C   0  0  0  0  0  0
  -25.3653  -31.3874   26.1355 C   0  0  0  0  0  0
  -27.0411  -30.2974   24.6313 C   0  0  0  0  0  0
  -27.5969  -32.4424   25.7524 C   0  0  0  0  0  0
  -27.5546  -37.1795   24.8455 C   0  0  0  0  0  0
  -21.4244  -29.3189   22.3400 N   0  0  0  0  0  0
  -26.4240  -37.3725   23.9422 N   0  0  0  0  0  0
  -24.7235  -31.0398   22.0762 N   0  0  0  0  0  0
  -23.4130  -28.8329   23.3000 O   0  0  0  0  0  0
  -28.4117  -26.2473   20.2292 O   0  0  0  0  0  0
  -26.5651  -34.8939   22.4575 O   0  0  0  0  0  0
  -23.5655  -32.1318   23.7048 O   0  0  0  0  0  0
  -30.0291  -19.7824   19.5478 C   0  0  0  0  0  0
  -28.6424  -19.6509   21.4501 C   0  0  0  0  0  0
  -30.3419  -18.3539   19.6756 C   0  0  0  0  0  0
  -28.9090  -18.2301   21.5432 C   0  0  0  0  0  0
  -29.1318  -20.5231   20.4120 C   0  0  0  0  0  0
  -29.7437  -17.4817   20.6536 C   0  0  0  0  0  0
  -27.1518  -21.8215   19.9740 C   0  0  0  0  0  0
  -26.3817  -22.8563   20.7862 C   0  0  0  0  0  0
  -27.4685  -23.5395   21.6071 C   0  0  0  0  0  0
  -28.6822  -23.3782   20.6889 C   0  0  2  0  0  0
  -28.5426  -24.7666   19.7381 C   0  0  0  0  0  0
  -28.4910  -21.9093   20.1205 N   0  0  0  0  0  0
  -29.7699  -15.9536   20.7645 N   0  0  0  0  0  0
  -26.5580  -20.9729   19.3021 O   0  0  0  0  0  0
  -31.4943  -12.6340   19.1418 H   0  0  0  0  0  0
  -30.3966  -11.5315   19.9140 H   0  0  0  0  0  0
  -29.8058  -11.7584   17.5053 H   0  0  0  0  0  0
  -29.6081  -13.4822   17.6743 H   0  0  0  0  0  0
  -27.9387  -11.2818   18.9145 H   0  0  0  0  0  0
  -27.3786  -12.5082   17.8061 H   0  0  0  0  0  0
  -27.6483  -14.2483   19.4731 H   0  0  0  0  0  0
  -28.8088  -12.1580   21.3782 H   0  0  0  0  0  0
  -28.4561  -13.8064   21.8159 H   0  0  0  0  0  0
  -25.2850   -9.5642   22.4739 H   0  0  0  0  0  0
  -24.0026   -7.4639   22.7498 H   0  0  0  0  0  0
  -21.0885   -8.8831   19.8966 H   0  0  0  0  0  0
  -22.3812  -10.9697   19.6142 H   0  0  0  0  0  0
  -21.1949   -7.6146   23.9743 H   0  0  0  0  0  0
  -21.1459   -6.0510   25.9088 H   0  0  0  0  0  0
  -22.0617   -2.7630   23.2821 H   0  0  0  0  0  0
  -22.4162  -11.9916   22.4680 H   0  0  0  0  0  0
  -21.1159  -13.1314   22.2500 H   0  0  0  0  0  0
  -24.7111  -15.8604   20.6325 H   0  0  0  0  0  0
  -26.3130  -15.6275   20.1500 H   0  0  0  0  0  0
  -26.7417  -32.5380   23.1013 H   0  0  0  0  0  0
  -25.0120  -33.9518   25.0246 H   0  0  0  0  0  0
  -22.7672  -31.2993   21.3399 H   0  0  0  0  0  0
  -23.3724  -35.9653   23.3285 H   0  0  0  0  0  0
  -24.3573  -36.8939   22.2054 H   0  0  0  0  0  0
  -23.7304  -37.6481   23.6710 H   0  0  0  0  0  0
  -26.1437  -31.4874   20.5846 H   0  0  0  0  0  0
  -26.8768  -30.8118   22.0120 H   0  0  0  0  0  0
  -28.1630  -28.8731   21.2200 H   0  0  0  0  0  0
  -26.0418  -25.8000   19.0843 H   0  0  0  0  0  0
  -24.0181  -27.1876   19.1214 H   0  0  0  0  0  0
  -23.8336  -30.5125   19.3707 H   0  0  0  0  0  0
  -22.8126  -29.1984   19.8404 H   0  0  0  0  0  0
  -25.1307  -36.1751   25.0802 H   0  0  0  0  0  0
  -21.0124  -28.3245   24.1044 H   0  0  0  0  0  0
  -20.6312  -26.2387   23.3263 H   0  0  0  0  0  0
  -21.6513  -26.7678   22.0308 H   0  0  0  0  0  0
  -19.6531  -25.6098   21.1379 H   0  0  0  0  0  0
  -19.5881  -27.2982   20.6664 H   0  0  0  0  0  0
  -17.3847  -26.5414   21.5446 H   0  0  0  0  0  0
  -18.1446  -26.0165   23.0296 H   0  0  0  0  0  0
  -19.7813  -30.7350   24.2025 H   0  0  0  0  0  0
  -17.4694  -31.6019   24.5271 H   0  0  0  0  0  0
  -15.5151  -30.2524   23.7653 H   0  0  0  0  0  0
  -15.8737  -28.0354   22.7321 H   0  0  0  0  0  0
  -24.5723  -30.7364   25.7662 H   0  0  0  0  0  0
  -24.9015  -32.3163   26.4693 H   0  0  0  0  0  0
  -25.7874  -30.9034   27.0166 H   0  0  0  0  0  0
  -26.3074  -29.6672   24.1299 H   0  0  0  0  0  0
  -27.3977  -29.7282   25.4896 H   0  0  0  0  0  0
  -27.8969  -30.4150   23.9667 H   0  0  0  0  0  0
  -27.2390  -33.3688   26.2011 H   0  0  0  0  0  0
  -28.3831  -32.7064   25.0449 H   0  0  0  0  0  0
  -28.0582  -31.8649   26.5538 H   0  0  0  0  0  0
  -28.2543  -38.0104   24.7462 H   0  0  0  0  0  0
  -28.1053  -36.2622   24.6308 H   0  0  0  0  0  0
  -27.2284  -37.1489   25.8865 H   0  0  0  0  0  0
  -20.9569  -29.8735   21.6373 H   0  0  0  0  0  0
  -26.0095  -38.2795   24.1420 H   0  0  0  0  0  0
  -30.4423  -20.2963   18.6899 H   0  0  0  0  0  0
  -27.9263  -20.0403   22.1592 H   0  0  0  0  0  0
  -31.0098  -17.9161   18.9431 H   0  0  0  0  0  0
  -28.3863  -17.6895   22.3228 H   0  0  0  0  0  0
  -25.6095  -22.3875   21.3951 H   0  0  0  0  0  0
  -25.8946  -23.5626   20.1180 H   0  0  0  0  0  0
  -27.6087  -23.0381   22.5648 H   0  0  0  0  0  0
  -27.2236  -24.5857   21.8092 H   0  0  0  0  0  0
  -29.6178  -23.4138   21.2489 H   0  0  0  0  0  0
  -29.5083  -24.7964   19.2342 H   0  0  0  0  0  0
  -27.8663  -24.5712   18.9047 H   0  0  0  0  0  0
  -28.9227  -15.5914   21.1716 H   0  0  0  0  0  0
  1 25  1  0  0  0
  1 30  2  0  0  0
  1 83  1  0  0  0
  2  3  1  0  0  0
  2 25  1  0  0  0
  2 85  1  0  0  0
  2 86  1  0  0  0
  3  4  1  0  0  0
  3 87  1  0  0  0
  3 88  1  0  0  0
  4  5  1  0  0  0
  4 89  1  0  0  0
  4 90  1  0  0  0
  5  6  1  0  0  0
  5 26  1  0  0  0
  5 91  1  0  0  0
  6 25  1  0  0  0
  6 92  1  0  0  0
  6 93  1  0  0  0
  7  8  2  0  0  0
  7 26  1  0  0  0
  7 29  1  0  0  0
  8  9  1  0  0  0
  8 22  1  0  0  0
  9 10  1  0  0  0
  9 27  2  0  0  0
 10 11  2  0  0  0
 10 15  1  0  0  0
 11 12  1  0  0  0
 11 94  1  0  0  0
 12 13  2  0  0  0
 12 95  1  0  0  0
 13 14  1  0  0  0
 13 31  1  0  0  0
 14 15  2  0  0  0
 14 96  1  0  0  0
 15 97  1  0  0  0
 16 17  2  0  0  0
 16 21  1  0  0  0
 16 31  1  0  0  0
 17 18  1  0  0  0
 17 98  1  0  0  0
 18 19  2  0  0  0
 18 99  1  0  0  0
 19 20  1  0  0  0
 19 24  1  0  0  0
 20 21  2  0  0  0
 20100  1  0  0  0
 21 23  1  0  0  0
 22 28  1  0  0  0
 22 32  2  0  0  0
 26 27  1  0  0  0
 28101  1  0  0  0
 28102  1  0  0  0
 29103  1  0  0  0
 29104  1  0  0  0
 33 34  1  0  0  0
 33 66  1  0  0  0
 33 70  2  0  0  0
 34 36  1  0  0  0
 34 59  1  0  0  0
 34105  1  0  0  0
 35 44  2  0  0  0
 35 45  1  0  0  0
 35 68  1  0  0  0
 36 56  1  0  0  0
 36106  1  0  0  0
 37 39  1  0  0  0
 37 47  1  0  0  0
 37 66  1  0  0  0
 37107  1  0  0  0
 38 43  2  0  0  0
 38 46  1  0  0  0
 38 47  1  0  0  0
 39 64  1  0  0  0
 39 67  2  0  0  0
 40 52  1  0  0  0
 40 53  2  0  0  0
 40 58  1  0  0  0
 41108  1  0  0  0
 41109  1  0  0  0
 41110  1  0  0  0
 41 48  1  0  0  0
 42 43  1  0  0  0
 42 66  1  0  0  0
 42111  1  0  0  0
 42112  1  0  0  0
 43 44  1  0  0  0
 44113  1  0  0  0
 45 46  2  0  0  0
 45114  1  0  0  0
 46115  1  0  0  0
 47116  1  0  0  0
 47117  1  0  0  0
 48 56  1  0  0  0
 48 65  1  0  0  0
 48118  1  0  0  0
 49 50  1  0  0  0
 49 53  1  0  0  0
 49 64  1  0  0  0
 49119  1  0  0  0
 50 51  1  0  0  0
 50120  1  0  0  0
 50121  1  0  0  0
 51 52  1  0  0  0
 51122  1  0  0  0
 51123  1  0  0  0
 52124  1  0  0  0
 52125  1  0  0  0
 53 54  1  0  0  0
 54 55  2  0  0  0
 54126  1  0  0  0
 55 57  1  0  0  0
 55127  1  0  0  0
 56 69  2  0  0  0
 57 58  2  0  0  0
 57128  1  0  0  0
 58129  1  0  0  0
 59 60  1  0  0  0
 59 61  1  0  0  0
 59 62  1  0  0  0
 60130  1  0  0  0
 60131  1  0  0  0
 60132  1  0  0  0
 61133  1  0  0  0
 61134  1  0  0  0
 61135  1  0  0  0
 62136  1  0  0  0
 62137  1  0  0  0
 62138  1  0  0  0
 63 65  1  0  0  0
 63139  1  0  0  0
 63140  1  0  0  0
 63141  1  0  0  0
 64142  1  0  0  0
 65143  1  0  0  0
 68 81  1  0  0  0
 71 73  2  0  0  0
 71 75  1  0  0  0
 71144  1  0  0  0
 72 74  1  0  0  0
 72 75  2  0  0  0
 72145  1  0  0  0
 73 76  1  0  0  0
 73146  1  0  0  0
 74 76  2  0  0  0
 74147  1  0  0  0
 75 82  1  0  0  0
 76 83  1  0  0  0
 77 78  1  0  0  0
 77 82  1  0  0  0
 77 84  2  0  0  0
 78 79  1  0  0  0
 78148  1  0  0  0
 78149  1  0  0  0
 79 80  1  0  0  0
 79150  1  0  0  0
 79151  1  0  0  0
 80 81  1  0  0  0
 80 82  1  0  0  0
 80152  1  0  0  0
 81153  1  0  0  0
 81154  1  0  0  0
 83155  1  0  0  0
M  ISO  4   1 100  68 101  81 101  83 100
M  END
> <chiral flag>
0

> <version>
0

> <s_m_source_file>
/data/baiqing/PycharmProjects/Reinvent-master-3.2/result/LINK_invent/BTK/process_docking_weight1_custom_product_contain_oxygen_bond_distance_aromatic_linkinvent_7_9_3/rearranged_h_0109.sdf

> <i_m_source_file_index>
72

> <r_mmod_Potential_Energy-OPLS-2005>
616.4443359375

> <r_mmod_Stretch_Energy-OPLS-2005>
250.749221801758

> <r_mmod_Bend_Energy-OPLS-2005>
341.133361816406

> <r_mmod_Torsional_Energy-OPLS-2005>
326.640441894531

> <r_mmod_Improper_Torsional_Energy-OPLS-2005>
8.42994976043701

> <r_mmod_Van_der_Waal_Energy-OPLS-2005>
126.613868713379

> <r_mmod_Electrostatic_Energy-OPLS-2005>
-355.10498046875

> <r_mmod_Solvation_Energy-OPLS-2005>
-225.868148803711

> <b_mmod_Minimization_Converged-OPLS-2005>
0

> <r_mmod_RMS_Derivative-OPLS-2005>
9.95054721832275

$$$$
72
                    3D
 Structure written by MMmdl.
163172  0  0  1  0            999 V2000
  -30.6236  -14.6521   20.4789 C   0  0  0  0  0  0
  -30.4435  -12.3933   19.4568 C   0  0  0  0  0  0
  -29.5137  -12.5067   18.2274 C   0  0  0  0  0  0
  -28.0358  -12.3464   18.6376 C   0  0  0  0  0  0
  -27.6588  -13.2182   19.8653 C   0  0  2  0  0  0
  -28.7056  -13.0757   20.9946 C   0  0  0  0  0  0
  -25.2577  -13.8184   20.5686 C   0  0  0  0  0  0
  -24.1838  -13.0455   20.9200 C   0  0  0  0  0  0
  -24.6404  -11.6924   20.8753 C   0  0  0  0  0  0
  -23.9064  -10.4311   21.0413 C   0  0  0  0  0  0
  -24.3617   -9.4222   21.9190 C   0  0  0  0  0  0
  -23.6293   -8.2255   22.0751 C   0  0  0  0  0  0
  -22.4272   -8.0296   21.3544 C   0  0  0  0  0  0
  -21.9911   -9.0270   20.4648 C   0  0  0  0  0  0
  -22.7234  -10.2150   20.3060 C   0  0  0  0  0  0
  -21.6847   -6.0748   22.5280 C   0  0  0  0  0  0
  -21.4015   -6.5650   23.8219 C   0  0  0  0  0  0
  -21.3659   -5.6794   24.9176 C   0  0  0  0  0  0
  -21.6041   -4.3059   24.7221 C   0  0  0  0  0  0
  -21.8816   -3.8157   23.4341 C   0  0  0  0  0  0
  -21.9190   -4.6977   22.3401 C   0  0  0  0  0  0
  -22.7857  -13.5254   21.1853 C   0  0  0  0  0  0
  -22.1655   -4.2169   21.0974 F   0  0  0  0  0  0
  -21.5622   -3.4541   25.7733 F   0  0  0  0  0  0
  -30.0210  -13.4198   20.4318 N   0  0  0  0  0  0
  -26.3022  -12.9368   20.3338 N   0  0  0  0  0  0
  -25.9335  -11.6527   20.5777 N   0  0  0  0  0  0
  -22.0472  -12.8264   22.0405 N   0  0  0  0  0  0
  -25.4293  -15.1896   20.4070 N   0  0  0  0  0  0
  -31.7769  -14.8141   20.0700 O   0  0  0  0  0  0
  -21.6632   -6.8888   21.4238 O   0  0  0  0  0  0
  -22.3553  -14.5555   20.6679 O   0  0  0  0  0  0
  -24.6272  -31.8595   23.2036 C   0  0  0  0  0  0
  -25.9125  -32.4775   23.8361 C   0  0  1  0  0  0
  -27.2194  -27.3134   20.1019 C   0  0  0  0  0  0
  -25.5930  -33.8575   24.2281 N   0  0  0  0  0  0
  -23.4210  -30.4860   21.5468 C   0  0  2  0  0  0
  -24.8638  -28.9428   20.1127 C   0  0  0  0  0  0
  -22.7472  -29.4638   22.4940 C   0  0  0  0  0  0
  -18.0289  -28.1382   22.8499 C   0  0  0  0  0  0
  -24.1481  -36.7286   23.2642 C   0  0  0  0  0  0
  -25.9642  -30.7885   21.3753 C   0  0  0  0  0  0
  -26.0364  -29.4165   20.7147 C   0  0  0  0  0  0
  -27.2167  -28.6120   20.7041 C   0  0  0  0  0  0
  -26.0179  -26.9007   19.4763 C   0  0  0  0  0  0
  -24.8557  -27.6882   19.4897 C   0  0  0  0  0  0
  -23.6334  -29.8238   20.1620 C   0  0  0  0  0  0
  -25.4104  -36.3080   24.0334 C   0  0  1  0  0  0
  -20.5888  -28.3691   23.1282 C   0  0  2  0  0  0
  -20.6767  -26.9412   22.5406 C   0  0  0  0  0  0
  -19.5735  -26.6393   21.5209 C   0  0  0  0  0  0
  -18.1924  -26.7934   22.1638 C   0  0  0  0  0  0
  -19.1541  -28.8854   23.2891 C   0  0  0  0  0  0
  -18.9463  -30.1455   23.8905 C   0  0  0  0  0  0
  -17.6462  -30.6590   24.0568 C   0  0  0  0  0  0
  -25.9042  -34.9455   23.5106 C   0  0  0  0  0  0
  -16.5352  -29.9086   23.6336 C   0  0  0  0  0  0
  -16.7276  -28.6501   23.0367 C   0  0  0  0  0  0
  -26.4499  -31.6586   25.0730 C   0  0  0  0  0  0
  -25.3739  -31.3735   26.1456 C   0  0  0  0  0  0
  -27.0336  -30.3008   24.6191 C   0  0  0  0  0  0
  -27.6054  -32.4326   25.7505 C   0  0  0  0  0  0
  -27.5571  -37.1802   24.8470 C   0  0  0  0  0  0
  -21.4187  -29.3051   22.3677 N   0  0  0  0  0  0
  -26.4282  -37.3777   23.9413 N   0  0  0  0  0  0
  -24.6899  -31.0604   22.0986 N   0  0  0  0  0  0
  -23.4191  -28.8168   23.3021 O   0  0  0  0  0  0
  -28.3311  -26.4500   20.1469 O   0  0  0  0  0  0
  -26.5620  -34.8933   22.4673 O   0  0  0  0  0  0
  -23.5434  -32.1392   23.7359 O   0  0  0  0  0  0
  -29.1632  -19.4265   21.3765 C   0  0  0  0  0  0
  -29.1850  -18.0110   21.5411 C   0  0  0  0  0  0
  -30.5573  -17.7974   19.5862 C   0  0  0  0  0  0
  -30.5272  -19.2187   19.3950 C   0  0  0  0  0  0
  -29.8398  -20.0815   20.3172 C   0  0  0  0  0  0
  -29.9043  -17.1516   20.6706 C   0  0  0  0  0  0
  -29.1653  -23.8976   20.1724 C   0  0  0  0  0  0
  -28.9450  -22.5297   20.0787 C   0  0  0  0  0  0
  -30.5151  -24.3432   20.5883 C   0  0  0  0  0  0
  -30.8038  -20.7676   17.4158 C   0  0  0  0  0  0
  -31.1663  -19.7016   18.1519 C   0  0  0  0  0  0
  -31.4154  -23.3017   21.2515 C   0  0  0  0  0  0
  -31.3278  -21.9471   20.5310 C   0  0  0  0  0  0
  -27.5966  -21.9922   19.6173 C   0  0  0  0  0  0
  -28.0985  -25.0115   19.8472 C   0  0  0  0  0  0
  -29.9416  -21.5250   20.3017 N   0  0  0  0  0  0
  -29.8346  -15.6997   20.8819 N   0  0  0  0  0  0
  -30.9535  -25.4861   20.4273 O   0  0  0  0  0  0
  -31.4858  -12.5109   19.1550 H   0  0  0  0  0  0
  -30.3751  -11.3990   19.9014 H   0  0  0  0  0  0
  -29.7796  -11.7516   17.4862 H   0  0  0  0  0  0
  -29.6565  -13.4747   17.7441 H   0  0  0  0  0  0
  -27.8689  -11.2941   18.8680 H   0  0  0  0  0  0
  -27.3825  -12.5777   17.7955 H   0  0  0  0  0  0
  -27.6792  -14.2534   19.5250 H   0  0  0  0  0  0
  -28.7203  -12.0556   21.3810 H   0  0  0  0  0  0
  -28.4530  -13.7098   21.8455 H   0  0  0  0  0  0
  -25.2764   -9.5701   22.4764 H   0  0  0  0  0  0
  -24.0007   -7.4646   22.7470 H   0  0  0  0  0  0
  -21.0845   -8.8793   19.8958 H   0  0  0  0  0  0
  -22.3698  -10.9688   19.6177 H   0  0  0  0  0  0
  -21.2013   -7.6160   23.9734 H   0  0  0  0  0  0
  -21.1473   -6.0520   25.9079 H   0  0  0  0  0  0
  -22.0594   -2.7622   23.2833 H   0  0  0  0  0  0
  -22.4062  -11.9937   22.4828 H   0  0  0  0  0  0
  -21.1089  -13.1301   22.2568 H   0  0  0  0  0  0
  -24.6656  -15.8464   20.5245 H   0  0  0  0  0  0
  -26.2763  -15.6258   20.0638 H   0  0  0  0  0  0
  -26.7199  -32.5437   23.1114 H   0  0  0  0  0  0
  -25.0062  -33.9714   25.0416 H   0  0  0  0  0  0
  -22.7169  -31.3078   21.4061 H   0  0  0  0  0  0
  -23.3737  -35.9622   23.3304 H   0  0  0  0  0  0
  -24.3568  -36.8898   22.2056 H   0  0  0  0  0  0
  -23.7244  -37.6499   23.6650 H   0  0  0  0  0  0
  -26.0974  -31.5541   20.6098 H   0  0  0  0  0  0
  -26.8431  -30.8348   22.0057 H   0  0  0  0  0  0
  -28.1163  -28.9686   21.1858 H   0  0  0  0  0  0
  -25.9331  -25.9492   18.9751 H   0  0  0  0  0  0
  -23.9565  -27.3160   19.0177 H   0  0  0  0  0  0
  -23.7550  -30.6013   19.4063 H   0  0  0  0  0  0
  -22.7517  -29.2561   19.8596 H   0  0  0  0  0  0
  -25.1285  -36.1934   25.0829 H   0  0  0  0  0  0
  -20.9995  -28.3264   24.1394 H   0  0  0  0  0  0
  -20.5651  -26.2302   23.3607 H   0  0  0  0  0  0
  -21.6636  -26.7425   22.1206 H   0  0  0  0  0  0
  -19.6884  -25.6306   21.1235 H   0  0  0  0  0  0
  -19.6665  -27.3205   20.6740 H   0  0  0  0  0  0
  -17.4185  -26.6690   21.4048 H   0  0  0  0  0  0
  -18.0324  -26.0061   22.9025 H   0  0  0  0  0  0
  -19.7938  -30.7275   24.2270 H   0  0  0  0  0  0
  -17.5019  -31.6269   24.5166 H   0  0  0  0  0  0
  -15.5355  -30.2995   23.7646 H   0  0  0  0  0  0
  -15.8680  -28.0820   22.7085 H   0  0  0  0  0  0
  -24.5908  -30.7079   25.7804 H   0  0  0  0  0  0
  -24.8924  -32.2903   26.4880 H   0  0  0  0  0  0
  -25.8067  -30.8932   27.0236 H   0  0  0  0  0  0
  -26.2912  -29.6771   24.1195 H   0  0  0  0  0  0
  -27.4009  -29.7262   25.4703 H   0  0  0  0  0  0
  -27.8794  -30.4284   23.9426 H   0  0  0  0  0  0
  -27.2649  -33.3619   26.2084 H   0  0  0  0  0  0
  -28.3863  -32.6899   25.0339 H   0  0  0  0  0  0
  -28.0710  -31.8451   26.5425 H   0  0  0  0  0  0
  -28.2606  -38.0087   24.7499 H   0  0  0  0  0  0
  -28.1058  -36.2621   24.6310 H   0  0  0  0  0  0
  -27.2290  -37.1467   25.8878 H   0  0  0  0  0  0
  -20.9348  -29.8800   21.6920 H   0  0  0  0  0  0
  -26.0161  -38.2851   24.1411 H   0  0  0  0  0  0
  -28.6337  -20.0212   22.1075 H   0  0  0  0  0  0
  -28.6397  -17.5895   22.3729 H   0  0  0  0  0  0
  -31.0738  -17.1932   18.8534 H   0  0  0  0  0  0
  -31.3504  -21.0363   16.5226 H   0  0  0  0  0  0
  -29.9593  -21.3873   17.6830 H   0  0  0  0  0  0
  -32.0206  -19.1314   17.8149 H   0  0  0  0  0  0
  -31.1005  -23.1908   22.2887 H   0  0  0  0  0  0
  -32.4461  -23.6559   21.2648 H   0  0  0  0  0  0
  -31.8701  -21.2010   21.1147 H   0  0  0  0  0  0
  -31.8389  -22.0257   19.5717 H   0  0  0  0  0  0
  -26.8545  -22.0873   20.4099 H   0  0  0  0  0  0
  -27.6307  -20.9485   19.3077 H   0  0  0  0  0  0
  -27.2366  -22.5528   18.7547 H   0  0  0  0  0  0
  -27.1926  -24.6934   20.3629 H   0  0  0  0  0  0
  -27.9032  -24.9290   18.7773 H   0  0  0  0  0  0
  -28.9934  -15.3895   21.3445 H   0  0  0  0  0  0
  1 25  1  0  0  0
  1 30  2  0  0  0
  1 87  1  0  0  0
  2  3  1  0  0  0
  2 25  1  0  0  0
  2 89  1  0  0  0
  2 90  1  0  0  0
  3  4  1  0  0  0
  3 91  1  0  0  0
  3 92  1  0  0  0
  4  5  1  0  0  0
  4 93  1  0  0  0
  4 94  1  0  0  0
  5  6  1  0  0  0
  5 26  1  0  0  0
  5 95  1  0  0  0
  6 25  1  0  0  0
  6 96  1  0  0  0
  6 97  1  0  0  0
  7  8  2  0  0  0
  7 26  1  0  0  0
  7 29  1  0  0  0
  8  9  1  0  0  0
  8 22  1  0  0  0
  9 10  1  0  0  0
  9 27  2  0  0  0
 10 11  2  0  0  0
 10 15  1  0  0  0
 11 12  1  0  0  0
 11 98  1  0  0  0
 12 13  2  0  0  0
 12 99  1  0  0  0
 13 14  1  0  0  0
 13 31  1  0  0  0
 14 15  2  0  0  0
 14100  1  0  0  0
 15101  1  0  0  0
 16 17  2  0  0  0
 16 21  1  0  0  0
 16 31  1  0  0  0
 17 18  1  0  0  0
 17102  1  0  0  0
 18 19  2  0  0  0
 18103  1  0  0  0
 19 20  1  0  0  0
 19 24  1  0  0  0
 20 21  2  0  0  0
 20104  1  0  0  0
 21 23  1  0  0  0
 22 28  1  0  0  0
 22 32  2  0  0  0
 26 27  1  0  0  0
 28105  1  0  0  0
 28106  1  0  0  0
 29107  1  0  0  0
 29108  1  0  0  0
 33 34  1  0  0  0
 33 66  1  0  0  0
 33 70  2  0  0  0
 34 36  1  0  0  0
 34 59  1  0  0  0
 34109  1  0  0  0
 35 44  2  0  0  0
 35 45  1  0  0  0
 35 68  1  0  0  0
 36 56  1  0  0  0
 36110  1  0  0  0
 37 39  1  0  0  0
 37 47  1  0  0  0
 37 66  1  0  0  0
 37111  1  0  0  0
 38 43  2  0  0  0
 38 46  1  0  0  0
 38 47  1  0  0  0
 39 64  1  0  0  0
 39 67  2  0  0  0
 40 52  1  0  0  0
 40 53  2  0  0  0
 40 58  1  0  0  0
 41112  1  0  0  0
 41113  1  0  0  0
 41114  1  0  0  0
 41 48  1  0  0  0
 42 43  1  0  0  0
 42 66  1  0  0  0
 42115  1  0  0  0
 42116  1  0  0  0
 43 44  1  0  0  0
 44117  1  0  0  0
 45 46  2  0  0  0
 45118  1  0  0  0
 46119  1  0  0  0
 47120  1  0  0  0
 47121  1  0  0  0
 48 56  1  0  0  0
 48 65  1  0  0  0
 48122  1  0  0  0
 49 50  1  0  0  0
 49 53  1  0  0  0
 49 64  1  0  0  0
 49123  1  0  0  0
 50 51  1  0  0  0
 50124  1  0  0  0
 50125  1  0  0  0
 51 52  1  0  0  0
 51126  1  0  0  0
 51127  1  0  0  0
 52128  1  0  0  0
 52129  1  0  0  0
 53 54  1  0  0  0
 54 55  2  0  0  0
 54130  1  0  0  0
 55 57  1  0  0  0
 55131  1  0  0  0
 56 69  2  0  0  0
 57 58  2  0  0  0
 57132  1  0  0  0
 58133  1  0  0  0
 59 60  1  0  0  0
 59 61  1  0  0  0
 59 62  1  0  0  0
 60134  1  0  0  0
 60135  1  0  0  0
 60136  1  0  0  0
 61137  1  0  0  0
 61138  1  0  0  0
 61139  1  0  0  0
 62140  1  0  0  0
 62141  1  0  0  0
 62142  1  0  0  0
 63 65  1  0  0  0
 63143  1  0  0  0
 63144  1  0  0  0
 63145  1  0  0  0
 64146  1  0  0  0
 65147  1  0  0  0
 68 85  1  0  0  0
 71 72  2  0  0  0
 71 75  1  0  0  0
 71148  1  0  0  0
 72 76  1  0  0  0
 72149  1  0  0  0
 73 74  1  0  0  0
 73 76  2  0  0  0
 73150  1  0  0  0
 74 75  2  0  0  0
 74 81  1  0  0  0
 75 86  1  0  0  0
 76 87  1  0  0  0
 77 78  2  0  0  0
 77 79  1  0  0  0
 77 85  1  0  0  0
 78 84  1  0  0  0
 78 86  1  0  0  0
 79 82  1  0  0  0
 79 88  2  0  0  0
 80 81  2  0  0  0
 80151  1  0  0  0
 80152  1  0  0  0
 81153  1  0  0  0
 82 83  1  0  0  0
 82154  1  0  0  0
 82155  1  0  0  0
 83 86  1  0  0  0
 83156  1  0  0  0
 83157  1  0  0  0
 84158  1  0  0  0
 84159  1  0  0  0
 84160  1  0  0  0
 85161  1  0  0  0
 85162  1  0  0  0
 87163  1  0  0  0
M  ISO  4   1 100  68 101  85 101  87 100
M  END
> <chiral flag>
0

> <version>
0

> <s_m_source_file>
/data/baiqing/PycharmProjects/Reinvent-master-3.2/result/LINK_invent/BTK/process_docking_weight1_custom_product_contain_oxygen_bond_distance_aromatic_linkinvent_7_9_3/rearranged_h_0109.sdf

> <i_m_source_file_index>
73

> <r_mmod_Potential_Energy-OPLS-2005>
117.573127746582

> <r_mmod_Stretch_Energy-OPLS-2005>
89.4109344482422

> <r_mmod_Bend_Energy-OPLS-2005>
142.933074951172

> <r_mmod_Torsional_Energy-OPLS-2005>
235.619537353516

> <r_mmod_Improper_Torsional_Energy-OPLS-2005>
4.39267826080322

> <r_mmod_Van_der_Waal_Energy-OPLS-2005>
165.12077331543

> <r_mmod_Electrostatic_Energy-OPLS-2005>
-347.908905029297

> <r_mmod_Solvation_Energy-OPLS-2005>
-224.099166870117

> <b_mmod_Minimization_Converged-OPLS-2005>
0

> <r_mmod_RMS_Derivative-OPLS-2005>
2.24635601043701

$$$$
73
                    3D
 Structure written by MMmdl.
161169  0  0  1  0            999 V2000
  -30.6995  -14.5299   20.5153 C   0  0  0  0  0  0
  -30.4151  -12.3282   19.4415 C   0  0  0  0  0  0
  -29.4961  -12.4903   18.2139 C   0  0  0  0  0  0
  -28.0185  -12.3469   18.6266 C   0  0  0  0  0  0
  -27.6509  -13.2150   19.8603 C   0  0  2  0  0  0
  -28.6952  -13.0650   20.9904 C   0  0  0  0  0  0
  -25.2552  -13.8184   20.5688 C   0  0  0  0  0  0
  -24.1820  -13.0445   20.9193 C   0  0  0  0  0  0
  -24.6387  -11.6914   20.8739 C   0  0  0  0  0  0
  -23.9059  -10.4299   21.0414 C   0  0  0  0  0  0
  -24.3620   -9.4210   21.9188 C   0  0  0  0  0  0
  -23.6297   -8.2244   22.0756 C   0  0  0  0  0  0
  -22.4279   -8.0282   21.3544 C   0  0  0  0  0  0
  -21.9914   -9.0258   20.4646 C   0  0  0  0  0  0
  -22.7236  -10.2138   20.3057 C   0  0  0  0  0  0
  -21.6853   -6.0734   22.5280 C   0  0  0  0  0  0
  -21.4010   -6.5640   23.8210 C   0  0  0  0  0  0
  -21.3658   -5.6790   24.9177 C   0  0  0  0  0  0
  -21.6050   -4.3055   24.7226 C   0  0  0  0  0  0
  -21.8814   -3.8147   23.4347 C   0  0  0  0  0  0
  -21.9187   -4.6965   22.3401 C   0  0  0  0  0  0
  -22.7841  -13.5236   21.1853 C   0  0  0  0  0  0
  -22.1655   -4.2150   21.0979 F   0  0  0  0  0  0
  -21.5635   -3.4541   25.7741 F   0  0  0  0  0  0
  -30.0172  -13.3541   20.4198 N   0  0  0  0  0  0
  -26.2973  -12.9364   20.3309 N   0  0  0  0  0  0
  -25.9313  -11.6521   20.5753 N   0  0  0  0  0  0
  -22.0479  -12.8234   22.0407 N   0  0  0  0  0  0
  -25.4261  -15.1910   20.4123 N   0  0  0  0  0  0
  -31.8839  -14.6005   20.1773 O   0  0  0  0  0  0
  -21.6640   -6.8883   21.4240 O   0  0  0  0  0  0
  -22.3535  -14.5548   20.6703 O   0  0  0  0  0  0
  -24.6185  -31.8666   23.2066 C   0  0  0  0  0  0
  -25.9071  -32.4804   23.8380 C   0  0  1  0  0  0
  -27.2306  -27.3964   20.0972 C   0  0  0  0  0  0
  -25.5917  -33.8608   24.2303 N   0  0  0  0  0  0
  -23.4066  -30.4894   21.5489 C   0  0  2  0  0  0
  -24.8498  -28.9491   20.1165 C   0  0  0  0  0  0
  -22.7415  -29.4660   22.4981 C   0  0  0  0  0  0
  -18.0286  -28.1369   22.8473 C   0  0  0  0  0  0
  -24.1495  -36.7307   23.2640 C   0  0  0  0  0  0
  -25.9395  -30.8214   21.3631 C   0  0  0  0  0  0
  -26.0132  -29.4530   20.7092 C   0  0  0  0  0  0
  -27.2028  -28.6838   20.6934 C   0  0  0  0  0  0
  -26.0367  -26.9091   19.5157 C   0  0  0  0  0  0
  -24.8581  -27.6782   19.5195 C   0  0  0  0  0  0
  -23.6147  -29.8210   20.1649 C   0  0  0  0  0  0
  -25.4113  -36.3098   24.0334 C   0  0  1  0  0  0
  -20.5870  -28.3680   23.1328 C   0  0  2  0  0  0
  -20.6777  -26.9404   22.5466 C   0  0  0  0  0  0
  -19.5785  -26.6363   21.5222 C   0  0  0  0  0  0
  -18.1950  -26.7898   22.1622 C   0  0  0  0  0  0
  -19.1523  -28.8842   23.2896 C   0  0  0  0  0  0
  -18.9439  -30.1451   23.8899 C   0  0  0  0  0  0
  -17.6436  -30.6584   24.0545 C   0  0  0  0  0  0
  -25.9043  -34.9465   23.5111 C   0  0  0  0  0  0
  -16.5338  -29.9061   23.6320 C   0  0  0  0  0  0
  -16.7268  -28.6482   23.0326 C   0  0  0  0  0  0
  -26.4478  -31.6599   25.0730 C   0  0  0  0  0  0
  -25.3735  -31.3728   26.1474 C   0  0  0  0  0  0
  -27.0321  -30.3041   24.6139 C   0  0  0  0  0  0
  -27.6053  -32.4329   25.7492 C   0  0  0  0  0  0
  -27.5576  -37.1806   24.8463 C   0  0  0  0  0  0
  -21.4139  -29.3040   22.3715 N   0  0  0  0  0  0
  -26.4290  -37.3786   23.9406 N   0  0  0  0  0  0
  -24.6737  -31.0743   22.0976 N   0  0  0  0  0  0
  -23.4166  -28.8210   23.3046 O   0  0  0  0  0  0
  -28.4164  -26.6752   20.1130 O   0  0  0  0  0  0
  -26.5608  -34.8918   22.4672 O   0  0  0  0  0  0
  -23.5368  -32.1436   23.7436 O   0  0  0  0  0  0
  -28.5054  -17.6993   19.2649 C   0  0  0  0  0  0
  -27.6818  -19.9892   19.1953 C   0  0  0  0  0  0
  -29.3680  -18.0052   20.3414 C   0  0  0  0  0  0
  -29.3461  -19.3484   20.8711 C   0  0  0  0  0  0
  -27.6583  -18.6702   18.7103 C   0  0  0  0  0  0
  -28.5275  -20.3577   20.2679 C   0  0  0  0  0  0
  -30.3705  -16.9278   20.7436 C   0  0  0  0  0  0
  -29.3415  -19.5742   23.3915 C   0  0  0  0  0  0
  -30.1535  -19.7605   22.1045 C   0  0  0  0  0  0
  -28.3379  -24.1651   20.5273 C   0  0  0  0  0  0
  -28.5111  -25.3518   19.5311 C   0  0  0  0  0  0
  -28.3469  -22.7633   19.8447 C   0  0  0  0  0  0
  -26.8085  -18.3266   17.6616 N   0  0  0  0  0  0
  -29.9431  -15.6369   20.7403 N   0  0  0  0  0  0
  -31.5370  -17.2538   20.9864 O   0  0  0  0  0  0
  -28.5452  -21.6631   20.7630 O   0  0  0  0  0  0
  -31.4622  -12.4092   19.1437 H   0  0  0  0  0  0
  -30.3067  -11.3334   19.8760 H   0  0  0  0  0  0
  -29.7461  -11.7463   17.4560 H   0  0  0  0  0  0
  -29.6589  -13.4649   17.7508 H   0  0  0  0  0  0
  -27.8420  -11.2939   18.8504 H   0  0  0  0  0  0
  -27.3671  -12.5910   17.7867 H   0  0  0  0  0  0
  -27.6707  -14.2503   19.5216 H   0  0  0  0  0  0
  -28.6803  -12.0518   21.3947 H   0  0  0  0  0  0
  -28.4628  -13.7266   21.8271 H   0  0  0  0  0  0
  -25.2769   -9.5690   22.4761 H   0  0  0  0  0  0
  -24.0004   -7.4637   22.7478 H   0  0  0  0  0  0
  -21.0842   -8.8779   19.8959 H   0  0  0  0  0  0
  -22.3698  -10.9681   19.6169 H   0  0  0  0  0  0
  -21.2000   -7.6148   23.9720 H   0  0  0  0  0  0
  -21.1487   -6.0520   25.9078 H   0  0  0  0  0  0
  -22.0597   -2.7612   23.2844 H   0  0  0  0  0  0
  -22.4085  -11.9894   22.4798 H   0  0  0  0  0  0
  -21.1103  -13.1277   22.2613 H   0  0  0  0  0  0
  -24.6561  -15.8405   20.5277 H   0  0  0  0  0  0
  -26.2702  -15.6397   20.0837 H   0  0  0  0  0  0
  -26.7153  -32.5501   23.1151 H   0  0  0  0  0  0
  -25.0096  -33.9781   25.0467 H   0  0  0  0  0  0
  -22.6978  -31.3077   21.4086 H   0  0  0  0  0  0
  -23.3751  -35.9647   23.3308 H   0  0  0  0  0  0
  -24.3590  -36.8910   22.2053 H   0  0  0  0  0  0
  -23.7257  -37.6518   23.6651 H   0  0  0  0  0  0
  -26.0600  -31.5867   20.5954 H   0  0  0  0  0  0
  -26.8253  -30.8701   21.9846 H   0  0  0  0  0  0
  -28.1021  -29.0763   21.1471 H   0  0  0  0  0  0
  -25.9767  -25.9327   19.0616 H   0  0  0  0  0  0
  -23.9588  -27.2793   19.0699 H   0  0  0  0  0  0
  -23.7240  -30.5943   19.4046 H   0  0  0  0  0  0
  -22.7373  -29.2419   19.8708 H   0  0  0  0  0  0
  -25.1292  -36.1955   25.0829 H   0  0  0  0  0  0
  -20.9954  -28.3282   24.1458 H   0  0  0  0  0  0
  -20.5680  -26.2293   23.3668 H   0  0  0  0  0  0
  -21.6663  -26.7453   22.1295 H   0  0  0  0  0  0
  -19.6966  -25.6276   21.1251 H   0  0  0  0  0  0
  -19.6754  -27.3164   20.6753 H   0  0  0  0  0  0
  -17.4230  -26.6632   21.4017 H   0  0  0  0  0  0
  -18.0341  -26.0056   22.9042 H   0  0  0  0  0  0
  -19.7910  -30.7273   24.2279 H   0  0  0  0  0  0
  -17.4994  -31.6276   24.5123 H   0  0  0  0  0  0
  -15.5334  -30.2940   23.7659 H   0  0  0  0  0  0
  -15.8684  -28.0797   22.7022 H   0  0  0  0  0  0
  -24.5895  -30.7090   25.7814 H   0  0  0  0  0  0
  -24.8944  -32.2892   26.4931 H   0  0  0  0  0  0
  -25.8074  -30.8891   27.0233 H   0  0  0  0  0  0
  -26.2881  -29.6798   24.1179 H   0  0  0  0  0  0
  -27.4068  -29.7289   25.4615 H   0  0  0  0  0  0
  -27.8723  -30.4364   23.9321 H   0  0  0  0  0  0
  -27.2672  -33.3618   26.2105 H   0  0  0  0  0  0
  -28.3843  -32.6906   25.0304 H   0  0  0  0  0  0
  -28.0756  -31.8442   26.5379 H   0  0  0  0  0  0
  -28.2602  -38.0097   24.7499 H   0  0  0  0  0  0
  -28.1066  -36.2624   24.6299 H   0  0  0  0  0  0
  -27.2302  -37.1471   25.8872 H   0  0  0  0  0  0
  -20.9308  -29.8735   21.6912 H   0  0  0  0  0  0
  -26.0174  -38.2869   24.1385 H   0  0  0  0  0  0
  -28.5209  -16.7100   18.8286 H   0  0  0  0  0  0
  -27.0174  -20.7080   18.7420 H   0  0  0  0  0  0
  -28.4462  -20.1963   23.3801 H   0  0  0  0  0  0
  -29.9265  -19.8570   24.2668 H   0  0  0  0  0  0
  -29.0273  -18.5380   23.5180 H   0  0  0  0  0  0
  -30.4475  -20.8073   22.0167 H   0  0  0  0  0  0
  -31.0993  -19.2366   22.1928 H   0  0  0  0  0  0
  -27.4067  -24.2837   21.0808 H   0  0  0  0  0  0
  -29.1387  -24.2100   21.2654 H   0  0  0  0  0  0
  -27.8772  -25.2280   18.6541 H   0  0  0  0  0  0
  -29.5209  -25.2833   19.1250 H   0  0  0  0  0  0
  -29.1462  -22.7241   19.1033 H   0  0  0  0  0  0
  -27.4072  -22.6703   19.3034 H   0  0  0  0  0  0
  -26.5923  -17.3469   17.5076 H   0  0  0  0  0  0
  -26.0206  -18.9347   17.4602 H   0  0  0  0  0  0
  -28.9495  -15.4962   20.7621 H   0  0  0  0  0  0
  1 25  1  0  0  0
  1 30  2  0  0  0
  1 84  1  0  0  0
  2  3  1  0  0  0
  2 25  1  0  0  0
  2 87  1  0  0  0
  2 88  1  0  0  0
  3  4  1  0  0  0
  3 89  1  0  0  0
  3 90  1  0  0  0
  4  5  1  0  0  0
  4 91  1  0  0  0
  4 92  1  0  0  0
  5  6  1  0  0  0
  5 26  1  0  0  0
  5 93  1  0  0  0
  6 25  1  0  0  0
  6 94  1  0  0  0
  6 95  1  0  0  0
  7  8  2  0  0  0
  7 26  1  0  0  0
  7 29  1  0  0  0
  8  9  1  0  0  0
  8 22  1  0  0  0
  9 10  1  0  0  0
  9 27  2  0  0  0
 10 11  2  0  0  0
 10 15  1  0  0  0
 11 12  1  0  0  0
 11 96  1  0  0  0
 12 13  2  0  0  0
 12 97  1  0  0  0
 13 14  1  0  0  0
 13 31  1  0  0  0
 14 15  2  0  0  0
 14 98  1  0  0  0
 15 99  1  0  0  0
 16 17  2  0  0  0
 16 21  1  0  0  0
 16 31  1  0  0  0
 17 18  1  0  0  0
 17100  1  0  0  0
 18 19  2  0  0  0
 18101  1  0  0  0
 19 20  1  0  0  0
 19 24  1  0  0  0
 20 21  2  0  0  0
 20102  1  0  0  0
 21 23  1  0  0  0
 22 28  1  0  0  0
 22 32  2  0  0  0
 26 27  1  0  0  0
 28103  1  0  0  0
 28104  1  0  0  0
 29105  1  0  0  0
 29106  1  0  0  0
 33 34  1  0  0  0
 33 66  1  0  0  0
 33 70  2  0  0  0
 34 36  1  0  0  0
 34 59  1  0  0  0
 34107  1  0  0  0
 35 44  2  0  0  0
 35 45  1  0  0  0
 35 68  1  0  0  0
 36 56  1  0  0  0
 36108  1  0  0  0
 37 39  1  0  0  0
 37 47  1  0  0  0
 37 66  1  0  0  0
 37109  1  0  0  0
 38 43  2  0  0  0
 38 46  1  0  0  0
 38 47  1  0  0  0
 39 64  1  0  0  0
 39 67  2  0  0  0
 40 52  1  0  0  0
 40 53  2  0  0  0
 40 58  1  0  0  0
 41110  1  0  0  0
 41111  1  0  0  0
 41112  1  0  0  0
 41 48  1  0  0  0
 42 43  1  0  0  0
 42 66  1  0  0  0
 42113  1  0  0  0
 42114  1  0  0  0
 43 44  1  0  0  0
 44115  1  0  0  0
 45 46  2  0  0  0
 45116  1  0  0  0
 46117  1  0  0  0
 47118  1  0  0  0
 47119  1  0  0  0
 48 56  1  0  0  0
 48 65  1  0  0  0
 48120  1  0  0  0
 49 50  1  0  0  0
 49 53  1  0  0  0
 49 64  1  0  0  0
 49121  1  0  0  0
 50 51  1  0  0  0
 50122  1  0  0  0
 50123  1  0  0  0
 51 52  1  0  0  0
 51124  1  0  0  0
 51125  1  0  0  0
 52126  1  0  0  0
 52127  1  0  0  0
 53 54  1  0  0  0
 54 55  2  0  0  0
 54128  1  0  0  0
 55 57  1  0  0  0
 55129  1  0  0  0
 56 69  2  0  0  0
 57 58  2  0  0  0
 57130  1  0  0  0
 58131  1  0  0  0
 59 60  1  0  0  0
 59 61  1  0  0  0
 59 62  1  0  0  0
 60132  1  0  0  0
 60133  1  0  0  0
 60134  1  0  0  0
 61135  1  0  0  0
 61136  1  0  0  0
 61137  1  0  0  0
 62138  1  0  0  0
 62139  1  0  0  0
 62140  1  0  0  0
 63 65  1  0  0  0
 63141  1  0  0  0
 63142  1  0  0  0
 63143  1  0  0  0
 64144  1  0  0  0
 65145  1  0  0  0
 68 81  1  0  0  0
 71 73  2  0  0  0
 71 75  1  0  0  0
 71146  1  0  0  0
 72 75  2  0  0  0
 72 76  1  0  0  0
 72147  1  0  0  0
 73 74  1  0  0  0
 73 77  1  0  0  0
 74 76  2  0  0  0
 74 79  1  0  0  0
 75 83  1  0  0  0
 76 86  1  0  0  0
 77 84  1  0  0  0
 77 85  2  0  0  0
 78 79  1  0  0  0
 78148  1  0  0  0
 78149  1  0  0  0
 78150  1  0  0  0
 79151  1  0  0  0
 79152  1  0  0  0
 80 81  1  0  0  0
 80 82  1  0  0  0
 80153  1  0  0  0
 80154  1  0  0  0
 81155  1  0  0  0
 81156  1  0  0  0
 82 86  1  0  0  0
 82157  1  0  0  0
 82158  1  0  0  0
 83159  1  0  0  0
 83160  1  0  0  0
 84161  1  0  0  0
M  ISO  4   1 100  68 101  81 101  84 100
M  END
> <chiral flag>
0

> <version>
0

> <s_m_source_file>
/data/baiqing/PycharmProjects/Reinvent-master-3.2/result/LINK_invent/BTK/process_docking_weight1_custom_product_contain_oxygen_bond_distance_aromatic_linkinvent_7_9_3/rearranged_h_0109.sdf

> <i_m_source_file_index>
74

> <r_mmod_Potential_Energy-OPLS-2005>
-108.45337677002

> <r_mmod_Stretch_Energy-OPLS-2005>
51.3648223876953

> <r_mmod_Bend_Energy-OPLS-2005>
120.372909545898

> <r_mmod_Torsional_Energy-OPLS-2005>
237.071685791016

> <r_mmod_Improper_Torsional_Energy-OPLS-2005>
10.4557371139526

> <r_mmod_Van_der_Waal_Energy-OPLS-2005>
162.185562133789

> <r_mmod_Electrostatic_Energy-OPLS-2005>
-483.534606933594

> <r_mmod_Solvation_Energy-OPLS-2005>
-230.695495605469

> <b_mmod_Minimization_Converged-OPLS-2005>
0

> <r_mmod_RMS_Derivative-OPLS-2005>
1.57972192764282

$$$$
74
                    3D
 Structure written by MMmdl.
159167  0  0  1  0            999 V2000
  -30.7311  -14.4685   20.5795 C   0  0  0  0  0  0
  -30.4107  -12.3122   19.4206 C   0  0  0  0  0  0
  -29.4860  -12.4970   18.2026 C   0  0  0  0  0  0
  -28.0102  -12.3536   18.6207 C   0  0  0  0  0  0
  -27.6536  -13.2102   19.8653 C   0  0  2  0  0  0
  -28.6972  -13.0262   20.9893 C   0  0  0  0  0  0
  -25.2563  -13.8173   20.5684 C   0  0  0  0  0  0
  -24.1825  -13.0444   20.9193 C   0  0  0  0  0  0
  -24.6384  -11.6913   20.8749 C   0  0  0  0  0  0
  -23.9056  -10.4298   21.0411 C   0  0  0  0  0  0
  -24.3615   -9.4213   21.9185 C   0  0  0  0  0  0
  -23.6293   -8.2246   22.0753 C   0  0  0  0  0  0
  -22.4276   -8.0283   21.3544 C   0  0  0  0  0  0
  -21.9908   -9.0256   20.4646 C   0  0  0  0  0  0
  -22.7232  -10.2137   20.3056 C   0  0  0  0  0  0
  -21.6853   -6.0738   22.5281 C   0  0  0  0  0  0
  -21.4011   -6.5640   23.8215 C   0  0  0  0  0  0
  -21.3659   -5.6792   24.9178 C   0  0  0  0  0  0
  -21.6045   -4.3056   24.7228 C   0  0  0  0  0  0
  -21.8819   -3.8147   23.4348 C   0  0  0  0  0  0
  -21.9194   -4.6965   22.3405 C   0  0  0  0  0  0
  -22.7850  -13.5242   21.1855 C   0  0  0  0  0  0
  -22.1663   -4.2151   21.0981 F   0  0  0  0  0  0
  -21.5630   -3.4538   25.7738 F   0  0  0  0  0  0
  -30.0209  -13.3189   20.4209 N   0  0  0  0  0  0
  -26.2984  -12.9345   20.3336 N   0  0  0  0  0  0
  -25.9308  -11.6505   20.5770 N   0  0  0  0  0  0
  -22.0492  -12.8230   22.0407 N   0  0  0  0  0  0
  -25.4278  -15.1892   20.4090 N   0  0  0  0  0  0
  -31.8836  -14.5723   20.1485 O   0  0  0  0  0  0
  -21.6640   -6.8880   21.4242 O   0  0  0  0  0  0
  -22.3539  -14.5554   20.6712 O   0  0  0  0  0  0
  -24.6155  -31.8671   23.2113 C   0  0  0  0  0  0
  -25.9054  -32.4810   23.8400 C   0  0  1  0  0  0
  -27.2290  -27.4247   20.0868 C   0  0  0  0  0  0
  -25.5922  -33.8612   24.2338 N   0  0  0  0  0  0
  -23.4016  -30.4920   21.5527 C   0  0  2  0  0  0
  -24.8433  -28.9567   20.1157 C   0  0  0  0  0  0
  -22.7409  -29.4655   22.5004 C   0  0  0  0  0  0
  -18.0274  -28.1359   22.8486 C   0  0  0  0  0  0
  -24.1486  -36.7303   23.2639 C   0  0  0  0  0  0
  -25.9320  -30.8279   21.3659 C   0  0  0  0  0  0
  -26.0043  -29.4627   20.7110 C   0  0  0  0  0  0
  -27.1965  -28.7034   20.6938 C   0  0  0  0  0  0
  -26.0407  -26.9296   19.4986 C   0  0  0  0  0  0
  -24.8563  -27.6893   19.5100 C   0  0  0  0  0  0
  -23.6073  -29.8259   20.1663 C   0  0  0  0  0  0
  -25.4108  -36.3110   24.0344 C   0  0  1  0  0  0
  -20.5862  -28.3645   23.1317 C   0  0  2  0  0  0
  -20.6759  -26.9378   22.5421 C   0  0  0  0  0  0
  -19.5749  -26.6372   21.5203 C   0  0  0  0  0  0
  -18.1922  -26.7914   22.1603 C   0  0  0  0  0  0
  -19.1521  -28.8821   23.2896 C   0  0  0  0  0  0
  -18.9449  -30.1428   23.8902 C   0  0  0  0  0  0
  -17.6451  -30.6568   24.0558 C   0  0  0  0  0  0
  -25.9040  -34.9470   23.5136 C   0  0  0  0  0  0
  -16.5341  -29.9066   23.6324 C   0  0  0  0  0  0
  -16.7263  -28.6480   23.0350 C   0  0  0  0  0  0
  -26.4490  -31.6591   25.0726 C   0  0  0  0  0  0
  -25.3773  -31.3677   26.1486 C   0  0  0  0  0  0
  -27.0322  -30.3033   24.6100 C   0  0  0  0  0  0
  -27.6078  -32.4305   25.7470 C   0  0  0  0  0  0
  -27.5586  -37.1802   24.8468 C   0  0  0  0  0  0
  -21.4139  -29.3016   22.3732 N   0  0  0  0  0  0
  -26.4295  -37.3793   23.9417 N   0  0  0  0  0  0
  -24.6680  -31.0772   22.1009 N   0  0  0  0  0  0
  -23.4180  -28.8202   23.3048 O   0  0  0  0  0  0
  -28.4204  -26.7215   20.0966 O   0  0  0  0  0  0
  -26.5590  -34.8924   22.4688 O   0  0  0  0  0  0
  -23.5351  -32.1422   23.7517 O   0  0  0  0  0  0
  -28.7467  -19.8149   20.0356 C   0  0  0  0  0  0
  -28.8186  -19.9768   22.4496 C   0  0  0  0  0  0
  -29.7148  -17.9620   21.3509 C   0  0  0  0  0  0
  -29.3350  -18.5249   20.0955 C   0  0  0  0  0  0
  -29.4198  -18.6995   22.5337 C   0  0  0  0  0  0
  -28.5088  -20.5640   21.2081 C   0  0  0  0  0  0
  -30.5821  -16.7169   21.4173 C   0  0  0  0  0  0
  -28.1556  -24.2894   20.5636 C   0  0  0  0  0  0
  -29.6020  -17.8001   18.7813 C   0  0  0  0  0  0
  -29.7627  -18.1649   23.9187 C   0  0  0  0  0  0
  -28.3397  -22.8142   20.1333 C   0  0  0  0  0  0
  -28.4947  -25.3935   19.5354 C   0  0  0  0  0  0
  -27.9683  -21.8628   21.1916 N   0  0  0  0  0  0
  -30.0433  -15.5360   21.0452 N   0  0  0  0  0  0
  -31.7485  -16.8533   21.8057 O   0  0  0  0  0  0
  -27.7678  -24.5618   21.7069 O   0  0  0  0  0  0
  -31.4552  -12.3947   19.1150 H   0  0  0  0  0  0
  -30.3040  -11.3090   19.8366 H   0  0  0  0  0  0
  -29.7285  -11.7657   17.4304 H   0  0  0  0  0  0
  -29.6490  -13.4800   17.7575 H   0  0  0  0  0  0
  -27.8301  -11.2992   18.8339 H   0  0  0  0  0  0
  -27.3549  -12.6089   17.7871 H   0  0  0  0  0  0
  -27.6877  -14.2518   19.5461 H   0  0  0  0  0  0
  -28.6769  -12.0022   21.3655 H   0  0  0  0  0  0
  -28.4637  -13.6599   21.8460 H   0  0  0  0  0  0
  -25.2764   -9.5692   22.4754 H   0  0  0  0  0  0
  -24.0009   -7.4635   22.7468 H   0  0  0  0  0  0
  -21.0842   -8.8774   19.8950 H   0  0  0  0  0  0
  -22.3695  -10.9676   19.6164 H   0  0  0  0  0  0
  -21.1996   -7.6148   23.9720 H   0  0  0  0  0  0
  -21.1482   -6.0522   25.9081 H   0  0  0  0  0  0
  -22.0597   -2.7611   23.2847 H   0  0  0  0  0  0
  -22.4104  -11.9882   22.4783 H   0  0  0  0  0  0
  -21.1114  -13.1258   22.2625 H   0  0  0  0  0  0
  -24.6589  -15.8414   20.5165 H   0  0  0  0  0  0
  -26.2727  -15.6304   20.0698 H   0  0  0  0  0  0
  -26.7119  -32.5509   23.1156 H   0  0  0  0  0  0
  -25.0143  -33.9777   25.0534 H   0  0  0  0  0  0
  -22.6902  -31.3089   21.4163 H   0  0  0  0  0  0
  -23.3759  -35.9626   23.3305 H   0  0  0  0  0  0
  -24.3589  -36.8908   22.2053 H   0  0  0  0  0  0
  -23.7222  -37.6504   23.6642 H   0  0  0  0  0  0
  -26.0525  -31.5960   20.6005 H   0  0  0  0  0  0
  -26.8168  -30.8736   21.9886 H   0  0  0  0  0  0
  -28.0949  -29.0944   21.1507 H   0  0  0  0  0  0
  -25.9937  -25.9590   19.0298 H   0  0  0  0  0  0
  -23.9603  -27.2913   19.0537 H   0  0  0  0  0  0
  -23.7157  -30.6007   19.4067 H   0  0  0  0  0  0
  -22.7297  -29.2482   19.8710 H   0  0  0  0  0  0
  -25.1280  -36.1979   25.0836 H   0  0  0  0  0  0
  -20.9948  -28.3200   24.1437 H   0  0  0  0  0  0
  -20.5636  -26.2250   23.3605 H   0  0  0  0  0  0
  -21.6634  -26.7408   22.1227 H   0  0  0  0  0  0
  -19.6912  -25.6287   21.1220 H   0  0  0  0  0  0
  -19.6705  -27.3190   20.6737 H   0  0  0  0  0  0
  -17.4204  -26.6678   21.3989 H   0  0  0  0  0  0
  -18.0308  -26.0036   22.8971 H   0  0  0  0  0  0
  -19.7928  -30.7236   24.2272 H   0  0  0  0  0  0
  -17.5009  -31.6252   24.5150 H   0  0  0  0  0  0
  -15.5341  -30.2970   23.7647 H   0  0  0  0  0  0
  -15.8661  -28.0799   22.7068 H   0  0  0  0  0  0
  -24.5989  -30.6961   25.7849 H   0  0  0  0  0  0
  -24.8913  -32.2813   26.4918 H   0  0  0  0  0  0
  -25.8162  -30.8896   27.0253 H   0  0  0  0  0  0
  -26.2852  -29.6780   24.1199 H   0  0  0  0  0  0
  -27.4143  -29.7287   25.4548 H   0  0  0  0  0  0
  -27.8669  -30.4358   23.9213 H   0  0  0  0  0  0
  -27.2715  -33.3603   26.2069 H   0  0  0  0  0  0
  -28.3867  -32.6860   25.0274 H   0  0  0  0  0  0
  -28.0771  -31.8416   26.5363 H   0  0  0  0  0  0
  -28.2608  -38.0096   24.7524 H   0  0  0  0  0  0
  -28.1076  -36.2631   24.6279 H   0  0  0  0  0  0
  -27.2311  -37.1432   25.8873 H   0  0  0  0  0  0
  -20.9298  -29.8751   21.6965 H   0  0  0  0  0  0
  -26.0190  -38.2870   24.1427 H   0  0  0  0  0  0
  -28.4910  -20.2368   19.0736 H   0  0  0  0  0  0
  -28.6250  -20.5293   23.3589 H   0  0  0  0  0  0
  -29.3084  -18.4043   17.9224 H   0  0  0  0  0  0
  -29.0376  -16.8685   18.7311 H   0  0  0  0  0  0
  -30.6616  -17.5685   18.6676 H   0  0  0  0  0  0
  -29.2815  -18.7514   24.7023 H   0  0  0  0  0  0
  -30.8386  -18.2053   24.0908 H   0  0  0  0  0  0
  -29.4295  -17.1336   24.0381 H   0  0  0  0  0  0
  -29.3823  -22.6680   19.8469 H   0  0  0  0  0  0
  -27.7328  -22.6322   19.2458 H   0  0  0  0  0  0
  -27.8930  -25.2846   18.6345 H   0  0  0  0  0  0
  -29.5247  -25.2346   19.2185 H   0  0  0  0  0  0
  -27.8607  -22.3262   22.0925 H   0  0  0  0  0  0
  -29.0402  -15.4709   21.0508 H   0  0  0  0  0  0
  1 25  1  0  0  0
  1 30  2  0  0  0
  1 84  1  0  0  0
  2  3  1  0  0  0
  2 25  1  0  0  0
  2 87  1  0  0  0
  2 88  1  0  0  0
  3  4  1  0  0  0
  3 89  1  0  0  0
  3 90  1  0  0  0
  4  5  1  0  0  0
  4 91  1  0  0  0
  4 92  1  0  0  0
  5  6  1  0  0  0
  5 26  1  0  0  0
  5 93  1  0  0  0
  6 25  1  0  0  0
  6 94  1  0  0  0
  6 95  1  0  0  0
  7  8  2  0  0  0
  7 26  1  0  0  0
  7 29  1  0  0  0
  8  9  1  0  0  0
  8 22  1  0  0  0
  9 10  1  0  0  0
  9 27  2  0  0  0
 10 11  2  0  0  0
 10 15  1  0  0  0
 11 12  1  0  0  0
 11 96  1  0  0  0
 12 13  2  0  0  0
 12 97  1  0  0  0
 13 14  1  0  0  0
 13 31  1  0  0  0
 14 15  2  0  0  0
 14 98  1  0  0  0
 15 99  1  0  0  0
 16 17  2  0  0  0
 16 21  1  0  0  0
 16 31  1  0  0  0
 17 18  1  0  0  0
 17100  1  0  0  0
 18 19  2  0  0  0
 18101  1  0  0  0
 19 20  1  0  0  0
 19 24  1  0  0  0
 20 21  2  0  0  0
 20102  1  0  0  0
 21 23  1  0  0  0
 22 28  1  0  0  0
 22 32  2  0  0  0
 26 27  1  0  0  0
 28103  1  0  0  0
 28104  1  0  0  0
 29105  1  0  0  0
 29106  1  0  0  0
 33 34  1  0  0  0
 33 66  1  0  0  0
 33 70  2  0  0  0
 34 36  1  0  0  0
 34 59  1  0  0  0
 34107  1  0  0  0
 35 44  2  0  0  0
 35 45  1  0  0  0
 35 68  1  0  0  0
 36 56  1  0  0  0
 36108  1  0  0  0
 37 39  1  0  0  0
 37 47  1  0  0  0
 37 66  1  0  0  0
 37109  1  0  0  0
 38 43  2  0  0  0
 38 46  1  0  0  0
 38 47  1  0  0  0
 39 64  1  0  0  0
 39 67  2  0  0  0
 40 52  1  0  0  0
 40 53  2  0  0  0
 40 58  1  0  0  0
 41110  1  0  0  0
 41111  1  0  0  0
 41112  1  0  0  0
 41 48  1  0  0  0
 42 43  1  0  0  0
 42 66  1  0  0  0
 42113  1  0  0  0
 42114  1  0  0  0
 43 44  1  0  0  0
 44115  1  0  0  0
 45 46  2  0  0  0
 45116  1  0  0  0
 46117  1  0  0  0
 47118  1  0  0  0
 47119  1  0  0  0
 48 56  1  0  0  0
 48 65  1  0  0  0
 48120  1  0  0  0
 49 50  1  0  0  0
 49 53  1  0  0  0
 49 64  1  0  0  0
 49121  1  0  0  0
 50 51  1  0  0  0
 50122  1  0  0  0
 50123  1  0  0  0
 51 52  1  0  0  0
 51124  1  0  0  0
 51125  1  0  0  0
 52126  1  0  0  0
 52127  1  0  0  0
 53 54  1  0  0  0
 54 55  2  0  0  0
 54128  1  0  0  0
 55 57  1  0  0  0
 55129  1  0  0  0
 56 69  2  0  0  0
 57 58  2  0  0  0
 57130  1  0  0  0
 58131  1  0  0  0
 59 60  1  0  0  0
 59 61  1  0  0  0
 59 62  1  0  0  0
 60132  1  0  0  0
 60133  1  0  0  0
 60134  1  0  0  0
 61135  1  0  0  0
 61136  1  0  0  0
 61137  1  0  0  0
 62138  1  0  0  0
 62139  1  0  0  0
 62140  1  0  0  0
 63 65  1  0  0  0
 63141  1  0  0  0
 63142  1  0  0  0
 63143  1  0  0  0
 64144  1  0  0  0
 65145  1  0  0  0
 68 82  1  0  0  0
 71 74  2  0  0  0
 71 76  1  0  0  0
 71146  1  0  0  0
 72 75  1  0  0  0
 72 76  2  0  0  0
 72147  1  0  0  0
 73 74  1  0  0  0
 73 75  2  0  0  0
 73 77  1  0  0  0
 74 79  1  0  0  0
 75 80  1  0  0  0
 76 83  1  0  0  0
 77 84  1  0  0  0
 77 85  2  0  0  0
 78 81  1  0  0  0
 78 82  1  0  0  0
 78 86  2  0  0  0
 79148  1  0  0  0
 79149  1  0  0  0
 79150  1  0  0  0
 80151  1  0  0  0
 80152  1  0  0  0
 80153  1  0  0  0
 81 83  1  0  0  0
 81154  1  0  0  0
 81155  1  0  0  0
 82156  1  0  0  0
 82157  1  0  0  0
 83158  1  0  0  0
 84159  1  0  0  0
M  ISO  4   1 100  68 101  82 101  84 100
M  END
> <chiral flag>
0

> <version>
0

> <s_m_source_file>
/data/baiqing/PycharmProjects/Reinvent-master-3.2/result/LINK_invent/BTK/process_docking_weight1_custom_product_contain_oxygen_bond_distance_aromatic_linkinvent_7_9_3/rearranged_h_0109.sdf

> <i_m_source_file_index>
75

> <r_mmod_Potential_Energy-OPLS-2005>
-18.5684795379639

> <r_mmod_Stretch_Energy-OPLS-2005>
41.8559722900391

> <r_mmod_Bend_Energy-OPLS-2005>
108.769569396973

> <r_mmod_Torsional_Energy-OPLS-2005>
232.118560791016

> <r_mmod_Improper_Torsional_Energy-OPLS-2005>
8.40288734436035

> <r_mmod_Van_der_Waal_Energy-OPLS-2005>
161.284805297852

> <r_mmod_Electrostatic_Energy-OPLS-2005>
-336.551879882812

> <r_mmod_Solvation_Energy-OPLS-2005>
-250.652740478516

> <b_mmod_Minimization_Converged-OPLS-2005>
0

> <r_mmod_RMS_Derivative-OPLS-2005>
0.845361471176147

$$$$
75
                    3D
 Structure written by MMmdl.
164173  0  0  1  0            999 V2000
  -30.7564  -14.4556   20.5581 C   0  0  0  0  0  0
  -30.3977  -12.2945   19.4246 C   0  0  0  0  0  0
  -29.4845  -12.4900   18.1999 C   0  0  0  0  0  0
  -28.0063  -12.3571   18.6145 C   0  0  0  0  0  0
  -27.6520  -13.2130   19.8611 C   0  0  2  0  0  0
  -28.6973  -13.0432   20.9860 C   0  0  0  0  0  0
  -25.2571  -13.8161   20.5688 C   0  0  0  0  0  0
  -24.1837  -13.0425   20.9175 C   0  0  0  0  0  0
  -24.6401  -11.6894   20.8716 C   0  0  0  0  0  0
  -23.9065  -10.4281   21.0378 C   0  0  0  0  0  0
  -24.3611   -9.4205   21.9163 C   0  0  0  0  0  0
  -23.6286   -8.2238   22.0754 C   0  0  0  0  0  0
  -22.4269   -8.0278   21.3548 C   0  0  0  0  0  0
  -21.9910   -9.0241   20.4646 C   0  0  0  0  0  0
  -22.7234  -10.2115   20.3044 C   0  0  0  0  0  0
  -21.6854   -6.0751   22.5290 C   0  0  0  0  0  0
  -21.4016   -6.5644   23.8222 C   0  0  0  0  0  0
  -21.3660   -5.6797   24.9179 C   0  0  0  0  0  0
  -21.6032   -4.3062   24.7230 C   0  0  0  0  0  0
  -21.8816   -3.8164   23.4360 C   0  0  0  0  0  0
  -21.9194   -4.6982   22.3409 C   0  0  0  0  0  0
  -22.7866  -13.5239   21.1851 C   0  0  0  0  0  0
  -22.1661   -4.2166   21.0982 F   0  0  0  0  0  0
  -21.5625   -3.4542   25.7739 F   0  0  0  0  0  0
  -30.0230  -13.3166   20.4154 N   0  0  0  0  0  0
  -26.2995  -12.9349   20.3319 N   0  0  0  0  0  0
  -25.9330  -11.6499   20.5750 N   0  0  0  0  0  0
  -22.0521  -12.8202   22.0394 N   0  0  0  0  0  0
  -25.4266  -15.1887   20.4135 N   0  0  0  0  0  0
  -31.9151  -14.5202   20.1403 O   0  0  0  0  0  0
  -21.6642   -6.8876   21.4250 O   0  0  0  0  0  0
  -22.3556  -14.5549   20.6734 O   0  0  0  0  0  0
  -24.6163  -31.8644   23.2088 C   0  0  0  0  0  0
  -25.9050  -32.4800   23.8402 C   0  0  1  0  0  0
  -27.2378  -27.4189   20.1094 C   0  0  0  0  0  0
  -25.5874  -33.8589   24.2328 N   0  0  0  0  0  0
  -23.4077  -30.4880   21.5450 C   0  0  2  0  0  0
  -24.8589  -28.9489   20.1166 C   0  0  0  0  0  0
  -22.7414  -29.4662   22.4951 C   0  0  0  0  0  0
  -18.0264  -28.1389   22.8492 C   0  0  0  0  0  0
  -24.1475  -36.7319   23.2643 C   0  0  0  0  0  0
  -25.9373  -30.8281   21.3640 C   0  0  0  0  0  0
  -26.0180  -29.4586   20.7168 C   0  0  0  0  0  0
  -27.2158  -28.7019   20.7081 C   0  0  0  0  0  0
  -26.0690  -26.9350   19.4893 C   0  0  0  0  0  0
  -24.8782  -27.6845   19.5020 C   0  0  0  0  0  0
  -23.6198  -29.8169   20.1621 C   0  0  0  0  0  0
  -25.4080  -36.3084   24.0353 C   0  0  1  0  0  0
  -20.5851  -28.3704   23.1271 C   0  0  2  0  0  0
  -20.6734  -26.9420   22.5411 C   0  0  0  0  0  0
  -19.5713  -26.6387   21.5204 C   0  0  0  0  0  0
  -18.1895  -26.7936   22.1619 C   0  0  0  0  0  0
  -19.1515  -28.8861   23.2879 C   0  0  0  0  0  0
  -18.9458  -30.1457   23.8899 C   0  0  0  0  0  0
  -17.6463  -30.6585   24.0570 C   0  0  0  0  0  0
  -25.9018  -34.9457   23.5138 C   0  0  0  0  0  0
  -16.5355  -29.9090   23.6340 C   0  0  0  0  0  0
  -16.7262  -28.6514   23.0362 C   0  0  0  0  0  0
  -26.4472  -31.6578   25.0742 C   0  0  0  0  0  0
  -25.3755  -31.3679   26.1518 C   0  0  0  0  0  0
  -27.0348  -30.3026   24.6147 C   0  0  0  0  0  0
  -27.6038  -32.4333   25.7488 C   0  0  0  0  0  0
  -27.5571  -37.1778   24.8454 C   0  0  0  0  0  0
  -21.4133  -29.3066   22.3687 N   0  0  0  0  0  0
  -26.4256  -37.3776   23.9451 N   0  0  0  0  0  0
  -24.6715  -31.0748   22.0981 N   0  0  0  0  0  0
  -23.4167  -28.8203   23.3016 O   0  0  0  0  0  0
  -28.3833  -26.6522   20.0584 O   0  0  0  0  0  0
  -26.5586  -34.8915   22.4702 O   0  0  0  0  0  0
  -23.5354  -32.1380   23.7486 O   0  0  0  0  0  0
  -30.0671  -19.1098   21.8931 C   0  0  0  0  0  0
  -29.5154  -20.3875   21.6557 C   0  0  0  0  0  0
  -28.5476  -19.5669   19.5978 C   0  0  0  0  0  0
  -29.8971  -18.0383   20.9810 C   0  0  0  0  0  0
  -29.1469  -18.2947   19.7953 C   0  0  0  0  0  0
  -28.7377  -20.6383   20.5064 C   0  0  0  0  0  0
  -28.0150  -24.2732   20.8825 C   0  0  0  0  0  0
  -28.7442  -23.1792   20.5002 C   0  0  0  0  0  0
  -26.5829  -24.0767   21.2462 C   0  0  0  0  0  0
  -30.6774  -16.7566   21.2254 C   0  0  0  0  0  0
  -25.9240  -22.7265   20.9518 C   0  0  0  0  0  0
  -26.7311  -21.8705   19.9642 C   0  0  0  0  0  0
  -29.0326  -17.2788   18.6650 C   0  0  0  0  0  0
  -30.2399  -23.2574   20.2138 C   0  0  0  0  0  0
  -28.5798  -25.6970   21.1269 C   0  0  0  0  0  0
  -28.1606  -21.9153   20.2757 N   0  0  0  0  0  0
  -30.0943  -15.5615   20.9679 N   0  0  0  0  0  0
  -25.9066  -24.9262   21.8311 O   0  0  0  0  0  0
  -31.8215  -16.8657   21.6838 O   0  0  0  0  0  0
  -31.4462  -12.3453   19.1291 H   0  0  0  0  0  0
  -30.2578  -11.2971   19.8437 H   0  0  0  0  0  0
  -29.7220  -11.7553   17.4285 H   0  0  0  0  0  0
  -29.6639  -13.4689   17.7529 H   0  0  0  0  0  0
  -27.8194  -11.3040   18.8213 H   0  0  0  0  0  0
  -27.3592  -12.6192   17.7765 H   0  0  0  0  0  0
  -27.6808  -14.2525   19.5365 H   0  0  0  0  0  0
  -28.6707  -12.0266   21.3801 H   0  0  0  0  0  0
  -28.4735  -13.6967   21.8301 H   0  0  0  0  0  0
  -25.2754   -9.5689   22.4741 H   0  0  0  0  0  0
  -24.0000   -7.4644   22.7484 H   0  0  0  0  0  0
  -21.0849   -8.8751   19.8953 H   0  0  0  0  0  0
  -22.3687  -10.9648   19.6160 H   0  0  0  0  0  0
  -21.2004   -7.6152   23.9730 H   0  0  0  0  0  0
  -21.1483   -6.0529   25.9077 H   0  0  0  0  0  0
  -22.0592   -2.7626   23.2853 H   0  0  0  0  0  0
  -22.4152  -11.9846   22.4723 H   0  0  0  0  0  0
  -21.1159  -13.1238   22.2635 H   0  0  0  0  0  0
  -24.6561  -15.8370   20.5321 H   0  0  0  0  0  0
  -26.2734  -15.6379   20.0918 H   0  0  0  0  0  0
  -26.7129  -32.5498   23.1173 H   0  0  0  0  0  0
  -25.0023  -33.9754   25.0477 H   0  0  0  0  0  0
  -22.6992  -31.3059   21.3994 H   0  0  0  0  0  0
  -23.3736  -35.9645   23.3241 H   0  0  0  0  0  0
  -24.3593  -36.9008   22.2067 H   0  0  0  0  0  0
  -23.7229  -37.6502   23.6717 H   0  0  0  0  0  0
  -26.0522  -31.5897   20.5910 H   0  0  0  0  0  0
  -26.8238  -30.8804   21.9852 H   0  0  0  0  0  0
  -28.1168  -29.1020   21.1524 H   0  0  0  0  0  0
  -26.0750  -25.9643   19.0157 H   0  0  0  0  0  0
  -23.9868  -27.2818   19.0427 H   0  0  0  0  0  0
  -23.7297  -30.5891   19.3996 H   0  0  0  0  0  0
  -22.7448  -29.2353   19.8681 H   0  0  0  0  0  0
  -25.1232  -36.1925   25.0842 H   0  0  0  0  0  0
  -20.9939  -28.3281   24.1387 H   0  0  0  0  0  0
  -20.5601  -26.2321   23.3621 H   0  0  0  0  0  0
  -21.6613  -26.7407   22.1228 H   0  0  0  0  0  0
  -19.6866  -25.6293   21.1241 H   0  0  0  0  0  0
  -19.6650  -27.3194   20.6728 H   0  0  0  0  0  0
  -17.4151  -26.6719   21.4024 H   0  0  0  0  0  0
  -18.0288  -26.0074   22.9016 H   0  0  0  0  0  0
  -19.7933  -30.7285   24.2270 H   0  0  0  0  0  0
  -17.5016  -31.6266   24.5173 H   0  0  0  0  0  0
  -15.5361  -30.2996   23.7667 H   0  0  0  0  0  0
  -15.8659  -28.0836   22.7078 H   0  0  0  0  0  0
  -24.5960  -30.6962   25.7905 H   0  0  0  0  0  0
  -24.8912  -32.2816   26.4965 H   0  0  0  0  0  0
  -25.8148  -30.8896   27.0286 H   0  0  0  0  0  0
  -26.2911  -29.6722   24.1256 H   0  0  0  0  0  0
  -27.4177  -29.7329   25.4628 H   0  0  0  0  0  0
  -27.8712  -30.4357   23.9282 H   0  0  0  0  0  0
  -27.2652  -33.3656   26.2030 H   0  0  0  0  0  0
  -28.3844  -32.6857   25.0299 H   0  0  0  0  0  0
  -28.0714  -31.8489   26.5424 H   0  0  0  0  0  0
  -28.2498  -38.0156   24.7573 H   0  0  0  0  0  0
  -28.1149  -36.2684   24.6153 H   0  0  0  0  0  0
  -27.2319  -37.1267   25.8861 H   0  0  0  0  0  0
  -20.9297  -29.8840   21.6943 H   0  0  0  0  0  0
  -26.0126  -38.2838   24.1522 H   0  0  0  0  0  0
  -30.6748  -18.9627   22.7762 H   0  0  0  0  0  0
  -29.6931  -21.1794   22.3704 H   0  0  0  0  0  0
  -27.9754  -19.7372   18.6949 H   0  0  0  0  0  0
  -24.9153  -22.8902   20.5702 H   0  0  0  0  0  0
  -25.8246  -22.1955   21.8982 H   0  0  0  0  0  0
  -26.5831  -22.2351   18.9452 H   0  0  0  0  0  0
  -26.3344  -20.8549   19.9869 H   0  0  0  0  0  0
  -28.6827  -17.7478   17.7449 H   0  0  0  0  0  0
  -28.3331  -16.4853   18.9191 H   0  0  0  0  0  0
  -30.0000  -16.8287   18.4349 H   0  0  0  0  0  0
  -30.7851  -23.5513   21.1126 H   0  0  0  0  0  0
  -30.4407  -23.9976   19.4370 H   0  0  0  0  0  0
  -30.6644  -22.3113   19.8743 H   0  0  0  0  0  0
  -29.6567  -25.6227   21.2714 H   0  0  0  0  0  0
  -28.2115  -26.0944   22.0743 H   0  0  0  0  0  0
  -29.0903  -15.5257   20.9649 H   0  0  0  0  0  0
  1 25  1  0  0  0
  1 30  2  0  0  0
  1 87  1  0  0  0
  2  3  1  0  0  0
  2 25  1  0  0  0
  2 90  1  0  0  0
  2 91  1  0  0  0
  3  4  1  0  0  0
  3 92  1  0  0  0
  3 93  1  0  0  0
  4  5  1  0  0  0
  4 94  1  0  0  0
  4 95  1  0  0  0
  5  6  1  0  0  0
  5 26  1  0  0  0
  5 96  1  0  0  0
  6 25  1  0  0  0
  6 97  1  0  0  0
  6 98  1  0  0  0
  7  8  2  0  0  0
  7 26  1  0  0  0
  7 29  1  0  0  0
  8  9  1  0  0  0
  8 22  1  0  0  0
  9 10  1  0  0  0
  9 27  2  0  0  0
 10 11  2  0  0  0
 10 15  1  0  0  0
 11 12  1  0  0  0
 11 99  1  0  0  0
 12 13  2  0  0  0
 12100  1  0  0  0
 13 14  1  0  0  0
 13 31  1  0  0  0
 14 15  2  0  0  0
 14101  1  0  0  0
 15102  1  0  0  0
 16 17  2  0  0  0
 16 21  1  0  0  0
 16 31  1  0  0  0
 17 18  1  0  0  0
 17103  1  0  0  0
 18 19  2  0  0  0
 18104  1  0  0  0
 19 20  1  0  0  0
 19 24  1  0  0  0
 20 21  2  0  0  0
 20105  1  0  0  0
 21 23  1  0  0  0
 22 28  1  0  0  0
 22 32  2  0  0  0
 26 27  1  0  0  0
 28106  1  0  0  0
 28107  1  0  0  0
 29108  1  0  0  0
 29109  1  0  0  0
 33 34  1  0  0  0
 33 66  1  0  0  0
 33 70  2  0  0  0
 34 36  1  0  0  0
 34 59  1  0  0  0
 34110  1  0  0  0
 35 44  2  0  0  0
 35 45  1  0  0  0
 35 68  1  0  0  0
 36 56  1  0  0  0
 36111  1  0  0  0
 37 39  1  0  0  0
 37 47  1  0  0  0
 37 66  1  0  0  0
 37112  1  0  0  0
 38 43  2  0  0  0
 38 46  1  0  0  0
 38 47  1  0  0  0
 39 64  1  0  0  0
 39 67  2  0  0  0
 40 52  1  0  0  0
 40 53  2  0  0  0
 40 58  1  0  0  0
 41113  1  0  0  0
 41114  1  0  0  0
 41115  1  0  0  0
 41 48  1  0  0  0
 42 43  1  0  0  0
 42 66  1  0  0  0
 42116  1  0  0  0
 42117  1  0  0  0
 43 44  1  0  0  0
 44118  1  0  0  0
 45 46  2  0  0  0
 45119  1  0  0  0
 46120  1  0  0  0
 47121  1  0  0  0
 47122  1  0  0  0
 48 56  1  0  0  0
 48 65  1  0  0  0
 48123  1  0  0  0
 49 50  1  0  0  0
 49 53  1  0  0  0
 49 64  1  0  0  0
 49124  1  0  0  0
 50 51  1  0  0  0
 50125  1  0  0  0
 50126  1  0  0  0
 51 52  1  0  0  0
 51127  1  0  0  0
 51128  1  0  0  0
 52129  1  0  0  0
 52130  1  0  0  0
 53 54  1  0  0  0
 54 55  2  0  0  0
 54131  1  0  0  0
 55 57  1  0  0  0
 55132  1  0  0  0
 56 69  2  0  0  0
 57 58  2  0  0  0
 57133  1  0  0  0
 58134  1  0  0  0
 59 60  1  0  0  0
 59 61  1  0  0  0
 59 62  1  0  0  0
 60135  1  0  0  0
 60136  1  0  0  0
 60137  1  0  0  0
 61138  1  0  0  0
 61139  1  0  0  0
 61140  1  0  0  0
 62141  1  0  0  0
 62142  1  0  0  0
 62143  1  0  0  0
 63 65  1  0  0  0
 63144  1  0  0  0
 63145  1  0  0  0
 63146  1  0  0  0
 64147  1  0  0  0
 65148  1  0  0  0
 68 85  1  0  0  0
 71 72  2  0  0  0
 71 74  1  0  0  0
 71149  1  0  0  0
 72 76  1  0  0  0
 72150  1  0  0  0
 73 75  1  0  0  0
 73 76  2  0  0  0
 73151  1  0  0  0
 74 75  2  0  0  0
 74 80  1  0  0  0
 75 83  1  0  0  0
 76 86  1  0  0  0
 77 78  2  0  0  0
 77 79  1  0  0  0
 77 85  1  0  0  0
 78 84  1  0  0  0
 78 86  1  0  0  0
 79 81  1  0  0  0
 79 88  2  0  0  0
 80 87  1  0  0  0
 80 89  2  0  0  0
 81 82  1  0  0  0
 81152  1  0  0  0
 81153  1  0  0  0
 82 86  1  0  0  0
 82154  1  0  0  0
 82155  1  0  0  0
 83156  1  0  0  0
 83157  1  0  0  0
 83158  1  0  0  0
 84159  1  0  0  0
 84160  1  0  0  0
 84161  1  0  0  0
 85162  1  0  0  0
 85163  1  0  0  0
 87164  1  0  0  0
M  ISO  4   1 100  68 101  85 101  87 100
M  END
> <chiral flag>
0

> <version>
0

> <s_m_source_file>
/data/baiqing/PycharmProjects/Reinvent-master-3.2/result/LINK_invent/BTK/process_docking_weight1_custom_product_contain_oxygen_bond_distance_aromatic_linkinvent_7_9_3/rearranged_h_0109.sdf

> <i_m_source_file_index>
76

> <r_mmod_Potential_Energy-OPLS-2005>
-10.5871477127075

> <r_mmod_Stretch_Energy-OPLS-2005>
48.2054214477539

> <r_mmod_Bend_Energy-OPLS-2005>
106.916961669922

> <r_mmod_Torsional_Energy-OPLS-2005>
260.011566162109

> <r_mmod_Improper_Torsional_Energy-OPLS-2005>
6.6269006729126

> <r_mmod_Van_der_Waal_Energy-OPLS-2005>
172.344436645508

> <r_mmod_Electrostatic_Energy-OPLS-2005>
-389.134918212891

> <r_mmod_Solvation_Energy-OPLS-2005>
-233.755996704102

> <b_mmod_Minimization_Converged-OPLS-2005>
0

> <r_mmod_RMS_Derivative-OPLS-2005>
3.10911250114441

$$$$
76
                    3D
 Structure written by MMmdl.
162170  0  0  1  0            999 V2000
  -30.7177  -14.4515   20.6246 C   0  0  0  0  0  0
  -30.4210  -12.3156   19.4119 C   0  0  0  0  0  0
  -29.4914  -12.5205   18.1998 C   0  0  0  0  0  0
  -28.0127  -12.3753   18.6111 C   0  0  0  0  0  0
  -27.6581  -13.2084   19.8719 C   0  0  2  0  0  0
  -28.6974  -12.9796   20.9896 C   0  0  0  0  0  0
  -25.2561  -13.8170   20.5671 C   0  0  0  0  0  0
  -24.1818  -13.0440   20.9178 C   0  0  0  0  0  0
  -24.6380  -11.6908   20.8735 C   0  0  0  0  0  0
  -23.9060  -10.4291   21.0400 C   0  0  0  0  0  0
  -24.3607   -9.4210   21.9179 C   0  0  0  0  0  0
  -23.6280   -8.2245   22.0755 C   0  0  0  0  0  0
  -22.4252   -8.0287   21.3551 C   0  0  0  0  0  0
  -21.9889   -9.0263   20.4656 C   0  0  0  0  0  0
  -22.7227  -10.2138   20.3056 C   0  0  0  0  0  0
  -21.6853   -6.0728   22.5282 C   0  0  0  0  0  0
  -21.4020   -6.5631   23.8218 C   0  0  0  0  0  0
  -21.3666   -5.6786   24.9183 C   0  0  0  0  0  0
  -21.6040   -4.3050   24.7224 C   0  0  0  0  0  0
  -21.8821   -3.8143   23.4347 C   0  0  0  0  0  0
  -21.9189   -4.6959   22.3408 C   0  0  0  0  0  0
  -22.7840  -13.5240   21.1845 C   0  0  0  0  0  0
  -22.1658   -4.2153   21.0979 F   0  0  0  0  0  0
  -21.5622   -3.4537   25.7739 F   0  0  0  0  0  0
  -30.0292  -13.2930   20.4402 N   0  0  0  0  0  0
  -26.2994  -12.9344   20.3328 N   0  0  0  0  0  0
  -25.9304  -11.6500   20.5736 N   0  0  0  0  0  0
  -22.0471  -12.8247   22.0401 N   0  0  0  0  0  0
  -25.4280  -15.1889   20.4085 N   0  0  0  0  0  0
  -31.8179  -14.6697   20.1094 O   0  0  0  0  0  0
  -21.6635   -6.8873   21.4239 O   0  0  0  0  0  0
  -22.3539  -14.5561   20.6715 O   0  0  0  0  0  0
  -24.6165  -31.8697   23.2119 C   0  0  0  0  0  0
  -25.9048  -32.4839   23.8420 C   0  0  1  0  0  0
  -27.2249  -27.4236   20.0849 C   0  0  0  0  0  0
  -25.5891  -33.8635   24.2345 N   0  0  0  0  0  0
  -23.4042  -30.4984   21.5526 C   0  0  2  0  0  0
  -24.8471  -28.9710   20.1142 C   0  0  0  0  0  0
  -22.7421  -29.4679   22.4959 C   0  0  0  0  0  0
  -18.0282  -28.1397   22.8482 C   0  0  0  0  0  0
  -24.1474  -36.7317   23.2638 C   0  0  0  0  0  0
  -25.9371  -30.8334   21.3667 C   0  0  0  0  0  0
  -26.0132  -29.4698   20.7070 C   0  0  0  0  0  0
  -27.2066  -28.7073   20.6844 C   0  0  0  0  0  0
  -26.0319  -26.9500   19.4846 C   0  0  0  0  0  0
  -24.8520  -27.7106   19.4996 C   0  0  0  0  0  0
  -23.6141  -29.8424   20.1642 C   0  0  0  0  0  0
  -25.4094  -36.3118   24.0337 C   0  0  1  0  0  0
  -20.5873  -28.3687   23.1301 C   0  0  2  0  0  0
  -20.6770  -26.9422   22.5408 C   0  0  0  0  0  0
  -19.5751  -26.6402   21.5205 C   0  0  0  0  0  0
  -18.1928  -26.7941   22.1620 C   0  0  0  0  0  0
  -19.1530  -28.8856   23.2897 C   0  0  0  0  0  0
  -18.9461  -30.1447   23.8929 C   0  0  0  0  0  0
  -17.6462  -30.6591   24.0580 C   0  0  0  0  0  0
  -25.9030  -34.9483   23.5142 C   0  0  0  0  0  0
  -16.5355  -29.9103   23.6319 C   0  0  0  0  0  0
  -16.7267  -28.6525   23.0332 C   0  0  0  0  0  0
  -26.4458  -31.6617   25.0749 C   0  0  0  0  0  0
  -25.3706  -31.3729   26.1485 C   0  0  0  0  0  0
  -27.0292  -30.3058   24.6133 C   0  0  0  0  0  0
  -27.6038  -32.4330   25.7507 C   0  0  0  0  0  0
  -27.5568  -37.1818   24.8459 C   0  0  0  0  0  0
  -21.4149  -29.3050   22.3695 N   0  0  0  0  0  0
  -26.4280  -37.3801   23.9406 N   0  0  0  0  0  0
  -24.6712  -31.0806   22.1022 N   0  0  0  0  0  0
  -23.4189  -28.8199   23.2990 O   0  0  0  0  0  0
  -28.3809  -26.6578   20.1038 O   0  0  0  0  0  0
  -26.5602  -34.8930   22.4706 O   0  0  0  0  0  0
  -23.5352  -32.1437   23.7511 O   0  0  0  0  0  0
  -31.4742  -18.5880   20.7782 C   0  0  0  0  0  0
  -30.4466  -17.9249   21.4822 C   0  0  0  0  0  0
  -29.2347  -18.6316   21.7336 C   0  0  0  0  0  0
  -31.3457  -19.9396   20.3970 C   0  0  0  0  0  0
  -30.1838  -20.6827   20.7082 C   0  0  0  0  0  0
  -29.1089  -19.9935   21.3428 C   0  0  0  0  0  0
  -30.7460  -16.5213   22.0387 C   0  0  0  0  0  0
  -28.0466  -17.9778   22.4374 C   0  0  0  0  0  0
  -29.4397  -24.3746   20.3340 C   0  0  0  0  0  0
  -28.1788  -25.2296   20.0839 C   0  0  0  0  0  0
  -29.0945  -22.8863   20.6088 C   0  0  0  0  0  0
  -32.3912  -20.5623   19.7146 N   0  0  0  0  0  0
  -30.1046  -15.3697   21.3911 N   0  0  0  0  0  0
  -28.0248  -18.2528   23.8841 N   0  3  0  0  0  0
  -30.2209  -22.0358   20.3764 O   0  0  0  0  0  0
  -27.9435  -20.6275   21.6240 F   0  0  0  0  0  0
  -31.4663  -12.4177   19.1133 H   0  0  0  0  0  0
  -30.3202  -11.3029   19.8066 H   0  0  0  0  0  0
  -29.7327  -11.8039   17.4137 H   0  0  0  0  0  0
  -29.6581  -13.5099   17.7710 H   0  0  0  0  0  0
  -27.8232  -11.3188   18.8011 H   0  0  0  0  0  0
  -27.3634  -12.6564   17.7809 H   0  0  0  0  0  0
  -27.7061  -14.2583   19.5820 H   0  0  0  0  0  0
  -28.6738  -11.9403   21.3195 H   0  0  0  0  0  0
  -28.4461  -13.5638   21.8761 H   0  0  0  0  0  0
  -25.2749   -9.5691   22.4753 H   0  0  0  0  0  0
  -24.0011   -7.4618   22.7448 H   0  0  0  0  0  0
  -21.0827   -8.8777   19.8944 H   0  0  0  0  0  0
  -22.3687  -10.9672   19.6169 H   0  0  0  0  0  0
  -21.2034   -7.6141   23.9723 H   0  0  0  0  0  0
  -21.1476   -6.0515   25.9085 H   0  0  0  0  0  0
  -22.0594   -2.7600   23.2841 H   0  0  0  0  0  0
  -22.4070  -11.9919   22.4820 H   0  0  0  0  0  0
  -21.1093  -13.1288   22.2598 H   0  0  0  0  0  0
  -24.6411  -15.8264   20.4682 H   0  0  0  0  0  0
  -26.2530  -15.6131   20.0036 H   0  0  0  0  0  0
  -26.7120  -32.5539   23.1189 H   0  0  0  0  0  0
  -25.0000  -33.9805   25.0459 H   0  0  0  0  0  0
  -22.6931  -31.3159   21.4176 H   0  0  0  0  0  0
  -23.3735  -35.9652   23.3318 H   0  0  0  0  0  0
  -24.3568  -36.8918   22.2049 H   0  0  0  0  0  0
  -23.7232  -37.6526   23.6646 H   0  0  0  0  0  0
  -26.0527  -31.6034   20.6025 H   0  0  0  0  0  0
  -26.8239  -30.8835   21.9859 H   0  0  0  0  0  0
  -28.1068  -29.0924   21.1428 H   0  0  0  0  0  0
  -25.9791  -25.9928   18.9902 H   0  0  0  0  0  0
  -23.9554  -27.3238   19.0358 H   0  0  0  0  0  0
  -23.7320  -30.6237   19.4122 H   0  0  0  0  0  0
  -22.7358  -29.2719   19.8586 H   0  0  0  0  0  0
  -25.1271  -36.1987   25.0831 H   0  0  0  0  0  0
  -20.9972  -28.3260   24.1419 H   0  0  0  0  0  0
  -20.5668  -26.2296   23.3598 H   0  0  0  0  0  0
  -21.6641  -26.7454   22.1211 H   0  0  0  0  0  0
  -19.6913  -25.6314   21.1234 H   0  0  0  0  0  0
  -19.6692  -27.3209   20.6733 H   0  0  0  0  0  0
  -17.4190  -26.6667   21.4034 H   0  0  0  0  0  0
  -18.0349  -26.0090   22.9030 H   0  0  0  0  0  0
  -19.7933  -30.7251   24.2324 H   0  0  0  0  0  0
  -17.5022  -31.6270   24.5180 H   0  0  0  0  0  0
  -15.5360  -30.3027   23.7621 H   0  0  0  0  0  0
  -15.8664  -28.0863   22.7025 H   0  0  0  0  0  0
  -24.5874  -30.7090   25.7802 H   0  0  0  0  0  0
  -24.8906  -32.2893   26.4938 H   0  0  0  0  0  0
  -25.8036  -30.8881   27.0243 H   0  0  0  0  0  0
  -26.2857  -29.6845   24.1131 H   0  0  0  0  0  0
  -27.3992  -29.7275   25.4607 H   0  0  0  0  0  0
  -27.8722  -30.4380   23.9347 H   0  0  0  0  0  0
  -27.2663  -33.3611   26.2136 H   0  0  0  0  0  0
  -28.3824  -32.6924   25.0317 H   0  0  0  0  0  0
  -28.0739  -31.8428   26.5383 H   0  0  0  0  0  0
  -28.2599  -38.0102   24.7498 H   0  0  0  0  0  0
  -28.1060  -36.2644   24.6293 H   0  0  0  0  0  0
  -27.2302  -37.1479   25.8867 H   0  0  0  0  0  0
  -20.9296  -29.8791   21.6939 H   0  0  0  0  0  0
  -26.0175  -38.2878   24.1416 H   0  0  0  0  0  0
  -32.3910  -18.0551   20.5614 H   0  0  0  0  0  0
  -30.4577  -16.5001   23.0899 H   0  0  0  0  0  0
  -31.8283  -16.3726   22.0562 H   0  0  0  0  0  0
  -28.0377  -16.9019   22.2705 H   0  0  0  0  0  0
  -27.1202  -18.3434   21.9928 H   0  0  0  0  0  0
  -30.0015  -24.7721   21.1790 H   0  0  0  0  0  0
  -30.0922  -24.4534   19.4649 H   0  0  0  0  0  0
  -27.4287  -24.9711   20.8340 H   0  0  0  0  0  0
  -27.7880  -24.9274   19.1119 H   0  0  0  0  0  0
  -28.2788  -22.5644   19.9602 H   0  0  0  0  0  0
  -28.7539  -22.8076   21.6419 H   0  0  0  0  0  0
  -33.3341  -20.1990   19.8038 H   0  0  0  0  0  0
  -32.3503  -21.5754   19.6424 H   0  0  0  0  0  0
  -29.1925  -15.1008   21.7243 H   0  0  0  0  0  0
  -28.8580  -17.9203   24.3321 H   0  0  0  0  0  0
  -27.2362  -17.7933   24.3039 H   0  0  0  0  0  0
  -27.9345  -19.2367   24.0571 H   0  0  0  0  0  0
  1 25  1  0  0  0
  1 30  2  0  0  0
  1 83  1  0  0  0
  2  3  1  0  0  0
  2 25  1  0  0  0
  2 87  1  0  0  0
  2 88  1  0  0  0
  3  4  1  0  0  0
  3 89  1  0  0  0
  3 90  1  0  0  0
  4  5  1  0  0  0
  4 91  1  0  0  0
  4 92  1  0  0  0
  5  6  1  0  0  0
  5 26  1  0  0  0
  5 93  1  0  0  0
  6 25  1  0  0  0
  6 94  1  0  0  0
  6 95  1  0  0  0
  7  8  2  0  0  0
  7 26  1  0  0  0
  7 29  1  0  0  0
  8  9  1  0  0  0
  8 22  1  0  0  0
  9 10  1  0  0  0
  9 27  2  0  0  0
 10 11  2  0  0  0
 10 15  1  0  0  0
 11 12  1  0  0  0
 11 96  1  0  0  0
 12 13  2  0  0  0
 12 97  1  0  0  0
 13 14  1  0  0  0
 13 31  1  0  0  0
 14 15  2  0  0  0
 14 98  1  0  0  0
 15 99  1  0  0  0
 16 17  2  0  0  0
 16 21  1  0  0  0
 16 31  1  0  0  0
 17 18  1  0  0  0
 17100  1  0  0  0
 18 19  2  0  0  0
 18101  1  0  0  0
 19 20  1  0  0  0
 19 24  1  0  0  0
 20 21  2  0  0  0
 20102  1  0  0  0
 21 23  1  0  0  0
 22 28  1  0  0  0
 22 32  2  0  0  0
 26 27  1  0  0  0
 28103  1  0  0  0
 28104  1  0  0  0
 29105  1  0  0  0
 29106  1  0  0  0
 33 34  1  0  0  0
 33 66  1  0  0  0
 33 70  2  0  0  0
 34 36  1  0  0  0
 34 59  1  0  0  0
 34107  1  0  0  0
 35 44  2  0  0  0
 35 45  1  0  0  0
 35 68  1  0  0  0
 36 56  1  0  0  0
 36108  1  0  0  0
 37 39  1  0  0  0
 37 47  1  0  0  0
 37 66  1  0  0  0
 37109  1  0  0  0
 38 43  2  0  0  0
 38 46  1  0  0  0
 38 47  1  0  0  0
 39 64  1  0  0  0
 39 67  2  0  0  0
 40 52  1  0  0  0
 40 53  2  0  0  0
 40 58  1  0  0  0
 41110  1  0  0  0
 41111  1  0  0  0
 41112  1  0  0  0
 41 48  1  0  0  0
 42 43  1  0  0  0
 42 66  1  0  0  0
 42113  1  0  0  0
 42114  1  0  0  0
 43 44  1  0  0  0
 44115  1  0  0  0
 45 46  2  0  0  0
 45116  1  0  0  0
 46117  1  0  0  0
 47118  1  0  0  0
 47119  1  0  0  0
 48 56  1  0  0  0
 48 65  1  0  0  0
 48120  1  0  0  0
 49 50  1  0  0  0
 49 53  1  0  0  0
 49 64  1  0  0  0
 49121  1  0  0  0
 50 51  1  0  0  0
 50122  1  0  0  0
 50123  1  0  0  0
 51 52  1  0  0  0
 51124  1  0  0  0
 51125  1  0  0  0
 52126  1  0  0  0
 52127  1  0  0  0
 53 54  1  0  0  0
 54 55  2  0  0  0
 54128  1  0  0  0
 55 57  1  0  0  0
 55129  1  0  0  0
 56 69  2  0  0  0
 57 58  2  0  0  0
 57130  1  0  0  0
 58131  1  0  0  0
 59 60  1  0  0  0
 59 61  1  0  0  0
 59 62  1  0  0  0
 60132  1  0  0  0
 60133  1  0  0  0
 60134  1  0  0  0
 61135  1  0  0  0
 61136  1  0  0  0
 61137  1  0  0  0
 62138  1  0  0  0
 62139  1  0  0  0
 62140  1  0  0  0
 63 65  1  0  0  0
 63141  1  0  0  0
 63142  1  0  0  0
 63143  1  0  0  0
 64144  1  0  0  0
 65145  1  0  0  0
 68 80  1  0  0  0
 71 72  2  0  0  0
 71 74  1  0  0  0
 71146  1  0  0  0
 72 73  1  0  0  0
 72 77  1  0  0  0
 73 76  2  0  0  0
 73 78  1  0  0  0
 74 75  2  0  0  0
 74 82  1  0  0  0
 75 76  1  0  0  0
 75 85  1  0  0  0
 76 86  1  0  0  0
 77 83  1  0  0  0
 77147  1  0  0  0
 77148  1  0  0  0
 78 84  1  0  0  0
 78149  1  0  0  0
 78150  1  0  0  0
 79 80  1  0  0  0
 79 81  1  0  0  0
 79151  1  0  0  0
 79152  1  0  0  0
 80153  1  0  0  0
 80154  1  0  0  0
 81 85  1  0  0  0
 81155  1  0  0  0
 81156  1  0  0  0
 82157  1  0  0  0
 82158  1  0  0  0
 83159  1  0  0  0
 84160  1  0  0  0
 84161  1  0  0  0
 84162  1  0  0  0
M  CHG  1  84   1
M  ISO  4   1 100  68 101  80 101  83 100
M  END
> <chiral flag>
0

> <version>
0

> <s_m_source_file>
/data/baiqing/PycharmProjects/Reinvent-master-3.2/result/LINK_invent/BTK/process_docking_weight1_custom_product_contain_oxygen_bond_distance_aromatic_linkinvent_7_9_3/rearranged_h_0109.sdf

> <i_m_source_file_index>
77

> <r_mmod_Potential_Energy-OPLS-2005>
-395.529632568359

> <r_mmod_Stretch_Energy-OPLS-2005>
41.9553871154785

> <r_mmod_Bend_Energy-OPLS-2005>
113.459968566895

> <r_mmod_Torsional_Energy-OPLS-2005>
201.095504760742

> <r_mmod_Improper_Torsional_Energy-OPLS-2005>
6.29642057418823

> <r_mmod_Van_der_Waal_Energy-OPLS-2005>
162.537643432617

> <r_mmod_Electrostatic_Energy-OPLS-2005>
-390.404632568359

> <r_mmod_Solvation_Energy-OPLS-2005>
-543.274536132812

> <b_mmod_Minimization_Converged-OPLS-2005>
0

> <r_mmod_RMS_Derivative-OPLS-2005>
2.08558320999146

$$$$
77
                    3D
 Structure written by MMmdl.
156164  0  0  1  0            999 V2000
  -30.6747  -14.6913   20.5806 C   0  0  0  0  0  0
  -30.4291  -12.4617   19.4618 C   0  0  0  0  0  0
  -29.5049  -12.5556   18.2300 C   0  0  0  0  0  0
  -28.0375  -12.3626   18.6493 C   0  0  0  0  0  0
  -27.6553  -13.2325   19.8775 C   0  0  2  0  0  0
  -28.7000  -13.1150   21.0149 C   0  0  0  0  0  0
  -25.2541  -13.8186   20.5752 C   0  0  0  0  0  0
  -24.1817  -13.0429   20.9200 C   0  0  0  0  0  0
  -24.6402  -11.6913   20.8740 C   0  0  0  0  0  0
  -23.9063  -10.4294   21.0397 C   0  0  0  0  0  0
  -24.3623   -9.4215   21.9178 C   0  0  0  0  0  0
  -23.6296   -8.2253   22.0758 C   0  0  0  0  0  0
  -22.4274   -8.0293   21.3553 C   0  0  0  0  0  0
  -21.9910   -9.0259   20.4648 C   0  0  0  0  0  0
  -22.7239  -10.2137   20.3040 C   0  0  0  0  0  0
  -21.6848   -6.0733   22.5273 C   0  0  0  0  0  0
  -21.4022   -6.5630   23.8220 C   0  0  0  0  0  0
  -21.3655   -5.6780   24.9179 C   0  0  0  0  0  0
  -21.6055   -4.3051   24.7217 C   0  0  0  0  0  0
  -21.8823   -3.8135   23.4341 C   0  0  0  0  0  0
  -21.9206   -4.6956   22.3397 C   0  0  0  0  0  0
  -22.7855  -13.5241   21.1868 C   0  0  0  0  0  0
  -22.1670   -4.2144   21.0980 F   0  0  0  0  0  0
  -21.5623   -3.4532   25.7730 F   0  0  0  0  0  0
  -30.0125  -13.4837   20.4586 N   0  0  0  0  0  0
  -26.3013  -12.9416   20.3415 N   0  0  0  0  0  0
  -25.9357  -11.6542   20.5776 N   0  0  0  0  0  0
  -22.0460  -12.8233   22.0405 N   0  0  0  0  0  0
  -25.4183  -15.1922   20.4222 N   0  0  0  0  0  0
  -31.7164  -14.8848   19.9446 O   0  0  0  0  0  0
  -21.6647   -6.8887   21.4241 O   0  0  0  0  0  0
  -22.3564  -14.5568   20.6725 O   0  0  0  0  0  0
  -24.6314  -31.8509   23.1958 C   0  0  0  0  0  0
  -25.9104  -32.4722   23.8321 C   0  0  1  0  0  0
  -27.2176  -27.2332   20.1627 C   0  0  0  0  0  0
  -25.5905  -33.8521   24.2225 N   0  0  0  0  0  0
  -23.4304  -30.4755   21.5358 C   0  0  2  0  0  0
  -24.8812  -28.9149   20.1178 C   0  0  0  0  0  0
  -22.7488  -29.4641   22.4885 C   0  0  0  0  0  0
  -18.0311  -28.1419   22.8423 C   0  0  0  0  0  0
  -24.1485  -36.7278   23.2647 C   0  0  0  0  0  0
  -25.9797  -30.7610   21.3785 C   0  0  0  0  0  0
  -26.0539  -29.3799   20.7280 C   0  0  0  0  0  0
  -27.2272  -28.5532   20.7371 C   0  0  0  0  0  0
  -26.0278  -26.8500   19.5043 C   0  0  0  0  0  0
  -24.8751  -27.6587   19.4938 C   0  0  0  0  0  0
  -23.6502  -29.8005   20.1570 C   0  0  0  0  0  0
  -25.4112  -36.3055   24.0329 C   0  0  1  0  0  0
  -20.5898  -28.3789   23.1223 C   0  0  2  0  0  0
  -20.6812  -26.9448   22.5496 C   0  0  0  0  0  0
  -19.5842  -26.6365   21.5270 C   0  0  0  0  0  0
  -18.1977  -26.7931   22.1609 C   0  0  0  0  0  0
  -19.1529  -28.8888   23.2824 C   0  0  0  0  0  0
  -18.9445  -30.1483   23.8879 C   0  0  0  0  0  0
  -17.6431  -30.6595   24.0509 C   0  0  0  0  0  0
  -25.9041  -34.9422   23.5078 C   0  0  0  0  0  0
  -16.5341  -29.9074   23.6265 C   0  0  0  0  0  0
  -16.7284  -28.6523   23.0222 C   0  0  0  0  0  0
  -26.4475  -31.6552   25.0713 C   0  0  0  0  0  0
  -25.3698  -31.3731   26.1446 C   0  0  0  0  0  0
  -27.0361  -30.2978   24.6200 C   0  0  0  0  0  0
  -27.6000  -32.4335   25.7493 C   0  0  0  0  0  0
  -27.5581  -37.1792   24.8470 C   0  0  0  0  0  0
  -21.4204  -29.3098   22.3579 N   0  0  0  0  0  0
  -26.4294  -37.3758   23.9394 N   0  0  0  0  0  0
  -24.6991  -31.0490   22.0933 N   0  0  0  0  0  0
  -23.4168  -28.8224   23.3056 O   0  0  0  0  0  0
  -28.2946  -26.3099   20.2236 O   0  0  0  0  0  0
  -26.5631  -34.8936   22.4665 O   0  0  0  0  0  0
  -23.5448  -32.1351   23.7221 O   0  0  0  0  0  0
  -28.5729  -17.1738   22.6813 C   0  0  0  0  0  0
  -28.2643  -19.5747   22.3736 C   0  0  0  0  0  0
  -29.8456  -18.3432   20.9831 C   0  0  0  0  0  0
  -27.9640  -18.3847   23.0652 C   0  0  0  0  0  0
  -29.5689  -17.0829   21.6797 C   0  0  0  0  0  0
  -29.1855  -19.6195   21.3030 C   0  0  0  0  0  0
  -27.0129  -17.5532   25.2411 C   0  0  0  0  0  0
  -27.1012  -18.4695   24.2588 C   0  0  0  0  0  0
  -30.3249  -15.6997   21.7475 C   0  0  0  0  0  0
  -29.0038  -23.6149   20.3793 C   0  0  0  0  0  0
  -28.0105  -24.8832   20.6550 C   0  0  0  0  0  0
  -28.6521  -22.1361   20.9876 C   0  0  0  0  0  0
  -30.7272  -15.3278   22.8957 N   0  0  0  0  0  0
  -29.4425  -20.8852   20.6670 O   0  0  0  0  0  0
  -31.4709  -12.5709   19.1563 H   0  0  0  0  0  0
  -30.3640  -11.4688   19.9058 H   0  0  0  0  0  0
  -29.7878  -11.8075   17.4876 H   0  0  0  0  0  0
  -29.6260  -13.5287   17.7499 H   0  0  0  0  0  0
  -27.9070  -11.3069   18.8889 H   0  0  0  0  0  0
  -27.3681  -12.5729   17.8134 H   0  0  0  0  0  0
  -27.6681  -14.2706   19.5407 H   0  0  0  0  0  0
  -28.7314  -12.0957   21.4043 H   0  0  0  0  0  0
  -28.4199  -13.7530   21.8521 H   0  0  0  0  0  0
  -25.2773   -9.5699   22.4752 H   0  0  0  0  0  0
  -24.0006   -7.4645   22.7489 H   0  0  0  0  0  0
  -21.0839   -8.8793   19.8943 H   0  0  0  0  0  0
  -22.3716  -10.9686   19.6142 H   0  0  0  0  0  0
  -21.2006   -7.6140   23.9717 H   0  0  0  0  0  0
  -21.1473   -6.0511   25.9089 H   0  0  0  0  0  0
  -22.0600   -2.7593   23.2844 H   0  0  0  0  0  0
  -22.4060  -11.9916   22.4838 H   0  0  0  0  0  0
  -21.1042  -13.1248   22.2510 H   0  0  0  0  0  0
  -24.6467  -15.8376   20.5435 H   0  0  0  0  0  0
  -26.2755  -15.6474   20.1338 H   0  0  0  0  0  0
  -26.7155  -32.5371   23.1053 H   0  0  0  0  0  0
  -25.0010  -33.9618   25.0342 H   0  0  0  0  0  0
  -22.7282  -31.2948   21.3765 H   0  0  0  0  0  0
  -23.3739  -35.9622   23.3316 H   0  0  0  0  0  0
  -24.3573  -36.8903   22.2064 H   0  0  0  0  0  0
  -23.7259  -37.6488   23.6670 H   0  0  0  0  0  0
  -26.1214  -31.5150   20.6017 H   0  0  0  0  0  0
  -26.8595  -30.8116   22.0107 H   0  0  0  0  0  0
  -28.1240  -28.8938   21.2344 H   0  0  0  0  0  0
  -25.9628  -25.8967   18.9986 H   0  0  0  0  0  0
  -23.9778  -27.2997   19.0064 H   0  0  0  0  0  0
  -23.7790  -30.5708   19.3939 H   0  0  0  0  0  0
  -22.7707  -29.2274   19.8539 H   0  0  0  0  0  0
  -25.1296  -36.1902   25.0824 H   0  0  0  0  0  0
  -21.0009  -28.3468   24.1354 H   0  0  0  0  0  0
  -20.5615  -26.2466   23.3819 H   0  0  0  0  0  0
  -21.6729  -26.7380   22.1427 H   0  0  0  0  0  0
  -19.7065  -25.6286   21.1305 H   0  0  0  0  0  0
  -19.6794  -27.3138   20.6791 H   0  0  0  0  0  0
  -17.4272  -26.6585   21.4011 H   0  0  0  0  0  0
  -18.0445  -26.0081   22.9043 H   0  0  0  0  0  0
  -19.7922  -30.7310   24.2208 H   0  0  0  0  0  0
  -17.4966  -31.6289   24.5038 H   0  0  0  0  0  0
  -15.5294  -30.2894   23.7479 H   0  0  0  0  0  0
  -15.8708  -28.0897   22.6806 H   0  0  0  0  0  0
  -24.5838  -30.7102   25.7813 H   0  0  0  0  0  0
  -24.8909  -32.2912   26.4860 H   0  0  0  0  0  0
  -25.8006  -30.8937   27.0238 H   0  0  0  0  0  0
  -26.2978  -29.6694   24.1214 H   0  0  0  0  0  0
  -27.4077  -29.7250   25.4699 H   0  0  0  0  0  0
  -27.8826  -30.4276   23.9461 H   0  0  0  0  0  0
  -27.2554  -33.3626   26.2044 H   0  0  0  0  0  0
  -28.3820  -32.6910   25.0340 H   0  0  0  0  0  0
  -28.0648  -31.8486   26.5428 H   0  0  0  0  0  0
  -28.2598  -38.0086   24.7504 H   0  0  0  0  0  0
  -28.1074  -36.2614   24.6310 H   0  0  0  0  0  0
  -27.2298  -37.1495   25.8876 H   0  0  0  0  0  0
  -20.9431  -29.8811   21.6714 H   0  0  0  0  0  0
  -26.0170  -38.2836   24.1378 H   0  0  0  0  0  0
  -28.3208  -16.2839   23.2420 H   0  0  0  0  0  0
  -27.7873  -20.4722   22.7314 H   0  0  0  0  0  0
  -30.6254  -18.3399   20.2333 H   0  0  0  0  0  0
  -26.3493  -17.7053   26.0800 H   0  0  0  0  0  0
  -27.5954  -16.6403   25.2515 H   0  0  0  0  0  0
  -26.4883  -19.3568   24.3401 H   0  0  0  0  0  0
  -29.9929  -23.8912   20.7420 H   0  0  0  0  0  0
  -29.1071  -23.5174   19.2994 H   0  0  0  0  0  0
  -27.0435  -24.5698   20.2700 H   0  0  0  0  0  0
  -27.8622  -24.9416   21.7361 H   0  0  0  0  0  0
  -27.6168  -21.9152   20.7202 H   0  0  0  0  0  0
  -28.6574  -22.2755   22.0682 H   0  0  0  0  0  0
  -30.5044  -16.0133   23.6048 H   0  0  0  0  0  0
  1 25  1  0  0  0
  1 30  2  0  0  0
  1 79  1  0  0  0
  2  3  1  0  0  0
  2 25  1  0  0  0
  2 85  1  0  0  0
  2 86  1  0  0  0
  3  4  1  0  0  0
  3 87  1  0  0  0
  3 88  1  0  0  0
  4  5  1  0  0  0
  4 89  1  0  0  0
  4 90  1  0  0  0
  5  6  1  0  0  0
  5 26  1  0  0  0
  5 91  1  0  0  0
  6 25  1  0  0  0
  6 92  1  0  0  0
  6 93  1  0  0  0
  7  8  2  0  0  0
  7 26  1  0  0  0
  7 29  1  0  0  0
  8  9  1  0  0  0
  8 22  1  0  0  0
  9 10  1  0  0  0
  9 27  2  0  0  0
 10 11  2  0  0  0
 10 15  1  0  0  0
 11 12  1  0  0  0
 11 94  1  0  0  0
 12 13  2  0  0  0
 12 95  1  0  0  0
 13 14  1  0  0  0
 13 31  1  0  0  0
 14 15  2  0  0  0
 14 96  1  0  0  0
 15 97  1  0  0  0
 16 17  2  0  0  0
 16 21  1  0  0  0
 16 31  1  0  0  0
 17 18  1  0  0  0
 17 98  1  0  0  0
 18 19  2  0  0  0
 18 99  1  0  0  0
 19 20  1  0  0  0
 19 24  1  0  0  0
 20 21  2  0  0  0
 20100  1  0  0  0
 21 23  1  0  0  0
 22 28  1  0  0  0
 22 32  2  0  0  0
 26 27  1  0  0  0
 28101  1  0  0  0
 28102  1  0  0  0
 29103  1  0  0  0
 29104  1  0  0  0
 33 34  1  0  0  0
 33 66  1  0  0  0
 33 70  2  0  0  0
 34 36  1  0  0  0
 34 59  1  0  0  0
 34105  1  0  0  0
 35 44  2  0  0  0
 35 45  1  0  0  0
 35 68  1  0  0  0
 36 56  1  0  0  0
 36106  1  0  0  0
 37 39  1  0  0  0
 37 47  1  0  0  0
 37 66  1  0  0  0
 37107  1  0  0  0
 38 43  2  0  0  0
 38 46  1  0  0  0
 38 47  1  0  0  0
 39 64  1  0  0  0
 39 67  2  0  0  0
 40 52  1  0  0  0
 40 53  2  0  0  0
 40 58  1  0  0  0
 41108  1  0  0  0
 41109  1  0  0  0
 41110  1  0  0  0
 41 48  1  0  0  0
 42 43  1  0  0  0
 42 66  1  0  0  0
 42111  1  0  0  0
 42112  1  0  0  0
 43 44  1  0  0  0
 44113  1  0  0  0
 45 46  2  0  0  0
 45114  1  0  0  0
 46115  1  0  0  0
 47116  1  0  0  0
 47117  1  0  0  0
 48 56  1  0  0  0
 48 65  1  0  0  0
 48118  1  0  0  0
 49 50  1  0  0  0
 49 53  1  0  0  0
 49 64  1  0  0  0
 49119  1  0  0  0
 50 51  1  0  0  0
 50120  1  0  0  0
 50121  1  0  0  0
 51 52  1  0  0  0
 51122  1  0  0  0
 51123  1  0  0  0
 52124  1  0  0  0
 52125  1  0  0  0
 53 54  1  0  0  0
 54 55  2  0  0  0
 54126  1  0  0  0
 55 57  1  0  0  0
 55127  1  0  0  0
 56 69  2  0  0  0
 57 58  2  0  0  0
 57128  1  0  0  0
 58129  1  0  0  0
 59 60  1  0  0  0
 59 61  1  0  0  0
 59 62  1  0  0  0
 60130  1  0  0  0
 60131  1  0  0  0
 60132  1  0  0  0
 61133  1  0  0  0
 61134  1  0  0  0
 61135  1  0  0  0
 62136  1  0  0  0
 62137  1  0  0  0
 62138  1  0  0  0
 63 65  1  0  0  0
 63139  1  0  0  0
 63140  1  0  0  0
 63141  1  0  0  0
 64142  1  0  0  0
 65143  1  0  0  0
 68 81  1  0  0  0
 71 74  2  0  0  0
 71 75  1  0  0  0
 71144  1  0  0  0
 72 74  1  0  0  0
 72 76  2  0  0  0
 72145  1  0  0  0
 73 75  2  0  0  0
 73 76  1  0  0  0
 73146  1  0  0  0
 74 78  1  0  0  0
 75 79  1  0  0  0
 76 84  1  0  0  0
 77 78  2  0  0  0
 77147  1  0  0  0
 77148  1  0  0  0
 78149  1  0  0  0
 79 83  2  0  0  0
 80 81  1  0  0  0
 80 82  1  0  0  0
 80150  1  0  0  0
 80151  1  0  0  0
 81152  1  0  0  0
 81153  1  0  0  0
 82 84  1  0  0  0
 82154  1  0  0  0
 82155  1  0  0  0
 83156  1  0  0  0
M  ISO  4   1 100  68 101  79 100  81 101
M  END
> <chiral flag>
0

> <version>
0

> <s_m_source_file>
/data/baiqing/PycharmProjects/Reinvent-master-3.2/result/LINK_invent/BTK/process_docking_weight1_custom_product_contain_oxygen_bond_distance_aromatic_linkinvent_7_9_3/rearranged_h_0109.sdf

> <i_m_source_file_index>
78

> <r_mmod_Potential_Energy-OPLS-2005>
420.772766113281

> <r_mmod_Stretch_Energy-OPLS-2005>
160.044906616211

> <r_mmod_Bend_Energy-OPLS-2005>
222.945190429688

> <r_mmod_Torsional_Energy-OPLS-2005>
246.18083190918

> <r_mmod_Improper_Torsional_Energy-OPLS-2005>
8.93292713165283

> <r_mmod_Van_der_Waal_Energy-OPLS-2005>
146.344116210938

> <r_mmod_Electrostatic_Energy-OPLS-2005>
-243.373046875

> <r_mmod_Solvation_Energy-OPLS-2005>
-204.448516845703

> <b_mmod_Minimization_Converged-OPLS-2005>
0

> <r_mmod_RMS_Derivative-OPLS-2005>
5.57129669189453

$$$$
78
                    3D
 Structure written by MMmdl.
163172  0  0  1  0            999 V2000
  -30.6527  -14.6343   20.5634 C   0  0  0  0  0  0
  -30.4411  -12.4073   19.4617 C   0  0  0  0  0  0
  -29.5102  -12.5165   18.2325 C   0  0  0  0  0  0
  -28.0349  -12.3374   18.6418 C   0  0  0  0  0  0
  -27.6549  -13.2109   19.8648 C   0  0  2  0  0  0
  -28.6914  -13.0391   20.9926 C   0  0  0  0  0  0
  -25.2553  -13.8146   20.5654 C   0  0  0  0  0  0
  -24.1822  -13.0427   20.9194 C   0  0  0  0  0  0
  -24.6390  -11.6904   20.8762 C   0  0  0  0  0  0
  -23.9070  -10.4281   21.0417 C   0  0  0  0  0  0
  -24.3612   -9.4185   21.9193 C   0  0  0  0  0  0
  -23.6277   -8.2231   22.0764 C   0  0  0  0  0  0
  -22.4265   -8.0277   21.3552 C   0  0  0  0  0  0
  -21.9906   -9.0254   20.4658 C   0  0  0  0  0  0
  -22.7246  -10.2123   20.3065 C   0  0  0  0  0  0
  -21.6842   -6.0740   22.5280 C   0  0  0  0  0  0
  -21.4015   -6.5643   23.8215 C   0  0  0  0  0  0
  -21.3656   -5.6794   24.9174 C   0  0  0  0  0  0
  -21.6042   -4.3057   24.7223 C   0  0  0  0  0  0
  -21.8820   -3.8152   23.4345 C   0  0  0  0  0  0
  -21.9190   -4.6970   22.3402 C   0  0  0  0  0  0
  -22.7834  -13.5212   21.1844 C   0  0  0  0  0  0
  -22.1659   -4.2158   21.0981 F   0  0  0  0  0  0
  -21.5622   -3.4540   25.7735 F   0  0  0  0  0  0
  -30.0150  -13.4150   20.4607 N   0  0  0  0  0  0
  -26.2985  -12.9321   20.3299 N   0  0  0  0  0  0
  -25.9309  -11.6485   20.5745 N   0  0  0  0  0  0
  -22.0492  -12.8237   22.0420 N   0  0  0  0  0  0
  -25.4254  -15.1848   20.3959 N   0  0  0  0  0  0
  -31.7403  -14.8270   20.0094 O   0  0  0  0  0  0
  -21.6633   -6.8876   21.4243 O   0  0  0  0  0  0
  -22.3528  -14.5538   20.6697 O   0  0  0  0  0  0
  -24.6231  -31.8591   23.2011 C   0  0  0  0  0  0
  -25.9078  -32.4774   23.8338 C   0  0  1  0  0  0
  -27.2383  -27.3320   20.1029 C   0  0  0  0  0  0
  -25.5905  -33.8577   24.2262 N   0  0  0  0  0  0
  -23.4175  -30.4787   21.5429 C   0  0  2  0  0  0
  -24.8650  -28.9292   20.1112 C   0  0  0  0  0  0
  -22.7452  -29.4615   22.4948 C   0  0  0  0  0  0
  -18.0281  -28.1365   22.8479 C   0  0  0  0  0  0
  -24.1499  -36.7296   23.2639 C   0  0  0  0  0  0
  -25.9542  -30.7921   21.3697 C   0  0  0  0  0  0
  -26.0299  -29.4184   20.7130 C   0  0  0  0  0  0
  -27.2140  -28.6285   20.7023 C   0  0  0  0  0  0
  -26.0447  -26.8810   19.4981 C   0  0  0  0  0  0
  -24.8727  -27.6650   19.4998 C   0  0  0  0  0  0
  -23.6313  -29.8060   20.1605 C   0  0  0  0  0  0
  -25.4119  -36.3074   24.0322 C   0  0  1  0  0  0
  -20.5875  -28.3685   23.1305 C   0  0  2  0  0  0
  -20.6777  -26.9410   22.5437 C   0  0  0  0  0  0
  -19.5763  -26.6368   21.5234 C   0  0  0  0  0  0
  -18.1942  -26.7896   22.1642 C   0  0  0  0  0  0
  -19.1524  -28.8843   23.2886 C   0  0  0  0  0  0
  -18.9432  -30.1447   23.8903 C   0  0  0  0  0  0
  -17.6423  -30.6565   24.0554 C   0  0  0  0  0  0
  -25.9048  -34.9445   23.5092 C   0  0  0  0  0  0
  -16.5321  -29.9052   23.6320 C   0  0  0  0  0  0
  -16.7258  -28.6471   23.0338 C   0  0  0  0  0  0
  -26.4478  -31.6581   25.0700 C   0  0  0  0  0  0
  -25.3737  -31.3707   26.1446 C   0  0  0  0  0  0
  -27.0329  -30.3012   24.6144 C   0  0  0  0  0  0
  -27.6035  -32.4325   25.7473 C   0  0  0  0  0  0
  -27.5584  -37.1803   24.8464 C   0  0  0  0  0  0
  -21.4165  -29.3035   22.3695 N   0  0  0  0  0  0
  -26.4300  -37.3765   23.9398 N   0  0  0  0  0  0
  -24.6836  -31.0603   22.0953 N   0  0  0  0  0  0
  -23.4168  -28.8170   23.3045 O   0  0  0  0  0  0
  -28.3942  -26.5414   20.1604 O   0  0  0  0  0  0
  -26.5621  -34.8916   22.4664 O   0  0  0  0  0  0
  -23.5392  -32.1367   23.7346 O   0  0  0  0  0  0
  -28.4635  -17.6382   20.6199 C   0  0  0  0  0  0
  -28.1001  -19.0064   20.4685 C   0  0  0  0  0  0
  -30.3879  -19.6483   20.7682 C   0  0  0  0  0  0
  -29.7901  -17.2163   20.9044 C   0  0  0  0  0  0
  -30.7602  -18.2703   20.9316 C   0  0  0  0  0  0
  -29.0412  -20.0609   20.5898 C   0  0  0  0  0  0
  -28.3533  -23.8801   20.3858 C   0  0  0  0  0  0
  -28.8070  -22.6193   20.0145 C   0  0  0  0  0  0
  -27.6022  -23.9805   21.6602 C   0  0  0  0  0  0
  -30.0097  -15.7818   21.4288 C   0  0  0  0  0  0
  -26.9819  -22.6950   22.1952 C   0  0  0  0  0  0
  -27.9686  -21.5245   22.0998 C   0  0  0  0  0  0
  -32.2170  -17.9633   21.2383 C   0  0  0  0  0  0
  -29.5394  -22.4231   18.6939 C   0  0  0  0  0  0
  -28.5139  -25.2027   19.5379 C   0  0  0  0  0  0
  -29.6728  -15.5722   22.6329 N   0  0  0  0  0  0
  -28.5945  -21.4209   20.7752 N   0  0  0  0  0  0
  -27.4537  -25.0173   22.3143 O   0  0  0  0  0  0
  -31.4801  -12.5396   19.1548 H   0  0  0  0  0  0
  -30.3961  -11.4065   19.8939 H   0  0  0  0  0  0
  -29.7824  -11.7676   17.4877 H   0  0  0  0  0  0
  -29.6450  -13.4903   17.7581 H   0  0  0  0  0  0
  -27.8895  -11.2834   18.8860 H   0  0  0  0  0  0
  -27.3753  -12.5493   17.7995 H   0  0  0  0  0  0
  -27.6845  -14.2496   19.5359 H   0  0  0  0  0  0
  -28.7112  -12.0032   21.3340 H   0  0  0  0  0  0
  -28.3861  -13.6064   21.8657 H   0  0  0  0  0  0
  -25.2754   -9.5657   22.4768 H   0  0  0  0  0  0
  -23.9989   -7.4620   22.7480 H   0  0  0  0  0  0
  -21.0844   -8.8773   19.8950 H   0  0  0  0  0  0
  -22.3715  -10.9666   19.6169 H   0  0  0  0  0  0
  -21.2015   -7.6151   23.9723 H   0  0  0  0  0  0
  -21.1472   -6.0526   25.9083 H   0  0  0  0  0  0
  -22.0604   -2.7618   23.2844 H   0  0  0  0  0  0
  -22.4096  -11.9875   22.4771 H   0  0  0  0  0  0
  -21.1114  -13.1275   22.2656 H   0  0  0  0  0  0
  -24.6544  -15.8385   20.4806 H   0  0  0  0  0  0
  -26.2568  -15.5989   19.9970 H   0  0  0  0  0  0
  -26.7137  -32.5443   23.1083 H   0  0  0  0  0  0
  -25.0052  -33.9722   25.0404 H   0  0  0  0  0  0
  -22.7101  -31.2973   21.3966 H   0  0  0  0  0  0
  -23.3753  -35.9641   23.3296 H   0  0  0  0  0  0
  -24.3587  -36.8923   22.2058 H   0  0  0  0  0  0
  -23.7276  -37.6504   23.6664 H   0  0  0  0  0  0
  -26.0836  -31.5578   20.6028 H   0  0  0  0  0  0
  -26.8354  -30.8414   21.9986 H   0  0  0  0  0  0
  -28.1095  -28.9995   21.1797 H   0  0  0  0  0  0
  -25.9855  -25.9081   19.0362 H   0  0  0  0  0  0
  -23.9746  -27.2771   19.0391 H   0  0  0  0  0  0
  -23.7473  -30.5789   19.4007 H   0  0  0  0  0  0
  -22.7529  -29.2312   19.8611 H   0  0  0  0  0  0
  -25.1309  -36.1916   25.0816 H   0  0  0  0  0  0
  -20.9964  -28.3264   24.1422 H   0  0  0  0  0  0
  -20.5682  -26.2295   23.3637 H   0  0  0  0  0  0
  -21.6657  -26.7433   22.1250 H   0  0  0  0  0  0
  -19.6953  -25.6284   21.1263 H   0  0  0  0  0  0
  -19.6703  -27.3186   20.6772 H   0  0  0  0  0  0
  -17.4216  -26.6612   21.4044 H   0  0  0  0  0  0
  -18.0361  -26.0036   22.9046 H   0  0  0  0  0  0
  -19.7904  -30.7280   24.2276 H   0  0  0  0  0  0
  -17.4958  -31.6252   24.5138 H   0  0  0  0  0  0
  -15.5316  -30.2943   23.7635 H   0  0  0  0  0  0
  -15.8663  -28.0792   22.7031 H   0  0  0  0  0  0
  -24.5894  -30.7072   25.7783 H   0  0  0  0  0  0
  -24.8955  -32.2873   26.4901 H   0  0  0  0  0  0
  -25.8080  -30.8866   27.0204 H   0  0  0  0  0  0
  -26.2885  -29.6742   24.1221 H   0  0  0  0  0  0
  -27.4093  -29.7275   25.4622 H   0  0  0  0  0  0
  -27.8718  -30.4298   23.9304 H   0  0  0  0  0  0
  -27.2618  -33.3601   26.2076 H   0  0  0  0  0  0
  -28.3825  -32.6932   25.0297 H   0  0  0  0  0  0
  -28.0727  -31.8453   26.5376 H   0  0  0  0  0  0
  -28.2598  -38.0102   24.7497 H   0  0  0  0  0  0
  -28.1081  -36.2631   24.6301 H   0  0  0  0  0  0
  -27.2295  -37.1463   25.8866 H   0  0  0  0  0  0
  -20.9333  -29.8730   21.6900 H   0  0  0  0  0  0
  -26.0174  -38.2839   24.1394 H   0  0  0  0  0  0
  -27.6715  -16.9050   20.6177 H   0  0  0  0  0  0
  -27.0541  -19.2499   20.3373 H   0  0  0  0  0  0
  -31.1446  -20.4122   20.8785 H   0  0  0  0  0  0
  -26.0895  -22.4807   21.6065 H   0  0  0  0  0  0
  -26.6583  -22.8347   23.2258 H   0  0  0  0  0  0
  -27.4330  -20.6141   22.3708 H   0  0  0  0  0  0
  -28.7527  -21.6465   22.8479 H   0  0  0  0  0  0
  -32.3118  -17.3545   22.1383 H   0  0  0  0  0  0
  -32.7919  -18.8751   21.4048 H   0  0  0  0  0  0
  -32.6787  -17.4270   20.4091 H   0  0  0  0  0  0
  -28.8948  -22.7113   17.8624 H   0  0  0  0  0  0
  -30.4372  -23.0421   18.6575 H   0  0  0  0  0  0
  -29.8522  -21.3960   18.5162 H   0  0  0  0  0  0
  -27.9179  -25.1253   18.6305 H   0  0  0  0  0  0
  -29.5397  -25.1799   19.1713 H   0  0  0  0  0  0
  -29.2965  -16.4186   23.0446 H   0  0  0  0  0  0
  1 25  1  0  0  0
  1 30  2  0  0  0
  1 80  1  0  0  0
  2  3  1  0  0  0
  2 25  1  0  0  0
  2 89  1  0  0  0
  2 90  1  0  0  0
  3  4  1  0  0  0
  3 91  1  0  0  0
  3 92  1  0  0  0
  4  5  1  0  0  0
  4 93  1  0  0  0
  4 94  1  0  0  0
  5  6  1  0  0  0
  5 26  1  0  0  0
  5 95  1  0  0  0
  6 25  1  0  0  0
  6 96  1  0  0  0
  6 97  1  0  0  0
  7  8  2  0  0  0
  7 26  1  0  0  0
  7 29  1  0  0  0
  8  9  1  0  0  0
  8 22  1  0  0  0
  9 10  1  0  0  0
  9 27  2  0  0  0
 10 11  2  0  0  0
 10 15  1  0  0  0
 11 12  1  0  0  0
 11 98  1  0  0  0
 12 13  2  0  0  0
 12 99  1  0  0  0
 13 14  1  0  0  0
 13 31  1  0  0  0
 14 15  2  0  0  0
 14100  1  0  0  0
 15101  1  0  0  0
 16 17  2  0  0  0
 16 21  1  0  0  0
 16 31  1  0  0  0
 17 18  1  0  0  0
 17102  1  0  0  0
 18 19  2  0  0  0
 18103  1  0  0  0
 19 20  1  0  0  0
 19 24  1  0  0  0
 20 21  2  0  0  0
 20104  1  0  0  0
 21 23  1  0  0  0
 22 28  1  0  0  0
 22 32  2  0  0  0
 26 27  1  0  0  0
 28105  1  0  0  0
 28106  1  0  0  0
 29107  1  0  0  0
 29108  1  0  0  0
 33 34  1  0  0  0
 33 66  1  0  0  0
 33 70  2  0  0  0
 34 36  1  0  0  0
 34 59  1  0  0  0
 34109  1  0  0  0
 35 44  2  0  0  0
 35 45  1  0  0  0
 35 68  1  0  0  0
 36 56  1  0  0  0
 36110  1  0  0  0
 37 39  1  0  0  0
 37 47  1  0  0  0
 37 66  1  0  0  0
 37111  1  0  0  0
 38 43  2  0  0  0
 38 46  1  0  0  0
 38 47  1  0  0  0
 39 64  1  0  0  0
 39 67  2  0  0  0
 40 52  1  0  0  0
 40 53  2  0  0  0
 40 58  1  0  0  0
 41112  1  0  0  0
 41113  1  0  0  0
 41114  1  0  0  0
 41 48  1  0  0  0
 42 43  1  0  0  0
 42 66  1  0  0  0
 42115  1  0  0  0
 42116  1  0  0  0
 43 44  1  0  0  0
 44117  1  0  0  0
 45 46  2  0  0  0
 45118  1  0  0  0
 46119  1  0  0  0
 47120  1  0  0  0
 47121  1  0  0  0
 48 56  1  0  0  0
 48 65  1  0  0  0
 48122  1  0  0  0
 49 50  1  0  0  0
 49 53  1  0  0  0
 49 64  1  0  0  0
 49123  1  0  0  0
 50 51  1  0  0  0
 50124  1  0  0  0
 50125  1  0  0  0
 51 52  1  0  0  0
 51126  1  0  0  0
 51127  1  0  0  0
 52128  1  0  0  0
 52129  1  0  0  0
 53 54  1  0  0  0
 54 55  2  0  0  0
 54130  1  0  0  0
 55 57  1  0  0  0
 55131  1  0  0  0
 56 69  2  0  0  0
 57 58  2  0  0  0
 57132  1  0  0  0
 58133  1  0  0  0
 59 60  1  0  0  0
 59 61  1  0  0  0
 59 62  1  0  0  0
 60134  1  0  0  0
 60135  1  0  0  0
 60136  1  0  0  0
 61137  1  0  0  0
 61138  1  0  0  0
 61139  1  0  0  0
 62140  1  0  0  0
 62141  1  0  0  0
 62142  1  0  0  0
 63 65  1  0  0  0
 63143  1  0  0  0
 63144  1  0  0  0
 63145  1  0  0  0
 64146  1  0  0  0
 65147  1  0  0  0
 68 85  1  0  0  0
 71 72  2  0  0  0
 71 74  1  0  0  0
 71148  1  0  0  0
 72 76  1  0  0  0
 72149  1  0  0  0
 73 75  1  0  0  0
 73 76  2  0  0  0
 73150  1  0  0  0
 74 75  2  0  0  0
 74 80  1  0  0  0
 75 83  1  0  0  0
 76 87  1  0  0  0
 77 78  2  0  0  0
 77 79  1  0  0  0
 77 85  1  0  0  0
 78 84  1  0  0  0
 78 87  1  0  0  0
 79 81  1  0  0  0
 79 88  2  0  0  0
 80 86  2  0  0  0
 81 82  1  0  0  0
 81151  1  0  0  0
 81152  1  0  0  0
 82 87  1  0  0  0
 82153  1  0  0  0
 82154  1  0  0  0
 83155  1  0  0  0
 83156  1  0  0  0
 83157  1  0  0  0
 84158  1  0  0  0
 84159  1  0  0  0
 84160  1  0  0  0
 85161  1  0  0  0
 85162  1  0  0  0
 86163  1  0  0  0
M  ISO  4   1 100  68 101  80 100  85 101
M  END
> <chiral flag>
0

> <version>
0

> <s_m_source_file>
/data/baiqing/PycharmProjects/Reinvent-master-3.2/result/LINK_invent/BTK/process_docking_weight1_custom_product_contain_oxygen_bond_distance_aromatic_linkinvent_7_9_3/rearranged_h_0109.sdf

> <i_m_source_file_index>
79

> <r_mmod_Potential_Energy-OPLS-2005>
294.240386962891

> <r_mmod_Stretch_Energy-OPLS-2005>
94.8882751464844

> <r_mmod_Bend_Energy-OPLS-2005>
162.972366333008

> <r_mmod_Torsional_Energy-OPLS-2005>
233.858535766602

> <r_mmod_Improper_Torsional_Energy-OPLS-2005>
6.7254319190979

> <r_mmod_Van_der_Waal_Energy-OPLS-2005>
156.509384155273

> <r_mmod_Electrostatic_Energy-OPLS-2005>
-190.524703979492

> <r_mmod_Solvation_Energy-OPLS-2005>
-212.1767578125

> <b_mmod_Minimization_Converged-OPLS-2005>
0

> <r_mmod_RMS_Derivative-OPLS-2005>
2.60388731956482

$$$$
79
                    3D
 Structure written by MMmdl.
165174  0  0  1  0            999 V2000
  -30.7257  -14.5425   20.6252 C   0  0  0  0  0  0
  -30.4247  -12.3742   19.4470 C   0  0  0  0  0  0
  -29.5006  -12.5251   18.2254 C   0  0  0  0  0  0
  -28.0295  -12.3530   18.6428 C   0  0  0  0  0  0
  -27.6591  -13.2226   19.8728 C   0  0  2  0  0  0
  -28.6973  -13.0710   21.0060 C   0  0  0  0  0  0
  -25.2568  -13.8220   20.5686 C   0  0  0  0  0  0
  -24.1842  -13.0458   20.9187 C   0  0  0  0  0  0
  -24.6424  -11.6941   20.8736 C   0  0  0  0  0  0
  -23.9098  -10.4310   21.0387 C   0  0  0  0  0  0
  -24.3652   -9.4223   21.9155 C   0  0  0  0  0  0
  -23.6326   -8.2264   22.0746 C   0  0  0  0  0  0
  -22.4297   -8.0306   21.3544 C   0  0  0  0  0  0
  -21.9937   -9.0270   20.4635 C   0  0  0  0  0  0
  -22.7274  -10.2143   20.3024 C   0  0  0  0  0  0
  -21.6862   -6.0737   22.5262 C   0  0  0  0  0  0
  -21.4024   -6.5628   23.8198 C   0  0  0  0  0  0
  -21.3670   -5.6781   24.9163 C   0  0  0  0  0  0
  -21.6059   -4.3049   24.7211 C   0  0  0  0  0  0
  -21.8831   -3.8139   23.4332 C   0  0  0  0  0  0
  -21.9208   -4.6965   22.3385 C   0  0  0  0  0  0
  -22.7861  -13.5237   21.1848 C   0  0  0  0  0  0
  -22.1672   -4.2151   21.0964 F   0  0  0  0  0  0
  -21.5635   -3.4528   25.7726 F   0  0  0  0  0  0
  -30.0264  -13.3776   20.4557 N   0  0  0  0  0  0
  -26.3021  -12.9414   20.3359 N   0  0  0  0  0  0
  -25.9352  -11.6559   20.5787 N   0  0  0  0  0  0
  -22.0540  -12.8171   22.0407 N   0  0  0  0  0  0
  -25.4270  -15.1934   20.4131 N   0  0  0  0  0  0
  -31.7675  -14.7666   19.9984 O   0  0  0  0  0  0
  -21.6660   -6.8899   21.4233 O   0  0  0  0  0  0
  -22.3516  -14.5536   20.6732 O   0  0  0  0  0  0
  -24.6178  -31.8653   23.2041 C   0  0  0  0  0  0
  -25.9054  -32.4778   23.8360 C   0  0  1  0  0  0
  -27.2254  -27.3656   20.1075 C   0  0  0  0  0  0
  -25.5901  -33.8586   24.2297 N   0  0  0  0  0  0
  -23.4092  -30.4832   21.5506 C   0  0  2  0  0  0
  -24.8554  -28.9468   20.1064 C   0  0  0  0  0  0
  -22.7449  -29.4629   22.5022 C   0  0  0  0  0  0
  -18.0250  -28.1377   22.8489 C   0  0  0  0  0  0
  -24.1483  -36.7327   23.2654 C   0  0  0  0  0  0
  -25.9453  -30.8004   21.3757 C   0  0  0  0  0  0
  -26.0152  -29.4323   20.7227 C   0  0  0  0  0  0
  -27.1934  -28.6416   20.7328 C   0  0  0  0  0  0
  -26.0554  -26.9317   19.4447 C   0  0  0  0  0  0
  -24.8744  -27.6967   19.4657 C   0  0  0  0  0  0
  -23.6146  -29.8122   20.1658 C   0  0  0  0  0  0
  -25.4088  -36.3097   24.0354 C   0  0  1  0  0  0
  -20.5845  -28.3670   23.1312 C   0  0  2  0  0  0
  -20.6743  -26.9402   22.5410 C   0  0  0  0  0  0
  -19.5734  -26.6375   21.5203 C   0  0  0  0  0  0
  -18.1902  -26.7925   22.1598 C   0  0  0  0  0  0
  -19.1508  -28.8850   23.2866 C   0  0  0  0  0  0
  -18.9432  -30.1454   23.8883 C   0  0  0  0  0  0
  -17.6433  -30.6584   24.0571 C   0  0  0  0  0  0
  -25.9032  -34.9464   23.5138 C   0  0  0  0  0  0
  -16.5325  -29.9076   23.6349 C   0  0  0  0  0  0
  -16.7239  -28.6504   23.0362 C   0  0  0  0  0  0
  -26.4455  -31.6594   25.0742 C   0  0  0  0  0  0
  -25.3695  -31.3704   26.1485 C   0  0  0  0  0  0
  -27.0356  -30.3049   24.6186 C   0  0  0  0  0  0
  -27.6035  -32.4362   25.7466 C   0  0  0  0  0  0
  -27.5589  -37.1768   24.8466 C   0  0  0  0  0  0
  -21.4182  -29.3020   22.3749 N   0  0  0  0  0  0
  -26.4292  -37.3763   23.9431 N   0  0  0  0  0  0
  -24.6760  -31.0662   22.1009 N   0  0  0  0  0  0
  -23.4190  -28.8176   23.3094 O   0  0  0  0  0  0
  -28.3735  -26.5835   20.2072 O   0  0  0  0  0  0
  -26.5604  -34.8934   22.4700 O   0  0  0  0  0  0
  -23.5354  -32.1477   23.7388 O   0  0  0  0  0  0
  -27.8164  -17.7183   22.9666 C   0  0  0  0  0  0
  -28.0114  -18.8780   22.2018 C   0  0  0  0  0  0
  -28.5488  -16.5536   22.6965 C   0  0  0  0  0  0
  -29.6210  -17.6825   20.8192 C   0  0  0  0  0  0
  -28.8859  -18.8961   21.0879 C   0  0  0  0  0  0
  -29.4893  -16.5114   21.6474 C   0  0  0  0  0  0
  -28.1606  -23.9826   20.1105 C   0  0  0  0  0  0
  -28.8665  -22.7958   20.0015 C   0  0  0  0  0  0
  -27.0045  -21.4810   20.6930 C   0  0  0  0  0  0
  -26.7876  -23.9895   20.7690 C   0  0  0  0  0  0
  -26.4800  -22.6752   21.4903 C   0  0  0  0  0  0
  -30.2206  -22.7397   19.2895 C   0  0  0  0  0  0
  -31.2901  -15.2953   22.8088 C   0  0  0  0  0  0
  -29.1059  -20.2027   20.2286 C   0  0  0  0  0  0
  -28.5604  -25.3497   19.4556 C   0  0  0  0  0  0
  -28.3323  -21.5041   20.4179 N   0  0  0  0  0  0
  -30.3726  -15.3576   21.6622 N   0  0  0  0  0  0
  -26.2414  -20.5508   20.4165 O   0  0  0  0  0  0
  -31.4662  -12.4810   19.1428 H   0  0  0  0  0  0
  -30.3469  -11.3736   19.8742 H   0  0  0  0  0  0
  -29.7613  -11.7905   17.4623 H   0  0  0  0  0  0
  -29.6452  -13.5075   17.7751 H   0  0  0  0  0  0
  -27.8745  -11.2988   18.8794 H   0  0  0  0  0  0
  -27.3699  -12.5795   17.8048 H   0  0  0  0  0  0
  -27.6873  -14.2615   19.5437 H   0  0  0  0  0  0
  -28.6924  -12.0582   21.4095 H   0  0  0  0  0  0
  -28.4340  -13.7226   21.8386 H   0  0  0  0  0  0
  -25.2813   -9.5699   22.4701 H   0  0  0  0  0  0
  -24.0041   -7.4656   22.7457 H   0  0  0  0  0  0
  -21.0871   -8.8802   19.8926 H   0  0  0  0  0  0
  -22.3753  -10.9681   19.6121 H   0  0  0  0  0  0
  -21.1997   -7.6130   23.9713 H   0  0  0  0  0  0
  -21.1487   -6.0497   25.9072 H   0  0  0  0  0  0
  -22.0603   -2.7603   23.2821 H   0  0  0  0  0  0
  -22.4199  -11.9816   22.4719 H   0  0  0  0  0  0
  -21.1158  -13.1150   22.2665 H   0  0  0  0  0  0
  -24.6689  -15.8552   20.5455 H   0  0  0  0  0  0
  -26.2974  -15.6401   20.1519 H   0  0  0  0  0  0
  -26.7143  -32.5487   23.1128 H   0  0  0  0  0  0
  -25.0044  -33.9721   25.0443 H   0  0  0  0  0  0
  -22.6982  -31.2995   21.4050 H   0  0  0  0  0  0
  -23.3751  -35.9659   23.3293 H   0  0  0  0  0  0
  -24.3604  -36.8989   22.2088 H   0  0  0  0  0  0
  -23.7224  -37.6519   23.6682 H   0  0  0  0  0  0
  -26.0662  -31.5591   20.6017 H   0  0  0  0  0  0
  -26.8342  -30.8510   21.9945 H   0  0  0  0  0  0
  -28.0776  -28.9933   21.2453 H   0  0  0  0  0  0
  -26.0232  -25.9924   18.9176 H   0  0  0  0  0  0
  -23.9868  -27.3218   18.9722 H   0  0  0  0  0  0
  -23.7034  -30.5819   19.3981 H   0  0  0  0  0  0
  -22.7380  -29.2224   19.8871 H   0  0  0  0  0  0
  -25.1204  -36.1992   25.0836 H   0  0  0  0  0  0
  -20.9867  -28.3232   24.1465 H   0  0  0  0  0  0
  -20.5638  -26.2266   23.3587 H   0  0  0  0  0  0
  -21.6610  -26.7442   22.1204 H   0  0  0  0  0  0
  -19.6917  -25.6281   21.1253 H   0  0  0  0  0  0
  -19.6710  -27.3185   20.6741 H   0  0  0  0  0  0
  -17.4156  -26.6707   21.3997 H   0  0  0  0  0  0
  -18.0285  -26.0050   22.8976 H   0  0  0  0  0  0
  -19.7919  -30.7273   24.2247 H   0  0  0  0  0  0
  -17.4991  -31.6262   24.5189 H   0  0  0  0  0  0
  -15.5327  -30.2961   23.7710 H   0  0  0  0  0  0
  -15.8644  -28.0822   22.7092 H   0  0  0  0  0  0
  -24.5862  -30.7055   25.7809 H   0  0  0  0  0  0
  -24.8859  -32.2848   26.4941 H   0  0  0  0  0  0
  -25.8018  -30.8868   27.0252 H   0  0  0  0  0  0
  -26.2966  -29.6715   24.1282 H   0  0  0  0  0  0
  -27.4187  -29.7358   25.4659 H   0  0  0  0  0  0
  -27.8723  -30.4388   23.9333 H   0  0  0  0  0  0
  -27.2691  -33.3705   26.1983 H   0  0  0  0  0  0
  -28.3820  -32.6886   25.0250 H   0  0  0  0  0  0
  -28.0727  -31.8545   26.5409 H   0  0  0  0  0  0
  -28.2533  -38.0118   24.7527 H   0  0  0  0  0  0
  -28.1125  -36.2641   24.6218 H   0  0  0  0  0  0
  -27.2318  -37.1356   25.8866 H   0  0  0  0  0  0
  -20.9390  -29.8777   21.6979 H   0  0  0  0  0  0
  -26.0207  -38.2853   24.1408 H   0  0  0  0  0  0
  -27.1287  -17.7397   23.7989 H   0  0  0  0  0  0
  -27.4697  -19.7539   22.5192 H   0  0  0  0  0  0
  -28.4314  -15.7037   23.3541 H   0  0  0  0  0  0
  -30.3476  -17.6803   20.0167 H   0  0  0  0  0  0
  -26.0285  -24.1508   20.0061 H   0  0  0  0  0  0
  -26.7201  -24.8170   21.4774 H   0  0  0  0  0  0
  -26.9875  -22.6697   22.4553 H   0  0  0  0  0  0
  -25.4129  -22.5760   21.6934 H   0  0  0  0  0  0
  -30.3025  -23.4826   18.4977 H   0  0  0  0  0  0
  -30.4154  -21.8006   18.7785 H   0  0  0  0  0  0
  -31.0239  -22.9189   20.0054 H   0  0  0  0  0  0
  -30.8545  -15.7194   23.7147 H   0  0  0  0  0  0
  -32.2050  -15.8506   22.5946 H   0  0  0  0  0  0
  -31.5719  -14.2676   23.0494 H   0  0  0  0  0  0
  -29.0053  -19.9282   19.1781 H   0  0  0  0  0  0
  -30.1603  -20.4164   20.3968 H   0  0  0  0  0  0
  -28.0899  -25.4273   18.4758 H   0  0  0  0  0  0
  -29.6259  -25.3390   19.2442 H   0  0  0  0  0  0
  1 25  1  0  0  0
  1 30  2  0  0  0
  1 87  1  0  0  0
  2  3  1  0  0  0
  2 25  1  0  0  0
  2 89  1  0  0  0
  2 90  1  0  0  0
  3  4  1  0  0  0
  3 91  1  0  0  0
  3 92  1  0  0  0
  4  5  1  0  0  0
  4 93  1  0  0  0
  4 94  1  0  0  0
  5  6  1  0  0  0
  5 26  1  0  0  0
  5 95  1  0  0  0
  6 25  1  0  0  0
  6 96  1  0  0  0
  6 97  1  0  0  0
  7  8  2  0  0  0
  7 26  1  0  0  0
  7 29  1  0  0  0
  8  9  1  0  0  0
  8 22  1  0  0  0
  9 10  1  0  0  0
  9 27  2  0  0  0
 10 11  2  0  0  0
 10 15  1  0  0  0
 11 12  1  0  0  0
 11 98  1  0  0  0
 12 13  2  0  0  0
 12 99  1  0  0  0
 13 14  1  0  0  0
 13 31  1  0  0  0
 14 15  2  0  0  0
 14100  1  0  0  0
 15101  1  0  0  0
 16 17  2  0  0  0
 16 21  1  0  0  0
 16 31  1  0  0  0
 17 18  1  0  0  0
 17102  1  0  0  0
 18 19  2  0  0  0
 18103  1  0  0  0
 19 20  1  0  0  0
 19 24  1  0  0  0
 20 21  2  0  0  0
 20104  1  0  0  0
 21 23  1  0  0  0
 22 28  1  0  0  0
 22 32  2  0  0  0
 26 27  1  0  0  0
 28105  1  0  0  0
 28106  1  0  0  0
 29107  1  0  0  0
 29108  1  0  0  0
 33 34  1  0  0  0
 33 66  1  0  0  0
 33 70  2  0  0  0
 34 36  1  0  0  0
 34 59  1  0  0  0
 34109  1  0  0  0
 35 44  2  0  0  0
 35 45  1  0  0  0
 35 68  1  0  0  0
 36 56  1  0  0  0
 36110  1  0  0  0
 37 39  1  0  0  0
 37 47  1  0  0  0
 37 66  1  0  0  0
 37111  1  0  0  0
 38 43  2  0  0  0
 38 46  1  0  0  0
 38 47  1  0  0  0
 39 64  1  0  0  0
 39 67  2  0  0  0
 40 52  1  0  0  0
 40 53  2  0  0  0
 40 58  1  0  0  0
 41112  1  0  0  0
 41113  1  0  0  0
 41114  1  0  0  0
 41 48  1  0  0  0
 42 43  1  0  0  0
 42 66  1  0  0  0
 42115  1  0  0  0
 42116  1  0  0  0
 43 44  1  0  0  0
 44117  1  0  0  0
 45 46  2  0  0  0
 45118  1  0  0  0
 46119  1  0  0  0
 47120  1  0  0  0
 47121  1  0  0  0
 48 56  1  0  0  0
 48 65  1  0  0  0
 48122  1  0  0  0
 49 50  1  0  0  0
 49 53  1  0  0  0
 49 64  1  0  0  0
 49123  1  0  0  0
 50 51  1  0  0  0
 50124  1  0  0  0
 50125  1  0  0  0
 51 52  1  0  0  0
 51126  1  0  0  0
 51127  1  0  0  0
 52128  1  0  0  0
 52129  1  0  0  0
 53 54  1  0  0  0
 54 55  2  0  0  0
 54130  1  0  0  0
 55 57  1  0  0  0
 55131  1  0  0  0
 56 69  2  0  0  0
 57 58  2  0  0  0
 57132  1  0  0  0
 58133  1  0  0  0
 59 60  1  0  0  0
 59 61  1  0  0  0
 59 62  1  0  0  0
 60134  1  0  0  0
 60135  1  0  0  0
 60136  1  0  0  0
 61137  1  0  0  0
 61138  1  0  0  0
 61139  1  0  0  0
 62140  1  0  0  0
 62141  1  0  0  0
 62142  1  0  0  0
 63 65  1  0  0  0
 63143  1  0  0  0
 63144  1  0  0  0
 63145  1  0  0  0
 64146  1  0  0  0
 65147  1  0  0  0
 68 85  1  0  0  0
 71 72  2  0  0  0
 71 73  1  0  0  0
 71148  1  0  0  0
 72 75  1  0  0  0
 72149  1  0  0  0
 73 76  2  0  0  0
 73150  1  0  0  0
 74 75  2  0  0  0
 74 76  1  0  0  0
 74151  1  0  0  0
 75 84  1  0  0  0
 76 87  1  0  0  0
 77 78  2  0  0  0
 77 80  1  0  0  0
 77 85  1  0  0  0
 78 82  1  0  0  0
 78 86  1  0  0  0
 79 81  1  0  0  0
 79 86  1  0  0  0
 79 88  2  0  0  0
 80 81  1  0  0  0
 80152  1  0  0  0
 80153  1  0  0  0
 81154  1  0  0  0
 81155  1  0  0  0
 82156  1  0  0  0
 82157  1  0  0  0
 82158  1  0  0  0
 83 87  1  0  0  0
 83159  1  0  0  0
 83160  1  0  0  0
 83161  1  0  0  0
 84 86  1  0  0  0
 84162  1  0  0  0
 84163  1  0  0  0
 85164  1  0  0  0
 85165  1  0  0  0
M  ISO  4   1 100  68 101  85 101  87 100
M  END
> <chiral flag>
0

> <version>
0

> <s_m_source_file>
/data/baiqing/PycharmProjects/Reinvent-master-3.2/result/LINK_invent/BTK/process_docking_weight1_custom_product_contain_oxygen_bond_distance_aromatic_linkinvent_7_9_3/rearranged_h_0109.sdf

> <i_m_source_file_index>
80

> <r_mmod_Potential_Energy-OPLS-2005>
318.564239501953

> <r_mmod_Stretch_Energy-OPLS-2005>
85.1764678955078

> <r_mmod_Bend_Energy-OPLS-2005>
157.161422729492

> <r_mmod_Torsional_Energy-OPLS-2005>
313.925689697266

> <r_mmod_Improper_Torsional_Energy-OPLS-2005>
8.06753349304199

> <r_mmod_Van_der_Waal_Energy-OPLS-2005>
177.614807128906

> <r_mmod_Electrostatic_Energy-OPLS-2005>
-260.231719970703

> <r_mmod_Solvation_Energy-OPLS-2005>
-192.697845458984

> <b_mmod_Minimization_Converged-OPLS-2005>
0

> <r_mmod_RMS_Derivative-OPLS-2005>
3.62976741790771

$$$$
80
                    3D
 Structure written by MMmdl.
168177  0  0  1  0            999 V2000
  -30.6369  -14.6916   20.4310 C   0  0  0  0  0  0
  -30.4307  -12.4110   19.4599 C   0  0  0  0  0  0
  -29.5049  -12.4566   18.2252 C   0  0  0  0  0  0
  -28.0260  -12.3157   18.6423 C   0  0  0  0  0  0
  -27.6374  -13.2154   19.8476 C   0  0  2  0  0  0
  -28.6904  -13.1580   20.9743 C   0  0  0  0  0  0
  -25.2531  -13.8158   20.5730 C   0  0  0  0  0  0
  -24.1798  -13.0427   20.9218 C   0  0  0  0  0  0
  -24.6366  -11.6896   20.8765 C   0  0  0  0  0  0
  -23.9038  -10.4283   21.0419 C   0  0  0  0  0  0
  -24.3597   -9.4198   21.9192 C   0  0  0  0  0  0
  -23.6279   -8.2231   22.0755 C   0  0  0  0  0  0
  -22.4266   -8.0269   21.3538 C   0  0  0  0  0  0
  -21.9896   -9.0244   20.4646 C   0  0  0  0  0  0
  -22.7215  -10.2128   20.3063 C   0  0  0  0  0  0
  -21.6852   -6.0724   22.5276 C   0  0  0  0  0  0
  -21.4013   -6.5632   23.8207 C   0  0  0  0  0  0
  -21.3661   -5.6789   24.9172 C   0  0  0  0  0  0
  -21.6048   -4.3050   24.7228 C   0  0  0  0  0  0
  -21.8823   -3.8139   23.4349 C   0  0  0  0  0  0
  -21.9194   -4.6952   22.3402 C   0  0  0  0  0  0
  -22.7828  -13.5229   21.1870 C   0  0  0  0  0  0
  -22.1663   -4.2138   21.0980 F   0  0  0  0  0  0
  -21.5630   -3.4535   25.7744 F   0  0  0  0  0  0
  -29.9910  -13.4813   20.3761 N   0  0  0  0  0  0
  -26.2926  -12.9316   20.3322 N   0  0  0  0  0  0
  -25.9289  -11.6479   20.5788 N   0  0  0  0  0  0
  -22.0468  -12.8221   22.0426 N   0  0  0  0  0  0
  -25.4275  -15.1879   20.4168 N   0  0  0  0  0  0
  -31.8521  -14.7603   20.2269 O   0  0  0  0  0  0
  -21.6635   -6.8865   21.4235 O   0  0  0  0  0  0
  -22.3520  -14.5533   20.6714 O   0  0  0  0  0  0
  -24.6254  -31.8590   23.1997 C   0  0  0  0  0  0
  -25.9101  -32.4773   23.8334 C   0  0  1  0  0  0
  -27.2264  -27.3172   20.1358 C   0  0  0  0  0  0
  -25.5913  -33.8571   24.2269 N   0  0  0  0  0  0
  -23.4192  -30.4796   21.5419 C   0  0  2  0  0  0
  -24.8677  -28.9264   20.1146 C   0  0  0  0  0  0
  -22.7464  -29.4621   22.4935 C   0  0  0  0  0  0
  -18.0282  -28.1383   22.8483 C   0  0  0  0  0  0
  -24.1488  -36.7295   23.2640 C   0  0  0  0  0  0
  -25.9576  -30.7914   21.3678 C   0  0  0  0  0  0
  -26.0342  -29.4152   20.7169 C   0  0  0  0  0  0
  -27.2193  -28.6238   20.7114 C   0  0  0  0  0  0
  -26.0419  -26.8722   19.5137 C   0  0  0  0  0  0
  -24.8735  -27.6612   19.5019 C   0  0  0  0  0  0
  -23.6349  -29.8072   20.1594 C   0  0  0  0  0  0
  -25.4110  -36.3081   24.0332 C   0  0  1  0  0  0
  -20.5879  -28.3689   23.1284 C   0  0  2  0  0  0
  -20.6773  -26.9415   22.5407 C   0  0  0  0  0  0
  -19.5754  -26.6386   21.5205 C   0  0  0  0  0  0
  -18.1932  -26.7928   22.1617 C   0  0  0  0  0  0
  -19.1533  -28.8851   23.2880 C   0  0  0  0  0  0
  -18.9458  -30.1449   23.8905 C   0  0  0  0  0  0
  -17.6461  -30.6590   24.0559 C   0  0  0  0  0  0
  -25.9045  -34.9450   23.5102 C   0  0  0  0  0  0
  -16.5352  -29.9089   23.6325 C   0  0  0  0  0  0
  -16.7270  -28.6500   23.0357 C   0  0  0  0  0  0
  -26.4487  -31.6583   25.0705 C   0  0  0  0  0  0
  -25.3720  -31.3716   26.1434 C   0  0  0  0  0  0
  -27.0331  -30.3012   24.6143 C   0  0  0  0  0  0
  -27.6051  -32.4312   25.7481 C   0  0  0  0  0  0
  -27.5578  -37.1801   24.8463 C   0  0  0  0  0  0
  -21.4180  -29.3044   22.3680 N   0  0  0  0  0  0
  -26.4289  -37.3775   23.9410 N   0  0  0  0  0  0
  -24.6862  -31.0604   22.0941 N   0  0  0  0  0  0
  -23.4190  -28.8174   23.3025 O   0  0  0  0  0  0
  -28.3549  -26.4910   20.1504 O   0  0  0  0  0  0
  -26.5617  -34.8922   22.4671 O   0  0  0  0  0  0
  -23.5420  -32.1382   23.7332 O   0  0  0  0  0  0
  -28.6664  -20.7501   20.8776 C   0  0  0  0  0  0
  -30.8576  -20.6644   19.9258 C   0  0  0  0  0  0
  -28.7238  -19.3289   21.1344 C   0  0  0  0  0  0
  -29.8943  -18.5589   20.8183 C   0  0  0  0  0  0
  -29.7454  -21.4778   20.3014 C   0  0  0  0  0  0
  -30.9360  -19.2697   20.1768 C   0  0  0  0  0  0
  -30.9339  -23.6159   19.8983 C   0  0  0  0  0  0
  -27.5937  -18.6594   21.8094 C   0  0  0  0  0  0
  -26.6380  -19.2551   22.5457 C   0  0  0  0  0  0
  -30.7737  -24.7377   18.8852 C   0  0  0  0  0  0
  -29.3490  -24.5052   18.3882 C   0  0  0  0  0  0
  -28.6762  -23.8752   19.6142 C   0  0  2  0  0  0
  -25.4939  -18.5163   23.2061 C   0  0  0  0  0  0
  -29.3034  -16.2505   19.1294 C   0  0  0  0  0  0
  -30.1520  -17.0571   21.2855 C   0  0  0  0  0  0
  -28.2264  -25.0749   20.5876 C   0  0  0  0  0  0
  -29.7717  -22.9557   20.1084 N   0  0  0  0  0  0
  -29.8669  -15.8467   20.4228 N   0  0  0  0  0  0
  -32.0179  -23.3876   20.4443 O   0  0  0  0  0  0
  -32.0676  -18.6127   19.8266 F   0  0  0  0  0  0
  -31.4715  -12.5300   19.1538 H   0  0  0  0  0  0
  -30.3694  -11.4403   19.9547 H   0  0  0  0  0  0
  -29.7685  -11.6556   17.5331 H   0  0  0  0  0  0
  -29.6563  -13.3848   17.6751 H   0  0  0  0  0  0
  -27.8631  -11.2689   18.9006 H   0  0  0  0  0  0
  -27.3731  -12.5195   17.7930 H   0  0  0  0  0  0
  -27.6109  -14.2313   19.4662 H   0  0  0  0  0  0
  -28.7171  -12.1697   21.4351 H   0  0  0  0  0  0
  -28.4425  -13.8660   21.7673 H   0  0  0  0  0  0
  -25.2742   -9.5677   22.4764 H   0  0  0  0  0  0
  -23.9994   -7.4622   22.7471 H   0  0  0  0  0  0
  -21.0830   -8.8756   19.8948 H   0  0  0  0  0  0
  -22.3672  -10.9668   19.6173 H   0  0  0  0  0  0
  -21.2001   -7.6139   23.9704 H   0  0  0  0  0  0
  -21.1482   -6.0521   25.9074 H   0  0  0  0  0  0
  -22.0601   -2.7601   23.2856 H   0  0  0  0  0  0
  -22.4080  -11.9880   22.4809 H   0  0  0  0  0  0
  -21.1083  -13.1240   22.2622 H   0  0  0  0  0  0
  -24.6687  -15.8487   20.5395 H   0  0  0  0  0  0
  -26.2899  -15.6239   20.1178 H   0  0  0  0  0  0
  -26.7170  -32.5451   23.1088 H   0  0  0  0  0  0
  -25.0061  -33.9707   25.0414 H   0  0  0  0  0  0
  -22.7133  -31.2998   21.3947 H   0  0  0  0  0  0
  -23.3750  -35.9627   23.3294 H   0  0  0  0  0  0
  -24.3583  -36.8920   22.2056 H   0  0  0  0  0  0
  -23.7242  -37.6495   23.6667 H   0  0  0  0  0  0
  -26.0815  -31.5504   20.5943 H   0  0  0  0  0  0
  -26.8411  -30.8489   21.9920 H   0  0  0  0  0  0
  -28.1188  -28.9957   21.1818 H   0  0  0  0  0  0
  -26.0167  -25.9009   19.0405 H   0  0  0  0  0  0
  -23.9802  -27.2820   19.0254 H   0  0  0  0  0  0
  -23.7536  -30.5797   19.3989 H   0  0  0  0  0  0
  -22.7557  -29.2344   19.8594 H   0  0  0  0  0  0
  -25.1290  -36.1933   25.0824 H   0  0  0  0  0  0
  -20.9964  -28.3267   24.1407 H   0  0  0  0  0  0
  -20.5672  -26.2302   23.3604 H   0  0  0  0  0  0
  -21.6646  -26.7449   22.1207 H   0  0  0  0  0  0
  -19.6921  -25.6295   21.1242 H   0  0  0  0  0  0
  -19.6697  -27.3188   20.6728 H   0  0  0  0  0  0
  -17.4201  -26.6669   21.4021 H   0  0  0  0  0  0
  -18.0342  -26.0068   22.9011 H   0  0  0  0  0  0
  -19.7934  -30.7254   24.2296 H   0  0  0  0  0  0
  -17.5019  -31.6276   24.5148 H   0  0  0  0  0  0
  -15.5355  -30.2998   23.7645 H   0  0  0  0  0  0
  -15.8667  -28.0816   22.7087 H   0  0  0  0  0  0
  -24.5901  -30.7058   25.7762 H   0  0  0  0  0  0
  -24.8901  -32.2877   26.4856 H   0  0  0  0  0  0
  -25.8044  -30.8899   27.0211 H   0  0  0  0  0  0
  -26.2898  -29.6767   24.1173 H   0  0  0  0  0  0
  -27.4048  -29.7265   25.4636 H   0  0  0  0  0  0
  -27.8757  -30.4311   23.9347 H   0  0  0  0  0  0
  -27.2667  -33.3614   26.2058 H   0  0  0  0  0  0
  -28.3869  -32.6862   25.0313 H   0  0  0  0  0  0
  -28.0711  -31.8431   26.5398 H   0  0  0  0  0  0
  -28.2589  -38.0103   24.7510 H   0  0  0  0  0  0
  -28.1079  -36.2632   24.6287 H   0  0  0  0  0  0
  -27.2296  -37.1448   25.8866 H   0  0  0  0  0  0
  -20.9365  -29.8762   21.6881 H   0  0  0  0  0  0
  -26.0171  -38.2852   24.1407 H   0  0  0  0  0  0
  -27.7845  -21.3093   21.1531 H   0  0  0  0  0  0
  -31.7188  -21.1022   19.4447 H   0  0  0  0  0  0
  -27.5258  -17.5889   21.6757 H   0  0  0  0  0  0
  -26.6524  -20.3225   22.7113 H   0  0  0  0  0  0
  -31.5105  -24.6730   18.0846 H   0  0  0  0  0  0
  -30.8796  -25.6990   19.3885 H   0  0  0  0  0  0
  -29.3548  -23.7970   17.5580 H   0  0  0  0  0  0
  -28.8631  -25.4119   18.0280 H   0  0  0  0  0  0
  -27.8032  -23.2975   19.3086 H   0  0  0  0  0  0
  -25.5195  -17.4499   22.9780 H   0  0  0  0  0  0
  -24.5392  -18.9170   22.8644 H   0  0  0  0  0  0
  -25.5472  -18.6359   24.2888 H   0  0  0  0  0  0
  -28.3365  -16.7353   19.2657 H   0  0  0  0  0  0
  -29.1592  -15.4189   18.4425 H   0  0  0  0  0  0
  -29.9682  -16.9492   18.6206 H   0  0  0  0  0  0
  -29.6262  -16.8995   22.2268 H   0  0  0  0  0  0
  -31.2037  -17.0105   21.5739 H   0  0  0  0  0  0
  -28.8138  -25.0037   21.5036 H   0  0  0  0  0  0
  -27.2070  -24.8777   20.9216 H   0  0  0  0  0  0
  1 25  1  0  0  0
  1 30  2  0  0  0
  1 88  1  0  0  0
  2  3  1  0  0  0
  2 25  1  0  0  0
  2 91  1  0  0  0
  2 92  1  0  0  0
  3  4  1  0  0  0
  3 93  1  0  0  0
  3 94  1  0  0  0
  4  5  1  0  0  0
  4 95  1  0  0  0
  4 96  1  0  0  0
  5  6  1  0  0  0
  5 26  1  0  0  0
  5 97  1  0  0  0
  6 25  1  0  0  0
  6 98  1  0  0  0
  6 99  1  0  0  0
  7  8  2  0  0  0
  7 26  1  0  0  0
  7 29  1  0  0  0
  8  9  1  0  0  0
  8 22  1  0  0  0
  9 10  1  0  0  0
  9 27  2  0  0  0
 10 11  2  0  0  0
 10 15  1  0  0  0
 11 12  1  0  0  0
 11100  1  0  0  0
 12 13  2  0  0  0
 12101  1  0  0  0
 13 14  1  0  0  0
 13 31  1  0  0  0
 14 15  2  0  0  0
 14102  1  0  0  0
 15103  1  0  0  0
 16 17  2  0  0  0
 16 21  1  0  0  0
 16 31  1  0  0  0
 17 18  1  0  0  0
 17104  1  0  0  0
 18 19  2  0  0  0
 18105  1  0  0  0
 19 20  1  0  0  0
 19 24  1  0  0  0
 20 21  2  0  0  0
 20106  1  0  0  0
 21 23  1  0  0  0
 22 28  1  0  0  0
 22 32  2  0  0  0
 26 27  1  0  0  0
 28107  1  0  0  0
 28108  1  0  0  0
 29109  1  0  0  0
 29110  1  0  0  0
 33 34  1  0  0  0
 33 66  1  0  0  0
 33 70  2  0  0  0
 34 36  1  0  0  0
 34 59  1  0  0  0
 34111  1  0  0  0
 35 44  2  0  0  0
 35 45  1  0  0  0
 35 68  1  0  0  0
 36 56  1  0  0  0
 36112  1  0  0  0
 37 39  1  0  0  0
 37 47  1  0  0  0
 37 66  1  0  0  0
 37113  1  0  0  0
 38 43  2  0  0  0
 38 46  1  0  0  0
 38 47  1  0  0  0
 39 64  1  0  0  0
 39 67  2  0  0  0
 40 52  1  0  0  0
 40 53  2  0  0  0
 40 58  1  0  0  0
 41114  1  0  0  0
 41115  1  0  0  0
 41116  1  0  0  0
 41 48  1  0  0  0
 42 43  1  0  0  0
 42 66  1  0  0  0
 42117  1  0  0  0
 42118  1  0  0  0
 43 44  1  0  0  0
 44119  1  0  0  0
 45 46  2  0  0  0
 45120  1  0  0  0
 46121  1  0  0  0
 47122  1  0  0  0
 47123  1  0  0  0
 48 56  1  0  0  0
 48 65  1  0  0  0
 48124  1  0  0  0
 49 50  1  0  0  0
 49 53  1  0  0  0
 49 64  1  0  0  0
 49125  1  0  0  0
 50 51  1  0  0  0
 50126  1  0  0  0
 50127  1  0  0  0
 51 52  1  0  0  0
 51128  1  0  0  0
 51129  1  0  0  0
 52130  1  0  0  0
 52131  1  0  0  0
 53 54  1  0  0  0
 54 55  2  0  0  0
 54132  1  0  0  0
 55 57  1  0  0  0
 55133  1  0  0  0
 56 69  2  0  0  0
 57 58  2  0  0  0
 57134  1  0  0  0
 58135  1  0  0  0
 59 60  1  0  0  0
 59 61  1  0  0  0
 59 62  1  0  0  0
 60136  1  0  0  0
 60137  1  0  0  0
 60138  1  0  0  0
 61139  1  0  0  0
 61140  1  0  0  0
 61141  1  0  0  0
 62142  1  0  0  0
 62143  1  0  0  0
 62144  1  0  0  0
 63 65  1  0  0  0
 63145  1  0  0  0
 63146  1  0  0  0
 63147  1  0  0  0
 64148  1  0  0  0
 65149  1  0  0  0
 68 86  1  0  0  0
 71 73  2  0  0  0
 71 75  1  0  0  0
 71150  1  0  0  0
 72 75  2  0  0  0
 72 76  1  0  0  0
 72151  1  0  0  0
 73 74  1  0  0  0
 73 78  1  0  0  0
 74 76  2  0  0  0
 74 85  1  0  0  0
 75 87  1  0  0  0
 76 90  1  0  0  0
 77 80  1  0  0  0
 77 87  1  0  0  0
 77 89  2  0  0  0
 78 79  2  0  0  0
 78152  1  0  0  0
 79 83  1  0  0  0
 79153  1  0  0  0
 80 81  1  0  0  0
 80154  1  0  0  0
 80155  1  0  0  0
 81 82  1  0  0  0
 81156  1  0  0  0
 81157  1  0  0  0
 82 86  1  0  0  0
 82 87  1  0  0  0
 82158  1  0  0  0
 83159  1  0  0  0
 83160  1  0  0  0
 83161  1  0  0  0
 84 88  1  0  0  0
 84162  1  0  0  0
 84163  1  0  0  0
 84164  1  0  0  0
 85 88  1  0  0  0
 85165  1  0  0  0
 85166  1  0  0  0
 86167  1  0  0  0
 86168  1  0  0  0
M  ISO  4   1 100  68 101  86 101  88 100
M  END
> <chiral flag>
0

> <version>
0

> <s_m_source_file>
/data/baiqing/PycharmProjects/Reinvent-master-3.2/result/LINK_invent/BTK/process_docking_weight1_custom_product_contain_oxygen_bond_distance_aromatic_linkinvent_7_9_3/rearranged_h_0109.sdf

> <i_m_source_file_index>
81

> <r_mmod_Potential_Energy-OPLS-2005>
417.664276123047

> <r_mmod_Stretch_Energy-OPLS-2005>
101.655471801758

> <r_mmod_Bend_Energy-OPLS-2005>
194.908462524414

> <r_mmod_Torsional_Energy-OPLS-2005>
396.750640869141

> <r_mmod_Improper_Torsional_Energy-OPLS-2005>
11.3242540359497

> <r_mmod_Van_der_Waal_Energy-OPLS-2005>
145.293167114258

> <r_mmod_Electrostatic_Energy-OPLS-2005>
-290.425811767578

> <r_mmod_Solvation_Energy-OPLS-2005>
-205.293533325195

> <b_mmod_Minimization_Converged-OPLS-2005>
0

> <r_mmod_RMS_Derivative-OPLS-2005>
0.635385870933533

$$$$
81
                    3D
 Structure written by MMmdl.
169178  0  0  1  0            999 V2000
  -30.7475  -14.5100   20.7007 C   0  0  0  0  0  0
  -30.4281  -12.4147   19.3859 C   0  0  0  0  0  0
  -29.4706  -12.5798   18.1911 C   0  0  0  0  0  0
  -28.0220  -12.3343   18.6410 C   0  0  0  0  0  0
  -27.6587  -13.1998   19.8704 C   0  0  2  0  0  0
  -28.6986  -13.0398   20.9971 C   0  0  0  0  0  0
  -25.2620  -13.8133   20.5699 C   0  0  0  0  0  0
  -24.1882  -13.0419   20.9179 C   0  0  0  0  0  0
  -24.6414  -11.6897   20.8759 C   0  0  0  0  0  0
  -23.9069  -10.4287   21.0436 C   0  0  0  0  0  0
  -24.3640   -9.4208   21.9218 C   0  0  0  0  0  0
  -23.6312   -8.2243   22.0781 C   0  0  0  0  0  0
  -22.4281   -8.0310   21.3562 C   0  0  0  0  0  0
  -21.9904   -9.0279   20.4651 C   0  0  0  0  0  0
  -22.7241  -10.2151   20.3081 C   0  0  0  0  0  0
  -21.6848   -6.0765   22.5270 C   0  0  0  0  0  0
  -21.3986   -6.5655   23.8202 C   0  0  0  0  0  0
  -21.3647   -5.6811   24.9177 C   0  0  0  0  0  0
  -21.6046   -4.3075   24.7226 C   0  0  0  0  0  0
  -21.8836   -3.8170   23.4348 C   0  0  0  0  0  0
  -21.9204   -4.6991   22.3409 C   0  0  0  0  0  0
  -22.7897  -13.5225   21.1834 C   0  0  0  0  0  0
  -22.1680   -4.2162   21.0987 F   0  0  0  0  0  0
  -21.5631   -3.4559   25.7750 F   0  0  0  0  0  0
  -30.0343  -13.3611   20.4498 N   0  0  0  0  0  0
  -26.3037  -12.9291   20.3368 N   0  0  0  0  0  0
  -25.9346  -11.6459   20.5802 N   0  0  0  0  0  0
  -22.0528  -12.8169   22.0324 N   0  0  0  0  0  0
  -25.4382  -15.1873   20.4139 N   0  0  0  0  0  0
  -31.7034  -14.8601   20.0052 O   0  0  0  0  0  0
  -21.6653   -6.8930   21.4241 O   0  0  0  0  0  0
  -22.3615  -14.5584   20.6768 O   0  0  0  0  0  0
  -24.6264  -31.8630   23.2039 C   0  0  0  0  0  0
  -25.9141  -32.4783   23.8336 C   0  0  1  0  0  0
  -27.2183  -27.3443   20.1020 C   0  0  0  0  0  0
  -25.5976  -33.8572   24.2310 N   0  0  0  0  0  0
  -23.4159  -30.4902   21.5421 C   0  0  2  0  0  0
  -24.8593  -28.9528   20.1040 C   0  0  0  0  0  0
  -22.7470  -29.4638   22.4870 C   0  0  0  0  0  0
  -18.0303  -28.1448   22.8516 C   0  0  0  0  0  0
  -24.1476  -36.7223   23.2625 C   0  0  0  0  0  0
  -25.9517  -30.8036   21.3653 C   0  0  0  0  0  0
  -26.0248  -29.4286   20.7156 C   0  0  0  0  0  0
  -27.2028  -28.6334   20.7158 C   0  0  0  0  0  0
  -26.0299  -26.9266   19.4537 C   0  0  0  0  0  0
  -24.8610  -27.7041   19.4662 C   0  0  0  0  0  0
  -23.6320  -29.8360   20.1504 C   0  0  0  0  0  0
  -25.4095  -36.3047   24.0356 C   0  0  1  0  0  0
  -20.5909  -28.3729   23.1306 C   0  0  2  0  0  0
  -20.6811  -26.9463   22.5409 C   0  0  0  0  0  0
  -19.5750  -26.6459   21.5240 C   0  0  0  0  0  0
  -18.1928  -26.7992   22.1673 C   0  0  0  0  0  0
  -19.1559  -28.8902   23.2919 C   0  0  0  0  0  0
  -18.9489  -30.1513   23.8916 C   0  0  0  0  0  0
  -17.6482  -30.6626   24.0613 C   0  0  0  0  0  0
  -25.9051  -34.9445   23.5119 C   0  0  0  0  0  0
  -16.5367  -29.9141   23.6344 C   0  0  0  0  0  0
  -16.7295  -28.6583   23.0323 C   0  0  0  0  0  0
  -26.4596  -31.6517   25.0620 C   0  0  0  0  0  0
  -25.3918  -31.3601   26.1384 C   0  0  0  0  0  0
  -27.0411  -30.2954   24.5965 C   0  0  0  0  0  0
  -27.6148  -32.4195   25.7425 C   0  0  0  0  0  0
  -27.5553  -37.1769   24.8484 C   0  0  0  0  0  0
  -21.4169  -29.3075   22.3662 N   0  0  0  0  0  0
  -26.4232  -37.3767   23.9476 N   0  0  0  0  0  0
  -24.6834  -31.0671   22.0949 N   0  0  0  0  0  0
  -23.4232  -28.8172   23.2921 O   0  0  0  0  0  0
  -28.3416  -26.5087   20.1637 O   0  0  0  0  0  0
  -26.5558  -34.8934   22.4639 O   0  0  0  0  0  0
  -23.5444  -32.1369   23.7429 O   0  0  0  0  0  0
  -29.9618  -18.4851   23.9984 C   0  0  0  0  0  0
  -29.8247  -19.4247   22.9775 C   0  0  0  0  0  0
  -30.1116  -17.6376   21.3573 C   0  0  0  0  0  0
  -30.2876  -16.6266   22.3858 C   0  0  0  0  0  0
  -30.1726  -17.1189   23.7428 C   0  0  0  0  0  0
  -29.8630  -19.0409   21.6218 C   0  0  0  0  0  0
  -30.4168  -14.6317   27.1926 C   0  0  0  0  0  0
  -30.5647  -15.1139   22.1046 C   0  0  0  0  0  0
  -29.0456  -15.1436   26.7800 C   0  0  0  0  0  0
  -31.5569  -15.6049   26.9268 C   0  0  0  0  0  0
  -29.0693  -15.5481   25.2938 C   0  0  0  0  0  0
  -31.5718  -16.0141   25.4429 C   0  0  0  0  0  0
  -29.1091  -22.5349   19.9337 C   0  0  0  0  0  0
  -29.1520  -24.0319   20.4741 C   0  0  0  0  0  0
  -29.3530  -21.4025   21.0134 C   0  0  0  0  0  0
  -28.1875  -25.0853   19.8079 C   0  0  0  0  0  0
  -30.7244  -14.2449   23.0157 N   0  0  0  0  0  0
  -30.2351  -16.3806   24.9485 N   0  0  0  0  0  0
  -30.5909  -13.5092   27.6774 O   0  0  0  0  0  0
  -29.6660  -20.0159   20.6150 O   0  0  0  0  0  0
  -31.4573  -12.5726   19.0584 H   0  0  0  0  0  0
  -30.3887  -11.3946   19.7717 H   0  0  0  0  0  0
  -29.7363  -11.9039   17.3771 H   0  0  0  0  0  0
  -29.5475  -13.5929   17.7923 H   0  0  0  0  0  0
  -27.9260  -11.2781   18.8930 H   0  0  0  0  0  0
  -27.3253  -12.5278   17.8247 H   0  0  0  0  0  0
  -27.6845  -14.2394   19.5445 H   0  0  0  0  0  0
  -28.6910  -12.0284   21.4017 H   0  0  0  0  0  0
  -28.3991  -13.6905   21.8166 H   0  0  0  0  0  0
  -25.2825   -9.5690   22.4747 H   0  0  0  0  0  0
  -24.0036   -7.4643   22.7517 H   0  0  0  0  0  0
  -21.0822   -8.8828   19.8952 H   0  0  0  0  0  0
  -22.3746  -10.9720   19.6180 H   0  0  0  0  0  0
  -21.1932   -7.6154   23.9683 H   0  0  0  0  0  0
  -21.1433   -6.0557   25.9066 H   0  0  0  0  0  0
  -22.0612   -2.7616   23.2849 H   0  0  0  0  0  0
  -22.4101  -11.9718   22.4548 H   0  0  0  0  0  0
  -21.1165  -13.1235   22.2613 H   0  0  0  0  0  0
  -24.6748  -15.8490   20.5168 H   0  0  0  0  0  0
  -26.3022  -15.6120   20.0977 H   0  0  0  0  0  0
  -26.7177  -32.5492   23.1052 H   0  0  0  0  0  0
  -25.0337  -33.9699   25.0608 H   0  0  0  0  0  0
  -22.7085  -31.3110   21.4054 H   0  0  0  0  0  0
  -23.3751  -35.9519   23.3255 H   0  0  0  0  0  0
  -24.3570  -36.8830   22.2030 H   0  0  0  0  0  0
  -23.7191  -37.6429   23.6615 H   0  0  0  0  0  0
  -26.0754  -31.5639   20.5934 H   0  0  0  0  0  0
  -26.8384  -30.8587   21.9866 H   0  0  0  0  0  0
  -28.0916  -28.9927   21.2171 H   0  0  0  0  0  0
  -25.9709  -25.9886   18.9265 H   0  0  0  0  0  0
  -23.9708  -27.3440   18.9688 H   0  0  0  0  0  0
  -23.7722  -30.6173   19.4016 H   0  0  0  0  0  0
  -22.7529  -29.2711   19.8311 H   0  0  0  0  0  0
  -25.1265  -36.1855   25.0839 H   0  0  0  0  0  0
  -21.0062  -28.3315   24.1421 H   0  0  0  0  0  0
  -20.5796  -26.2333   23.3624 H   0  0  0  0  0  0
  -21.6669  -26.7547   22.1151 H   0  0  0  0  0  0
  -19.6883  -25.6384   21.1225 H   0  0  0  0  0  0
  -19.6653  -27.3344   20.6826 H   0  0  0  0  0  0
  -17.4227  -26.6804   21.4041 H   0  0  0  0  0  0
  -18.0269  -26.0133   22.9070 H   0  0  0  0  0  0
  -19.7948  -30.7356   24.2257 H   0  0  0  0  0  0
  -17.5031  -31.6286   24.5268 H   0  0  0  0  0  0
  -15.5372  -30.3074   23.7627 H   0  0  0  0  0  0
  -15.8708  -28.0945   22.6950 H   0  0  0  0  0  0
  -24.6165  -30.6836   25.7787 H   0  0  0  0  0  0
  -24.9069  -32.2760   26.4775 H   0  0  0  0  0  0
  -25.8395  -30.8881   27.0154 H   0  0  0  0  0  0
  -26.2981  -29.6731   24.0954 H   0  0  0  0  0  0
  -27.4167  -29.7115   25.4389 H   0  0  0  0  0  0
  -27.8831  -30.4271   23.9149 H   0  0  0  0  0  0
  -27.2786  -33.3541   26.1920 H   0  0  0  0  0  0
  -28.4063  -32.6614   25.0318 H   0  0  0  0  0  0
  -28.0684  -31.8322   26.5433 H   0  0  0  0  0  0
  -28.2553  -38.0088   24.7582 H   0  0  0  0  0  0
  -28.1075  -36.2627   24.6240 H   0  0  0  0  0  0
  -27.2295  -37.1338   25.8892 H   0  0  0  0  0  0
  -20.9328  -29.8807   21.6883 H   0  0  0  0  0  0
  -26.0083  -38.2811   24.1550 H   0  0  0  0  0  0
  -29.8929  -18.8379   25.0175 H   0  0  0  0  0  0
  -29.6650  -20.4408   23.2960 H   0  0  0  0  0  0
  -30.1580  -17.3246   20.3248 H   0  0  0  0  0  0
  -28.8154  -16.0060   27.4058 H   0  0  0  0  0  0
  -28.2825  -14.3891   26.9722 H   0  0  0  0  0  0
  -32.5077  -15.1681   27.2259 H   0  0  0  0  0  0
  -31.3896  -16.4806   27.5536 H   0  0  0  0  0  0
  -28.1479  -16.0809   25.0548 H   0  0  0  0  0  0
  -29.0530  -14.6319   24.7102 H   0  0  0  0  0  0
  -32.0004  -15.1914   24.8738 H   0  0  0  0  0  0
  -32.2531  -16.8544   25.3099 H   0  0  0  0  0  0
  -29.8500  -22.4447   19.1383 H   0  0  0  0  0  0
  -28.1480  -22.3590   19.4494 H   0  0  0  0  0  0
  -30.1772  -24.3991   20.4029 H   0  0  0  0  0  0
  -28.9231  -24.0267   21.5392 H   0  0  0  0  0  0
  -28.4475  -21.3670   21.6253 H   0  0  0  0  0  0
  -30.1573  -21.7603   21.6581 H   0  0  0  0  0  0
  -27.1960  -24.7376   20.1005 H   0  0  0  0  0  0
  -28.2496  -25.0086   18.7222 H   0  0  0  0  0  0
  -30.9269  -13.3352   22.6166 H   0  0  0  0  0  0
  1 25  1  0  0  0
  1 30  2  0  0  0
  1 78  1  0  0  0
  2  3  1  0  0  0
  2 25  1  0  0  0
  2 91  1  0  0  0
  2 92  1  0  0  0
  3  4  1  0  0  0
  3 93  1  0  0  0
  3 94  1  0  0  0
  4  5  1  0  0  0
  4 95  1  0  0  0
  4 96  1  0  0  0
  5  6  1  0  0  0
  5 26  1  0  0  0
  5 97  1  0  0  0
  6 25  1  0  0  0
  6 98  1  0  0  0
  6 99  1  0  0  0
  7  8  2  0  0  0
  7 26  1  0  0  0
  7 29  1  0  0  0
  8  9  1  0  0  0
  8 22  1  0  0  0
  9 10  1  0  0  0
  9 27  2  0  0  0
 10 11  2  0  0  0
 10 15  1  0  0  0
 11 12  1  0  0  0
 11100  1  0  0  0
 12 13  2  0  0  0
 12101  1  0  0  0
 13 14  1  0  0  0
 13 31  1  0  0  0
 14 15  2  0  0  0
 14102  1  0  0  0
 15103  1  0  0  0
 16 17  2  0  0  0
 16 21  1  0  0  0
 16 31  1  0  0  0
 17 18  1  0  0  0
 17104  1  0  0  0
 18 19  2  0  0  0
 18105  1  0  0  0
 19 20  1  0  0  0
 19 24  1  0  0  0
 20 21  2  0  0  0
 20106  1  0  0  0
 21 23  1  0  0  0
 22 28  1  0  0  0
 22 32  2  0  0  0
 26 27  1  0  0  0
 28107  1  0  0  0
 28108  1  0  0  0
 29109  1  0  0  0
 29110  1  0  0  0
 33 34  1  0  0  0
 33 66  1  0  0  0
 33 70  2  0  0  0
 34 36  1  0  0  0
 34 59  1  0  0  0
 34111  1  0  0  0
 35 44  2  0  0  0
 35 45  1  0  0  0
 35 68  1  0  0  0
 36 56  1  0  0  0
 36112  1  0  0  0
 37 39  1  0  0  0
 37 47  1  0  0  0
 37 66  1  0  0  0
 37113  1  0  0  0
 38 43  2  0  0  0
 38 46  1  0  0  0
 38 47  1  0  0  0
 39 64  1  0  0  0
 39 67  2  0  0  0
 40 52  1  0  0  0
 40 53  2  0  0  0
 40 58  1  0  0  0
 41114  1  0  0  0
 41115  1  0  0  0
 41116  1  0  0  0
 41 48  1  0  0  0
 42 43  1  0  0  0
 42 66  1  0  0  0
 42117  1  0  0  0
 42118  1  0  0  0
 43 44  1  0  0  0
 44119  1  0  0  0
 45 46  2  0  0  0
 45120  1  0  0  0
 46121  1  0  0  0
 47122  1  0  0  0
 47123  1  0  0  0
 48 56  1  0  0  0
 48 65  1  0  0  0
 48124  1  0  0  0
 49 50  1  0  0  0
 49 53  1  0  0  0
 49 64  1  0  0  0
 49125  1  0  0  0
 50 51  1  0  0  0
 50126  1  0  0  0
 50127  1  0  0  0
 51 52  1  0  0  0
 51128  1  0  0  0
 51129  1  0  0  0
 52130  1  0  0  0
 52131  1  0  0  0
 53 54  1  0  0  0
 54 55  2  0  0  0
 54132  1  0  0  0
 55 57  1  0  0  0
 55133  1  0  0  0
 56 69  2  0  0  0
 57 58  2  0  0  0
 57134  1  0  0  0
 58135  1  0  0  0
 59 60  1  0  0  0
 59 61  1  0  0  0
 59 62  1  0  0  0
 60136  1  0  0  0
 60137  1  0  0  0
 60138  1  0  0  0
 61139  1  0  0  0
 61140  1  0  0  0
 61141  1  0  0  0
 62142  1  0  0  0
 62143  1  0  0  0
 62144  1  0  0  0
 63 65  1  0  0  0
 63145  1  0  0  0
 63146  1  0  0  0
 63147  1  0  0  0
 64148  1  0  0  0
 65149  1  0  0  0
 68 86  1  0  0  0
 71 72  2  0  0  0
 71 75  1  0  0  0
 71150  1  0  0  0
 72 76  1  0  0  0
 72151  1  0  0  0
 73 74  1  0  0  0
 73 76  2  0  0  0
 73152  1  0  0  0
 74 75  2  0  0  0
 74 78  1  0  0  0
 75 88  1  0  0  0
 76 90  1  0  0  0
 77 79  1  0  0  0
 77 80  1  0  0  0
 77 89  2  0  0  0
 78 87  2  0  0  0
 79 81  1  0  0  0
 79153  1  0  0  0
 79154  1  0  0  0
 80 82  1  0  0  0
 80155  1  0  0  0
 80156  1  0  0  0
 81 88  1  0  0  0
 81157  1  0  0  0
 81158  1  0  0  0
 82 88  1  0  0  0
 82159  1  0  0  0
 82160  1  0  0  0
 83 84  1  0  0  0
 83 85  1  0  0  0
 83161  1  0  0  0
 83162  1  0  0  0
 84 86  1  0  0  0
 84163  1  0  0  0
 84164  1  0  0  0
 85 90  1  0  0  0
 85165  1  0  0  0
 85166  1  0  0  0
 86167  1  0  0  0
 86168  1  0  0  0
 87169  1  0  0  0
M  ISO  4   1 100  68 101  78 100  86 101
M  END
> <chiral flag>
0

> <version>
0

> <s_m_source_file>
/data/baiqing/PycharmProjects/Reinvent-master-3.2/result/LINK_invent/BTK/process_docking_weight1_custom_product_contain_oxygen_bond_distance_aromatic_linkinvent_7_9_3/rearranged_h_0109.sdf

> <i_m_source_file_index>
82

> <r_mmod_Potential_Energy-OPLS-2005>
244.409515380859

> <r_mmod_Stretch_Energy-OPLS-2005>
97.4785232543945

> <r_mmod_Bend_Energy-OPLS-2005>
173.081359863281

> <r_mmod_Torsional_Energy-OPLS-2005>
221.151443481445

> <r_mmod_Improper_Torsional_Energy-OPLS-2005>
10.6709651947021

> <r_mmod_Van_der_Waal_Energy-OPLS-2005>
189.243255615234

> <r_mmod_Electrostatic_Energy-OPLS-2005>
-259.001861572266

> <r_mmod_Solvation_Energy-OPLS-2005>
-222.896636962891

> <b_mmod_Minimization_Converged-OPLS-2005>
0

> <r_mmod_RMS_Derivative-OPLS-2005>
5.77362966537476

$$$$
82
                    3D
 Structure written by MMmdl.
170179  0  0  1  0            999 V2000
  -30.5934  -14.7866   20.2734 C   0  0  0  0  0  0
  -30.4259  -12.4491   19.4339 C   0  0  0  0  0  0
  -29.4864  -12.3872   18.2105 C   0  0  0  0  0  0
  -28.0121  -12.2747   18.6409 C   0  0  0  0  0  0
  -27.6285  -13.2077   19.8234 C   0  0  2  0  0  0
  -28.6911  -13.2259   20.9344 C   0  0  0  0  0  0
  -25.2531  -13.8148   20.5728 C   0  0  0  0  0  0
  -24.1789  -13.0414   20.9204 C   0  0  0  0  0  0
  -24.6344  -11.6884   20.8754 C   0  0  0  0  0  0
  -23.9030  -10.4268   21.0394 C   0  0  0  0  0  0
  -24.3612   -9.4192   21.9162 C   0  0  0  0  0  0
  -23.6299   -8.2223   22.0722 C   0  0  0  0  0  0
  -22.4279   -8.0262   21.3530 C   0  0  0  0  0  0
  -21.9914   -9.0219   20.4612 C   0  0  0  0  0  0
  -22.7220  -10.2104   20.3024 C   0  0  0  0  0  0
  -21.6848   -6.0732   22.5274 C   0  0  0  0  0  0
  -21.4010   -6.5633   23.8209 C   0  0  0  0  0  0
  -21.3662   -5.6783   24.9171 C   0  0  0  0  0  0
  -21.6042   -4.3047   24.7217 C   0  0  0  0  0  0
  -21.8824   -3.8140   23.4336 C   0  0  0  0  0  0
  -21.9200   -4.6961   22.3400 C   0  0  0  0  0  0
  -22.7818  -13.5226   21.1870 C   0  0  0  0  0  0
  -22.1669   -4.2153   21.0973 F   0  0  0  0  0  0
  -21.5639   -3.4529   25.7725 F   0  0  0  0  0  0
  -29.9620  -13.5628   20.2845 N   0  0  0  0  0  0
  -26.2901  -12.9296   20.3260 N   0  0  0  0  0  0
  -25.9267  -11.6473   20.5789 N   0  0  0  0  0  0
  -22.0471  -12.8185   22.0403 N   0  0  0  0  0  0
  -25.4312  -15.1864   20.4208 N   0  0  0  0  0  0
  -31.8265  -14.8087   20.3454 O   0  0  0  0  0  0
  -21.6641   -6.8868   21.4232 O   0  0  0  0  0  0
  -22.3494  -14.5549   20.6735 O   0  0  0  0  0  0
  -24.6277  -31.8590   23.2025 C   0  0  0  0  0  0
  -25.9134  -32.4761   23.8345 C   0  0  1  0  0  0
  -27.2133  -27.3018   20.1188 C   0  0  0  0  0  0
  -25.5983  -33.8566   24.2298 N   0  0  0  0  0  0
  -23.4204  -30.4827   21.5457 C   0  0  2  0  0  0
  -24.8631  -28.9295   20.1161 C   0  0  0  0  0  0
  -22.7462  -29.4628   22.4947 C   0  0  0  0  0  0
  -18.0264  -28.1375   22.8480 C   0  0  0  0  0  0
  -24.1483  -36.7266   23.2645 C   0  0  0  0  0  0
  -25.9608  -30.7840   21.3723 C   0  0  0  0  0  0
  -26.0325  -29.4041   20.7252 C   0  0  0  0  0  0
  -27.2138  -28.6014   20.7180 C   0  0  0  0  0  0
  -26.0309  -26.8856   19.4804 C   0  0  0  0  0  0
  -24.8643  -27.6752   19.4850 C   0  0  0  0  0  0
  -23.6339  -29.8146   20.1613 C   0  0  0  0  0  0
  -25.4106  -36.3066   24.0341 C   0  0  1  0  0  0
  -20.5867  -28.3691   23.1268 C   0  0  2  0  0  0
  -20.6760  -26.9413   22.5394 C   0  0  0  0  0  0
  -19.5741  -26.6378   21.5188 C   0  0  0  0  0  0
  -18.1910  -26.7932   22.1590 C   0  0  0  0  0  0
  -19.1517  -28.8841   23.2880 C   0  0  0  0  0  0
  -18.9450  -30.1439   23.8912 C   0  0  0  0  0  0
  -17.6454  -30.6583   24.0552 C   0  0  0  0  0  0
  -25.9053  -34.9443   23.5108 C   0  0  0  0  0  0
  -16.5343  -29.9078   23.6332 C   0  0  0  0  0  0
  -16.7249  -28.6489   23.0365 C   0  0  0  0  0  0
  -26.4523  -31.6552   25.0701 C   0  0  0  0  0  0
  -25.3767  -31.3653   26.1427 C   0  0  0  0  0  0
  -27.0388  -30.2991   24.6133 C   0  0  0  0  0  0
  -27.6088  -32.4290   25.7463 C   0  0  0  0  0  0
  -27.5565  -37.1800   24.8472 C   0  0  0  0  0  0
  -21.4171  -29.3061   22.3686 N   0  0  0  0  0  0
  -26.4274  -37.3770   23.9424 N   0  0  0  0  0  0
  -24.6892  -31.0597   22.0966 N   0  0  0  0  0  0
  -23.4173  -28.8178   23.3045 O   0  0  0  0  0  0
  -28.3265  -26.4619   20.0082 O   0  0  0  0  0  0
  -26.5580  -34.8918   22.4637 O   0  0  0  0  0  0
  -23.5445  -32.1380   23.7353 O   0  0  0  0  0  0
  -27.9858  -19.0794   19.2716 C   0  0  0  0  0  0
  -29.8010  -19.4805   20.7519 C   0  0  0  0  0  0
  -28.3598  -17.7106   19.1340 C   0  0  0  0  0  0
  -28.6655  -20.0236   20.0844 C   0  0  0  0  0  0
  -30.2127  -18.1005   20.6248 C   0  0  0  0  0  0
  -29.4936  -17.1478   19.8221 C   0  0  0  0  0  0
  -27.9725  -23.8459   20.6550 C   0  0  0  0  0  0
  -28.6666  -22.6932   20.2730 C   0  0  0  0  0  0
  -26.6005  -23.6497   21.1912 C   0  0  0  0  0  0
  -26.1959  -22.2412   21.5913 C   0  0  0  0  0  0
  -26.6662  -21.2327   20.5482 C   0  0  0  0  0  0
  -27.5105  -16.9379   18.1348 C   0  0  0  0  0  0
  -30.1036  -22.7800   19.7764 C   0  0  0  0  0  0
  -31.1053  -16.9636   17.4691 C   0  0  0  0  0  0
  -28.5265  -25.3151   20.9237 C   0  0  0  0  0  0
  -30.4502  -15.6916   18.0541 C   0  0  0  0  0  0
  -28.1050  -21.3576   20.2687 N   0  0  0  0  0  0
  -31.3963  -17.7184   21.2561 N   0  0  0  0  0  0
  -29.9999  -15.7804   19.4770 N   0  0  0  0  0  0
  -25.7879  -24.5569   21.3826 O   0  0  0  0  0  0
  -31.4573  -12.5912   19.1053 H   0  0  0  0  0  0
  -30.4036  -11.5100   19.9867 H   0  0  0  0  0  0
  -29.7508  -11.5337   17.5845 H   0  0  0  0  0  0
  -29.6083  -13.2527   17.5691 H   0  0  0  0  0  0
  -27.8473  -11.2352   18.9249 H   0  0  0  0  0  0
  -27.3572  -12.4578   17.7868 H   0  0  0  0  0  0
  -27.5970  -14.2072   19.4126 H   0  0  0  0  0  0
  -28.7459  -12.2612   21.4395 H   0  0  0  0  0  0
  -28.4381  -13.9711   21.6891 H   0  0  0  0  0  0
  -25.2756   -9.5692   22.4736 H   0  0  0  0  0  0
  -24.0020   -7.4621   22.7428 H   0  0  0  0  0  0
  -21.0859   -8.8711   19.8911 H   0  0  0  0  0  0
  -22.3663  -10.9645   19.6132 H   0  0  0  0  0  0
  -21.1974   -7.6135   23.9726 H   0  0  0  0  0  0
  -21.1491   -6.0500   25.9082 H   0  0  0  0  0  0
  -22.0603   -2.7605   23.2830 H   0  0  0  0  0  0
  -22.4101  -11.9840   22.4789 H   0  0  0  0  0  0
  -21.1072  -13.1165   22.2592 H   0  0  0  0  0  0
  -24.6786  -15.8530   20.5541 H   0  0  0  0  0  0
  -26.3120  -15.6262   20.1822 H   0  0  0  0  0  0
  -26.7197  -32.5416   23.1087 H   0  0  0  0  0  0
  -25.0253  -33.9724   25.0528 H   0  0  0  0  0  0
  -22.7159  -31.3039   21.4007 H   0  0  0  0  0  0
  -23.3761  -35.9578   23.3275 H   0  0  0  0  0  0
  -24.3587  -36.8904   22.2065 H   0  0  0  0  0  0
  -23.7214  -37.6457   23.6662 H   0  0  0  0  0  0
  -26.0872  -31.5428   20.5988 H   0  0  0  0  0  0
  -26.8441  -30.8383   21.9964 H   0  0  0  0  0  0
  -28.1202  -28.9766   21.1720 H   0  0  0  0  0  0
  -26.0049  -25.9283   18.9800 H   0  0  0  0  0  0
  -23.9723  -27.3123   18.9948 H   0  0  0  0  0  0
  -23.7536  -30.5894   19.4032 H   0  0  0  0  0  0
  -22.7521  -29.2475   19.8579 H   0  0  0  0  0  0
  -25.1287  -36.1901   25.0835 H   0  0  0  0  0  0
  -20.9943  -28.3245   24.1397 H   0  0  0  0  0  0
  -20.5622  -26.2311   23.3599 H   0  0  0  0  0  0
  -21.6630  -26.7436   22.1197 H   0  0  0  0  0  0
  -19.6915  -25.6285   21.1219 H   0  0  0  0  0  0
  -19.6675  -27.3188   20.6721 H   0  0  0  0  0  0
  -17.4191  -26.6684   21.3981 H   0  0  0  0  0  0
  -18.0305  -26.0040   22.8958 H   0  0  0  0  0  0
  -19.7929  -30.7229   24.2291 H   0  0  0  0  0  0
  -17.5014  -31.6272   24.5142 H   0  0  0  0  0  0
  -15.5343  -30.2988   23.7660 H   0  0  0  0  0  0
  -15.8640  -28.0797   22.7117 H   0  0  0  0  0  0
  -24.6008  -30.6928   25.7757 H   0  0  0  0  0  0
  -24.8883  -32.2786   26.4828 H   0  0  0  0  0  0
  -25.8120  -30.8869   27.0206 H   0  0  0  0  0  0
  -26.2962  -29.6711   24.1200 H   0  0  0  0  0  0
  -27.4167  -29.7271   25.4616 H   0  0  0  0  0  0
  -27.8778  -30.4315   23.9305 H   0  0  0  0  0  0
  -27.2738  -33.3651   26.1932 H   0  0  0  0  0  0
  -28.3938  -32.6727   25.0296 H   0  0  0  0  0  0
  -28.0684  -31.8459   26.5450 H   0  0  0  0  0  0
  -28.2566  -38.0113   24.7520 H   0  0  0  0  0  0
  -28.1072  -36.2639   24.6276 H   0  0  0  0  0  0
  -27.2286  -37.1421   25.8877 H   0  0  0  0  0  0
  -20.9347  -29.8814   21.6929 H   0  0  0  0  0  0
  -26.0135  -38.2835   24.1434 H   0  0  0  0  0  0
  -27.1285  -19.4201   18.7075 H   0  0  0  0  0  0
  -30.3691  -20.1483   21.3830 H   0  0  0  0  0  0
  -25.1152  -22.1864   21.7214 H   0  0  0  0  0  0
  -26.6541  -22.0207   22.5547 H   0  0  0  0  0  0
  -26.1053  -21.3710   19.6220 H   0  0  0  0  0  0
  -26.4074  -20.2396   20.9205 H   0  0  0  0  0  0
  -26.4565  -17.1949   18.2510 H   0  0  0  0  0  0
  -27.5826  -15.8630   18.2178 H   0  0  0  0  0  0
  -27.8001  -17.2086   17.1198 H   0  0  0  0  0  0
  -30.5374  -21.8159   19.5189 H   0  0  0  0  0  0
  -30.7496  -23.2310   20.5284 H   0  0  0  0  0  0
  -30.1513  -23.3974   18.8768 H   0  0  0  0  0  0
  -31.4753  -16.7709   16.4612 H   0  0  0  0  0  0
  -31.9518  -17.2957   18.0697 H   0  0  0  0  0  0
  -30.4052  -17.7947   17.3831 H   0  0  0  0  0  0
  -29.6062  -25.2193   21.0284 H   0  0  0  0  0  0
  -28.1945  -25.6289   21.9154 H   0  0  0  0  0  0
  -31.1724  -14.8855   17.9009 H   0  0  0  0  0  0
  -29.6047  -15.4208   17.4281 H   0  0  0  0  0  0
  -32.0486  -18.4643   21.4795 H   0  0  0  0  0  0
  -31.8779  -16.9142   20.8594 H   0  0  0  0  0  0
  1 25  1  0  0  0
  1 30  2  0  0  0
  1 89  1  0  0  0
  2  3  1  0  0  0
  2 25  1  0  0  0
  2 91  1  0  0  0
  2 92  1  0  0  0
  3  4  1  0  0  0
  3 93  1  0  0  0
  3 94  1  0  0  0
  4  5  1  0  0  0
  4 95  1  0  0  0
  4 96  1  0  0  0
  5  6  1  0  0  0
  5 26  1  0  0  0
  5 97  1  0  0  0
  6 25  1  0  0  0
  6 98  1  0  0  0
  6 99  1  0  0  0
  7  8  2  0  0  0
  7 26  1  0  0  0
  7 29  1  0  0  0
  8  9  1  0  0  0
  8 22  1  0  0  0
  9 10  1  0  0  0
  9 27  2  0  0  0
 10 11  2  0  0  0
 10 15  1  0  0  0
 11 12  1  0  0  0
 11100  1  0  0  0
 12 13  2  0  0  0
 12101  1  0  0  0
 13 14  1  0  0  0
 13 31  1  0  0  0
 14 15  2  0  0  0
 14102  1  0  0  0
 15103  1  0  0  0
 16 17  2  0  0  0
 16 21  1  0  0  0
 16 31  1  0  0  0
 17 18  1  0  0  0
 17104  1  0  0  0
 18 19  2  0  0  0
 18105  1  0  0  0
 19 20  1  0  0  0
 19 24  1  0  0  0
 20 21  2  0  0  0
 20106  1  0  0  0
 21 23  1  0  0  0
 22 28  1  0  0  0
 22 32  2  0  0  0
 26 27  1  0  0  0
 28107  1  0  0  0
 28108  1  0  0  0
 29109  1  0  0  0
 29110  1  0  0  0
 33 34  1  0  0  0
 33 66  1  0  0  0
 33 70  2  0  0  0
 34 36  1  0  0  0
 34 59  1  0  0  0
 34111  1  0  0  0
 35 44  2  0  0  0
 35 45  1  0  0  0
 35 68  1  0  0  0
 36 56  1  0  0  0
 36112  1  0  0  0
 37 39  1  0  0  0
 37 47  1  0  0  0
 37 66  1  0  0  0
 37113  1  0  0  0
 38 43  2  0  0  0
 38 46  1  0  0  0
 38 47  1  0  0  0
 39 64  1  0  0  0
 39 67  2  0  0  0
 40 52  1  0  0  0
 40 53  2  0  0  0
 40 58  1  0  0  0
 41114  1  0  0  0
 41115  1  0  0  0
 41116  1  0  0  0
 41 48  1  0  0  0
 42 43  1  0  0  0
 42 66  1  0  0  0
 42117  1  0  0  0
 42118  1  0  0  0
 43 44  1  0  0  0
 44119  1  0  0  0
 45 46  2  0  0  0
 45120  1  0  0  0
 46121  1  0  0  0
 47122  1  0  0  0
 47123  1  0  0  0
 48 56  1  0  0  0
 48 65  1  0  0  0
 48124  1  0  0  0
 49 50  1  0  0  0
 49 53  1  0  0  0
 49 64  1  0  0  0
 49125  1  0  0  0
 50 51  1  0  0  0
 50126  1  0  0  0
 50127  1  0  0  0
 51 52  1  0  0  0
 51128  1  0  0  0
 51129  1  0  0  0
 52130  1  0  0  0
 52131  1  0  0  0
 53 54  1  0  0  0
 54 55  2  0  0  0
 54132  1  0  0  0
 55 57  1  0  0  0
 55133  1  0  0  0
 56 69  2  0  0  0
 57 58  2  0  0  0
 57134  1  0  0  0
 58135  1  0  0  0
 59 60  1  0  0  0
 59 61  1  0  0  0
 59 62  1  0  0  0
 60136  1  0  0  0
 60137  1  0  0  0
 60138  1  0  0  0
 61139  1  0  0  0
 61140  1  0  0  0
 61141  1  0  0  0
 62142  1  0  0  0
 62143  1  0  0  0
 62144  1  0  0  0
 63 65  1  0  0  0
 63145  1  0  0  0
 63146  1  0  0  0
 63147  1  0  0  0
 64148  1  0  0  0
 65149  1  0  0  0
 68 85  1  0  0  0
 71 73  2  0  0  0
 71 74  1  0  0  0
 71150  1  0  0  0
 72 74  2  0  0  0
 72 75  1  0  0  0
 72151  1  0  0  0
 73 76  1  0  0  0
 73 82  1  0  0  0
 74 87  1  0  0  0
 75 76  2  0  0  0
 75 88  1  0  0  0
 76 89  1  0  0  0
 77 78  2  0  0  0
 77 79  1  0  0  0
 77 85  1  0  0  0
 78 83  1  0  0  0
 78 87  1  0  0  0
 79 80  1  0  0  0
 79 90  2  0  0  0
 80 81  1  0  0  0
 80152  1  0  0  0
 80153  1  0  0  0
 81 87  1  0  0  0
 81154  1  0  0  0
 81155  1  0  0  0
 82156  1  0  0  0
 82157  1  0  0  0
 82158  1  0  0  0
 83159  1  0  0  0
 83160  1  0  0  0
 83161  1  0  0  0
 84 86  1  0  0  0
 84162  1  0  0  0
 84163  1  0  0  0
 84164  1  0  0  0
 85165  1  0  0  0
 85166  1  0  0  0
 86 89  1  0  0  0
 86167  1  0  0  0
 86168  1  0  0  0
 88169  1  0  0  0
 88170  1  0  0  0
M  ISO  4   1 100  68 101  85 101  89 100
M  END
> <chiral flag>
0

> <version>
0

> <s_m_source_file>
/data/baiqing/PycharmProjects/Reinvent-master-3.2/result/LINK_invent/BTK/process_docking_weight1_custom_product_contain_oxygen_bond_distance_aromatic_linkinvent_7_9_3/rearranged_h_0109.sdf

> <i_m_source_file_index>
83

> <r_mmod_Potential_Energy-OPLS-2005>
455.619293212891

> <r_mmod_Stretch_Energy-OPLS-2005>
121.51766204834

> <r_mmod_Bend_Energy-OPLS-2005>
198.189590454102

> <r_mmod_Torsional_Energy-OPLS-2005>
355.056823730469

> <r_mmod_Improper_Torsional_Energy-OPLS-2005>
38.7646789550781

> <r_mmod_Van_der_Waal_Energy-OPLS-2005>
163.522445678711

> <r_mmod_Electrostatic_Energy-OPLS-2005>
-323.155578613281

> <r_mmod_Solvation_Energy-OPLS-2005>
-203.081954956055

> <b_mmod_Minimization_Converged-OPLS-2005>
0

> <r_mmod_RMS_Derivative-OPLS-2005>
3.33504033088684

$$$$
83
                    3D
 Structure written by MMmdl.
168176  0  0  1  0            999 V2000
  -30.7399  -14.5228   20.4973 C   0  0  0  0  0  0
  -30.3956  -12.3221   19.4456 C   0  0  0  0  0  0
  -29.4862  -12.4866   18.2138 C   0  0  0  0  0  0
  -28.0089  -12.3560   18.6259 C   0  0  0  0  0  0
  -27.6468  -13.2257   19.8602 C   0  0  2  0  0  0
  -28.6939  -13.0991   20.9905 C   0  0  0  0  0  0
  -25.2528  -13.8185   20.5715 C   0  0  0  0  0  0
  -24.1806  -13.0446   20.9206 C   0  0  0  0  0  0
  -24.6377  -11.6921   20.8764 C   0  0  0  0  0  0
  -23.9070  -10.4292   21.0412 C   0  0  0  0  0  0
  -24.3617   -9.4209   21.9190 C   0  0  0  0  0  0
  -23.6288   -8.2246   22.0755 C   0  0  0  0  0  0
  -22.4269   -8.0281   21.3550 C   0  0  0  0  0  0
  -21.9916   -9.0257   20.4649 C   0  0  0  0  0  0
  -22.7245  -10.2137   20.3066 C   0  0  0  0  0  0
  -21.6854   -6.0732   22.5272 C   0  0  0  0  0  0
  -21.4012   -6.5644   23.8201 C   0  0  0  0  0  0
  -21.3661   -5.6793   24.9165 C   0  0  0  0  0  0
  -21.6045   -4.3055   24.7214 C   0  0  0  0  0  0
  -21.8829   -3.8147   23.4340 C   0  0  0  0  0  0
  -21.9188   -4.6958   22.3396 C   0  0  0  0  0  0
  -22.7834  -13.5229   21.1855 C   0  0  0  0  0  0
  -22.1666   -4.2152   21.0970 F   0  0  0  0  0  0
  -21.5623   -3.4545   25.7733 F   0  0  0  0  0  0
  -30.0145  -13.3716   20.4097 N   0  0  0  0  0  0
  -26.2952  -12.9397   20.3339 N   0  0  0  0  0  0
  -25.9308  -11.6544   20.5792 N   0  0  0  0  0  0
  -22.0491  -12.8214   22.0401 N   0  0  0  0  0  0
  -25.4241  -15.1907   20.4145 N   0  0  0  0  0  0
  -31.9165  -14.5254   20.1239 O   0  0  0  0  0  0
  -21.6633   -6.8885   21.4242 O   0  0  0  0  0  0
  -22.3532  -14.5540   20.6704 O   0  0  0  0  0  0
  -24.6132  -31.8659   23.2094 C   0  0  0  0  0  0
  -25.9013  -32.4817   23.8407 C   0  0  1  0  0  0
  -27.2411  -27.4231   20.1029 C   0  0  0  0  0  0
  -25.5863  -33.8610   24.2322 N   0  0  0  0  0  0
  -23.4039  -30.4864   21.5488 C   0  0  2  0  0  0
  -24.8556  -28.9466   20.1160 C   0  0  0  0  0  0
  -22.7420  -29.4630   22.5012 C   0  0  0  0  0  0
  -18.0267  -28.1377   22.8498 C   0  0  0  0  0  0
  -24.1475  -36.7331   23.2640 C   0  0  0  0  0  0
  -25.9313  -30.8310   21.3571 C   0  0  0  0  0  0
  -26.0134  -29.4606   20.7116 C   0  0  0  0  0  0
  -27.2116  -28.7077   20.6958 C   0  0  0  0  0  0
  -26.0657  -26.9220   19.5065 C   0  0  0  0  0  0
  -24.8788  -27.6787   19.5068 C   0  0  0  0  0  0
  -23.6124  -29.8087   20.1669 C   0  0  0  0  0  0
  -25.4094  -36.3103   24.0334 C   0  0  1  0  0  0
  -20.5854  -28.3655   23.1341 C   0  0  2  0  0  0
  -20.6757  -26.9392   22.5434 C   0  0  0  0  0  0
  -19.5747  -26.6384   21.5213 C   0  0  0  0  0  0
  -18.1914  -26.7934   22.1614 C   0  0  0  0  0  0
  -19.1514  -28.8837   23.2910 C   0  0  0  0  0  0
  -18.9437  -30.1442   23.8923 C   0  0  0  0  0  0
  -17.6440  -30.6587   24.0552 C   0  0  0  0  0  0
  -25.9028  -34.9466   23.5134 C   0  0  0  0  0  0
  -16.5330  -29.9084   23.6327 C   0  0  0  0  0  0
  -16.7253  -28.6495   23.0355 C   0  0  0  0  0  0
  -26.4451  -31.6586   25.0731 C   0  0  0  0  0  0
  -25.3713  -31.3651   26.1475 C   0  0  0  0  0  0
  -27.0263  -30.3032   24.6070 C   0  0  0  0  0  0
  -27.6065  -32.4284   25.7465 C   0  0  0  0  0  0
  -27.5569  -37.1807   24.8465 C   0  0  0  0  0  0
  -21.4144  -29.3015   22.3761 N   0  0  0  0  0  0
  -26.4289  -37.3782   23.9409 N   0  0  0  0  0  0
  -24.6683  -31.0761   22.0983 N   0  0  0  0  0  0
  -23.4192  -28.8156   23.3044 O   0  0  0  0  0  0
  -28.4160  -26.6997   20.0840 O   0  0  0  0  0  0
  -26.5597  -34.8921   22.4702 O   0  0  0  0  0  0
  -23.5322  -32.1400   23.7492 O   0  0  0  0  0  0
  -28.7541  -18.3722   19.9456 C   0  0  0  0  0  0
  -29.7922  -18.1753   20.8897 C   0  0  0  0  0  0
  -30.1479  -19.2718   21.7392 C   0  0  0  0  0  0
  -28.1562  -19.6456   19.7750 C   0  0  0  0  0  0
  -29.5434  -20.5473   21.5607 C   0  0  0  0  0  0
  -28.5958  -20.7599   20.5256 C   0  0  0  0  0  0
  -30.6480  -16.9184   20.8212 C   0  0  0  0  0  0
  -32.5395  -19.7604   22.5300 C   0  0  0  0  0  0
  -29.1395  -22.0642   24.5818 C   0  0  0  0  0  0
  -31.1787  -19.1294   22.8667 C   0  0  0  0  0  0
  -28.5806  -24.3333   19.2873 C   0  0  0  0  0  0
  -28.9074  -22.2616   23.0836 C   0  0  0  0  0  0
  -28.3664  -25.3112   20.4696 C   0  0  0  0  0  0
  -29.0903  -22.9095   19.6527 C   0  0  0  0  0  0
  -27.1537  -19.8280   18.8220 N   0  0  0  0  0  0
  -30.0784  -15.6798   20.7865 N   0  0  0  0  0  0
  -31.8700  -17.1063   20.7875 O   0  0  0  0  0  0
  -29.9401  -21.5782   22.3814 O   0  0  0  0  0  0
  -28.1114  -22.0278   20.2263 O   0  0  0  0  0  0
  -31.4426  -12.3686   19.1431 H   0  0  0  0  0  0
  -30.2661  -11.3370   19.8948 H   0  0  0  0  0  0
  -29.7312  -11.7350   17.4620 H   0  0  0  0  0  0
  -29.6565  -13.4577   17.7450 H   0  0  0  0  0  0
  -27.8187  -11.3042   18.8415 H   0  0  0  0  0  0
  -27.3627  -12.6145   17.7870 H   0  0  0  0  0  0
  -27.6627  -14.2620   19.5209 H   0  0  0  0  0  0
  -28.6769  -12.0976   21.4230 H   0  0  0  0  0  0
  -28.4647  -13.7845   21.8086 H   0  0  0  0  0  0
  -25.2768   -9.5673   22.4758 H   0  0  0  0  0  0
  -23.9998   -7.4633   22.7467 H   0  0  0  0  0  0
  -21.0855   -8.8782   19.8942 H   0  0  0  0  0  0
  -22.3713  -10.9680   19.6169 H   0  0  0  0  0  0
  -21.2016   -7.6157   23.9711 H   0  0  0  0  0  0
  -21.1473   -6.0522   25.9067 H   0  0  0  0  0  0
  -22.0607   -2.7613   23.2833 H   0  0  0  0  0  0
  -22.4122  -11.9867   22.4761 H   0  0  0  0  0  0
  -21.1110  -13.1236   22.2616 H   0  0  0  0  0  0
  -24.6588  -15.8474   20.5257 H   0  0  0  0  0  0
  -26.2686  -15.6290   20.0698 H   0  0  0  0  0  0
  -26.7084  -32.5530   23.1171 H   0  0  0  0  0  0
  -24.9988  -33.9805   25.0441 H   0  0  0  0  0  0
  -22.6935  -31.3032   21.4035 H   0  0  0  0  0  0
  -23.3734  -35.9672   23.3306 H   0  0  0  0  0  0
  -24.3565  -36.8948   22.2057 H   0  0  0  0  0  0
  -23.7236  -37.6540   23.6665 H   0  0  0  0  0  0
  -26.0260  -31.5858   20.5758 H   0  0  0  0  0  0
  -26.8290  -30.9017   21.9603 H   0  0  0  0  0  0
  -28.1098  -29.1009   21.1511 H   0  0  0  0  0  0
  -26.0671  -25.9517   19.0318 H   0  0  0  0  0  0
  -23.9907  -27.2801   19.0375 H   0  0  0  0  0  0
  -23.7058  -30.5755   19.3974 H   0  0  0  0  0  0
  -22.7401  -29.2167   19.8844 H   0  0  0  0  0  0
  -25.1244  -36.2007   25.0827 H   0  0  0  0  0  0
  -20.9921  -28.3195   24.1470 H   0  0  0  0  0  0
  -20.5656  -26.2242   23.3601 H   0  0  0  0  0  0
  -21.6630  -26.7450   22.1217 H   0  0  0  0  0  0
  -19.6925  -25.6298   21.1219 H   0  0  0  0  0  0
  -19.6709  -27.3226   20.6768 H   0  0  0  0  0  0
  -17.4189  -26.6686   21.4005 H   0  0  0  0  0  0
  -18.0319  -26.0068   22.9006 H   0  0  0  0  0  0
  -19.7901  -30.7249   24.2313 H   0  0  0  0  0  0
  -17.4982  -31.6274   24.5137 H   0  0  0  0  0  0
  -15.5326  -30.2971   23.7669 H   0  0  0  0  0  0
  -15.8646  -28.0812   22.7080 H   0  0  0  0  0  0
  -24.5978  -30.6886   25.7805 H   0  0  0  0  0  0
  -24.8783  -32.2761   26.4887 H   0  0  0  0  0  0
  -25.8085  -30.8885   27.0256 H   0  0  0  0  0  0
  -26.2791  -29.6831   24.1105 H   0  0  0  0  0  0
  -27.4002  -29.7237   25.4521 H   0  0  0  0  0  0
  -27.8632  -30.4353   23.9202 H   0  0  0  0  0  0
  -27.2750  -33.3620   26.2017 H   0  0  0  0  0  0
  -28.3873  -32.6767   25.0262 H   0  0  0  0  0  0
  -28.0712  -31.8392   26.5378 H   0  0  0  0  0  0
  -28.2575  -38.0109   24.7494 H   0  0  0  0  0  0
  -28.1057  -36.2636   24.6293 H   0  0  0  0  0  0
  -27.2287  -37.1457   25.8866 H   0  0  0  0  0  0
  -20.9330  -29.8700   21.6935 H   0  0  0  0  0  0
  -26.0182  -38.2861   24.1425 H   0  0  0  0  0  0
  -28.4713  -17.5594   19.2904 H   0  0  0  0  0  0
  -33.2341  -19.6396   23.3620 H   0  0  0  0  0  0
  -32.4499  -20.8274   22.3307 H   0  0  0  0  0  0
  -32.9926  -19.3015   21.6519 H   0  0  0  0  0  0
  -29.1075  -21.0060   24.8427 H   0  0  0  0  0  0
  -28.3750  -22.5753   25.1683 H   0  0  0  0  0  0
  -30.1126  -22.4523   24.8822 H   0  0  0  0  0  0
  -31.3140  -18.0876   23.1593 H   0  0  0  0  0  0
  -30.7797  -19.6034   23.7633 H   0  0  0  0  0  0
  -29.3451  -24.7727   18.6460 H   0  0  0  0  0  0
  -27.6848  -24.2687   18.6714 H   0  0  0  0  0  0
  -28.9454  -23.3222   22.8318 H   0  0  0  0  0  0
  -27.9076  -21.9062   22.8315 H   0  0  0  0  0  0
  -29.1822  -25.1794   21.1794 H   0  0  0  0  0  0
  -27.4571  -25.0624   21.0169 H   0  0  0  0  0  0
  -29.9688  -22.9988   20.2938 H   0  0  0  0  0  0
  -29.4411  -22.4441   18.7297 H   0  0  0  0  0  0
  -27.0412  -19.1713   18.0587 H   0  0  0  0  0  0
  -26.8927  -20.7810   18.5910 H   0  0  0  0  0  0
  -29.0856  -15.6290   20.9338 H   0  0  0  0  0  0
  1 25  1  0  0  0
  1 30  2  0  0  0
  1 86  1  0  0  0
  2  3  1  0  0  0
  2 25  1  0  0  0
  2 90  1  0  0  0
  2 91  1  0  0  0
  3  4  1  0  0  0
  3 92  1  0  0  0
  3 93  1  0  0  0
  4  5  1  0  0  0
  4 94  1  0  0  0
  4 95  1  0  0  0
  5  6  1  0  0  0
  5 26  1  0  0  0
  5 96  1  0  0  0
  6 25  1  0  0  0
  6 97  1  0  0  0
  6 98  1  0  0  0
  7  8  2  0  0  0
  7 26  1  0  0  0
  7 29  1  0  0  0
  8  9  1  0  0  0
  8 22  1  0  0  0
  9 10  1  0  0  0
  9 27  2  0  0  0
 10 11  2  0  0  0
 10 15  1  0  0  0
 11 12  1  0  0  0
 11 99  1  0  0  0
 12 13  2  0  0  0
 12100  1  0  0  0
 13 14  1  0  0  0
 13 31  1  0  0  0
 14 15  2  0  0  0
 14101  1  0  0  0
 15102  1  0  0  0
 16 17  2  0  0  0
 16 21  1  0  0  0
 16 31  1  0  0  0
 17 18  1  0  0  0
 17103  1  0  0  0
 18 19  2  0  0  0
 18104  1  0  0  0
 19 20  1  0  0  0
 19 24  1  0  0  0
 20 21  2  0  0  0
 20105  1  0  0  0
 21 23  1  0  0  0
 22 28  1  0  0  0
 22 32  2  0  0  0
 26 27  1  0  0  0
 28106  1  0  0  0
 28107  1  0  0  0
 29108  1  0  0  0
 29109  1  0  0  0
 33 34  1  0  0  0
 33 66  1  0  0  0
 33 70  2  0  0  0
 34 36  1  0  0  0
 34 59  1  0  0  0
 34110  1  0  0  0
 35 44  2  0  0  0
 35 45  1  0  0  0
 35 68  1  0  0  0
 36 56  1  0  0  0
 36111  1  0  0  0
 37 39  1  0  0  0
 37 47  1  0  0  0
 37 66  1  0  0  0
 37112  1  0  0  0
 38 43  2  0  0  0
 38 46  1  0  0  0
 38 47  1  0  0  0
 39 64  1  0  0  0
 39 67  2  0  0  0
 40 52  1  0  0  0
 40 53  2  0  0  0
 40 58  1  0  0  0
 41113  1  0  0  0
 41114  1  0  0  0
 41115  1  0  0  0
 41 48  1  0  0  0
 42 43  1  0  0  0
 42 66  1  0  0  0
 42116  1  0  0  0
 42117  1  0  0  0
 43 44  1  0  0  0
 44118  1  0  0  0
 45 46  2  0  0  0
 45119  1  0  0  0
 46120  1  0  0  0
 47121  1  0  0  0
 47122  1  0  0  0
 48 56  1  0  0  0
 48 65  1  0  0  0
 48123  1  0  0  0
 49 50  1  0  0  0
 49 53  1  0  0  0
 49 64  1  0  0  0
 49124  1  0  0  0
 50 51  1  0  0  0
 50125  1  0  0  0
 50126  1  0  0  0
 51 52  1  0  0  0
 51127  1  0  0  0
 51128  1  0  0  0
 52129  1  0  0  0
 52130  1  0  0  0
 53 54  1  0  0  0
 54 55  2  0  0  0
 54131  1  0  0  0
 55 57  1  0  0  0
 55132  1  0  0  0
 56 69  2  0  0  0
 57 58  2  0  0  0
 57133  1  0  0  0
 58134  1  0  0  0
 59 60  1  0  0  0
 59 61  1  0  0  0
 59 62  1  0  0  0
 60135  1  0  0  0
 60136  1  0  0  0
 60137  1  0  0  0
 61138  1  0  0  0
 61139  1  0  0  0
 61140  1  0  0  0
 62141  1  0  0  0
 62142  1  0  0  0
 62143  1  0  0  0
 63 65  1  0  0  0
 63144  1  0  0  0
 63145  1  0  0  0
 63146  1  0  0  0
 64147  1  0  0  0
 65148  1  0  0  0
 68 83  1  0  0  0
 71 72  2  0  0  0
 71 74  1  0  0  0
 71149  1  0  0  0
 72 73  1  0  0  0
 72 77  1  0  0  0
 73 75  2  0  0  0
 73 80  1  0  0  0
 74 76  2  0  0  0
 74 85  1  0  0  0
 75 76  1  0  0  0
 75 88  1  0  0  0
 76 89  1  0  0  0
 77 86  1  0  0  0
 77 87  2  0  0  0
 78 80  1  0  0  0
 78150  1  0  0  0
 78151  1  0  0  0
 78152  1  0  0  0
 79 82  1  0  0  0
 79153  1  0  0  0
 79154  1  0  0  0
 79155  1  0  0  0
 80156  1  0  0  0
 80157  1  0  0  0
 81 83  1  0  0  0
 81 84  1  0  0  0
 81158  1  0  0  0
 81159  1  0  0  0
 82 88  1  0  0  0
 82160  1  0  0  0
 82161  1  0  0  0
 83162  1  0  0  0
 83163  1  0  0  0
 84 89  1  0  0  0
 84164  1  0  0  0
 84165  1  0  0  0
 85166  1  0  0  0
 85167  1  0  0  0
 86168  1  0  0  0
M  ISO  4   1 100  68 101  83 101  86 100
M  END
> <chiral flag>
0

> <version>
0

> <s_m_source_file>
/data/baiqing/PycharmProjects/Reinvent-master-3.2/result/LINK_invent/BTK/process_docking_weight1_custom_product_contain_oxygen_bond_distance_aromatic_linkinvent_7_9_3/rearranged_h_0109.sdf

> <i_m_source_file_index>
84

> <r_mmod_Potential_Energy-OPLS-2005>
-68.8279495239258

> <r_mmod_Stretch_Energy-OPLS-2005>
47.2190017700195

> <r_mmod_Bend_Energy-OPLS-2005>
118.38550567627

> <r_mmod_Torsional_Energy-OPLS-2005>
297.678436279297

> <r_mmod_Improper_Torsional_Energy-OPLS-2005>
8.666579246521

> <r_mmod_Van_der_Waal_Energy-OPLS-2005>
160.199127197266

> <r_mmod_Electrostatic_Energy-OPLS-2005>
-497.025848388672

> <r_mmod_Solvation_Energy-OPLS-2005>
-228.367813110352

> <b_mmod_Minimization_Converged-OPLS-2005>
0

> <r_mmod_RMS_Derivative-OPLS-2005>
2.91918134689331

$$$$
84
                    3D
 Structure written by MMmdl.
168177  0  0  1  0            999 V2000
  -30.6363  -14.6348   20.5052 C   0  0  0  0  0  0
  -30.4408  -12.3857   19.4626 C   0  0  0  0  0  0
  -29.5175  -12.5031   18.2298 C   0  0  0  0  0  0
  -28.0362  -12.3550   18.6332 C   0  0  0  0  0  0
  -27.6593  -13.2220   19.8646 C   0  0  2  0  0  0
  -28.7008  -13.0731   20.9969 C   0  0  0  0  0  0
  -25.2578  -13.8185   20.5668 C   0  0  0  0  0  0
  -24.1847  -13.0453   20.9175 C   0  0  0  0  0  0
  -24.6420  -11.6925   20.8727 C   0  0  0  0  0  0
  -23.9095  -10.4295   21.0395 C   0  0  0  0  0  0
  -24.3639   -9.4203   21.9176 C   0  0  0  0  0  0
  -23.6308   -8.2245   22.0747 C   0  0  0  0  0  0
  -22.4283   -8.0287   21.3550 C   0  0  0  0  0  0
  -21.9922   -9.0268   20.4649 C   0  0  0  0  0  0
  -22.7264  -10.2135   20.3048 C   0  0  0  0  0  0
  -21.6851   -6.0746   22.5290 C   0  0  0  0  0  0
  -21.4022   -6.5645   23.8230 C   0  0  0  0  0  0
  -21.3650   -5.6789   24.9186 C   0  0  0  0  0  0
  -21.6036   -4.3055   24.7228 C   0  0  0  0  0  0
  -21.8817   -3.8156   23.4345 C   0  0  0  0  0  0
  -21.9193   -4.6978   22.3406 C   0  0  0  0  0  0
  -22.7858  -13.5263   21.1835 C   0  0  0  0  0  0
  -22.1661   -4.2165   21.0981 F   0  0  0  0  0  0
  -21.5625   -3.4530   25.7736 F   0  0  0  0  0  0
  -30.0210  -13.4112   20.4401 N   0  0  0  0  0  0
  -26.3026  -12.9384   20.3302 N   0  0  0  0  0  0
  -25.9352  -11.6537   20.5731 N   0  0  0  0  0  0
  -22.0472  -12.8266   22.0376 N   0  0  0  0  0  0
  -25.4293  -15.1899   20.4094 N   0  0  0  0  0  0
  -31.7871  -14.7950   20.0869 O   0  0  0  0  0  0
  -21.6642   -6.8887   21.4251 O   0  0  0  0  0  0
  -22.3547  -14.5571   20.6683 O   0  0  0  0  0  0
  -24.6282  -31.8599   23.2028 C   0  0  0  0  0  0
  -25.9121  -32.4781   23.8358 C   0  0  1  0  0  0
  -27.2247  -27.3180   20.1062 C   0  0  0  0  0  0
  -25.5931  -33.8580   24.2284 N   0  0  0  0  0  0
  -23.4220  -30.4857   21.5460 C   0  0  2  0  0  0
  -24.8670  -28.9420   20.1129 C   0  0  0  0  0  0
  -22.7479  -29.4629   22.4927 C   0  0  0  0  0  0
  -18.0289  -28.1390   22.8487 C   0  0  0  0  0  0
  -24.1489  -36.7287   23.2641 C   0  0  0  0  0  0
  -25.9651  -30.7901   21.3749 C   0  0  0  0  0  0
  -26.0381  -29.4180   20.7142 C   0  0  0  0  0  0
  -27.2204  -28.6195   20.6991 C   0  0  0  0  0  0
  -26.0230  -26.8953   19.4866 C   0  0  0  0  0  0
  -24.8610  -27.6860   19.4921 C   0  0  0  0  0  0
  -23.6374  -29.8238   20.1607 C   0  0  0  0  0  0
  -25.4113  -36.3083   24.0332 C   0  0  1  0  0  0
  -20.5892  -28.3695   23.1273 C   0  0  2  0  0  0
  -20.6773  -26.9417   22.5403 C   0  0  0  0  0  0
  -19.5749  -26.6388   21.5206 C   0  0  0  0  0  0
  -18.1929  -26.7934   22.1623 C   0  0  0  0  0  0
  -19.1540  -28.8856   23.2885 C   0  0  0  0  0  0
  -18.9466  -30.1460   23.8902 C   0  0  0  0  0  0
  -17.6470  -30.6595   24.0563 C   0  0  0  0  0  0
  -25.9050  -34.9452   23.5107 C   0  0  0  0  0  0
  -16.5359  -29.9096   23.6327 C   0  0  0  0  0  0
  -16.7278  -28.6508   23.0351 C   0  0  0  0  0  0
  -26.4501  -31.6597   25.0733 C   0  0  0  0  0  0
  -25.3737  -31.3730   26.1466 C   0  0  0  0  0  0
  -27.0341  -30.3023   24.6184 C   0  0  0  0  0  0
  -27.6061  -32.4340   25.7503 C   0  0  0  0  0  0
  -27.5580  -37.1798   24.8468 C   0  0  0  0  0  0
  -21.4190  -29.3050   22.3661 N   0  0  0  0  0  0
  -26.4287  -37.3779   23.9419 N   0  0  0  0  0  0
  -24.6911  -31.0611   22.0984 N   0  0  0  0  0  0
  -23.4197  -28.8152   23.2999 O   0  0  0  0  0  0
  -28.3434  -26.4666   20.1473 O   0  0  0  0  0  0
  -26.5615  -34.8913   22.4672 O   0  0  0  0  0  0
  -23.5444  -32.1397   23.7346 O   0  0  0  0  0  0
  -29.9449  -19.0831   19.1283 C   0  0  0  0  0  0
  -29.8687  -19.4854   21.4883 C   0  0  0  0  0  0
  -29.9462  -17.6721   19.3435 C   0  0  0  0  0  0
  -29.8724  -18.0733   21.7251 C   0  0  0  0  0  0
  -29.9370  -20.0382   20.1854 C   0  0  0  0  0  0
  -29.9500  -17.1244   20.6603 C   0  0  0  0  0  0
  -30.5186  -24.5457   20.3541 C   0  0  0  0  0  0
  -29.3002  -24.0073   20.1264 C   0  0  0  0  0  0
  -31.7694  -23.7955   20.3109 C   0  0  0  0  0  0
  -32.0044  -22.9563   19.0623 C   0  0  0  0  0  0
  -31.2058  -21.6461   18.9691 C   0  0  0  0  0  0
  -28.9957  -22.4424   19.9838 C   0  0  1  0  0  0
  -29.9188  -16.7710   18.1204 C   0  0  0  0  0  0
  -29.8127  -17.5837   23.1618 C   0  0  0  0  0  0
  -28.0656  -22.1707   18.7861 C   0  0  0  0  0  0
  -28.1050  -25.0113   19.9715 C   0  0  0  0  0  0
  -30.1317  -21.4518   19.9562 N   0  0  0  0  0  0
  -29.8697  -15.6866   20.9350 N   0  0  0  0  0  0
  -32.6450  -23.8820   21.1760 O   0  0  0  0  0  0
  -31.4843  -12.5030   19.1659 H   0  0  0  0  0  0
  -30.3698  -11.3906   19.9042 H   0  0  0  0  0  0
  -29.7805  -11.7439   17.4917 H   0  0  0  0  0  0
  -29.6735  -13.4656   17.7429 H   0  0  0  0  0  0
  -27.8616  -11.3018   18.8568 H   0  0  0  0  0  0
  -27.3896  -12.5966   17.7889 H   0  0  0  0  0  0
  -27.6827  -14.2588   19.5284 H   0  0  0  0  0  0
  -28.7038  -12.0516   21.3796 H   0  0  0  0  0  0
  -28.4427  -13.7050   21.8476 H   0  0  0  0  0  0
  -25.2763   -9.5695   22.4769 H   0  0  0  0  0  0
  -24.0003   -7.4648   22.7479 H   0  0  0  0  0  0
  -21.0846   -8.8814   19.8964 H   0  0  0  0  0  0
  -22.3731  -10.9686   19.6167 H   0  0  0  0  0  0
  -21.2016   -7.6154   23.9750 H   0  0  0  0  0  0
  -21.1465   -6.0503   25.9093 H   0  0  0  0  0  0
  -22.0602   -2.7623   23.2840 H   0  0  0  0  0  0
  -22.4059  -11.9929   22.4782 H   0  0  0  0  0  0
  -21.1093  -13.1330   22.2562 H   0  0  0  0  0  0
  -24.6633  -15.8430   20.5248 H   0  0  0  0  0  0
  -26.2834  -15.6319   20.0926 H   0  0  0  0  0  0
  -26.7185  -32.5441   23.1102 H   0  0  0  0  0  0
  -25.0083  -33.9729   25.0433 H   0  0  0  0  0  0
  -22.7171  -31.3075   21.4028 H   0  0  0  0  0  0
  -23.3752  -35.9618   23.3304 H   0  0  0  0  0  0
  -24.3577  -36.8904   22.2053 H   0  0  0  0  0  0
  -23.7232  -37.6484   23.6664 H   0  0  0  0  0  0
  -26.0988  -31.5547   20.6081 H   0  0  0  0  0  0
  -26.8444  -30.8346   22.0060 H   0  0  0  0  0  0
  -28.1202  -28.9834   21.1753 H   0  0  0  0  0  0
  -25.9377  -25.9388   18.9944 H   0  0  0  0  0  0
  -23.9629  -27.3144   19.0185 H   0  0  0  0  0  0
  -23.7601  -30.6015   19.4063 H   0  0  0  0  0  0
  -22.7569  -29.2570   19.8546 H   0  0  0  0  0  0
  -25.1290  -36.1932   25.0822 H   0  0  0  0  0  0
  -20.9990  -28.3273   24.1396 H   0  0  0  0  0  0
  -20.5659  -26.2310   23.3607 H   0  0  0  0  0  0
  -21.6643  -26.7442   22.1206 H   0  0  0  0  0  0
  -19.6906  -25.6295   21.1245 H   0  0  0  0  0  0
  -19.6686  -27.3187   20.6724 H   0  0  0  0  0  0
  -17.4196  -26.6684   21.4029 H   0  0  0  0  0  0
  -18.0345  -26.0083   22.9028 H   0  0  0  0  0  0
  -19.7944  -30.7273   24.2278 H   0  0  0  0  0  0
  -17.5025  -31.6275   24.5166 H   0  0  0  0  0  0
  -15.5360  -30.2999   23.7646 H   0  0  0  0  0  0
  -15.8681  -28.0827   22.7071 H   0  0  0  0  0  0
  -24.5903  -30.7091   25.7797 H   0  0  0  0  0  0
  -24.8940  -32.2890   26.4921 H   0  0  0  0  0  0
  -25.8064  -30.8889   27.0226 H   0  0  0  0  0  0
  -26.2906  -29.6777   24.1217 H   0  0  0  0  0  0
  -27.4046  -29.7281   25.4684 H   0  0  0  0  0  0
  -27.8779  -30.4315   23.9401 H   0  0  0  0  0  0
  -27.2670  -33.3641   26.2078 H   0  0  0  0  0  0
  -28.3867  -32.6899   25.0329 H   0  0  0  0  0  0
  -28.0736  -31.8469   26.5418 H   0  0  0  0  0  0
  -28.2597  -38.0097   24.7517 H   0  0  0  0  0  0
  -28.1071  -36.2623   24.6289 H   0  0  0  0  0  0
  -27.2300  -37.1450   25.8871 H   0  0  0  0  0  0
  -20.9367  -29.8792   21.6888 H   0  0  0  0  0  0
  -26.0166  -38.2852   24.1422 H   0  0  0  0  0  0
  -29.9678  -19.4350   18.1064 H   0  0  0  0  0  0
  -29.8567  -20.1603   22.3323 H   0  0  0  0  0  0
  -30.6233  -25.6136   20.4679 H   0  0  0  0  0  0
  -33.0692  -22.7492   18.9541 H   0  0  0  0  0  0
  -31.7427  -23.5838   18.2101 H   0  0  0  0  0  0
  -31.9323  -20.8356   19.0585 H   0  0  0  0  0  0
  -30.7899  -21.5623   17.9643 H   0  0  0  0  0  0
  -28.4212  -22.1961   20.8797 H   0  0  0  0  0  0
  -29.4762  -17.2855   17.2672 H   0  0  0  0  0  0
  -29.3215  -15.8765   18.2921 H   0  0  0  0  0  0
  -30.9317  -16.4704   17.8502 H   0  0  0  0  0  0
  -29.7534  -18.4147   23.8653 H   0  0  0  0  0  0
  -30.7046  -17.0043   23.4061 H   0  0  0  0  0  0
  -28.9385  -16.9502   23.3140 H   0  0  0  0  0  0
  -28.5160  -22.4838   17.8435 H   0  0  0  0  0  0
  -27.1139  -22.6914   18.8893 H   0  0  0  0  0  0
  -27.8163  -21.1127   18.7027 H   0  0  0  0  0  0
  -27.3057  -24.6919   20.6421 H   0  0  0  0  0  0
  -27.7577  -24.8701   18.9494 H   0  0  0  0  0  0
  -29.0416  -15.4025   21.4361 H   0  0  0  0  0  0
  1 25  1  0  0  0
  1 30  2  0  0  0
  1 88  1  0  0  0
  2  3  1  0  0  0
  2 25  1  0  0  0
  2 90  1  0  0  0
  2 91  1  0  0  0
  3  4  1  0  0  0
  3 92  1  0  0  0
  3 93  1  0  0  0
  4  5  1  0  0  0
  4 94  1  0  0  0
  4 95  1  0  0  0
  5  6  1  0  0  0
  5 26  1  0  0  0
  5 96  1  0  0  0
  6 25  1  0  0  0
  6 97  1  0  0  0
  6 98  1  0  0  0
  7  8  2  0  0  0
  7 26  1  0  0  0
  7 29  1  0  0  0
  8  9  1  0  0  0
  8 22  1  0  0  0
  9 10  1  0  0  0
  9 27  2  0  0  0
 10 11  2  0  0  0
 10 15  1  0  0  0
 11 12  1  0  0  0
 11 99  1  0  0  0
 12 13  2  0  0  0
 12100  1  0  0  0
 13 14  1  0  0  0
 13 31  1  0  0  0
 14 15  2  0  0  0
 14101  1  0  0  0
 15102  1  0  0  0
 16 17  2  0  0  0
 16 21  1  0  0  0
 16 31  1  0  0  0
 17 18  1  0  0  0
 17103  1  0  0  0
 18 19  2  0  0  0
 18104  1  0  0  0
 19 20  1  0  0  0
 19 24  1  0  0  0
 20 21  2  0  0  0
 20105  1  0  0  0
 21 23  1  0  0  0
 22 28  1  0  0  0
 22 32  2  0  0  0
 26 27  1  0  0  0
 28106  1  0  0  0
 28107  1  0  0  0
 29108  1  0  0  0
 29109  1  0  0  0
 33 34  1  0  0  0
 33 66  1  0  0  0
 33 70  2  0  0  0
 34 36  1  0  0  0
 34 59  1  0  0  0
 34110  1  0  0  0
 35 44  2  0  0  0
 35 45  1  0  0  0
 35 68  1  0  0  0
 36 56  1  0  0  0
 36111  1  0  0  0
 37 39  1  0  0  0
 37 47  1  0  0  0
 37 66  1  0  0  0
 37112  1  0  0  0
 38 43  2  0  0  0
 38 46  1  0  0  0
 38 47  1  0  0  0
 39 64  1  0  0  0
 39 67  2  0  0  0
 40 52  1  0  0  0
 40 53  2  0  0  0
 40 58  1  0  0  0
 41113  1  0  0  0
 41114  1  0  0  0
 41115  1  0  0  0
 41 48  1  0  0  0
 42 43  1  0  0  0
 42 66  1  0  0  0
 42116  1  0  0  0
 42117  1  0  0  0
 43 44  1  0  0  0
 44118  1  0  0  0
 45 46  2  0  0  0
 45119  1  0  0  0
 46120  1  0  0  0
 47121  1  0  0  0
 47122  1  0  0  0
 48 56  1  0  0  0
 48 65  1  0  0  0
 48123  1  0  0  0
 49 50  1  0  0  0
 49 53  1  0  0  0
 49 64  1  0  0  0
 49124  1  0  0  0
 50 51  1  0  0  0
 50125  1  0  0  0
 50126  1  0  0  0
 51 52  1  0  0  0
 51127  1  0  0  0
 51128  1  0  0  0
 52129  1  0  0  0
 52130  1  0  0  0
 53 54  1  0  0  0
 54 55  2  0  0  0
 54131  1  0  0  0
 55 57  1  0  0  0
 55132  1  0  0  0
 56 69  2  0  0  0
 57 58  2  0  0  0
 57133  1  0  0  0
 58134  1  0  0  0
 59 60  1  0  0  0
 59 61  1  0  0  0
 59 62  1  0  0  0
 60135  1  0  0  0
 60136  1  0  0  0
 60137  1  0  0  0
 61138  1  0  0  0
 61139  1  0  0  0
 61140  1  0  0  0
 62141  1  0  0  0
 62142  1  0  0  0
 62143  1  0  0  0
 63 65  1  0  0  0
 63144  1  0  0  0
 63145  1  0  0  0
 63146  1  0  0  0
 64147  1  0  0  0
 65148  1  0  0  0
 68 86  1  0  0  0
 71 73  2  0  0  0
 71 75  1  0  0  0
 71149  1  0  0  0
 72 74  1  0  0  0
 72 75  2  0  0  0
 72150  1  0  0  0
 73 76  1  0  0  0
 73 83  1  0  0  0
 74 76  2  0  0  0
 74 84  1  0  0  0
 75 87  1  0  0  0
 76 88  1  0  0  0
 77 78  2  0  0  0
 77 79  1  0  0  0
 77151  1  0  0  0
 78 82  1  0  0  0
 78 86  1  0  0  0
 79 80  1  0  0  0
 79 89  2  0  0  0
 80 81  1  0  0  0
 80152  1  0  0  0
 80153  1  0  0  0
 81 87  1  0  0  0
 81154  1  0  0  0
 81155  1  0  0  0
 82 85  1  0  0  0
 82 87  1  0  0  0
 82156  1  0  0  0
 83157  1  0  0  0
 83158  1  0  0  0
 83159  1  0  0  0
 84160  1  0  0  0
 84161  1  0  0  0
 84162  1  0  0  0
 85163  1  0  0  0
 85164  1  0  0  0
 85165  1  0  0  0
 86166  1  0  0  0
 86167  1  0  0  0
 88168  1  0  0  0
M  ISO  4   1 100  68 101  86 101  88 100
M  END
> <chiral flag>
0

> <version>
0

> <s_m_source_file>
/data/baiqing/PycharmProjects/Reinvent-master-3.2/result/LINK_invent/BTK/process_docking_weight1_custom_product_contain_oxygen_bond_distance_aromatic_linkinvent_7_9_3/rearranged_h_0109.sdf

> <i_m_source_file_index>
85

> <r_mmod_Potential_Energy-OPLS-2005>
47.609561920166

> <r_mmod_Stretch_Energy-OPLS-2005>
90.8169784545898

> <r_mmod_Bend_Energy-OPLS-2005>
151.155181884766

> <r_mmod_Torsional_Energy-OPLS-2005>
264.320587158203

> <r_mmod_Improper_Torsional_Energy-OPLS-2005>
7.64780521392822

> <r_mmod_Van_der_Waal_Energy-OPLS-2005>
160.439788818359

> <r_mmod_Electrostatic_Energy-OPLS-2005>
-443.541717529297

> <r_mmod_Solvation_Energy-OPLS-2005>
-230.532440185547

> <b_mmod_Minimization_Converged-OPLS-2005>
0

> <r_mmod_RMS_Derivative-OPLS-2005>
2.18931269645691

$$$$
85
                    3D
 Structure written by MMmdl.
166175  0  0  1  0            999 V2000
  -30.6643  -14.6551   20.5662 C   0  0  0  0  0  0
  -30.4332  -12.4209   19.4609 C   0  0  0  0  0  0
  -29.5090  -12.5054   18.2266 C   0  0  0  0  0  0
  -28.0288  -12.3498   18.6306 C   0  0  0  0  0  0
  -27.6459  -13.2193   19.8570 C   0  0  2  0  0  0
  -28.6857  -13.0890   20.9859 C   0  0  0  0  0  0
  -25.2536  -13.8182   20.5695 C   0  0  0  0  0  0
  -24.1807  -13.0441   20.9186 C   0  0  0  0  0  0
  -24.6383  -11.6913   20.8741 C   0  0  0  0  0  0
  -23.9057  -10.4298   21.0405 C   0  0  0  0  0  0
  -24.3616   -9.4211   21.9178 C   0  0  0  0  0  0
  -23.6292   -8.2248   22.0745 C   0  0  0  0  0  0
  -22.4274   -8.0282   21.3538 C   0  0  0  0  0  0
  -21.9906   -9.0258   20.4643 C   0  0  0  0  0  0
  -22.7233  -10.2137   20.3050 C   0  0  0  0  0  0
  -21.6848   -6.0736   22.5280 C   0  0  0  0  0  0
  -21.4018   -6.5640   23.8217 C   0  0  0  0  0  0
  -21.3656   -5.6787   24.9174 C   0  0  0  0  0  0
  -21.6043   -4.3052   24.7226 C   0  0  0  0  0  0
  -21.8822   -3.8147   23.4346 C   0  0  0  0  0  0
  -21.9187   -4.6965   22.3403 C   0  0  0  0  0  0
  -22.7832  -13.5230   21.1857 C   0  0  0  0  0  0
  -22.1647   -4.2151   21.0978 F   0  0  0  0  0  0
  -21.5632   -3.4535   25.7736 F   0  0  0  0  0  0
  -30.0036  -13.4509   20.4348 N   0  0  0  0  0  0
  -26.2947  -12.9356   20.3289 N   0  0  0  0  0  0
  -25.9309  -11.6513   20.5753 N   0  0  0  0  0  0
  -22.0479  -12.8224   22.0423 N   0  0  0  0  0  0
  -25.4252  -15.1914   20.4165 N   0  0  0  0  0  0
  -31.7811  -14.8090   20.0625 O   0  0  0  0  0  0
  -21.6638   -6.8880   21.4239 O   0  0  0  0  0  0
  -22.3512  -14.5525   20.6690 O   0  0  0  0  0  0
  -24.6274  -31.8600   23.2044 C   0  0  0  0  0  0
  -25.9121  -32.4782   23.8368 C   0  0  1  0  0  0
  -27.2187  -27.3027   20.0963 C   0  0  0  0  0  0
  -25.5932  -33.8585   24.2288 N   0  0  0  0  0  0
  -23.4211  -30.4859   21.5479 C   0  0  2  0  0  0
  -24.8661  -28.9468   20.1063 C   0  0  0  0  0  0
  -22.7482  -29.4625   22.4935 C   0  0  0  0  0  0
  -18.0288  -28.1383   22.8486 C   0  0  0  0  0  0
  -24.1487  -36.7291   23.2638 C   0  0  0  0  0  0
  -25.9659  -30.7810   21.3833 C   0  0  0  0  0  0
  -26.0356  -29.4092   20.7215 C   0  0  0  0  0  0
  -27.2089  -28.5929   20.7200 C   0  0  0  0  0  0
  -26.0277  -26.9133   19.4542 C   0  0  0  0  0  0
  -24.8643  -27.7015   19.4664 C   0  0  0  0  0  0
  -23.6353  -29.8280   20.1606 C   0  0  0  0  0  0
  -25.4113  -36.3089   24.0331 C   0  0  1  0  0  0
  -20.5891  -28.3691   23.1278 C   0  0  2  0  0  0
  -20.6779  -26.9411   22.5411 C   0  0  0  0  0  0
  -19.5753  -26.6384   21.5211 C   0  0  0  0  0  0
  -18.1931  -26.7926   22.1622 C   0  0  0  0  0  0
  -19.1541  -28.8855   23.2878 C   0  0  0  0  0  0
  -18.9464  -30.1455   23.8899 C   0  0  0  0  0  0
  -17.6463  -30.6587   24.0562 C   0  0  0  0  0  0
  -25.9055  -34.9456   23.5110 C   0  0  0  0  0  0
  -16.5352  -29.9084   23.6329 C   0  0  0  0  0  0
  -16.7275  -28.6500   23.0353 C   0  0  0  0  0  0
  -26.4500  -31.6597   25.0743 C   0  0  0  0  0  0
  -25.3725  -31.3738   26.1465 C   0  0  0  0  0  0
  -27.0341  -30.3013   24.6220 C   0  0  0  0  0  0
  -27.6061  -32.4333   25.7503 C   0  0  0  0  0  0
  -27.5585  -37.1795   24.8461 C   0  0  0  0  0  0
  -21.4196  -29.3044   22.3673 N   0  0  0  0  0  0
  -26.4289  -37.3787   23.9417 N   0  0  0  0  0  0
  -24.6902  -31.0590   22.1013 N   0  0  0  0  0  0
  -23.4200  -28.8159   23.3017 O   0  0  0  0  0  0
  -28.3198  -26.4286   20.1845 O   0  0  0  0  0  0
  -26.5620  -34.8921   22.4676 O   0  0  0  0  0  0
  -23.5434  -32.1409   23.7358 O   0  0  0  0  0  0
  -29.4817  -19.5518   21.3211 C   0  0  0  0  0  0
  -29.8060  -18.2014   21.6638 C   0  0  0  0  0  0
  -29.1782  -18.8428   19.0677 C   0  0  0  0  0  0
  -29.4834  -17.4782   19.3935 C   0  0  0  0  0  0
  -29.1124  -19.9155   20.0071 C   0  0  0  0  0  0
  -29.8038  -17.0996   20.7402 C   0  0  0  0  0  0
  -26.8372  -23.4750   18.9582 C   0  0  0  0  0  0
  -28.0128  -23.7908   19.5444 C   0  0  0  0  0  0
  -26.3020  -22.1209   18.9590 C   0  0  0  0  0  0
  -29.6628  -16.7387   16.9924 C   0  0  0  0  0  0
  -29.4327  -16.4934   18.2940 C   0  0  0  0  0  0
  -27.3049  -20.9787   18.9017 C   0  0  0  0  0  0
  -28.8680  -22.5909   20.1725 C   0  0  2  0  0  0
  -30.3807  -22.8497   20.1177 C   0  0  0  0  0  0
  -30.0324  -15.5179   22.6909 C   0  0  0  0  0  0
  -28.5596  -25.2679   19.2802 C   0  0  0  0  0  0
  -28.5663  -21.2037   19.6254 N   0  0  0  0  0  0
  -30.0405  -15.7020   21.2284 N   0  0  0  0  0  0
  -25.0929  -21.8804   18.9576 O   0  0  0  0  0  0
  -31.4739  -12.5439   19.1570 H   0  0  0  0  0  0
  -30.3772  -11.4309   19.9155 H   0  0  0  0  0  0
  -29.7797  -11.7324   17.5063 H   0  0  0  0  0  0
  -29.6594  -13.4559   17.7149 H   0  0  0  0  0  0
  -27.8588  -11.2970   18.8580 H   0  0  0  0  0  0
  -27.3798  -12.5835   17.7857 H   0  0  0  0  0  0
  -27.6521  -14.2544   19.5237 H   0  0  0  0  0  0
  -28.7089  -12.0693   21.3735 H   0  0  0  0  0  0
  -28.3840  -13.7153   21.8227 H   0  0  0  0  0  0
  -25.2768   -9.5689   22.4744 H   0  0  0  0  0  0
  -24.0007   -7.4638   22.7462 H   0  0  0  0  0  0
  -21.0834   -8.8777   19.8953 H   0  0  0  0  0  0
  -22.3692  -10.9676   19.6161 H   0  0  0  0  0  0
  -21.2017   -7.6148   23.9723 H   0  0  0  0  0  0
  -21.1469   -6.0513   25.9074 H   0  0  0  0  0  0
  -22.0605   -2.7609   23.2844 H   0  0  0  0  0  0
  -22.4094  -11.9891   22.4817 H   0  0  0  0  0  0
  -21.1099  -13.1247   22.2639 H   0  0  0  0  0  0
  -24.6629  -15.8488   20.5386 H   0  0  0  0  0  0
  -26.2880  -15.6342   20.1261 H   0  0  0  0  0  0
  -26.7184  -32.5438   23.1109 H   0  0  0  0  0  0
  -25.0074  -33.9733   25.0428 H   0  0  0  0  0  0
  -22.7160  -31.3083   21.4089 H   0  0  0  0  0  0
  -23.3765  -35.9607   23.3282 H   0  0  0  0  0  0
  -24.3585  -36.8927   22.2056 H   0  0  0  0  0  0
  -23.7215  -37.6477   23.6669 H   0  0  0  0  0  0
  -26.1060  -31.5465   20.6185 H   0  0  0  0  0  0
  -26.8432  -30.8233   22.0171 H   0  0  0  0  0  0
  -28.1009  -28.9381   21.2237 H   0  0  0  0  0  0
  -25.9492  -25.9776   18.9535 H   0  0  0  0  0  0
  -23.9697  -27.3404   18.9776 H   0  0  0  0  0  0
  -23.7540  -30.6083   19.4080 H   0  0  0  0  0  0
  -22.7540  -29.2603   19.8566 H   0  0  0  0  0  0
  -25.1289  -36.1941   25.0824 H   0  0  0  0  0  0
  -20.9983  -28.3265   24.1400 H   0  0  0  0  0  0
  -20.5676  -26.2301   23.3614 H   0  0  0  0  0  0
  -21.6647  -26.7444   22.1199 H   0  0  0  0  0  0
  -19.6914  -25.6292   21.1243 H   0  0  0  0  0  0
  -19.6690  -27.3196   20.6739 H   0  0  0  0  0  0
  -17.4202  -26.6682   21.4020 H   0  0  0  0  0  0
  -18.0330  -26.0066   22.9019 H   0  0  0  0  0  0
  -19.7941  -30.7270   24.2272 H   0  0  0  0  0  0
  -17.5017  -31.6269   24.5160 H   0  0  0  0  0  0
  -15.5351  -30.2988   23.7656 H   0  0  0  0  0  0
  -15.8674  -28.0817   22.7074 H   0  0  0  0  0  0
  -24.5908  -30.7080   25.7793 H   0  0  0  0  0  0
  -24.8907  -32.2901   26.4884 H   0  0  0  0  0  0
  -25.8042  -30.8922   27.0248 H   0  0  0  0  0  0
  -26.2923  -29.6763   24.1237 H   0  0  0  0  0  0
  -27.4015  -29.7276   25.4741 H   0  0  0  0  0  0
  -27.8809  -30.4290   23.9471 H   0  0  0  0  0  0
  -27.2681  -33.3642   26.2071 H   0  0  0  0  0  0
  -28.3870  -32.6880   25.0323 H   0  0  0  0  0  0
  -28.0734  -31.8464   26.5423 H   0  0  0  0  0  0
  -28.2589  -38.0109   24.7545 H   0  0  0  0  0  0
  -28.1097  -36.2644   24.6239 H   0  0  0  0  0  0
  -27.2311  -37.1384   25.8865 H   0  0  0  0  0  0
  -20.9377  -29.8768   21.6883 H   0  0  0  0  0  0
  -26.0171  -38.2858   24.1442 H   0  0  0  0  0  0
  -29.4597  -20.2966   22.1037 H   0  0  0  0  0  0
  -30.0336  -18.0390   22.7051 H   0  0  0  0  0  0
  -28.9148  -19.0642   18.0452 H   0  0  0  0  0  0
  -26.2716  -24.1709   18.3727 H   0  0  0  0  0  0
  -29.5736  -15.9471   16.2614 H   0  0  0  0  0  0
  -29.9453  -17.7151   16.6250 H   0  0  0  0  0  0
  -29.1475  -15.4905   18.5540 H   0  0  0  0  0  0
  -27.5245  -20.7960   17.8495 H   0  0  0  0  0  0
  -26.8010  -20.0875   19.2802 H   0  0  0  0  0  0
  -28.5944  -22.5708   21.2292 H   0  0  0  0  0  0
  -30.7335  -22.9304   19.0890 H   0  0  0  0  0  0
  -30.9429  -22.0496   20.5994 H   0  0  0  0  0  0
  -30.6443  -23.7709   20.6383 H   0  0  0  0  0  0
  -30.8680  -16.0474   23.1498 H   0  0  0  0  0  0
  -30.1299  -14.4786   23.0121 H   0  0  0  0  0  0
  -29.1022  -15.8937   23.1192 H   0  0  0  0  0  0
  -28.2136  -25.5687   18.2903 H   0  0  0  0  0  0
  -29.6381  -25.2061   19.1487 H   0  0  0  0  0  0
  1 25  1  0  0  0
  1 30  2  0  0  0
  1 88  1  0  0  0
  2  3  1  0  0  0
  2 25  1  0  0  0
  2 90  1  0  0  0
  2 91  1  0  0  0
  3  4  1  0  0  0
  3 92  1  0  0  0
  3 93  1  0  0  0
  4  5  1  0  0  0
  4 94  1  0  0  0
  4 95  1  0  0  0
  5  6  1  0  0  0
  5 26  1  0  0  0
  5 96  1  0  0  0
  6 25  1  0  0  0
  6 97  1  0  0  0
  6 98  1  0  0  0
  7  8  2  0  0  0
  7 26  1  0  0  0
  7 29  1  0  0  0
  8  9  1  0  0  0
  8 22  1  0  0  0
  9 10  1  0  0  0
  9 27  2  0  0  0
 10 11  2  0  0  0
 10 15  1  0  0  0
 11 12  1  0  0  0
 11 99  1  0  0  0
 12 13  2  0  0  0
 12100  1  0  0  0
 13 14  1  0  0  0
 13 31  1  0  0  0
 14 15  2  0  0  0
 14101  1  0  0  0
 15102  1  0  0  0
 16 17  2  0  0  0
 16 21  1  0  0  0
 16 31  1  0  0  0
 17 18  1  0  0  0
 17103  1  0  0  0
 18 19  2  0  0  0
 18104  1  0  0  0
 19 20  1  0  0  0
 19 24  1  0  0  0
 20 21  2  0  0  0
 20105  1  0  0  0
 21 23  1  0  0  0
 22 28  1  0  0  0
 22 32  2  0  0  0
 26 27  1  0  0  0
 28106  1  0  0  0
 28107  1  0  0  0
 29108  1  0  0  0
 29109  1  0  0  0
 33 34  1  0  0  0
 33 66  1  0  0  0
 33 70  2  0  0  0
 34 36  1  0  0  0
 34 59  1  0  0  0
 34110  1  0  0  0
 35 44  2  0  0  0
 35 45  1  0  0  0
 35 68  1  0  0  0
 36 56  1  0  0  0
 36111  1  0  0  0
 37 39  1  0  0  0
 37 47  1  0  0  0
 37 66  1  0  0  0
 37112  1  0  0  0
 38 43  2  0  0  0
 38 46  1  0  0  0
 38 47  1  0  0  0
 39 64  1  0  0  0
 39 67  2  0  0  0
 40 52  1  0  0  0
 40 53  2  0  0  0
 40 58  1  0  0  0
 41113  1  0  0  0
 41114  1  0  0  0
 41115  1  0  0  0
 41 48  1  0  0  0
 42 43  1  0  0  0
 42 66  1  0  0  0
 42116  1  0  0  0
 42117  1  0  0  0
 43 44  1  0  0  0
 44118  1  0  0  0
 45 46  2  0  0  0
 45119  1  0  0  0
 46120  1  0  0  0
 47121  1  0  0  0
 47122  1  0  0  0
 48 56  1  0  0  0
 48 65  1  0  0  0
 48123  1  0  0  0
 49 50  1  0  0  0
 49 53  1  0  0  0
 49 64  1  0  0  0
 49124  1  0  0  0
 50 51  1  0  0  0
 50125  1  0  0  0
 50126  1  0  0  0
 51 52  1  0  0  0
 51127  1  0  0  0
 51128  1  0  0  0
 52129  1  0  0  0
 52130  1  0  0  0
 53 54  1  0  0  0
 54 55  2  0  0  0
 54131  1  0  0  0
 55 57  1  0  0  0
 55132  1  0  0  0
 56 69  2  0  0  0
 57 58  2  0  0  0
 57133  1  0  0  0
 58134  1  0  0  0
 59 60  1  0  0  0
 59 61  1  0  0  0
 59 62  1  0  0  0
 60135  1  0  0  0
 60136  1  0  0  0
 60137  1  0  0  0
 61138  1  0  0  0
 61139  1  0  0  0
 61140  1  0  0  0
 62141  1  0  0  0
 62142  1  0  0  0
 62143  1  0  0  0
 63 65  1  0  0  0
 63144  1  0  0  0
 63145  1  0  0  0
 63146  1  0  0  0
 64147  1  0  0  0
 65148  1  0  0  0
 68 86  1  0  0  0
 71 72  2  0  0  0
 71 75  1  0  0  0
 71149  1  0  0  0
 72 76  1  0  0  0
 72150  1  0  0  0
 73 74  1  0  0  0
 73 75  2  0  0  0
 73151  1  0  0  0
 74 76  2  0  0  0
 74 81  1  0  0  0
 75 87  1  0  0  0
 76 88  1  0  0  0
 77 78  2  0  0  0
 77 79  1  0  0  0
 77152  1  0  0  0
 78 83  1  0  0  0
 78 86  1  0  0  0
 79 82  1  0  0  0
 79 89  2  0  0  0
 80 81  2  0  0  0
 80153  1  0  0  0
 80154  1  0  0  0
 81155  1  0  0  0
 82 87  1  0  0  0
 82156  1  0  0  0
 82157  1  0  0  0
 83 84  1  0  0  0
 83 87  1  0  0  0
 83158  1  0  0  0
 84159  1  0  0  0
 84160  1  0  0  0
 84161  1  0  0  0
 85 88  1  0  0  0
 85162  1  0  0  0
 85163  1  0  0  0
 85164  1  0  0  0
 86165  1  0  0  0
 86166  1  0  0  0
M  ISO  4   1 100  68 101  86 101  88 100
M  END
> <chiral flag>
0

> <version>
0

> <s_m_source_file>
/data/baiqing/PycharmProjects/Reinvent-master-3.2/result/LINK_invent/BTK/process_docking_weight1_custom_product_contain_oxygen_bond_distance_aromatic_linkinvent_7_9_3/rearranged_h_0109.sdf

> <i_m_source_file_index>
86

> <r_mmod_Potential_Energy-OPLS-2005>
342.895538330078

> <r_mmod_Stretch_Energy-OPLS-2005>
119.186851501465

> <r_mmod_Bend_Energy-OPLS-2005>
210.176712036133

> <r_mmod_Torsional_Energy-OPLS-2005>
305.950256347656

> <r_mmod_Improper_Torsional_Energy-OPLS-2005>
5.52688789367676

> <r_mmod_Van_der_Waal_Energy-OPLS-2005>
172.679260253906

> <r_mmod_Electrostatic_Energy-OPLS-2005>
-311.570190429688

> <r_mmod_Solvation_Energy-OPLS-2005>
-214.530838012695

> <b_mmod_Minimization_Converged-OPLS-2005>
0

> <r_mmod_RMS_Derivative-OPLS-2005>
0.903079509735107

$$$$
86
                    3D
 Structure written by MMmdl.
172181  0  0  1  0            999 V2000
  -30.6901  -14.5281   20.4839 C   0  0  0  0  0  0
  -30.4180  -12.3114   19.4497 C   0  0  0  0  0  0
  -29.5043  -12.4742   18.2165 C   0  0  0  0  0  0
  -28.0237  -12.3375   18.6250 C   0  0  0  0  0  0
  -27.6548  -13.2097   19.8557 C   0  0  2  0  0  0
  -28.6953  -13.0608   20.9901 C   0  0  0  0  0  0
  -25.2598  -13.8161   20.5665 C   0  0  0  0  0  0
  -24.1847  -13.0430   20.9177 C   0  0  0  0  0  0
  -24.6400  -11.6904   20.8707 C   0  0  0  0  0  0
  -23.9064  -10.4289   21.0376 C   0  0  0  0  0  0
  -24.3615   -9.4219   21.9173 C   0  0  0  0  0  0
  -23.6291   -8.2254   22.0757 C   0  0  0  0  0  0
  -22.4279   -8.0273   21.3538 C   0  0  0  0  0  0
  -21.9900   -9.0238   20.4631 C   0  0  0  0  0  0
  -22.7227  -10.2127   20.3032 C   0  0  0  0  0  0
  -21.6860   -6.0731   22.5274 C   0  0  0  0  0  0
  -21.4013   -6.5641   23.8205 C   0  0  0  0  0  0
  -21.3658   -5.6784   24.9172 C   0  0  0  0  0  0
  -21.6037   -4.3047   24.7217 C   0  0  0  0  0  0
  -21.8817   -3.8147   23.4337 C   0  0  0  0  0  0
  -21.9203   -4.6959   22.3400 C   0  0  0  0  0  0
  -22.7873  -13.5251   21.1844 C   0  0  0  0  0  0
  -22.1665   -4.2143   21.0967 F   0  0  0  0  0  0
  -21.5634   -3.4531   25.7737 F   0  0  0  0  0  0
  -30.0235  -13.3413   20.4263 N   0  0  0  0  0  0
  -26.3000  -12.9320   20.3265 N   0  0  0  0  0  0
  -25.9320  -11.6485   20.5719 N   0  0  0  0  0  0
  -22.0497  -12.8229   22.0366 N   0  0  0  0  0  0
  -25.4362  -15.1876   20.4122 N   0  0  0  0  0  0
  -31.8762  -14.6219   20.1619 O   0  0  0  0  0  0
  -21.6649   -6.8867   21.4235 O   0  0  0  0  0  0
  -22.3555  -14.5574   20.6718 O   0  0  0  0  0  0
  -24.6162  -31.8654   23.2063 C   0  0  0  0  0  0
  -25.9044  -32.4827   23.8365 C   0  0  1  0  0  0
  -27.2341  -27.4072   20.1234 C   0  0  0  0  0  0
  -25.5908  -33.8621   24.2295 N   0  0  0  0  0  0
  -23.4079  -30.4869   21.5443 C   0  0  2  0  0  0
  -24.8584  -28.9469   20.1167 C   0  0  0  0  0  0
  -22.7438  -29.4643   22.4946 C   0  0  0  0  0  0
  -18.0280  -28.1395   22.8487 C   0  0  0  0  0  0
  -24.1494  -36.7261   23.2646 C   0  0  0  0  0  0
  -25.9380  -30.8267   21.3618 C   0  0  0  0  0  0
  -26.0186  -29.4570   20.7131 C   0  0  0  0  0  0
  -27.2145  -28.6963   20.7089 C   0  0  0  0  0  0
  -26.0597  -26.9161   19.5167 C   0  0  0  0  0  0
  -24.8750  -27.6776   19.5114 C   0  0  0  0  0  0
  -23.6197  -29.8146   20.1615 C   0  0  0  0  0  0
  -25.4122  -36.3091   24.0342 C   0  0  1  0  0  0
  -20.5884  -28.3663   23.1326 C   0  0  2  0  0  0
  -20.6771  -26.9391   22.5432 C   0  0  0  0  0  0
  -19.5770  -26.6379   21.5230 C   0  0  0  0  0  0
  -18.1925  -26.7962   22.1597 C   0  0  0  0  0  0
  -19.1539  -28.8848   23.2915 C   0  0  0  0  0  0
  -18.9479  -30.1466   23.8917 C   0  0  0  0  0  0
  -17.6480  -30.6606   24.0582 C   0  0  0  0  0  0
  -25.9038  -34.9474   23.5105 C   0  0  0  0  0  0
  -16.5356  -29.9108   23.6361 C   0  0  0  0  0  0
  -16.7272  -28.6536   23.0349 C   0  0  0  0  0  0
  -26.4467  -31.6625   25.0700 C   0  0  0  0  0  0
  -25.3722  -31.3761   26.1446 C   0  0  0  0  0  0
  -27.0291  -30.3071   24.6059 C   0  0  0  0  0  0
  -27.6029  -32.4349   25.7478 C   0  0  0  0  0  0
  -27.5595  -37.1789   24.8475 C   0  0  0  0  0  0
  -21.4158  -29.3032   22.3717 N   0  0  0  0  0  0
  -26.4302  -37.3782   23.9426 N   0  0  0  0  0  0
  -24.6717  -31.0747   22.0955 N   0  0  0  0  0  0
  -23.4224  -28.8189   23.2985 O   0  0  0  0  0  0
  -28.3755  -26.6300   20.1179 O   0  0  0  0  0  0
  -26.5578  -34.8946   22.4656 O   0  0  0  0  0  0
  -23.5343  -32.1384   23.7458 O   0  0  0  0  0  0
  -29.3868  -18.0729   20.6655 C   0  0  0  0  0  0
  -30.8971  -17.1746   19.0024 C   0  0  0  0  0  0
  -30.2068  -19.5253   18.8642 C   0  0  0  0  0  0
  -29.4431  -19.3650   20.0572 C   0  0  0  0  0  0
  -30.1009  -16.9574   20.1498 C   0  0  0  0  0  0
  -30.9391  -18.4238   18.3437 C   0  0  0  0  0  0
  -28.6186  -23.0058   20.1450 C   0  0  0  0  0  0
  -30.1706  -20.7949   18.1091 C   0  0  0  0  0  0
  -31.2132  -21.4143   17.5289 C   0  0  0  0  0  0
  -30.0257  -23.7237   21.8981 C   0  0  0  0  0  0
  -30.1708  -22.2101   21.6641 C   0  0  0  0  0  0
  -29.3195  -24.2933   20.6464 C   0  0  1  0  0  0
  -31.0977  -22.6755   16.6979 C   0  0  0  0  0  0
  -30.3800  -24.7484   19.6209 C   0  0  0  0  0  0
  -31.6840  -17.4619   16.2760 C   0  0  0  0  0  0
  -28.5684  -20.5037   20.6519 C   0  0  0  0  0  0
  -28.3405  -25.4790   20.9987 C   0  0  0  0  0  0
  -29.1093  -21.8861   20.7275 N   0  0  0  0  0  0
  -29.9362  -15.6338   20.7191 N   0  0  0  0  0  0
  -27.7007  -23.0284   19.3204 O   0  0  0  0  0  0
  -31.6367  -18.5782   17.1632 O   0  0  0  0  0  0
  -31.4679  -12.3862   19.1594 H   0  0  0  0  0  0
  -30.3007  -11.3165   19.8833 H   0  0  0  0  0  0
  -29.7524  -11.7203   17.4682 H   0  0  0  0  0  0
  -29.6730  -13.4429   17.7443 H   0  0  0  0  0  0
  -27.8461  -11.2855   18.8521 H   0  0  0  0  0  0
  -27.3747  -12.5758   17.7819 H   0  0  0  0  0  0
  -27.6790  -14.2445   19.5147 H   0  0  0  0  0  0
  -28.6741  -12.0506   21.4017 H   0  0  0  0  0  0
  -28.4614  -13.7269   21.8213 H   0  0  0  0  0  0
  -25.2764   -9.5718   22.4739 H   0  0  0  0  0  0
  -24.0007   -7.4655   22.7480 H   0  0  0  0  0  0
  -21.0840   -8.8744   19.8922 H   0  0  0  0  0  0
  -22.3683  -10.9660   19.6132 H   0  0  0  0  0  0
  -21.1985   -7.6146   23.9711 H   0  0  0  0  0  0
  -21.1478   -6.0513   25.9072 H   0  0  0  0  0  0
  -22.0594   -2.7599   23.2836 H   0  0  0  0  0  0
  -22.4100  -11.9879   22.4734 H   0  0  0  0  0  0
  -21.1108  -13.1238   22.2537 H   0  0  0  0  0  0
  -24.6751  -15.8473   20.5352 H   0  0  0  0  0  0
  -26.2913  -15.6252   20.0927 H   0  0  0  0  0  0
  -26.7120  -32.5527   23.1133 H   0  0  0  0  0  0
  -25.0200  -33.9798   25.0541 H   0  0  0  0  0  0
  -22.6970  -31.3028   21.3988 H   0  0  0  0  0  0
  -23.3798  -35.9551   23.3288 H   0  0  0  0  0  0
  -24.3603  -36.8864   22.2061 H   0  0  0  0  0  0
  -23.7189  -37.6440   23.6656 H   0  0  0  0  0  0
  -26.0514  -31.5929   20.5931 H   0  0  0  0  0  0
  -26.8245  -30.8805   21.9817 H   0  0  0  0  0  0
  -28.1119  -29.0844   21.1717 H   0  0  0  0  0  0
  -26.0609  -25.9370   19.0568 H   0  0  0  0  0  0
  -23.9828  -27.2795   19.0453 H   0  0  0  0  0  0
  -23.7278  -30.5847   19.3982 H   0  0  0  0  0  0
  -22.7461  -29.2285   19.8654 H   0  0  0  0  0  0
  -25.1312  -36.1937   25.0837 H   0  0  0  0  0  0
  -20.9972  -28.3220   24.1448 H   0  0  0  0  0  0
  -20.5668  -26.2269   23.3620 H   0  0  0  0  0  0
  -21.6647  -26.7435   22.1217 H   0  0  0  0  0  0
  -19.6921  -25.6286   21.1260 H   0  0  0  0  0  0
  -19.6759  -27.3202   20.6786 H   0  0  0  0  0  0
  -17.4223  -26.6775   21.3960 H   0  0  0  0  0  0
  -18.0261  -26.0090   22.8964 H   0  0  0  0  0  0
  -19.7961  -30.7274   24.2267 H   0  0  0  0  0  0
  -17.5052  -31.6299   24.5154 H   0  0  0  0  0  0
  -15.5368  -30.3016   23.7717 H   0  0  0  0  0  0
  -15.8666  -28.0884   22.7034 H   0  0  0  0  0  0
  -24.6020  -30.6931   25.7849 H   0  0  0  0  0  0
  -24.8780  -32.2915   26.4707 H   0  0  0  0  0  0
  -25.8101  -30.9157   27.0312 H   0  0  0  0  0  0
  -26.2833  -29.6841   24.1109 H   0  0  0  0  0  0
  -27.4082  -29.7284   25.4487 H   0  0  0  0  0  0
  -27.8645  -30.4398   23.9185 H   0  0  0  0  0  0
  -27.2659  -33.3710   26.1947 H   0  0  0  0  0  0
  -28.3925  -32.6786   25.0356 H   0  0  0  0  0  0
  -28.0581  -31.8526   26.5495 H   0  0  0  0  0  0
  -28.2595  -38.0105   24.7542 H   0  0  0  0  0  0
  -28.1104  -36.2634   24.6267 H   0  0  0  0  0  0
  -27.2323  -37.1374   25.8882 H   0  0  0  0  0  0
  -20.9302  -29.8767   21.6959 H   0  0  0  0  0  0
  -26.0178  -38.2846   24.1475 H   0  0  0  0  0  0
  -28.7589  -17.9338   21.5343 H   0  0  0  0  0  0
  -31.4567  -16.3594   18.5764 H   0  0  0  0  0  0
  -29.1888  -21.2289   17.9839 H   0  0  0  0  0  0
  -32.2096  -21.0062   17.6301 H   0  0  0  0  0  0
  -30.9870  -24.1955   22.1030 H   0  0  0  0  0  0
  -29.4045  -23.8789   22.7826 H   0  0  0  0  0  0
  -30.0945  -21.6438   22.5939 H   0  0  0  0  0  0
  -31.1320  -21.9732   21.2057 H   0  0  0  0  0  0
  -30.0895  -23.0892   16.7342 H   0  0  0  0  0  0
  -31.3371  -22.4584   15.6567 H   0  0  0  0  0  0
  -31.7945  -23.4346   17.0526 H   0  0  0  0  0  0
  -31.0102  -23.9198   19.3007 H   0  0  0  0  0  0
  -31.0377  -25.5061   20.0478 H   0  0  0  0  0  0
  -29.9244  -25.1756   18.7262 H   0  0  0  0  0  0
  -31.9858  -17.8188   15.2911 H   0  0  0  0  0  0
  -30.7036  -16.9900   16.1607 H   0  0  0  0  0  0
  -32.4084  -16.7059   16.5907 H   0  0  0  0  0  0
  -28.2895  -20.2247   21.6698 H   0  0  0  0  0  0
  -27.6284  -20.5137   20.0978 H   0  0  0  0  0  0
  -28.5863  -25.8654   21.9894 H   0  0  0  0  0  0
  -27.3217  -25.0965   21.0942 H   0  0  0  0  0  0
  -29.0389  -15.4517   21.1444 H   0  0  0  0  0  0
  1 25  1  0  0  0
  1 30  2  0  0  0
  1 89  1  0  0  0
  2  3  1  0  0  0
  2 25  1  0  0  0
  2 92  1  0  0  0
  2 93  1  0  0  0
  3  4  1  0  0  0
  3 94  1  0  0  0
  3 95  1  0  0  0
  4  5  1  0  0  0
  4 96  1  0  0  0
  4 97  1  0  0  0
  5  6  1  0  0  0
  5 26  1  0  0  0
  5 98  1  0  0  0
  6 25  1  0  0  0
  6 99  1  0  0  0
  6100  1  0  0  0
  7  8  2  0  0  0
  7 26  1  0  0  0
  7 29  1  0  0  0
  8  9  1  0  0  0
  8 22  1  0  0  0
  9 10  1  0  0  0
  9 27  2  0  0  0
 10 11  2  0  0  0
 10 15  1  0  0  0
 11 12  1  0  0  0
 11101  1  0  0  0
 12 13  2  0  0  0
 12102  1  0  0  0
 13 14  1  0  0  0
 13 31  1  0  0  0
 14 15  2  0  0  0
 14103  1  0  0  0
 15104  1  0  0  0
 16 17  2  0  0  0
 16 21  1  0  0  0
 16 31  1  0  0  0
 17 18  1  0  0  0
 17105  1  0  0  0
 18 19  2  0  0  0
 18106  1  0  0  0
 19 20  1  0  0  0
 19 24  1  0  0  0
 20 21  2  0  0  0
 20107  1  0  0  0
 21 23  1  0  0  0
 22 28  1  0  0  0
 22 32  2  0  0  0
 26 27  1  0  0  0
 28108  1  0  0  0
 28109  1  0  0  0
 29110  1  0  0  0
 29111  1  0  0  0
 33 34  1  0  0  0
 33 66  1  0  0  0
 33 70  2  0  0  0
 34 36  1  0  0  0
 34 59  1  0  0  0
 34112  1  0  0  0
 35 44  2  0  0  0
 35 45  1  0  0  0
 35 68  1  0  0  0
 36 56  1  0  0  0
 36113  1  0  0  0
 37 39  1  0  0  0
 37 47  1  0  0  0
 37 66  1  0  0  0
 37114  1  0  0  0
 38 43  2  0  0  0
 38 46  1  0  0  0
 38 47  1  0  0  0
 39 64  1  0  0  0
 39 67  2  0  0  0
 40 52  1  0  0  0
 40 53  2  0  0  0
 40 58  1  0  0  0
 41115  1  0  0  0
 41116  1  0  0  0
 41117  1  0  0  0
 41 48  1  0  0  0
 42 43  1  0  0  0
 42 66  1  0  0  0
 42118  1  0  0  0
 42119  1  0  0  0
 43 44  1  0  0  0
 44120  1  0  0  0
 45 46  2  0  0  0
 45121  1  0  0  0
 46122  1  0  0  0
 47123  1  0  0  0
 47124  1  0  0  0
 48 56  1  0  0  0
 48 65  1  0  0  0
 48125  1  0  0  0
 49 50  1  0  0  0
 49 53  1  0  0  0
 49 64  1  0  0  0
 49126  1  0  0  0
 50 51  1  0  0  0
 50127  1  0  0  0
 50128  1  0  0  0
 51 52  1  0  0  0
 51129  1  0  0  0
 51130  1  0  0  0
 52131  1  0  0  0
 52132  1  0  0  0
 53 54  1  0  0  0
 54 55  2  0  0  0
 54133  1  0  0  0
 55 57  1  0  0  0
 55134  1  0  0  0
 56 69  2  0  0  0
 57 58  2  0  0  0
 57135  1  0  0  0
 58136  1  0  0  0
 59 60  1  0  0  0
 59 61  1  0  0  0
 59 62  1  0  0  0
 60137  1  0  0  0
 60138  1  0  0  0
 60139  1  0  0  0
 61140  1  0  0  0
 61141  1  0  0  0
 61142  1  0  0  0
 62143  1  0  0  0
 62144  1  0  0  0
 62145  1  0  0  0
 63 65  1  0  0  0
 63146  1  0  0  0
 63147  1  0  0  0
 63148  1  0  0  0
 64149  1  0  0  0
 65150  1  0  0  0
 68 87  1  0  0  0
 71 74  2  0  0  0
 71 75  1  0  0  0
 71151  1  0  0  0
 72 75  2  0  0  0
 72 76  1  0  0  0
 72152  1  0  0  0
 73 74  1  0  0  0
 73 76  2  0  0  0
 73 78  1  0  0  0
 74 86  1  0  0  0
 75 89  1  0  0  0
 76 91  1  0  0  0
 77 82  1  0  0  0
 77 88  1  0  0  0
 77 90  2  0  0  0
 78 79  2  0  0  0
 78153  1  0  0  0
 79 83  1  0  0  0
 79154  1  0  0  0
 80 81  1  0  0  0
 80 82  1  0  0  0
 80155  1  0  0  0
 80156  1  0  0  0
 81 88  1  0  0  0
 81157  1  0  0  0
 81158  1  0  0  0
 82 84  1  0  0  0
 82 87  1  0  0  0
 83159  1  0  0  0
 83160  1  0  0  0
 83161  1  0  0  0
 84162  1  0  0  0
 84163  1  0  0  0
 84164  1  0  0  0
 85 91  1  0  0  0
 85165  1  0  0  0
 85166  1  0  0  0
 85167  1  0  0  0
 86 88  1  0  0  0
 86168  1  0  0  0
 86169  1  0  0  0
 87170  1  0  0  0
 87171  1  0  0  0
 89172  1  0  0  0
M  ISO  4   1 100  68 101  87 101  89 100
M  END
> <chiral flag>
0

> <version>
0

> <s_m_source_file>
/data/baiqing/PycharmProjects/Reinvent-master-3.2/result/LINK_invent/BTK/process_docking_weight1_custom_product_contain_oxygen_bond_distance_aromatic_linkinvent_7_9_3/rearranged_h_0109.sdf

> <i_m_source_file_index>
87

> <r_mmod_Potential_Energy-OPLS-2005>
112.597122192383

> <r_mmod_Stretch_Energy-OPLS-2005>
53.7375907897949

> <r_mmod_Bend_Energy-OPLS-2005>
139.042053222656

> <r_mmod_Torsional_Energy-OPLS-2005>
320.013366699219

> <r_mmod_Improper_Torsional_Energy-OPLS-2005>
6.4039306640625

> <r_mmod_Van_der_Waal_Energy-OPLS-2005>
151.224578857422

> <r_mmod_Electrostatic_Energy-OPLS-2005>
-358.128753662109

> <r_mmod_Solvation_Energy-OPLS-2005>
-223.943099975586

> <b_mmod_Minimization_Converged-OPLS-2005>
0

> <r_mmod_RMS_Derivative-OPLS-2005>
3.6421365737915

$$$$
87
                    3D
 Structure written by MMmdl.
161170  0  0  1  0            999 V2000
  -30.6049  -14.6463   20.5169 C   0  0  0  0  0  0
  -30.4464  -12.3981   19.4604 C   0  0  0  0  0  0
  -29.5166  -12.5094   18.2308 C   0  0  0  0  0  0
  -28.0372  -12.3480   18.6372 C   0  0  0  0  0  0
  -27.6579  -13.2130   19.8683 C   0  0  2  0  0  0
  -28.6988  -13.0533   20.9994 C   0  0  0  0  0  0
  -25.2589  -13.8159   20.5695 C   0  0  0  0  0  0
  -24.1843  -13.0433   20.9175 C   0  0  0  0  0  0
  -24.6399  -11.6906   20.8717 C   0  0  0  0  0  0
  -23.9063  -10.4291   21.0397 C   0  0  0  0  0  0
  -24.3615   -9.4210   21.9180 C   0  0  0  0  0  0
  -23.6291   -8.2245   22.0756 C   0  0  0  0  0  0
  -22.4273   -8.0284   21.3549 C   0  0  0  0  0  0
  -21.9906   -9.0252   20.4648 C   0  0  0  0  0  0
  -22.7231  -10.2134   20.3051 C   0  0  0  0  0  0
  -21.6855   -6.0737   22.5278 C   0  0  0  0  0  0
  -21.4013   -6.5640   23.8213 C   0  0  0  0  0  0
  -21.3658   -5.6793   24.9175 C   0  0  0  0  0  0
  -21.6045   -4.3056   24.7226 C   0  0  0  0  0  0
  -21.8820   -3.8147   23.4347 C   0  0  0  0  0  0
  -21.9193   -4.6963   22.3403 C   0  0  0  0  0  0
  -22.7863  -13.5235   21.1843 C   0  0  0  0  0  0
  -22.1663   -4.2153   21.0979 F   0  0  0  0  0  0
  -21.5628   -3.4538   25.7736 F   0  0  0  0  0  0
  -30.0158  -13.4087   20.4465 N   0  0  0  0  0  0
  -26.3017  -12.9331   20.3328 N   0  0  0  0  0  0
  -25.9333  -11.6494   20.5749 N   0  0  0  0  0  0
  -22.0496  -12.8231   22.0395 N   0  0  0  0  0  0
  -25.4298  -15.1888   20.4148 N   0  0  0  0  0  0
  -31.7462  -14.8385   20.0851 O   0  0  0  0  0  0
  -21.6639   -6.8884   21.4246 O   0  0  0  0  0  0
  -22.3559  -14.5544   20.6699 O   0  0  0  0  0  0
  -24.6252  -31.8610   23.2060 C   0  0  0  0  0  0
  -25.9112  -32.4782   23.8370 C   0  0  1  0  0  0
  -27.2151  -27.3150   20.1277 C   0  0  0  0  0  0
  -25.5937  -33.8583   24.2298 N   0  0  0  0  0  0
  -23.4199  -30.4853   21.5490 C   0  0  2  0  0  0
  -24.8661  -28.9404   20.1192 C   0  0  0  0  0  0
  -22.7491  -29.4625   22.4964 C   0  0  0  0  0  0
  -18.0290  -28.1381   22.8526 C   0  0  0  0  0  0
  -24.1491  -36.7298   23.2629 C   0  0  0  0  0  0
  -25.9618  -30.7876   21.3836 C   0  0  0  0  0  0
  -26.0345  -29.4125   20.7330 C   0  0  0  0  0  0
  -27.2131  -28.6071   20.7384 C   0  0  0  0  0  0
  -26.0402  -26.9164   19.4615 C   0  0  0  0  0  0
  -24.8700  -27.6952   19.4758 C   0  0  0  0  0  0
  -23.6367  -29.8230   20.1632 C   0  0  0  0  0  0
  -25.4114  -36.3088   24.0319 C   0  0  1  0  0  0
  -20.5893  -28.3708   23.1341 C   0  0  2  0  0  0
  -20.6818  -26.9479   22.5346 C   0  0  0  0  0  0
  -19.5767  -26.6521   21.5155 C   0  0  0  0  0  0
  -18.1967  -26.7940   22.1630 C   0  0  0  0  0  0
  -19.1533  -28.8843   23.2946 C   0  0  0  0  0  0
  -18.9446  -30.1460   23.8932 C   0  0  0  0  0  0
  -17.6441  -30.6595   24.0556 C   0  0  0  0  0  0
  -25.9053  -34.9450   23.5108 C   0  0  0  0  0  0
  -16.5330  -29.9073   23.6341 C   0  0  0  0  0  0
  -16.7266  -28.6486   23.0372 C   0  0  0  0  0  0
  -26.4501  -31.6594   25.0738 C   0  0  0  0  0  0
  -25.3735  -31.3728   26.1466 C   0  0  0  0  0  0
  -27.0348  -30.3010   24.6207 C   0  0  0  0  0  0
  -27.6061  -32.4331   25.7504 C   0  0  0  0  0  0
  -27.5585  -37.1805   24.8464 C   0  0  0  0  0  0
  -21.4188  -29.3144   22.3819 N   0  0  0  0  0  0
  -26.4304  -37.3777   23.9399 N   0  0  0  0  0  0
  -24.6866  -31.0623   22.1021 N   0  0  0  0  0  0
  -23.4246  -28.8088   23.2968 O   0  0  0  0  0  0
  -28.3194  -26.4554   20.0924 O   0  0  0  0  0  0
  -26.5616  -34.8910   22.4668 O   0  0  0  0  0  0
  -23.5424  -32.1406   23.7398 O   0  0  0  0  0  0
  -29.3389  -19.3840   21.6936 C   0  0  0  0  0  0
  -29.6494  -17.9980   21.8508 C   0  0  0  0  0  0
  -29.2391  -19.0633   19.3180 C   0  0  0  0  0  0
  -29.5677  -17.6782   19.4626 C   0  0  0  0  0  0
  -29.0835  -19.9493   20.4195 C   0  0  0  0  0  0
  -29.7580  -17.1001   20.7518 C   0  0  0  0  0  0
  -26.4283  -22.2619   19.2383 C   0  0  0  0  0  0
  -26.8845  -23.6885   19.5440 C   0  0  0  0  0  0
  -27.0277  -21.1306   20.0768 C   0  0  0  0  0  0
  -29.0398  -22.5987   20.5748 C   0  0  0  0  0  0
  -27.9448  -23.7783   20.6564 C   0  0  1  0  0  0
  -29.6223  -16.8150   18.2127 C   0  0  0  0  0  0
  -28.3605  -25.2955   21.0145 C   0  0  0  0  0  0
  -28.4806  -21.2413   20.2366 N   0  0  0  0  0  0
  -29.8156  -15.6571   21.0030 N   0  0  0  0  0  0
  -25.5977  -22.0376   18.3557 O   0  0  0  0  0  0
  -31.4866  -12.5353   19.1607 H   0  0  0  0  0  0
  -30.3927  -11.3997   19.8970 H   0  0  0  0  0  0
  -29.7847  -11.7553   17.4893 H   0  0  0  0  0  0
  -29.6632  -13.4763   17.7483 H   0  0  0  0  0  0
  -27.8732  -11.2941   18.8647 H   0  0  0  0  0  0
  -27.3872  -12.5831   17.7938 H   0  0  0  0  0  0
  -27.6800  -14.2512   19.5369 H   0  0  0  0  0  0
  -28.7136  -12.0252   21.3654 H   0  0  0  0  0  0
  -28.4362  -13.6683   21.8620 H   0  0  0  0  0  0
  -25.2764   -9.5694   22.4752 H   0  0  0  0  0  0
  -24.0001   -7.4644   22.7479 H   0  0  0  0  0  0
  -21.0834   -8.8774   19.8955 H   0  0  0  0  0  0
  -22.3690  -10.9675   19.6158 H   0  0  0  0  0  0
  -21.2004   -7.6148   23.9722 H   0  0  0  0  0  0
  -21.1479   -6.0519   25.9083 H   0  0  0  0  0  0
  -22.0599   -2.7609   23.2844 H   0  0  0  0  0  0
  -22.4098  -11.9896   22.4797 H   0  0  0  0  0  0
  -21.1120  -13.1281   22.2596 H   0  0  0  0  0  0
  -24.6627  -15.8418   20.5356 H   0  0  0  0  0  0
  -26.2847  -15.6358   20.1083 H   0  0  0  0  0  0
  -26.7175  -32.5449   23.1114 H   0  0  0  0  0  0
  -25.0094  -33.9738   25.0452 H   0  0  0  0  0  0
  -22.7126  -31.3039   21.4072 H   0  0  0  0  0  0
  -23.3760  -35.9634   23.3300 H   0  0  0  0  0  0
  -24.3587  -36.8912   22.2050 H   0  0  0  0  0  0
  -23.7261  -37.6498   23.6655 H   0  0  0  0  0  0
  -26.0975  -31.5504   20.6151 H   0  0  0  0  0  0
  -26.8403  -30.8347   22.0154 H   0  0  0  0  0  0
  -28.1105  -28.9650   21.2240 H   0  0  0  0  0  0
  -26.0158  -26.0033   18.8950 H   0  0  0  0  0  0
  -23.9838  -27.3387   18.9681 H   0  0  0  0  0  0
  -23.7600  -30.6006   19.4086 H   0  0  0  0  0  0
  -22.7557  -29.2547   19.8588 H   0  0  0  0  0  0
  -25.1305  -36.1935   25.0818 H   0  0  0  0  0  0
  -20.9999  -28.3210   24.1453 H   0  0  0  0  0  0
  -20.5785  -26.2282   23.3482 H   0  0  0  0  0  0
  -21.6679  -26.7623   22.1068 H   0  0  0  0  0  0
  -19.6978  -25.6492   21.1038 H   0  0  0  0  0  0
  -19.6653  -27.3465   20.6781 H   0  0  0  0  0  0
  -17.4226  -26.6689   21.4044 H   0  0  0  0  0  0
  -18.0470  -26.0039   22.9003 H   0  0  0  0  0  0
  -19.7907  -30.7283   24.2325 H   0  0  0  0  0  0
  -17.5007  -31.6286   24.5148 H   0  0  0  0  0  0
  -15.5320  -30.2950   23.7695 H   0  0  0  0  0  0
  -15.8674  -28.0757   22.7122 H   0  0  0  0  0  0
  -24.5913  -30.7072   25.7800 H   0  0  0  0  0  0
  -24.8921  -32.2894   26.4884 H   0  0  0  0  0  0
  -25.8057  -30.8912   27.0249 H   0  0  0  0  0  0
  -26.2930  -29.6749   24.1236 H   0  0  0  0  0  0
  -27.4043  -29.7270   25.4720 H   0  0  0  0  0  0
  -27.8805  -30.4284   23.9443 H   0  0  0  0  0  0
  -27.2670  -33.3629   26.2078 H   0  0  0  0  0  0
  -28.3868  -32.6894   25.0333 H   0  0  0  0  0  0
  -28.0739  -31.8465   26.5421 H   0  0  0  0  0  0
  -28.2602  -38.0100   24.7512 H   0  0  0  0  0  0
  -28.1078  -36.2634   24.6300 H   0  0  0  0  0  0
  -27.2294  -37.1464   25.8862 H   0  0  0  0  0  0
  -20.9333  -29.9114   21.7273 H   0  0  0  0  0  0
  -26.0179  -38.2849   24.1402 H   0  0  0  0  0  0
  -29.2087  -19.9910   22.5778 H   0  0  0  0  0  0
  -29.7495  -17.6132   22.8549 H   0  0  0  0  0  0
  -29.0303  -19.4443   18.3284 H   0  0  0  0  0  0
  -27.2514  -24.1421   18.6236 H   0  0  0  0  0  0
  -25.9939  -24.2265   19.8639 H   0  0  0  0  0  0
  -26.7569  -20.1814   19.6123 H   0  0  0  0  0  0
  -26.5562  -21.1434   21.0601 H   0  0  0  0  0  0
  -29.5777  -22.5362   21.5215 H   0  0  0  0  0  0
  -29.7842  -22.8546   19.8180 H   0  0  0  0  0  0
  -27.3927  -23.4915   21.5537 H   0  0  0  0  0  0
  -29.3256  -17.3725   17.3241 H   0  0  0  0  0  0
  -28.9518  -15.9606   18.3003 H   0  0  0  0  0  0
  -30.6340  -16.4439   18.0477 H   0  0  0  0  0  0
  -29.3808  -25.2601   21.3953 H   0  0  0  0  0  0
  -27.7741  -25.5938   21.8863 H   0  0  0  0  0  0
  -29.0109  -15.3005   21.4959 H   0  0  0  0  0  0
  1 25  1  0  0  0
  1 30  2  0  0  0
  1 85  1  0  0  0
  2  3  1  0  0  0
  2 25  1  0  0  0
  2 87  1  0  0  0
  2 88  1  0  0  0
  3  4  1  0  0  0
  3 89  1  0  0  0
  3 90  1  0  0  0
  4  5  1  0  0  0
  4 91  1  0  0  0
  4 92  1  0  0  0
  5  6  1  0  0  0
  5 26  1  0  0  0
  5 93  1  0  0  0
  6 25  1  0  0  0
  6 94  1  0  0  0
  6 95  1  0  0  0
  7  8  2  0  0  0
  7 26  1  0  0  0
  7 29  1  0  0  0
  8  9  1  0  0  0
  8 22  1  0  0  0
  9 10  1  0  0  0
  9 27  2  0  0  0
 10 11  2  0  0  0
 10 15  1  0  0  0
 11 12  1  0  0  0
 11 96  1  0  0  0
 12 13  2  0  0  0
 12 97  1  0  0  0
 13 14  1  0  0  0
 13 31  1  0  0  0
 14 15  2  0  0  0
 14 98  1  0  0  0
 15 99  1  0  0  0
 16 17  2  0  0  0
 16 21  1  0  0  0
 16 31  1  0  0  0
 17 18  1  0  0  0
 17100  1  0  0  0
 18 19  2  0  0  0
 18101  1  0  0  0
 19 20  1  0  0  0
 19 24  1  0  0  0
 20 21  2  0  0  0
 20102  1  0  0  0
 21 23  1  0  0  0
 22 28  1  0  0  0
 22 32  2  0  0  0
 26 27  1  0  0  0
 28103  1  0  0  0
 28104  1  0  0  0
 29105  1  0  0  0
 29106  1  0  0  0
 33 34  1  0  0  0
 33 66  1  0  0  0
 33 70  2  0  0  0
 34 36  1  0  0  0
 34 59  1  0  0  0
 34107  1  0  0  0
 35 44  2  0  0  0
 35 45  1  0  0  0
 35 68  1  0  0  0
 36 56  1  0  0  0
 36108  1  0  0  0
 37 39  1  0  0  0
 37 47  1  0  0  0
 37 66  1  0  0  0
 37109  1  0  0  0
 38 43  2  0  0  0
 38 46  1  0  0  0
 38 47  1  0  0  0
 39 64  1  0  0  0
 39 67  2  0  0  0
 40 52  1  0  0  0
 40 53  2  0  0  0
 40 58  1  0  0  0
 41110  1  0  0  0
 41111  1  0  0  0
 41112  1  0  0  0
 41 48  1  0  0  0
 42 43  1  0  0  0
 42 66  1  0  0  0
 42113  1  0  0  0
 42114  1  0  0  0
 43 44  1  0  0  0
 44115  1  0  0  0
 45 46  2  0  0  0
 45116  1  0  0  0
 46117  1  0  0  0
 47118  1  0  0  0
 47119  1  0  0  0
 48 56  1  0  0  0
 48 65  1  0  0  0
 48120  1  0  0  0
 49 50  1  0  0  0
 49 53  1  0  0  0
 49 64  1  0  0  0
 49121  1  0  0  0
 50 51  1  0  0  0
 50122  1  0  0  0
 50123  1  0  0  0
 51 52  1  0  0  0
 51124  1  0  0  0
 51125  1  0  0  0
 52126  1  0  0  0
 52127  1  0  0  0
 53 54  1  0  0  0
 54 55  2  0  0  0
 54128  1  0  0  0
 55 57  1  0  0  0
 55129  1  0  0  0
 56 69  2  0  0  0
 57 58  2  0  0  0
 57130  1  0  0  0
 58131  1  0  0  0
 59 60  1  0  0  0
 59 61  1  0  0  0
 59 62  1  0  0  0
 60132  1  0  0  0
 60133  1  0  0  0
 60134  1  0  0  0
 61135  1  0  0  0
 61136  1  0  0  0
 61137  1  0  0  0
 62138  1  0  0  0
 62139  1  0  0  0
 62140  1  0  0  0
 63 65  1  0  0  0
 63141  1  0  0  0
 63142  1  0  0  0
 63143  1  0  0  0
 64144  1  0  0  0
 65145  1  0  0  0
 68 83  1  0  0  0
 71 72  2  0  0  0
 71 75  1  0  0  0
 71146  1  0  0  0
 72 76  1  0  0  0
 72147  1  0  0  0
 73 74  1  0  0  0
 73 75  2  0  0  0
 73148  1  0  0  0
 74 76  2  0  0  0
 74 82  1  0  0  0
 75 84  1  0  0  0
 76 85  1  0  0  0
 77 78  1  0  0  0
 77 79  1  0  0  0
 77 86  2  0  0  0
 78 81  1  0  0  0
 78149  1  0  0  0
 78150  1  0  0  0
 79 84  1  0  0  0
 79151  1  0  0  0
 79152  1  0  0  0
 80 81  1  0  0  0
 80 84  1  0  0  0
 80153  1  0  0  0
 80154  1  0  0  0
 81 83  1  0  0  0
 81155  1  0  0  0
 82156  1  0  0  0
 82157  1  0  0  0
 82158  1  0  0  0
 83159  1  0  0  0
 83160  1  0  0  0
 85161  1  0  0  0
M  ISO  4   1 100  68 101  83 101  85 100
M  END
> <chiral flag>
0

> <version>
0

> <s_m_source_file>
/data/baiqing/PycharmProjects/Reinvent-master-3.2/result/LINK_invent/BTK/process_docking_weight1_custom_product_contain_oxygen_bond_distance_aromatic_linkinvent_7_9_3/rearranged_h_0109.sdf

> <i_m_source_file_index>
88

> <r_mmod_Potential_Energy-OPLS-2005>
170.8505859375

> <r_mmod_Stretch_Energy-OPLS-2005>
85.6556167602539

> <r_mmod_Bend_Energy-OPLS-2005>
175.977737426758

> <r_mmod_Torsional_Energy-OPLS-2005>
329.585296630859

> <r_mmod_Improper_Torsional_Energy-OPLS-2005>
6.97325801849365

> <r_mmod_Van_der_Waal_Energy-OPLS-2005>
140.624847412109

> <r_mmod_Electrostatic_Energy-OPLS-2005>
-386.339080810547

> <r_mmod_Solvation_Energy-OPLS-2005>
-231.140167236328

> <b_mmod_Minimization_Converged-OPLS-2005>
0

> <r_mmod_RMS_Derivative-OPLS-2005>
2.42781376838684

$$$$
88
                    3D
 Structure written by MMmdl.
166174  0  0  1  0            999 V2000
  -30.6999  -14.5272   20.6529 C   0  0  0  0  0  0
  -30.4221  -12.3748   19.4378 C   0  0  0  0  0  0
  -29.4941  -12.5394   18.2178 C   0  0  0  0  0  0
  -28.0175  -12.3813   18.6266 C   0  0  0  0  0  0
  -27.6608  -13.2131   19.8871 C   0  0  2  0  0  0
  -28.7002  -12.9899   21.0077 C   0  0  0  0  0  0
  -25.2539  -13.8172   20.5577 C   0  0  0  0  0  0
  -24.1829  -13.0442   20.9163 C   0  0  0  0  0  0
  -24.6401  -11.6919   20.8764 C   0  0  0  0  0  0
  -23.9069  -10.4307   21.0433 C   0  0  0  0  0  0
  -24.3614   -9.4222   21.9210 C   0  0  0  0  0  0
  -23.6300   -8.2252   22.0761 C   0  0  0  0  0  0
  -22.4294   -8.0288   21.3539 C   0  0  0  0  0  0
  -21.9934   -9.0263   20.4642 C   0  0  0  0  0  0
  -22.7251  -10.2152   20.3066 C   0  0  0  0  0  0
  -21.6851   -6.0750   22.5281 C   0  0  0  0  0  0
  -21.4016   -6.5650   23.8212 C   0  0  0  0  0  0
  -21.3658   -5.6800   24.9172 C   0  0  0  0  0  0
  -21.6045   -4.3060   24.7225 C   0  0  0  0  0  0
  -21.8815   -3.8157   23.4337 C   0  0  0  0  0  0
  -21.9191   -4.6978   22.3399 C   0  0  0  0  0  0
  -22.7861  -13.5226   21.1867 C   0  0  0  0  0  0
  -22.1667   -4.2165   21.0977 F   0  0  0  0  0  0
  -21.5618   -3.4537   25.7733 F   0  0  0  0  0  0
  -30.0193  -13.3500   20.4715 N   0  0  0  0  0  0
  -26.3017  -12.9356   20.3423 N   0  0  0  0  0  0
  -25.9336  -11.6508   20.5830 N   0  0  0  0  0  0
  -22.0521  -12.8209   22.0428 N   0  0  0  0  0  0
  -25.4199  -15.1869   20.3778 N   0  0  0  0  0  0
  -31.7231  -14.7861   20.0063 O   0  0  0  0  0  0
  -21.6641   -6.8895   21.4240 O   0  0  0  0  0  0
  -22.3543  -14.5549   20.6745 O   0  0  0  0  0  0
  -24.6189  -31.8621   23.2028 C   0  0  0  0  0  0
  -25.9061  -32.4795   23.8349 C   0  0  1  0  0  0
  -27.2412  -27.3741   20.1032 C   0  0  0  0  0  0
  -25.5900  -33.8597   24.2268 N   0  0  0  0  0  0
  -23.4106  -30.4808   21.5431 C   0  0  2  0  0  0
  -24.8580  -28.9361   20.1108 C   0  0  0  0  0  0
  -22.7429  -29.4632   22.4979 C   0  0  0  0  0  0
  -18.0270  -28.1371   22.8490 C   0  0  0  0  0  0
  -24.1488  -36.7286   23.2651 C   0  0  0  0  0  0
  -25.9423  -30.8070   21.3655 C   0  0  0  0  0  0
  -26.0180  -29.4367   20.7120 C   0  0  0  0  0  0
  -27.2056  -28.6619   20.7058 C   0  0  0  0  0  0
  -26.0566  -26.8952   19.5026 C   0  0  0  0  0  0
  -24.8746  -27.6661   19.5064 C   0  0  0  0  0  0
  -23.6193  -29.8051   20.1604 C   0  0  0  0  0  0
  -25.4115  -36.3088   24.0336 C   0  0  1  0  0  0
  -20.5863  -28.3654   23.1316 C   0  0  2  0  0  0
  -20.6762  -26.9390   22.5416 C   0  0  0  0  0  0
  -19.5740  -26.6369   21.5218 C   0  0  0  0  0  0
  -18.1918  -26.7923   22.1620 C   0  0  0  0  0  0
  -19.1523  -28.8825   23.2911 C   0  0  0  0  0  0
  -18.9473  -30.1433   23.8921 C   0  0  0  0  0  0
  -17.6474  -30.6586   24.0564 C   0  0  0  0  0  0
  -25.9042  -34.9460   23.5104 C   0  0  0  0  0  0
  -16.5352  -29.9077   23.6344 C   0  0  0  0  0  0
  -16.7257  -28.6492   23.0359 C   0  0  0  0  0  0
  -26.4462  -31.6607   25.0710 C   0  0  0  0  0  0
  -25.3702  -31.3717   26.1446 C   0  0  0  0  0  0
  -27.0326  -30.3063   24.6115 C   0  0  0  0  0  0
  -27.6021  -32.4347   25.7474 C   0  0  0  0  0  0
  -27.5578  -37.1796   24.8471 C   0  0  0  0  0  0
  -21.4147  -29.3025   22.3719 N   0  0  0  0  0  0
  -26.4294  -37.3783   23.9415 N   0  0  0  0  0  0
  -24.6752  -31.0670   22.0946 N   0  0  0  0  0  0
  -23.4175  -28.8200   23.3061 O   0  0  0  0  0  0
  -28.4226  -26.6384   20.1472 O   0  0  0  0  0  0
  -26.5630  -34.8920   22.4674 O   0  0  0  0  0  0
  -23.5358  -32.1403   23.7368 O   0  0  0  0  0  0
  -29.6864  -17.8153   21.0018 C   0  0  0  0  0  0
  -27.7678  -18.9880   21.9021 C   0  0  0  0  0  0
  -29.3613  -16.6216   21.7365 C   0  0  0  0  0  0
  -28.1852  -16.6541   22.5582 C   0  0  0  0  0  0
  -28.9140  -19.0210   21.0807 C   0  0  0  0  0  0
  -27.4124  -17.8409   22.6284 C   0  0  0  0  0  0
  -27.7516  -15.4882   23.3733 C   0  0  0  0  0  0
  -26.4820  -15.0734   23.5514 C   0  0  0  0  0  0
  -30.3349  -15.4456   21.8481 C   0  0  0  0  0  0
  -26.0731  -13.8891   24.4007 C   0  0  0  0  0  0
  -26.6226  -18.6095   24.6815 C   0  0  0  0  0  0
  -28.2881  -24.0622   20.3650 C   0  0  0  0  0  0
  -29.0217  -22.7302   19.9340 C   0  0  0  0  0  0
  -28.5881  -25.3422   19.5037 C   0  0  0  0  0  0
  -28.5686  -21.4337   20.6933 C   0  0  0  0  0  0
  -30.9200  -15.2484   22.9568 N   0  0  0  0  0  0
  -26.3313  -17.9312   23.4674 O   0  0  0  0  0  0
  -29.2917  -20.1947   20.4076 O   0  0  0  0  0  0
  -31.4644  -12.4907   19.1357 H   0  0  0  0  0  0
  -30.3502  -11.3617   19.8362 H   0  0  0  0  0  0
  -29.7501  -11.8099   17.4486 H   0  0  0  0  0  0
  -29.6464  -13.5228   17.7726 H   0  0  0  0  0  0
  -27.8351  -11.3233   18.8173 H   0  0  0  0  0  0
  -27.3655  -12.6555   17.7957 H   0  0  0  0  0  0
  -27.7079  -14.2643   19.6033 H   0  0  0  0  0  0
  -28.7009  -11.9448   21.3192 H   0  0  0  0  0  0
  -28.4378  -13.5449   21.8985 H   0  0  0  0  0  0
  -25.2751   -9.5704   22.4793 H   0  0  0  0  0  0
  -23.9997   -7.4643   22.7480 H   0  0  0  0  0  0
  -21.0868   -8.8772   19.8944 H   0  0  0  0  0  0
  -22.3701  -10.9690   19.6167 H   0  0  0  0  0  0
  -21.2013   -7.6159   23.9725 H   0  0  0  0  0  0
  -21.1480   -6.0530   25.9077 H   0  0  0  0  0  0
  -22.0597   -2.7619   23.2829 H   0  0  0  0  0  0
  -22.4113  -11.9829   22.4756 H   0  0  0  0  0  0
  -21.1142  -13.1229   22.2650 H   0  0  0  0  0  0
  -24.6592  -15.8436   20.5095 H   0  0  0  0  0  0
  -26.2852  -15.6331   20.1036 H   0  0  0  0  0  0
  -26.7114  -32.5487   23.1086 H   0  0  0  0  0  0
  -25.0059  -33.9764   25.0417 H   0  0  0  0  0  0
  -22.7043  -31.3017   21.3951 H   0  0  0  0  0  0
  -23.3770  -35.9604   23.3317 H   0  0  0  0  0  0
  -24.3582  -36.8899   22.2067 H   0  0  0  0  0  0
  -23.7208  -37.6477   23.6657 H   0  0  0  0  0  0
  -26.0664  -31.5733   20.5994 H   0  0  0  0  0  0
  -26.8248  -30.8570   21.9909 H   0  0  0  0  0  0
  -28.0984  -29.0454   21.1776 H   0  0  0  0  0  0
  -26.0194  -25.9197   19.0409 H   0  0  0  0  0  0
  -23.9795  -27.2700   19.0495 H   0  0  0  0  0  0
  -23.7181  -30.5750   19.3932 H   0  0  0  0  0  0
  -22.7431  -29.2213   19.8719 H   0  0  0  0  0  0
  -25.1282  -36.1952   25.0827 H   0  0  0  0  0  0
  -20.9970  -28.3202   24.1436 H   0  0  0  0  0  0
  -20.5676  -26.2262   23.3602 H   0  0  0  0  0  0
  -21.6622  -26.7421   22.1199 H   0  0  0  0  0  0
  -19.6923  -25.6290   21.1232 H   0  0  0  0  0  0
  -19.6691  -27.3200   20.6766 H   0  0  0  0  0  0
  -17.4195  -26.6700   21.4012 H   0  0  0  0  0  0
  -18.0285  -26.0044   22.8980 H   0  0  0  0  0  0
  -19.7954  -30.7237   24.2300 H   0  0  0  0  0  0
  -17.5028  -31.6282   24.5129 H   0  0  0  0  0  0
  -15.5358  -30.2986   23.7668 H   0  0  0  0  0  0
  -15.8652  -28.0814   22.7072 H   0  0  0  0  0  0
  -24.5872  -30.7075   25.7755 H   0  0  0  0  0  0
  -24.8902  -32.2881   26.4896 H   0  0  0  0  0  0
  -25.8032  -30.8869   27.0208 H   0  0  0  0  0  0
  -26.2887  -29.6822   24.1154 H   0  0  0  0  0  0
  -27.4101  -29.7298   25.4573 H   0  0  0  0  0  0
  -27.8703  -30.4409   23.9270 H   0  0  0  0  0  0
  -27.2625  -33.3653   26.2026 H   0  0  0  0  0  0
  -28.3831  -32.6912   25.0301 H   0  0  0  0  0  0
  -28.0684  -31.8502   26.5408 H   0  0  0  0  0  0
  -28.2581  -38.0108   24.7531 H   0  0  0  0  0  0
  -28.1085  -36.2638   24.6269 H   0  0  0  0  0  0
  -27.2308  -37.1407   25.8880 H   0  0  0  0  0  0
  -20.9304  -29.8764   21.6962 H   0  0  0  0  0  0
  -26.0191  -38.2866   24.1414 H   0  0  0  0  0  0
  -30.5899  -17.8274   20.4096 H   0  0  0  0  0  0
  -27.1336  -19.8506   22.0297 H   0  0  0  0  0  0
  -28.5228  -14.9414   23.8929 H   0  0  0  0  0  0
  -25.6705  -15.5971   23.0659 H   0  0  0  0  0  0
  -26.9413  -13.3519   24.7831 H   0  0  0  0  0  0
  -25.4716  -13.1948   23.8123 H   0  0  0  0  0  0
  -25.4730  -14.2224   25.2487 H   0  0  0  0  0  0
  -25.7380  -18.6303   25.3175 H   0  0  0  0  0  0
  -26.9287  -19.6407   24.5040 H   0  0  0  0  0  0
  -27.4157  -18.1040   25.2357 H   0  0  0  0  0  0
  -28.5533  -24.2711   21.4010 H   0  0  0  0  0  0
  -27.2097  -23.8990   20.3612 H   0  0  0  0  0  0
  -30.0954  -22.8608   20.0787 H   0  0  0  0  0  0
  -28.8823  -22.5725   18.8643 H   0  0  0  0  0  0
  -28.0665  -25.2959   18.5478 H   0  0  0  0  0  0
  -29.6444  -25.3091   19.2351 H   0  0  0  0  0  0
  -27.5123  -21.2873   20.4605 H   0  0  0  0  0  0
  -28.6386  -21.6271   21.7658 H   0  0  0  0  0  0
  -30.6257  -15.9315   23.6432 H   0  0  0  0  0  0
  1 25  1  0  0  0
  1 30  2  0  0  0
  1 79  1  0  0  0
  2  3  1  0  0  0
  2 25  1  0  0  0
  2 89  1  0  0  0
  2 90  1  0  0  0
  3  4  1  0  0  0
  3 91  1  0  0  0
  3 92  1  0  0  0
  4  5  1  0  0  0
  4 93  1  0  0  0
  4 94  1  0  0  0
  5  6  1  0  0  0
  5 26  1  0  0  0
  5 95  1  0  0  0
  6 25  1  0  0  0
  6 96  1  0  0  0
  6 97  1  0  0  0
  7  8  2  0  0  0
  7 26  1  0  0  0
  7 29  1  0  0  0
  8  9  1  0  0  0
  8 22  1  0  0  0
  9 10  1  0  0  0
  9 27  2  0  0  0
 10 11  2  0  0  0
 10 15  1  0  0  0
 11 12  1  0  0  0
 11 98  1  0  0  0
 12 13  2  0  0  0
 12 99  1  0  0  0
 13 14  1  0  0  0
 13 31  1  0  0  0
 14 15  2  0  0  0
 14100  1  0  0  0
 15101  1  0  0  0
 16 17  2  0  0  0
 16 21  1  0  0  0
 16 31  1  0  0  0
 17 18  1  0  0  0
 17102  1  0  0  0
 18 19  2  0  0  0
 18103  1  0  0  0
 19 20  1  0  0  0
 19 24  1  0  0  0
 20 21  2  0  0  0
 20104  1  0  0  0
 21 23  1  0  0  0
 22 28  1  0  0  0
 22 32  2  0  0  0
 26 27  1  0  0  0
 28105  1  0  0  0
 28106  1  0  0  0
 29107  1  0  0  0
 29108  1  0  0  0
 33 34  1  0  0  0
 33 66  1  0  0  0
 33 70  2  0  0  0
 34 36  1  0  0  0
 34 59  1  0  0  0
 34109  1  0  0  0
 35 44  2  0  0  0
 35 45  1  0  0  0
 35 68  1  0  0  0
 36 56  1  0  0  0
 36110  1  0  0  0
 37 39  1  0  0  0
 37 47  1  0  0  0
 37 66  1  0  0  0
 37111  1  0  0  0
 38 43  2  0  0  0
 38 46  1  0  0  0
 38 47  1  0  0  0
 39 64  1  0  0  0
 39 67  2  0  0  0
 40 52  1  0  0  0
 40 53  2  0  0  0
 40 58  1  0  0  0
 41112  1  0  0  0
 41113  1  0  0  0
 41114  1  0  0  0
 41 48  1  0  0  0
 42 43  1  0  0  0
 42 66  1  0  0  0
 42115  1  0  0  0
 42116  1  0  0  0
 43 44  1  0  0  0
 44117  1  0  0  0
 45 46  2  0  0  0
 45118  1  0  0  0
 46119  1  0  0  0
 47120  1  0  0  0
 47121  1  0  0  0
 48 56  1  0  0  0
 48 65  1  0  0  0
 48122  1  0  0  0
 49 50  1  0  0  0
 49 53  1  0  0  0
 49 64  1  0  0  0
 49123  1  0  0  0
 50 51  1  0  0  0
 50124  1  0  0  0
 50125  1  0  0  0
 51 52  1  0  0  0
 51126  1  0  0  0
 51127  1  0  0  0
 52128  1  0  0  0
 52129  1  0  0  0
 53 54  1  0  0  0
 54 55  2  0  0  0
 54130  1  0  0  0
 55 57  1  0  0  0
 55131  1  0  0  0
 56 69  2  0  0  0
 57 58  2  0  0  0
 57132  1  0  0  0
 58133  1  0  0  0
 59 60  1  0  0  0
 59 61  1  0  0  0
 59 62  1  0  0  0
 60134  1  0  0  0
 60135  1  0  0  0
 60136  1  0  0  0
 61137  1  0  0  0
 61138  1  0  0  0
 61139  1  0  0  0
 62140  1  0  0  0
 62141  1  0  0  0
 62142  1  0  0  0
 63 65  1  0  0  0
 63143  1  0  0  0
 63144  1  0  0  0
 63145  1  0  0  0
 64146  1  0  0  0
 65147  1  0  0  0
 68 84  1  0  0  0
 71 73  2  0  0  0
 71 75  1  0  0  0
 71148  1  0  0  0
 72 75  2  0  0  0
 72 76  1  0  0  0
 72149  1  0  0  0
 73 74  1  0  0  0
 73 79  1  0  0  0
 74 76  2  0  0  0
 74 77  1  0  0  0
 75 88  1  0  0  0
 76 87  1  0  0  0
 77 78  2  0  0  0
 77150  1  0  0  0
 78 80  1  0  0  0
 78151  1  0  0  0
 79 86  2  0  0  0
 80152  1  0  0  0
 80153  1  0  0  0
 80154  1  0  0  0
 81 87  1  0  0  0
 81155  1  0  0  0
 81156  1  0  0  0
 81157  1  0  0  0
 82 83  1  0  0  0
 82 84  1  0  0  0
 82158  1  0  0  0
 82159  1  0  0  0
 83 85  1  0  0  0
 83160  1  0  0  0
 83161  1  0  0  0
 84162  1  0  0  0
 84163  1  0  0  0
 85 88  1  0  0  0
 85164  1  0  0  0
 85165  1  0  0  0
 86166  1  0  0  0
M  ISO  4   1 100  68 101  79 100  84 101
M  END
> <chiral flag>
0

> <version>
0

> <s_m_source_file>
/data/baiqing/PycharmProjects/Reinvent-master-3.2/result/LINK_invent/BTK/process_docking_weight1_custom_product_contain_oxygen_bond_distance_aromatic_linkinvent_7_9_3/rearranged_h_0109.sdf

> <i_m_source_file_index>
89

> <r_mmod_Potential_Energy-OPLS-2005>
226.222473144531

> <r_mmod_Stretch_Energy-OPLS-2005>
70.7698287963867

> <r_mmod_Bend_Energy-OPLS-2005>
146.253356933594

> <r_mmod_Torsional_Energy-OPLS-2005>
272.532501220703

> <r_mmod_Improper_Torsional_Energy-OPLS-2005>
6.17487049102783

> <r_mmod_Van_der_Waal_Energy-OPLS-2005>
142.245407104492

> <r_mmod_Electrostatic_Energy-OPLS-2005>
-238.474655151367

> <r_mmod_Solvation_Energy-OPLS-2005>
-196.216491699219

> <b_mmod_Minimization_Converged-OPLS-2005>
0

> <r_mmod_RMS_Derivative-OPLS-2005>
2.70834994316101

$$$$
89
                    3D
 Structure written by MMmdl.
160169  0  0  1  0            999 V2000
  -30.6172  -14.6579   20.4762 C   0  0  0  0  0  0
  -30.4430  -12.3938   19.4592 C   0  0  0  0  0  0
  -29.5188  -12.5086   18.2259 C   0  0  0  0  0  0
  -28.0379  -12.3558   18.6317 C   0  0  0  0  0  0
  -27.6592  -13.2190   19.8669 C   0  0  2  0  0  0
  -28.7013  -13.0772   20.9989 C   0  0  0  0  0  0
  -25.2610  -13.8198   20.5714 C   0  0  0  0  0  0
  -24.1848  -13.0467   20.9179 C   0  0  0  0  0  0
  -24.6401  -11.6925   20.8724 C   0  0  0  0  0  0
  -23.9070  -10.4301   21.0408 C   0  0  0  0  0  0
  -24.3603   -9.4214   21.9180 C   0  0  0  0  0  0
  -23.6274   -8.2254   22.0761 C   0  0  0  0  0  0
  -22.4258   -8.0288   21.3555 C   0  0  0  0  0  0
  -21.9897   -9.0278   20.4663 C   0  0  0  0  0  0
  -22.7244  -10.2150   20.3066 C   0  0  0  0  0  0
  -21.6850   -6.0737   22.5280 C   0  0  0  0  0  0
  -21.4014   -6.5628   23.8213 C   0  0  0  0  0  0
  -21.3656   -5.6770   24.9172 C   0  0  0  0  0  0
  -21.6051   -4.3035   24.7216 C   0  0  0  0  0  0
  -21.8814   -3.8145   23.4327 C   0  0  0  0  0  0
  -21.9195   -4.6973   22.3395 C   0  0  0  0  0  0
  -22.7859  -13.5291   21.1823 C   0  0  0  0  0  0
  -22.1671   -4.2169   21.0970 F   0  0  0  0  0  0
  -21.5621   -3.4498   25.7715 F   0  0  0  0  0  0
  -30.0169  -13.4222   20.4327 N   0  0  0  0  0  0
  -26.3026  -12.9374   20.3314 N   0  0  0  0  0  0
  -25.9336  -11.6523   20.5724 N   0  0  0  0  0  0
  -22.0463  -12.8339   22.0377 N   0  0  0  0  0  0
  -25.4325  -15.1918   20.4182 N   0  0  0  0  0  0
  -31.7722  -14.8236   20.0737 O   0  0  0  0  0  0
  -21.6639   -6.8883   21.4237 O   0  0  0  0  0  0
  -22.3563  -14.5609   20.6668 O   0  0  0  0  0  0
  -24.6295  -31.8587   23.2025 C   0  0  0  0  0  0
  -25.9124  -32.4792   23.8370 C   0  0  1  0  0  0
  -27.2280  -27.3220   20.1170 C   0  0  0  0  0  0
  -25.5918  -33.8581   24.2304 N   0  0  0  0  0  0
  -23.4262  -30.4803   21.5436 C   0  0  2  0  0  0
  -24.8715  -28.9290   20.1180 C   0  0  0  0  0  0
  -22.7503  -29.4598   22.4920 C   0  0  0  0  0  0
  -18.0326  -28.1397   22.8463 C   0  0  0  0  0  0
  -24.1479  -36.7283   23.2641 C   0  0  0  0  0  0
  -25.9662  -30.7929   21.3710 C   0  0  0  0  0  0
  -26.0410  -29.4185   20.7146 C   0  0  0  0  0  0
  -27.2260  -28.6272   20.6972 C   0  0  0  0  0  0
  -26.0349  -26.8730   19.5146 C   0  0  0  0  0  0
  -24.8687  -27.6617   19.5100 C   0  0  0  0  0  0
  -23.6457  -29.8146   20.1596 C   0  0  0  0  0  0
  -25.4108  -36.3094   24.0343 C   0  0  1  0  0  0
  -20.5900  -28.3694   23.1281 C   0  0  2  0  0  0
  -20.6805  -26.9406   22.5438 C   0  0  0  0  0  0
  -19.5813  -26.6341   21.5205 C   0  0  0  0  0  0
  -18.1978  -26.7939   22.1581 C   0  0  0  0  0  0
  -19.1557  -28.8869   23.2863 C   0  0  0  0  0  0
  -18.9469  -30.1472   23.8866 C   0  0  0  0  0  0
  -17.6460  -30.6599   24.0561 C   0  0  0  0  0  0
  -25.9032  -34.9462   23.5116 C   0  0  0  0  0  0
  -16.5361  -29.9069   23.6361 C   0  0  0  0  0  0
  -16.7305  -28.6515   23.0330 C   0  0  0  0  0  0
  -26.4503  -31.6609   25.0742 C   0  0  0  0  0  0
  -25.3727  -31.3731   26.1458 C   0  0  0  0  0  0
  -27.0358  -30.3048   24.6200 C   0  0  0  0  0  0
  -27.6094  -32.4316   25.7496 C   0  0  0  0  0  0
  -27.5580  -37.1805   24.8461 C   0  0  0  0  0  0
  -21.4214  -29.3072   22.3701 N   0  0  0  0  0  0
  -26.4282  -37.3796   23.9422 N   0  0  0  0  0  0
  -24.6929  -31.0594   22.0978 N   0  0  0  0  0  0
  -23.4216  -28.8117   23.2972 O   0  0  0  0  0  0
  -28.3465  -26.4815   20.1111 O   0  0  0  0  0  0
  -26.5578  -34.8910   22.4675 O   0  0  0  0  0  0
  -23.5446  -32.1356   23.7332 O   0  0  0  0  0  0
  -29.7036  -19.5439   21.0625 C   0  0  0  0  0  0
  -29.9643  -18.1779   21.4103 C   0  0  0  0  0  0
  -29.1346  -18.8521   18.8613 C   0  0  0  0  0  0
  -29.2006  -19.9544   19.7914 C   0  0  0  0  0  0
  -29.8025  -17.1049   20.4921 C   0  0  0  0  0  0
  -29.4055  -17.4880   19.1901 C   0  0  0  0  0  0
  -28.4684  -23.8206   19.7814 C   0  0  0  0  0  0
  -28.5945  -22.5197   20.2596 C   0  0  0  0  0  0
  -28.4541  -24.0001   18.3189 C   0  0  0  0  0  0
  -27.9736  -22.7997   17.5224 C   0  0  0  0  0  0
  -28.6345  -21.4922   17.9848 C   0  0  0  0  0  0
  -28.3558  -22.2827   21.7467 C   0  0  0  0  0  0
  -28.1847  -25.1103   20.6567 C   0  0  0  0  0  0
  -28.8056  -21.3317   19.4459 N   0  0  0  0  0  0
  -29.8441  -15.7020   20.9095 N   0  0  0  0  0  0
  -28.7351  -25.0416   17.7193 O   0  0  0  0  0  0
  -29.2369  -16.5174   18.2388 O   0  0  0  0  0  0
  -31.4873  -12.5062   19.1606 H   0  0  0  0  0  0
  -30.3678  -11.3979   19.9013 H   0  0  0  0  0  0
  -29.7838  -11.7484   17.4904 H   0  0  0  0  0  0
  -29.6720  -13.4745   17.7384 H   0  0  0  0  0  0
  -27.8720  -11.3023   18.8563 H   0  0  0  0  0  0
  -27.3869  -12.5947   17.7904 H   0  0  0  0  0  0
  -27.6859  -14.2567   19.5354 H   0  0  0  0  0  0
  -28.7111  -12.0622   21.3991 H   0  0  0  0  0  0
  -28.4381  -13.7180   21.8422 H   0  0  0  0  0  0
  -25.2733   -9.5688   22.4765 H   0  0  0  0  0  0
  -23.9978   -7.4639   22.7476 H   0  0  0  0  0  0
  -21.0824   -8.8796   19.8964 H   0  0  0  0  0  0
  -22.3694  -10.9686   19.6172 H   0  0  0  0  0  0
  -21.2002   -7.6130   23.9735 H   0  0  0  0  0  0
  -21.1486   -6.0481   25.9079 H   0  0  0  0  0  0
  -22.0603   -2.7613   23.2806 H   0  0  0  0  0  0
  -22.4052  -12.0019   22.4828 H   0  0  0  0  0  0
  -21.1103  -13.1449   22.2578 H   0  0  0  0  0  0
  -24.6565  -15.8383   20.5186 H   0  0  0  0  0  0
  -26.2765  -15.6325   20.0742 H   0  0  0  0  0  0
  -26.7198  -32.5482   23.1136 H   0  0  0  0  0  0
  -25.0151  -33.9735   25.0508 H   0  0  0  0  0  0
  -22.7190  -31.2987   21.3968 H   0  0  0  0  0  0
  -23.3749  -35.9599   23.3286 H   0  0  0  0  0  0
  -24.3569  -36.8895   22.2051 H   0  0  0  0  0  0
  -23.7185  -37.6471   23.6647 H   0  0  0  0  0  0
  -26.0845  -31.5502   20.5962 H   0  0  0  0  0  0
  -26.8517  -30.8506   21.9913 H   0  0  0  0  0  0
  -28.1318  -28.9991   21.1566 H   0  0  0  0  0  0
  -26.0004  -25.8985   19.0474 H   0  0  0  0  0  0
  -23.9697  -27.2828   19.0455 H   0  0  0  0  0  0
  -23.7846  -30.5894   19.4044 H   0  0  0  0  0  0
  -22.7674  -29.2459   19.8530 H   0  0  0  0  0  0
  -25.1276  -36.1961   25.0831 H   0  0  0  0  0  0
  -20.9992  -28.3224   24.1410 H   0  0  0  0  0  0
  -20.5692  -26.2307   23.3645 H   0  0  0  0  0  0
  -21.6684  -26.7475   22.1274 H   0  0  0  0  0  0
  -19.6839  -27.3103   20.6705 H   0  0  0  0  0  0
  -19.6968  -25.6251   21.1243 H   0  0  0  0  0  0
  -17.4288  -26.6736   21.3918 H   0  0  0  0  0  0
  -18.0375  -26.0064   22.8960 H   0  0  0  0  0  0
  -19.7927  -30.7330   24.2220 H   0  0  0  0  0  0
  -17.5029  -31.6274   24.5173 H   0  0  0  0  0  0
  -15.5354  -30.2950   23.7743 H   0  0  0  0  0  0
  -15.8727  -28.0828   22.6985 H   0  0  0  0  0  0
  -24.5919  -30.7078   25.7767 H   0  0  0  0  0  0
  -24.8897  -32.2889   26.4906 H   0  0  0  0  0  0
  -25.8040  -30.8900   27.0239 H   0  0  0  0  0  0
  -26.2962  -29.6788   24.1212 H   0  0  0  0  0  0
  -27.4047  -29.7326   25.4720 H   0  0  0  0  0  0
  -27.8821  -30.4346   23.9439 H   0  0  0  0  0  0
  -27.2783  -33.3634   26.2108 H   0  0  0  0  0  0
  -28.3912  -32.6853   25.0313 H   0  0  0  0  0  0
  -28.0776  -31.8408   26.5382 H   0  0  0  0  0  0
  -28.2600  -38.0106   24.7549 H   0  0  0  0  0  0
  -28.1079  -36.2642   24.6260 H   0  0  0  0  0  0
  -27.2294  -37.1430   25.8860 H   0  0  0  0  0  0
  -20.9376  -29.8931   21.7041 H   0  0  0  0  0  0
  -26.0160  -38.2861   24.1463 H   0  0  0  0  0  0
  -29.8973  -20.2784   21.8286 H   0  0  0  0  0  0
  -30.2754  -17.9641   22.4215 H   0  0  0  0  0  0
  -28.8306  -18.9966   17.8394 H   0  0  0  0  0  0
  -28.1379  -22.9632   16.4571 H   0  0  0  0  0  0
  -26.8948  -22.7241   17.6724 H   0  0  0  0  0  0
  -29.5990  -21.3743   17.4898 H   0  0  0  0  0  0
  -27.9651  -20.7255   17.5974 H   0  0  0  0  0  0
  -27.5805  -22.9473   22.1273 H   0  0  0  0  0  0
  -29.2610  -22.4731   22.3255 H   0  0  0  0  0  0
  -27.9825  -21.2828   21.9616 H   0  0  0  0  0  0
  -28.8628  -25.0554   21.5090 H   0  0  0  0  0  0
  -27.1893  -25.0023   21.0852 H   0  0  0  0  0  0
  -28.9877  -15.3844   21.3319 H   0  0  0  0  0  0
  -29.1587  -16.8634   17.3562 H   0  0  0  0  0  0
  1 25  1  0  0  0
  1 30  2  0  0  0
  1 85  1  0  0  0
  2  3  1  0  0  0
  2 25  1  0  0  0
  2 88  1  0  0  0
  2 89  1  0  0  0
  3  4  1  0  0  0
  3 90  1  0  0  0
  3 91  1  0  0  0
  4  5  1  0  0  0
  4 92  1  0  0  0
  4 93  1  0  0  0
  5  6  1  0  0  0
  5 26  1  0  0  0
  5 94  1  0  0  0
  6 25  1  0  0  0
  6 95  1  0  0  0
  6 96  1  0  0  0
  7  8  2  0  0  0
  7 26  1  0  0  0
  7 29  1  0  0  0
  8  9  1  0  0  0
  8 22  1  0  0  0
  9 10  1  0  0  0
  9 27  2  0  0  0
 10 11  2  0  0  0
 10 15  1  0  0  0
 11 12  1  0  0  0
 11 97  1  0  0  0
 12 13  2  0  0  0
 12 98  1  0  0  0
 13 14  1  0  0  0
 13 31  1  0  0  0
 14 15  2  0  0  0
 14 99  1  0  0  0
 15100  1  0  0  0
 16 17  2  0  0  0
 16 21  1  0  0  0
 16 31  1  0  0  0
 17 18  1  0  0  0
 17101  1  0  0  0
 18 19  2  0  0  0
 18102  1  0  0  0
 19 20  1  0  0  0
 19 24  1  0  0  0
 20 21  2  0  0  0
 20103  1  0  0  0
 21 23  1  0  0  0
 22 28  1  0  0  0
 22 32  2  0  0  0
 26 27  1  0  0  0
 28104  1  0  0  0
 28105  1  0  0  0
 29106  1  0  0  0
 29107  1  0  0  0
 33 34  1  0  0  0
 33 66  1  0  0  0
 33 70  2  0  0  0
 34 36  1  0  0  0
 34 59  1  0  0  0
 34108  1  0  0  0
 35 44  2  0  0  0
 35 45  1  0  0  0
 35 68  1  0  0  0
 36 56  1  0  0  0
 36109  1  0  0  0
 37 39  1  0  0  0
 37 47  1  0  0  0
 37 66  1  0  0  0
 37110  1  0  0  0
 38 43  2  0  0  0
 38 46  1  0  0  0
 38 47  1  0  0  0
 39 64  1  0  0  0
 39 67  2  0  0  0
 40 52  1  0  0  0
 40 53  2  0  0  0
 40 58  1  0  0  0
 41111  1  0  0  0
 41112  1  0  0  0
 41113  1  0  0  0
 41 48  1  0  0  0
 42 43  1  0  0  0
 42 66  1  0  0  0
 42114  1  0  0  0
 42115  1  0  0  0
 43 44  1  0  0  0
 44116  1  0  0  0
 45 46  2  0  0  0
 45117  1  0  0  0
 46118  1  0  0  0
 47119  1  0  0  0
 47120  1  0  0  0
 48 56  1  0  0  0
 48 65  1  0  0  0
 48121  1  0  0  0
 49 50  1  0  0  0
 49 53  1  0  0  0
 49 64  1  0  0  0
 49122  1  0  0  0
 50 51  1  0  0  0
 50123  1  0  0  0
 50124  1  0  0  0
 51 52  1  0  0  0
 51125  1  0  0  0
 51126  1  0  0  0
 52127  1  0  0  0
 52128  1  0  0  0
 53 54  1  0  0  0
 54 55  2  0  0  0
 54129  1  0  0  0
 55 57  1  0  0  0
 55130  1  0  0  0
 56 69  2  0  0  0
 57 58  2  0  0  0
 57131  1  0  0  0
 58132  1  0  0  0
 59 60  1  0  0  0
 59 61  1  0  0  0
 59 62  1  0  0  0
 60133  1  0  0  0
 60134  1  0  0  0
 60135  1  0  0  0
 61136  1  0  0  0
 61137  1  0  0  0
 61138  1  0  0  0
 62139  1  0  0  0
 62140  1  0  0  0
 62141  1  0  0  0
 63 65  1  0  0  0
 63142  1  0  0  0
 63143  1  0  0  0
 63144  1  0  0  0
 64145  1  0  0  0
 65146  1  0  0  0
 68 83  1  0  0  0
 71 72  2  0  0  0
 71 74  1  0  0  0
 71147  1  0  0  0
 72 75  1  0  0  0
 72148  1  0  0  0
 73 74  2  0  0  0
 73 76  1  0  0  0
 73149  1  0  0  0
 74 84  1  0  0  0
 75 76  2  0  0  0
 75 85  1  0  0  0
 76 87  1  0  0  0
 77 78  2  0  0  0
 77 79  1  0  0  0
 77 83  1  0  0  0
 78 82  1  0  0  0
 78 84  1  0  0  0
 79 80  1  0  0  0
 79 86  2  0  0  0
 80 81  1  0  0  0
 80150  1  0  0  0
 80151  1  0  0  0
 81 84  1  0  0  0
 81152  1  0  0  0
 81153  1  0  0  0
 82154  1  0  0  0
 82155  1  0  0  0
 82156  1  0  0  0
 83157  1  0  0  0
 83158  1  0  0  0
 85159  1  0  0  0
 87160  1  0  0  0
M  ISO  4   1 100  68 101  83 101  85 100
M  END
> <chiral flag>
0

> <version>
0

> <s_m_source_file>
/data/baiqing/PycharmProjects/Reinvent-master-3.2/result/LINK_invent/BTK/process_docking_weight1_custom_product_contain_oxygen_bond_distance_aromatic_linkinvent_7_9_3/rearranged_h_0109.sdf

> <i_m_source_file_index>
90

> <r_mmod_Potential_Energy-OPLS-2005>
61.9345626831055

> <r_mmod_Stretch_Energy-OPLS-2005>
103.049690246582

> <r_mmod_Bend_Energy-OPLS-2005>
154.850509643555

> <r_mmod_Torsional_Energy-OPLS-2005>
243.46907043457

> <r_mmod_Improper_Torsional_Energy-OPLS-2005>
5.38982105255127

> <r_mmod_Van_der_Waal_Energy-OPLS-2005>
167.799057006836

> <r_mmod_Electrostatic_Energy-OPLS-2005>
-416.062042236328

> <r_mmod_Solvation_Energy-OPLS-2005>
-246.658737182617

> <b_mmod_Minimization_Converged-OPLS-2005>
0

> <r_mmod_RMS_Derivative-OPLS-2005>
4.47321653366089

$$$$
90
                    3D
 Structure written by MMmdl.
162171  0  0  1  0            999 V2000
  -30.7666  -14.4645   20.5711 C   0  0  0  0  0  0
  -30.4071  -12.3151   19.4358 C   0  0  0  0  0  0
  -29.4943  -12.4916   18.2090 C   0  0  0  0  0  0
  -28.0182  -12.3608   18.6244 C   0  0  0  0  0  0
  -27.6540  -13.2251   19.8629 C   0  0  2  0  0  0
  -28.6910  -13.0734   20.9986 C   0  0  0  0  0  0
  -25.2554  -13.8197   20.5667 C   0  0  0  0  0  0
  -24.1812  -13.0444   20.9186 C   0  0  0  0  0  0
  -24.6407  -11.6929   20.8731 C   0  0  0  0  0  0
  -23.9071  -10.4297   21.0389 C   0  0  0  0  0  0
  -24.3606   -9.4220   21.9175 C   0  0  0  0  0  0
  -23.6284   -8.2250   22.0735 C   0  0  0  0  0  0
  -22.4273   -8.0275   21.3523 C   0  0  0  0  0  0
  -21.9909   -9.0256   20.4626 C   0  0  0  0  0  0
  -22.7244  -10.2142   20.3042 C   0  0  0  0  0  0
  -21.6869   -6.0737   22.5269 C   0  0  0  0  0  0
  -21.4026   -6.5633   23.8202 C   0  0  0  0  0  0
  -21.3654   -5.6778   24.9158 C   0  0  0  0  0  0
  -21.6047   -4.3044   24.7213 C   0  0  0  0  0  0
  -21.8824   -3.8142   23.4328 C   0  0  0  0  0  0
  -21.9196   -4.6957   22.3390 C   0  0  0  0  0  0
  -22.7849  -13.5221   21.1858 C   0  0  0  0  0  0
  -22.1664   -4.2136   21.0969 F   0  0  0  0  0  0
  -21.5617   -3.4533   25.7725 F   0  0  0  0  0  0
  -30.0259  -13.3300   20.4364 N   0  0  0  0  0  0
  -26.2980  -12.9389   20.3294 N   0  0  0  0  0  0
  -25.9337  -11.6537   20.5740 N   0  0  0  0  0  0
  -22.0472  -12.8234   22.0419 N   0  0  0  0  0  0
  -25.4278  -15.1910   20.4095 N   0  0  0  0  0  0
  -31.9073  -14.5538   20.1106 O   0  0  0  0  0  0
  -21.6641   -6.8879   21.4224 O   0  0  0  0  0  0
  -22.3548  -14.5530   20.6714 O   0  0  0  0  0  0
  -24.6189  -31.8717   23.2179 C   0  0  0  0  0  0
  -25.9077  -32.4847   23.8439 C   0  0  1  0  0  0
  -27.1905  -27.3855   20.0892 C   0  0  0  0  0  0
  -25.5945  -33.8632   24.2354 N   0  0  0  0  0  0
  -23.4042  -30.5097   21.5616 C   0  0  2  0  0  0
  -24.8428  -29.0032   20.1109 C   0  0  0  0  0  0
  -22.7429  -29.4678   22.4964 C   0  0  0  0  0  0
  -18.0267  -28.1409   22.8420 C   0  0  0  0  0  0
  -24.1482  -36.7306   23.2634 C   0  0  0  0  0  0
  -25.9503  -30.8303   21.3821 C   0  0  0  0  0  0
  -26.0188  -29.4677   20.7156 C   0  0  0  0  0  0
  -27.1977  -28.6712   20.7009 C   0  0  0  0  0  0
  -25.9799  -26.9821   19.4586 C   0  0  0  0  0  0
  -24.8222  -27.7624   19.4777 C   0  0  0  0  0  0
  -23.6143  -29.8770   20.1659 C   0  0  0  0  0  0
  -25.4118  -36.3122   24.0314 C   0  0  1  0  0  0
  -20.5857  -28.3647   23.1248 C   0  0  2  0  0  0
  -20.6738  -26.9402   22.5358 C   0  0  0  0  0  0
  -19.5760  -26.6370   21.5131 C   0  0  0  0  0  0
  -18.1929  -26.7991   22.1474 C   0  0  0  0  0  0
  -19.1519  -28.8845   23.2867 C   0  0  0  0  0  0
  -18.9428  -30.1419   23.8925 C   0  0  0  0  0  0
  -17.6421  -30.6549   24.0577 C   0  0  0  0  0  0
  -25.9051  -34.9477   23.5120 C   0  0  0  0  0  0
  -16.5304  -29.9064   23.6327 C   0  0  0  0  0  0
  -16.7253  -28.6496   23.0306 C   0  0  0  0  0  0
  -26.4489  -31.6643   25.0765 C   0  0  0  0  0  0
  -25.3725  -31.3773   26.1492 C   0  0  0  0  0  0
  -27.0343  -30.3058   24.6220 C   0  0  0  0  0  0
  -27.6045  -32.4365   25.7568 C   0  0  0  0  0  0
  -27.5574  -37.1823   24.8466 C   0  0  0  0  0  0
  -21.4159  -29.2992   22.3655 N   0  0  0  0  0  0
  -26.4294  -37.3810   23.9409 N   0  0  0  0  0  0
  -24.6770  -31.0830   22.1105 N   0  0  0  0  0  0
  -23.4204  -28.8231   23.3018 O   0  0  0  0  0  0
  -28.2965  -26.5267   20.1355 O   0  0  0  0  0  0
  -26.5556  -34.8915   22.4645 O   0  0  0  0  0  0
  -23.5370  -32.1443   23.7570 O   0  0  0  0  0  0
  -29.7051  -19.3363   23.5814 C   0  0  0  0  0  0
  -30.0974  -18.1426   22.9502 C   0  0  0  0  0  0
  -29.4034  -20.4927   22.8288 C   0  0  0  0  0  0
  -29.9114  -19.2785   20.8136 C   0  0  0  0  0  0
  -30.2163  -18.1109   21.5547 C   0  0  0  0  0  0
  -29.4527  -20.4921   21.4100 C   0  0  0  0  0  0
  -28.9164  -23.9619   19.9810 C   0  0  0  0  0  0
  -28.7614  -22.9744   20.9328 C   0  0  0  0  0  0
  -29.6357  -23.6317   18.7104 C   0  0  0  0  0  0
  -29.7700  -22.1536   18.3317 C   0  0  0  0  0  0
  -28.8050  -21.3399   19.1920 C   0  0  0  0  0  0
  -27.9638  -23.1867   22.2246 C   0  0  0  0  0  0
  -30.8070  -16.8935   20.8464 C   0  0  0  0  0  0
  -27.9492  -25.1498   19.8087 C   0  0  0  0  0  0
  -29.0792  -21.6270   20.6072 N   0  0  0  0  0  0
  -30.1704  -15.5751   21.0498 N   0  0  0  0  0  0
  -30.1194  -24.4842   17.9581 O   0  0  0  0  0  0
  -31.4526  -12.3896   19.1317 H   0  0  0  0  0  0
  -30.2923  -11.3135   19.8491 H   0  0  0  0  0  0
  -29.7260  -11.7383   17.4555 H   0  0  0  0  0  0
  -29.6767  -13.4604   17.7408 H   0  0  0  0  0  0
  -27.8397  -11.3085   18.8460 H   0  0  0  0  0  0
  -27.3678  -12.6049   17.7824 H   0  0  0  0  0  0
  -27.6793  -14.2637   19.5318 H   0  0  0  0  0  0
  -28.6547  -12.0723   21.4269 H   0  0  0  0  0  0
  -28.4573  -13.7547   21.8200 H   0  0  0  0  0  0
  -25.2741   -9.5692   22.4757 H   0  0  0  0  0  0
  -23.9986   -7.4635   22.7450 H   0  0  0  0  0  0
  -21.0843   -8.8780   19.8928 H   0  0  0  0  0  0
  -22.3694  -10.9672   19.6138 H   0  0  0  0  0  0
  -21.2041   -7.6146   23.9706 H   0  0  0  0  0  0
  -21.1462   -6.0506   25.9059 H   0  0  0  0  0  0
  -22.0614   -2.7599   23.2839 H   0  0  0  0  0  0
  -22.4067  -11.9929   22.4873 H   0  0  0  0  0  0
  -21.1045  -13.1205   22.2492 H   0  0  0  0  0  0
  -24.6673  -15.8531   20.5215 H   0  0  0  0  0  0
  -26.2945  -15.6282   20.1195 H   0  0  0  0  0  0
  -26.7133  -32.5546   23.1205 H   0  0  0  0  0  0
  -25.0201  -33.9848   25.0565 H   0  0  0  0  0  0
  -22.6850  -31.3223   21.4421 H   0  0  0  0  0  0
  -23.3752  -35.9630   23.3319 H   0  0  0  0  0  0
  -24.3583  -36.8894   22.2046 H   0  0  0  0  0  0
  -23.7226  -37.6506   23.6638 H   0  0  0  0  0  0
  -26.0785  -31.6103   20.6308 H   0  0  0  0  0  0
  -26.8339  -30.8693   22.0074 H   0  0  0  0  0  0
  -28.1011  -29.0305   21.1742 H   0  0  0  0  0  0
  -25.8511  -26.0501   18.9334 H   0  0  0  0  0  0
  -23.9217  -27.4066   18.9975 H   0  0  0  0  0  0
  -23.7336  -30.6718   19.4277 H   0  0  0  0  0  0
  -22.7400  -29.3060   19.8472 H   0  0  0  0  0  0
  -25.1305  -36.1983   25.0798 H   0  0  0  0  0  0
  -21.0006  -28.3081   24.1340 H   0  0  0  0  0  0
  -20.5619  -26.2267   23.3519 H   0  0  0  0  0  0
  -21.6595  -26.7437   22.1135 H   0  0  0  0  0  0
  -19.6803  -25.6281   21.1138 H   0  0  0  0  0  0
  -19.6755  -27.3178   20.6651 H   0  0  0  0  0  0
  -17.4289  -26.6786   21.3762 H   0  0  0  0  0  0
  -18.0273  -26.0172   22.8865 H   0  0  0  0  0  0
  -19.7874  -30.7233   24.2317 H   0  0  0  0  0  0
  -17.4937  -31.6216   24.5198 H   0  0  0  0  0  0
  -15.5288  -30.2960   23.7637 H   0  0  0  0  0  0
  -15.8677  -28.0856   22.6894 H   0  0  0  0  0  0
  -24.5876  -30.7160   25.7806 H   0  0  0  0  0  0
  -24.8968  -32.2962   26.4918 H   0  0  0  0  0  0
  -25.8051  -30.8933   27.0255 H   0  0  0  0  0  0
  -26.2918  -29.6809   24.1234 H   0  0  0  0  0  0
  -27.4024  -29.7317   25.4741 H   0  0  0  0  0  0
  -27.8800  -30.4345   23.9455 H   0  0  0  0  0  0
  -27.2618  -33.3624   26.2193 H   0  0  0  0  0  0
  -28.3871  -32.6974   25.0432 H   0  0  0  0  0  0
  -28.0688  -31.8452   26.5484 H   0  0  0  0  0  0
  -28.2606  -38.0105   24.7489 H   0  0  0  0  0  0
  -28.1059  -36.2633   24.6336 H   0  0  0  0  0  0
  -27.2274  -37.1494   25.8861 H   0  0  0  0  0  0
  -20.9341  -29.8611   21.6776 H   0  0  0  0  0  0
  -26.0176  -38.2868   24.1454 H   0  0  0  0  0  0
  -29.6500  -19.3760   24.6592 H   0  0  0  0  0  0
  -30.3659  -17.2803   23.5470 H   0  0  0  0  0  0
  -29.1366  -21.3572   23.4056 H   0  0  0  0  0  0
  -30.0934  -19.2076   19.7548 H   0  0  0  0  0  0
  -30.8011  -21.8388   18.4940 H   0  0  0  0  0  0
  -29.5371  -22.0099   17.2754 H   0  0  0  0  0  0
  -28.7643  -20.3007   18.8839 H   0  0  0  0  0  0
  -27.7915  -21.6868   18.9803 H   0  0  0  0  0  0
  -27.2391  -23.9945   22.1915 H   0  0  0  0  0  0
  -28.6443  -23.4425   23.0381 H   0  0  0  0  0  0
  -27.3941  -22.3009   22.5074 H   0  0  0  0  0  0
  -30.8215  -17.0871   19.7706 H   0  0  0  0  0  0
  -31.8567  -16.8505   21.1521 H   0  0  0  0  0  0
  -27.0422  -24.8682   20.3320 H   0  0  0  0  0  0
  -27.6760  -25.1285   18.7529 H   0  0  0  0  0  0
  -29.2056  -15.5336   21.3457 H   0  0  0  0  0  0
  1 25  1  0  0  0
  1 30  2  0  0  0
  1 86  1  0  0  0
  2  3  1  0  0  0
  2 25  1  0  0  0
  2 88  1  0  0  0
  2 89  1  0  0  0
  3  4  1  0  0  0
  3 90  1  0  0  0
  3 91  1  0  0  0
  4  5  1  0  0  0
  4 92  1  0  0  0
  4 93  1  0  0  0
  5  6  1  0  0  0
  5 26  1  0  0  0
  5 94  1  0  0  0
  6 25  1  0  0  0
  6 95  1  0  0  0
  6 96  1  0  0  0
  7  8  2  0  0  0
  7 26  1  0  0  0
  7 29  1  0  0  0
  8  9  1  0  0  0
  8 22  1  0  0  0
  9 10  1  0  0  0
  9 27  2  0  0  0
 10 11  2  0  0  0
 10 15  1  0  0  0
 11 12  1  0  0  0
 11 97  1  0  0  0
 12 13  2  0  0  0
 12 98  1  0  0  0
 13 14  1  0  0  0
 13 31  1  0  0  0
 14 15  2  0  0  0
 14 99  1  0  0  0
 15100  1  0  0  0
 16 17  2  0  0  0
 16 21  1  0  0  0
 16 31  1  0  0  0
 17 18  1  0  0  0
 17101  1  0  0  0
 18 19  2  0  0  0
 18102  1  0  0  0
 19 20  1  0  0  0
 19 24  1  0  0  0
 20 21  2  0  0  0
 20103  1  0  0  0
 21 23  1  0  0  0
 22 28  1  0  0  0
 22 32  2  0  0  0
 26 27  1  0  0  0
 28104  1  0  0  0
 28105  1  0  0  0
 29106  1  0  0  0
 29107  1  0  0  0
 33 34  1  0  0  0
 33 66  1  0  0  0
 33 70  2  0  0  0
 34 36  1  0  0  0
 34 59  1  0  0  0
 34108  1  0  0  0
 35 44  2  0  0  0
 35 45  1  0  0  0
 35 68  1  0  0  0
 36 56  1  0  0  0
 36109  1  0  0  0
 37 39  1  0  0  0
 37 47  1  0  0  0
 37 66  1  0  0  0
 37110  1  0  0  0
 38 43  2  0  0  0
 38 46  1  0  0  0
 38 47  1  0  0  0
 39 64  1  0  0  0
 39 67  2  0  0  0
 40 52  1  0  0  0
 40 53  2  0  0  0
 40 58  1  0  0  0
 41111  1  0  0  0
 41112  1  0  0  0
 41113  1  0  0  0
 41 48  1  0  0  0
 42 43  1  0  0  0
 42 66  1  0  0  0
 42114  1  0  0  0
 42115  1  0  0  0
 43 44  1  0  0  0
 44116  1  0  0  0
 45 46  2  0  0  0
 45117  1  0  0  0
 46118  1  0  0  0
 47119  1  0  0  0
 47120  1  0  0  0
 48 56  1  0  0  0
 48 65  1  0  0  0
 48121  1  0  0  0
 49 50  1  0  0  0
 49 53  1  0  0  0
 49 64  1  0  0  0
 49122  1  0  0  0
 50 51  1  0  0  0
 50123  1  0  0  0
 50124  1  0  0  0
 51 52  1  0  0  0
 51125  1  0  0  0
 51126  1  0  0  0
 52127  1  0  0  0
 52128  1  0  0  0
 53 54  1  0  0  0
 54 55  2  0  0  0
 54129  1  0  0  0
 55 57  1  0  0  0
 55130  1  0  0  0
 56 69  2  0  0  0
 57 58  2  0  0  0
 57131  1  0  0  0
 58132  1  0  0  0
 59 60  1  0  0  0
 59 61  1  0  0  0
 59 62  1  0  0  0
 60133  1  0  0  0
 60134  1  0  0  0
 60135  1  0  0  0
 61136  1  0  0  0
 61137  1  0  0  0
 61138  1  0  0  0
 62139  1  0  0  0
 62140  1  0  0  0
 62141  1  0  0  0
 63 65  1  0  0  0
 63142  1  0  0  0
 63143  1  0  0  0
 63144  1  0  0  0
 64145  1  0  0  0
 65146  1  0  0  0
 68 84  1  0  0  0
 71 72  2  0  0  0
 71 73  1  0  0  0
 71147  1  0  0  0
 72 75  1  0  0  0
 72148  1  0  0  0
 73 76  2  0  0  0
 73149  1  0  0  0
 74 75  2  0  0  0
 74 76  1  0  0  0
 74150  1  0  0  0
 75 83  1  0  0  0
 76 85  1  0  0  0
 77 78  2  0  0  0
 77 79  1  0  0  0
 77 84  1  0  0  0
 78 82  1  0  0  0
 78 85  1  0  0  0
 79 80  1  0  0  0
 79 87  2  0  0  0
 80 81  1  0  0  0
 80151  1  0  0  0
 80152  1  0  0  0
 81 85  1  0  0  0
 81153  1  0  0  0
 81154  1  0  0  0
 82155  1  0  0  0
 82156  1  0  0  0
 82157  1  0  0  0
 83 86  1  0  0  0
 83158  1  0  0  0
 83159  1  0  0  0
 84160  1  0  0  0
 84161  1  0  0  0
 86162  1  0  0  0
M  ISO  4   1 100  68 101  84 101  86 100
M  END
> <chiral flag>
0

> <version>
0

> <s_m_source_file>
/data/baiqing/PycharmProjects/Reinvent-master-3.2/result/LINK_invent/BTK/process_docking_weight1_custom_product_contain_oxygen_bond_distance_aromatic_linkinvent_7_9_3/rearranged_h_0109.sdf

> <i_m_source_file_index>
91

> <r_mmod_Potential_Energy-OPLS-2005>
60.3836097717285

> <r_mmod_Stretch_Energy-OPLS-2005>
58.5104942321777

> <r_mmod_Bend_Energy-OPLS-2005>
150.812744140625

> <r_mmod_Torsional_Energy-OPLS-2005>
221.311950683594

> <r_mmod_Improper_Torsional_Energy-OPLS-2005>
7.32699680328369

> <r_mmod_Van_der_Waal_Energy-OPLS-2005>
223.893249511719

> <r_mmod_Electrostatic_Energy-OPLS-2005>
-405.735687255859

> <r_mmod_Solvation_Energy-OPLS-2005>
-224.784225463867

> <b_mmod_Minimization_Converged-OPLS-2005>
0

> <r_mmod_RMS_Derivative-OPLS-2005>
5.95475482940674

$$$$
91
                    3D
 Structure written by MMmdl.
162171  0  0  1  0            999 V2000
  -30.5482  -14.9465   20.3491 C   0  0  0  0  0  0
  -30.4521  -12.5670   19.4861 C   0  0  0  0  0  0
  -29.5259  -12.4278   18.2551 C   0  0  0  0  0  0
  -28.0413  -12.3017   18.6657 C   0  0  0  0  0  0
  -27.6252  -13.2352   19.8369 C   0  0  2  0  0  0
  -28.6862  -13.2720   20.9534 C   0  0  0  0  0  0
  -25.2459  -13.8176   20.5729 C   0  0  0  0  0  0
  -24.1763  -13.0425   20.9233 C   0  0  0  0  0  0
  -24.6366  -11.6910   20.8790 C   0  0  0  0  0  0
  -23.9051  -10.4291   21.0430 C   0  0  0  0  0  0
  -24.3609   -9.4207   21.9197 C   0  0  0  0  0  0
  -23.6293   -8.2239   22.0751 C   0  0  0  0  0  0
  -22.4281   -8.0273   21.3536 C   0  0  0  0  0  0
  -21.9910   -9.0248   20.4639 C   0  0  0  0  0  0
  -22.7232  -10.2133   20.3063 C   0  0  0  0  0  0
  -21.6851   -6.0734   22.5276 C   0  0  0  0  0  0
  -21.4020   -6.5644   23.8210 C   0  0  0  0  0  0
  -21.3663   -5.6793   24.9169 C   0  0  0  0  0  0
  -21.6041   -4.3055   24.7217 C   0  0  0  0  0  0
  -21.8827   -3.8147   23.4339 C   0  0  0  0  0  0
  -21.9192   -4.6962   22.3399 C   0  0  0  0  0  0
  -22.7789  -13.5213   21.1876 C   0  0  0  0  0  0
  -22.1662   -4.2157   21.0973 F   0  0  0  0  0  0
  -21.5620   -3.4533   25.7728 F   0  0  0  0  0  0
  -29.9448  -13.6888   20.3190 N   0  0  0  0  0  0
  -26.2882  -12.9381   20.3339 N   0  0  0  0  0  0
  -25.9305  -11.6530   20.5838 N   0  0  0  0  0  0
  -22.0439  -12.8209   22.0437 N   0  0  0  0  0  0
  -25.4122  -15.1896   20.4107 N   0  0  0  0  0  0
  -31.7816  -14.9748   20.2683 O   0  0  0  0  0  0
  -21.6642   -6.8871   21.4235 O   0  0  0  0  0  0
  -22.3475  -14.5510   20.6705 O   0  0  0  0  0  0
  -24.6415  -31.8463   23.1900 C   0  0  0  0  0  0
  -25.9196  -32.4708   23.8289 C   0  0  1  0  0  0
  -27.2218  -27.1545   20.1542 C   0  0  0  0  0  0
  -25.5952  -33.8513   24.2204 N   0  0  0  0  0  0
  -23.4445  -30.4657   21.5355 C   0  0  2  0  0  0
  -24.8953  -28.8939   20.1139 C   0  0  0  0  0  0
  -22.7557  -29.4561   22.4873 C   0  0  0  0  0  0
  -18.0305  -28.1389   22.8480 C   0  0  0  0  0  0
  -24.1491  -36.7256   23.2643 C   0  0  0  0  0  0
  -25.9995  -30.7264   21.3867 C   0  0  0  0  0  0
  -26.0726  -29.3389   20.7284 C   0  0  0  0  0  0
  -27.2378  -28.4866   20.7280 C   0  0  0  0  0  0
  -26.0173  -26.8061   19.5032 C   0  0  0  0  0  0
  -24.8802  -27.6405   19.4851 C   0  0  0  0  0  0
  -23.6707  -29.7933   20.1556 C   0  0  0  0  0  0
  -25.4121  -36.3039   24.0317 C   0  0  1  0  0  0
  -20.5916  -28.3717   23.1240 C   0  0  2  0  0  0
  -20.6788  -26.9420   22.5405 C   0  0  0  0  0  0
  -19.5763  -26.6375   21.5212 C   0  0  0  0  0  0
  -18.1945  -26.7928   22.1623 C   0  0  0  0  0  0
  -19.1562  -28.8869   23.2855 C   0  0  0  0  0  0
  -18.9477  -30.1465   23.8878 C   0  0  0  0  0  0
  -17.6474  -30.6589   24.0556 C   0  0  0  0  0  0
  -25.9068  -34.9414   23.5070 C   0  0  0  0  0  0
  -16.5365  -29.9080   23.6338 C   0  0  0  0  0  0
  -16.7289  -28.6498   23.0361 C   0  0  0  0  0  0
  -26.4519  -31.6575   25.0727 C   0  0  0  0  0  0
  -25.3699  -31.3769   26.1418 C   0  0  0  0  0  0
  -27.0384  -30.2970   24.6312 C   0  0  0  0  0  0
  -27.6048  -32.4344   25.7509 C   0  0  0  0  0  0
  -27.5575  -37.1785   24.8463 C   0  0  0  0  0  0
  -21.4251  -29.3047   22.3613 N   0  0  0  0  0  0
  -26.4285  -37.3752   23.9408 N   0  0  0  0  0  0
  -24.7149  -31.0337   22.0926 N   0  0  0  0  0  0
  -23.4207  -28.8108   23.3019 O   0  0  0  0  0  0
  -28.2904  -26.1918   20.2024 O   0  0  0  0  0  0
  -26.5655  -34.8908   22.4647 O   0  0  0  0  0  0
  -23.5538  -32.1334   23.7126 O   0  0  0  0  0  0
  -28.5259  -19.5001   21.4497 C   0  0  0  0  0  0
  -30.1089  -20.0514   19.8017 C   0  0  0  0  0  0
  -28.7943  -18.0756   21.2984 C   0  0  0  0  0  0
  -29.1593  -20.5815   20.7330 C   0  0  0  0  0  0
  -29.7418  -17.5593   20.3495 C   0  0  0  0  0  0
  -30.3847  -18.6337   19.6214 C   0  0  0  0  0  0
  -29.1240  -22.3927   22.3738 C   0  0  0  0  0  0
  -26.8582  -17.3235   22.7309 C   0  0  0  0  0  0
  -28.0190  -17.1015   22.0911 C   0  0  0  0  0  0
  -29.9137  -23.6817   22.5439 C   0  0  0  0  0  0
  -30.3309  -23.9961   21.1150 C   0  0  0  0  0  0
  -29.1605  -23.4277   20.3143 C   0  0  2  0  0  0
  -29.5788  -16.0053   18.4547 C   0  0  0  0  0  0
  -28.0179  -24.6651   20.3056 C   0  0  0  0  0  0
  -28.9164  -22.0684   21.0734 N   0  0  0  0  0  0
  -29.8051  -16.0866   19.9105 N   0  0  0  0  0  0
  -28.7570  -21.7501   23.3621 O   0  0  0  0  0  0
  -31.2965  -18.3084   18.6735 F   0  0  0  0  0  0
  -31.4773  -12.7424   19.1556 H   0  0  0  0  0  0
  -30.4765  -11.6411   20.0631 H   0  0  0  0  0  0
  -29.8165  -11.5441   17.6853 H   0  0  0  0  0  0
  -29.6707  -13.2619   17.5715 H   0  0  0  0  0  0
  -27.8853  -11.2639   18.9617 H   0  0  0  0  0  0
  -27.3941  -12.4643   17.8036 H   0  0  0  0  0  0
  -27.5598  -14.2366   19.4231 H   0  0  0  0  0  0
  -28.7880  -12.2969   21.4326 H   0  0  0  0  0  0
  -28.3997  -13.9698   21.7381 H   0  0  0  0  0  0
  -25.2756   -9.5696   22.4766 H   0  0  0  0  0  0
  -24.0008   -7.4637   22.7475 H   0  0  0  0  0  0
  -21.0836   -8.8764   19.8941 H   0  0  0  0  0  0
  -22.3691  -10.9671   19.6168 H   0  0  0  0  0  0
  -21.2025   -7.6153   23.9720 H   0  0  0  0  0  0
  -21.1470   -6.0514   25.9069 H   0  0  0  0  0  0
  -22.0601   -2.7610   23.2830 H   0  0  0  0  0  0
  -22.4071  -11.9874   22.4831 H   0  0  0  0  0  0
  -21.1051  -13.1218   22.2633 H   0  0  0  0  0  0
  -24.6555  -15.8475   20.5572 H   0  0  0  0  0  0
  -26.2837  -15.6406   20.1629 H   0  0  0  0  0  0
  -26.7263  -32.5322   23.1021 H   0  0  0  0  0  0
  -25.0068  -33.9638   25.0332 H   0  0  0  0  0  0
  -22.7467  -31.2909   21.3804 H   0  0  0  0  0  0
  -23.3762  -35.9580   23.3294 H   0  0  0  0  0  0
  -24.3571  -36.8900   22.2059 H   0  0  0  0  0  0
  -23.7238  -37.6447   23.6683 H   0  0  0  0  0  0
  -26.1550  -31.4832   20.6165 H   0  0  0  0  0  0
  -26.8694  -30.7747   22.0304 H   0  0  0  0  0  0
  -28.1370  -28.8262   21.2225 H   0  0  0  0  0  0
  -25.9203  -25.8550   19.0044 H   0  0  0  0  0  0
  -23.9822  -27.2965   18.9910 H   0  0  0  0  0  0
  -23.8049  -30.5668   19.3985 H   0  0  0  0  0  0
  -22.7866  -29.2333   19.8456 H   0  0  0  0  0  0
  -25.1311  -36.1870   25.0810 H   0  0  0  0  0  0
  -21.0011  -28.3302   24.1361 H   0  0  0  0  0  0
  -20.5681  -26.2327   23.3623 H   0  0  0  0  0  0
  -21.6654  -26.7424   22.1203 H   0  0  0  0  0  0
  -19.6922  -25.6282   21.1256 H   0  0  0  0  0  0
  -19.6700  -27.3172   20.6731 H   0  0  0  0  0  0
  -17.4214  -26.6681   21.4027 H   0  0  0  0  0  0
  -18.0339  -26.0071   22.9020 H   0  0  0  0  0  0
  -19.7951  -30.7287   24.2242 H   0  0  0  0  0  0
  -17.5025  -31.6266   24.5159 H   0  0  0  0  0  0
  -15.5364  -30.2973   23.7667 H   0  0  0  0  0  0
  -15.8690  -28.0801   22.7096 H   0  0  0  0  0  0
  -24.5877  -30.7123   25.7732 H   0  0  0  0  0  0
  -24.8888  -32.2955   26.4786 H   0  0  0  0  0  0
  -25.7970  -30.8974   27.0233 H   0  0  0  0  0  0
  -26.3009  -29.6696   24.1295 H   0  0  0  0  0  0
  -27.3966  -29.7269   25.4894 H   0  0  0  0  0  0
  -27.8928  -30.4204   23.9653 H   0  0  0  0  0  0
  -27.2636  -33.3658   26.2039 H   0  0  0  0  0  0
  -28.3878  -32.6888   25.0355 H   0  0  0  0  0  0
  -28.0693  -31.8509   26.5468 H   0  0  0  0  0  0
  -28.2583  -38.0091   24.7513 H   0  0  0  0  0  0
  -28.1083  -36.2621   24.6284 H   0  0  0  0  0  0
  -27.2291  -37.1422   25.8865 H   0  0  0  0  0  0
  -20.9457  -29.8761   21.6795 H   0  0  0  0  0  0
  -26.0155  -38.2821   24.1415 H   0  0  0  0  0  0
  -27.7917  -19.7859   22.1872 H   0  0  0  0  0  0
  -30.6748  -20.7472   19.1995 H   0  0  0  0  0  0
  -26.3894  -16.5297   23.2953 H   0  0  0  0  0  0
  -26.3473  -18.2743   22.7082 H   0  0  0  0  0  0
  -28.4464  -16.1159   22.1827 H   0  0  0  0  0  0
  -30.7717  -23.5438   23.2022 H   0  0  0  0  0  0
  -29.2699  -24.4569   22.9613 H   0  0  0  0  0  0
  -31.2552  -23.4706   20.8650 H   0  0  0  0  0  0
  -30.5005  -25.0599   20.9466 H   0  0  0  0  0  0
  -29.4811  -23.2257   19.2920 H   0  0  0  0  0  0
  -30.5218  -15.9055   17.9121 H   0  0  0  0  0  0
  -29.0776  -16.8898   18.0609 H   0  0  0  0  0  0
  -28.9423  -15.1783   18.1660 H   0  0  0  0  0  0
  -27.4211  -24.5536   21.2118 H   0  0  0  0  0  0
  -27.3395  -24.3930   19.5003 H   0  0  0  0  0  0
  1 25  1  0  0  0
  1 30  2  0  0  0
  1 86  1  0  0  0
  2  3  1  0  0  0
  2 25  1  0  0  0
  2 89  1  0  0  0
  2 90  1  0  0  0
  3  4  1  0  0  0
  3 91  1  0  0  0
  3 92  1  0  0  0
  4  5  1  0  0  0
  4 93  1  0  0  0
  4 94  1  0  0  0
  5  6  1  0  0  0
  5 26  1  0  0  0
  5 95  1  0  0  0
  6 25  1  0  0  0
  6 96  1  0  0  0
  6 97  1  0  0  0
  7  8  2  0  0  0
  7 26  1  0  0  0
  7 29  1  0  0  0
  8  9  1  0  0  0
  8 22  1  0  0  0
  9 10  1  0  0  0
  9 27  2  0  0  0
 10 11  2  0  0  0
 10 15  1  0  0  0
 11 12  1  0  0  0
 11 98  1  0  0  0
 12 13  2  0  0  0
 12 99  1  0  0  0
 13 14  1  0  0  0
 13 31  1  0  0  0
 14 15  2  0  0  0
 14100  1  0  0  0
 15101  1  0  0  0
 16 17  2  0  0  0
 16 21  1  0  0  0
 16 31  1  0  0  0
 17 18  1  0  0  0
 17102  1  0  0  0
 18 19  2  0  0  0
 18103  1  0  0  0
 19 20  1  0  0  0
 19 24  1  0  0  0
 20 21  2  0  0  0
 20104  1  0  0  0
 21 23  1  0  0  0
 22 28  1  0  0  0
 22 32  2  0  0  0
 26 27  1  0  0  0
 28105  1  0  0  0
 28106  1  0  0  0
 29107  1  0  0  0
 29108  1  0  0  0
 33 34  1  0  0  0
 33 66  1  0  0  0
 33 70  2  0  0  0
 34 36  1  0  0  0
 34 59  1  0  0  0
 34109  1  0  0  0
 35 44  2  0  0  0
 35 45  1  0  0  0
 35 68  1  0  0  0
 36 56  1  0  0  0
 36110  1  0  0  0
 37 39  1  0  0  0
 37 47  1  0  0  0
 37 66  1  0  0  0
 37111  1  0  0  0
 38 43  2  0  0  0
 38 46  1  0  0  0
 38 47  1  0  0  0
 39 64  1  0  0  0
 39 67  2  0  0  0
 40 52  1  0  0  0
 40 53  2  0  0  0
 40 58  1  0  0  0
 41112  1  0  0  0
 41113  1  0  0  0
 41114  1  0  0  0
 41 48  1  0  0  0
 42 43  1  0  0  0
 42 66  1  0  0  0
 42115  1  0  0  0
 42116  1  0  0  0
 43 44  1  0  0  0
 44117  1  0  0  0
 45 46  2  0  0  0
 45118  1  0  0  0
 46119  1  0  0  0
 47120  1  0  0  0
 47121  1  0  0  0
 48 56  1  0  0  0
 48 65  1  0  0  0
 48122  1  0  0  0
 49 50  1  0  0  0
 49 53  1  0  0  0
 49 64  1  0  0  0
 49123  1  0  0  0
 50 51  1  0  0  0
 50124  1  0  0  0
 50125  1  0  0  0
 51 52  1  0  0  0
 51126  1  0  0  0
 51127  1  0  0  0
 52128  1  0  0  0
 52129  1  0  0  0
 53 54  1  0  0  0
 54 55  2  0  0  0
 54130  1  0  0  0
 55 57  1  0  0  0
 55131  1  0  0  0
 56 69  2  0  0  0
 57 58  2  0  0  0
 57132  1  0  0  0
 58133  1  0  0  0
 59 60  1  0  0  0
 59 61  1  0  0  0
 59 62  1  0  0  0
 60134  1  0  0  0
 60135  1  0  0  0
 60136  1  0  0  0
 61137  1  0  0  0
 61138  1  0  0  0
 61139  1  0  0  0
 62140  1  0  0  0
 62141  1  0  0  0
 62142  1  0  0  0
 63 65  1  0  0  0
 63143  1  0  0  0
 63144  1  0  0  0
 63145  1  0  0  0
 64146  1  0  0  0
 65147  1  0  0  0
 68 84  1  0  0  0
 71 73  2  0  0  0
 71 74  1  0  0  0
 71148  1  0  0  0
 72 74  2  0  0  0
 72 76  1  0  0  0
 72149  1  0  0  0
 73 75  1  0  0  0
 73 79  1  0  0  0
 74 85  1  0  0  0
 75 76  2  0  0  0
 75 86  1  0  0  0
 76 88  1  0  0  0
 77 80  1  0  0  0
 77 85  1  0  0  0
 77 87  2  0  0  0
 78 79  2  0  0  0
 78150  1  0  0  0
 78151  1  0  0  0
 79152  1  0  0  0
 80 81  1  0  0  0
 80153  1  0  0  0
 80154  1  0  0  0
 81 82  1  0  0  0
 81155  1  0  0  0
 81156  1  0  0  0
 82 84  1  0  0  0
 82 85  1  0  0  0
 82157  1  0  0  0
 83 86  1  0  0  0
 83158  1  0  0  0
 83159  1  0  0  0
 83160  1  0  0  0
 84161  1  0  0  0
 84162  1  0  0  0
M  ISO  4   1 100  68 101  84 101  86 100
M  END
> <chiral flag>
0

> <version>
0

> <s_m_source_file>
/data/baiqing/PycharmProjects/Reinvent-master-3.2/result/LINK_invent/BTK/process_docking_weight1_custom_product_contain_oxygen_bond_distance_aromatic_linkinvent_7_9_3/rearranged_h_0109.sdf

> <i_m_source_file_index>
92

> <r_mmod_Potential_Energy-OPLS-2005>
801.051208496094

> <r_mmod_Stretch_Energy-OPLS-2005>
239.937576293945

> <r_mmod_Bend_Energy-OPLS-2005>
300.160430908203

> <r_mmod_Torsional_Energy-OPLS-2005>
417.165954589844

> <r_mmod_Improper_Torsional_Energy-OPLS-2005>
26.362678527832

> <r_mmod_Van_der_Waal_Energy-OPLS-2005>
142.075805664062

> <r_mmod_Electrostatic_Energy-OPLS-2005>
-309.460723876953

> <r_mmod_Solvation_Energy-OPLS-2005>
-203.543411254883

> <b_mmod_Minimization_Converged-OPLS-2005>
0

> <r_mmod_RMS_Derivative-OPLS-2005>
1.29428470134735

$$$$
92
                    3D
 Structure written by MMmdl.
148156  0  0  1  0            999 V2000
  -30.4265  -15.2107   20.3767 C   0  0  0  0  0  0
  -30.4483  -12.7667   19.5206 C   0  0  0  0  0  0
  -29.5368  -12.5707   18.2822 C   0  0  0  0  0  0
  -28.0808  -12.3051   18.7065 C   0  0  0  0  0  0
  -27.6182  -13.2675   19.8290 C   0  0  2  0  0  0
  -28.6554  -13.3980   20.9647 C   0  0  0  0  0  0
  -25.2412  -13.8234   20.5735 C   0  0  0  0  0  0
  -24.1754  -13.0431   20.9242 C   0  0  0  0  0  0
  -24.6401  -11.6926   20.8754 C   0  0  0  0  0  0
  -23.9092  -10.4291   21.0404 C   0  0  0  0  0  0
  -24.3635   -9.4205   21.9183 C   0  0  0  0  0  0
  -23.6302   -8.2245   22.0754 C   0  0  0  0  0  0
  -22.4284   -8.0285   21.3545 C   0  0  0  0  0  0
  -21.9925   -9.0259   20.4646 C   0  0  0  0  0  0
  -22.7262  -10.2133   20.3054 C   0  0  0  0  0  0
  -21.6856   -6.0738   22.5279 C   0  0  0  0  0  0
  -21.4017   -6.5642   23.8212 C   0  0  0  0  0  0
  -21.3659   -5.6793   24.9173 C   0  0  0  0  0  0
  -21.6044   -4.3056   24.7224 C   0  0  0  0  0  0
  -21.8818   -3.8148   23.4345 C   0  0  0  0  0  0
  -21.9194   -4.6965   22.3401 C   0  0  0  0  0  0
  -22.7772  -13.5190   21.1894 C   0  0  0  0  0  0
  -22.1661   -4.2151   21.0978 F   0  0  0  0  0  0
  -21.5626   -3.4539   25.7736 F   0  0  0  0  0  0
  -29.8967  -13.8947   20.3495 N   0  0  0  0  0  0
  -26.2844  -12.9498   20.3229 N   0  0  0  0  0  0
  -25.9339  -11.6610   20.5726 N   0  0  0  0  0  0
  -22.0432  -12.8173   22.0451 N   0  0  0  0  0  0
  -25.4023  -15.1972   20.4184 N   0  0  0  0  0  0
  -31.6419  -15.2659   20.1403 O   0  0  0  0  0  0
  -21.6644   -6.8884   21.4243 O   0  0  0  0  0  0
  -22.3449  -14.5491   20.6736 O   0  0  0  0  0  0
  -24.6595  -31.8267   23.1726 C   0  0  0  0  0  0
  -25.9290  -32.4603   23.8182 C   0  0  1  0  0  0
  -27.2220  -26.9626   20.1806 C   0  0  0  0  0  0
  -25.5968  -33.8416   24.2090 N   0  0  0  0  0  0
  -23.4729  -30.4387   21.5212 C   0  0  2  0  0  0
  -24.9266  -28.8303   20.1125 C   0  0  0  0  0  0
  -22.7649  -29.4456   22.4792 C   0  0  0  0  0  0
  -18.0320  -28.1407   22.8468 C   0  0  0  0  0  0
  -24.1495  -36.7217   23.2649 C   0  0  0  0  0  0
  -26.0397  -30.6448   21.3971 C   0  0  0  0  0  0
  -26.1094  -29.2376   20.7419 C   0  0  0  0  0  0
  -27.2532  -28.3248   20.7503 C   0  0  0  0  0  0
  -26.0095  -26.6966   19.5065 C   0  0  0  0  0  0
  -24.8998  -27.5794   19.4750 C   0  0  0  0  0  0
  -23.7109  -29.7544   20.1470 C   0  0  0  0  0  0
  -25.4135  -36.2977   24.0301 C   0  0  1  0  0  0
  -20.5942  -28.3748   23.1196 C   0  0  2  0  0  0
  -20.6797  -26.9433   22.5403 C   0  0  0  0  0  0
  -19.5771  -26.6377   21.5214 C   0  0  0  0  0  0
  -18.1954  -26.7940   22.1623 C   0  0  0  0  0  0
  -19.1580  -28.8898   23.2820 C   0  0  0  0  0  0
  -18.9491  -30.1488   23.8855 C   0  0  0  0  0  0
  -17.6484  -30.6597   24.0556 C   0  0  0  0  0  0
  -25.9094  -34.9357   23.5017 C   0  0  0  0  0  0
  -16.5375  -29.9085   23.6341 C   0  0  0  0  0  0
  -16.7302  -28.6505   23.0361 C   0  0  0  0  0  0
  -26.4553  -31.6538   25.0698 C   0  0  0  0  0  0
  -25.3688  -31.3777   26.1359 C   0  0  0  0  0  0
  -27.0448  -30.2910   24.6409 C   0  0  0  0  0  0
  -27.6045  -32.4344   25.7502 C   0  0  0  0  0  0
  -27.5567  -37.1773   24.8471 C   0  0  0  0  0  0
  -21.4322  -29.3044   22.3545 N   0  0  0  0  0  0
  -26.4287  -37.3705   23.9397 N   0  0  0  0  0  0
  -24.7451  -30.9961   22.0843 N   0  0  0  0  0  0
  -23.4212  -28.8026   23.3022 O   0  0  0  0  0  0
  -28.2363  -25.8817   20.2543 O   0  0  0  0  0  0
  -26.5703  -34.8886   22.4612 O   0  0  0  0  0  0
  -23.5673  -32.1220   23.6840 O   0  0  0  0  0  0
  -28.1623  -20.2835   20.4567 C   0  0  0  0  0  0
  -30.5894  -19.0018   20.2438 C   0  0  0  0  0  0
  -29.2041  -21.2924   20.3142 C   0  0  0  0  0  0
  -30.4400  -20.4837   20.2081 C   0  0  0  0  0  0
  -29.5420  -18.0137   20.4019 C   0  0  0  0  0  0
  -28.3137  -18.8019   20.4972 C   0  0  0  0  0  0
  -29.1395  -23.0219   20.3849 C   0  0  0  0  0  0
  -27.9673  -24.2675   20.1271 C   0  0  0  0  0  0
  -31.6533  -21.1531   20.0469 N   0  0  0  0  0  0
  -29.5726  -16.4033   20.4824 N   0  0  0  0  0  0
  -30.2148  -23.5483   20.6940 O   0  0  0  0  0  0
  -27.1736  -18.0868   20.6480 F   0  0  0  0  0  0
  -31.4675  -12.9761   19.1929 H   0  0  0  0  0  0
  -30.5108  -11.8484   20.1069 H   0  0  0  0  0  0
  -29.9038  -11.7499   17.6646 H   0  0  0  0  0  0
  -29.5763  -13.4655   17.6591 H   0  0  0  0  0  0
  -28.0246  -11.2755   19.0620 H   0  0  0  0  0  0
  -27.4136  -12.3689   17.8462 H   0  0  0  0  0  0
  -27.5454  -14.2448   19.3507 H   0  0  0  0  0  0
  -28.8083  -12.4468   21.4766 H   0  0  0  0  0  0
  -28.3068  -14.1035   21.7205 H   0  0  0  0  0  0
  -25.2778   -9.5680   22.4763 H   0  0  0  0  0  0
  -24.0005   -7.4638   22.7478 H   0  0  0  0  0  0
  -21.0854   -8.8786   19.8953 H   0  0  0  0  0  0
  -22.3722  -10.9675   19.6167 H   0  0  0  0  0  0
  -21.2013   -7.6150   23.9716 H   0  0  0  0  0  0
  -21.1481   -6.0523   25.9075 H   0  0  0  0  0  0
  -22.0597   -2.7611   23.2845 H   0  0  0  0  0  0
  -22.4064  -11.9843   22.4842 H   0  0  0  0  0  0
  -21.1046  -13.1185   22.2659 H   0  0  0  0  0  0
  -24.6317  -15.8428   20.5507 H   0  0  0  0  0  0
  -26.2416  -15.6573   20.0928 H   0  0  0  0  0  0
  -26.7359  -32.5153   23.0900 H   0  0  0  0  0  0
  -25.0060  -33.9498   25.0203 H   0  0  0  0  0  0
  -22.7844  -31.2693   21.3520 H   0  0  0  0  0  0
  -23.3757  -35.9549   23.3305 H   0  0  0  0  0  0
  -24.3565  -36.8866   22.2064 H   0  0  0  0  0  0
  -23.7258  -37.6408   23.6707 H   0  0  0  0  0  0
  -26.2149  -31.3879   20.6180 H   0  0  0  0  0  0
  -26.9016  -30.7020   22.0500 H   0  0  0  0  0  0
  -28.1501  -28.6350   21.2679 H   0  0  0  0  0  0
  -25.8877  -25.7399   19.0200 H   0  0  0  0  0  0
  -24.0000  -27.2618   18.9661 H   0  0  0  0  0  0
  -23.8634  -30.5232   19.3886 H   0  0  0  0  0  0
  -22.8213  -29.2068   19.8307 H   0  0  0  0  0  0
  -25.1336  -36.1783   25.0794 H   0  0  0  0  0  0
  -21.0031  -28.3354   24.1319 H   0  0  0  0  0  0
  -20.5680  -26.2365   23.3640 H   0  0  0  0  0  0
  -21.6661  -26.7412   22.1209 H   0  0  0  0  0  0
  -19.6930  -25.6277   21.1272 H   0  0  0  0  0  0
  -19.6711  -27.3163   20.6725 H   0  0  0  0  0  0
  -17.4221  -26.6681   21.4029 H   0  0  0  0  0  0
  -18.0351  -26.0094   22.9031 H   0  0  0  0  0  0
  -19.7966  -30.7316   24.2206 H   0  0  0  0  0  0
  -17.5036  -31.6272   24.5166 H   0  0  0  0  0  0
  -15.5373  -30.2973   23.7689 H   0  0  0  0  0  0
  -15.8703  -28.0809   22.7101 H   0  0  0  0  0  0
  -24.5886  -30.7109   25.7670 H   0  0  0  0  0  0
  -24.8859  -32.2974   26.4672 H   0  0  0  0  0  0
  -25.7928  -30.9021   27.0212 H   0  0  0  0  0  0
  -26.3110  -29.6588   24.1400 H   0  0  0  0  0  0
  -27.3976  -29.7270   25.5054 H   0  0  0  0  0  0
  -27.9050  -30.4100   23.9818 H   0  0  0  0  0  0
  -27.2611  -33.3682   26.1967 H   0  0  0  0  0  0
  -28.3917  -32.6848   25.0376 H   0  0  0  0  0  0
  -28.0648  -31.8548   26.5514 H   0  0  0  0  0  0
  -28.2591  -38.0061   24.7478 H   0  0  0  0  0  0
  -28.1056  -36.2584   24.6353 H   0  0  0  0  0  0
  -27.2273  -37.1480   25.8872 H   0  0  0  0  0  0
  -20.9570  -29.8732   21.6677 H   0  0  0  0  0  0
  -26.0140  -38.2770   24.1379 H   0  0  0  0  0  0
  -27.1552  -20.6561   20.5691 H   0  0  0  0  0  0
  -31.5877  -18.5990   20.1487 H   0  0  0  0  0  0
  -27.1407  -24.0408   20.8001 H   0  0  0  0  0  0
  -27.5741  -24.0975   19.1251 H   0  0  0  0  0  0
  -32.5130  -20.6755   20.3006 H   0  0  0  0  0  0
  -31.6661  -22.1421   20.2929 H   0  0  0  0  0  0
  -28.6326  -16.0732   20.6402 H   0  0  0  0  0  0
  1 25  1  0  0  0
  1 30  2  0  0  0
  1 80  1  0  0  0
  2  3  1  0  0  0
  2 25  1  0  0  0
  2 83  1  0  0  0
  2 84  1  0  0  0
  3  4  1  0  0  0
  3 85  1  0  0  0
  3 86  1  0  0  0
  4  5  1  0  0  0
  4 87  1  0  0  0
  4 88  1  0  0  0
  5  6  1  0  0  0
  5 26  1  0  0  0
  5 89  1  0  0  0
  6 25  1  0  0  0
  6 90  1  0  0  0
  6 91  1  0  0  0
  7  8  2  0  0  0
  7 26  1  0  0  0
  7 29  1  0  0  0
  8  9  1  0  0  0
  8 22  1  0  0  0
  9 10  1  0  0  0
  9 27  2  0  0  0
 10 11  2  0  0  0
 10 15  1  0  0  0
 11 12  1  0  0  0
 11 92  1  0  0  0
 12 13  2  0  0  0
 12 93  1  0  0  0
 13 14  1  0  0  0
 13 31  1  0  0  0
 14 15  2  0  0  0
 14 94  1  0  0  0
 15 95  1  0  0  0
 16 17  2  0  0  0
 16 21  1  0  0  0
 16 31  1  0  0  0
 17 18  1  0  0  0
 17 96  1  0  0  0
 18 19  2  0  0  0
 18 97  1  0  0  0
 19 20  1  0  0  0
 19 24  1  0  0  0
 20 21  2  0  0  0
 20 98  1  0  0  0
 21 23  1  0  0  0
 22 28  1  0  0  0
 22 32  2  0  0  0
 26 27  1  0  0  0
 28 99  1  0  0  0
 28100  1  0  0  0
 29101  1  0  0  0
 29102  1  0  0  0
 33 34  1  0  0  0
 33 66  1  0  0  0
 33 70  2  0  0  0
 34 36  1  0  0  0
 34 59  1  0  0  0
 34103  1  0  0  0
 35 44  2  0  0  0
 35 45  1  0  0  0
 35 68  1  0  0  0
 36 56  1  0  0  0
 36104  1  0  0  0
 37 39  1  0  0  0
 37 47  1  0  0  0
 37 66  1  0  0  0
 37105  1  0  0  0
 38 43  2  0  0  0
 38 46  1  0  0  0
 38 47  1  0  0  0
 39 64  1  0  0  0
 39 67  2  0  0  0
 40 52  1  0  0  0
 40 53  2  0  0  0
 40 58  1  0  0  0
 41106  1  0  0  0
 41107  1  0  0  0
 41108  1  0  0  0
 41 48  1  0  0  0
 42 43  1  0  0  0
 42 66  1  0  0  0
 42109  1  0  0  0
 42110  1  0  0  0
 43 44  1  0  0  0
 44111  1  0  0  0
 45 46  2  0  0  0
 45112  1  0  0  0
 46113  1  0  0  0
 47114  1  0  0  0
 47115  1  0  0  0
 48 56  1  0  0  0
 48 65  1  0  0  0
 48116  1  0  0  0
 49 50  1  0  0  0
 49 53  1  0  0  0
 49 64  1  0  0  0
 49117  1  0  0  0
 50 51  1  0  0  0
 50118  1  0  0  0
 50119  1  0  0  0
 51 52  1  0  0  0
 51120  1  0  0  0
 51121  1  0  0  0
 52122  1  0  0  0
 52123  1  0  0  0
 53 54  1  0  0  0
 54 55  2  0  0  0
 54124  1  0  0  0
 55 57  1  0  0  0
 55125  1  0  0  0
 56 69  2  0  0  0
 57 58  2  0  0  0
 57126  1  0  0  0
 58127  1  0  0  0
 59 60  1  0  0  0
 59 61  1  0  0  0
 59 62  1  0  0  0
 60128  1  0  0  0
 60129  1  0  0  0
 60130  1  0  0  0
 61131  1  0  0  0
 61132  1  0  0  0
 61133  1  0  0  0
 62134  1  0  0  0
 62135  1  0  0  0
 62136  1  0  0  0
 63 65  1  0  0  0
 63137  1  0  0  0
 63138  1  0  0  0
 63139  1  0  0  0
 64140  1  0  0  0
 65141  1  0  0  0
 68 78  1  0  0  0
 71 73  2  0  0  0
 71 76  1  0  0  0
 71142  1  0  0  0
 72 74  2  0  0  0
 72 75  1  0  0  0
 72143  1  0  0  0
 73 74  1  0  0  0
 73 77  1  0  0  0
 74 79  1  0  0  0
 75 76  2  0  0  0
 75 80  1  0  0  0
 76 82  1  0  0  0
 77 78  1  0  0  0
 77 81  2  0  0  0
 78144  1  0  0  0
 78145  1  0  0  0
 79146  1  0  0  0
 79147  1  0  0  0
 80148  1  0  0  0
M  ISO  4   1 100  68 101  78 101  80 100
M  END
> <chiral flag>
0

> <version>
0

> <s_m_source_file>
/data/baiqing/PycharmProjects/Reinvent-master-3.2/result/LINK_invent/BTK/process_docking_weight1_custom_product_contain_oxygen_bond_distance_aromatic_linkinvent_7_9_3/rearranged_h_0109.sdf

> <i_m_source_file_index>
93

> <r_mmod_Potential_Energy-OPLS-2005>
1123.97412109375

> <r_mmod_Stretch_Energy-OPLS-2005>
485.751159667969

> <r_mmod_Bend_Energy-OPLS-2005>
416.646575927734

> <r_mmod_Torsional_Energy-OPLS-2005>
238.771942138672

> <r_mmod_Improper_Torsional_Energy-OPLS-2005>
7.51538896560669

> <r_mmod_Van_der_Waal_Energy-OPLS-2005>
130.378433227539

> <r_mmod_Electrostatic_Energy-OPLS-2005>
-331.498687744141

> <r_mmod_Solvation_Energy-OPLS-2005>
-229.755722045898

> <b_mmod_Minimization_Converged-OPLS-2005>
0

> <r_mmod_RMS_Derivative-OPLS-2005>
0.247891992330551

$$$$
93
                    3D
 Structure written by MMmdl.
158167  0  0  1  0            999 V2000
  -30.6993  -14.5793   20.4986 C   0  0  0  0  0  0
  -30.4107  -12.3568   19.4441 C   0  0  0  0  0  0
  -29.4908  -12.4848   18.2140 C   0  0  0  0  0  0
  -28.0166  -12.3356   18.6349 C   0  0  0  0  0  0
  -27.6444  -13.2207   19.8549 C   0  0  2  0  0  0
  -28.6926  -13.1078   20.9835 C   0  0  0  0  0  0
  -25.2512  -13.8170   20.5716 C   0  0  0  0  0  0
  -24.1802  -13.0423   20.9219 C   0  0  0  0  0  0
  -24.6388  -11.6901   20.8757 C   0  0  0  0  0  0
  -23.9069  -10.4282   21.0422 C   0  0  0  0  0  0
  -24.3618   -9.4194   21.9192 C   0  0  0  0  0  0
  -23.6281   -8.2237   22.0768 C   0  0  0  0  0  0
  -22.4263   -8.0283   21.3562 C   0  0  0  0  0  0
  -21.9905   -9.0259   20.4661 C   0  0  0  0  0  0
  -22.7244  -10.2125   20.3067 C   0  0  0  0  0  0
  -21.6851   -6.0730   22.5283 C   0  0  0  0  0  0
  -21.4012   -6.5640   23.8214 C   0  0  0  0  0  0
  -21.3656   -5.6800   24.9176 C   0  0  0  0  0  0
  -21.6042   -4.3060   24.7230 C   0  0  0  0  0  0
  -21.8817   -3.8144   23.4353 C   0  0  0  0  0  0
  -21.9197   -4.6959   22.3405 C   0  0  0  0  0  0
  -22.7824  -13.5207   21.1874 C   0  0  0  0  0  0
  -22.1668   -4.2146   21.0980 F   0  0  0  0  0  0
  -21.5623   -3.4545   25.7741 F   0  0  0  0  0  0
  -30.0044  -13.4065   20.3975 N   0  0  0  0  0  0
  -26.2945  -12.9373   20.3313 N   0  0  0  0  0  0
  -25.9313  -11.6523   20.5779 N   0  0  0  0  0  0
  -22.0480  -12.8191   22.0431 N   0  0  0  0  0  0
  -25.4167  -15.1898   20.4155 N   0  0  0  0  0  0
  -31.8869  -14.6186   20.1676 O   0  0  0  0  0  0
  -21.6633   -6.8875   21.4249 O   0  0  0  0  0  0
  -22.3510  -14.5519   20.6726 O   0  0  0  0  0  0
  -24.6222  -31.8633   23.2059 C   0  0  0  0  0  0
  -25.9087  -32.4790   23.8373 C   0  0  1  0  0  0
  -27.2225  -27.3565   20.0941 C   0  0  0  0  0  0
  -25.5920  -33.8594   24.2302 N   0  0  0  0  0  0
  -23.4125  -30.4891   21.5489 C   0  0  2  0  0  0
  -24.8540  -28.9484   20.1132 C   0  0  0  0  0  0
  -22.7438  -29.4656   22.4961 C   0  0  0  0  0  0
  -18.0284  -28.1371   22.8496 C   0  0  0  0  0  0
  -24.1491  -36.7306   23.2640 C   0  0  0  0  0  0
  -25.9507  -30.8039   21.3710 C   0  0  0  0  0  0
  -26.0216  -29.4343   20.7123 C   0  0  0  0  0  0
  -27.2054  -28.6476   20.6976 C   0  0  0  0  0  0
  -26.0192  -26.8998   19.5054 C   0  0  0  0  0  0
  -24.8522  -27.6838   19.5074 C   0  0  0  0  0  0
  -23.6230  -29.8267   20.1629 C   0  0  0  0  0  0
  -25.4115  -36.3098   24.0332 C   0  0  1  0  0  0
  -20.5872  -28.3689   23.1291 C   0  0  2  0  0  0
  -20.6790  -26.9429   22.5384 C   0  0  0  0  0  0
  -19.5755  -26.6388   21.5208 C   0  0  0  0  0  0
  -18.1946  -26.7907   22.1659 C   0  0  0  0  0  0
  -19.1531  -28.8847   23.2887 C   0  0  0  0  0  0
  -18.9454  -30.1454   23.8892 C   0  0  0  0  0  0
  -17.6454  -30.6581   24.0550 C   0  0  0  0  0  0
  -25.9044  -34.9461   23.5115 C   0  0  0  0  0  0
  -16.5351  -29.9076   23.6318 C   0  0  0  0  0  0
  -16.7271  -28.6487   23.0356 C   0  0  0  0  0  0
  -26.4487  -31.6589   25.0728 C   0  0  0  0  0  0
  -25.3730  -31.3711   26.1463 C   0  0  0  0  0  0
  -27.0325  -30.3019   24.6159 C   0  0  0  0  0  0
  -27.6055  -32.4317   25.7496 C   0  0  0  0  0  0
  -27.5580  -37.1813   24.8468 C   0  0  0  0  0  0
  -21.4152  -29.3078   22.3710 N   0  0  0  0  0  0
  -26.4301  -37.3784   23.9397 N   0  0  0  0  0  0
  -24.6802  -31.0684   22.0987 N   0  0  0  0  0  0
  -23.4184  -28.8174   23.3002 O   0  0  0  0  0  0
  -28.3805  -26.5771   20.1367 O   0  0  0  0  0  0
  -26.5614  -34.8922   22.4681 O   0  0  0  0  0  0
  -23.5398  -32.1421   23.7415 O   0  0  0  0  0  0
  -29.6339  -18.2176   20.6446 C   0  0  0  0  0  0
  -28.6020  -18.4259   19.7491 C   0  0  0  0  0  0
  -29.1309  -20.3772   20.5770 C   0  0  0  0  0  0
  -28.8460  -24.0356   20.1337 C   0  0  0  0  0  0
  -28.4639  -22.7569   19.8876 C   0  0  0  0  0  0
  -30.5009  -16.9771   20.8878 C   0  0  0  0  0  0
  -29.8249  -24.0570   21.2685 C   0  0  0  0  0  0
  -29.9183  -22.5644   21.6592 C   0  0  0  0  0  0
  -27.8520  -17.5499   18.7992 C   0  0  0  0  0  0
  -27.4852  -22.3257   18.8070 C   0  0  0  0  0  0
  -28.5156  -25.3462   19.3574 C   0  0  0  0  0  0
  -29.9368  -19.4901   21.1755 N   0  0  0  0  0  0
  -29.0947  -21.7990   20.7180 N   0  0  0  0  0  0
  -29.9820  -15.7221   20.7260 N   0  0  0  0  0  0
  -31.6667  -17.1674   21.2596 O   0  0  0  0  0  0
  -28.2785  -19.7726   19.7078 O   0  0  0  0  0  0
  -31.4571  -12.4328   19.1424 H   0  0  0  0  0  0
  -30.3053  -11.3716   19.9012 H   0  0  0  0  0  0
  -29.7444  -11.7263   17.4726 H   0  0  0  0  0  0
  -29.6441  -13.4515   17.7305 H   0  0  0  0  0  0
  -27.8536  -11.2849   18.8783 H   0  0  0  0  0  0
  -27.3570  -12.5558   17.7953 H   0  0  0  0  0  0
  -27.6536  -14.2495   19.4969 H   0  0  0  0  0  0
  -28.6930  -12.1047   21.4125 H   0  0  0  0  0  0
  -28.4573  -13.7875   21.8038 H   0  0  0  0  0  0
  -25.2771   -9.5652   22.4752 H   0  0  0  0  0  0
  -24.0001   -7.4619   22.7467 H   0  0  0  0  0  0
  -21.0849   -8.8767   19.8947 H   0  0  0  0  0  0
  -22.3725  -10.9658   19.6162 H   0  0  0  0  0  0
  -21.2005   -7.6150   23.9714 H   0  0  0  0  0  0
  -21.1484   -6.0531   25.9081 H   0  0  0  0  0  0
  -22.0599   -2.7606   23.2854 H   0  0  0  0  0  0
  -22.4116  -11.9840   22.4784 H   0  0  0  0  0  0
  -21.1096  -13.1186   22.2654 H   0  0  0  0  0  0
  -24.6395  -15.8319   20.5321 H   0  0  0  0  0  0
  -26.2546  -15.6358   20.0730 H   0  0  0  0  0  0
  -26.7151  -32.5470   23.1122 H   0  0  0  0  0  0
  -25.0051  -33.9747   25.0439 H   0  0  0  0  0  0
  -22.7059  -31.3094   21.4100 H   0  0  0  0  0  0
  -23.3747  -35.9647   23.3318 H   0  0  0  0  0  0
  -24.3578  -36.8909   22.2050 H   0  0  0  0  0  0
  -23.7255  -37.6519   23.6648 H   0  0  0  0  0  0
  -26.0806  -31.5697   20.6047 H   0  0  0  0  0  0
  -26.8326  -30.8500   21.9983 H   0  0  0  0  0  0
  -28.1049  -29.0206   21.1670 H   0  0  0  0  0  0
  -25.9218  -25.9232   19.0610 H   0  0  0  0  0  0
  -23.9501  -27.2979   19.0530 H   0  0  0  0  0  0
  -23.7423  -30.6050   19.4084 H   0  0  0  0  0  0
  -22.7430  -29.2568   19.8594 H   0  0  0  0  0  0
  -25.1298  -36.1963   25.0828 H   0  0  0  0  0  0
  -20.9966  -28.3255   24.1410 H   0  0  0  0  0  0
  -20.5746  -26.2292   23.3569 H   0  0  0  0  0  0
  -21.6649  -26.7498   22.1135 H   0  0  0  0  0  0
  -19.6923  -25.6306   21.1235 H   0  0  0  0  0  0
  -19.6662  -27.3208   20.6741 H   0  0  0  0  0  0
  -17.4191  -26.6600   21.4092 H   0  0  0  0  0  0
  -18.0406  -26.0071   22.9084 H   0  0  0  0  0  0
  -19.7920  -30.7292   24.2260 H   0  0  0  0  0  0
  -17.5011  -31.6268   24.5133 H   0  0  0  0  0  0
  -15.5356  -30.2988   23.7632 H   0  0  0  0  0  0
  -15.8676  -28.0802   22.7063 H   0  0  0  0  0  0
  -24.5904  -30.7065   25.7785 H   0  0  0  0  0  0
  -24.8922  -32.2869   26.4911 H   0  0  0  0  0  0
  -25.8062  -30.8869   27.0226 H   0  0  0  0  0  0
  -26.2888  -29.6779   24.1188 H   0  0  0  0  0  0
  -27.4038  -29.7267   25.4651 H   0  0  0  0  0  0
  -27.8753  -30.4318   23.9366 H   0  0  0  0  0  0
  -27.2670  -33.3607   26.2102 H   0  0  0  0  0  0
  -28.3850  -32.6894   25.0310 H   0  0  0  0  0  0
  -28.0747  -31.8425   26.5390 H   0  0  0  0  0  0
  -28.2617  -38.0091   24.7489 H   0  0  0  0  0  0
  -28.1057  -36.2620   24.6330 H   0  0  0  0  0  0
  -27.2290  -37.1511   25.8871 H   0  0  0  0  0  0
  -20.9322  -29.8827   21.6949 H   0  0  0  0  0  0
  -26.0189  -38.2869   24.1371 H   0  0  0  0  0  0
  -29.4619  -24.6780   22.0879 H   0  0  0  0  0  0
  -30.7866  -24.4455   20.9306 H   0  0  0  0  0  0
  -29.5485  -22.4069   22.6733 H   0  0  0  0  0  0
  -30.9512  -22.2123   21.6329 H   0  0  0  0  0  0
  -28.2766  -16.5493   18.7394 H   0  0  0  0  0  0
  -27.8686  -17.9689   17.7935 H   0  0  0  0  0  0
  -26.8086  -17.4648   19.1007 H   0  0  0  0  0  0
  -28.0105  -21.8647   17.9697 H   0  0  0  0  0  0
  -26.7520  -21.6196   19.1973 H   0  0  0  0  0  0
  -26.9152  -23.1669   18.4168 H   0  0  0  0  0  0
  -27.7375  -25.1765   18.6232 H   0  0  0  0  0  0
  -29.3907  -25.5249   18.7331 H   0  0  0  0  0  0
  -28.9817  -15.6485   20.6971 H   0  0  0  0  0  0
  1 25  1  0  0  0
  1 30  2  0  0  0
  1 84  1  0  0  0
  2  3  1  0  0  0
  2 25  1  0  0  0
  2 87  1  0  0  0
  2 88  1  0  0  0
  3  4  1  0  0  0
  3 89  1  0  0  0
  3 90  1  0  0  0
  4  5  1  0  0  0
  4 91  1  0  0  0
  4 92  1  0  0  0
  5  6  1  0  0  0
  5 26  1  0  0  0
  5 93  1  0  0  0
  6 25  1  0  0  0
  6 94  1  0  0  0
  6 95  1  0  0  0
  7  8  2  0  0  0
  7 26  1  0  0  0
  7 29  1  0  0  0
  8  9  1  0  0  0
  8 22  1  0  0  0
  9 10  1  0  0  0
  9 27  2  0  0  0
 10 11  2  0  0  0
 10 15  1  0  0  0
 11 12  1  0  0  0
 11 96  1  0  0  0
 12 13  2  0  0  0
 12 97  1  0  0  0
 13 14  1  0  0  0
 13 31  1  0  0  0
 14 15  2  0  0  0
 14 98  1  0  0  0
 15 99  1  0  0  0
 16 17  2  0  0  0
 16 21  1  0  0  0
 16 31  1  0  0  0
 17 18  1  0  0  0
 17100  1  0  0  0
 18 19  2  0  0  0
 18101  1  0  0  0
 19 20  1  0  0  0
 19 24  1  0  0  0
 20 21  2  0  0  0
 20102  1  0  0  0
 21 23  1  0  0  0
 22 28  1  0  0  0
 22 32  2  0  0  0
 26 27  1  0  0  0
 28103  1  0  0  0
 28104  1  0  0  0
 29105  1  0  0  0
 29106  1  0  0  0
 33 34  1  0  0  0
 33 66  1  0  0  0
 33 70  2  0  0  0
 34 36  1  0  0  0
 34 59  1  0  0  0
 34107  1  0  0  0
 35 44  2  0  0  0
 35 45  1  0  0  0
 35 68  1  0  0  0
 36 56  1  0  0  0
 36108  1  0  0  0
 37 39  1  0  0  0
 37 47  1  0  0  0
 37 66  1  0  0  0
 37109  1  0  0  0
 38 43  2  0  0  0
 38 46  1  0  0  0
 38 47  1  0  0  0
 39 64  1  0  0  0
 39 67  2  0  0  0
 40 52  1  0  0  0
 40 53  2  0  0  0
 40 58  1  0  0  0
 41110  1  0  0  0
 41111  1  0  0  0
 41112  1  0  0  0
 41 48  1  0  0  0
 42 43  1  0  0  0
 42 66  1  0  0  0
 42113  1  0  0  0
 42114  1  0  0  0
 43 44  1  0  0  0
 44115  1  0  0  0
 45 46  2  0  0  0
 45116  1  0  0  0
 46117  1  0  0  0
 47118  1  0  0  0
 47119  1  0  0  0
 48 56  1  0  0  0
 48 65  1  0  0  0
 48120  1  0  0  0
 49 50  1  0  0  0
 49 53  1  0  0  0
 49 64  1  0  0  0
 49121  1  0  0  0
 50 51  1  0  0  0
 50122  1  0  0  0
 50123  1  0  0  0
 51 52  1  0  0  0
 51124  1  0  0  0
 51125  1  0  0  0
 52126  1  0  0  0
 52127  1  0  0  0
 53 54  1  0  0  0
 54 55  2  0  0  0
 54128  1  0  0  0
 55 57  1  0  0  0
 55129  1  0  0  0
 56 69  2  0  0  0
 57 58  2  0  0  0
 57130  1  0  0  0
 58131  1  0  0  0
 59 60  1  0  0  0
 59 61  1  0  0  0
 59 62  1  0  0  0
 60132  1  0  0  0
 60133  1  0  0  0
 60134  1  0  0  0
 61135  1  0  0  0
 61136  1  0  0  0
 61137  1  0  0  0
 62138  1  0  0  0
 62139  1  0  0  0
 62140  1  0  0  0
 63 65  1  0  0  0
 63141  1  0  0  0
 63142  1  0  0  0
 63143  1  0  0  0
 64144  1  0  0  0
 65145  1  0  0  0
 68 81  1  0  0  0
 71 72  2  0  0  0
 71 76  1  0  0  0
 71 82  1  0  0  0
 72 79  1  0  0  0
 72 86  1  0  0  0
 73 82  2  0  0  0
 73 83  1  0  0  0
 73 86  1  0  0  0
 74 75  2  0  0  0
 74 77  1  0  0  0
 74 81  1  0  0  0
 75 80  1  0  0  0
 75 83  1  0  0  0
 76 84  1  0  0  0
 76 85  2  0  0  0
 77 78  1  0  0  0
 77146  1  0  0  0
 77147  1  0  0  0
 78 83  1  0  0  0
 78148  1  0  0  0
 78149  1  0  0  0
 79150  1  0  0  0
 79151  1  0  0  0
 79152  1  0  0  0
 80153  1  0  0  0
 80154  1  0  0  0
 80155  1  0  0  0
 81156  1  0  0  0
 81157  1  0  0  0
 84158  1  0  0  0
M  ISO  4   1 100  68 101  81 101  84 100
M  END
> <chiral flag>
0

> <version>
0

> <s_m_source_file>
/data/baiqing/PycharmProjects/Reinvent-master-3.2/result/LINK_invent/BTK/process_docking_weight1_custom_product_contain_oxygen_bond_distance_aromatic_linkinvent_7_9_3/rearranged_h_0109.sdf

> <i_m_source_file_index>
94

> <r_mmod_Potential_Energy-OPLS-2005>
-5.78541326522827

> <r_mmod_Stretch_Energy-OPLS-2005>
59.1212730407715

> <r_mmod_Bend_Energy-OPLS-2005>
197.358901977539

> <r_mmod_Torsional_Energy-OPLS-2005>
213.077270507812

> <r_mmod_Improper_Torsional_Energy-OPLS-2005>
7.22416877746582

> <r_mmod_Van_der_Waal_Energy-OPLS-2005>
129.908676147461

> <r_mmod_Electrostatic_Energy-OPLS-2005>
-413.680969238281

> <r_mmod_Solvation_Energy-OPLS-2005>
-234.972290039062

> <b_mmod_Minimization_Converged-OPLS-2005>
0

> <r_mmod_RMS_Derivative-OPLS-2005>
1.64158618450165

$$$$
94
                    3D
 Structure written by MMmdl.
161170  0  0  1  0            999 V2000
  -30.5913  -14.6297   20.5342 C   0  0  0  0  0  0
  -30.4550  -12.4146   19.4021 C   0  0  0  0  0  0
  -29.4965  -12.5434   18.1945 C   0  0  0  0  0  0
  -28.0178  -12.3895   18.6093 C   0  0  0  0  0  0
  -27.6613  -13.2101   19.8723 C   0  0  2  0  0  0
  -28.7164  -13.0084   20.9827 C   0  0  0  0  0  0
  -25.2620  -13.8138   20.5678 C   0  0  0  0  0  0
  -24.1891  -13.0401   20.9191 C   0  0  0  0  0  0
  -24.6443  -11.6880   20.8722 C   0  0  0  0  0  0
  -23.9117  -10.4271   21.0384 C   0  0  0  0  0  0
  -24.3637   -9.4195   21.9185 C   0  0  0  0  0  0
  -23.6302   -8.2234   22.0766 C   0  0  0  0  0  0
  -22.4279   -8.0271   21.3557 C   0  0  0  0  0  0
  -21.9904   -9.0266   20.4671 C   0  0  0  0  0  0
  -22.7264  -10.2142   20.3078 C   0  0  0  0  0  0
  -21.6857   -6.0716   22.5274 C   0  0  0  0  0  0
  -21.4038   -6.5617   23.8207 C   0  0  0  0  0  0
  -21.3659   -5.6772   24.9167 C   0  0  0  0  0  0
  -21.6047   -4.3031   24.7202 C   0  0  0  0  0  0
  -21.8828   -3.8133   23.4311 C   0  0  0  0  0  0
  -21.9204   -4.6957   22.3381 C   0  0  0  0  0  0
  -22.7925  -13.5223   21.1816 C   0  0  0  0  0  0
  -22.1681   -4.2148   21.0959 F   0  0  0  0  0  0
  -21.5638   -3.4514   25.7715 F   0  0  0  0  0  0
  -30.0252  -13.3888   20.4203 N   0  0  0  0  0  0
  -26.3049  -12.9315   20.3364 N   0  0  0  0  0  0
  -25.9359  -11.6475   20.5728 N   0  0  0  0  0  0
  -22.0550  -12.8310   22.0430 N   0  0  0  0  0  0
  -25.4215  -15.1864   20.3986 N   0  0  0  0  0  0
  -31.7456  -14.8599   20.1533 O   0  0  0  0  0  0
  -21.6652   -6.8862   21.4243 O   0  0  0  0  0  0
  -22.3638  -14.5519   20.6622 O   0  0  0  0  0  0
  -24.6238  -31.8656   23.2052 C   0  0  0  0  0  0
  -25.9119  -32.4813   23.8358 C   0  0  1  0  0  0
  -27.2319  -27.3823   20.1204 C   0  0  0  0  0  0
  -25.5984  -33.8605   24.2326 N   0  0  0  0  0  0
  -23.4119  -30.4913   21.5486 C   0  0  2  0  0  0
  -24.8532  -28.9320   20.1362 C   0  0  0  0  0  0
  -22.7440  -29.4677   22.4955 C   0  0  0  0  0  0
  -18.0286  -28.1339   22.8472 C   0  0  0  0  0  0
  -24.1493  -36.7313   23.2611 C   0  0  0  0  0  0
  -25.9431  -30.8246   21.3524 C   0  0  0  0  0  0
  -26.0232  -29.4492   20.7071 C   0  0  0  0  0  0
  -27.2234  -28.6921   20.6733 C   0  0  0  0  0  0
  -26.0323  -26.8785   19.5837 C   0  0  0  0  0  0
  -24.8508  -27.6424   19.5783 C   0  0  0  0  0  0
  -23.6262  -29.8163   20.1678 C   0  0  0  0  0  0
  -25.4111  -36.3112   24.0321 C   0  0  1  0  0  0
  -20.5883  -28.3683   23.1274 C   0  0  2  0  0  0
  -20.6817  -26.9443   22.5276 C   0  0  0  0  0  0
  -19.5763  -26.6448   21.5126 C   0  0  0  0  0  0
  -18.1964  -26.7902   22.1571 C   0  0  0  0  0  0
  -19.1521  -28.8795   23.2895 C   0  0  0  0  0  0
  -18.9428  -30.1409   23.8912 C   0  0  0  0  0  0
  -17.6421  -30.6523   24.0570 C   0  0  0  0  0  0
  -25.9035  -34.9479   23.5123 C   0  0  0  0  0  0
  -16.5321  -29.9049   23.6258 C   0  0  0  0  0  0
  -16.7271  -28.6462   23.0279 C   0  0  0  0  0  0
  -26.4520  -31.6586   25.0695 C   0  0  0  0  0  0
  -25.3780  -31.3725   26.1443 C   0  0  0  0  0  0
  -27.0321  -30.3020   24.6062 C   0  0  0  0  0  0
  -27.6087  -32.4291   25.7483 C   0  0  0  0  0  0
  -27.5581  -37.1822   24.8459 C   0  0  0  0  0  0
  -21.4130  -29.3158   22.3796 N   0  0  0  0  0  0
  -26.4299  -37.3804   23.9408 N   0  0  0  0  0  0
  -24.6795  -31.0746   22.0964 N   0  0  0  0  0  0
  -23.4210  -28.8105   23.2904 O   0  0  0  0  0  0
  -28.3999  -26.6355   20.0290 O   0  0  0  0  0  0
  -26.5546  -34.8924   22.4655 O   0  0  0  0  0  0
  -23.5419  -32.1352   23.7461 O   0  0  0  0  0  0
  -29.4059  -17.3222   22.5495 C   0  0  0  0  0  0
  -28.9053  -18.5918   22.8868 C   0  0  0  0  0  0
  -29.6441  -18.0623   20.2566 C   0  0  0  0  0  0
  -29.1468  -19.3903   20.5714 C   0  0  0  0  0  0
  -29.7149  -17.0033   21.2151 C   0  0  0  0  0  0
  -28.6725  -19.5894   21.9039 C   0  0  0  0  0  0
  -28.8859  -22.7135   20.4096 C   0  0  0  0  0  0
  -28.8932  -20.3836   19.4068 C   0  0  0  0  0  0
  -27.9831  -23.9448   18.5873 C   0  0  0  0  0  0
  -28.2173  -22.4610   18.2421 C   0  0  0  0  0  0
  -28.0632  -24.0071   20.1094 C   0  0  2  0  0  0
  -27.0189  -20.6409   23.3166 C   0  0  0  0  0  0
  -28.5233  -25.3762   20.7549 C   0  0  0  0  0  0
  -28.7016  -21.7630   19.4538 N   0  0  0  0  0  0
  -29.6899  -15.5878   20.9005 N   0  0  0  0  0  0
  -29.6251  -22.6268   21.3947 O   0  0  0  0  0  0
  -28.8185  -19.8449   18.2932 O   0  0  0  0  0  0
  -27.9203  -20.7037   22.2129 O   0  0  0  0  0  0
  -31.4805  -12.5945   19.0726 H   0  0  0  0  0  0
  -30.4376  -11.4052   19.8149 H   0  0  0  0  0  0
  -29.7492  -11.8078   17.4322 H   0  0  0  0  0  0
  -29.6307  -13.5201   17.7240 H   0  0  0  0  0  0
  -27.8201  -11.3309   18.7760 H   0  0  0  0  0  0
  -27.3717  -12.6958   17.7860 H   0  0  0  0  0  0
  -27.6915  -14.2581   19.5707 H   0  0  0  0  0  0
  -28.7380  -11.9636   21.3033 H   0  0  0  0  0  0
  -28.4640  -13.5832   21.8725 H   0  0  0  0  0  0
  -25.2746   -9.5673   22.4818 H   0  0  0  0  0  0
  -23.9981   -7.4602   22.7472 H   0  0  0  0  0  0
  -21.0824   -8.8804   19.8969 H   0  0  0  0  0  0
  -22.3696  -10.9706   19.6232 H   0  0  0  0  0  0
  -21.2077   -7.6129   23.9732 H   0  0  0  0  0  0
  -21.1470   -6.0474   25.9081 H   0  0  0  0  0  0
  -22.0613   -2.7592   23.2800 H   0  0  0  0  0  0
  -22.4078  -11.9988   22.4919 H   0  0  0  0  0  0
  -21.1216  -13.1499   22.2610 H   0  0  0  0  0  0
  -24.6295  -15.8148   20.4840 H   0  0  0  0  0  0
  -26.2448  -15.6399   20.0231 H   0  0  0  0  0  0
  -26.7229  -32.5507   23.1137 H   0  0  0  0  0  0
  -25.0293  -33.9752   25.0595 H   0  0  0  0  0  0
  -22.7041  -31.3095   21.4041 H   0  0  0  0  0  0
  -23.3746  -35.9654   23.3250 H   0  0  0  0  0  0
  -24.3598  -36.8926   22.2027 H   0  0  0  0  0  0
  -23.7225  -37.6524   23.6612 H   0  0  0  0  0  0
  -26.0403  -31.5846   20.5757 H   0  0  0  0  0  0
  -26.8391  -30.8912   21.9585 H   0  0  0  0  0  0
  -28.1382  -29.1046   21.0714 H   0  0  0  0  0  0
  -25.9965  -25.8804   19.1835 H   0  0  0  0  0  0
  -23.9426  -27.2217   19.1699 H   0  0  0  0  0  0
  -23.7567  -30.5870   19.4070 H   0  0  0  0  0  0
  -22.7435  -29.2522   19.8651 H   0  0  0  0  0  0
  -25.1276  -36.1970   25.0812 H   0  0  0  0  0  0
  -20.9953  -28.3207   24.1395 H   0  0  0  0  0  0
  -20.5754  -26.2248   23.3423 H   0  0  0  0  0  0
  -21.6690  -26.7514   22.1032 H   0  0  0  0  0  0
  -19.6968  -25.6438   21.1058 H   0  0  0  0  0  0
  -19.6665  -27.3331   20.6748 H   0  0  0  0  0  0
  -17.4236  -26.6652   21.4001 H   0  0  0  0  0  0
  -18.0415  -26.0029   22.8951 H   0  0  0  0  0  0
  -19.7895  -30.7201   24.2315 H   0  0  0  0  0  0
  -17.4947  -31.6172   24.5212 H   0  0  0  0  0  0
  -15.5308  -30.2923   23.7576 H   0  0  0  0  0  0
  -15.8684  -28.0798   22.6936 H   0  0  0  0  0  0
  -24.5991  -30.7008   25.7823 H   0  0  0  0  0  0
  -24.8922  -32.2885   26.4808 H   0  0  0  0  0  0
  -25.8130  -30.8988   27.0241 H   0  0  0  0  0  0
  -26.2871  -29.6814   24.1062 H   0  0  0  0  0  0
  -27.4030  -29.7214   25.4513 H   0  0  0  0  0  0
  -27.8723  -30.4312   23.9234 H   0  0  0  0  0  0
  -27.2725  -33.3590   26.2059 H   0  0  0  0  0  0
  -28.3925  -32.6824   25.0349 H   0  0  0  0  0  0
  -28.0718  -31.8394   26.5396 H   0  0  0  0  0  0
  -28.2602  -38.0120   24.7536 H   0  0  0  0  0  0
  -28.1067  -36.2652   24.6262 H   0  0  0  0  0  0
  -27.2290  -37.1466   25.8858 H   0  0  0  0  0  0
  -20.9221  -29.9166   21.7349 H   0  0  0  0  0  0
  -26.0155  -38.2866   24.1463 H   0  0  0  0  0  0
  -29.4359  -16.5608   23.3166 H   0  0  0  0  0  0
  -28.6038  -18.7390   23.9146 H   0  0  0  0  0  0
  -29.8591  -17.8152   19.2264 H   0  0  0  0  0  0
  -27.0117  -24.2719   18.2149 H   0  0  0  0  0  0
  -28.7326  -24.5902   18.1226 H   0  0  0  0  0  0
  -28.9365  -22.3813   17.4236 H   0  0  0  0  0  0
  -27.2857  -22.0138   17.8878 H   0  0  0  0  0  0
  -27.0639  -23.7980   20.4924 H   0  0  0  0  0  0
  -26.4215  -19.7276   23.2910 H   0  0  0  0  0  0
  -26.3218  -21.4787   23.2710 H   0  0  0  0  0  0
  -27.5387  -20.6971   24.2762 H   0  0  0  0  0  0
  -29.5829  -25.2995   21.0027 H   0  0  0  0  0  0
  -28.0285  -25.4898   21.7186 H   0  0  0  0  0  0
  -28.8181  -15.1493   21.1609 H   0  0  0  0  0  0
  1 25  1  0  0  0
  1 30  2  0  0  0
  1 85  1  0  0  0
  2  3  1  0  0  0
  2 25  1  0  0  0
  2 89  1  0  0  0
  2 90  1  0  0  0
  3  4  1  0  0  0
  3 91  1  0  0  0
  3 92  1  0  0  0
  4  5  1  0  0  0
  4 93  1  0  0  0
  4 94  1  0  0  0
  5  6  1  0  0  0
  5 26  1  0  0  0
  5 95  1  0  0  0
  6 25  1  0  0  0
  6 96  1  0  0  0
  6 97  1  0  0  0
  7  8  2  0  0  0
  7 26  1  0  0  0
  7 29  1  0  0  0
  8  9  1  0  0  0
  8 22  1  0  0  0
  9 10  1  0  0  0
  9 27  2  0  0  0
 10 11  2  0  0  0
 10 15  1  0  0  0
 11 12  1  0  0  0
 11 98  1  0  0  0
 12 13  2  0  0  0
 12 99  1  0  0  0
 13 14  1  0  0  0
 13 31  1  0  0  0
 14 15  2  0  0  0
 14100  1  0  0  0
 15101  1  0  0  0
 16 17  2  0  0  0
 16 21  1  0  0  0
 16 31  1  0  0  0
 17 18  1  0  0  0
 17102  1  0  0  0
 18 19  2  0  0  0
 18103  1  0  0  0
 19 20  1  0  0  0
 19 24  1  0  0  0
 20 21  2  0  0  0
 20104  1  0  0  0
 21 23  1  0  0  0
 22 28  1  0  0  0
 22 32  2  0  0  0
 26 27  1  0  0  0
 28105  1  0  0  0
 28106  1  0  0  0
 29107  1  0  0  0
 29108  1  0  0  0
 33 34  1  0  0  0
 33 66  1  0  0  0
 33 70  2  0  0  0
 34 36  1  0  0  0
 34 59  1  0  0  0
 34109  1  0  0  0
 35 44  2  0  0  0
 35 45  1  0  0  0
 35 68  1  0  0  0
 36 56  1  0  0  0
 36110  1  0  0  0
 37 39  1  0  0  0
 37 47  1  0  0  0
 37 66  1  0  0  0
 37111  1  0  0  0
 38 43  2  0  0  0
 38 46  1  0  0  0
 38 47  1  0  0  0
 39 64  1  0  0  0
 39 67  2  0  0  0
 40 52  1  0  0  0
 40 53  2  0  0  0
 40 58  1  0  0  0
 41112  1  0  0  0
 41113  1  0  0  0
 41114  1  0  0  0
 41 48  1  0  0  0
 42 43  1  0  0  0
 42 66  1  0  0  0
 42115  1  0  0  0
 42116  1  0  0  0
 43 44  1  0  0  0
 44117  1  0  0  0
 45 46  2  0  0  0
 45118  1  0  0  0
 46119  1  0  0  0
 47120  1  0  0  0
 47121  1  0  0  0
 48 56  1  0  0  0
 48 65  1  0  0  0
 48122  1  0  0  0
 49 50  1  0  0  0
 49 53  1  0  0  0
 49 64  1  0  0  0
 49123  1  0  0  0
 50 51  1  0  0  0
 50124  1  0  0  0
 50125  1  0  0  0
 51 52  1  0  0  0
 51126  1  0  0  0
 51127  1  0  0  0
 52128  1  0  0  0
 52129  1  0  0  0
 53 54  1  0  0  0
 54 55  2  0  0  0
 54130  1  0  0  0
 55 57  1  0  0  0
 55131  1  0  0  0
 56 69  2  0  0  0
 57 58  2  0  0  0
 57132  1  0  0  0
 58133  1  0  0  0
 59 60  1  0  0  0
 59 61  1  0  0  0
 59 62  1  0  0  0
 60134  1  0  0  0
 60135  1  0  0  0
 60136  1  0  0  0
 61137  1  0  0  0
 61138  1  0  0  0
 61139  1  0  0  0
 62140  1  0  0  0
 62141  1  0  0  0
 62142  1  0  0  0
 63 65  1  0  0  0
 63143  1  0  0  0
 63144  1  0  0  0
 63145  1  0  0  0
 64146  1  0  0  0
 65147  1  0  0  0
 68 83  1  0  0  0
 71 72  2  0  0  0
 71 75  1  0  0  0
 71148  1  0  0  0
 72 76  1  0  0  0
 72149  1  0  0  0
 73 74  1  0  0  0
 73 75  2  0  0  0
 73150  1  0  0  0
 74 76  2  0  0  0
 74 78  1  0  0  0
 75 85  1  0  0  0
 76 88  1  0  0  0
 77 81  1  0  0  0
 77 84  1  0  0  0
 77 86  2  0  0  0
 78 84  1  0  0  0
 78 87  2  0  0  0
 79 80  1  0  0  0
 79 81  1  0  0  0
 79151  1  0  0  0
 79152  1  0  0  0
 80 84  1  0  0  0
 80153  1  0  0  0
 80154  1  0  0  0
 81 83  1  0  0  0
 81155  1  0  0  0
 82 88  1  0  0  0
 82156  1  0  0  0
 82157  1  0  0  0
 82158  1  0  0  0
 83159  1  0  0  0
 83160  1  0  0  0
 85161  1  0  0  0
M  ISO  4   1 100  68 101  83 101  85 100
M  END
> <chiral flag>
0

> <version>
0

> <s_m_source_file>
/data/baiqing/PycharmProjects/Reinvent-master-3.2/result/LINK_invent/BTK/process_docking_weight1_custom_product_contain_oxygen_bond_distance_aromatic_linkinvent_7_9_3/rearranged_h_0109.sdf

> <i_m_source_file_index>
95

> <r_mmod_Potential_Energy-OPLS-2005>
214.076583862305

> <r_mmod_Stretch_Energy-OPLS-2005>
73.5816650390625

> <r_mmod_Bend_Energy-OPLS-2005>
223.974700927734

> <r_mmod_Torsional_Energy-OPLS-2005>
342.174224853516

> <r_mmod_Improper_Torsional_Energy-OPLS-2005>
11.6142988204956

> <r_mmod_Van_der_Waal_Energy-OPLS-2005>
155.953491210938

> <r_mmod_Electrostatic_Energy-OPLS-2005>
-401.762969970703

> <r_mmod_Solvation_Energy-OPLS-2005>
-227.352478027344

> <b_mmod_Minimization_Converged-OPLS-2005>
0

> <r_mmod_RMS_Derivative-OPLS-2005>
6.4574089050293

$$$$
95
                    3D
 Structure written by MMmdl.
165174  0  0  1  0            999 V2000
  -30.6453  -14.9960   20.7488 C   0  0  0  0  0  0
  -30.4492  -12.6935   19.6408 C   0  0  0  0  0  0
  -29.5352  -12.5088   18.3881 C   0  0  0  0  0  0
  -28.0757  -12.2708   18.8093 C   0  0  0  0  0  0
  -27.6087  -13.2592   19.8854 C   0  0  2  0  0  0
  -28.6022  -13.3862   21.0489 C   0  0  0  0  0  0
  -25.2204  -13.8229   20.5888 C   0  0  0  0  0  0
  -24.1547  -13.0513   20.9324 C   0  0  0  0  0  0
  -24.6130  -11.6998   20.8747 C   0  0  0  0  0  0
  -23.8971  -10.4482   21.0470 C   0  0  0  0  0  0
  -24.3570   -9.4297   21.9160 C   0  0  0  0  0  0
  -23.6279   -8.2231   22.0752 C   0  0  0  0  0  0
  -22.4211   -8.0272   21.3541 C   0  0  0  0  0  0
  -21.9852   -9.0251   20.4622 C   0  0  0  0  0  0
  -22.7210  -10.2143   20.3100 C   0  0  0  0  0  0
  -21.6824   -6.0713   22.5318 C   0  0  0  0  0  0
  -21.3997   -6.5656   23.8255 C   0  0  0  0  0  0
  -21.3643   -5.6794   24.9198 C   0  0  0  0  0  0
  -21.6054   -4.3074   24.7223 C   0  0  0  0  0  0
  -21.8807   -3.8163   23.4352 C   0  0  0  0  0  0
  -21.9196   -4.6957   22.3422 C   0  0  0  0  0  0
  -22.7510  -13.5118   21.1906 C   0  0  0  0  0  0
  -22.1662   -4.2212   21.0979 F   0  0  0  0  0  0
  -21.5612   -3.4548   25.7717 F   0  0  0  0  0  0
  -29.9151  -13.7586   20.5555 N   0  0  0  0  0  0
  -26.2605  -12.9481   20.3001 N   0  0  0  0  0  0
  -25.9130  -11.6665   20.5797 N   0  0  0  0  0  0
  -22.0198  -12.8251   22.0553 N   0  0  0  0  0  0
  -25.3710  -15.2146   20.4353 N   0  0  0  0  0  0
  -31.7846  -15.0054   20.3106 O   0  0  0  0  0  0
  -21.6614   -6.8844   21.4241 O   0  0  0  0  0  0
  -22.3102  -14.5426   20.6745 O   0  0  0  0  0  0
  -24.6175  -31.8365   23.2646 C   0  0  0  0  0  0
  -25.9153  -32.4693   23.8389 C   0  0  1  0  0  0
  -26.9717  -27.0815   20.1786 C   0  0  0  0  0  0
  -25.5944  -33.8695   24.2270 N   0  0  0  0  0  0
  -23.3643  -30.4701   21.6729 C   0  0  2  0  0  0
  -24.7814  -28.9897   20.0882 C   0  0  0  0  0  0
  -22.8006  -29.4058   22.5565 C   0  0  0  0  0  0
  -18.1634  -28.0462   22.7602 C   0  0  0  0  0  0
  -24.1496  -36.7330   23.2629 C   0  0  0  0  0  0
  -25.9420  -30.6565   21.4873 C   0  0  0  0  0  0
  -25.9862  -29.3266   20.7096 C   0  0  0  0  0  0
  -27.1137  -28.4136   20.7232 C   0  0  0  0  0  0
  -25.7621  -26.8384   19.5572 C   0  0  0  0  0  0
  -24.6901  -27.7006   19.5511 C   0  0  0  0  0  0
  -23.5616  -29.9151   20.2555 C   0  0  0  0  0  0
  -25.4223  -36.3232   24.0255 C   0  0  1  0  0  0
  -20.7251  -28.2050   23.1436 C   0  0  2  0  0  0
  -20.8582  -26.8458   22.3996 C   0  0  0  0  0  0
  -19.8153  -26.6388   21.3725 C   0  0  0  0  0  0
  -18.3996  -26.7699   21.9642 C   0  0  0  0  0  0
  -19.2729  -28.7205   23.3156 C   0  0  0  0  0  0
  -19.0588  -29.9646   23.9385 C   0  0  0  0  0  0
  -17.7598  -30.4992   24.0303 C   0  0  0  0  0  0
  -25.9151  -34.9567   23.5167 C   0  0  0  0  0  0
  -16.6243  -29.7276   23.6592 C   0  0  0  0  0  0
  -16.8354  -28.5008   23.0266 C   0  0  0  0  0  0
  -26.4767  -31.6804   25.0953 C   0  0  0  0  0  0
  -25.3776  -31.4041   26.1363 C   0  0  0  0  0  0
  -27.0703  -30.3228   24.6753 C   0  0  0  0  0  0
  -27.6294  -32.4465   25.7763 C   0  0  0  0  0  0
  -27.5599  -37.1942   24.8442 C   0  0  0  0  0  0
  -21.4586  -29.2370   22.4604 N   0  0  0  0  0  0
  -26.4300  -37.4028   23.9419 N   0  0  0  0  0  0
  -24.6582  -30.9894   22.1992 N   0  0  0  0  0  0
  -23.5165  -28.6772   23.2582 O   0  0  0  0  0  0
  -27.8210  -25.9393   20.3538 O   0  0  0  0  0  0
  -26.5578  -34.8949   22.4764 O   0  0  0  0  0  0
  -23.5465  -32.1077   23.8328 O   0  0  0  0  0  0
  -28.0395  -19.5886   23.9752 C   0  0  0  0  0  0
  -26.7596  -20.1083   23.4730 C   0  0  0  0  0  0
  -27.2798  -19.0034   21.5134 C   0  0  0  0  0  0
  -29.0907  -19.5691   22.9784 C   0  0  0  0  0  0
  -28.6222  -18.6261   21.9338 C   0  0  0  0  0  0
  -26.6292  -20.1809   22.0217 C   0  0  0  0  0  0
  -26.6665  -23.3379   19.9002 C   0  0  0  0  0  0
  -26.9334  -21.9873   20.1496 C   0  0  0  0  0  0
  -25.2885  -23.4880   19.3473 C   0  0  0  0  0  0
  -24.2629  -22.6667   20.0527 C   0  0  0  0  0  0
  -24.7505  -21.7357   21.2607 C   0  0  0  0  0  0
  -29.8408  -20.9990   22.6275 C   0  0  0  0  0  0
  -26.8540  -20.8804   18.9968 C   0  0  0  0  0  0
  -28.8980  -17.0078   21.7652 C   0  0  0  0  0  0
  -27.6782  -24.6017   19.5953 C   0  0  0  0  0  0
  -26.1867  -21.3194   21.2573 N   0  0  0  0  0  0
  -30.2168  -16.2273   21.3880 N   0  0  0  0  0  0
  -24.8984  -24.2428   18.4212 O   0  0  0  0  0  0
  -31.4356  -12.9338   19.2858 H   0  0  0  0  0  0
  -30.5956  -11.7499   20.1811 H   0  0  0  0  0  0
  -29.8705  -11.7106   17.7341 H   0  0  0  0  0  0
  -29.5905  -13.4461   17.8036 H   0  0  0  0  0  0
  -28.0210  -11.2260   19.1839 H   0  0  0  0  0  0
  -27.4278  -12.2686   17.9002 H   0  0  0  0  0  0
  -27.5857  -14.2309   19.3542 H   0  0  0  0  0  0
  -28.5868  -12.4716   21.6349 H   0  0  0  0  0  0
  -28.1955  -14.1563   21.6621 H   0  0  0  0  0  0
  -25.2665   -9.5753   22.4827 H   0  0  0  0  0  0
  -24.0074   -7.4545   22.7448 H   0  0  0  0  0  0
  -21.0808   -8.8652   19.8899 H   0  0  0  0  0  0
  -22.3555  -10.9635   19.6257 H   0  0  0  0  0  0
  -21.1977   -7.6184   23.9766 H   0  0  0  0  0  0
  -21.1478   -6.0519   25.9087 H   0  0  0  0  0  0
  -22.0602   -2.7674   23.2815 H   0  0  0  0  0  0
  -22.3735  -11.9858   22.5091 H   0  0  0  0  0  0
  -21.0679  -13.1184   22.2796 H   0  0  0  0  0  0
  -24.5958  -15.8461   20.5591 H   0  0  0  0  0  0
  -26.2223  -15.6709   20.1370 H   0  0  0  0  0  0
  -26.6646  -32.4795   23.0450 H   0  0  0  0  0  0
  -25.0193  -33.9784   25.0422 H   0  0  0  0  0  0
  -22.6165  -31.2376   21.6536 H   0  0  0  0  0  0
  -23.3970  -35.9402   23.3283 H   0  0  0  0  0  0
  -24.3461  -36.9065   22.1982 H   0  0  0  0  0  0
  -23.6793  -37.6403   23.6686 H   0  0  0  0  0  0
  -26.0641  -31.4900   20.7843 H   0  0  0  0  0  0
  -26.8341  -30.5687   22.1178 H   0  0  0  0  0  0
  -28.0446  -28.6895   21.2368 H   0  0  0  0  0  0
  -25.5843  -25.9196   19.2668 H   0  0  0  0  0  0
  -23.6899  -27.3767   19.3020 H   0  0  0  0  0  0
  -23.5604  -30.7583   19.5935 H   0  0  0  0  0  0
  -22.6886  -29.3572   19.9287 H   0  0  0  0  0  0
  -25.1375  -36.2128   25.0653 H   0  0  0  0  0  0
  -21.1705  -28.1359   24.1343 H   0  0  0  0  0  0
  -20.7340  -25.9852   23.0982 H   0  0  0  0  0  0
  -21.8093  -26.5999   21.8084 H   0  0  0  0  0  0
  -20.0167  -27.4573   20.5902 H   0  0  0  0  0  0
  -19.9437  -25.7070   20.8760 H   0  0  0  0  0  0
  -17.8129  -26.7835   21.0497 H   0  0  0  0  0  0
  -18.1907  -25.9398   22.6237 H   0  0  0  0  0  0
  -19.9008  -30.4832   24.2544 H   0  0  0  0  0  0
  -17.6622  -31.4928   24.3826 H   0  0  0  0  0  0
  -15.6475  -30.0433   23.9299 H   0  0  0  0  0  0
  -16.0649  -27.8030   22.8496 H   0  0  0  0  0  0
  -24.6218  -30.7196   25.7565 H   0  0  0  0  0  0
  -24.8596  -32.3192   26.4261 H   0  0  0  0  0  0
  -25.7814  -30.9477   27.0314 H   0  0  0  0  0  0
  -26.3728  -29.6937   24.1254 H   0  0  0  0  0  0
  -27.3610  -29.7602   25.5553 H   0  0  0  0  0  0
  -27.9865  -30.4498   24.0976 H   0  0  0  0  0  0
  -27.3177  -33.3684   26.2580 H   0  0  0  0  0  0
  -28.4426  -32.6990   25.0994 H   0  0  0  0  0  0
  -28.0710  -31.8336   26.5507 H   0  0  0  0  0  0
  -28.2711  -38.0226   24.7762 H   0  0  0  0  0  0
  -28.1078  -36.2782   24.6151 H   0  0  0  0  0  0
  -27.2261  -37.1468   25.8840 H   0  0  0  0  0  0
  -20.9589  -29.7850   21.7970 H   0  0  0  0  0  0
  -26.0298  -38.3110   24.1760 H   0  0  0  0  0  0
  -28.1800  -19.3029   25.0717 H   0  0  0  0  0  0
  -25.9649  -20.0030   24.2096 H   0  0  0  0  0  0
  -26.6485  -18.1518   21.7209 H   0  0  0  0  0  0
  -23.6820  -22.0362   19.4207 H   0  0  0  0  0  0
  -23.4968  -23.3178   20.4276 H   0  0  0  0  0  0
  -24.0162  -20.8633   21.3368 H   0  0  0  0  0  0
  -24.4039  -22.3398   22.1008 H   0  0  0  0  0  0
  -29.1023  -21.6685   22.3058 H   0  0  0  0  0  0
  -30.6243  -21.0266   21.8844 H   0  0  0  0  0  0
  -30.2287  -21.6173   23.4896 H   0  0  0  0  0  0
  -27.2953  -21.0875   18.0178 H   0  0  0  0  0  0
  -25.8147  -20.5513   18.8801 H   0  0  0  0  0  0
  -27.4550  -19.9962   19.1872 H   0  0  0  0  0  0
  -28.1374  -16.6666   21.0379 H   0  0  0  0  0  0
  -28.5824  -16.7883   22.7870 H   0  0  0  0  0  0
  -27.4705  -24.9624   18.6224 H   0  0  0  0  0  0
  -28.7043  -24.2283   19.5519 H   0  0  0  0  0  0
  -30.9777  -16.7683   21.7375 H   0  0  0  0  0  0
  1 25  1  0  0  0
  1 30  2  0  0  0
  1 87  1  0  0  0
  2  3  1  0  0  0
  2 25  1  0  0  0
  2 89  1  0  0  0
  2 90  1  0  0  0
  3  4  1  0  0  0
  3 91  1  0  0  0
  3 92  1  0  0  0
  4  5  1  0  0  0
  4 93  1  0  0  0
  4 94  1  0  0  0
  5  6  1  0  0  0
  5 26  1  0  0  0
  5 95  1  0  0  0
  6 25  1  0  0  0
  6 96  1  0  0  0
  6 97  1  0  0  0
  7  8  2  0  0  0
  7 26  1  0  0  0
  7 29  1  0  0  0
  8  9  1  0  0  0
  8 22  1  0  0  0
  9 10  1  0  0  0
  9 27  2  0  0  0
 10 11  2  0  0  0
 10 15  1  0  0  0
 11 12  1  0  0  0
 11 98  1  0  0  0
 12 13  2  0  0  0
 12 99  1  0  0  0
 13 14  1  0  0  0
 13 31  1  0  0  0
 14 15  2  0  0  0
 14100  1  0  0  0
 15101  1  0  0  0
 16 17  2  0  0  0
 16 21  1  0  0  0
 16 31  1  0  0  0
 17 18  1  0  0  0
 17102  1  0  0  0
 18 19  2  0  0  0
 18103  1  0  0  0
 19 20  1  0  0  0
 19 24  1  0  0  0
 20 21  2  0  0  0
 20104  1  0  0  0
 21 23  1  0  0  0
 22 28  1  0  0  0
 22 32  2  0  0  0
 26 27  1  0  0  0
 28105  1  0  0  0
 28106  1  0  0  0
 29107  1  0  0  0
 29108  1  0  0  0
 33 34  1  0  0  0
 33 66  1  0  0  0
 33 70  2  0  0  0
 34 36  1  0  0  0
 34 59  1  0  0  0
 34109  1  0  0  0
 35 44  2  0  0  0
 35 45  1  0  0  0
 35 68  1  0  0  0
 36 56  1  0  0  0
 36110  1  0  0  0
 37 39  1  0  0  0
 37 47  1  0  0  0
 37 66  1  0  0  0
 37111  1  0  0  0
 38 43  2  0  0  0
 38 46  1  0  0  0
 38 47  1  0  0  0
 39 64  1  0  0  0
 39 67  2  0  0  0
 40 52  1  0  0  0
 40 53  2  0  0  0
 40 58  1  0  0  0
 41112  1  0  0  0
 41113  1  0  0  0
 41114  1  0  0  0
 41 48  1  0  0  0
 42 43  1  0  0  0
 42 66  1  0  0  0
 42115  1  0  0  0
 42116  1  0  0  0
 43 44  1  0  0  0
 44117  1  0  0  0
 45 46  2  0  0  0
 45118  1  0  0  0
 46119  1  0  0  0
 47120  1  0  0  0
 47121  1  0  0  0
 48 56  1  0  0  0
 48 65  1  0  0  0
 48122  1  0  0  0
 49 50  1  0  0  0
 49 53  1  0  0  0
 49 64  1  0  0  0
 49123  1  0  0  0
 50 51  1  0  0  0
 50124  1  0  0  0
 50125  1  0  0  0
 51 52  1  0  0  0
 51126  1  0  0  0
 51127  1  0  0  0
 52128  1  0  0  0
 52129  1  0  0  0
 53 54  1  0  0  0
 54 55  2  0  0  0
 54130  1  0  0  0
 55 57  1  0  0  0
 55131  1  0  0  0
 56 69  2  0  0  0
 57 58  2  0  0  0
 57132  1  0  0  0
 58133  1  0  0  0
 59 60  1  0  0  0
 59 61  1  0  0  0
 59 62  1  0  0  0
 60134  1  0  0  0
 60135  1  0  0  0
 60136  1  0  0  0
 61137  1  0  0  0
 61138  1  0  0  0
 61139  1  0  0  0
 62140  1  0  0  0
 62141  1  0  0  0
 62142  1  0  0  0
 63 65  1  0  0  0
 63143  1  0  0  0
 63144  1  0  0  0
 63145  1  0  0  0
 64146  1  0  0  0
 65147  1  0  0  0
 68 85  1  0  0  0
 71 72  2  0  0  0
 71 74  1  0  0  0
 71148  1  0  0  0
 72 76  1  0  0  0
 72149  1  0  0  0
 73 75  1  0  0  0
 73 76  2  0  0  0
 73150  1  0  0  0
 74 75  2  0  0  0
 74 82  1  0  0  0
 75 84  1  0  0  0
 76 86  1  0  0  0
 77 78  2  0  0  0
 77 79  1  0  0  0
 77 85  1  0  0  0
 78 83  1  0  0  0
 78 86  1  0  0  0
 79 80  1  0  0  0
 79 88  2  0  0  0
 80 81  1  0  0  0
 80151  1  0  0  0
 80152  1  0  0  0
 81 86  1  0  0  0
 81153  1  0  0  0
 81154  1  0  0  0
 82155  1  0  0  0
 82156  1  0  0  0
 82157  1  0  0  0
 83158  1  0  0  0
 83159  1  0  0  0
 83160  1  0  0  0
 84 87  1  0  0  0
 84161  1  0  0  0
 84162  1  0  0  0
 85163  1  0  0  0
 85164  1  0  0  0
 87165  1  0  0  0
M  ISO  4   1 100  68 101  85 101  87 100
M  END
> <chiral flag>
0

> <version>
0

> <s_m_source_file>
/data/baiqing/PycharmProjects/Reinvent-master-3.2/result/LINK_invent/BTK/process_docking_weight1_custom_product_contain_oxygen_bond_distance_aromatic_linkinvent_7_9_3/rearranged_h_0109.sdf

> <i_m_source_file_index>
96

> <r_mmod_Potential_Energy-OPLS-2005>
1876.51171875

> <r_mmod_Stretch_Energy-OPLS-2005>
406.319946289062

> <r_mmod_Bend_Energy-OPLS-2005>
522.345153808594

> <r_mmod_Torsional_Energy-OPLS-2005>
911.145629882812

> <r_mmod_Improper_Torsional_Energy-OPLS-2005>
51.9377593994141

> <r_mmod_Van_der_Waal_Energy-OPLS-2005>
222.688842773438

> <r_mmod_Electrostatic_Energy-OPLS-2005>
-419.868621826172

> <r_mmod_Solvation_Energy-OPLS-2005>
-218.532821655273

> <b_mmod_Minimization_Converged-OPLS-2005>
0

> <r_mmod_RMS_Derivative-OPLS-2005>
99.9990005493164

$$$$
96
                    3D
 Structure written by MMmdl.
168177  0  0  1  0            999 V2000
  -30.7260  -14.5142   20.6350 C   0  0  0  0  0  0
  -30.4339  -12.3562   19.4449 C   0  0  0  0  0  0
  -29.5066  -12.5227   18.2254 C   0  0  0  0  0  0
  -28.0300  -12.3647   18.6344 C   0  0  0  0  0  0
  -27.6633  -13.2159   19.8791 C   0  0  2  0  0  0
  -28.7038  -13.0253   21.0048 C   0  0  0  0  0  0
  -25.2565  -13.8169   20.5666 C   0  0  0  0  0  0
  -24.1836  -13.0443   20.9183 C   0  0  0  0  0  0
  -24.6420  -11.6921   20.8752 C   0  0  0  0  0  0
  -23.9087  -10.4305   21.0417 C   0  0  0  0  0  0
  -24.3640   -9.4205   21.9182 C   0  0  0  0  0  0
  -23.6314   -8.2247   22.0750 C   0  0  0  0  0  0
  -22.4292   -8.0294   21.3541 C   0  0  0  0  0  0
  -21.9939   -9.0256   20.4621 C   0  0  0  0  0  0
  -22.7277  -10.2144   20.3035 C   0  0  0  0  0  0
  -21.6850   -6.0753   22.5285 C   0  0  0  0  0  0
  -21.4010   -6.5647   23.8226 C   0  0  0  0  0  0
  -21.3659   -5.6783   24.9182 C   0  0  0  0  0  0
  -21.6043   -4.3054   24.7220 C   0  0  0  0  0  0
  -21.8822   -3.8158   23.4330 C   0  0  0  0  0  0
  -21.9195   -4.6975   22.3396 C   0  0  0  0  0  0
  -22.7845  -13.5209   21.1864 C   0  0  0  0  0  0
  -22.1662   -4.2172   21.0962 F   0  0  0  0  0  0
  -21.5629   -3.4523   25.7724 F   0  0  0  0  0  0
  -30.0329  -13.3506   20.4564 N   0  0  0  0  0  0
  -26.3042  -12.9373   20.3387 N   0  0  0  0  0  0
  -25.9356  -11.6531   20.5799 N   0  0  0  0  0  0
  -22.0481  -12.8175   22.0384 N   0  0  0  0  0  0
  -25.4212  -15.1894   20.4003 N   0  0  0  0  0  0
  -31.8304  -14.7049   20.1189 O   0  0  0  0  0  0
  -21.6649   -6.8905   21.4256 O   0  0  0  0  0  0
  -22.3535  -14.5531   20.6738 O   0  0  0  0  0  0
  -24.6143  -31.8685   23.2152 C   0  0  0  0  0  0
  -25.9016  -32.4844   23.8436 C   0  0  1  0  0  0
  -27.2261  -27.4115   20.1020 C   0  0  0  0  0  0
  -25.5851  -33.8643   24.2333 N   0  0  0  0  0  0
  -23.4017  -30.4997   21.5518 C   0  0  2  0  0  0
  -24.8466  -28.9707   20.1160 C   0  0  0  0  0  0
  -22.7391  -29.4694   22.4933 C   0  0  0  0  0  0
  -18.0269  -28.1442   22.8513 C   0  0  0  0  0  0
  -24.1483  -36.7333   23.2652 C   0  0  0  0  0  0
  -25.9364  -30.8265   21.3753 C   0  0  0  0  0  0
  -26.0111  -29.4628   20.7164 C   0  0  0  0  0  0
  -27.2031  -28.6962   20.7004 C   0  0  0  0  0  0
  -26.0253  -26.9416   19.5066 C   0  0  0  0  0  0
  -24.8504  -27.7086   19.5066 C   0  0  0  0  0  0
  -23.6139  -29.8433   20.1624 C   0  0  0  0  0  0
  -25.4111  -36.3138   24.0345 C   0  0  1  0  0  0
  -20.5854  -28.3729   23.1326 C   0  0  2  0  0  0
  -20.6760  -26.9456   22.5455 C   0  0  0  0  0  0
  -19.5731  -26.6436   21.5258 C   0  0  0  0  0  0
  -18.1899  -26.7993   22.1635 C   0  0  0  0  0  0
  -19.1517  -28.8902   23.2918 C   0  0  0  0  0  0
  -18.9443  -30.1505   23.8955 C   0  0  0  0  0  0
  -17.6450  -30.6644   24.0621 C   0  0  0  0  0  0
  -25.9027  -34.9492   23.5143 C   0  0  0  0  0  0
  -16.5347  -29.9166   23.6342 C   0  0  0  0  0  0
  -16.7261  -28.6575   23.0360 C   0  0  0  0  0  0
  -26.4426  -31.6641   25.0780 C   0  0  0  0  0  0
  -25.3691  -31.3683   26.1519 C   0  0  0  0  0  0
  -27.0300  -30.3102   24.6183 C   0  0  0  0  0  0
  -27.5960  -32.4399   25.7541 C   0  0  0  0  0  0
  -27.5584  -37.1846   24.8465 C   0  0  0  0  0  0
  -21.4115  -29.3081   22.3703 N   0  0  0  0  0  0
  -26.4296  -37.3832   23.9417 N   0  0  0  0  0  0
  -24.6693  -31.0784   22.1052 N   0  0  0  0  0  0
  -23.4173  -28.8189   23.2930 O   0  0  0  0  0  0
  -28.3889  -26.6459   20.1228 O   0  0  0  0  0  0
  -26.5599  -34.8937   22.4707 O   0  0  0  0  0  0
  -23.5351  -32.1401   23.7574 O   0  0  0  0  0  0
  -31.8548  -18.8680   21.5969 C   0  0  0  0  0  0
  -31.8524  -20.2433   21.2723 C   0  0  0  0  0  0
  -29.4928  -20.1254   20.8298 C   0  0  0  0  0  0
  -30.6831  -18.0755   21.5469 C   0  0  0  0  0  0
  -29.4791  -18.7379   21.1682 C   0  0  0  0  0  0
  -30.6713  -20.9183   20.8759 C   0  0  0  0  0  0
  -29.4772  -24.3381   19.8729 C   0  0  0  0  0  0
  -29.6291  -23.2398   20.6781 C   0  0  0  0  0  0
  -30.4807  -24.6181   18.8153 C   0  0  0  0  0  0
  -31.6030  -23.6066   18.5964 C   0  0  0  0  0  0
  -31.9032  -22.7640   19.8462 C   0  0  0  0  0  0
  -28.7113  -22.9843   21.8689 C   0  0  0  0  0  0
  -27.5142  -17.9872   22.5765 C   0  0  0  0  0  0
  -28.1339  -18.0268   21.1753 C   0  0  0  0  0  0
  -30.7950  -16.6110   22.0685 C   0  0  0  0  0  0
  -28.2244  -25.2363   19.8306 C   0  0  0  0  0  0
  -30.6876  -22.3135   20.5394 N   0  0  0  0  0  0
  -30.1334  -15.4690   21.3892 N   0  0  0  0  0  0
  -30.4470  -25.6157   18.0859 O   0  0  0  0  0  0
  -31.4763  -12.4657   19.1455 H   0  0  0  0  0  0
  -30.3530  -11.3514   19.8610 H   0  0  0  0  0  0
  -29.7608  -11.7938   17.4558 H   0  0  0  0  0  0
  -29.6619  -13.5081   17.7825 H   0  0  0  0  0  0
  -27.8593  -11.3080   18.8493 H   0  0  0  0  0  0
  -27.3782  -12.6167   17.7980 H   0  0  0  0  0  0
  -27.6980  -14.2599   19.5693 H   0  0  0  0  0  0
  -28.6985  -11.9927   21.3563 H   0  0  0  0  0  0
  -28.4477  -13.6303   21.8740 H   0  0  0  0  0  0
  -25.2793   -9.5683   22.4752 H   0  0  0  0  0  0
  -24.0021   -7.4636   22.7473 H   0  0  0  0  0  0
  -21.0886   -8.8790   19.8899 H   0  0  0  0  0  0
  -22.3759  -10.9695   19.6135 H   0  0  0  0  0  0
  -21.1996   -7.6153   23.9738 H   0  0  0  0  0  0
  -21.1476   -6.0508   25.9084 H   0  0  0  0  0  0
  -22.0599   -2.7615   23.2832 H   0  0  0  0  0  0
  -22.4106  -11.9838   22.4772 H   0  0  0  0  0  0
  -21.1076  -13.1175   22.2567 H   0  0  0  0  0  0
  -24.6418  -15.8346   20.4697 H   0  0  0  0  0  0
  -26.2567  -15.6205   20.0270 H   0  0  0  0  0  0
  -26.7069  -32.5543   23.1178 H   0  0  0  0  0  0
  -24.9909  -33.9810   25.0418 H   0  0  0  0  0  0
  -22.6912  -31.3173   21.4152 H   0  0  0  0  0  0
  -23.3763  -35.9653   23.3327 H   0  0  0  0  0  0
  -24.3555  -36.8961   22.2062 H   0  0  0  0  0  0
  -23.7219  -37.6526   23.6679 H   0  0  0  0  0  0
  -26.0553  -31.5930   20.6104 H   0  0  0  0  0  0
  -26.8259  -30.8768   21.9946 H   0  0  0  0  0  0
  -28.0998  -29.0799   21.1679 H   0  0  0  0  0  0
  -25.9488  -25.9741   19.0366 H   0  0  0  0  0  0
  -23.9538  -27.3188   19.0435 H   0  0  0  0  0  0
  -23.7357  -30.6308   19.4168 H   0  0  0  0  0  0
  -22.7360  -29.2743   19.8501 H   0  0  0  0  0  0
  -25.1291  -36.2009   25.0843 H   0  0  0  0  0  0
  -20.9941  -28.3368   24.1455 H   0  0  0  0  0  0
  -20.5707  -26.2347   23.3660 H   0  0  0  0  0  0
  -21.6622  -26.7543   22.1224 H   0  0  0  0  0  0
  -19.6902  -25.6357   21.1261 H   0  0  0  0  0  0
  -19.6689  -27.3276   20.6815 H   0  0  0  0  0  0
  -17.4164  -26.6785   21.4027 H   0  0  0  0  0  0
  -18.0256  -26.0156   22.9032 H   0  0  0  0  0  0
  -19.7929  -30.7297   24.2356 H   0  0  0  0  0  0
  -17.5011  -31.6311   24.5248 H   0  0  0  0  0  0
  -15.5347  -30.3080   23.7668 H   0  0  0  0  0  0
  -15.8641  -28.0932   22.7055 H   0  0  0  0  0  0
  -24.5981  -30.6876   25.7871 H   0  0  0  0  0  0
  -24.8714  -32.2783   26.4884 H   0  0  0  0  0  0
  -25.8070  -30.8970   27.0334 H   0  0  0  0  0  0
  -26.2895  -29.6853   24.1176 H   0  0  0  0  0  0
  -27.3997  -29.7332   25.4667 H   0  0  0  0  0  0
  -27.8743  -30.4432   23.9419 H   0  0  0  0  0  0
  -27.2554  -33.3721   26.2066 H   0  0  0  0  0  0
  -28.3787  -32.6938   25.0379 H   0  0  0  0  0  0
  -28.0615  -31.8572   26.5508 H   0  0  0  0  0  0
  -28.2585  -38.0157   24.7527 H   0  0  0  0  0  0
  -28.1097  -36.2674   24.6297 H   0  0  0  0  0  0
  -27.2286  -37.1530   25.8867 H   0  0  0  0  0  0
  -20.9234  -29.8812   21.6957 H   0  0  0  0  0  0
  -26.0174  -38.2893   24.1494 H   0  0  0  0  0  0
  -32.7870  -18.4352   21.9289 H   0  0  0  0  0  0
  -32.7850  -20.7830   21.3633 H   0  0  0  0  0  0
  -28.5603  -20.5936   20.5480 H   0  0  0  0  0  0
  -32.5039  -24.1307   18.2717 H   0  0  0  0  0  0
  -31.3043  -22.9573   17.7756 H   0  0  0  0  0  0
  -32.5048  -23.3511   20.5417 H   0  0  0  0  0  0
  -32.5281  -21.9345   19.5188 H   0  0  0  0  0  0
  -27.7705  -22.5196   21.5747 H   0  0  0  0  0  0
  -28.4858  -23.9191   22.3815 H   0  0  0  0  0  0
  -29.1883  -22.3491   22.6169 H   0  0  0  0  0  0
  -26.5351  -17.5076   22.5600 H   0  0  0  0  0  0
  -27.3848  -18.9961   22.9701 H   0  0  0  0  0  0
  -28.1412  -17.4347   23.2757 H   0  0  0  0  0  0
  -28.2210  -17.0213   20.7690 H   0  0  0  0  0  0
  -27.4503  -18.5447   20.5012 H   0  0  0  0  0  0
  -30.4024  -16.6249   23.0874 H   0  0  0  0  0  0
  -31.8507  -16.3631   22.1955 H   0  0  0  0  0  0
  -27.4561  -24.8217   20.4806 H   0  0  0  0  0  0
  -27.8542  -25.1357   18.8102 H   0  0  0  0  0  0
  -29.2095  -15.2396   21.7233 H   0  0  0  0  0  0
  1 25  1  0  0  0
  1 30  2  0  0  0
  1 88  1  0  0  0
  2  3  1  0  0  0
  2 25  1  0  0  0
  2 90  1  0  0  0
  2 91  1  0  0  0
  3  4  1  0  0  0
  3 92  1  0  0  0
  3 93  1  0  0  0
  4  5  1  0  0  0
  4 94  1  0  0  0
  4 95  1  0  0  0
  5  6  1  0  0  0
  5 26  1  0  0  0
  5 96  1  0  0  0
  6 25  1  0  0  0
  6 97  1  0  0  0
  6 98  1  0  0  0
  7  8  2  0  0  0
  7 26  1  0  0  0
  7 29  1  0  0  0
  8  9  1  0  0  0
  8 22  1  0  0  0
  9 10  1  0  0  0
  9 27  2  0  0  0
 10 11  2  0  0  0
 10 15  1  0  0  0
 11 12  1  0  0  0
 11 99  1  0  0  0
 12 13  2  0  0  0
 12100  1  0  0  0
 13 14  1  0  0  0
 13 31  1  0  0  0
 14 15  2  0  0  0
 14101  1  0  0  0
 15102  1  0  0  0
 16 17  2  0  0  0
 16 21  1  0  0  0
 16 31  1  0  0  0
 17 18  1  0  0  0
 17103  1  0  0  0
 18 19  2  0  0  0
 18104  1  0  0  0
 19 20  1  0  0  0
 19 24  1  0  0  0
 20 21  2  0  0  0
 20105  1  0  0  0
 21 23  1  0  0  0
 22 28  1  0  0  0
 22 32  2  0  0  0
 26 27  1  0  0  0
 28106  1  0  0  0
 28107  1  0  0  0
 29108  1  0  0  0
 29109  1  0  0  0
 33 34  1  0  0  0
 33 66  1  0  0  0
 33 70  2  0  0  0
 34 36  1  0  0  0
 34 59  1  0  0  0
 34110  1  0  0  0
 35 44  2  0  0  0
 35 45  1  0  0  0
 35 68  1  0  0  0
 36 56  1  0  0  0
 36111  1  0  0  0
 37 39  1  0  0  0
 37 47  1  0  0  0
 37 66  1  0  0  0
 37112  1  0  0  0
 38 43  2  0  0  0
 38 46  1  0  0  0
 38 47  1  0  0  0
 39 64  1  0  0  0
 39 67  2  0  0  0
 40 52  1  0  0  0
 40 53  2  0  0  0
 40 58  1  0  0  0
 41113  1  0  0  0
 41114  1  0  0  0
 41115  1  0  0  0
 41 48  1  0  0  0
 42 43  1  0  0  0
 42 66  1  0  0  0
 42116  1  0  0  0
 42117  1  0  0  0
 43 44  1  0  0  0
 44118  1  0  0  0
 45 46  2  0  0  0
 45119  1  0  0  0
 46120  1  0  0  0
 47121  1  0  0  0
 47122  1  0  0  0
 48 56  1  0  0  0
 48 65  1  0  0  0
 48123  1  0  0  0
 49 50  1  0  0  0
 49 53  1  0  0  0
 49 64  1  0  0  0
 49124  1  0  0  0
 50 51  1  0  0  0
 50125  1  0  0  0
 50126  1  0  0  0
 51 52  1  0  0  0
 51127  1  0  0  0
 51128  1  0  0  0
 52129  1  0  0  0
 52130  1  0  0  0
 53 54  1  0  0  0
 54 55  2  0  0  0
 54131  1  0  0  0
 55 57  1  0  0  0
 55132  1  0  0  0
 56 69  2  0  0  0
 57 58  2  0  0  0
 57133  1  0  0  0
 58134  1  0  0  0
 59 60  1  0  0  0
 59 61  1  0  0  0
 59 62  1  0  0  0
 60135  1  0  0  0
 60136  1  0  0  0
 60137  1  0  0  0
 61138  1  0  0  0
 61139  1  0  0  0
 61140  1  0  0  0
 62141  1  0  0  0
 62142  1  0  0  0
 62143  1  0  0  0
 63 65  1  0  0  0
 63144  1  0  0  0
 63145  1  0  0  0
 63146  1  0  0  0
 64147  1  0  0  0
 65148  1  0  0  0
 68 86  1  0  0  0
 71 72  2  0  0  0
 71 74  1  0  0  0
 71149  1  0  0  0
 72 76  1  0  0  0
 72150  1  0  0  0
 73 75  1  0  0  0
 73 76  2  0  0  0
 73151  1  0  0  0
 74 75  2  0  0  0
 74 85  1  0  0  0
 75 84  1  0  0  0
 76 87  1  0  0  0
 77 78  2  0  0  0
 77 79  1  0  0  0
 77 86  1  0  0  0
 78 82  1  0  0  0
 78 87  1  0  0  0
 79 80  1  0  0  0
 79 89  2  0  0  0
 80 81  1  0  0  0
 80152  1  0  0  0
 80153  1  0  0  0
 81 87  1  0  0  0
 81154  1  0  0  0
 81155  1  0  0  0
 82156  1  0  0  0
 82157  1  0  0  0
 82158  1  0  0  0
 83 84  1  0  0  0
 83159  1  0  0  0
 83160  1  0  0  0
 83161  1  0  0  0
 84162  1  0  0  0
 84163  1  0  0  0
 85 88  1  0  0  0
 85164  1  0  0  0
 85165  1  0  0  0
 86166  1  0  0  0
 86167  1  0  0  0
 88168  1  0  0  0
M  ISO  4   1 100  68 101  86 101  88 100
M  END
> <chiral flag>
0

> <version>
0

> <s_m_source_file>
/data/baiqing/PycharmProjects/Reinvent-master-3.2/result/LINK_invent/BTK/process_docking_weight1_custom_product_contain_oxygen_bond_distance_aromatic_linkinvent_7_9_3/rearranged_h_0109.sdf

> <i_m_source_file_index>
97

> <r_mmod_Potential_Energy-OPLS-2005>
-53.6329689025879

> <r_mmod_Stretch_Energy-OPLS-2005>
56.3611755371094

> <r_mmod_Bend_Energy-OPLS-2005>
124.890037536621

> <r_mmod_Torsional_Energy-OPLS-2005>
189.008819580078

> <r_mmod_Improper_Torsional_Energy-OPLS-2005>
3.84722709655762

> <r_mmod_Van_der_Waal_Energy-OPLS-2005>
176.61442565918

> <r_mmod_Electrostatic_Energy-OPLS-2005>
-399.377593994141

> <r_mmod_Solvation_Energy-OPLS-2005>
-223.345031738281

> <b_mmod_Minimization_Converged-OPLS-2005>
0

> <r_mmod_RMS_Derivative-OPLS-2005>
3.59629821777344

$$$$
97
                    3D
 Structure written by MMmdl.
160168  0  0  1  0            999 V2000
  -30.6322  -14.5644   20.4818 C   0  0  0  0  0  0
  -30.4323  -12.3324   19.4542 C   0  0  0  0  0  0
  -29.5087  -12.4924   18.2255 C   0  0  0  0  0  0
  -28.0267  -12.3415   18.6259 C   0  0  0  0  0  0
  -27.6525  -13.2053   19.8588 C   0  0  2  0  0  0
  -28.6917  -13.0373   20.9875 C   0  0  0  0  0  0
  -25.2572  -13.8138   20.5675 C   0  0  0  0  0  0
  -24.1822  -13.0429   20.9169 C   0  0  0  0  0  0
  -24.6370  -11.6890   20.8720 C   0  0  0  0  0  0
  -23.9040  -10.4284   21.0396 C   0  0  0  0  0  0
  -24.3595   -9.4202   21.9179 C   0  0  0  0  0  0
  -23.6280   -8.2234   22.0751 C   0  0  0  0  0  0
  -22.4267   -8.0266   21.3538 C   0  0  0  0  0  0
  -21.9890   -9.0235   20.4645 C   0  0  0  0  0  0
  -22.7209  -10.2119   20.3051 C   0  0  0  0  0  0
  -21.6848   -6.0728   22.5276 C   0  0  0  0  0  0
  -21.4011   -6.5637   23.8209 C   0  0  0  0  0  0
  -21.3660   -5.6791   24.9173 C   0  0  0  0  0  0
  -21.6048   -4.3055   24.7225 C   0  0  0  0  0  0
  -21.8817   -3.8143   23.4348 C   0  0  0  0  0  0
  -21.9191   -4.6957   22.3403 C   0  0  0  0  0  0
  -22.7847  -13.5226   21.1849 C   0  0  0  0  0  0
  -22.1661   -4.2147   21.0979 F   0  0  0  0  0  0
  -21.5632   -3.4537   25.7737 F   0  0  0  0  0  0
  -30.0241  -13.3437   20.4442 N   0  0  0  0  0  0
  -26.2975  -12.9294   20.3282 N   0  0  0  0  0  0
  -25.9286  -11.6458   20.5715 N   0  0  0  0  0  0
  -22.0506  -12.8223   22.0414 N   0  0  0  0  0  0
  -25.4349  -15.1859   20.4141 N   0  0  0  0  0  0
  -31.8278  -14.6721   20.1940 O   0  0  0  0  0  0
  -21.6631   -6.8866   21.4238 O   0  0  0  0  0  0
  -22.3534  -14.5543   20.6712 O   0  0  0  0  0  0
  -24.6173  -31.8643   23.2081 C   0  0  0  0  0  0
  -25.9040  -32.4811   23.8386 C   0  0  1  0  0  0
  -27.2246  -27.3865   20.0959 C   0  0  0  0  0  0
  -25.5894  -33.8614   24.2318 N   0  0  0  0  0  0
  -23.4063  -30.4875   21.5494 C   0  0  2  0  0  0
  -24.8490  -28.9467   20.1142 C   0  0  0  0  0  0
  -22.7433  -29.4626   22.4984 C   0  0  0  0  0  0
  -18.0264  -28.1367   22.8484 C   0  0  0  0  0  0
  -24.1477  -36.7319   23.2640 C   0  0  0  0  0  0
  -25.9377  -30.8171   21.3638 C   0  0  0  0  0  0
  -26.0111  -29.4464   20.7121 C   0  0  0  0  0  0
  -27.1975  -28.6715   20.6980 C   0  0  0  0  0  0
  -26.0365  -26.9073   19.4982 C   0  0  0  0  0  0
  -24.8584  -27.6806   19.5041 C   0  0  0  0  0  0
  -23.6143  -29.8185   20.1637 C   0  0  0  0  0  0
  -25.4097  -36.3124   24.0343 C   0  0  1  0  0  0
  -20.5867  -28.3654   23.1321 C   0  0  2  0  0  0
  -20.6748  -26.9388   22.5420 C   0  0  0  0  0  0
  -19.5725  -26.6375   21.5208 C   0  0  0  0  0  0
  -18.1907  -26.7906   22.1617 C   0  0  0  0  0  0
  -19.1519  -28.8821   23.2892 C   0  0  0  0  0  0
  -18.9445  -30.1431   23.8895 C   0  0  0  0  0  0
  -17.6447  -30.6578   24.0558 C   0  0  0  0  0  0
  -25.9031  -34.9480   23.5132 C   0  0  0  0  0  0
  -16.5335  -29.9084   23.6323 C   0  0  0  0  0  0
  -16.7252  -28.6501   23.0337 C   0  0  0  0  0  0
  -26.4462  -31.6594   25.0713 C   0  0  0  0  0  0
  -25.3726  -31.3681   26.1459 C   0  0  0  0  0  0
  -27.0293  -30.3044   24.6088 C   0  0  0  0  0  0
  -27.6061  -32.4287   25.7462 C   0  0  0  0  0  0
  -27.5573  -37.1809   24.8469 C   0  0  0  0  0  0
  -21.4160  -29.3027   22.3739 N   0  0  0  0  0  0
  -26.4292  -37.3802   23.9418 N   0  0  0  0  0  0
  -24.6727  -31.0728   22.0985 N   0  0  0  0  0  0
  -23.4186  -28.8148   23.3025 O   0  0  0  0  0  0
  -28.4036  -26.6568   20.1338 O   0  0  0  0  0  0
  -26.5598  -34.8934   22.4701 O   0  0  0  0  0  0
  -23.5362  -32.1390   23.7480 O   0  0  0  0  0  0
  -28.3253  -19.1692   18.0391 C   0  0  0  0  0  0
  -29.3927  -19.2832   20.6073 C   0  0  0  0  0  0
  -28.8970  -18.0011   18.5906 C   0  0  0  0  0  0
  -29.4457  -18.0400   19.9058 C   0  0  0  0  0  0
  -28.2656  -20.3921   18.7449 C   0  0  0  0  0  0
  -28.8287  -20.4683   20.0426 C   0  0  0  0  0  0
  -29.1108  -16.8112   16.3828 C   0  0  0  0  0  0
  -28.9913  -16.8044   17.7220 C   0  0  0  0  0  0
  -30.1865  -16.8463   20.4670 C   0  0  0  0  0  0
  -27.5568  -21.6076   16.8000 C   0  0  0  0  0  0
  -28.2014  -24.0967   20.3535 C   0  0  0  0  0  0
  -28.5330  -25.3616   19.4963 C   0  0  0  0  0  0
  -29.1914  -22.9000   20.1444 C   0  0  0  0  0  0
  -29.7310  -15.6428   20.5842 N   0  0  0  0  0  0
  -27.6474  -21.5064   18.2174 O   0  0  0  0  0  0
  -28.8120  -21.6512   20.7826 O   0  0  0  0  0  0
  -31.4777  -12.4350   19.1581 H   0  0  0  0  0  0
  -30.3396  -11.3326   19.8808 H   0  0  0  0  0  0
  -29.7668  -11.7559   17.4643 H   0  0  0  0  0  0
  -29.6668  -13.4710   17.7707 H   0  0  0  0  0  0
  -27.8492  -11.2885   18.8464 H   0  0  0  0  0  0
  -27.3802  -12.5876   17.7836 H   0  0  0  0  0  0
  -27.6765  -14.2429   19.5292 H   0  0  0  0  0  0
  -28.6751  -12.0159   21.3703 H   0  0  0  0  0  0
  -28.4517  -13.6806   21.8363 H   0  0  0  0  0  0
  -25.2744   -9.5681   22.4751 H   0  0  0  0  0  0
  -23.9998   -7.4620   22.7460 H   0  0  0  0  0  0
  -21.0827   -8.8738   19.8945 H   0  0  0  0  0  0
  -22.3664  -10.9651   19.6154 H   0  0  0  0  0  0
  -21.1999   -7.6144   23.9711 H   0  0  0  0  0  0
  -21.1491   -6.0523   25.9077 H   0  0  0  0  0  0
  -22.0600   -2.7608   23.2843 H   0  0  0  0  0  0
  -22.4129  -11.9881   22.4790 H   0  0  0  0  0  0
  -21.1122  -13.1235   22.2638 H   0  0  0  0  0  0
  -24.6842  -15.8550   20.5425 H   0  0  0  0  0  0
  -26.3153  -15.6144   20.1536 H   0  0  0  0  0  0
  -26.7102  -32.5488   23.1138 H   0  0  0  0  0  0
  -25.0039  -33.9767   25.0465 H   0  0  0  0  0  0
  -22.6941  -31.3038   21.4091 H   0  0  0  0  0  0
  -23.3739  -35.9655   23.3316 H   0  0  0  0  0  0
  -24.3575  -36.8916   22.2055 H   0  0  0  0  0  0
  -23.7216  -37.6524   23.6643 H   0  0  0  0  0  0
  -26.0464  -31.5808   20.5935 H   0  0  0  0  0  0
  -26.8274  -30.8762   21.9770 H   0  0  0  0  0  0
  -28.0953  -29.0497   21.1651 H   0  0  0  0  0  0
  -25.9876  -25.9323   19.0376 H   0  0  0  0  0  0
  -23.9591  -27.2936   19.0426 H   0  0  0  0  0  0
  -23.7264  -30.5900   19.4019 H   0  0  0  0  0  0
  -22.7352  -29.2439   19.8678 H   0  0  0  0  0  0
  -25.1269  -36.2002   25.0839 H   0  0  0  0  0  0
  -20.9933  -28.3207   24.1443 H   0  0  0  0  0  0
  -20.5640  -26.2255   23.3604 H   0  0  0  0  0  0
  -21.6622  -26.7413   22.1212 H   0  0  0  0  0  0
  -19.6896  -25.6293   21.1213 H   0  0  0  0  0  0
  -19.6671  -27.3207   20.6757 H   0  0  0  0  0  0
  -17.4178  -26.6648   21.4025 H   0  0  0  0  0  0
  -18.0316  -26.0052   22.9014 H   0  0  0  0  0  0
  -19.7927  -30.7249   24.2264 H   0  0  0  0  0  0
  -17.5005  -31.6254   24.5166 H   0  0  0  0  0  0
  -15.5341  -30.2979   23.7657 H   0  0  0  0  0  0
  -15.8644  -28.0827   22.7041 H   0  0  0  0  0  0
  -24.5934  -30.6989   25.7779 H   0  0  0  0  0  0
  -24.8864  -32.2826   26.4893 H   0  0  0  0  0  0
  -25.8082  -30.8856   27.0228 H   0  0  0  0  0  0
  -26.2841  -29.6802   24.1140 H   0  0  0  0  0  0
  -27.4061  -29.7280   25.4552 H   0  0  0  0  0  0
  -27.8680  -30.4368   23.9235 H   0  0  0  0  0  0
  -27.2737  -33.3611   26.2053 H   0  0  0  0  0  0
  -28.3875  -32.6804   25.0266 H   0  0  0  0  0  0
  -28.0740  -31.8379   26.5360 H   0  0  0  0  0  0
  -28.2611  -38.0084   24.7516 H   0  0  0  0  0  0
  -28.1041  -36.2622   24.6303 H   0  0  0  0  0  0
  -27.2294  -37.1472   25.8869 H   0  0  0  0  0  0
  -20.9328  -29.8788   21.6988 H   0  0  0  0  0  0
  -26.0184  -38.2888   24.1406 H   0  0  0  0  0  0
  -27.9036  -19.1067   17.0479 H   0  0  0  0  0  0
  -29.8247  -19.3389   21.5963 H   0  0  0  0  0  0
  -29.1568  -15.8819   15.8326 H   0  0  0  0  0  0
  -29.1750  -17.7250   15.8106 H   0  0  0  0  0  0
  -28.9310  -15.8377   18.1960 H   0  0  0  0  0  0
  -31.2294  -17.0659   20.7178 H   0  0  0  0  0  0
  -27.3057  -22.6312   16.5249 H   0  0  0  0  0  0
  -26.7781  -20.9559   16.4028 H   0  0  0  0  0  0
  -28.5069  -21.3670   16.3189 H   0  0  0  0  0  0
  -27.1809  -23.7814   20.1320 H   0  0  0  0  0  0
  -28.2055  -24.3617   21.4107 H   0  0  0  0  0  0
  -29.5871  -25.2992   19.2287 H   0  0  0  0  0  0
  -28.0167  -25.3272   18.5362 H   0  0  0  0  0  0
  -30.1490  -23.1870   20.5818 H   0  0  0  0  0  0
  -29.4263  -22.7767   19.0889 H   0  0  0  0  0  0
  1 25  1  0  0  0
  1 30  2  0  0  0
  1 84  1  0  0  0
  2  3  1  0  0  0
  2 25  1  0  0  0
  2 87  1  0  0  0
  2 88  1  0  0  0
  3  4  1  0  0  0
  3 89  1  0  0  0
  3 90  1  0  0  0
  4  5  1  0  0  0
  4 91  1  0  0  0
  4 92  1  0  0  0
  5  6  1  0  0  0
  5 26  1  0  0  0
  5 93  1  0  0  0
  6 25  1  0  0  0
  6 94  1  0  0  0
  6 95  1  0  0  0
  7  8  2  0  0  0
  7 26  1  0  0  0
  7 29  1  0  0  0
  8  9  1  0  0  0
  8 22  1  0  0  0
  9 10  1  0  0  0
  9 27  2  0  0  0
 10 11  2  0  0  0
 10 15  1  0  0  0
 11 12  1  0  0  0
 11 96  1  0  0  0
 12 13  2  0  0  0
 12 97  1  0  0  0
 13 14  1  0  0  0
 13 31  1  0  0  0
 14 15  2  0  0  0
 14 98  1  0  0  0
 15 99  1  0  0  0
 16 17  2  0  0  0
 16 21  1  0  0  0
 16 31  1  0  0  0
 17 18  1  0  0  0
 17100  1  0  0  0
 18 19  2  0  0  0
 18101  1  0  0  0
 19 20  1  0  0  0
 19 24  1  0  0  0
 20 21  2  0  0  0
 20102  1  0  0  0
 21 23  1  0  0  0
 22 28  1  0  0  0
 22 32  2  0  0  0
 26 27  1  0  0  0
 28103  1  0  0  0
 28104  1  0  0  0
 29105  1  0  0  0
 29106  1  0  0  0
 33 34  1  0  0  0
 33 66  1  0  0  0
 33 70  2  0  0  0
 34 36  1  0  0  0
 34 59  1  0  0  0
 34107  1  0  0  0
 35 44  2  0  0  0
 35 45  1  0  0  0
 35 68  1  0  0  0
 36 56  1  0  0  0
 36108  1  0  0  0
 37 39  1  0  0  0
 37 47  1  0  0  0
 37 66  1  0  0  0
 37109  1  0  0  0
 38 43  2  0  0  0
 38 46  1  0  0  0
 38 47  1  0  0  0
 39 64  1  0  0  0
 39 67  2  0  0  0
 40 52  1  0  0  0
 40 53  2  0  0  0
 40 58  1  0  0  0
 41110  1  0  0  0
 41111  1  0  0  0
 41112  1  0  0  0
 41 48  1  0  0  0
 42 43  1  0  0  0
 42 66  1  0  0  0
 42113  1  0  0  0
 42114  1  0  0  0
 43 44  1  0  0  0
 44115  1  0  0  0
 45 46  2  0  0  0
 45116  1  0  0  0
 46117  1  0  0  0
 47118  1  0  0  0
 47119  1  0  0  0
 48 56  1  0  0  0
 48 65  1  0  0  0
 48120  1  0  0  0
 49 50  1  0  0  0
 49 53  1  0  0  0
 49 64  1  0  0  0
 49121  1  0  0  0
 50 51  1  0  0  0
 50122  1  0  0  0
 50123  1  0  0  0
 51 52  1  0  0  0
 51124  1  0  0  0
 51125  1  0  0  0
 52126  1  0  0  0
 52127  1  0  0  0
 53 54  1  0  0  0
 54 55  2  0  0  0
 54128  1  0  0  0
 55 57  1  0  0  0
 55129  1  0  0  0
 56 69  2  0  0  0
 57 58  2  0  0  0
 57130  1  0  0  0
 58131  1  0  0  0
 59 60  1  0  0  0
 59 61  1  0  0  0
 59 62  1  0  0  0
 60132  1  0  0  0
 60133  1  0  0  0
 60134  1  0  0  0
 61135  1  0  0  0
 61136  1  0  0  0
 61137  1  0  0  0
 62138  1  0  0  0
 62139  1  0  0  0
 62140  1  0  0  0
 63 65  1  0  0  0
 63141  1  0  0  0
 63142  1  0  0  0
 63143  1  0  0  0
 64144  1  0  0  0
 65145  1  0  0  0
 68 82  1  0  0  0
 71 73  2  0  0  0
 71 75  1  0  0  0
 71146  1  0  0  0
 72 74  2  0  0  0
 72 76  1  0  0  0
 72147  1  0  0  0
 73 74  1  0  0  0
 73 78  1  0  0  0
 74 79  1  0  0  0
 75 76  2  0  0  0
 75 85  1  0  0  0
 76 86  1  0  0  0
 77 78  2  0  0  0
 77148  1  0  0  0
 77149  1  0  0  0
 78150  1  0  0  0
 79 84  2  0  0  0
 79151  1  0  0  0
 80 85  1  0  0  0
 80152  1  0  0  0
 80153  1  0  0  0
 80154  1  0  0  0
 81 82  1  0  0  0
 81 83  1  0  0  0
 81155  1  0  0  0
 81156  1  0  0  0
 82157  1  0  0  0
 82158  1  0  0  0
 83 86  1  0  0  0
 83159  1  0  0  0
 83160  1  0  0  0
M  ISO  4   1 100  68 101  82 101  84 100
M  END
> <chiral flag>
0

> <version>
0

> <s_m_source_file>
/data/baiqing/PycharmProjects/Reinvent-master-3.2/result/LINK_invent/BTK/process_docking_weight1_custom_product_contain_oxygen_bond_distance_aromatic_linkinvent_7_9_3/rearranged_h_0109.sdf

> <i_m_source_file_index>
98

> <r_mmod_Potential_Energy-OPLS-2005>
86.6228332519531

> <r_mmod_Stretch_Energy-OPLS-2005>
55.8655433654785

> <r_mmod_Bend_Energy-OPLS-2005>
126.720886230469

> <r_mmod_Torsional_Energy-OPLS-2005>
244.837738037109

> <r_mmod_Improper_Torsional_Energy-OPLS-2005>
8.29138660430908

> <r_mmod_Van_der_Waal_Energy-OPLS-2005>
169.665390014648

> <r_mmod_Electrostatic_Energy-OPLS-2005>
-357.617309570312

> <r_mmod_Solvation_Energy-OPLS-2005>
-189.024154663086

> <b_mmod_Minimization_Converged-OPLS-2005>
0

> <r_mmod_RMS_Derivative-OPLS-2005>
2.81104111671448

$$$$
98
                    3D
 Structure written by MMmdl.
161170  0  0  1  0            999 V2000
  -30.6208  -14.6595   20.4947 C   0  0  0  0  0  0
  -30.4386  -12.4034   19.4596 C   0  0  0  0  0  0
  -29.5106  -12.5225   18.2295 C   0  0  0  0  0  0
  -28.0332  -12.3559   18.6383 C   0  0  0  0  0  0
  -27.6553  -13.2234   19.8693 C   0  0  2  0  0  0
  -28.7014  -13.0810   20.9999 C   0  0  0  0  0  0
  -25.2558  -13.8181   20.5676 C   0  0  0  0  0  0
  -24.1836  -13.0444   20.9200 C   0  0  0  0  0  0
  -24.6415  -11.6916   20.8760 C   0  0  0  0  0  0
  -23.9093  -10.4294   21.0419 C   0  0  0  0  0  0
  -24.3637   -9.4204   21.9197 C   0  0  0  0  0  0
  -23.6303   -8.2243   22.0755 C   0  0  0  0  0  0
  -22.4280   -8.0287   21.3550 C   0  0  0  0  0  0
  -21.9932   -9.0263   20.4651 C   0  0  0  0  0  0
  -22.7268  -10.2142   20.3067 C   0  0  0  0  0  0
  -21.6853   -6.0752   22.5287 C   0  0  0  0  0  0
  -21.4012   -6.5648   23.8220 C   0  0  0  0  0  0
  -21.3664   -5.6800   24.9178 C   0  0  0  0  0  0
  -21.6043   -4.3060   24.7232 C   0  0  0  0  0  0
  -21.8817   -3.8156   23.4352 C   0  0  0  0  0  0
  -21.9189   -4.6979   22.3409 C   0  0  0  0  0  0
  -22.7858  -13.5237   21.1860 C   0  0  0  0  0  0
  -22.1653   -4.2165   21.0991 F   0  0  0  0  0  0
  -21.5635   -3.4546   25.7745 F   0  0  0  0  0  0
  -30.0185  -13.4265   20.4393 N   0  0  0  0  0  0
  -26.3006  -12.9378   20.3358 N   0  0  0  0  0  0
  -25.9351  -11.6525   20.5792 N   0  0  0  0  0  0
  -22.0486  -12.8228   22.0410 N   0  0  0  0  0  0
  -25.4247  -15.1898   20.4027 N   0  0  0  0  0  0
  -31.7649  -14.8295   20.0634 O   0  0  0  0  0  0
  -21.6630   -6.8891   21.4246 O   0  0  0  0  0  0
  -22.3542  -14.5534   20.6694 O   0  0  0  0  0  0
  -24.6279  -31.8579   23.2050 C   0  0  0  0  0  0
  -25.9121  -32.4763   23.8371 C   0  0  1  0  0  0
  -27.2164  -27.3019   20.1185 C   0  0  0  0  0  0
  -25.5947  -33.8566   24.2292 N   0  0  0  0  0  0
  -23.4222  -30.4839   21.5471 C   0  0  2  0  0  0
  -24.8694  -28.9386   20.1164 C   0  0  0  0  0  0
  -22.7481  -29.4612   22.4928 C   0  0  0  0  0  0
  -18.0285  -28.1371   22.8478 C   0  0  0  0  0  0
  -24.1488  -36.7285   23.2643 C   0  0  0  0  0  0
  -25.9668  -30.7803   21.3837 C   0  0  0  0  0  0
  -26.0394  -29.4053   20.7306 C   0  0  0  0  0  0
  -27.2185  -28.5971   20.7280 C   0  0  0  0  0  0
  -26.0383  -26.9152   19.4536 C   0  0  0  0  0  0
  -24.8707  -27.6960   19.4690 C   0  0  0  0  0  0
  -23.6399  -29.8217   20.1622 C   0  0  0  0  0  0
  -25.4110  -36.3068   24.0332 C   0  0  1  0  0  0
  -20.5889  -28.3681   23.1268 C   0  0  2  0  0  0
  -20.6770  -26.9398   22.5402 C   0  0  0  0  0  0
  -19.5748  -26.6372   21.5199 C   0  0  0  0  0  0
  -18.1928  -26.7914   22.1610 C   0  0  0  0  0  0
  -19.1538  -28.8839   23.2868 C   0  0  0  0  0  0
  -18.9465  -30.1443   23.8883 C   0  0  0  0  0  0
  -17.6463  -30.6576   24.0548 C   0  0  0  0  0  0
  -25.9049  -34.9435   23.5106 C   0  0  0  0  0  0
  -16.5355  -29.9071   23.6325 C   0  0  0  0  0  0
  -16.7270  -28.6486   23.0350 C   0  0  0  0  0  0
  -26.4511  -31.6570   25.0733 C   0  0  0  0  0  0
  -25.3754  -31.3700   26.1466 C   0  0  0  0  0  0
  -27.0371  -30.2993   24.6204 C   0  0  0  0  0  0
  -27.6065  -32.4318   25.7503 C   0  0  0  0  0  0
  -27.5576  -37.1797   24.8469 C   0  0  0  0  0  0
  -21.4192  -29.3042   22.3666 N   0  0  0  0  0  0
  -26.4283  -37.3764   23.9415 N   0  0  0  0  0  0
  -24.6907  -31.0591   22.1003 N   0  0  0  0  0  0
  -23.4199  -28.8142   23.3004 O   0  0  0  0  0  0
  -28.3027  -26.4111   20.1067 O   0  0  0  0  0  0
  -26.5603  -34.8900   22.4659 O   0  0  0  0  0  0
  -23.5437  -32.1395   23.7362 O   0  0  0  0  0  0
  -28.7451  -19.3371   21.2056 C   0  0  0  0  0  0
  -30.5730  -17.8364   19.6940 C   0  0  0  0  0  0
  -29.4281  -20.0232   20.1704 C   0  0  0  0  0  0
  -30.3672  -19.2321   19.4340 C   0  0  0  0  0  0
  -29.8333  -17.1442   20.6938 C   0  0  0  0  0  0
  -28.9339  -17.9432   21.4497 C   0  0  0  0  0  0
  -28.2406  -23.7020   20.1190 C   0  0  0  0  0  0
  -29.0856  -22.6283   20.3883 C   0  0  0  0  0  0
  -27.1556  -23.3925   19.1677 C   0  0  0  0  0  0
  -27.5181  -22.4437   18.0361 C   0  0  0  0  0  0
  -28.0833  -21.1394   18.6170 C   0  0  0  0  0  0
  -30.2020  -22.7479   21.4102 C   0  0  0  0  0  0
  -28.1520  -25.1199   20.8431 C   0  0  0  0  0  0
  -29.0241  -21.3445   19.7309 N   0  0  0  0  0  0
  -31.0799  -19.8420   18.4000 N   0  0  0  0  0  0
  -29.8466  -15.6949   20.9476 N   0  0  0  0  0  0
  -25.9808  -23.7396   19.3059 O   0  0  0  0  0  0
  -28.1909  -17.3430   22.4108 F   0  0  0  0  0  0
  -31.4808  -12.5215   19.1597 H   0  0  0  0  0  0
  -30.3667  -11.4072   19.8986 H   0  0  0  0  0  0
  -29.7770  -11.7783   17.4773 H   0  0  0  0  0  0
  -29.6516  -13.4965   17.7587 H   0  0  0  0  0  0
  -27.8700  -11.3014   18.8637 H   0  0  0  0  0  0
  -27.3782  -12.5894   17.7981 H   0  0  0  0  0  0
  -27.6712  -14.2602   19.5328 H   0  0  0  0  0  0
  -28.7137  -12.0613   21.3864 H   0  0  0  0  0  0
  -28.4432  -13.7163   21.8487 H   0  0  0  0  0  0
  -25.2779   -9.5680   22.4781 H   0  0  0  0  0  0
  -24.0018   -7.4631   22.7468 H   0  0  0  0  0  0
  -21.0869   -8.8789   19.8953 H   0  0  0  0  0  0
  -22.3730  -10.9687   19.6178 H   0  0  0  0  0  0
  -21.1995   -7.6151   23.9739 H   0  0  0  0  0  0
  -21.1492   -6.0518   25.9086 H   0  0  0  0  0  0
  -22.0593   -2.7621   23.2844 H   0  0  0  0  0  0
  -22.4065  -11.9873   22.4795 H   0  0  0  0  0  0
  -21.1110  -13.1272   22.2615 H   0  0  0  0  0  0
  -24.6597  -15.8456   20.5132 H   0  0  0  0  0  0
  -26.2749  -15.6260   20.0691 H   0  0  0  0  0  0
  -26.7181  -32.5424   23.1110 H   0  0  0  0  0  0
  -25.0138  -33.9719   25.0469 H   0  0  0  0  0  0
  -22.7166  -31.3047   21.4036 H   0  0  0  0  0  0
  -23.3747  -35.9618   23.3295 H   0  0  0  0  0  0
  -24.3589  -36.8909   22.2057 H   0  0  0  0  0  0
  -23.7241  -37.6484   23.6669 H   0  0  0  0  0  0
  -26.1082  -31.5412   20.6144 H   0  0  0  0  0  0
  -26.8438  -30.8274   22.0172 H   0  0  0  0  0  0
  -28.1150  -28.9503   21.2167 H   0  0  0  0  0  0
  -26.0166  -26.0033   18.8882 H   0  0  0  0  0  0
  -23.9848  -27.3430   18.9584 H   0  0  0  0  0  0
  -23.7645  -30.5993   19.4075 H   0  0  0  0  0  0
  -22.7599  -29.2546   19.8547 H   0  0  0  0  0  0
  -25.1290  -36.1912   25.0823 H   0  0  0  0  0  0
  -20.9976  -28.3246   24.1389 H   0  0  0  0  0  0
  -20.5652  -26.2292   23.3605 H   0  0  0  0  0  0
  -21.6637  -26.7412   22.1201 H   0  0  0  0  0  0
  -19.6910  -25.6285   21.1229 H   0  0  0  0  0  0
  -19.6680  -27.3174   20.6721 H   0  0  0  0  0  0
  -17.4197  -26.6659   21.4011 H   0  0  0  0  0  0
  -18.0326  -26.0050   22.9000 H   0  0  0  0  0  0
  -19.7945  -30.7256   24.2245 H   0  0  0  0  0  0
  -17.5022  -31.6257   24.5147 H   0  0  0  0  0  0
  -15.5354  -30.2967   23.7660 H   0  0  0  0  0  0
  -15.8669  -28.0795   22.7082 H   0  0  0  0  0  0
  -24.5945  -30.7024   25.7817 H   0  0  0  0  0  0
  -24.8929  -32.2856   26.4901 H   0  0  0  0  0  0
  -25.8094  -30.8893   27.0245 H   0  0  0  0  0  0
  -26.2954  -29.6723   24.1244 H   0  0  0  0  0  0
  -27.4093  -29.7265   25.4716 H   0  0  0  0  0  0
  -27.8814  -30.4292   23.9425 H   0  0  0  0  0  0
  -27.2675  -33.3638   26.2047 H   0  0  0  0  0  0
  -28.3888  -32.6846   25.0331 H   0  0  0  0  0  0
  -28.0717  -31.8461   26.5448 H   0  0  0  0  0  0
  -28.2580  -38.0109   24.7519 H   0  0  0  0  0  0
  -28.1081  -36.2635   24.6281 H   0  0  0  0  0  0
  -27.2296  -37.1420   25.8874 H   0  0  0  0  0  0
  -20.9375  -29.8781   21.6886 H   0  0  0  0  0  0
  -26.0157  -38.2833   24.1419 H   0  0  0  0  0  0
  -28.0021  -19.8666   21.7814 H   0  0  0  0  0  0
  -31.2664  -17.2807   19.0792 H   0  0  0  0  0  0
  -28.2621  -22.9291   17.4051 H   0  0  0  0  0  0
  -26.6465  -22.2417   17.4141 H   0  0  0  0  0  0
  -28.5614  -20.5811   17.8111 H   0  0  0  0  0  0
  -27.2517  -20.5230   18.9651 H   0  0  0  0  0  0
  -29.7909  -22.8202   22.4180 H   0  0  0  0  0  0
  -30.7907  -23.6451   21.2155 H   0  0  0  0  0  0
  -30.8932  -21.9048   21.3789 H   0  0  0  0  0  0
  -28.9181  -25.1401   21.6169 H   0  0  0  0  0  0
  -27.2120  -25.1329   21.3992 H   0  0  0  0  0  0
  -32.0063  -19.4878   18.1892 H   0  0  0  0  0  0
  -31.0461  -20.8576   18.4125 H   0  0  0  0  0  0
  -29.0326  -15.3809   21.4549 H   0  0  0  0  0  0
  1 25  1  0  0  0
  1 30  2  0  0  0
  1 86  1  0  0  0
  2  3  1  0  0  0
  2 25  1  0  0  0
  2 89  1  0  0  0
  2 90  1  0  0  0
  3  4  1  0  0  0
  3 91  1  0  0  0
  3 92  1  0  0  0
  4  5  1  0  0  0
  4 93  1  0  0  0
  4 94  1  0  0  0
  5  6  1  0  0  0
  5 26  1  0  0  0
  5 95  1  0  0  0
  6 25  1  0  0  0
  6 96  1  0  0  0
  6 97  1  0  0  0
  7  8  2  0  0  0
  7 26  1  0  0  0
  7 29  1  0  0  0
  8  9  1  0  0  0
  8 22  1  0  0  0
  9 10  1  0  0  0
  9 27  2  0  0  0
 10 11  2  0  0  0
 10 15  1  0  0  0
 11 12  1  0  0  0
 11 98  1  0  0  0
 12 13  2  0  0  0
 12 99  1  0  0  0
 13 14  1  0  0  0
 13 31  1  0  0  0
 14 15  2  0  0  0
 14100  1  0  0  0
 15101  1  0  0  0
 16 17  2  0  0  0
 16 21  1  0  0  0
 16 31  1  0  0  0
 17 18  1  0  0  0
 17102  1  0  0  0
 18 19  2  0  0  0
 18103  1  0  0  0
 19 20  1  0  0  0
 19 24  1  0  0  0
 20 21  2  0  0  0
 20104  1  0  0  0
 21 23  1  0  0  0
 22 28  1  0  0  0
 22 32  2  0  0  0
 26 27  1  0  0  0
 28105  1  0  0  0
 28106  1  0  0  0
 29107  1  0  0  0
 29108  1  0  0  0
 33 34  1  0  0  0
 33 66  1  0  0  0
 33 70  2  0  0  0
 34 36  1  0  0  0
 34 59  1  0  0  0
 34109  1  0  0  0
 35 44  2  0  0  0
 35 45  1  0  0  0
 35 68  1  0  0  0
 36 56  1  0  0  0
 36110  1  0  0  0
 37 39  1  0  0  0
 37 47  1  0  0  0
 37 66  1  0  0  0
 37111  1  0  0  0
 38 43  2  0  0  0
 38 46  1  0  0  0
 38 47  1  0  0  0
 39 64  1  0  0  0
 39 67  2  0  0  0
 40 52  1  0  0  0
 40 53  2  0  0  0
 40 58  1  0  0  0
 41112  1  0  0  0
 41113  1  0  0  0
 41114  1  0  0  0
 41 48  1  0  0  0
 42 43  1  0  0  0
 42 66  1  0  0  0
 42115  1  0  0  0
 42116  1  0  0  0
 43 44  1  0  0  0
 44117  1  0  0  0
 45 46  2  0  0  0
 45118  1  0  0  0
 46119  1  0  0  0
 47120  1  0  0  0
 47121  1  0  0  0
 48 56  1  0  0  0
 48 65  1  0  0  0
 48122  1  0  0  0
 49 50  1  0  0  0
 49 53  1  0  0  0
 49 64  1  0  0  0
 49123  1  0  0  0
 50 51  1  0  0  0
 50124  1  0  0  0
 50125  1  0  0  0
 51 52  1  0  0  0
 51126  1  0  0  0
 51127  1  0  0  0
 52128  1  0  0  0
 52129  1  0  0  0
 53 54  1  0  0  0
 54 55  2  0  0  0
 54130  1  0  0  0
 55 57  1  0  0  0
 55131  1  0  0  0
 56 69  2  0  0  0
 57 58  2  0  0  0
 57132  1  0  0  0
 58133  1  0  0  0
 59 60  1  0  0  0
 59 61  1  0  0  0
 59 62  1  0  0  0
 60134  1  0  0  0
 60135  1  0  0  0
 60136  1  0  0  0
 61137  1  0  0  0
 61138  1  0  0  0
 61139  1  0  0  0
 62140  1  0  0  0
 62141  1  0  0  0
 62142  1  0  0  0
 63 65  1  0  0  0
 63143  1  0  0  0
 63144  1  0  0  0
 63145  1  0  0  0
 64146  1  0  0  0
 65147  1  0  0  0
 68 83  1  0  0  0
 71 73  2  0  0  0
 71 76  1  0  0  0
 71148  1  0  0  0
 72 74  2  0  0  0
 72 75  1  0  0  0
 72149  1  0  0  0
 73 74  1  0  0  0
 73 84  1  0  0  0
 74 85  1  0  0  0
 75 76  2  0  0  0
 75 86  1  0  0  0
 76 88  1  0  0  0
 77 78  2  0  0  0
 77 79  1  0  0  0
 77 83  1  0  0  0
 78 82  1  0  0  0
 78 84  1  0  0  0
 79 80  1  0  0  0
 79 87  2  0  0  0
 80 81  1  0  0  0
 80150  1  0  0  0
 80151  1  0  0  0
 81 84  1  0  0  0
 81152  1  0  0  0
 81153  1  0  0  0
 82154  1  0  0  0
 82155  1  0  0  0
 82156  1  0  0  0
 83157  1  0  0  0
 83158  1  0  0  0
 85159  1  0  0  0
 85160  1  0  0  0
 86161  1  0  0  0
M  ISO  4   1 100  68 101  83 101  86 100
M  END
> <chiral flag>
0

> <version>
0

> <s_m_source_file>
/data/baiqing/PycharmProjects/Reinvent-master-3.2/result/LINK_invent/BTK/process_docking_weight1_custom_product_contain_oxygen_bond_distance_aromatic_linkinvent_7_9_3/rearranged_h_0109.sdf

> <i_m_source_file_index>
99

> <r_mmod_Potential_Energy-OPLS-2005>
85.778205871582

> <r_mmod_Stretch_Energy-OPLS-2005>
97.0887603759766

> <r_mmod_Bend_Energy-OPLS-2005>
150.799850463867

> <r_mmod_Torsional_Energy-OPLS-2005>
269.411346435547

> <r_mmod_Improper_Torsional_Energy-OPLS-2005>
11.7162246704102

> <r_mmod_Van_der_Waal_Energy-OPLS-2005>
157.146957397461

> <r_mmod_Electrostatic_Energy-OPLS-2005>
-443.214721679688

> <r_mmod_Solvation_Energy-OPLS-2005>
-213.337692260742

> <b_mmod_Minimization_Converged-OPLS-2005>
0

> <r_mmod_RMS_Derivative-OPLS-2005>
1.65122699737549

$$$$
